# generated using pymatgen
data_Na7Mn16O32
_symmetry_space_group_name_H-M   'P 1'
_cell_length_a   10.32659591
_cell_length_b   10.32659591
_cell_length_c   10.32659591
_cell_angle_alpha   131.61627166
_cell_angle_beta   131.61627166
_cell_angle_gamma   70.83576347
_symmetry_Int_Tables_number   1
_chemical_formula_structural   Na7Mn16O32
_chemical_formula_sum   'Na7 Mn16 O32'
_cell_volume   602.82470542
_cell_formula_units_Z   1
loop_
 _symmetry_equiv_pos_site_id
 _symmetry_equiv_pos_as_xyz
  1  'x, y, z'
loop_
 _atom_site_type_symbol
 _atom_site_label
 _atom_site_symmetry_multiplicity
 _atom_site_fract_x
 _atom_site_fract_y
 _atom_site_fract_z
 _atom_site_occupancy
  Na  Na0  1  0.50000000  0.50000000  0.00000000  1
  Na  Na1  1  0.12301400  0.12301400  0.49239000  1
  Na  Na2  1  0.63062400  0.63062400  0.50761000  1
  Na  Na3  1  0.25000000  0.75000000  0.50000000  1
  Na  Na4  1  0.75000000  0.25000000  0.50000000  1
  Na  Na5  1  0.87698600  0.36937600  0.00000000  1
  Na  Na6  1  0.36937600  0.87698600  0.00000000  1
  Mn  Mn0  1  0.43338600  0.18542700  0.49515500  1
  Mn  Mn1  1  0.18542700  0.43338600  0.49515500  1
  Mn  Mn2  1  0.69027200  0.93823100  0.50484500  1
  Mn  Mn3  1  0.93823100  0.69027200  0.50484500  1
  Mn  Mn4  1  0.30972800  0.81457300  0.24795900  1
  Mn  Mn5  1  0.56661400  0.06176900  0.75204100  1
  Mn  Mn6  1  0.81457300  0.30972800  0.24795900  1
  Mn  Mn7  1  0.06176900  0.56661400  0.75204100  1
  Mn  Mn8  1  0.43736900  0.18836500  0.00000000  1
  Mn  Mn9  1  0.93890600  0.68902300  0.00000000  1
  Mn  Mn10  1  0.18836500  0.43736900  0.00000000  1
  Mn  Mn11  1  0.68902300  0.93890600  0.00000000  1
  Mn  Mn12  1  0.56263100  0.56263100  0.75099600  1
  Mn  Mn13  1  0.06109400  0.06109400  0.75011600  1
  Mn  Mn14  1  0.31097700  0.31097700  0.24988400  1
  Mn  Mn15  1  0.81163500  0.81163500  0.24900400  1
  O  O0  1  0.15754700  0.65675900  0.70918400  1
  O  O1  1  0.65675900  0.15754700  0.70918400  1
  O  O2  1  0.44836400  0.94757600  0.29081600  1
  O  O3  1  0.94757600  0.44836400  0.29081600  1
  O  O4  1  0.05242400  0.34324100  0.50078800  1
  O  O5  1  0.55163600  0.84245300  0.49921200  1
  O  O6  1  0.34324100  0.05242400  0.50078800  1
  O  O7  1  0.84245300  0.55163600  0.49921200  1
  O  O8  1  0.78762600  0.07093100  0.00000000  1
  O  O9  1  0.57516400  0.28218400  0.00000000  1
  O  O10  1  0.28218400  0.57516400  0.00000000  1
  O  O11  1  0.07093100  0.78762600  0.00000000  1
  O  O12  1  0.96719900  0.46835500  0.79101800  1
  O  O13  1  0.46835500  0.96719900  0.79101800  1
  O  O14  1  0.17618100  0.67733700  0.20898200  1
  O  O15  1  0.67733700  0.17618100  0.20898200  1
  O  O16  1  0.90689400  0.90689400  0.20975600  1
  O  O17  1  0.19754300  0.19754300  0.78796600  1
  O  O18  1  0.69713800  0.69713800  0.79024400  1
  O  O19  1  0.40957800  0.40957800  0.21203400  1
  O  O20  1  0.09310600  0.30286200  0.00000000  1
  O  O21  1  0.59042200  0.80245700  0.00000000  1
  O  O22  1  0.80245700  0.59042200  0.00000000  1
  O  O23  1  0.30286200  0.09310600  0.00000000  1
  O  O24  1  0.82381900  0.03280100  0.50115600  1
  O  O25  1  0.32266300  0.53164500  0.49884400  1
  O  O26  1  0.03280100  0.82381900  0.50115600  1
  O  O27  1  0.53164500  0.32266300  0.49884400  1
  O  O28  1  0.21237400  0.21237400  0.28330600  1
  O  O29  1  0.92906900  0.92906900  0.71669400  1
  O  O30  1  0.71781600  0.71781600  0.29298000  1
  O  O31  1  0.42483600  0.42483600  0.70702000  1
loop_
_geom_bond_atom_site_label_1
_geom_bond_atom_site_label_2
_geom_bond_distance
_geom_bond_site_symmetry_2
Na0 O9 2.124981 1_555
Na0 O31 2.124981 1_554
Na0 O30 2.124981 1_555
Na0 O10 2.124981 1_555
Na1 O6 2.108183 1_555
Na1 O4 2.108183 1_555
Na1 O16 2.108599 1_445
Na1 O17 2.156257 1_555
Na2 O5 2.108183 1_555
Na2 O7 2.108183 1_555
Na2 O18 2.108599 1_555
Na2 O19 2.156247 1_555
Na3 O25 2.124353 1_555
Na3 O14 2.124353 1_555
Na3 O26 2.124353 1_555
Na3 O13 2.124353 1_555
Na4 O27 2.124353 1_555
Na4 O15 2.124353 1_555
Na4 O24 2.124353 1_555
Na4 O12 2.124353 1_555
Na5 O3 2.108173 1_555
Na5 O1 2.108183 1_554
Na5 O20 2.108599 1_655
Na5 O22 2.156247 1_555
Na6 O2 2.108173 1_555
Na6 O0 2.108183 1_554
Na6 O23 2.108599 1_565
Na6 O21 2.156247 1_555
Mn0 O6 1.942638 1_555
Mn0 O2 1.951725 1_545
Mn0 O28 1.957523 1_555
Mn0 O31 1.958390 1_555
Mn0 O27 1.964814 1_555
Mn0 O1 1.981408 1_555
Mn1 O4 1.942638 1_555
Mn1 O3 1.951725 1_455
Mn1 O28 1.957523 1_555
Mn1 O31 1.958390 1_555
Mn1 O25 1.964814 1_555
Mn1 O0 1.981408 1_555
Mn2 O5 1.942638 1_555
Mn2 O1 1.951726 1_565
Mn2 O29 1.957525 1_555
Mn2 O30 1.958390 1_555
Mn2 O24 1.964814 1_565
Mn2 O2 1.981407 1_555
Mn3 O7 1.942638 1_555
Mn3 O0 1.951726 1_655
Mn3 O29 1.957525 1_555
Mn3 O30 1.958390 1_555
Mn3 O26 1.964814 1_655
Mn3 O3 1.981407 1_555
Mn4 O2 1.942645 1_555
Mn4 O6 1.951722 1_565
Mn4 O11 1.957528 1_555
Mn4 O10 1.958390 1_555
Mn4 O14 1.964814 1_555
Mn4 O5 1.981404 1_555
Mn5 O1 1.942629 1_555
Mn5 O5 1.951722 1_545
Mn5 O8 1.957528 1_556
Mn5 O9 1.958390 1_556
Mn5 O13 1.964814 1_545
Mn5 O6 1.981404 1_555
Mn6 O3 1.942645 1_555
Mn6 O4 1.951722 1_655
Mn6 O8 1.957528 1_555
Mn6 O9 1.958390 1_555
Mn6 O15 1.964814 1_555
Mn6 O7 1.981404 1_555
Mn7 O0 1.942629 1_555
Mn7 O7 1.951722 1_455
Mn7 O11 1.957528 1_556
Mn7 O10 1.958390 1_556
Mn7 O12 1.964814 1_455
Mn7 O4 1.981404 1_555
Mn8 O23 1.947839 1_555
Mn8 O19 1.963528 1_555
Mn8 O17 1.963529 1_554
Mn8 O15 1.966323 1_555
Mn8 O13 1.966323 1_544
Mn8 O9 1.966864 1_555
Mn9 O14 1.950295 1_655
Mn9 O12 1.950295 1_554
Mn9 O11 1.951159 1_655
Mn9 O18 1.962815 1_554
Mn9 O16 1.962815 1_555
Mn9 O22 1.991019 1_555
Mn10 O20 1.947839 1_555
Mn10 O19 1.963528 1_555
Mn10 O17 1.963529 1_554
Mn10 O14 1.966323 1_555
Mn10 O12 1.966323 1_454
Mn10 O10 1.966864 1_555
Mn11 O15 1.950295 1_565
Mn11 O13 1.950295 1_554
Mn11 O8 1.951159 1_565
Mn11 O18 1.962815 1_554
Mn11 O16 1.962815 1_555
Mn11 O21 1.991019 1_555
Mn12 O18 1.947839 1_555
Mn12 O21 1.963532 1_556
Mn12 O22 1.963532 1_556
Mn12 O27 1.966323 1_555
Mn12 O25 1.966323 1_555
Mn12 O31 1.966864 1_555
Mn13 O26 1.950291 1_545
Mn13 O24 1.950291 1_455
Mn13 O29 1.951159 1_445
Mn13 O23 1.962819 1_556
Mn13 O20 1.962819 1_556
Mn13 O17 1.991004 1_555
Mn14 O27 1.950290 1_555
Mn14 O25 1.950290 1_555
Mn14 O28 1.951159 1_555
Mn14 O23 1.962821 1_555
Mn14 O20 1.962821 1_555
Mn14 O19 1.991038 1_555
Mn15 O16 1.947839 1_555
Mn15 O22 1.963532 1_555
Mn15 O21 1.963532 1_555
Mn15 O24 1.966323 1_565
Mn15 O26 1.966323 1_655
Mn15 O30 1.966864 1_555
