# generated using pymatgen
data_Li2CrCu(PO4)2
_symmetry_space_group_name_H-M   'P 1'
_cell_length_a   6.12847500
_cell_length_b   4.76663300
_cell_length_c   10.18698646
_cell_angle_alpha   89.98280618
_cell_angle_beta   90.00000000
_cell_angle_gamma   90.00000000
_symmetry_Int_Tables_number   1
_chemical_formula_structural   Li2CrCu(PO4)2
_chemical_formula_sum   'Li4 Cr2 Cu2 P4 O16'
_cell_volume   297.58418253
_cell_formula_units_Z   2
loop_
 _symmetry_equiv_pos_site_id
 _symmetry_equiv_pos_as_xyz
  1  'x, y, z'
loop_
 _atom_site_type_symbol
 _atom_site_label
 _atom_site_symmetry_multiplicity
 _atom_site_fract_x
 _atom_site_fract_y
 _atom_site_fract_z
 _atom_site_occupancy
  Li  Li0  1  0.00000000  0.00000000  0.00000000  1
  Li  Li1  1  0.50000000  0.00000000  0.00000000  1
  Li  Li2  1  0.00000000  0.50000000  0.50000000  1
  Li  Li3  1  0.50000000  0.50000000  0.50000000  1
  Cr  Cr0  1  0.25000000  0.48131000  0.21990300  1
  Cr  Cr1  1  0.75000000  0.51869000  0.78009700  1
  Cu  Cu0  1  0.75000000  0.95805700  0.28345500  1
  Cu  Cu1  1  0.25000000  0.04194300  0.71654500  1
  P  P0  1  0.75000000  0.42258800  0.09205900  1
  P  P1  1  0.25000000  0.91451100  0.40382100  1
  P  P2  1  0.75000000  0.08548900  0.59617900  1
  P  P3  1  0.25000000  0.57741200  0.90794100  1
  O  O0  1  0.25000000  0.70545700  0.05065700  1
  O  O1  1  0.75000000  0.74364400  0.09238600  1
  O  O2  1  0.95590200  0.29248500  0.15972400  1
  O  O3  1  0.54409800  0.29248500  0.15972400  1
  O  O4  1  0.44816400  0.77295800  0.33141400  1
  O  O5  1  0.05183600  0.77295800  0.33141400  1
  O  O6  1  0.25000000  0.23860500  0.39574200  1
  O  O7  1  0.75000000  0.19606500  0.45389300  1
  O  O8  1  0.25000000  0.80393500  0.54610700  1
  O  O9  1  0.75000000  0.76139500  0.60425800  1
  O  O10  1  0.94816400  0.22704200  0.66858600  1
  O  O11  1  0.55183600  0.22704200  0.66858600  1
  O  O12  1  0.45590200  0.70751500  0.84027600  1
  O  O13  1  0.04409800  0.70751500  0.84027600  1
  O  O14  1  0.25000000  0.25635600  0.90761400  1
  O  O15  1  0.75000000  0.29454300  0.94934300  1
loop_
_geom_bond_atom_site_label_1
_geom_bond_atom_site_label_2
_geom_bond_distance
_geom_bond_site_symmetry_2
Li0 O0 2.141123 1_545
Li0 O15 2.141123 1_454
Li0 O2 2.159995 1_455
Li0 O13 2.159995 1_544
Li0 O1 2.173846 1_445
Li0 O14 2.173846 1_554
Li1 O0 2.141123 1_545
Li1 O15 2.141123 1_554
Li1 O3 2.159995 1_555
Li1 O12 2.159995 1_544
Li1 O1 2.173846 1_545
Li1 O14 2.173846 1_554
Li2 O7 2.160387 1_455
Li2 O8 2.160387 1_555
Li2 O5 2.177572 1_555
Li2 O10 2.177572 1_455
Li2 O9 2.242462 1_455
Li2 O6 2.242462 1_555
Li3 O7 2.160387 1_555
Li3 O8 2.160387 1_555
Li3 O4 2.177572 1_555
Li3 O11 2.177572 1_555
Li3 O9 2.242462 1_555
Li3 O6 2.242462 1_555
Cr0 O0 2.028047 1_555
Cr0 O3 2.105898 1_555
Cr0 O2 2.105898 1_455
Cr0 O6 2.132085 1_555
Cr0 O5 2.167677 1_555
Cr0 O4 2.167677 1_555
Cr1 O15 2.028047 1_555
Cr1 O13 2.105898 1_655
Cr1 O12 2.105898 1_555
Cr1 O9 2.132085 1_555
Cr1 O10 2.167677 1_555
Cr1 O11 2.167677 1_555
Cu0 O7 2.074326 1_565
Cu0 O4 2.106803 1_555
Cu0 O5 2.106803 1_655
Cu0 O1 2.198699 1_555
Cu0 O2 2.391853 1_565
Cu0 O3 2.391853 1_565
Cu1 O8 2.074326 1_545
Cu1 O10 2.106803 1_455
Cu1 O11 2.106803 1_555
Cu1 O14 2.198699 1_555
Cu1 O12 2.391853 1_545
Cu1 O13 2.391853 1_545
O0 P3 1.576934 1_554
O1 P0 1.530361 1_555
O2 P0 1.565815 1_555
O3 P0 1.565815 1_555
O4 P1 1.573054 1_555
O5 P1 1.573054 1_555
O6 P1 1.547003 1_545
O7 P2 1.542174 1_555
O8 P1 1.542174 1_555
O9 P2 1.547003 1_565
O10 P2 1.573054 1_555
O11 P2 1.573054 1_555
O12 P3 1.565815 1_555
O13 P3 1.565815 1_555
O14 P3 1.530361 1_555
O15 P0 1.576934 1_556
