# generated using pymatgen
data_FeOF
_symmetry_space_group_name_H-M   'P 1'
_cell_length_a   3.08770700
_cell_length_b   14.23979900
_cell_length_c   14.23982094
_cell_angle_alpha   89.96315561
_cell_angle_beta   90.00000000
_cell_angle_gamma   90.00000000
_symmetry_Int_Tables_number   1
_chemical_formula_structural   FeOF
_chemical_formula_sum   'Fe18 O18 F18'
_cell_volume   626.10097497
_cell_formula_units_Z   18
loop_
 _symmetry_equiv_pos_site_id
 _symmetry_equiv_pos_as_xyz
  1  'x, y, z'
loop_
 _atom_site_type_symbol
 _atom_site_label
 _atom_site_symmetry_multiplicity
 _atom_site_fract_x
 _atom_site_fract_y
 _atom_site_fract_z
 _atom_site_occupancy
  Fe  Fe0  1  0.00000000  0.99371400  0.01567800  1
  Fe  Fe1  1  0.00000000  0.32790200  0.01162900  1
  Fe  Fe2  1  0.00000000  0.67276900  0.99552100  1
  Fe  Fe3  1  0.50000000  0.16193100  0.15383400  1
  Fe  Fe4  1  0.50000000  0.49390500  0.15505800  1
  Fe  Fe5  1  0.50000000  0.84273900  0.17927100  1
  Fe  Fe6  1  0.00000000  0.99448100  0.34155300  1
  Fe  Fe7  1  0.00000000  0.33672700  0.34317500  1
  Fe  Fe8  1  0.00000000  0.67670400  0.33561300  1
  Fe  Fe9  1  0.50000000  0.50423900  0.48457100  1
  Fe  Fe10  1  0.50000000  0.14333400  0.50101300  1
  Fe  Fe11  1  0.50000000  0.83248900  0.48762600  1
  Fe  Fe12  1  0.00000000  0.00386800  0.67363100  1
  Fe  Fe13  1  0.00000000  0.32944400  0.67650000  1
  Fe  Fe14  1  0.00000000  0.66569800  0.68014200  1
  Fe  Fe15  1  0.50000000  0.16386800  0.82023300  1
  Fe  Fe16  1  0.50000000  0.49534300  0.81759500  1
  Fe  Fe17  1  0.50000000  0.83524300  0.81666300  1
  O  O0  1  0.50000000  0.26975600  0.06810200  1
  O  O1  1  0.50000000  0.93089600  0.06535700  1
  O  O2  1  0.00000000  0.10326500  0.10284700  1
  O  O3  1  0.00000000  0.43563200  0.10137700  1
  O  O4  1  0.00000000  0.90433500  0.23522500  1
  O  O5  1  0.50000000  0.72944300  0.26654900  1
  O  O6  1  0.50000000  0.60136300  0.39424300  1
  O  O7  1  0.50000000  0.93964500  0.40243800  1
  O  O8  1  0.00000000  0.10672200  0.43068600  1
  O  O9  1  0.00000000  0.43140700  0.43303500  1
  O  O10  1  0.00000000  0.76742900  0.43948000  1
  O  O11  1  0.50000000  0.06211100  0.60552800  1
  O  O12  1  0.50000000  0.26873800  0.72982500  1
  O  O13  1  0.50000000  0.60216000  0.73143000  1
  O  O14  1  0.50000000  0.93712300  0.72968700  1
  O  O15  1  0.00000000  0.10221000  0.77295000  1
  O  O16  1  0.00000000  0.43395200  0.76595200  1
  O  O17  1  0.00000000  0.76927400  0.76761900  1
  F  F0  1  0.50000000  0.60221000  0.06765200  1
  F  F1  1  0.00000000  0.76961200  0.10557100  1
  F  F2  1  0.00000000  0.23914200  0.23913000  1
  F  F3  1  0.00000000  0.55749300  0.22896200  1
  F  F4  1  0.50000000  0.07288500  0.26822000  1
  F  F5  1  0.50000000  0.39571500  0.26904500  1
  F  F6  1  0.50000000  0.26844000  0.39800700  1
  F  F7  1  0.00000000  0.23563600  0.56062200  1
  F  F8  1  0.00000000  0.56412400  0.56438100  1
  F  F9  1  0.00000000  0.89426300  0.56782700  1
  F  F10  1  0.50000000  0.40134200  0.59754900  1
  F  F11  1  0.50000000  0.73086800  0.60217100  1
  F  F12  1  0.00000000  0.23473600  0.90016300  1
  F  F13  1  0.00000000  0.56001000  0.89780800  1
  F  F14  1  0.00000000  0.89978300  0.89692100  1
  F  F15  1  0.50000000  0.06561500  0.93800200  1
  F  F16  1  0.50000000  0.39800500  0.93648500  1
  F  F17  1  0.50000000  0.74026800  0.92984600  1
loop_
_geom_bond_atom_site_label_1
_geom_bond_atom_site_label_2
_geom_bond_distance
_geom_bond_site_symmetry_2
Fe0 O1 1.919185 1_455
Fe0 O1 1.919185 1_555
Fe0 O2 1.994190 1_565
Fe1 O0 1.927400 1_555
Fe1 O0 1.927400 1_455
Fe1 O3 1.997277 1_555
Fe3 O2 1.899812 1_555
Fe3 O2 1.899812 1_655
Fe3 O0 1.960978 1_555
Fe4 O3 1.912375 1_555
Fe4 O3 1.912375 1_655
Fe5 O4 1.946423 1_555
Fe5 O4 1.946423 1_655
Fe5 O5 2.035880 1_555
Fe5 O1 2.050491 1_555
Fe6 O7 1.934947 1_555
Fe6 O7 1.934947 1_455
Fe6 O4 1.985638 1_555
Fe6 O8 2.041593 1_565
Fe7 O9 1.859376 1_555
Fe8 O10 1.964449 1_555
Fe8 O5 1.978311 1_555
Fe8 O5 1.978311 1_455
Fe8 O6 2.056780 1_555
Fe8 O6 2.056780 1_455
Fe9 O6 1.888101 1_555
Fe9 O9 1.999655 1_555
Fe9 O9 1.999655 1_655
Fe10 O11 1.884269 1_555
Fe10 O8 1.912812 1_555
Fe10 O8 1.912812 1_655
Fe11 O10 1.926818 1_655
Fe11 O10 1.926818 1_555
Fe11 O7 1.948704 1_555
Fe12 O14 1.980657 1_545
Fe12 O14 1.980657 1_445
Fe12 O15 1.990926 1_555
Fe12 O11 2.002689 1_455
Fe12 O11 2.002689 1_555
Fe13 O12 1.925225 1_555
Fe13 O12 1.925225 1_455
Fe13 O16 1.959493 1_555
Fe14 O17 1.931155 1_555
Fe14 O13 1.932518 1_555
Fe14 O13 1.932518 1_455
Fe15 O15 1.899594 1_555
Fe15 O15 1.899594 1_655
Fe15 O12 1.971025 1_555
Fe16 O16 1.920761 1_555
Fe16 O16 1.920761 1_655
Fe16 O13 1.953629 1_555
Fe17 O14 1.906910 1_555
Fe17 O17 1.937654 1_555
Fe17 O17 1.937654 1_655
F0 Fe4 1.981207 1_555
F0 Fe2 2.108713 1_554
F0 Fe2 2.108713 1_654
F1 Fe2 2.088125 1_554
F1 Fe5 2.137901 1_455
F1 Fe5 2.137901 1_555
F2 Fe7 2.031919 1_555
F2 Fe3 2.251508 1_555
F2 Fe3 2.251508 1_455
F3 Fe4 2.076561 1_555
F3 Fe4 2.076561 1_455
F3 Fe8 2.278461 1_555
F4 Fe3 2.063557 1_555
F4 Fe6 2.172307 1_645
F4 Fe6 2.172307 1_545
F5 Fe7 2.049925 1_555
F5 Fe7 2.049925 1_655
F5 Fe4 2.141656 1_555
F6 Fe7 1.984364 1_555
F6 Fe7 1.984364 1_655
F6 Fe10 2.306900 1_555
F7 Fe13 2.123673 1_555
F7 Fe10 2.198400 1_555
F7 Fe10 2.198400 1_455
F8 Fe9 2.098452 1_455
F8 Fe9 2.098452 1_555
F8 Fe14 2.193717 1_555
F9 Fe11 2.112542 1_555
F9 Fe11 2.112542 1_455
F9 Fe12 2.170002 1_565
F10 Fe13 2.166594 1_655
F10 Fe13 2.166594 1_555
F10 Fe9 2.175332 1_555
F11 Fe14 2.115681 1_555
F11 Fe14 2.115681 1_655
F11 Fe11 2.179780 1_555
F12 Fe1 2.069331 1_556
F12 Fe15 2.167674 1_555
F12 Fe15 2.167674 1_455
F13 Fe2 2.125341 1_555
F13 Fe16 2.130130 1_555
F13 Fe16 2.130130 1_455
F14 Fe17 2.129693 1_555
F14 Fe17 2.129693 1_455
F14 Fe0 2.156784 1_556
F15 Fe0 2.157255 1_546
F15 Fe0 2.157255 1_646
F15 Fe15 2.183308 1_555
F16 Fe1 2.126875 1_556
F16 Fe1 2.126875 1_656
F16 Fe16 2.187313 1_555
F17 Fe2 2.044695 1_555
F17 Fe2 2.044695 1_655
F17 Fe17 2.103294 1_555
