# generated using pymatgen
data_Li2AlCoO4
_symmetry_space_group_name_H-M   'P 1'
_cell_length_a   10.84848000
_cell_length_b   5.12573700
_cell_length_c   8.16380999
_cell_angle_alpha   51.09552762
_cell_angle_beta   90.00000000
_cell_angle_gamma   90.00000000
_symmetry_Int_Tables_number   1
_chemical_formula_structural   Li2AlCoO4
_chemical_formula_sum   'Li8 Al4 Co4 O16'
_cell_volume   353.26942330
_cell_formula_units_Z   4
loop_
 _symmetry_equiv_pos_site_id
 _symmetry_equiv_pos_as_xyz
  1  'x, y, z'
loop_
 _atom_site_type_symbol
 _atom_site_label
 _atom_site_symmetry_multiplicity
 _atom_site_fract_x
 _atom_site_fract_y
 _atom_site_fract_z
 _atom_site_occupancy
  Li  Li0  1  0.16547100  0.31982200  0.99026300  1
  Li  Li1  1  0.92139400  0.53694700  0.75737300  1
  Li  Li2  1  0.42139400  0.46305300  0.74262700  1
  Li  Li3  1  0.66547100  0.68017800  0.50973700  1
  Li  Li4  1  0.33452900  0.31982200  0.49026300  1
  Li  Li5  1  0.57860600  0.53694700  0.25737300  1
  Li  Li6  1  0.07860600  0.46305300  0.24262700  1
  Li  Li7  1  0.83452900  0.68017800  0.00973700  1
  Al  Al0  1  0.58860000  0.92932100  0.75806600  1
  Al  Al1  1  0.08860000  0.07067900  0.74193400  1
  Al  Al2  1  0.91140000  0.92932100  0.25806600  1
  Al  Al3  1  0.41140000  0.07067900  0.24193400  1
  Co  Co0  1  0.33342700  0.82501600  0.99150800  1
  Co  Co1  1  0.83342700  0.17498400  0.50849200  1
  Co  Co2  1  0.16657300  0.82501600  0.49150800  1
  Co  Co3  1  0.66657300  0.17498400  0.00849200  1
  O  O0  1  0.66493200  0.83236400  0.98270500  1
  O  O1  1  0.16894100  0.73754000  0.97421100  1
  O  O2  1  0.93260500  0.96109600  0.74702700  1
  O  O3  1  0.59232700  0.56955500  0.77045600  1
  O  O4  1  0.09232700  0.43044500  0.72954400  1
  O  O5  1  0.43260500  0.03890400  0.75297300  1
  O  O6  1  0.66894100  0.26246000  0.52578900  1
  O  O7  1  0.16493200  0.16763600  0.51729500  1
  O  O8  1  0.83506800  0.83236400  0.48270500  1
  O  O9  1  0.33105900  0.73754000  0.47421100  1
  O  O10  1  0.56739500  0.96109600  0.24702700  1
  O  O11  1  0.90767300  0.56955500  0.27045600  1
  O  O12  1  0.40767300  0.43044500  0.22954400  1
  O  O13  1  0.06739500  0.03890400  0.25297300  1
  O  O14  1  0.83105900  0.26246000  0.02578900  1
  O  O15  1  0.33506800  0.16763600  0.01729500  1
loop_
_geom_bond_atom_site_label_1
_geom_bond_atom_site_label_2
_geom_bond_distance
_geom_bond_site_symmetry_2
Li0 O15 1.956041 1_556
Li0 O13 1.981480 1_556
Li0 O4 1.991380 1_555
Li0 O1 2.061681 1_555
Li1 O14 1.967037 1_556
Li1 O8 1.983232 1_555
Li1 O4 1.985967 1_655
Li1 O2 2.125532 1_555
Li2 O9 1.967037 1_555
Li2 O15 1.983232 1_556
Li2 O3 1.985967 1_555
Li2 O5 2.125532 1_555
Li3 O8 1.956041 1_555
Li3 O10 1.981480 1_555
Li3 O3 1.991380 1_555
Li3 O6 2.061681 1_555
Li4 O7 1.956041 1_555
Li4 O5 1.981480 1_555
Li4 O12 1.991380 1_555
Li4 O9 2.061681 1_555
Li5 O6 1.967037 1_555
Li5 O0 1.983232 1_554
Li5 O12 1.985967 1_555
Li5 O10 2.125532 1_555
Li6 O1 1.967037 1_554
Li6 O7 1.983232 1_555
Li6 O11 1.985967 1_455
Li6 O13 2.125532 1_555
Li7 O0 1.956041 1_554
Li7 O2 1.981480 1_554
Li7 O11 1.991380 1_555
Li7 O14 2.061681 1_555
Al0 O0 1.775152 1_555
Al0 O5 1.775332 1_565
Al0 O3 1.782739 1_555
Al0 O6 1.790025 1_565
Al1 O7 1.775152 1_555
Al1 O2 1.775332 1_445
Al1 O4 1.782739 1_555
Al1 O1 1.790025 1_545
Al2 O8 1.775152 1_555
Al2 O13 1.775332 1_665
Al2 O11 1.782739 1_555
Al2 O14 1.790025 1_565
Al3 O15 1.775152 1_555
Al3 O10 1.775332 1_545
Al3 O12 1.782739 1_555
Al3 O9 1.790025 1_545
Co0 O5 1.862838 1_565
Co0 O1 1.866729 1_555
Co0 O12 1.891805 1_556
Co0 O15 1.895568 1_566
Co1 O2 1.862838 1_545
Co1 O6 1.866729 1_555
Co1 O11 1.891805 1_555
Co1 O8 1.895568 1_545
Co2 O13 1.862838 1_565
Co2 O9 1.866729 1_555
Co2 O4 1.891805 1_555
Co2 O7 1.895568 1_565
Co3 O10 1.862838 1_545
Co3 O14 1.866729 1_555
Co3 O3 1.891805 1_554
Co3 O0 1.895568 1_544
