# generated using pymatgen
data_Li2NbO3
_symmetry_space_group_name_H-M   'P 1'
_cell_length_a   5.18395605
_cell_length_b   5.18395605
_cell_length_c   5.20499426
_cell_angle_alpha   78.78613817
_cell_angle_beta   78.78613817
_cell_angle_gamma   117.38668261
_symmetry_Int_Tables_number   1
_chemical_formula_structural   Li2NbO3
_chemical_formula_sum   'Li4 Nb2 O6'
_cell_volume   115.17269347
_cell_formula_units_Z   2
loop_
 _symmetry_equiv_pos_site_id
 _symmetry_equiv_pos_as_xyz
  1  'x, y, z'
loop_
 _atom_site_type_symbol
 _atom_site_label
 _atom_site_symmetry_multiplicity
 _atom_site_fract_x
 _atom_site_fract_y
 _atom_site_fract_z
 _atom_site_occupancy
  Li  Li0  1  0.73710800  0.26289200  0.75000000  1
  Li  Li1  1  0.41992400  0.58007600  0.75000000  1
  Li  Li2  1  0.58007600  0.41992400  0.25000000  1
  Li  Li3  1  0.26289200  0.73710800  0.25000000  1
  Nb  Nb0  1  0.08427700  0.91572300  0.75000000  1
  Nb  Nb1  1  0.91572300  0.08427700  0.25000000  1
  O  O0  1  0.84024800  0.67906700  0.50377600  1
  O  O1  1  0.67906700  0.84024800  0.00377600  1
  O  O2  1  0.00000000  0.50000000  0.00000000  1
  O  O3  1  0.32093300  0.15975200  0.99622400  1
  O  O4  1  0.50000000  0.00000000  0.50000000  1
  O  O5  1  0.15975200  0.32093300  0.49622400  1
loop_
_geom_bond_atom_site_label_1
_geom_bond_atom_site_label_2
_geom_bond_distance
_geom_bond_site_symmetry_2
Li0 O0 2.044437 1_555
Li0 O3 2.044437 1_555
Li0 O1 2.179214 1_546
Li0 O5 2.179214 1_655
Li0 O4 2.198203 1_555
Li0 O2 2.198203 1_656
Li1 O3 2.069539 1_555
Li1 O0 2.069539 1_555
Li1 O2 2.112143 1_556
Li1 O4 2.112143 1_565
Li1 O5 2.254933 1_555
Li1 O1 2.254933 1_556
Li2 O5 2.069539 1_555
Li2 O1 2.069539 1_555
Li2 O4 2.112143 1_555
Li2 O2 2.112143 1_655
Li2 O3 2.254933 1_554
Li2 O0 2.254933 1_555
Li3 O1 2.044437 1_555
Li3 O5 2.044437 1_555
Li3 O0 2.179214 1_455
Li3 O3 2.179214 1_564
Li3 O4 2.198203 1_565
Li3 O2 2.198203 1_555
Nb0 O5 2.067373 1_565
Nb0 O1 2.067373 1_456
Nb0 O2 2.085786 1_556
Nb0 O4 2.085786 1_565
Nb0 O0 2.135929 1_455
Nb0 O3 2.135929 1_565
Nb1 O3 2.067373 1_654
Nb1 O0 2.067373 1_545
Nb1 O4 2.085786 1_555
Nb1 O2 2.085786 1_655
Nb1 O1 2.135929 1_545
Nb1 O5 2.135929 1_655
