# generated using pymatgen
data_Li3Cr(Si2O5)3
_symmetry_space_group_name_H-M   'P 1'
_cell_length_a   10.09264838
_cell_length_b   10.09264838
_cell_length_c   14.24726800
_cell_angle_alpha   90.00000000
_cell_angle_beta   90.00000000
_cell_angle_gamma   120.00000250
_symmetry_Int_Tables_number   1
_chemical_formula_structural   Li3Cr(Si2O5)3
_chemical_formula_sum   'Li12 Cr4 Si24 O60'
_cell_volume   1256.81831454
_cell_formula_units_Z   4
loop_
 _symmetry_equiv_pos_site_id
 _symmetry_equiv_pos_as_xyz
  1  'x, y, z'
loop_
 _atom_site_type_symbol
 _atom_site_label
 _atom_site_symmetry_multiplicity
 _atom_site_fract_x
 _atom_site_fract_y
 _atom_site_fract_z
 _atom_site_occupancy
  Li  Li0  1  0.00000000  0.50000000  0.75000000  1
  Li  Li1  1  0.00000000  0.50000000  0.25000000  1
  Li  Li2  1  0.33333300  0.66666700  0.50000000  1
  Li  Li3  1  0.66666700  0.33333300  0.50000000  1
  Li  Li4  1  0.00000000  0.00000000  0.75000000  1
  Li  Li5  1  0.00000000  0.00000000  0.25000000  1
  Li  Li6  1  0.33333300  0.66666700  0.00000000  1
  Li  Li7  1  0.50000000  0.00000000  0.75000000  1
  Li  Li8  1  0.50000000  0.00000000  0.25000000  1
  Li  Li9  1  0.66666700  0.33333300  0.00000000  1
  Li  Li10  1  0.50000000  0.50000000  0.75000000  1
  Li  Li11  1  0.50000000  0.50000000  0.25000000  1
  Cr  Cr0  1  0.33333300  0.66666700  0.75000000  1
  Cr  Cr1  1  0.66666700  0.33333300  0.75000000  1
  Cr  Cr2  1  0.66666700  0.33333300  0.25000000  1
  Cr  Cr3  1  0.33333300  0.66666700  0.25000000  1
  Si  Si0  1  0.12252200  0.76399500  0.11216800  1
  Si  Si1  1  0.12252200  0.76399500  0.88783200  1
  Si  Si2  1  0.35852700  0.23600500  0.61216800  1
  Si  Si3  1  0.35852700  0.23600500  0.38783200  1
  Si  Si4  1  0.23600500  0.87747800  0.61216800  1
  Si  Si5  1  0.23600500  0.87747800  0.38783200  1
  Si  Si6  1  0.35852700  0.12252200  0.11216800  1
  Si  Si7  1  0.35852700  0.12252200  0.88783200  1
  Si  Si8  1  0.12252200  0.35852700  0.61216800  1
  Si  Si9  1  0.12252200  0.35852700  0.38783200  1
  Si  Si10  1  0.76399500  0.64147300  0.88783200  1
  Si  Si11  1  0.76399500  0.64147300  0.11216800  1
  Si  Si12  1  0.23600500  0.35852700  0.11216800  1
  Si  Si13  1  0.23600500  0.35852700  0.88783200  1
  Si  Si14  1  0.87747800  0.64147300  0.61216800  1
  Si  Si15  1  0.87747800  0.64147300  0.38783200  1
  Si  Si16  1  0.64147300  0.87747800  0.88783200  1
  Si  Si17  1  0.64147300  0.87747800  0.11216800  1
  Si  Si18  1  0.76399500  0.12252200  0.61216800  1
  Si  Si19  1  0.76399500  0.12252200  0.38783200  1
  Si  Si20  1  0.64147300  0.76399500  0.61216800  1
  Si  Si21  1  0.64147300  0.76399500  0.38783200  1
  Si  Si22  1  0.87747800  0.23600500  0.88783200  1
  Si  Si23  1  0.87747800  0.23600500  0.11216800  1
  O  O0  1  0.05261200  0.77733500  0.63524900  1
  O  O1  1  0.05261200  0.77733500  0.36475100  1
  O  O2  1  0.27527700  0.22266500  0.86475100  1
  O  O3  1  0.27527700  0.22266500  0.13524900  1
  O  O4  1  0.22266500  0.94738800  0.13524900  1
  O  O5  1  0.22266500  0.94738800  0.86475100  1
  O  O6  1  0.27527700  0.05261200  0.63524900  1
  O  O7  1  0.27527700  0.05261200  0.36475100  1
  O  O8  1  0.14763500  0.73848000  0.00000000  1
  O  O9  1  0.40915500  0.26152000  0.50000000  1
  O  O10  1  0.26152000  0.85236500  0.50000000  1
  O  O11  1  0.40915500  0.14763500  0.00000000  1
  O  O12  1  0.16435500  0.65533400  0.82946800  1
  O  O13  1  0.16435500  0.65533400  0.17053200  1
  O  O14  1  0.50902100  0.34466600  0.67053200  1
  O  O15  1  0.50902100  0.34466600  0.32946800  1
  O  O16  1  0.16435500  0.50902100  0.67053200  1
  O  O17  1  0.16435500  0.50902100  0.32946800  1
  O  O18  1  0.65533400  0.49097900  0.82946800  1
  O  O19  1  0.65533400  0.49097900  0.17053200  1
  O  O20  1  0.05261200  0.27527700  0.86475100  1
  O  O21  1  0.05261200  0.27527700  0.13524900  1
  O  O22  1  0.77733500  0.72472300  0.63524900  1
  O  O23  1  0.77733500  0.72472300  0.36475100  1
  O  O24  1  0.34466600  0.83564500  0.67053200  1
  O  O25  1  0.34466600  0.83564500  0.32946800  1
  O  O26  1  0.50902100  0.16435500  0.82946800  1
  O  O27  1  0.50902100  0.16435500  0.17053200  1
  O  O28  1  0.14763500  0.40915500  0.50000000  1
  O  O29  1  0.73848000  0.59084500  0.00000000  1
  O  O30  1  0.26152000  0.40915500  0.00000000  1
  O  O31  1  0.85236500  0.59084500  0.50000000  1
  O  O32  1  0.49097900  0.83564500  0.17053200  1
  O  O33  1  0.49097900  0.83564500  0.82946800  1
  O  O34  1  0.65533400  0.16435500  0.67053200  1
  O  O35  1  0.65533400  0.16435500  0.32946800  1
  O  O36  1  0.22266500  0.27527700  0.63524900  1
  O  O37  1  0.22266500  0.27527700  0.36475100  1
  O  O38  1  0.94738800  0.72472300  0.86475100  1
  O  O39  1  0.94738800  0.72472300  0.13524900  1
  O  O40  1  0.34466600  0.50902100  0.17053200  1
  O  O41  1  0.34466600  0.50902100  0.82946800  1
  O  O42  1  0.83564500  0.49097900  0.67053200  1
  O  O43  1  0.83564500  0.49097900  0.32946800  1
  O  O44  1  0.49097900  0.65533400  0.67053200  1
  O  O45  1  0.49097900  0.65533400  0.32946800  1
  O  O46  1  0.83564500  0.34466600  0.82946800  1
  O  O47  1  0.83564500  0.34466600  0.17053200  1
  O  O48  1  0.59084500  0.85236500  0.00000000  1
  O  O49  1  0.73848000  0.14763500  0.50000000  1
  O  O50  1  0.59084500  0.73848000  0.50000000  1
  O  O51  1  0.85236500  0.26152000  0.00000000  1
  O  O52  1  0.72472300  0.94738800  0.63524900  1
  O  O53  1  0.72472300  0.94738800  0.36475100  1
  O  O54  1  0.77733500  0.05261200  0.86475100  1
  O  O55  1  0.77733500  0.05261200  0.13524900  1
  O  O56  1  0.72472300  0.77733500  0.86475100  1
  O  O57  1  0.72472300  0.77733500  0.13524900  1
  O  O58  1  0.94738800  0.22266500  0.63524900  1
  O  O59  1  0.94738800  0.22266500  0.36475100  1
loop_
_geom_bond_atom_site_label_1
_geom_bond_atom_site_label_2
_geom_bond_distance
_geom_bond_site_symmetry_2
Li0 O12 1.972483 1_555
Li0 O46 1.972483 1_455
Li0 O42 1.972483 1_455
Li0 O16 1.972483 1_555
Li1 O13 1.972483 1_555
Li1 O47 1.972483 1_455
Li1 O43 1.972483 1_455
Li1 O17 1.972483 1_555
Li2 O10 2.322984 1_555
Li2 O28 2.322992 1_555
Li2 O50 2.322994 1_555
Li3 O49 2.322984 1_555
Li3 O31 2.322992 1_555
Li3 O9 2.322994 1_555
Li6 O8 2.322984 1_555
Li6 O48 2.322992 1_555
Li6 O30 2.322994 1_555
Li7 O34 1.972483 1_555
Li7 O24 1.972483 1_545
Li7 O26 1.972483 1_555
Li7 O33 1.972483 1_545
Li8 O35 1.972483 1_555
Li8 O25 1.972483 1_545
Li8 O27 1.972483 1_555
Li8 O32 1.972483 1_545
Li9 O51 2.322984 1_555
Li9 O11 2.322992 1_555
Li9 O29 2.322994 1_555
Li10 O18 1.972483 1_555
Li10 O44 1.972483 1_555
Li10 O41 1.972483 1_555
Li10 O14 1.972483 1_555
Li11 O45 1.972483 1_555
Li11 O15 1.972483 1_555
Li11 O19 1.972483 1_555
Li11 O40 1.972483 1_555
Cr0 O12 2.002101 1_555
Cr0 O24 2.002101 1_555
Cr0 O33 2.002104 1_555
Cr0 O16 2.002104 1_555
Cr0 O44 2.002109 1_555
Cr0 O41 2.002109 1_555
Cr1 O46 2.002101 1_555
Cr1 O34 2.002101 1_555
Cr1 O42 2.002104 1_555
Cr1 O26 2.002104 1_555
Cr1 O18 2.002109 1_555
Cr1 O14 2.002109 1_555
Cr2 O35 2.002101 1_555
Cr2 O47 2.002101 1_555
Cr2 O43 2.002104 1_555
Cr2 O27 2.002104 1_555
Cr2 O15 2.002109 1_555
Cr2 O19 2.002109 1_555
Cr3 O25 2.002101 1_555
Cr3 O13 2.002101 1_555
Cr3 O17 2.002104 1_555
Cr3 O32 2.002104 1_555
Cr3 O45 2.002109 1_555
Cr3 O40 2.002109 1_555
O0 Si4 1.638547 1_555
O0 Si14 1.639797 1_455
O1 Si5 1.638547 1_555
O1 Si15 1.639797 1_455
O2 Si7 1.638547 1_555
O2 Si13 1.639798 1_555
O3 Si6 1.638547 1_555
O3 Si12 1.639798 1_555
O4 Si0 1.638547 1_555
O4 Si6 1.639797 1_565
O5 Si1 1.638547 1_555
O5 Si7 1.639797 1_565
O6 Si2 1.638547 1_555
O6 Si4 1.639798 1_545
O7 Si3 1.638547 1_555
O7 Si5 1.639798 1_545
O8 Si0 1.658224 1_555
O8 Si1 1.658224 1_554
O9 Si2 1.658224 1_555
O9 Si3 1.658224 1_555
O10 Si4 1.658224 1_555
O10 Si5 1.658224 1_555
O11 Si6 1.658224 1_555
O11 Si7 1.658224 1_554
O12 Si1 1.592300 1_555
O13 Si0 1.592300 1_555
O14 Si2 1.592300 1_555
O15 Si3 1.592300 1_555
O16 Si8 1.592300 1_555
O17 Si9 1.592300 1_555
O18 Si10 1.592300 1_555
O19 Si11 1.592300 1_555
O20 Si13 1.638547 1_555
O20 Si22 1.639798 1_455
O21 Si12 1.638547 1_555
O21 Si23 1.639798 1_455
O22 Si14 1.638547 1_555
O22 Si20 1.639798 1_555
O23 Si15 1.638547 1_555
O23 Si21 1.639798 1_555
O24 Si4 1.592300 1_555
O25 Si5 1.592300 1_555
O26 Si7 1.592300 1_555
O27 Si6 1.592300 1_555
O28 Si8 1.658224 1_555
O28 Si9 1.658224 1_555
O29 Si11 1.658224 1_555
O29 Si10 1.658224 1_554
O30 Si12 1.658224 1_555
O30 Si13 1.658224 1_554
O31 Si14 1.658224 1_555
O31 Si15 1.658224 1_555
O32 Si17 1.592300 1_555
O33 Si16 1.592300 1_555
O34 Si18 1.592300 1_555
O35 Si19 1.592300 1_555
O36 Si8 1.638547 1_555
O36 Si2 1.639798 1_555
O37 Si9 1.638547 1_555
O37 Si3 1.639798 1_555
O38 Si10 1.638547 1_555
O38 Si1 1.639798 1_655
O39 Si11 1.638547 1_555
O39 Si0 1.639798 1_655
O40 Si12 1.592300 1_555
O41 Si13 1.592300 1_555
O42 Si14 1.592300 1_555
O43 Si15 1.592300 1_555
O44 Si20 1.592300 1_555
O45 Si21 1.592300 1_555
O46 Si22 1.592300 1_555
O47 Si23 1.592300 1_555
O48 Si17 1.658224 1_555
O48 Si16 1.658224 1_554
O49 Si18 1.658224 1_555
O49 Si19 1.658224 1_555
O50 Si20 1.658224 1_555
O50 Si21 1.658224 1_555
O51 Si23 1.658224 1_555
O51 Si22 1.658224 1_554
O52 Si20 1.638547 1_555
O52 Si18 1.639798 1_565
O53 Si21 1.638547 1_555
O53 Si19 1.639798 1_565
O54 Si22 1.638547 1_555
O54 Si16 1.639797 1_545
O55 Si23 1.638547 1_555
O55 Si17 1.639797 1_545
O56 Si16 1.638547 1_555
O56 Si10 1.639798 1_555
O57 Si17 1.638547 1_555
O57 Si11 1.639798 1_555
O58 Si18 1.638547 1_555
O58 Si8 1.639797 1_655
O59 Si19 1.638547 1_555
O59 Si9 1.639797 1_655
