# generated using pymatgen
data_V3Cr3(SbO8)2
_symmetry_space_group_name_H-M   'P 1'
_cell_length_a   5.93810100
_cell_length_b   5.95317860
_cell_length_c   9.34060376
_cell_angle_alpha   90.66215186
_cell_angle_beta   89.70366860
_cell_angle_gamma   119.78595142
_symmetry_Int_Tables_number   1
_chemical_formula_structural   V3Cr3(SbO8)2
_chemical_formula_sum   'V3 Cr3 Sb2 O16'
_cell_volume   286.55346881
_cell_formula_units_Z   1
loop_
 _symmetry_equiv_pos_site_id
 _symmetry_equiv_pos_as_xyz
  1  'x, y, z'
loop_
 _atom_site_type_symbol
 _atom_site_label
 _atom_site_symmetry_multiplicity
 _atom_site_fract_x
 _atom_site_fract_y
 _atom_site_fract_z
 _atom_site_occupancy
  V  V0  1  0.66400600  0.83069700  0.78424300  1
  V  V1  1  0.83618300  0.17504400  0.27853100  1
  V  V2  1  0.82759400  0.66577000  0.29470100  1
  Cr  Cr0  1  0.17197000  0.34054800  0.79056100  1
  Cr  Cr1  1  0.17268400  0.83272100  0.79127000  1
  Cr  Cr2  1  0.34161200  0.16875600  0.29061900  1
  Sb  Sb0  1  0.32194200  0.65894300  0.51097700  1
  Sb  Sb1  1  0.65573600  0.33173200  0.00965100  1
  O  O0  1  0.16466200  0.33253900  0.40108100  1
  O  O1  1  0.04509900  0.52233300  0.66295700  1
  O  O2  1  0.36142000  0.68232100  0.89490900  1
  O  O3  1  0.98430200  0.99103100  0.69724100  1
  O  O4  1  0.99304500  0.00073100  0.19637900  1
  O  O5  1  0.16310200  0.82504800  0.39750000  1
  O  O6  1  0.49195400  0.53259500  0.66086900  1
  O  O7  1  0.49059000  0.95719800  0.66034000  1
  O  O8  1  0.32802900  0.16638900  0.90373700  1
  O  O9  1  0.65520300  0.82058400  0.39483700  1
  O  O10  1  0.52878400  0.04335400  0.15902100  1
  O  O11  1  0.52499400  0.48097900  0.16472500  1
  O  O12  1  0.68244600  0.33476500  0.39260300  1
  O  O13  1  0.81894200  0.16156200  0.89378700  1
  O  O14  1  0.95665400  0.48377200  0.15915900  1
  O  O15  1  0.81904500  0.66038600  0.89458000  1
loop_
_geom_bond_atom_site_label_1
_geom_bond_atom_site_label_2
_geom_bond_distance
_geom_bond_site_symmetry_2
Cr0 O3 1.998882 1_445
Cr0 O1 2.002115 1_555
Cr0 O8 2.010294 1_555
Cr0 O2 2.011646 1_555
Cr0 O6 2.057884 1_555
Cr0 O13 2.059899 1_455
Cr1 O3 1.996910 1_455
Cr1 O1 1.998033 1_555
Cr1 O2 2.005753 1_555
Cr1 O8 2.010356 1_565
Cr1 O7 2.053202 1_555
Cr1 O15 2.062756 1_455
Cr2 O12 1.997819 1_555
Cr2 O4 2.000274 1_455
Cr2 O11 2.012407 1_555
Cr2 O10 2.023018 1_555
Cr2 O0 2.025520 1_555
Cr2 O5 2.046561 1_545
O0 Sb0 1.965331 1_555
O0 V1 2.043363 1_455
O1 Sb0 2.013296 1_555
O2 V0 1.871427 1_555
O3 V0 1.840428 1_555
O4 V1 1.862213 1_555
O4 V2 1.967640 1_545
O5 V2 1.977917 1_455
O5 Sb0 1.988007 1_555
O6 V0 1.919569 1_555
O6 Sb0 2.082925 1_555
O7 V0 1.941623 1_555
O7 Sb0 2.071841 1_555
O8 Sb1 1.956712 1_556
O9 V2 1.918250 1_555
O9 Sb0 2.031987 1_555
O9 V1 2.139105 1_565
O10 V1 1.942105 1_555
O10 Sb1 2.054472 1_555
O11 V2 1.985107 1_555
O11 Sb1 2.033275 1_555
O12 V1 1.923989 1_555
O12 V2 1.951463 1_555
O13 V0 1.983893 1_545
O13 Sb1 2.018904 1_556
O14 V1 1.966154 1_555
O14 V2 2.036495 1_555
O14 Sb1 2.086173 1_555
O15 V0 1.974604 1_555
O15 Sb1 2.019029 1_556
