# generated using pymatgen
data_Li7NbS6
_symmetry_space_group_name_H-M   'P 1'
_cell_length_a   7.25625400
_cell_length_b   7.19131200
_cell_length_c   12.41713679
_cell_angle_alpha   56.08325005
_cell_angle_beta   90.00000000
_cell_angle_gamma   90.00000000
_symmetry_Int_Tables_number   1
_chemical_formula_structural   Li7NbS6
_chemical_formula_sum   'Li14 Nb2 S12'
_cell_volume   537.70150442
_cell_formula_units_Z   2
loop_
 _symmetry_equiv_pos_site_id
 _symmetry_equiv_pos_as_xyz
  1  'x, y, z'
loop_
 _atom_site_type_symbol
 _atom_site_label
 _atom_site_symmetry_multiplicity
 _atom_site_fract_x
 _atom_site_fract_y
 _atom_site_fract_z
 _atom_site_occupancy
  Li  Li0  1  0.40806400  0.37458900  0.54522400  1
  Li  Li1  1  0.90723300  0.18508400  0.70084500  1
  Li  Li2  1  0.91570200  0.49448000  0.31436700  1
  Li  Li3  1  0.51797000  0.47823400  0.23324300  1
  Li  Li4  1  0.02261400  0.65843400  0.01788800  1
  Li  Li5  1  0.36777900  0.86576500  0.83187600  1
  Li  Li6  1  0.73390600  0.12605500  0.48126900  1
  Li  Li7  1  0.59193600  0.37458900  0.04522400  1
  Li  Li8  1  0.09276700  0.18508400  0.20084500  1
  Li  Li9  1  0.08429800  0.49448000  0.81436700  1
  Li  Li10  1  0.48203000  0.47823400  0.73324300  1
  Li  Li11  1  0.97738600  0.65843400  0.51788800  1
  Li  Li12  1  0.63222100  0.86576500  0.33187600  1
  Li  Li13  1  0.26609400  0.12605500  0.98126900  1
  Nb  Nb0  1  0.75359900  0.99146100  0.00453200  1
  Nb  Nb1  1  0.24640100  0.99146100  0.50453200  1
  S  S0  1  0.23060400  0.24784600  0.75151500  1
  S  S1  1  0.73689300  0.46517300  0.49345900  1
  S  S2  1  0.24415000  0.37239100  0.36535400  1
  S  S3  1  0.73938500  0.83242400  0.88960100  1
  S  S4  1  0.98276300  0.86592500  0.62682700  1
  S  S5  1  0.49706200  0.88417000  0.63811600  1
  S  S6  1  0.76939600  0.24784600  0.25151500  1
  S  S7  1  0.26310700  0.46517300  0.99345900  1
  S  S8  1  0.75585000  0.37239100  0.86535400  1
  S  S9  1  0.26061500  0.83242400  0.38960100  1
  S  S10  1  0.01723700  0.86592500  0.12682700  1
  S  S11  1  0.50293800  0.88417000  0.13811600  1
loop_
_geom_bond_atom_site_label_1
_geom_bond_atom_site_label_2
_geom_bond_distance
_geom_bond_site_symmetry_2
Li0 S1 2.462426 1_555
Li0 S2 2.538250 1_555
Li0 S0 2.538684 1_555
Li0 S9 2.935791 1_555
Li1 S0 2.534238 1_655
Li1 S1 2.535298 1_555
Li1 S3 2.602903 1_545
Li1 S4 2.960919 1_545
Li2 S1 2.479955 1_555
Li2 S10 2.481751 1_655
Li2 S2 2.496294 1_655
Li2 S6 2.535081 1_555
Li3 S6 2.388601 1_555
Li3 S2 2.413455 1_555
Li3 S11 2.465938 1_555
Li4 S7 2.353578 1_554
Li4 S3 2.470331 1_454
Li4 S10 2.512035 1_555
Li5 S5 2.516101 1_555
Li5 S7 2.539899 1_555
Li5 S0 2.544877 1_565
Li5 S3 2.765937 1_555
Li6 S5 2.447811 1_545
Li6 S6 2.486750 1_555
Li6 S4 2.500754 1_545
Li6 S1 2.526381 1_555
Li7 S7 2.462426 1_554
Li7 S8 2.538250 1_554
Li7 S6 2.538684 1_555
Li7 S3 2.935791 1_554
Li8 S6 2.534238 1_455
Li8 S7 2.535298 1_554
Li8 S9 2.602903 1_545
Li8 S10 2.960919 1_545
Li9 S7 2.479955 1_555
Li9 S4 2.481751 1_455
Li9 S8 2.496294 1_455
Li9 S0 2.535081 1_555
Li10 S0 2.388601 1_555
Li10 S8 2.413455 1_555
Li10 S5 2.465938 1_555
Li11 S1 2.353578 1_555
Li11 S9 2.470331 1_655
Li11 S4 2.512035 1_555
Li12 S11 2.516101 1_555
Li12 S1 2.539899 1_555
Li12 S6 2.544877 1_565
Li12 S9 2.765937 1_555
Li13 S11 2.447811 1_546
Li13 S0 2.486750 1_555
Li13 S10 2.500754 1_546
Li13 S7 2.526381 1_555
Nb0 S3 2.275251 1_554
Nb0 S8 2.282086 1_564
Nb0 S11 2.286199 1_555
Nb0 S10 2.291455 1_655
Nb1 S9 2.275251 1_555
Nb1 S2 2.282086 1_565
Nb1 S5 2.286199 1_555
Nb1 S4 2.291455 1_455
