# generated using pymatgen
data_LiMo2P3O13
_symmetry_space_group_name_H-M   'P 1'
_cell_length_a   18.77440500
_cell_length_b   6.48859200
_cell_length_c   9.64801324
_cell_angle_alpha   72.55324716
_cell_angle_beta   90.00000000
_cell_angle_gamma   90.00000000
_symmetry_Int_Tables_number   1
_chemical_formula_structural   LiMo2P3O13
_chemical_formula_sum   'Li4 Mo8 P12 O52'
_cell_volume   1121.24647745
_cell_formula_units_Z   4
loop_
 _symmetry_equiv_pos_site_id
 _symmetry_equiv_pos_as_xyz
  1  'x, y, z'
loop_
 _atom_site_type_symbol
 _atom_site_label
 _atom_site_symmetry_multiplicity
 _atom_site_fract_x
 _atom_site_fract_y
 _atom_site_fract_z
 _atom_site_occupancy
  Li  Li0  1  0.84445800  0.76204000  0.03191000  1
  Li  Li1  1  0.56091100  0.18493000  0.38195400  1
  Li  Li2  1  0.06091100  0.81507000  0.61804600  1
  Li  Li3  1  0.34445800  0.23796000  0.96809000  1
  Mo  Mo0  1  0.00316900  0.13117700  0.92492000  1
  Mo  Mo1  1  0.17966800  0.62947900  0.93924600  1
  Mo  Mo2  1  0.46906900  0.56085500  0.61936900  1
  Mo  Mo3  1  0.67966800  0.37052100  0.06075400  1
  Mo  Mo4  1  0.50316900  0.86882300  0.07508000  1
  Mo  Mo5  1  0.21146600  0.93336000  0.39437600  1
  Mo  Mo6  1  0.96906900  0.43914500  0.38063100  1
  Mo  Mo7  1  0.71146600  0.06664000  0.60562400  1
  P  P0  1  0.74667500  0.52315400  0.69379600  1
  P  P1  1  0.37276900  0.74474200  0.30852400  1
  P  P2  1  0.80817200  0.24651000  0.29820500  1
  P  P3  1  0.17044500  0.09178300  0.03102400  1
  P  P4  1  0.43489500  0.02217800  0.70093900  1
  P  P5  1  0.01054300  0.59186400  0.02281800  1
  P  P6  1  0.51054300  0.40813600  0.97718200  1
  P  P7  1  0.30817200  0.75349000  0.70179500  1
  P  P8  1  0.24667500  0.47684600  0.30620400  1
  P  P9  1  0.67044500  0.90821700  0.96897600  1
  P  P10  1  0.87276900  0.25525800  0.69147600  1
  P  P11  1  0.93489500  0.97782200  0.29906100  1
  O  O0  1  0.89741200  0.14692600  0.84980000  1
  O  O1  1  0.24255000  0.82499400  0.60727300  1
  O  O2  1  0.49041700  0.56345300  0.06461700  1
  O  O3  1  0.23856000  0.23931300  0.39523300  1
  O  O4  1  0.35664400  0.59981900  0.65533000  1
  O  O5  1  0.69560600  0.68247000  0.06454500  1
  O  O6  1  0.20840100  0.62056300  0.38210300  1
  O  O7  1  0.55911600  0.55309300  0.59672100  1
  O  O8  1  0.62542200  0.29552000  0.21371300  1
  O  O9  1  0.19560600  0.31753000  0.93545500  1
  O  O10  1  0.85664400  0.40018100  0.34467000  1
  O  O11  1  0.78408900  0.34890400  0.13899800  1
  O  O12  1  0.47413500  0.88041000  0.62401100  1
  O  O13  1  0.46096600  0.45051200  0.84312400  1
  O  O14  1  0.99041700  0.43654700  0.93538300  1
  O  O15  1  0.70840100  0.37943700  0.61789700  1
  O  O16  1  0.33149400  0.52471600  0.31183000  1
  O  O17  1  0.95049900  0.01621000  0.13868000  1
  O  O18  1  0.55457900  0.80179000  0.22836100  1
  O  O19  1  0.45049900  0.98379000  0.86132000  1
  O  O20  1  0.73856000  0.76068700  0.60476700  1
  O  O21  1  0.28408900  0.65109600  0.86100200  1
  O  O22  1  0.97413500  0.11959000  0.37598900  1
  O  O23  1  0.83149400  0.47528400  0.68817000  1
  O  O24  1  0.72895700  0.47710400  0.85441100  1
  O  O25  1  0.96096600  0.54948800  0.15687600  1
  O  O26  1  0.93833600  0.32742400  0.59551400  1
  O  O27  1  0.69587400  0.06474100  0.05179300  1
  O  O28  1  0.85025700  0.02542900  0.30684300  1
  O  O29  1  0.58934200  0.42467600  0.92942400  1
  O  O30  1  0.08994800  0.07908300  0.06229300  1
  O  O31  1  0.32286600  0.89372300  0.35740500  1
  O  O32  1  0.82286600  0.10627700  0.64259500  1
  O  O33  1  0.22895700  0.52289600  0.14558900  1
  O  O34  1  0.21116200  0.04346100  0.17584700  1
  O  O35  1  0.99024000  0.81778300  0.92027400  1
  O  O36  1  0.19587400  0.93525900  0.94820700  1
  O  O37  1  0.43833600  0.67257600  0.40448600  1
  O  O38  1  0.94448000  0.74249300  0.39360600  1
  O  O39  1  0.05911600  0.44690700  0.40327900  1
  O  O40  1  0.05457900  0.19821000  0.77163900  1
  O  O41  1  0.12297400  0.92208400  0.44796700  1
  O  O42  1  0.08934200  0.57532400  0.07057600  1
  O  O43  1  0.71116200  0.95653900  0.82415300  1
  O  O44  1  0.35025700  0.97457100  0.69315700  1
  O  O45  1  0.58994800  0.92091700  0.93770700  1
  O  O46  1  0.74255000  0.17500600  0.39272700  1
  O  O47  1  0.39741200  0.85307400  0.15020000  1
  O  O48  1  0.49024000  0.18221700  0.07972600  1
  O  O49  1  0.12542200  0.70448000  0.78628700  1
  O  O50  1  0.62297400  0.07791600  0.55203300  1
  O  O51  1  0.44448000  0.25750700  0.60639400  1
loop_
_geom_bond_atom_site_label_1
_geom_bond_atom_site_label_2
_geom_bond_distance
_geom_bond_site_symmetry_2
Li0 O25 2.672682 1_555
Li1 O50 1.961946 1_555
Li1 O8 1.979426 1_555
Li2 O41 1.961946 1_555
Li2 O49 1.979426 1_555
Li3 O13 2.672682 1_555
Mo0 O40 1.709412 1_555
Mo0 O14 2.028171 1_455
Mo0 O35 2.061711 1_445
Mo0 O30 2.063156 1_556
Mo0 O0 2.105615 1_455
Mo0 O17 2.205697 1_456
Mo1 O49 1.738170 1_555
Mo1 O36 2.034573 1_555
Mo1 O9 2.057252 1_555
Mo1 O42 2.082730 1_556
Mo1 O21 2.090308 1_555
Mo1 O33 2.114781 1_556
Mo2 O7 1.707319 1_555
Mo2 O51 2.061734 1_555
Mo2 O37 2.062854 1_555
Mo2 O13 2.066232 1_555
Mo2 O12 2.089493 1_555
Mo2 O4 2.166103 1_555
Mo3 O8 1.738170 1_555
Mo3 O27 2.034573 1_555
Mo3 O5 2.057252 1_555
Mo3 O29 2.082730 1_554
Mo3 O11 2.090308 1_555
Mo3 O24 2.114781 1_554
Mo4 O18 1.709412 1_555
Mo4 O2 2.028171 1_555
Mo4 O48 2.061711 1_565
Mo4 O45 2.063156 1_554
Mo4 O47 2.105615 1_555
Mo4 O19 2.205697 1_554
Mo5 O41 1.734994 1_555
Mo5 O34 2.013067 1_565
Mo5 O1 2.046457 1_555
Mo5 O3 2.051754 1_565
Mo5 O6 2.069001 1_555
Mo5 O31 2.150030 1_555
Mo6 O39 1.707319 1_655
Mo6 O38 2.061734 1_555
Mo6 O26 2.062854 1_555
Mo6 O25 2.066232 1_555
Mo6 O22 2.089493 1_555
Mo6 O10 2.166103 1_555
Mo7 O50 1.734994 1_555
Mo7 O43 2.013067 1_545
Mo7 O46 2.046457 1_555
Mo7 O20 2.051754 1_545
Mo7 O15 2.069001 1_555
Mo7 O32 2.150030 1_555
O0 P10 1.548418 1_555
O1 P7 1.520216 1_555
O2 P6 1.542663 1_554
O3 P8 1.530568 1_555
O4 P7 1.513734 1_555
O5 P9 1.552105 1_554
O6 P8 1.526970 1_555
O9 P3 1.552105 1_556
O10 P2 1.513734 1_555
O11 P2 1.547028 1_555
O12 P4 1.532699 1_565
O13 P6 1.549699 1_555
O14 P5 1.542663 1_656
O15 P0 1.526970 1_555
O16 P1 1.616296 1_555
O16 P8 1.626455 1_555
O17 P11 1.520220 1_545
O19 P4 1.520220 1_565
O20 P0 1.530568 1_555
O21 P7 1.547028 1_555
O22 P11 1.532699 1_545
O23 P10 1.616296 1_555
O23 P0 1.626455 1_555
O24 P0 1.524334 1_555
O25 P5 1.549699 1_655
O26 P10 1.527024 1_555
O27 P9 1.544166 1_544
O28 P2 1.617823 1_555
O28 P11 1.624800 1_545
O29 P6 1.543636 1_555
O30 P3 1.538465 1_555
O31 P1 1.519218 1_555
O32 P10 1.519218 1_555
O33 P8 1.524334 1_555
O34 P3 1.540225 1_555
O35 P5 1.550261 1_656
O36 P3 1.544166 1_566
O37 P1 1.527024 1_555
O38 P11 1.536498 1_555
O42 P5 1.543636 1_555
O43 P9 1.540225 1_555
O44 P7 1.617823 1_555
O44 P4 1.624800 1_565
O45 P9 1.538465 1_555
O46 P2 1.520216 1_555
O47 P1 1.548418 1_555
O48 P6 1.550261 1_554
O51 P4 1.536498 1_555
