# generated using pymatgen
data_Li4Ti(Co4O9)2
_symmetry_space_group_name_H-M   'P 1'
_cell_length_a   2.84887600
_cell_length_b   8.68495400
_cell_length_c   24.26124800
_cell_angle_alpha   90.00000000
_cell_angle_beta   90.00000000
_cell_angle_gamma   90.00000000
_symmetry_Int_Tables_number   1
_chemical_formula_structural   Li4Ti(Co4O9)2
_chemical_formula_sum   'Li8 Ti2 Co16 O36'
_cell_volume   600.28045957
_cell_formula_units_Z   2
loop_
 _symmetry_equiv_pos_site_id
 _symmetry_equiv_pos_as_xyz
  1  'x, y, z'
loop_
 _atom_site_type_symbol
 _atom_site_label
 _atom_site_symmetry_multiplicity
 _atom_site_fract_x
 _atom_site_fract_y
 _atom_site_fract_z
 _atom_site_occupancy
  Li  Li0  1  0.00000000  0.92588400  0.00181900  1
  Li  Li1  1  0.00000000  0.95832900  0.20068700  1
  Li  Li2  1  0.00000000  0.04167100  0.70068700  1
  Li  Li3  1  0.00000000  0.07411600  0.50181900  1
  Li  Li4  1  0.00000000  0.44428900  0.52125100  1
  Li  Li5  1  0.00000000  0.44311500  0.29262000  1
  Li  Li6  1  0.00000000  0.55688500  0.79262000  1
  Li  Li7  1  0.00000000  0.55571100  0.02125100  1
  Ti  Ti0  1  0.00000000  0.25479100  0.39610700  1
  Ti  Ti1  1  0.00000000  0.74520900  0.89610700  1
  Co  Co0  1  0.00000000  0.75462400  0.50135000  1
  Co  Co1  1  0.00000000  0.76422700  0.10688700  1
  Co  Co2  1  0.00000000  0.77580000  0.30833000  1
  Co  Co3  1  0.50000000  0.89169200  0.58759400  1
  Co  Co4  1  0.50000000  0.89653600  0.80450200  1
  Co  Co5  1  0.50000000  0.10346400  0.30450200  1
  Co  Co6  1  0.50000000  0.10830800  0.08759400  1
  Co  Co7  1  0.00000000  0.22420000  0.80833000  1
  Co  Co8  1  0.00000000  0.23577300  0.60688700  1
  Co  Co9  1  0.00000000  0.24537600  0.00135000  1
  Co  Co10  1  0.00000000  0.27117100  0.18594100  1
  Co  Co11  1  0.50000000  0.38225000  0.91394300  1
  Co  Co12  1  0.50000000  0.39574500  0.69170800  1
  Co  Co13  1  0.50000000  0.60425500  0.19170800  1
  Co  Co14  1  0.50000000  0.61775000  0.41394300  1
  Co  Co15  1  0.00000000  0.72882900  0.68594100  1
  O  O0  1  0.00000000  0.75741600  0.42239100  1
  O  O1  1  0.00000000  0.74673800  0.57995700  1
  O  O2  1  0.50000000  0.80056600  0.94298100  1
  O  O3  1  0.50000000  0.80211400  0.16015900  1
  O  O4  1  0.50000000  0.86449000  0.66476000  1
  O  O5  1  0.00000000  0.85114900  0.75735800  1
  O  O6  1  0.50000000  0.90127400  0.50877600  1
  O  O7  1  0.50000000  0.89857400  0.27867800  1
  O  O8  1  0.00000000  0.94379800  0.85387400  1
  O  O9  1  0.00000000  0.96676900  0.08854400  1
  O  O10  1  0.00000000  0.03323100  0.58854400  1
  O  O11  1  0.00000000  0.05620200  0.35387400  1
  O  O12  1  0.50000000  0.10142600  0.77867800  1
  O  O13  1  0.50000000  0.09872600  0.00877600  1
  O  O14  1  0.00000000  0.14885100  0.25735800  1
  O  O15  1  0.50000000  0.13551000  0.16476000  1
  O  O16  1  0.50000000  0.19788600  0.66015900  1
  O  O17  1  0.50000000  0.19943400  0.44298100  1
  O  O18  1  0.00000000  0.25326200  0.07995700  1
  O  O19  1  0.00000000  0.24258400  0.92239100  1
  O  O20  1  0.50000000  0.28811400  0.55896300  1
  O  O21  1  0.50000000  0.30363800  0.33618100  1
  O  O22  1  0.50000000  0.34791400  0.83706100  1
  O  O23  1  0.00000000  0.35763400  0.74058900  1
  O  O24  1  0.50000000  0.39494000  0.99186700  1
  O  O25  1  0.50000000  0.39770600  0.21223900  1
  O  O26  1  0.00000000  0.43129800  0.64147300  1
  O  O27  1  0.00000000  0.47296600  0.41141000  1
  O  O28  1  0.00000000  0.52703400  0.91141000  1
  O  O29  1  0.00000000  0.56870200  0.14147300  1
  O  O30  1  0.50000000  0.60229400  0.71223900  1
  O  O31  1  0.50000000  0.60506000  0.49186700  1
  O  O32  1  0.00000000  0.64236600  0.24058900  1
  O  O33  1  0.50000000  0.65208600  0.33706100  1
  O  O34  1  0.50000000  0.69636200  0.83618100  1
  O  O35  1  0.50000000  0.71188600  0.05896300  1
loop_
_geom_bond_atom_site_label_1
_geom_bond_atom_site_label_2
_geom_bond_distance
_geom_bond_site_symmetry_2
Li0 O13 2.076268 1_465
Li0 O13 2.076268 1_565
Li0 O9 2.133809 1_555
Li0 O2 2.291573 1_454
Li0 O2 2.291573 1_554
Li1 O14 2.151354 1_565
Li1 O3 2.199207 1_555
Li1 O3 2.199207 1_455
Li1 O15 2.270837 1_565
Li1 O15 2.270837 1_465
Li1 O7 2.424586 1_455
Li1 O7 2.424586 1_555
Li2 O5 2.151354 1_545
Li2 O16 2.199207 1_455
Li2 O16 2.199207 1_555
Li2 O4 2.270837 1_445
Li2 O4 2.270837 1_545
Li2 O12 2.424586 1_555
Li2 O12 2.424586 1_455
Li3 O6 2.076268 1_545
Li3 O6 2.076268 1_445
Li3 O10 2.133809 1_555
Li3 O17 2.291573 1_455
Li3 O17 2.291573 1_555
Li4 O31 2.118221 1_555
Li4 O31 2.118221 1_455
Li4 O20 2.169305 1_455
Li4 O20 2.169305 1_555
Li5 O32 2.141979 1_555
Li5 O21 2.147863 1_455
Li5 O21 2.147863 1_555
Li5 O25 2.446960 1_455
Li5 O25 2.446960 1_555
Li5 O33 2.546645 1_555
Li5 O33 2.546645 1_455
Li6 O23 2.141979 1_555
Li6 O34 2.147863 1_555
Li6 O34 2.147863 1_455
Li6 O30 2.446960 1_455
Li6 O30 2.446960 1_555
Li6 O22 2.546645 1_555
Li6 O22 2.546645 1_455
Li7 O24 2.118221 1_454
Li7 O24 2.118221 1_554
Li7 O35 2.169305 1_555
Li7 O35 2.169305 1_455
Co0 O1 1.908333 1_555
Co0 O0 1.915797 1_555
Co0 O6 1.919287 1_455
Co0 O6 1.919287 1_555
Co0 O31 1.941454 1_455
Co0 O31 1.941454 1_555
Co1 O9 1.814488 1_555
Co1 O35 1.894077 1_555
Co1 O35 1.894077 1_455
Co1 O29 1.894127 1_555
Co1 O3 1.951335 1_555
Co1 O3 1.951335 1_455
Co2 O33 1.915554 1_455
Co2 O33 1.915554 1_555
Co2 O7 1.919250 1_555
Co2 O7 1.919250 1_455
Co2 O32 2.010971 1_555
Co3 O10 1.881657 1_565
Co3 O10 1.881657 1_665
Co3 O4 1.886991 1_555
Co3 O1 1.910034 1_555
Co3 O1 1.910034 1_655
Co3 O6 1.914033 1_555
Co4 O5 1.868855 1_655
Co4 O5 1.868855 1_555
Co4 O12 1.886534 1_565
Co4 O34 1.900814 1_555
Co4 O8 1.905858 1_555
Co4 O8 1.905858 1_655
Co5 O14 1.868855 1_555
Co5 O14 1.868855 1_655
Co5 O7 1.886534 1_545
Co5 O21 1.900814 1_555
Co5 O11 1.905858 1_555
Co5 O11 1.905858 1_655
Co6 O9 1.881657 1_545
Co6 O9 1.881657 1_645
Co6 O15 1.886991 1_555
Co6 O18 1.910034 1_555
Co6 O18 1.910034 1_655
Co6 O13 1.914033 1_555
Co7 O22 1.915554 1_455
Co7 O22 1.915554 1_555
Co7 O12 1.919250 1_555
Co7 O12 1.919250 1_455
Co7 O23 2.010971 1_555
Co8 O10 1.814488 1_555
Co8 O20 1.894077 1_455
Co8 O20 1.894077 1_555
Co8 O26 1.894127 1_555
Co8 O16 1.951335 1_455
Co8 O16 1.951335 1_555
Co9 O18 1.908333 1_555
Co9 O19 1.915797 1_554
Co9 O13 1.919287 1_555
Co9 O13 1.919287 1_455
Co9 O24 1.941454 1_554
Co9 O24 1.941454 1_454
Co10 O25 1.908871 1_455
Co10 O25 1.908871 1_555
Co10 O15 1.918664 1_455
Co10 O15 1.918664 1_555
Co10 O14 2.032413 1_555
Co11 O19 1.882122 1_555
Co11 O19 1.882122 1_655
Co11 O22 1.888941 1_555
Co11 O24 1.893743 1_555
Co11 O28 1.901042 1_555
Co11 O28 1.901042 1_655
Co12 O30 1.861740 1_555
Co12 O16 1.881157 1_555
Co12 O23 1.882810 1_555
Co12 O23 1.882810 1_655
Co12 O26 1.899935 1_655
Co12 O26 1.899935 1_555
Co13 O25 1.861740 1_555
Co13 O3 1.881157 1_555
Co13 O32 1.882810 1_655
Co13 O32 1.882810 1_555
Co13 O29 1.899935 1_655
Co13 O29 1.899935 1_555
Co14 O0 1.882122 1_655
Co14 O0 1.882122 1_555
Co14 O33 1.888941 1_555
Co14 O31 1.893743 1_555
Co14 O27 1.901042 1_655
Co14 O27 1.901042 1_555
Co15 O30 1.908871 1_455
Co15 O30 1.908871 1_555
Co15 O4 1.918664 1_555
Co15 O4 1.918664 1_455
Co15 O5 2.032413 1_555
O2 Ti1 1.885057 1_655
O2 Ti1 1.885057 1_555
O8 Ti1 2.006134 1_555
O11 Ti0 2.006134 1_555
O17 Ti0 1.885057 1_655
O17 Ti0 1.885057 1_555
O21 Ti0 2.079126 1_655
O21 Ti0 2.079126 1_555
O27 Ti0 1.930870 1_555
O28 Ti1 1.930870 1_555
O34 Ti1 2.079126 1_555
O34 Ti1 2.079126 1_655
