# generated using pymatgen
data_LiVF3
_symmetry_space_group_name_H-M   'P 1'
_cell_length_a   5.36671100
_cell_length_b   5.45576600
_cell_length_c   7.83429600
_cell_angle_alpha   90.00000000
_cell_angle_beta   90.00000000
_cell_angle_gamma   90.00000000
_symmetry_Int_Tables_number   1
_chemical_formula_structural   LiVF3
_chemical_formula_sum   'Li4 V4 F12'
_cell_volume   229.38442176
_cell_formula_units_Z   4
loop_
 _symmetry_equiv_pos_site_id
 _symmetry_equiv_pos_as_xyz
  1  'x, y, z'
loop_
 _atom_site_type_symbol
 _atom_site_label
 _atom_site_symmetry_multiplicity
 _atom_site_fract_x
 _atom_site_fract_y
 _atom_site_fract_z
 _atom_site_occupancy
  Li  Li0  1  0.01292100  0.01564500  0.25000000  1
  Li  Li1  1  0.51292100  0.48435500  0.75000000  1
  Li  Li2  1  0.48707900  0.51564500  0.25000000  1
  Li  Li3  1  0.98707900  0.98435500  0.75000000  1
  V  V0  1  0.50000000  0.00000000  0.00000000  1
  V  V1  1  0.50000000  0.00000000  0.50000000  1
  V  V2  1  0.00000000  0.50000000  0.00000000  1
  V  V3  1  0.00000000  0.50000000  0.50000000  1
  F  F0  1  0.63675900  0.09370100  0.75000000  1
  F  F1  1  0.16244300  0.16632700  0.57449000  1
  F  F2  1  0.16244300  0.16632700  0.92551000  1
  F  F3  1  0.66244300  0.33367300  0.07449000  1
  F  F4  1  0.66244300  0.33367300  0.42551000  1
  F  F5  1  0.13675900  0.40629900  0.25000000  1
  F  F6  1  0.86324100  0.59370100  0.75000000  1
  F  F7  1  0.33755700  0.66632700  0.92551000  1
  F  F8  1  0.33755700  0.66632700  0.57449000  1
  F  F9  1  0.83755700  0.83367300  0.07449000  1
  F  F10  1  0.83755700  0.83367300  0.42551000  1
  F  F11  1  0.36324100  0.90629900  0.25000000  1
loop_
_geom_bond_atom_site_label_1
_geom_bond_atom_site_label_2
_geom_bond_distance
_geom_bond_site_symmetry_2
F0 Li3 1.972445 1_545
F0 V0 2.153143 1_556
F0 V1 2.153143 1_555
F0 Li1 2.232534 1_555
F1 Li3 1.939584 1_445
F1 V3 2.101090 1_555
F1 V1 2.108507 1_555
F2 Li3 1.939584 1_445
F2 V2 2.101090 1_556
F2 V0 2.108507 1_556
F3 Li2 1.939584 1_555
F3 V0 2.101090 1_555
F3 V2 2.108507 1_655
F4 Li2 1.939584 1_555
F4 V1 2.101090 1_555
F4 V3 2.108507 1_655
F5 Li2 1.972445 1_555
F5 V3 2.153143 1_555
F5 V2 2.153143 1_555
F5 Li0 2.232534 1_555
F6 Li1 1.972445 1_555
F6 V3 2.153143 1_655
F6 V2 2.153143 1_656
F6 Li3 2.232534 1_555
F7 Li1 1.939584 1_555
F7 V0 2.101090 1_566
F7 V2 2.108507 1_556
F8 Li1 1.939584 1_555
F8 V1 2.101090 1_565
F8 V3 2.108507 1_555
F9 Li0 1.939584 1_665
F9 V2 2.101090 1_655
F9 V0 2.108507 1_565
F10 Li0 1.939584 1_665
F10 V3 2.101090 1_655
F10 V1 2.108507 1_565
F11 Li0 1.972445 1_565
F11 V0 2.153143 1_565
F11 V1 2.153143 1_565
F11 Li2 2.232534 1_555
