# generated using pymatgen
data_Cs2Ba2O3
_symmetry_space_group_name_H-M   'P 1'
_cell_length_a   6.92226300
_cell_length_b   7.35450800
_cell_length_c   8.63430579
_cell_angle_alpha   111.51804060
_cell_angle_beta   90.00000000
_cell_angle_gamma   90.00000000
_symmetry_Int_Tables_number   1
_chemical_formula_structural   Cs2Ba2O3
_chemical_formula_sum   'Cs4 Ba4 O6'
_cell_volume   408.93394048
_cell_formula_units_Z   2
loop_
 _symmetry_equiv_pos_site_id
 _symmetry_equiv_pos_as_xyz
  1  'x, y, z'
loop_
 _atom_site_type_symbol
 _atom_site_label
 _atom_site_symmetry_multiplicity
 _atom_site_fract_x
 _atom_site_fract_y
 _atom_site_fract_z
 _atom_site_occupancy
  Cs  Cs0  1  0.30379300  0.60151900  0.37249000  1
  Cs  Cs1  1  0.80379300  0.89848100  0.62751000  1
  Cs  Cs2  1  0.19620700  0.10151900  0.37249000  1
  Cs  Cs3  1  0.69620700  0.39848100  0.62751000  1
  Ba  Ba0  1  0.74463800  0.80566500  0.12520000  1
  Ba  Ba1  1  0.75536200  0.30566500  0.12520000  1
  Ba  Ba2  1  0.24463800  0.69433500  0.87480000  1
  Ba  Ba3  1  0.25536200  0.19433500  0.87480000  1
  O  O0  1  0.50000000  0.50000000  0.00000000  1
  O  O1  1  0.00000000  0.00000000  0.00000000  1
  O  O2  1  0.90785900  0.63128600  0.29379300  1
  O  O3  1  0.40785900  0.86871400  0.70620700  1
  O  O4  1  0.59214100  0.13128600  0.29379300  1
  O  O5  1  0.09214100  0.36871400  0.70620700  1
loop_
_geom_bond_atom_site_label_1
_geom_bond_atom_site_label_2
_geom_bond_distance
_geom_bond_site_symmetry_2
Cs0 O2 2.851408 1_455
Cs0 O3 2.920498 1_555
Cs0 O0 3.314285 1_555
Cs1 O3 2.851408 1_555
Cs1 O2 2.920498 1_555
Cs1 O1 3.314285 1_666
Cs2 O4 2.851408 1_555
Cs2 O5 2.920498 1_555
Cs2 O1 3.314285 1_555
Cs3 O5 2.851408 1_655
Cs3 O4 2.920498 1_555
Cs3 O0 3.314285 1_556
Ba0 O2 2.531767 1_555
Ba0 O4 2.531999 1_565
Ba0 O0 2.703186 1_555
Ba0 O1 2.733026 1_665
Ba1 O4 2.531767 1_555
Ba1 O2 2.531999 1_555
Ba1 O1 2.703186 1_655
Ba1 O0 2.733026 1_555
Ba2 O3 2.531767 1_555
Ba2 O5 2.531999 1_555
Ba2 O1 2.703186 1_566
Ba2 O0 2.733026 1_556
Ba3 O5 2.531767 1_555
Ba3 O3 2.531999 1_545
Ba3 O0 2.703186 1_556
Ba3 O1 2.733026 1_556
