# generated using pymatgen
data_Ca(SO5)2
_symmetry_space_group_name_H-M   'P 1'
_cell_length_a   6.70166240
_cell_length_b   6.70166240
_cell_length_c   17.02009800
_cell_angle_alpha   90.00000000
_cell_angle_beta   90.00000000
_cell_angle_gamma   120.00000394
_symmetry_Int_Tables_number   1
_chemical_formula_structural   Ca(SO5)2
_chemical_formula_sum   'Ca3 S6 O30'
_cell_volume   661.99965503
_cell_formula_units_Z   3
loop_
 _symmetry_equiv_pos_site_id
 _symmetry_equiv_pos_as_xyz
  1  'x, y, z'
loop_
 _atom_site_type_symbol
 _atom_site_label
 _atom_site_symmetry_multiplicity
 _atom_site_fract_x
 _atom_site_fract_y
 _atom_site_fract_z
 _atom_site_occupancy
  Ca  Ca0  1  0.00000000  0.00000000  0.33282200  1
  Ca  Ca1  1  0.00000000  0.00000000  0.99948900  1
  Ca  Ca2  1  0.00000000  0.00000000  0.66615600  1
  S  S0  1  0.39539400  0.30519900  0.16536800  1
  S  S1  1  0.90980500  0.60460600  0.83203500  1
  S  S2  1  0.69480100  0.09019500  0.49870100  1
  S  S3  1  0.60460600  0.69480100  0.16536800  1
  S  S4  1  0.09019500  0.39539400  0.83203500  1
  S  S5  1  0.30519900  0.90980500  0.49870100  1
  O  O0  1  0.25368600  0.23657200  0.23793100  1
  O  O1  1  0.98288600  0.74631400  0.90459800  1
  O  O2  1  0.76342800  0.01711400  0.57126500  1
  O  O3  1  0.74631400  0.76342800  0.23793100  1
  O  O4  1  0.01711400  0.25368600  0.90459800  1
  O  O5  1  0.23657200  0.98288600  0.57126500  1
  O  O6  1  0.24341400  0.25221800  0.09555100  1
  O  O7  1  0.00880400  0.75658600  0.76221800  1
  O  O8  1  0.74778200  0.99119600  0.42888400  1
  O  O9  1  0.75658600  0.74778200  0.09555100  1
  O  O10  1  0.99119600  0.24341400  0.76221800  1
  O  O11  1  0.25221800  0.00880400  0.42888400  1
  O  O12  1  0.56434700  0.23304700  0.16183300  1
  O  O13  1  0.66869900  0.43565300  0.82849900  1
  O  O14  1  0.76695300  0.33130100  0.49516600  1
  O  O15  1  0.43565300  0.76695300  0.16183300  1
  O  O16  1  0.33130100  0.56434700  0.82849900  1
  O  O17  1  0.23304700  0.66869900  0.49516600  1
  O  O18  1  0.18447200  0.68524600  0.32628500  1
  O  O19  1  0.50077500  0.81552800  0.99295200  1
  O  O20  1  0.31475400  0.49922500  0.65961900  1
  O  O21  1  0.81552800  0.31475400  0.32628500  1
  O  O22  1  0.49922500  0.18447200  0.99295200  1
  O  O23  1  0.68524600  0.50077500  0.65961900  1
  O  O24  1  0.81274200  0.49544700  0.33248200  1
  O  O25  1  0.68270600  0.18725800  0.99914800  1
  O  O26  1  0.50455300  0.31729400  0.66581500  1
  O  O27  1  0.18725800  0.50455300  0.33248200  1
  O  O28  1  0.31729400  0.81274200  0.99914800  1
  O  O29  1  0.49544700  0.68270600  0.66581500  1
loop_
_geom_bond_atom_site_label_1
_geom_bond_atom_site_label_2
_geom_bond_distance
_geom_bond_site_symmetry_2
Ca0 O0 2.305854 1_555
Ca0 O3 2.305854 1_445
Ca0 O11 2.331088 1_555
Ca0 O8 2.331088 1_445
Ca0 O18 2.932228 1_545
Ca0 O21 2.932228 1_455
Ca0 O27 2.960576 1_555
Ca0 O24 2.960576 1_445
Ca1 O4 2.305854 1_555
Ca1 O1 2.305854 1_445
Ca1 O6 2.331088 1_556
Ca1 O9 2.331088 1_446
Ca1 O19 2.932221 1_445
Ca1 O22 2.932221 1_555
Ca1 O28 2.960570 1_545
Ca1 O25 2.960570 1_455
Ca2 O5 2.305854 1_545
Ca2 O2 2.305854 1_455
Ca2 O10 2.331088 1_455
Ca2 O7 2.331088 1_545
Ca2 O20 2.932222 1_555
Ca2 O23 2.932222 1_445
Ca2 O26 2.960575 1_555
Ca2 O29 2.960575 1_445
O0 S0 1.483893 1_555
O1 S1 1.483893 1_555
O2 S2 1.483907 1_555
O3 S3 1.483893 1_555
O4 S4 1.483893 1_555
O5 S5 1.483907 1_555
O6 S0 1.487901 1_555
O7 S1 1.487901 1_455
O8 S2 1.487901 1_565
O9 S3 1.487901 1_555
O10 S4 1.487901 1_655
O11 S5 1.487901 1_545
O12 S0 1.437689 1_555
O13 S1 1.437694 1_555
O14 S2 1.437695 1_555
O15 S3 1.437689 1_555
O16 S4 1.437694 1_555
O17 S5 1.437695 1_555
O18 O27 1.224935 1_555
O19 O28 1.224947 1_555
O20 O29 1.224941 1_555
O21 O24 1.224935 1_555
O22 O25 1.224947 1_555
O23 O26 1.224941 1_555
