# generated using pymatgen
data_Li3MgV8O16
_symmetry_space_group_name_H-M   'P 1'
_cell_length_a   10.30241054
_cell_length_b   10.30241054
_cell_length_c   10.30241079
_cell_angle_alpha   33.17213572
_cell_angle_beta   33.17213572
_cell_angle_gamma   33.17213552
_symmetry_Int_Tables_number   1
_chemical_formula_structural   Li3MgV8O16
_chemical_formula_sum   'Li3 Mg1 V8 O16'
_cell_volume   291.41274061
_cell_formula_units_Z   1
loop_
 _symmetry_equiv_pos_site_id
 _symmetry_equiv_pos_as_xyz
  1  'x, y, z'
loop_
 _atom_site_type_symbol
 _atom_site_label
 _atom_site_symmetry_multiplicity
 _atom_site_fract_x
 _atom_site_fract_y
 _atom_site_fract_z
 _atom_site_occupancy
  Li  Li0  1  0.00074700  0.00074700  0.00074700  1
  Li  Li1  1  0.62480200  0.62480200  0.62480200  1
  Li  Li2  1  0.12223300  0.12223300  0.12223300  1
  Mg  Mg0  1  0.81308300  0.81308300  0.81308300  1
  V  V0  1  0.07291900  0.07291900  0.55049600  1
  V  V1  1  0.31497700  0.31497700  0.31497700  1
  V  V2  1  0.50015200  0.50015200  0.50015200  1
  V  V3  1  0.07291900  0.55049600  0.07291900  1
  V  V4  1  0.55049600  0.07291900  0.07291900  1
  V  V5  1  0.57051700  0.57051700  0.04324100  1
  V  V6  1  0.04324100  0.57051700  0.57051700  1
  V  V7  1  0.57051700  0.04324100  0.57051700  1
  O  O0  1  0.96405300  0.42555900  0.42555900  1
  O  O1  1  0.42555900  0.96405300  0.42555900  1
  O  O2  1  0.19259600  0.19259600  0.19259600  1
  O  O3  1  0.42555900  0.42555900  0.96405300  1
  O  O4  1  0.93044500  0.93044500  0.93044500  1
  O  O5  1  0.69676700  0.69676700  0.17964500  1
  O  O6  1  0.17964500  0.69676700  0.69676700  1
  O  O7  1  0.69676700  0.17964500  0.69676700  1
  O  O8  1  0.92111400  0.45884200  0.92111400  1
  O  O9  1  0.45884200  0.92111400  0.92111400  1
  O  O10  1  0.68945500  0.68945500  0.68945500  1
  O  O11  1  0.92111400  0.92111400  0.45884200  1
  O  O12  1  0.20714100  0.20714100  0.65975500  1
  O  O13  1  0.43464900  0.43464900  0.43464900  1
  O  O14  1  0.65975500  0.20714100  0.20714100  1
  O  O15  1  0.20714100  0.65975500  0.20714100  1
loop_
_geom_bond_atom_site_label_1
_geom_bond_atom_site_label_2
_geom_bond_distance
_geom_bond_site_symmetry_2
Li0 O12 1.985681 1_554
Li0 O14 1.985681 1_455
Li0 O15 1.985681 1_545
Li0 O4 2.051412 1_444
Li1 O10 1.886574 1_555
Li1 O3 1.917255 1_555
Li1 O0 1.917255 1_555
Li1 O1 1.917255 1_555
Li2 O11 1.934398 1_445
Li2 O8 1.934398 1_454
Li2 O9 1.934398 1_544
Li2 O2 2.053192 1_555
Mg0 O8 2.066557 1_555
Mg0 O9 2.066557 1_555
Mg0 O11 2.066557 1_555
Mg0 O7 2.094245 1_565
Mg0 O6 2.094245 1_655
Mg0 O5 2.094245 1_556
O0 V0 1.969947 1_655
O0 V3 1.969947 1_655
O0 V1 2.012234 1_655
O1 V0 1.969947 1_565
O1 V4 1.969947 1_565
O1 V1 2.012234 1_565
O2 V3 1.989896 1_555
O2 V4 1.989896 1_555
O2 V0 1.989896 1_555
O3 V3 1.969947 1_556
O3 V4 1.969947 1_556
O3 V1 2.012234 1_556
O4 V3 2.000287 1_656
O4 V4 2.000287 1_566
O4 V0 2.000287 1_665
O5 V2 1.893170 1_555
O5 V3 2.088546 1_655
O5 V4 2.088546 1_565
O6 V2 1.893170 1_555
O6 V0 2.088546 1_565
O6 V3 2.088546 1_556
O7 V2 1.893170 1_555
O7 V0 2.088546 1_655
O7 V4 2.088546 1_556
O8 V5 1.952383 1_556
O8 V6 1.952383 1_655
O9 V5 1.952383 1_556
O9 V7 1.952383 1_565
O10 V6 1.961640 1_655
O10 V7 1.961640 1_565
O10 V5 1.961640 1_556
O11 V7 1.952383 1_565
O11 V6 1.952383 1_655
O12 V1 1.984776 1_555
O12 V7 1.991498 1_555
O12 V6 1.991498 1_555
O13 V2 1.911377 1_555
O13 V6 2.135640 1_555
O13 V7 2.135640 1_555
O13 V5 2.135640 1_555
O14 V1 1.984776 1_555
O14 V5 1.991498 1_555
O14 V7 1.991498 1_555
O15 V1 1.984776 1_555
O15 V5 1.991498 1_555
O15 V6 1.991498 1_555
