# generated using pymatgen
data_Mg3Al9FeSi5
_symmetry_space_group_name_H-M   'P 1'
_cell_length_a   6.63447981
_cell_length_b   6.63447981
_cell_length_c   7.86912000
_cell_angle_alpha   90.00000000
_cell_angle_beta   90.00000000
_cell_angle_gamma   119.99999809
_symmetry_Int_Tables_number   1
_chemical_formula_structural   Mg3Al9FeSi5
_chemical_formula_sum   'Mg3 Al9 Fe1 Si5'
_cell_volume   299.96498446
_cell_formula_units_Z   1
loop_
 _symmetry_equiv_pos_site_id
 _symmetry_equiv_pos_as_xyz
  1  'x, y, z'
loop_
 _atom_site_type_symbol
 _atom_site_label
 _atom_site_symmetry_multiplicity
 _atom_site_fract_x
 _atom_site_fract_y
 _atom_site_fract_z
 _atom_site_occupancy
  Mg  Mg0  1  0.41827600  0.00000000  0.50000000  1
  Mg  Mg1  1  0.00000000  0.41827600  0.50000000  1
  Mg  Mg2  1  0.58172400  0.58172400  0.50000000  1
  Al  Al0  1  0.62383700  0.62383700  0.00000000  1
  Al  Al1  1  0.00000000  0.37616300  0.00000000  1
  Al  Al2  1  0.75066900  0.00000000  0.77695500  1
  Al  Al3  1  0.37616300  0.00000000  0.00000000  1
  Al  Al4  1  0.00000000  0.75066900  0.77695500  1
  Al  Al5  1  0.75066900  0.00000000  0.22304500  1
  Al  Al6  1  0.00000000  0.75066900  0.22304500  1
  Al  Al7  1  0.24933100  0.24933100  0.77695500  1
  Al  Al8  1  0.24933100  0.24933100  0.22304500  1
  Fe  Fe0  1  0.00000000  0.00000000  0.00000000  1
  Si  Si0  1  0.66666700  0.33333300  0.23790100  1
  Si  Si1  1  0.66666700  0.33333300  0.76209900  1
  Si  Si2  1  0.00000000  0.00000000  0.50000000  1
  Si  Si3  1  0.33333300  0.66666700  0.76209900  1
  Si  Si4  1  0.33333300  0.66666700  0.23790100  1
loop_
_geom_bond_atom_site_label_1
_geom_bond_atom_site_label_2
_geom_bond_distance
_geom_bond_site_symmetry_2
Mg0 Si2 2.775044 1_555
Mg0 Si3 2.866331 1_545
Mg0 Si4 2.866331 1_545
Mg0 Si1 2.866332 1_555
Mg0 Si0 2.866332 1_555
Mg1 Si2 2.775044 1_555
Mg1 Si1 2.866331 1_455
Mg1 Si0 2.866331 1_455
Mg1 Si3 2.866332 1_555
Mg1 Si4 2.866332 1_555
Mg2 Si2 2.775044 1_665
Mg2 Si1 2.866335 1_555
Mg2 Si0 2.866335 1_555
Mg2 Si3 2.866335 1_555
Mg2 Si4 2.866335 1_555
Al0 Fe0 2.495646 1_665
Al0 Si3 2.801376 1_554
Al0 Si1 2.801376 1_554
Al0 Si0 2.801376 1_555
Al0 Si4 2.801376 1_555
Al1 Fe0 2.495646 1_555
Al1 Si1 2.801372 1_454
Al1 Si0 2.801372 1_455
Al1 Si4 2.801374 1_555
Al1 Si3 2.801374 1_554
Al2 Fe0 2.411831 1_656
Al2 Si1 2.539181 1_555
Al2 Si3 2.539185 1_545
Al2 Si2 2.736068 1_655
Al3 Fe0 2.495646 1_555
Al3 Si4 2.801372 1_545
Al3 Si3 2.801372 1_544
Al3 Si0 2.801374 1_555
Al3 Si1 2.801374 1_554
Al4 Fe0 2.411831 1_566
Al4 Si3 2.539181 1_555
Al4 Si1 2.539185 1_455
Al4 Si2 2.736068 1_565
Al5 Fe0 2.411831 1_655
Al5 Si0 2.539181 1_555
Al5 Si4 2.539185 1_545
Al5 Si2 2.736068 1_655
Al6 Fe0 2.411831 1_565
Al6 Si4 2.539181 1_555
Al6 Si0 2.539185 1_455
Al6 Si2 2.736068 1_565
Al7 Fe0 2.411831 1_556
Al7 Si3 2.539187 1_555
Al7 Si1 2.539187 1_555
Al7 Si2 2.736068 1_555
Al8 Fe0 2.411831 1_555
Al8 Si4 2.539187 1_555
Al8 Si0 2.539187 1_555
Al8 Si2 2.736068 1_555
