# generated using pymatgen
data_Li4Cr3Sn3(SbO8)2
_symmetry_space_group_name_H-M   'P 1'
_cell_length_a   6.19361991
_cell_length_b   6.19361991
_cell_length_c   10.12999182
_cell_angle_alpha   89.55937879
_cell_angle_beta   89.55937879
_cell_angle_gamma   60.35307379
_symmetry_Int_Tables_number   1
_chemical_formula_structural   Li4Cr3Sn3(SbO8)2
_chemical_formula_sum   'Li4 Cr3 Sn3 Sb2 O16'
_cell_volume   337.71146794
_cell_formula_units_Z   1
loop_
 _symmetry_equiv_pos_site_id
 _symmetry_equiv_pos_as_xyz
  1  'x, y, z'
loop_
 _atom_site_type_symbol
 _atom_site_label
 _atom_site_symmetry_multiplicity
 _atom_site_fract_x
 _atom_site_fract_y
 _atom_site_fract_z
 _atom_site_occupancy
  Li  Li0  1  0.33062800  0.33062800  0.10977700  1
  Li  Li1  1  0.00798700  0.00798700  0.00889400  1
  Li  Li2  1  0.00695100  0.00695100  0.50098900  1
  Li  Li3  1  0.66618400  0.66618400  0.60215200  1
  Cr  Cr0  1  0.16936000  0.16936000  0.78465500  1
  Cr  Cr1  1  0.83061100  0.33772200  0.28424500  1
  Cr  Cr2  1  0.33772200  0.83061100  0.28424500  1
  Sn  Sn0  1  0.66367700  0.16839100  0.78426800  1
  Sn  Sn1  1  0.16839100  0.66367700  0.78426800  1
  Sn  Sn2  1  0.83215000  0.83215000  0.28491300  1
  Sb  Sb0  1  0.32645600  0.32645600  0.49772500  1
  Sb  Sb1  1  0.65953400  0.65953400  0.01638900  1
  O  O0  1  0.69174200  0.15730300  0.39854700  1
  O  O1  1  0.48835400  0.48835400  0.66642300  1
  O  O2  1  0.32985200  0.32985200  0.89484400  1
  O  O3  1  0.00494000  0.00494000  0.68298800  1
  O  O4  1  0.00406500  0.00406500  0.18863900  1
  O  O5  1  0.15730300  0.69174200  0.39854700  1
  O  O6  1  0.48080100  0.02899300  0.66960400  1
  O  O7  1  0.02899300  0.48080100  0.66960400  1
  O  O8  1  0.84598100  0.84598100  0.90342800  1
  O  O9  1  0.15548900  0.15548900  0.39131700  1
  O  O10  1  0.96524900  0.51211200  0.16417300  1
  O  O11  1  0.51211200  0.96524900  0.16417300  1
  O  O12  1  0.66327400  0.66327400  0.38946100  1
  O  O13  1  0.85042500  0.30577800  0.89825800  1
  O  O14  1  0.51582500  0.51582500  0.17132800  1
  O  O15  1  0.30577800  0.85042500  0.89825800  1
loop_
_geom_bond_atom_site_label_1
_geom_bond_atom_site_label_2
_geom_bond_distance
_geom_bond_site_symmetry_2
Li0 O10 2.040141 1_455
Li0 O11 2.040141 1_545
Li0 O14 2.084178 1_555
Li0 O2 2.177359 1_554
Li1 O4 1.820926 1_555
Li1 O13 1.953097 1_454
Li1 O15 1.953097 1_544
Li1 O8 2.045503 1_444
Li2 O3 1.843583 1_555
Li2 O9 1.932075 1_555
Li2 O0 1.993292 1_455
Li2 O5 1.993292 1_545
Li3 O1 2.007032 1_555
Li3 O6 2.072130 1_565
Li3 O7 2.072130 1_655
Li3 O12 2.155061 1_555
Cr0 O6 2.038852 1_555
Cr0 O7 2.038852 1_555
Cr0 O3 2.047676 1_555
Cr0 O2 2.057611 1_555
Cr0 O13 2.066179 1_455
Cr0 O15 2.066179 1_545
Cr1 O4 2.044780 1_655
Cr1 O10 2.048591 1_555
Cr1 O14 2.052712 1_555
Cr1 O12 2.055347 1_555
Cr1 O0 2.060284 1_555
Cr1 O9 2.065700 1_655
Cr2 O4 2.044780 1_565
Cr2 O11 2.048591 1_555
Cr2 O14 2.052712 1_555
Cr2 O12 2.055347 1_555
Cr2 O5 2.060284 1_555
Cr2 O9 2.065700 1_565
O0 Sn2 2.103488 1_545
O0 Sb0 2.204973 1_555
O1 Sn1 2.094305 1_555
O1 Sn0 2.094305 1_555
O1 Sb0 2.445151 1_555
O2 Sn1 2.113229 1_555
O2 Sn0 2.113229 1_555
O3 Sn1 2.100174 1_545
O3 Sn0 2.100174 1_455
O4 Sn2 2.075645 1_445
O5 Sn2 2.103488 1_455
O5 Sb0 2.204973 1_555
O6 Sn0 2.093002 1_555
O6 Sb0 2.360847 1_555
O7 Sn1 2.093002 1_555
O7 Sb0 2.360847 1_555
O8 Sn0 2.114900 1_565
O8 Sn1 2.114900 1_655
O8 Sb1 2.292393 1_556
O9 Sb0 2.132804 1_555
O10 Sn2 2.123637 1_555
O10 Sb1 2.229868 1_555
O11 Sn2 2.123637 1_555
O11 Sb1 2.229868 1_555
O12 Sn2 2.087562 1_555
O13 Sn0 2.098719 1_555
O13 Sb1 2.255275 1_556
O14 Sb1 2.188311 1_555
O15 Sn1 2.098719 1_555
O15 Sb1 2.255275 1_556
