# generated using pymatgen
data_LiCo5O3F5
_symmetry_space_group_name_H-M   'P 1'
_cell_length_a   6.11564187
_cell_length_b   6.11564187
_cell_length_c   6.10925001
_cell_angle_alpha   60.79012343
_cell_angle_beta   60.79012343
_cell_angle_gamma   59.34015357
_symmetry_Int_Tables_number   1
_chemical_formula_structural   LiCo5O3F5
_chemical_formula_sum   'Li1 Co5 O3 F5'
_cell_volume   162.62211048
_cell_formula_units_Z   1
loop_
 _symmetry_equiv_pos_site_id
 _symmetry_equiv_pos_as_xyz
  1  'x, y, z'
loop_
 _atom_site_type_symbol
 _atom_site_label
 _atom_site_symmetry_multiplicity
 _atom_site_fract_x
 _atom_site_fract_y
 _atom_site_fract_z
 _atom_site_occupancy
  Li  Li0  1  0.61475300  0.61475300  0.13267500  1
  Co  Co0  1  0.60889700  0.13555500  0.61472400  1
  Co  Co1  1  0.97636600  0.97636600  0.05874700  1
  Co  Co2  1  0.62382500  0.62382500  0.62247300  1
  Co  Co3  1  0.28204700  0.28204700  0.20771400  1
  Co  Co4  1  0.13555500  0.60889700  0.61472400  1
  O  O0  1  0.39935400  0.39935400  0.82116500  1
  O  O1  1  0.84986800  0.84986800  0.43717100  1
  O  O2  1  0.38931900  0.38931900  0.37209600  1
  F  F0  1  0.87130800  0.38984800  0.35547300  1
  F  F1  1  0.86764600  0.37796400  0.88787200  1
  F  F2  1  0.37796400  0.86764600  0.88787200  1
  F  F3  1  0.86324900  0.86324900  0.88182100  1
  F  F4  1  0.38984800  0.87130800  0.35547300  1
loop_
_geom_bond_atom_site_label_1
_geom_bond_atom_site_label_2
_geom_bond_distance
_geom_bond_site_symmetry_2
Li0 O2 1.985709 1_555
Co0 O2 1.995238 1_555
Co0 O1 2.016061 1_545
Co0 O0 2.033591 1_555
Co0 F2 2.203388 1_545
Co0 F3 2.244725 1_545
Co0 F0 2.272221 1_555
Co1 O1 1.913352 1_555
Co1 F3 2.018200 1_554
Co1 F1 2.018293 1_564
Co1 F2 2.018293 1_654
Co2 O0 1.977805 1_555
Co2 O1 1.999441 1_555
Co2 F0 2.158403 1_555
Co2 F4 2.158403 1_555
Co2 F2 2.192439 1_555
Co2 F1 2.192439 1_555
Co3 O2 1.895860 1_555
Co3 O0 1.955493 1_554
Co3 F4 2.058652 1_545
Co3 F0 2.058652 1_455
Co4 O2 1.995238 1_555
Co4 O1 2.016061 1_455
Co4 O0 2.033591 1_555
Co4 F1 2.203388 1_455
Co4 F3 2.244725 1_455
Co4 F4 2.272221 1_555
F0 Li0 2.064567 1_555
F1 Li0 2.073110 1_556
F2 Li0 2.073110 1_556
F3 Li0 2.185596 1_556
F4 Li0 2.064567 1_555
