# generated using pymatgen
data_Co6OF11
_symmetry_space_group_name_H-M   'P 1'
_cell_length_a   10.64925270
_cell_length_b   10.64925270
_cell_length_c   3.21342100
_cell_angle_alpha   90.00000000
_cell_angle_beta   90.00000000
_cell_angle_gamma   143.84476843
_symmetry_Int_Tables_number   1
_chemical_formula_structural   Co6OF11
_chemical_formula_sum   'Co6 O1 F11'
_cell_volume   215.00050270
_cell_formula_units_Z   1
loop_
 _symmetry_equiv_pos_site_id
 _symmetry_equiv_pos_as_xyz
  1  'x, y, z'
loop_
 _atom_site_type_symbol
 _atom_site_label
 _atom_site_symmetry_multiplicity
 _atom_site_fract_x
 _atom_site_fract_y
 _atom_site_fract_z
 _atom_site_occupancy
  Co  Co0  1  0.98128600  0.98128600  0.00000000  1
  Co  Co1  1  0.52125700  0.52125700  0.50000000  1
  Co  Co2  1  0.66408600  0.33104600  0.00000000  1
  Co  Co3  1  0.83470800  0.16869900  0.50000000  1
  Co  Co4  1  0.16869900  0.83470800  0.50000000  1
  Co  Co5  1  0.33104600  0.66408600  0.00000000  1
  O  O0  1  0.70743700  0.70743700  0.00000000  1
  F  F0  1  0.29074800  0.29074800  0.00000000  1
  F  F1  1  0.96969200  0.63598200  0.00000000  1
  F  F2  1  0.59710900  0.39418300  0.50000000  1
  F  F3  1  0.73015600  0.26599700  0.50000000  1
  F  F4  1  0.06836300  0.93730100  0.50000000  1
  F  F5  1  0.36117200  0.02483600  0.00000000  1
  F  F6  1  0.63598200  0.96969200  0.00000000  1
  F  F7  1  0.93730100  0.06836300  0.50000000  1
  F  F8  1  0.26599700  0.73015600  0.50000000  1
  F  F9  1  0.39418300  0.59710900  0.50000000  1
  F  F10  1  0.02483600  0.36117200  0.00000000  1
loop_
_geom_bond_atom_site_label_1
_geom_bond_atom_site_label_2
_geom_bond_distance
_geom_bond_site_symmetry_2
Co0 O0 1.809877 1_555
Co0 F0 2.045245 1_665
Co0 F4 2.088597 1_655
Co0 F7 2.088597 1_564
Co0 F7 2.088597 1_565
Co0 F4 2.088597 1_654
Co1 O0 2.023753 1_555
Co1 O0 2.023753 1_556
Co1 F2 2.061298 1_555
Co1 F9 2.061298 1_555
Co1 F0 2.214135 1_556
Co1 F0 2.214135 1_555
Co2 F5 2.013137 1_555
Co2 F1 2.017558 1_555
Co2 F2 2.077678 1_554
Co2 F2 2.077678 1_555
Co2 F3 2.084107 1_554
Co2 F3 2.084107 1_555
Co3 F3 2.043584 1_555
Co3 F10 2.044643 1_656
Co3 F10 2.044643 1_655
Co3 F7 2.054380 1_555
Co3 F6 2.075801 1_545
Co3 F6 2.075801 1_546
Co4 F8 2.043584 1_555
Co4 F5 2.044643 1_565
Co4 F5 2.044643 1_566
Co4 F4 2.054380 1_555
Co4 F1 2.075801 1_456
Co4 F1 2.075801 1_455
Co5 F10 2.013137 1_555
Co5 F6 2.017558 1_555
Co5 F9 2.077678 1_555
Co5 F9 2.077678 1_554
Co5 F8 2.084107 1_554
Co5 F8 2.084107 1_555
