# generated using pymatgen
data_Ti8O13
_symmetry_space_group_name_H-M   'P 1'
_cell_length_a   6.46070829
_cell_length_b   6.46070715
_cell_length_c   6.46070805
_cell_angle_alpha   73.61188280
_cell_angle_beta   73.61188129
_cell_angle_gamma   73.61187372
_symmetry_Int_Tables_number   1
_chemical_formula_structural   Ti8O13
_chemical_formula_sum   'Ti8 O13'
_cell_volume   242.12323587
_cell_formula_units_Z   1
loop_
 _symmetry_equiv_pos_site_id
 _symmetry_equiv_pos_as_xyz
  1  'x, y, z'
loop_
 _atom_site_type_symbol
 _atom_site_label
 _atom_site_symmetry_multiplicity
 _atom_site_fract_x
 _atom_site_fract_y
 _atom_site_fract_z
 _atom_site_occupancy
  Ti  Ti0  1  0.05813395  0.31446773  0.87582444  1
  Ti  Ti1  1  0.27655311  0.27655311  0.27655311  1
  Ti  Ti2  1  0.31446773  0.87582444  0.05813395  1
  Ti  Ti3  1  0.12417556  0.94186605  0.68553227  1
  Ti  Ti4  1  0.87582444  0.05813395  0.31446773  1
  Ti  Ti5  1  0.68553227  0.12417556  0.94186605  1
  Ti  Ti6  1  0.72344689  0.72344689  0.72344689  1
  Ti  Ti7  1  0.94186605  0.68553227  0.12417556  1
  O  O0  1  -0.00000000  -0.00000000  -0.00000000  1
  O  O1  1  0.17166767  0.25733245  0.57975415  1
  O  O2  1  0.03952583  0.64303064  0.79811718  1
  O  O3  1  0.25733245  0.57975415  0.17166767  1
  O  O4  1  0.20188282  0.96047417  0.35696936  1
  O  O5  1  0.35696936  0.20188282  0.96047417  1
  O  O6  1  0.57975415  0.17166767  0.25733245  1
  O  O7  1  0.42024585  0.82833233  0.74266855  1
  O  O8  1  0.64303064  0.79811718  0.03952583  1
  O  O9  1  0.79811718  0.03952583  0.64303064  1
  O  O10  1  0.74266855  0.42024585  0.82833233  1
  O  O11  1  0.96047417  0.35696936  0.20188282  1
  O  O12  1  0.82833233  0.74266855  0.42024585  1
loop_
_geom_bond_atom_site_label_1
_geom_bond_atom_site_label_2
_geom_bond_distance
_geom_bond_site_symmetry_2
O0 Ti7 2.062338 1_445
O0 Ti0 2.062338 1_554
O0 Ti3 2.062338 1_544
O0 Ti4 2.062338 1_455
O0 Ti5 2.062338 1_454
O0 Ti2 2.062338 1_545
O1 Ti1 1.863613 1_555
O1 Ti0 1.946048 1_555
O1 Ti3 2.040532 1_545
O2 Ti0 2.015254 1_555
O2 Ti3 2.033380 1_555
O2 Ti7 2.095175 1_456
O2 Ti6 2.118631 1_455
O3 Ti1 1.863612 1_555
O3 Ti2 1.946048 1_555
O3 Ti7 2.040532 1_455
O4 Ti3 2.015255 1_555
O4 Ti2 2.033380 1_555
O4 Ti4 2.095175 1_465
O4 Ti1 2.118631 1_565
O5 Ti5 2.015255 1_555
O5 Ti0 2.033380 1_555
O5 Ti2 2.095174 1_546
O5 Ti1 2.118631 1_556
O6 Ti1 1.863612 1_555
O6 Ti4 1.946048 1_555
O6 Ti5 2.040532 1_554
O7 Ti6 1.863612 1_555
O7 Ti3 1.946051 1_555
O7 Ti2 2.040526 1_556
O8 Ti2 2.015255 1_555
O8 Ti7 2.033380 1_555
O8 Ti5 2.095174 1_564
O8 Ti6 2.118631 1_554
O9 Ti4 2.015255 1_555
O9 Ti5 2.033380 1_555
O9 Ti3 2.095175 1_645
O9 Ti6 2.118631 1_545
O10 Ti6 1.863611 1_555
O10 Ti5 1.946051 1_555
O10 Ti0 2.040526 1_655
O11 Ti7 2.015254 1_555
O11 Ti4 2.033380 1_555
O11 Ti0 2.095175 1_654
O11 Ti1 2.118631 1_655
O12 Ti6 1.863612 1_555
O12 Ti7 1.946051 1_555
O12 Ti4 2.040526 1_565
