# generated using pymatgen
data_LiVO2
_symmetry_space_group_name_H-M   'P 1'
_cell_length_a   5.16166200
_cell_length_b   5.21547694
_cell_length_c   7.90439428
_cell_angle_alpha   71.09843051
_cell_angle_beta   71.10228306
_cell_angle_gamma   80.63913584
_symmetry_Int_Tables_number   1
_chemical_formula_structural   LiVO2
_chemical_formula_sum   'Li5 V5 O10'
_cell_volume   190.06816897
_cell_formula_units_Z   5
loop_
 _symmetry_equiv_pos_site_id
 _symmetry_equiv_pos_as_xyz
  1  'x, y, z'
loop_
 _atom_site_type_symbol
 _atom_site_label
 _atom_site_symmetry_multiplicity
 _atom_site_fract_x
 _atom_site_fract_y
 _atom_site_fract_z
 _atom_site_occupancy
  Li  Li0  1  0.49469600  0.77927000  0.41797800  1
  Li  Li1  1  0.50560000  0.60673700  0.77989000  1
  Li  Li2  1  0.00000000  0.50000000  0.50000000  1
  Li  Li3  1  0.50530400  0.22073000  0.58202200  1
  Li  Li4  1  0.49440000  0.39326300  0.22011000  1
  V  V0  1  0.50000000  0.00000000  0.00000000  1
  V  V1  1  0.00425900  0.90136200  0.69192000  1
  V  V2  1  0.99509500  0.68955500  0.11377200  1
  V  V3  1  0.00490500  0.31044500  0.88622800  1
  V  V4  1  0.99574100  0.09863800  0.30808000  1
  O  O0  1  0.23083300  0.94863300  0.86574800  1
  O  O1  1  0.76224600  0.85688200  0.54850200  1
  O  O2  1  0.76079400  0.66752000  0.95137900  1
  O  O3  1  0.24470100  0.76468900  0.23918700  1
  O  O4  1  0.22287500  0.54909800  0.66800300  1
  O  O5  1  0.77712500  0.45090200  0.33199700  1
  O  O6  1  0.75529900  0.23531100  0.76081300  1
  O  O7  1  0.23920600  0.33248000  0.04862100  1
  O  O8  1  0.23775400  0.14311800  0.45149800  1
  O  O9  1  0.76916700  0.05136700  0.13425200  1
loop_
_geom_bond_atom_site_label_1
_geom_bond_atom_site_label_2
_geom_bond_distance
_geom_bond_site_symmetry_2
Li0 O1 2.123863 1_555
Li0 O4 2.128398 1_555
Li0 O8 2.170161 1_565
Li0 O5 2.195500 1_555
Li0 O3 2.225071 1_555
Li0 O9 2.363168 1_565
Li1 O4 2.037929 1_555
Li1 O1 2.061291 1_555
Li1 O6 2.165103 1_555
Li1 O0 2.233725 1_555
Li1 O7 2.286502 1_556
Li1 O2 2.289943 1_555
Li2 O5 2.111447 1_455
Li2 O4 2.111447 1_555
Li2 O1 2.128846 1_455
Li2 O8 2.128846 1_555
Li2 O3 2.188099 1_555
Li2 O6 2.188099 1_455
Li3 O8 2.123863 1_555
Li3 O5 2.128398 1_555
Li3 O1 2.170161 1_545
Li3 O4 2.195500 1_555
Li3 O6 2.225071 1_555
Li3 O0 2.363168 1_545
Li4 O5 2.037929 1_555
Li4 O8 2.061291 1_555
Li4 O3 2.165103 1_555
Li4 O9 2.233725 1_555
Li4 O2 2.286502 1_554
Li4 O7 2.289943 1_555
O0 V3 2.075276 1_565
O0 V0 2.094866 1_566
O0 V2 2.103142 1_456
O0 V1 2.161145 1_555
O1 V1 2.020241 1_655
O1 V4 2.027839 1_565
O2 V2 2.066361 1_556
O2 V0 2.074604 1_566
O2 V1 2.116914 1_655
O2 V3 2.181460 1_655
O3 V2 2.009840 1_455
O3 V0 2.055755 1_565
O3 V4 2.101080 1_465
O4 V3 1.896813 1_555
O4 V1 2.024081 1_555
O5 V2 1.896813 1_555
O5 V4 2.024081 1_555
O6 V3 2.009840 1_655
O6 V0 2.055755 1_556
O6 V1 2.101080 1_645
O7 V3 2.066361 1_554
O7 V0 2.074604 1_555
O7 V4 2.116914 1_455
O7 V2 2.181460 1_455
O8 V4 2.020241 1_455
O8 V1 2.027839 1_545
O9 V2 2.075276 1_545
O9 V0 2.094866 1_555
O9 V3 2.103142 1_654
O9 V4 2.161145 1_555
