# generated using pymatgen
data_Ho2TiO5
_symmetry_space_group_name_H-M   'P 1'
_cell_length_a   5.86801587
_cell_length_b   5.86801587
_cell_length_c   10.49464700
_cell_angle_alpha   90.00000000
_cell_angle_beta   90.00000000
_cell_angle_gamma   139.35391693
_symmetry_Int_Tables_number   1
_chemical_formula_structural   Ho2TiO5
_chemical_formula_sum   'Ho4 Ti2 O10'
_cell_volume   235.38996331
_cell_formula_units_Z   2
loop_
 _symmetry_equiv_pos_site_id
 _symmetry_equiv_pos_as_xyz
  1  'x, y, z'
loop_
 _atom_site_type_symbol
 _atom_site_label
 _atom_site_symmetry_multiplicity
 _atom_site_fract_x
 _atom_site_fract_y
 _atom_site_fract_z
 _atom_site_occupancy
  Ho  Ho0  1  0.14230500  0.85769500  0.93038500  1
  Ho  Ho1  1  0.14230500  0.85769500  0.56961500  1
  Ho  Ho2  1  0.85769500  0.14230500  0.06961500  1
  Ho  Ho3  1  0.85769500  0.14230500  0.43038500  1
  Ti  Ti0  1  0.17274700  0.82725300  0.25000000  1
  Ti  Ti1  1  0.82725300  0.17274700  0.75000000  1
  O  O0  1  0.05171900  0.94828100  0.37635100  1
  O  O1  1  0.05171900  0.94828100  0.12364900  1
  O  O2  1  0.70917900  0.29082100  0.90802300  1
  O  O3  1  0.70917900  0.29082100  0.59197700  1
  O  O4  1  0.27299800  0.72700200  0.75000000  1
  O  O5  1  0.72700200  0.27299800  0.25000000  1
  O  O6  1  0.29082100  0.70917900  0.09197700  1
  O  O7  1  0.29082100  0.70917900  0.40802300  1
  O  O8  1  0.94828100  0.05171900  0.62364900  1
  O  O9  1  0.94828100  0.05171900  0.87635100  1
loop_
_geom_bond_atom_site_label_1
_geom_bond_atom_site_label_2
_geom_bond_distance
_geom_bond_site_symmetry_2
Ho0 O2 2.179526 1_455
Ho0 O2 2.179526 1_565
Ho0 O9 2.209337 1_465
Ho0 O1 2.260008 1_556
Ho0 O6 2.355304 1_556
Ho0 O4 2.377509 1_555
Ho1 O3 2.179526 1_455
Ho1 O3 2.179526 1_565
Ho1 O8 2.209337 1_465
Ho1 O0 2.260008 1_555
Ho1 O7 2.355304 1_555
Ho1 O4 2.377509 1_555
Ho2 O6 2.179526 1_545
Ho2 O6 2.179526 1_655
Ho2 O1 2.209337 1_645
Ho2 O9 2.260008 1_554
Ho2 O2 2.355304 1_554
Ho2 O5 2.377509 1_555
Ho3 O7 2.179526 1_655
Ho3 O7 2.179526 1_545
Ho3 O0 2.209337 1_645
Ho3 O8 2.260008 1_555
Ho3 O3 2.355304 1_555
Ho3 O5 2.377509 1_555
O0 Ti0 1.879479 1_555
O1 Ti0 1.879479 1_555
O2 Ti1 2.106862 1_555
O3 Ti1 2.106862 1_555
O4 Ti1 2.123705 1_455
O4 Ti1 2.123705 1_565
O5 Ti0 2.123705 1_545
O5 Ti0 2.123705 1_655
O6 Ti0 2.106862 1_555
O7 Ti0 2.106862 1_555
O8 Ti1 1.879479 1_555
O9 Ti1 1.879479 1_555
