# generated using pymatgen
data_CeZr7O16
_symmetry_space_group_name_H-M   'P 1'
_cell_length_a   6.94138300
_cell_length_b   7.48272458
_cell_length_c   7.50368183
_cell_angle_alpha   90.15032429
_cell_angle_beta   116.38887651
_cell_angle_gamma   116.43542580
_symmetry_Int_Tables_number   1
_chemical_formula_structural   CeZr7O16
_chemical_formula_sum   'Ce1 Zr7 O16'
_cell_volume   302.70287767
_cell_formula_units_Z   1
loop_
 _symmetry_equiv_pos_site_id
 _symmetry_equiv_pos_as_xyz
  1  'x, y, z'
loop_
 _atom_site_type_symbol
 _atom_site_label
 _atom_site_symmetry_multiplicity
 _atom_site_fract_x
 _atom_site_fract_y
 _atom_site_fract_z
 _atom_site_occupancy
  Ce  Ce0  1  0.29390900  0.54876200  0.01471400  1
  Zr  Zr0  1  0.20681100  0.98188500  0.94342800  1
  Zr  Zr1  1  0.71370500  0.95027400  0.49508400  1
  Zr  Zr2  1  0.71009300  0.43942100  0.98600100  1
  Zr  Zr3  1  0.20624500  0.48955300  0.44702500  1
  Zr  Zr4  1  0.78602300  0.51016000  0.55140200  1
  Zr  Zr5  1  0.28891300  0.05349800  0.51015000  1
  Zr  Zr6  1  0.79272400  0.01218500  0.05761500  1
  O  O0  1  0.02343400  0.86674400  0.61102400  1
  O  O1  1  0.13523900  0.51238500  0.68183700  1
  O  O2  1  0.86312400  0.99696400  0.81029000  1
  O  O3  1  0.35535500  0.80740100  0.48367600  1
  O  O4  1  0.36589700  0.29822000  0.98668300  1
  O  O5  1  0.96568300  0.63484000  0.88344100  1
  O  O6  1  0.47135800  0.38599500  0.63190000  1
  O  O7  1  0.48728800  0.90340800  0.13933600  1
  O  O8  1  0.52258300  0.10391700  0.85924100  1
  O  O9  1  0.52698600  0.61426400  0.37779100  1
  O  O10  1  0.01025900  0.35984300  0.11629700  1
  O  O11  1  0.64575200  0.19490600  0.51637300  1
  O  O12  1  0.65133200  0.69475800  0.00704100  1
  O  O13  1  0.14670500  0.01664900  0.19275000  1
  O  O14  1  0.85230600  0.49218000  0.30455800  1
  O  O15  1  0.97828100  0.13178800  0.39234200  1
loop_
_geom_bond_atom_site_label_1
_geom_bond_atom_site_label_2
_geom_bond_distance
_geom_bond_site_symmetry_2
Ce0 O4 2.175785 1_554
Ce0 O1 2.193216 1_554
Ce0 O12 2.250826 1_555
Ce0 O10 2.305985 1_555
Ce0 O7 2.327665 1_555
Ce0 O9 2.376756 1_555
Ce0 O5 2.427133 1_454
O0 Zr0 2.184917 1_555
O0 Zr5 2.207764 1_565
O0 Zr1 2.303581 1_455
O0 Zr4 2.336361 1_455
O1 Zr3 2.054743 1_555
O1 Zr4 2.165455 1_455
O2 Zr1 2.069873 1_555
O2 Zr6 2.133204 1_566
O2 Zr0 2.196322 1_655
O3 Zr3 2.086928 1_555
O3 Zr5 2.116344 1_565
O3 Zr1 2.186349 1_555
O4 Zr0 2.068264 1_545
O4 Zr2 2.141937 1_555
O5 Zr2 2.188099 1_555
O5 Zr4 2.196164 1_555
O5 Zr0 2.280747 1_655
O6 Zr5 2.186935 1_555
O6 Zr3 2.217531 1_555
O6 Zr4 2.316829 1_555
O6 Zr2 2.335904 1_555
O7 Zr0 2.185086 1_554
O7 Zr6 2.270539 1_565
O7 Zr1 2.343893 1_555
O8 Zr6 2.207550 1_556
O8 Zr2 2.208830 1_555
O8 Zr5 2.303900 1_555
O8 Zr0 2.342875 1_545
O9 Zr4 2.169611 1_555
O9 Zr1 2.202024 1_555
O9 Zr3 2.297464 1_555
O10 Zr3 2.182222 1_555
O10 Zr2 2.224551 1_454
O10 Zr6 2.268661 1_455
O11 Zr4 2.075089 1_555
O11 Zr1 2.105473 1_545
O11 Zr5 2.195548 1_555
O12 Zr6 2.082666 1_565
O12 Zr2 2.142729 1_554
O13 Zr5 2.094550 1_555
O13 Zr0 2.128305 1_544
O13 Zr6 2.186028 1_455
O14 Zr2 2.096334 1_554
O14 Zr4 2.114694 1_555
O14 Zr3 2.210799 1_655
O15 Zr6 2.203315 1_555
O15 Zr1 2.203418 1_545
O15 Zr5 2.281874 1_655
O15 Zr3 2.341847 1_655
