# generated using pymatgen
data_Li3Ni5O8
_symmetry_space_group_name_H-M   'P 1'
_cell_length_a   5.84478820
_cell_length_b   5.84478820
_cell_length_c   15.17843336
_cell_angle_alpha   73.45851420
_cell_angle_beta   73.45851420
_cell_angle_gamma   59.74613006
_symmetry_Int_Tables_number   1
_chemical_formula_structural   Li3Ni5O8
_chemical_formula_sum   'Li9 Ni15 O24'
_cell_volume   423.06646501
_cell_formula_units_Z   3
loop_
 _symmetry_equiv_pos_site_id
 _symmetry_equiv_pos_as_xyz
  1  'x, y, z'
loop_
 _atom_site_type_symbol
 _atom_site_label
 _atom_site_symmetry_multiplicity
 _atom_site_fract_x
 _atom_site_fract_y
 _atom_site_fract_z
 _atom_site_occupancy
  Li  Li0  1  0.16522300  0.16522300  0.83360400  1
  Li  Li1  1  0.50000000  0.00000000  0.50000000  1
  Li  Li2  1  0.16364500  0.66951400  0.83318500  1
  Li  Li3  1  0.00000000  0.50000000  0.50000000  1
  Li  Li4  1  0.83477700  0.83477700  0.16639600  1
  Li  Li5  1  0.66951400  0.16364500  0.83318500  1
  Li  Li6  1  0.00000000  0.00000000  0.50000000  1
  Li  Li7  1  0.83635500  0.33048600  0.16681500  1
  Li  Li8  1  0.33048600  0.83635500  0.16681500  1
  Ni  Ni0  1  0.66756700  0.66756700  0.83334800  1
  Ni  Ni1  1  0.91588000  0.91588000  0.33371100  1
  Ni  Ni2  1  0.75171700  0.24828300  0.00000000  1
  Ni  Ni3  1  0.33243300  0.33243300  0.16665200  1
  Ni  Ni4  1  0.41598600  0.41598600  0.33373500  1
  Ni  Ni5  1  0.24828300  0.75171700  0.00000000  1
  Ni  Ni6  1  0.58401400  0.58401400  0.66626500  1
  Ni  Ni7  1  0.41575200  0.91615600  0.33374900  1
  Ni  Ni8  1  0.24978600  0.24978600  0.99816700  1
  Ni  Ni9  1  0.08412000  0.08412000  0.66628900  1
  Ni  Ni10  1  0.91615600  0.41575200  0.33374900  1
  Ni  Ni11  1  0.75021400  0.75021400  0.00183300  1
  Ni  Ni12  1  0.50000000  0.50000000  0.50000000  1
  Ni  Ni13  1  0.08384400  0.58424800  0.66625100  1
  Ni  Ni14  1  0.58424800  0.08384400  0.66625100  1
  O  O0  1  0.53757700  0.53757700  0.08001900  1
  O  O1  1  0.38046700  0.87187700  0.74867700  1
  O  O2  1  0.78554900  0.78554900  0.59412200  1
  O  O3  1  0.04375600  0.04375600  0.07437100  1
  O  O4  1  0.87187700  0.38046700  0.74867700  1
  O  O5  1  0.61953300  0.12812300  0.25132300  1
  O  O6  1  0.46242300  0.46242300  0.91998100  1
  O  O7  1  0.21445100  0.21445100  0.40587800  1
  O  O8  1  0.04918200  0.53530500  0.08156100  1
  O  O9  1  0.87281000  0.87281000  0.74785200  1
  O  O10  1  0.29233200  0.29233200  0.58599600  1
  O  O11  1  0.12812300  0.61953300  0.25132300  1
  O  O12  1  0.95624400  0.95624400  0.92562900  1
  O  O13  1  0.70766800  0.70766800  0.41400400  1
  O  O14  1  0.29271100  0.78576300  0.58613100  1
  O  O15  1  0.53530500  0.04918200  0.08156100  1
  O  O16  1  0.38014700  0.38014700  0.73988700  1
  O  O17  1  0.12719000  0.12719000  0.25214800  1
  O  O18  1  0.95081800  0.46469500  0.91843900  1
  O  O19  1  0.70728900  0.21423700  0.41386900  1
  O  O20  1  0.78576300  0.29271100  0.58613100  1
  O  O21  1  0.61985300  0.61985300  0.26011300  1
  O  O22  1  0.46469500  0.95081800  0.91843900  1
  O  O23  1  0.21423700  0.70728900  0.41386900  1
loop_
_geom_bond_atom_site_label_1
_geom_bond_atom_site_label_2
_geom_bond_distance
_geom_bond_site_symmetry_2
Li0 O1 2.084607 1_545
Li0 O4 2.084607 1_455
Li0 O22 2.108668 1_545
Li0 O18 2.108668 1_455
Li0 O12 2.120197 1_445
Li0 O16 2.175904 1_555
Li1 O10 2.091510 1_555
Li1 O13 2.091510 1_545
Li1 O19 2.107032 1_555
Li1 O14 2.107032 1_545
Li1 O2 2.151183 1_545
Li1 O7 2.151183 1_555
Li2 O9 2.078719 1_455
Li2 O18 2.087305 1_455
Li2 O1 2.090728 1_555
Li2 O6 2.126575 1_555
Li2 O12 2.137811 1_455
Li2 O16 2.157300 1_555
Li3 O10 2.091510 1_555
Li3 O13 2.091510 1_455
Li3 O23 2.107032 1_555
Li3 O20 2.107032 1_455
Li3 O2 2.151183 1_455
Li3 O7 2.151183 1_555
Li4 O5 2.084607 1_565
Li4 O11 2.084607 1_655
Li4 O8 2.108668 1_655
Li4 O15 2.108668 1_565
Li4 O3 2.120197 1_665
Li4 O21 2.175904 1_555
Li5 O9 2.078719 1_545
Li5 O22 2.087305 1_545
Li5 O4 2.090728 1_555
Li5 O6 2.126575 1_555
Li5 O12 2.137811 1_545
Li5 O16 2.157300 1_555
Li6 O14 2.094461 1_545
Li6 O20 2.094461 1_455
Li6 O23 2.094461 1_545
Li6 O19 2.094461 1_455
Li6 O2 2.174148 1_445
Li6 O7 2.174148 1_555
Li7 O17 2.078719 1_655
Li7 O8 2.087305 1_655
Li7 O5 2.090728 1_555
Li7 O0 2.126575 1_555
Li7 O3 2.137811 1_655
Li7 O21 2.157300 1_555
Li8 O17 2.078719 1_565
Li8 O15 2.087305 1_565
Li8 O11 2.090728 1_555
Li8 O0 2.126575 1_555
Li8 O3 2.137811 1_565
Li8 O21 2.157300 1_555
Ni0 O22 2.045071 1_555
Ni0 O18 2.045071 1_555
Ni0 O1 2.056307 1_555
Ni0 O4 2.056307 1_555
Ni0 O9 2.058963 1_555
Ni0 O6 2.063379 1_555
Ni1 O23 2.056401 1_655
Ni1 O19 2.056401 1_565
Ni1 O13 2.061681 1_555
Ni1 O11 2.070673 1_655
Ni1 O5 2.070673 1_565
Ni1 O17 2.092649 1_665
Ni2 O3 1.972179 1_655
Ni2 O12 1.972179 1_544
Ni2 O0 2.017912 1_555
Ni2 O6 2.017912 1_554
Ni2 O18 2.063483 1_554
Ni2 O15 2.063483 1_555
Ni3 O15 2.045071 1_555
Ni3 O8 2.045071 1_555
Ni3 O5 2.056307 1_555
Ni3 O11 2.056307 1_555
Ni3 O17 2.058963 1_555
Ni3 O0 2.063379 1_555
Ni4 O7 1.975681 1_555
Ni4 O21 2.000665 1_555
Ni4 O23 2.026866 1_555
Ni4 O19 2.026866 1_555
Ni4 O11 2.035903 1_555
Ni4 O5 2.035903 1_555
Ni5 O3 1.972179 1_565
Ni5 O12 1.972179 1_454
Ni5 O0 2.017912 1_555
Ni5 O6 2.017912 1_554
Ni5 O8 2.063483 1_555
Ni5 O22 2.063483 1_554
Ni6 O2 1.975681 1_555
Ni6 O16 2.000665 1_555
Ni6 O20 2.026866 1_555
Ni6 O14 2.026866 1_555
Ni6 O4 2.035903 1_555
Ni6 O1 2.035903 1_555
Ni7 O7 1.977113 1_565
Ni7 O21 1.983104 1_555
Ni7 O13 2.030529 1_555
Ni7 O17 2.030604 1_565
Ni7 O23 2.035772 1_555
Ni7 O5 2.067499 1_565
Ni8 O3 2.028065 1_556
Ni8 O8 2.036644 1_556
Ni8 O15 2.036644 1_556
Ni8 O22 2.054866 1_545
Ni8 O18 2.054866 1_455
Ni8 O6 2.091485 1_555
Ni9 O20 2.056401 1_455
Ni9 O14 2.056401 1_545
Ni9 O10 2.061681 1_555
Ni9 O1 2.070673 1_545
Ni9 O4 2.070673 1_455
Ni9 O9 2.092649 1_445
Ni10 O7 1.977113 1_655
Ni10 O21 1.983104 1_555
Ni10 O13 2.030529 1_555
Ni10 O17 2.030604 1_655
Ni10 O19 2.035772 1_555
Ni10 O11 2.067499 1_655
Ni11 O12 2.028065 1_554
Ni11 O18 2.036644 1_554
Ni11 O22 2.036644 1_554
Ni11 O8 2.054866 1_655
Ni11 O15 2.054866 1_565
Ni11 O0 2.091485 1_555
Ni12 O20 2.066156 1_555
Ni12 O14 2.066156 1_555
Ni12 O19 2.066156 1_555
Ni12 O23 2.066156 1_555
Ni12 O10 2.080992 1_555
Ni12 O13 2.080992 1_555
Ni13 O2 1.977113 1_455
Ni13 O16 1.983104 1_555
Ni13 O10 2.030529 1_555
Ni13 O9 2.030604 1_455
Ni13 O14 2.035772 1_555
Ni13 O4 2.067499 1_455
Ni14 O2 1.977113 1_545
Ni14 O16 1.983104 1_555
Ni14 O10 2.030529 1_555
Ni14 O9 2.030604 1_545
Ni14 O20 2.035772 1_555
Ni14 O1 2.067499 1_545
