# generated using pymatgen
data_Fe4OF7
_symmetry_space_group_name_H-M   'P 1'
_cell_length_a   5.80422400
_cell_length_b   5.80868837
_cell_length_c   9.42563626
_cell_angle_alpha   88.49829172
_cell_angle_beta   88.41327017
_cell_angle_gamma   71.26823522
_symmetry_Int_Tables_number   1
_chemical_formula_structural   Fe4OF7
_chemical_formula_sum   'Fe8 O2 F14'
_cell_volume   300.78663643
_cell_formula_units_Z   2
loop_
 _symmetry_equiv_pos_site_id
 _symmetry_equiv_pos_as_xyz
  1  'x, y, z'
loop_
 _atom_site_type_symbol
 _atom_site_label
 _atom_site_symmetry_multiplicity
 _atom_site_fract_x
 _atom_site_fract_y
 _atom_site_fract_z
 _atom_site_occupancy
  Fe  Fe0  1  0.87048400  0.87090000  0.62563400  1
  Fe  Fe1  1  0.61098100  0.62840900  0.87940000  1
  Fe  Fe2  1  0.49161100  0.49017900  0.49735100  1
  Fe  Fe3  1  0.74849600  0.75391400  0.25091200  1
  Fe  Fe4  1  0.24472200  0.25151100  0.74057600  1
  Fe  Fe5  1  0.37195100  0.38887300  0.11797300  1
  Fe  Fe6  1  0.14039800  0.14085600  0.38814200  1
  Fe  Fe7  1  0.02800900  0.97637900  0.00179400  1
  O  O0  1  0.27319800  0.27463000  0.52178200  1
  O  O1  1  0.29581600  0.70560800  0.00143200  1
  F  F0  1  0.54897800  0.95196600  0.75197200  1
  F  F1  1  0.19588200  0.81295500  0.49059800  1
  F  F2  1  0.94318500  0.55299900  0.75470000  1
  F  F3  1  0.97974900  0.98591100  0.22436700  1
  F  F4  1  0.72202100  0.72244700  0.47419000  1
  F  F5  1  0.47830700  0.47384200  0.72256100  1
  F  F6  1  0.21447100  0.21826100  0.97706000  1
  F  F7  1  0.52864300  0.52316500  0.27403600  1
  F  F8  1  0.78352400  0.78768600  0.02589200  1
  F  F9  1  0.01573700  0.02202900  0.78178400  1
  F  F10  1  0.04381600  0.44061200  0.25374700  1
  F  F11  1  0.81373500  0.19477600  0.49083900  1
  F  F12  1  0.43713200  0.05109300  0.25165000  1
  F  F13  1  0.71915300  0.28099800  0.00160800  1
loop_
_geom_bond_atom_site_label_1
_geom_bond_atom_site_label_2
_geom_bond_distance
_geom_bond_site_symmetry_2
Fe1 O1 2.062537 1_556
Fe2 O0 2.053280 1_555
Fe4 O0 2.068619 1_555
Fe5 O1 2.045877 1_555
Fe6 O0 1.809532 1_555
Fe7 O1 1.822011 1_555
F0 Fe4 2.045686 1_565
F0 Fe0 2.112824 1_555
F0 Fe1 2.139073 1_555
F1 Fe6 2.047181 1_565
F1 Fe2 2.097240 1_555
F1 Fe0 2.186655 1_455
F2 Fe4 2.044135 1_655
F2 Fe0 2.116154 1_555
F2 Fe1 2.156453 1_555
F3 Fe7 2.108616 1_655
F3 Fe6 2.180368 1_665
F3 Fe3 2.192196 1_555
F4 Fe0 2.033141 1_555
F4 Fe3 2.113307 1_555
F4 Fe2 2.187166 1_555
F5 Fe1 2.039897 1_555
F5 Fe2 2.122757 1_555
F5 Fe4 2.152940 1_555
F6 Fe7 2.035985 1_546
F6 Fe5 2.073587 1_556
F6 Fe4 2.239234 1_555
F7 Fe5 2.046791 1_555
F7 Fe2 2.119838 1_555
F7 Fe3 2.130783 1_555
F8 Fe7 2.057838 1_655
F8 Fe1 2.122295 1_554
F8 Fe3 2.134995 1_555
F9 Fe0 2.063844 1_445
F9 Fe7 2.083984 1_546
F9 Fe4 2.185484 1_555
F10 Fe3 2.060884 1_455
F10 Fe6 2.060941 1_555
F10 Fe5 2.207493 1_555
F11 Fe6 2.040304 1_655
F11 Fe2 2.093422 1_555
F11 Fe0 2.182179 1_545
F12 Fe6 2.056461 1_555
F12 Fe3 2.059659 1_545
F12 Fe5 2.236168 1_555
F13 Fe7 2.075398 1_645
F13 Fe5 2.181603 1_555
F13 Fe1 2.213103 1_554
