# generated using pymatgen
data_LiVCrP2(HO5)2
_symmetry_space_group_name_H-M   'P 1'
_cell_length_a   5.30975000
_cell_length_b   7.36477317
_cell_length_c   10.37056378
_cell_angle_alpha   105.44666665
_cell_angle_beta   96.97977349
_cell_angle_gamma   110.16861957
_symmetry_Int_Tables_number   1
_chemical_formula_structural   LiVCrP2(HO5)2
_chemical_formula_sum   'Li2 V2 Cr2 P4 H4 O20'
_cell_volume   356.57752964
_cell_formula_units_Z   2
loop_
 _symmetry_equiv_pos_site_id
 _symmetry_equiv_pos_as_xyz
  1  'x, y, z'
loop_
 _atom_site_type_symbol
 _atom_site_label
 _atom_site_symmetry_multiplicity
 _atom_site_fract_x
 _atom_site_fract_y
 _atom_site_fract_z
 _atom_site_occupancy
  Li  Li0  1  0.34586500  0.93313000  0.78218800  1
  Li  Li1  1  0.65413500  0.06687000  0.21781200  1
  V  V0  1  0.00000000  0.00000000  0.50000000  1
  V  V1  1  0.50000000  0.50000000  0.00000000  1
  Cr  Cr0  1  0.25128700  0.25547100  0.25222800  1
  Cr  Cr1  1  0.74871300  0.74452900  0.74777200  1
  P  P0  1  0.84811700  0.20017300  0.97612000  1
  P  P1  1  0.35164700  0.70231100  0.47424300  1
  P  P2  1  0.15188300  0.79982700  0.02388000  1
  P  P3  1  0.64835300  0.29768900  0.52575700  1
  H  H0  1  0.96159000  0.90117800  0.24616000  1
  H  H1  1  0.03841000  0.09882200  0.75384000  1
  H  H2  1  0.43459800  0.40373900  0.74332100  1
  H  H3  1  0.56540200  0.59626100  0.25667900  1
  O  O0  1  0.77227100  0.52857200  0.59635500  1
  O  O1  1  0.89096400  0.69703500  0.07494700  1
  O  O2  1  0.86868000  0.21002500  0.56062500  1
  O  O3  1  0.91298100  0.23933000  0.13164900  1
  O  O4  1  0.08701900  0.76067000  0.86835100  1
  O  O5  1  0.01214500  0.96591800  0.68698400  1
  O  O6  1  0.98785500  0.03408200  0.31301600  1
  O  O7  1  0.22772900  0.47142800  0.40364500  1
  O  O8  1  0.10903600  0.30296500  0.92505300  1
  O  O9  1  0.38040200  0.72356200  0.06403900  1
  O  O10  1  0.13132000  0.78997500  0.43937500  1
  O  O11  1  0.39123600  0.19927000  0.58207900  1
  O  O12  1  0.28358700  0.03095500  0.10522900  1
  O  O13  1  0.49132900  0.46434400  0.18003400  1
  O  O14  1  0.50867100  0.53565600  0.81996600  1
  O  O15  1  0.43185700  0.76161900  0.63210100  1
  O  O16  1  0.56814300  0.23838100  0.36789900  1
  O  O17  1  0.61959800  0.27643800  0.93596100  1
  O  O18  1  0.60876400  0.80073000  0.41792100  1
  O  O19  1  0.71641300  0.96904500  0.89477100  1
loop_
_geom_bond_atom_site_label_1
_geom_bond_atom_site_label_2
_geom_bond_distance
_geom_bond_site_symmetry_2
Li0 O15 1.936439 1_555
Li0 O4 1.999987 1_555
Li0 O5 2.042021 1_555
Li0 O19 2.054894 1_555
Li0 O17 2.408974 1_565
Li1 O16 1.936439 1_555
Li1 O3 1.999987 1_555
Li1 O6 2.042021 1_555
Li1 O12 2.054894 1_555
Li1 O9 2.408974 1_545
Cr0 O7 1.966111 1_555
Cr0 O12 2.000962 1_555
Cr0 O16 2.005324 1_555
Cr0 O3 2.008040 1_455
Cr0 O13 2.011177 1_555
Cr0 O6 2.049773 1_455
Cr1 O0 1.966111 1_555
Cr1 O19 2.000962 1_555
Cr1 O15 2.005324 1_555
Cr1 O4 2.008040 1_655
Cr1 O14 2.011177 1_555
Cr1 O5 2.049773 1_655
H0 O6 0.989493 1_565
H1 O5 0.989493 1_545
H2 O14 0.989718 1_555
H3 O13 0.989718 1_555
O0 P3 1.519404 1_555
O1 P2 1.562564 1_655
O1 V1 1.987234 1_555
O2 P3 1.567990 1_555
O2 V0 1.899018 1_655
O3 P0 1.533635 1_554
O4 P2 1.533635 1_556
O5 V0 2.016787 1_565
O6 V0 2.016787 1_655
O7 P1 1.519404 1_555
O8 P0 1.562564 1_455
O8 V1 1.987234 1_556
O9 P2 1.559795 1_555
O9 V1 1.948399 1_555
O10 P1 1.567990 1_555
O10 V0 1.899018 1_565
O11 P3 1.570778 1_555
O11 V0 1.999078 1_555
O12 P2 1.539182 1_545
O13 V1 1.957215 1_555
O14 V1 1.957215 1_556
O15 P1 1.540637 1_555
O16 P3 1.540637 1_555
O17 P0 1.559795 1_555
O17 V1 1.948399 1_556
O18 P1 1.570778 1_555
O18 V0 1.999078 1_665
O19 P0 1.539182 1_565
