# generated using pymatgen
data_Li3Fe4P3H12O19
_symmetry_space_group_name_H-M   'P 1'
_cell_length_a   10.69050203
_cell_length_b   10.69050203
_cell_length_c   10.69050178
_cell_angle_alpha   60.90346357
_cell_angle_beta   60.90346357
_cell_angle_gamma   60.90346282
_symmetry_Int_Tables_number   1
_chemical_formula_structural   Li3Fe4P3H12O19
_chemical_formula_sum   'Li6 Fe8 P6 H24 O38'
_cell_volume   881.52426971
_cell_formula_units_Z   2
loop_
 _symmetry_equiv_pos_site_id
 _symmetry_equiv_pos_as_xyz
  1  'x, y, z'
loop_
 _atom_site_type_symbol
 _atom_site_label
 _atom_site_symmetry_multiplicity
 _atom_site_fract_x
 _atom_site_fract_y
 _atom_site_fract_z
 _atom_site_occupancy
  Li  Li0  1  0.67777300  0.06392000  0.94082800  1
  Li  Li1  1  0.56392000  0.17777300  0.44082800  1
  Li  Li2  1  0.94082800  0.67777300  0.06392000  1
  Li  Li3  1  0.44082800  0.56392000  0.17777300  1
  Li  Li4  1  0.17777300  0.44082800  0.56392000  1
  Li  Li5  1  0.06392000  0.94082800  0.67777300  1
  Fe  Fe0  1  0.97800000  0.00775800  0.30599200  1
  Fe  Fe1  1  0.80599200  0.50775800  0.47800000  1
  Fe  Fe2  1  0.50775800  0.47800000  0.80599200  1
  Fe  Fe3  1  0.00285700  0.00285700  0.00285700  1
  Fe  Fe4  1  0.50285700  0.50285700  0.50285700  1
  Fe  Fe5  1  0.00775800  0.30599200  0.97800000  1
  Fe  Fe6  1  0.47800000  0.80599200  0.50775800  1
  Fe  Fe7  1  0.30599200  0.97800000  0.00775800  1
  P  P0  1  0.83801900  0.30166600  0.80661400  1
  P  P1  1  0.80166600  0.33801900  0.30661400  1
  P  P2  1  0.33801900  0.30661400  0.80166600  1
  P  P3  1  0.80661400  0.83801900  0.30166600  1
  P  P4  1  0.30166600  0.80661400  0.83801900  1
  P  P5  1  0.30661400  0.80166600  0.33801900  1
  H  H0  1  0.75745000  0.00207400  0.69078100  1
  H  H1  1  0.80777300  0.14086400  0.62906000  1
  H  H2  1  0.45633800  0.03219600  0.22017700  1
  H  H3  1  0.64086400  0.30777300  0.12906000  1
  H  H4  1  0.95633800  0.72017700  0.53219600  1
  H  H5  1  0.50207400  0.25745000  0.19078100  1
  H  H6  1  0.30777300  0.12906000  0.64086400  1
  H  H7  1  0.89646600  0.59622700  0.67501200  1
  H  H8  1  0.39646600  0.17501200  0.09622700  1
  H  H9  1  0.72017700  0.53219600  0.95633800  1
  H  H10  1  0.25745000  0.19078100  0.50207400  1
  H  H11  1  0.17501200  0.09622700  0.39646600  1
  H  H12  1  0.59622700  0.67501200  0.89646600  1
  H  H13  1  0.69078100  0.75745000  0.00207400  1
  H  H14  1  0.03219600  0.22017700  0.45633800  1
  H  H15  1  0.67501200  0.89646600  0.59622700  1
  H  H16  1  0.09622700  0.39646600  0.17501200  1
  H  H17  1  0.62906000  0.80777300  0.14086400  1
  H  H18  1  0.22017700  0.45633800  0.03219600  1
  H  H19  1  0.19078100  0.50207400  0.25745000  1
  H  H20  1  0.53219600  0.95633800  0.72017700  1
  H  H21  1  0.14086400  0.62906000  0.80777300  1
  H  H22  1  0.12906000  0.64086400  0.30777300  1
  H  H23  1  0.00207400  0.69078100  0.75745000  1
  O  O0  1  0.96032900  0.14501300  0.80750700  1
  O  O1  1  0.81626500  0.03940700  0.70607700  1
  O  O2  1  0.78837500  0.18289800  0.34532600  1
  O  O3  1  0.92339400  0.38163200  0.15082700  1
  O  O4  1  0.85377500  0.32194200  0.42976600  1
  O  O5  1  0.82194200  0.35377500  0.92976600  1
  O  O6  1  0.88163200  0.42339400  0.65082700  1
  O  O7  1  0.68289800  0.28837500  0.84532600  1
  O  O8  1  0.47035500  0.13133700  0.14831000  1
  O  O9  1  0.97035500  0.64831000  0.63133700  1
  O  O10  1  0.38163200  0.15082700  0.92339400  1
  O  O11  1  0.53940700  0.31626500  0.20607700  1
  O  O12  1  0.84532600  0.68289800  0.28837500  1
  O  O13  1  0.64501300  0.46032900  0.30750700  1
  O  O14  1  0.46032900  0.30750700  0.64501300  1
  O  O15  1  0.92976600  0.82194200  0.35377500  1
  O  O16  1  0.31626500  0.20607700  0.53940700  1
  O  O17  1  0.64831000  0.63133700  0.97035500  1
  O  O18  1  0.07947600  0.07947600  0.07947600  1
  O  O19  1  0.57947600  0.57947600  0.57947600  1
  O  O20  1  0.13133700  0.14831000  0.47035500  1
  O  O21  1  0.70607700  0.81626500  0.03940700  1
  O  O22  1  0.32194200  0.42976600  0.85377500  1
  O  O23  1  0.80750700  0.96032900  0.14501300  1
  O  O24  1  0.18289800  0.34532600  0.78837500  1
  O  O25  1  0.42339400  0.65082700  0.88163200  1
  O  O26  1  0.65082700  0.88163200  0.42339400  1
  O  O27  1  0.14831000  0.47035500  0.13133700  1
  O  O28  1  0.63133700  0.97035500  0.64831000  1
  O  O29  1  0.30750700  0.64501300  0.46032900  1
  O  O30  1  0.20607700  0.53940700  0.31626500  1
  O  O31  1  0.42976600  0.85377500  0.32194200  1
  O  O32  1  0.34532600  0.78837500  0.18289800  1
  O  O33  1  0.28837500  0.84532600  0.68289800  1
  O  O34  1  0.35377500  0.92976600  0.82194200  1
  O  O35  1  0.03940700  0.70607700  0.81626500  1
  O  O36  1  0.14501300  0.80750700  0.96032900  1
  O  O37  1  0.15082700  0.92339400  0.38163200  1
loop_
_geom_bond_atom_site_label_1
_geom_bond_atom_site_label_2
_geom_bond_distance
_geom_bond_site_symmetry_2
Li0 O7 2.119900 1_555
Li0 O21 2.242572 1_546
Li0 O1 2.281981 1_555
Li0 O8 2.360772 1_556
Li0 O23 2.648452 1_546
Li1 O2 2.119900 1_555
Li1 O16 2.242572 1_555
Li1 O11 2.281981 1_555
Li1 O28 2.360772 1_545
Li1 O14 2.648452 1_555
Li2 O12 2.119899 1_555
Li2 O35 2.242572 1_654
Li2 O21 2.281981 1_555
Li2 O27 2.360772 1_655
Li2 O36 2.648452 1_654
Li3 O32 2.119900 1_555
Li3 O11 2.242572 1_555
Li3 O30 2.281981 1_555
Li3 O17 2.360772 1_554
Li3 O13 2.648452 1_555
Li4 O24 2.119899 1_555
Li4 O30 2.242572 1_555
Li4 O16 2.281981 1_555
Li4 O9 2.360772 1_455
Li4 O29 2.648452 1_555
Li5 O33 2.119900 1_555
Li5 O1 2.242572 1_465
Li5 O35 2.281981 1_555
Li5 O20 2.360772 1_565
Li5 O0 2.648452 1_465
Fe0 O37 2.001017 1_645
Fe0 O2 2.009272 1_555
Fe0 O18 2.019159 1_655
Fe0 O15 2.055728 1_545
Fe1 O6 2.001017 1_555
Fe1 O12 2.009272 1_555
Fe1 O19 2.019159 1_555
Fe1 O4 2.055728 1_555
Fe2 O25 2.001017 1_555
Fe2 O7 2.009272 1_555
Fe2 O19 2.019159 1_555
Fe2 O22 2.055728 1_555
Fe3 O18 1.992558 1_555
Fe3 O0 2.010566 1_454
Fe3 O36 2.010566 1_544
Fe3 O23 2.010566 1_445
Fe4 O19 1.992558 1_555
Fe4 O13 2.010566 1_555
Fe4 O29 2.010566 1_555
Fe4 O14 2.010566 1_555
Fe5 O3 2.001017 1_456
Fe5 O24 2.009272 1_555
Fe5 O18 2.019159 1_556
Fe5 O5 2.055728 1_455
Fe6 O26 2.001017 1_555
Fe6 O33 2.009272 1_555
Fe6 O19 2.019159 1_555
Fe6 O31 2.055728 1_555
Fe7 O10 2.001017 1_564
Fe7 O32 2.009272 1_555
Fe7 O18 2.019159 1_565
Fe7 O34 2.055728 1_554
H0 O1 0.994433 1_555
H1 O1 0.985376 1_555
H2 O8 0.993273 1_555
H3 O11 0.985376 1_555
H4 O9 0.993273 1_555
H5 O11 0.994433 1_555
H6 O16 0.985376 1_555
H7 O9 0.983969 1_555
H8 O8 0.983969 1_555
H9 O17 0.993273 1_555
H10 O16 0.994433 1_555
H11 O20 0.983969 1_555
H12 O17 0.983969 1_555
H13 O21 0.994433 1_555
H14 O20 0.993273 1_555
H15 O28 0.983969 1_555
H16 O27 0.983969 1_555
H17 O21 0.985376 1_555
H18 O27 0.993273 1_555
H19 O30 0.994433 1_555
H20 O28 0.993273 1_555
H21 O35 0.985376 1_555
H22 O30 0.985376 1_555
H23 O35 0.994433 1_555
O0 P0 1.543151 1_555
O2 P1 1.563968 1_555
O3 P1 1.552935 1_555
O4 P1 1.572672 1_555
O5 P0 1.572672 1_555
O6 P0 1.552935 1_555
O7 P0 1.563968 1_555
O10 P2 1.552935 1_555
O12 P3 1.563968 1_555
O13 P1 1.543151 1_555
O14 P2 1.543151 1_555
O15 P3 1.572672 1_555
O22 P2 1.572672 1_555
O23 P3 1.543151 1_555
O24 P2 1.563968 1_555
O25 P4 1.552935 1_555
O26 P3 1.552935 1_555
O29 P5 1.543151 1_555
O31 P5 1.572672 1_555
O32 P5 1.563968 1_555
O33 P4 1.563968 1_555
O34 P4 1.572672 1_555
O36 P4 1.543151 1_555
O37 P5 1.552935 1_555
