# generated using pymatgen
data_Mn3FeNi2(PO4)6
_symmetry_space_group_name_H-M   'P 1'
_cell_length_a   8.43798530
_cell_length_b   8.43798530
_cell_length_c   8.43798578
_cell_angle_alpha   60.98977910
_cell_angle_beta   60.98977910
_cell_angle_gamma   60.98978302
_symmetry_Int_Tables_number   1
_chemical_formula_structural   Mn3FeNi2(PO4)6
_chemical_formula_sum   'Mn3 Fe1 Ni2 P6 O24'
_cell_volume   434.28824657
_cell_formula_units_Z   1
loop_
 _symmetry_equiv_pos_site_id
 _symmetry_equiv_pos_as_xyz
  1  'x, y, z'
loop_
 _atom_site_type_symbol
 _atom_site_label
 _atom_site_symmetry_multiplicity
 _atom_site_fract_x
 _atom_site_fract_y
 _atom_site_fract_z
 _atom_site_occupancy
  Mn  Mn0  1  0.14203800  0.14203800  0.14203800  1
  Mn  Mn1  1  0.35866700  0.35866700  0.35866700  1
  Mn  Mn2  1  0.64214100  0.64214100  0.64214100  1
  Fe  Fe0  1  0.85715600  0.85715600  0.85715600  1
  Ni  Ni0  1  0.99925100  0.99925100  0.99925100  1
  Ni  Ni1  1  0.50079000  0.50079000  0.50079000  1
  P  P0  1  0.45417100  0.74935400  0.04418100  1
  P  P1  1  0.74935400  0.04418100  0.45417100  1
  P  P2  1  0.04418100  0.45417100  0.74935400  1
  P  P3  1  0.96026400  0.54237600  0.25042800  1
  P  P4  1  0.25042800  0.96026400  0.54237600  1
  P  P5  1  0.54237600  0.25042800  0.96026400  1
  O  O0  1  0.50287600  0.31673500  0.12042500  1
  O  O1  1  0.12042500  0.50287600  0.31673500  1
  O  O2  1  0.25285600  0.90883400  0.06202600  1
  O  O3  1  0.31673500  0.12042500  0.50287600  1
  O  O4  1  0.61161000  0.81283700  0.00989700  1
  O  O5  1  0.44077800  0.58466600  0.24547600  1
  O  O6  1  0.90883400  0.06202600  0.25285600  1
  O  O7  1  0.58466600  0.24547600  0.44077800  1
  O  O8  1  0.99264800  0.38501900  0.18620900  1
  O  O9  1  0.24547600  0.44077800  0.58466600  1
  O  O10  1  0.94423700  0.74222500  0.09241000  1
  O  O11  1  0.18620900  0.99264800  0.38501900  1
  O  O12  1  0.81283700  0.00989700  0.61161000  1
  O  O13  1  0.06202600  0.25285600  0.90883400  1
  O  O14  1  0.76042500  0.55317100  0.41412100  1
  O  O15  1  0.00989700  0.61161000  0.81283700  1
  O  O16  1  0.41412100  0.76042500  0.55317100  1
  O  O17  1  0.09241000  0.94423700  0.74222500  1
  O  O18  1  0.55317100  0.41412100  0.76042500  1
  O  O19  1  0.38501900  0.18620900  0.99264800  1
  O  O20  1  0.68637900  0.88576200  0.48755900  1
  O  O21  1  0.74222500  0.09241000  0.94423700  1
  O  O22  1  0.88576200  0.48755900  0.68637900  1
  O  O23  1  0.48755900  0.68637900  0.88576200  1
loop_
_geom_bond_atom_site_label_1
_geom_bond_atom_site_label_2
_geom_bond_distance
_geom_bond_site_symmetry_2
Mn0 O19 1.926199 1_554
Mn0 O8 1.926199 1_455
Mn0 O11 1.926199 1_545
Mn0 O6 2.023330 1_455
Mn0 O2 2.023330 1_545
Mn0 O13 2.023330 1_554
Mn1 O3 1.883290 1_555
Mn1 O1 1.883290 1_555
Mn1 O0 1.883290 1_555
Mn1 O5 1.975324 1_555
Mn1 O7 1.975324 1_555
Mn1 O9 1.975324 1_555
Mn2 O20 1.933334 1_555
Mn2 O22 1.933334 1_555
Mn2 O23 1.933334 1_555
Mn2 O18 2.018238 1_555
Mn2 O16 2.018238 1_555
Mn2 O14 2.018239 1_555
Fe0 O4 1.946213 1_556
Fe0 O15 1.946213 1_655
Fe0 O12 1.946213 1_565
Fe0 O17 2.068158 1_655
Fe0 O21 2.068159 1_565
Fe0 O10 2.068159 1_556
Ni0 O10 2.122738 1_556
Ni0 O21 2.122738 1_565
Ni0 O17 2.122738 1_655
Ni0 O13 2.136774 1_665
Ni0 O2 2.136774 1_656
Ni0 O6 2.136774 1_566
Ni1 O14 2.145102 1_555
Ni1 O16 2.145102 1_555
Ni1 O18 2.145102 1_555
Ni1 O9 2.151770 1_555
Ni1 O7 2.151770 1_555
Ni1 O5 2.151770 1_555
O0 P5 1.538224 1_554
O1 P3 1.538224 1_455
O2 P0 1.565368 1_555
O3 P4 1.538224 1_545
O4 P0 1.517439 1_555
O5 P0 1.582917 1_555
O6 P1 1.565368 1_555
O7 P1 1.582917 1_555
O8 P3 1.527619 1_555
O9 P2 1.582917 1_555
O10 P3 1.553271 1_555
O11 P4 1.527619 1_555
O12 P1 1.517439 1_555
O13 P2 1.565368 1_555
O14 P3 1.572739 1_555
O15 P2 1.517439 1_555
O16 P4 1.572739 1_555
O17 P4 1.553271 1_555
O18 P5 1.572739 1_555
O19 P5 1.527619 1_555
O20 P1 1.525480 1_565
O21 P5 1.553271 1_555
O22 P2 1.525480 1_655
O23 P0 1.525480 1_556
