# generated using pymatgen
data_CaGd4O7
_symmetry_space_group_name_H-M   'P 1'
_cell_length_a   7.21580000
_cell_length_b   9.20806876
_cell_length_c   11.63720192
_cell_angle_alpha   107.49542045
_cell_angle_beta   99.01404039
_cell_angle_gamma   89.94823008
_symmetry_Int_Tables_number   1
_chemical_formula_structural   CaGd4O7
_chemical_formula_sum   'Ca4 Gd16 O28'
_cell_volume   727.46510693
_cell_formula_units_Z   4
loop_
 _symmetry_equiv_pos_site_id
 _symmetry_equiv_pos_as_xyz
  1  'x, y, z'
loop_
 _atom_site_type_symbol
 _atom_site_label
 _atom_site_symmetry_multiplicity
 _atom_site_fract_x
 _atom_site_fract_y
 _atom_site_fract_z
 _atom_site_occupancy
  Ca  Ca0  1  0.28982600  0.07030000  0.16007200  1
  Ca  Ca1  1  0.11015600  0.32419500  0.43639100  1
  Ca  Ca2  1  0.88984400  0.67580500  0.56360900  1
  Ca  Ca3  1  0.71017400  0.92970000  0.83992800  1
  Gd  Gd0  1  0.01920900  0.71744200  0.07088800  1
  Gd  Gd1  1  0.51606500  0.71588700  0.06978200  1
  Gd  Gd2  1  0.81230900  0.49931700  0.24055000  1
  Gd  Gd3  1  0.30860500  0.49624200  0.23942100  1
  Gd  Gd4  1  0.78910000  0.06550100  0.15546800  1
  Gd  Gd5  1  0.09273700  0.86988800  0.37543500  1
  Gd  Gd6  1  0.59423800  0.86927900  0.37318200  1
  Gd  Gd7  1  0.60885800  0.32629200  0.43745400  1
  Gd  Gd8  1  0.39114200  0.67370800  0.56254600  1
  Gd  Gd9  1  0.40576200  0.13072100  0.62681800  1
  Gd  Gd10  1  0.90726300  0.13011200  0.62456500  1
  Gd  Gd11  1  0.21090000  0.93449900  0.84453200  1
  Gd  Gd12  1  0.18769100  0.50068300  0.75945000  1
  Gd  Gd13  1  0.69139500  0.50375800  0.76057900  1
  Gd  Gd14  1  0.98079100  0.28255800  0.92911200  1
  Gd  Gd15  1  0.48393500  0.28411300  0.93021800  1
  O  O0  1  0.25050800  0.17703600  0.00061700  1
  O  O1  1  0.75202300  0.18101500  0.00649100  1
  O  O2  1  0.05000400  0.97545500  0.21688400  1
  O  O3  1  0.55925100  0.97842600  0.21846300  1
  O  O4  1  0.02681500  0.47455700  0.11443100  1
  O  O5  1  0.53085400  0.47543500  0.11506900  1
  O  O6  1  0.80620300  0.73759900  0.23024900  1
  O  O7  1  0.30874300  0.73771900  0.22723600  1
  O  O8  1  0.33459800  0.29386300  0.31216800  1
  O  O9  1  0.82191900  0.29064600  0.30945200  1
  O  O10  1  0.10795900  0.58735000  0.39902500  1
  O  O11  1  0.59290800  0.58003500  0.40248300  1
  O  O12  1  0.87262100  0.88363300  0.49778500  1
  O  O13  1  0.37745800  0.88107800  0.50070000  1
  O  O14  1  0.62254200  0.11892200  0.49930000  1
  O  O15  1  0.12737900  0.11636700  0.50221500  1
  O  O16  1  0.89204100  0.41265000  0.60097500  1
  O  O17  1  0.40709200  0.41996500  0.59751700  1
  O  O18  1  0.17808100  0.70935400  0.69054800  1
  O  O19  1  0.66540200  0.70613700  0.68783200  1
  O  O20  1  0.69125700  0.26228100  0.77276400  1
  O  O21  1  0.19379700  0.26240100  0.76975100  1
  O  O22  1  0.97318500  0.52544300  0.88556900  1
  O  O23  1  0.46914600  0.52456500  0.88493100  1
  O  O24  1  0.94999600  0.02454400  0.78311600  1
  O  O25  1  0.44074900  0.02157400  0.78153700  1
  O  O26  1  0.74949200  0.82296400  0.99938300  1
  O  O27  1  0.24797700  0.81898500  0.99350900  1
loop_
_geom_bond_atom_site_label_1
_geom_bond_atom_site_label_2
_geom_bond_distance
_geom_bond_site_symmetry_2
Ca0 O3 2.210366 1_545
Ca0 O2 2.214243 1_545
Ca0 O8 2.259688 1_555
Ca0 O0 2.328265 1_555
Ca0 O27 2.514828 1_544
Ca1 O15 2.261762 1_555
Ca1 O8 2.297979 1_555
Ca1 O9 2.316776 1_455
Ca1 O17 2.575786 1_555
Ca1 O10 2.586945 1_555
Ca1 O16 2.610201 1_455
Ca2 O12 2.261762 1_555
Ca2 O19 2.297979 1_555
Ca2 O18 2.316776 1_655
Ca2 O11 2.575786 1_555
Ca2 O16 2.586945 1_555
Ca2 O10 2.610201 1_655
Ca3 O25 2.210366 1_565
Ca3 O24 2.214239 1_565
Ca3 O19 2.259688 1_555
Ca3 O26 2.328265 1_555
Ca3 O1 2.514828 1_566
Gd0 O22 2.317542 1_454
Gd0 O27 2.320533 1_554
Gd0 O26 2.323697 1_454
Gd0 O4 2.436016 1_555
Gd0 O2 2.456839 1_555
Gd0 O7 2.513052 1_555
Gd0 O6 2.553778 1_455
Gd1 O23 2.310833 1_554
Gd1 O27 2.323043 1_554
Gd1 O26 2.324103 1_554
Gd1 O5 2.423819 1_555
Gd1 O3 2.500494 1_555
Gd1 O7 2.504546 1_555
Gd1 O6 2.541928 1_555
Gd2 O6 2.233109 1_555
Gd2 O4 2.260939 1_655
Gd2 O5 2.276789 1_555
Gd2 O9 2.290941 1_555
Gd2 O10 2.545745 1_655
Gd2 O11 2.588538 1_555
Gd3 O8 2.263345 1_555
Gd3 O7 2.270209 1_555
Gd3 O4 2.278016 1_555
Gd3 O5 2.294047 1_555
Gd3 O10 2.480582 1_555
Gd3 O11 2.511455 1_555
Gd4 O3 2.160523 1_545
Gd4 O2 2.162050 1_645
Gd4 O1 2.274088 1_555
Gd4 O9 2.280208 1_555
Gd4 O26 2.401672 1_544
Gd5 O12 2.272866 1_455
Gd5 O15 2.293994 1_565
Gd5 O13 2.308278 1_555
Gd5 O2 2.311693 1_555
Gd5 O6 2.507143 1_455
Gd5 O7 2.542003 1_555
Gd5 O10 2.697287 1_555
Gd6 O12 2.264439 1_555
Gd6 O3 2.293629 1_555
Gd6 O13 2.300195 1_555
Gd6 O14 2.314804 1_565
Gd6 O6 2.481424 1_555
Gd6 O7 2.503412 1_555
Gd6 O11 2.785150 1_555
Gd7 O8 2.228564 1_555
Gd7 O14 2.231038 1_555
Gd7 O9 2.261181 1_555
Gd7 O11 2.488890 1_555
Gd7 O17 2.492937 1_555
Gd7 O16 2.510692 1_555
Gd8 O19 2.228564 1_555
Gd8 O13 2.231038 1_555
Gd8 O18 2.261181 1_555
Gd8 O17 2.488890 1_555
Gd8 O11 2.492937 1_555
Gd8 O10 2.510692 1_555
Gd9 O15 2.264439 1_555
Gd9 O25 2.293629 1_555
Gd9 O14 2.300195 1_555
Gd9 O13 2.314804 1_545
Gd9 O21 2.481424 1_555
Gd9 O20 2.503412 1_555
Gd9 O17 2.785150 1_555
Gd10 O15 2.272866 1_655
Gd10 O12 2.293994 1_545
Gd10 O14 2.308278 1_555
Gd10 O24 2.311699 1_555
Gd10 O21 2.507143 1_655
Gd10 O20 2.542003 1_555
Gd10 O16 2.697287 1_555
Gd11 O25 2.160523 1_565
Gd11 O24 2.162045 1_465
Gd11 O27 2.274088 1_555
Gd11 O18 2.280208 1_555
Gd11 O0 2.401672 1_566
Gd12 O21 2.233109 1_555
Gd12 O22 2.260939 1_455
Gd12 O23 2.276789 1_555
Gd12 O18 2.290941 1_555
Gd12 O16 2.545745 1_455
Gd12 O17 2.588538 1_555
Gd13 O19 2.263345 1_555
Gd13 O20 2.270209 1_555
Gd13 O22 2.278016 1_555
Gd13 O23 2.294047 1_555
Gd13 O16 2.480582 1_555
Gd13 O17 2.511455 1_555
Gd14 O4 2.317542 1_656
Gd14 O1 2.320533 1_556
Gd14 O0 2.323697 1_656
Gd14 O22 2.436016 1_555
Gd14 O24 2.456846 1_555
Gd14 O20 2.513052 1_555
Gd14 O21 2.553778 1_655
Gd15 O5 2.310833 1_556
Gd15 O1 2.323043 1_556
Gd15 O0 2.324103 1_556
Gd15 O23 2.423819 1_555
Gd15 O25 2.500494 1_555
Gd15 O20 2.504546 1_555
Gd15 O21 2.541928 1_555
