# generated using pymatgen
data_Sb2(SO4)3
_symmetry_space_group_name_H-M   'P 1'
_cell_length_a   9.30824409
_cell_length_b   9.30824409
_cell_length_c   9.30824449
_cell_angle_alpha   59.96523982
_cell_angle_beta   59.96523982
_cell_angle_gamma   59.96524614
_symmetry_Int_Tables_number   1
_chemical_formula_structural   Sb2(SO4)3
_chemical_formula_sum   'Sb4 S6 O24'
_cell_volume   569.83071380
_cell_formula_units_Z   2
loop_
 _symmetry_equiv_pos_site_id
 _symmetry_equiv_pos_as_xyz
  1  'x, y, z'
loop_
 _atom_site_type_symbol
 _atom_site_label
 _atom_site_symmetry_multiplicity
 _atom_site_fract_x
 _atom_site_fract_y
 _atom_site_fract_z
 _atom_site_occupancy
  Sb  Sb0  1  0.86129100  0.86129100  0.86129100  1
  Sb  Sb1  1  0.63870900  0.63870900  0.63870900  1
  Sb  Sb2  1  0.13870900  0.13870900  0.13870900  1
  Sb  Sb3  1  0.36129100  0.36129100  0.36129100  1
  S  S0  1  0.25000000  0.54527700  0.95472300  1
  S  S1  1  0.45472300  0.04527700  0.75000000  1
  S  S2  1  0.04527700  0.75000000  0.45472300  1
  S  S3  1  0.95472300  0.25000000  0.54527700  1
  S  S4  1  0.54527700  0.95472300  0.25000000  1
  S  S5  1  0.75000000  0.45472300  0.04527700  1
  O  O0  1  0.39760200  0.55951300  0.78173000  1
  O  O1  1  0.21827000  0.60239800  0.44048700  1
  O  O2  1  0.40509900  0.99214500  0.19132900  1
  O  O3  1  0.50785500  0.09490100  0.30867100  1
  O  O4  1  0.10239800  0.71827000  0.94048700  1
  O  O5  1  0.28173000  0.05951300  0.89760200  1
  O  O6  1  0.44048700  0.21827000  0.60239800  1
  O  O7  1  0.69132900  0.49214500  0.90509900  1
  O  O8  1  0.00785500  0.80867100  0.59490100  1
  O  O9  1  0.80867100  0.59490100  0.00785500  1
  O  O10  1  0.90509900  0.69132900  0.49214500  1
  O  O11  1  0.05951300  0.89760200  0.28173000  1
  O  O12  1  0.94048700  0.10239800  0.71827000  1
  O  O13  1  0.19132900  0.40509900  0.99214500  1
  O  O14  1  0.09490100  0.30867100  0.50785500  1
  O  O15  1  0.30867100  0.50785500  0.09490100  1
  O  O16  1  0.99214500  0.19132900  0.40509900  1
  O  O17  1  0.55951300  0.78173000  0.39760200  1
  O  O18  1  0.71827000  0.94048700  0.10239800  1
  O  O19  1  0.89760200  0.28173000  0.05951300  1
  O  O20  1  0.59490100  0.00785500  0.80867100  1
  O  O21  1  0.49214500  0.90509900  0.69132900  1
  O  O22  1  0.78173000  0.39760200  0.55951300  1
  O  O23  1  0.60239800  0.44048700  0.21827000  1
loop_
_geom_bond_atom_site_label_1
_geom_bond_atom_site_label_2
_geom_bond_distance
_geom_bond_site_symmetry_2
O0 S0 1.500702 1_555
O0 Sb1 2.243966 1_555
O1 S2 1.500702 1_555
O1 Sb3 2.243966 1_555
O2 S4 1.479877 1_555
O2 Sb2 2.325966 1_565
O3 S4 1.479877 1_545
O3 Sb3 2.325966 1_555
O4 S0 1.500702 1_555
O4 Sb0 2.243966 1_455
O5 S1 1.500702 1_555
O5 Sb2 2.243966 1_556
O6 S1 1.500702 1_555
O6 Sb3 2.243966 1_555
O7 S5 1.479877 1_556
O7 Sb1 2.325966 1_555
O8 S2 1.479877 1_555
O8 Sb0 2.325966 1_455
O9 S5 1.479877 1_555
O9 Sb0 2.325965 1_554
O10 S2 1.479877 1_655
O10 Sb1 2.325965 1_555
O11 S2 1.500702 1_555
O11 Sb2 2.243966 1_565
O12 S3 1.500702 1_555
O12 Sb0 2.243966 1_545
O13 S0 1.479877 1_555
O13 Sb2 2.325965 1_556
O14 S3 1.479877 1_455
O14 Sb3 2.325965 1_555
O15 S0 1.479877 1_554
O15 Sb3 2.325966 1_555
O16 S3 1.479877 1_555
O16 Sb2 2.325966 1_655
O17 S4 1.500702 1_555
O17 Sb1 2.243966 1_555
O18 S4 1.500702 1_555
O18 Sb0 2.243966 1_554
O19 S5 1.500702 1_555
O19 Sb2 2.243966 1_655
O20 S1 1.479877 1_555
O20 Sb0 2.325966 1_545
O21 S1 1.479877 1_565
O21 Sb1 2.325966 1_555
O22 S3 1.500702 1_555
O22 Sb1 2.243966 1_555
O23 S5 1.500702 1_555
O23 Sb3 2.243966 1_555
