# generated using pymatgen
data_ZnH20S2(NO7)2
_symmetry_space_group_name_H-M   'P 1'
_cell_length_a   13.01314500
_cell_length_b   6.52520600
_cell_length_c   9.56305674
_cell_angle_alpha   69.55024896
_cell_angle_beta   90.00000000
_cell_angle_gamma   90.00000000
_symmetry_Int_Tables_number   1
_chemical_formula_structural   ZnH20S2(NO7)2
_chemical_formula_sum   'Zn2 H40 S4 N4 O28'
_cell_volume   760.85705027
_cell_formula_units_Z   2
loop_
 _symmetry_equiv_pos_site_id
 _symmetry_equiv_pos_as_xyz
  1  'x, y, z'
loop_
 _atom_site_type_symbol
 _atom_site_label
 _atom_site_symmetry_multiplicity
 _atom_site_fract_x
 _atom_site_fract_y
 _atom_site_fract_z
 _atom_site_occupancy
  Zn  Zn0  1  0.50000000  0.00000000  0.50000000  1
  Zn  Zn1  1  0.00000000  0.00000000  0.00000000  1
  H  H0  1  0.18773300  0.80709200  0.56798900  1
  H  H1  1  0.68773300  0.19290800  0.93201100  1
  H  H2  1  0.81226700  0.19290800  0.43201100  1
  H  H3  1  0.31226700  0.80709200  0.06798900  1
  H  H4  1  0.20575600  0.59852200  0.74773600  1
  H  H5  1  0.70575600  0.40147800  0.75226400  1
  H  H6  1  0.79424400  0.40147800  0.25226400  1
  H  H7  1  0.29424400  0.59852200  0.24773600  1
  H  H8  1  0.01653300  0.45570700  0.52579600  1
  H  H9  1  0.51653300  0.54429300  0.97420400  1
  H  H10  1  0.98346700  0.54429300  0.47420400  1
  H  H11  1  0.48346700  0.45570700  0.02579600  1
  H  H12  1  0.07990000  0.68050800  0.67395600  1
  H  H13  1  0.57990000  0.31949200  0.82604400  1
  H  H14  1  0.92010000  0.31949200  0.32604400  1
  H  H15  1  0.42010000  0.68050800  0.17395600  1
  H  H16  1  0.41368500  0.66666100  0.72500400  1
  H  H17  1  0.91368500  0.33333900  0.77499600  1
  H  H18  1  0.58631500  0.33333900  0.27499600  1
  H  H19  1  0.08631500  0.66666100  0.22500400  1
  H  H20  1  0.37742100  0.89089300  0.74598900  1
  H  H21  1  0.87742100  0.10910700  0.75401100  1
  H  H22  1  0.62257900  0.10910700  0.25401100  1
  H  H23  1  0.12257900  0.89089300  0.24598900  1
  H  H24  1  0.40203300  0.04469700  0.23445900  1
  H  H25  1  0.90203300  0.95530300  0.26554100  1
  H  H26  1  0.59796700  0.95530300  0.76554100  1
  H  H27  1  0.09796700  0.04469700  0.73445900  1
  H  H28  1  0.31639000  0.00199100  0.35675400  1
  H  H29  1  0.81639000  0.99800900  0.14324600  1
  H  H30  1  0.68361000  0.99800900  0.64324600  1
  H  H31  1  0.18361000  0.00199100  0.85675400  1
  H  H32  1  0.56418400  0.68552200  0.39979300  1
  H  H33  1  0.06418400  0.31447800  0.10020700  1
  H  H34  1  0.43581600  0.31447800  0.60020700  1
  H  H35  1  0.93581600  0.68552200  0.89979300  1
  H  H36  1  0.64262400  0.69409100  0.52440400  1
  H  H37  1  0.14262400  0.30590900  0.97559600  1
  H  H38  1  0.35737600  0.30590900  0.47559600  1
  H  H39  1  0.85737600  0.69409100  0.02440400  1
  S  S0  1  0.35204500  0.22785200  0.89457000  1
  S  S1  1  0.85204500  0.77214800  0.60543000  1
  S  S2  1  0.64795500  0.77214800  0.10543000  1
  S  S3  1  0.14795500  0.22785200  0.39457000  1
  N  N0  1  0.15836000  0.70118000  0.66580300  1
  N  N1  1  0.65836000  0.29882000  0.83419700  1
  N  N2  1  0.84164000  0.29882000  0.33419700  1
  N  N3  1  0.34164000  0.70118000  0.16580300  1
  O  O0  1  0.26543600  0.37577100  0.89833900  1
  O  O1  1  0.76543600  0.62422900  0.60166100  1
  O  O2  1  0.73456400  0.62422900  0.10166100  1
  O  O3  1  0.23456400  0.37577100  0.39833900  1
  O  O4  1  0.40292400  0.13824900  0.04192200  1
  O  O5  1  0.90292400  0.86175100  0.45807800  1
  O  O6  1  0.59707600  0.86175100  0.95807800  1
  O  O7  1  0.09707600  0.13824900  0.54192200  1
  O  O8  1  0.42824800  0.35347600  0.77899800  1
  O  O9  1  0.92824800  0.64652400  0.72100200  1
  O  O10  1  0.57175200  0.64652400  0.22100200  1
  O  O11  1  0.07175200  0.35347600  0.27899800  1
  O  O12  1  0.31128900  0.03792300  0.85588800  1
  O  O13  1  0.81128900  0.96207700  0.64411200  1
  O  O14  1  0.68871100  0.96207700  0.14411200  1
  O  O15  1  0.18871100  0.03792300  0.35588800  1
  O  O16  1  0.39793200  0.82233800  0.67274800  1
  O  O17  1  0.89793200  0.17766200  0.82725200  1
  O  O18  1  0.60206800  0.17766200  0.32725200  1
  O  O19  1  0.10206800  0.82233800  0.17274800  1
  O  O20  1  0.39038700  0.97240900  0.34305100  1
  O  O21  1  0.89038700  0.02759100  0.15694900  1
  O  O22  1  0.60961300  0.02759100  0.65694900  1
  O  O23  1  0.10961300  0.97240900  0.84305100  1
  O  O24  1  0.56889600  0.71135100  0.49557700  1
  O  O25  1  0.06889600  0.28864900  0.00442300  1
  O  O26  1  0.43110400  0.28864900  0.50442300  1
  O  O27  1  0.93110400  0.71135100  0.99557700  1
loop_
_geom_bond_atom_site_label_1
_geom_bond_atom_site_label_2
_geom_bond_distance
_geom_bond_site_symmetry_2
H0 N0 1.023216 1_555
H1 N1 1.023216 1_555
H2 N2 1.023216 1_555
H3 N3 1.023216 1_555
H4 N0 1.037443 1_555
H5 N1 1.037443 1_555
H6 N2 1.037443 1_555
H7 N3 1.037443 1_555
H10 H8 0.750614 1_655
H11 H9 0.750614 1_554
H12 N0 1.029266 1_555
H13 N1 1.029266 1_555
H14 N2 1.029266 1_555
H15 N3 1.029266 1_555
H16 O16 0.984342 1_555
H17 O17 0.984342 1_555
H18 O18 0.984342 1_555
H19 O19 0.984342 1_555
H20 O16 0.990384 1_555
H21 O17 0.990384 1_555
H22 O18 0.990384 1_555
H23 O19 0.990384 1_555
H24 O20 0.990757 1_545
H25 O21 0.990757 1_565
H26 O22 0.990757 1_565
H27 O23 0.990757 1_545
H28 O20 0.999674 1_545
H28 O15 1.677583 1_555
H29 O21 0.999674 1_565
H29 O14 1.677583 1_555
H30 O22 0.999674 1_565
H30 O13 1.677583 1_555
H31 O23 0.999674 1_545
H31 O12 1.677583 1_555
H32 O24 0.989483 1_555
H33 O25 0.989483 1_555
H34 O26 0.989483 1_555
H35 O27 0.989483 1_555
H36 O24 0.993729 1_555
H37 O25 0.993729 1_556
H38 O26 0.993729 1_555
H39 O27 0.993729 1_554
O0 S0 1.492474 1_555
O1 S1 1.492474 1_555
O2 S2 1.492474 1_555
O3 S3 1.492474 1_555
O4 S0 1.479923 1_554
O5 S1 1.479923 1_555
O6 S2 1.479923 1_556
O7 S3 1.479923 1_555
O8 S0 1.497912 1_555
O9 S1 1.497912 1_555
O10 S2 1.497912 1_555
O11 S3 1.497912 1_555
O12 S0 1.508113 1_555
O13 S1 1.508113 1_555
O14 S2 1.508113 1_555
O15 S3 1.508113 1_555
O16 Zn0 2.121079 1_565
O17 Zn1 2.121079 1_656
O18 Zn0 2.121079 1_555
O19 Zn1 2.121079 1_565
O20 Zn0 2.123351 1_565
O21 Zn1 2.123351 1_655
O22 Zn0 2.123351 1_555
O23 Zn1 2.123351 1_566
O24 Zn0 2.099718 1_565
O25 Zn1 2.099718 1_555
O26 Zn0 2.099718 1_555
O27 Zn1 2.099718 1_666
