# generated using pymatgen
data_Li4Ti2Mn3V3O16
_symmetry_space_group_name_H-M   'P 1'
_cell_length_a   5.88400600
_cell_length_b   6.01595166
_cell_length_c   9.61469343
_cell_angle_alpha   92.80210887
_cell_angle_beta   89.66836330
_cell_angle_gamma   119.06001472
_symmetry_Int_Tables_number   1
_chemical_formula_structural   Li4Ti2Mn3V3O16
_chemical_formula_sum   'Li4 Ti2 Mn3 V3 O16'
_cell_volume   297.07644180
_cell_formula_units_Z   1
loop_
 _symmetry_equiv_pos_site_id
 _symmetry_equiv_pos_as_xyz
  1  'x, y, z'
loop_
 _atom_site_type_symbol
 _atom_site_label
 _atom_site_symmetry_multiplicity
 _atom_site_fract_x
 _atom_site_fract_y
 _atom_site_fract_z
 _atom_site_occupancy
  Li  Li0  1  0.34678500  0.68724300  0.09900000  1
  Li  Li1  1  0.99483000  0.99366400  0.00955100  1
  Li  Li2  1  0.99926500  0.99773300  0.50793700  1
  Li  Li3  1  0.66326000  0.32717500  0.59897800  1
  Ti  Ti0  1  0.34231700  0.68153500  0.50174200  1
  Ti  Ti1  1  0.65307600  0.32363000  0.00411700  1
  Mn  Mn0  1  0.16493900  0.33299600  0.79343300  1
  Mn  Mn1  1  0.34274900  0.18109000  0.28969000  1
  Mn  Mn2  1  0.83433800  0.17584800  0.29115900  1
  V  V0  1  0.15524600  0.80565600  0.77950400  1
  V  V1  1  0.65165100  0.80922000  0.78086500  1
  V  V2  1  0.83657800  0.65632400  0.27319800  1
  O  O0  1  0.15817900  0.81114900  0.40653000  1
  O  O1  1  0.47739100  0.95470000  0.65870400  1
  O  O2  1  0.34827200  0.70061300  0.89665700  1
  O  O3  1  0.98970700  0.97848300  0.69516300  1
  O  O4  1  0.99780400  0.99688600  0.19983100  1
  O  O5  1  0.65632800  0.80983000  0.40522100  1
  O  O6  1  0.03666000  0.53472800  0.65553200  1
  O  O7  1  0.49982400  0.53666700  0.65682900  1
  O  O8  1  0.82983200  0.65985200  0.89610600  1
  O  O9  1  0.16303500  0.32672400  0.41121000  1
  O  O10  1  0.53671400  0.50314200  0.14926500  1
  O  O11  1  0.97142900  0.50936100  0.15383700  1
  O  O12  1  0.67600700  0.35357800  0.39078100  1
  O  O13  1  0.33306600  0.14756500  0.91130800  1
  O  O14  1  0.52854900  0.05737900  0.16347300  1
  O  O15  1  0.81186600  0.14722900  0.91254200  1
loop_
_geom_bond_atom_site_label_1
_geom_bond_atom_site_label_2
_geom_bond_distance
_geom_bond_site_symmetry_2
Li0 O2 1.950847 1_554
Li0 O10 1.992509 1_555
Li0 O14 2.011368 1_565
Li0 O11 2.011650 1_455
Li1 O4 1.828734 1_555
Li1 O15 1.986067 1_564
Li1 O13 1.995993 1_664
Li1 O8 2.017229 1_554
Li2 O3 1.808284 1_555
Li2 O0 1.996736 1_655
Li2 O5 2.005714 1_555
Li2 O9 2.006869 1_665
Li3 O7 1.981199 1_555
Li3 O6 1.991068 1_655
Li3 O12 2.013861 1_555
Li3 O1 2.069986 1_545
Mn0 O3 2.045094 1_445
Mn0 O2 2.126004 1_555
Mn0 O13 2.171673 1_555
Mn0 O15 2.172215 1_455
Mn0 O6 2.204381 1_555
Mn0 O7 2.211564 1_555
Mn1 O12 1.952779 1_555
Mn1 O4 1.958491 1_445
Mn1 O14 1.976994 1_555
Mn1 O9 2.009103 1_555
Mn1 O10 2.229125 1_555
Mn1 O0 2.297133 1_545
Mn2 O4 1.938829 1_545
Mn2 O12 1.945710 1_555
Mn2 O14 1.986641 1_555
Mn2 O9 2.028492 1_655
Mn2 O11 2.256980 1_555
Mn2 O5 2.265090 1_545
O0 Ti0 1.876680 1_555
O0 V2 2.071440 1_455
O1 Ti0 2.027897 1_555
O1 V0 2.042339 1_555
O1 V1 2.045256 1_555
O2 V0 1.933831 1_555
O2 V1 1.941122 1_555
O3 V0 1.939773 1_655
O3 V1 1.941104 1_555
O4 V2 1.959738 1_555
O5 Ti0 1.880308 1_555
O5 V2 2.100056 1_555
O6 V0 1.810811 1_555
O6 Ti0 2.180552 1_555
O7 V1 1.818507 1_555
O7 Ti0 2.183934 1_555
O8 V0 2.032780 1_655
O8 V1 2.039687 1_555
O8 Ti1 2.097783 1_556
O9 Ti0 2.016983 1_555
O10 V2 1.928635 1_555
O10 Ti1 2.035311 1_555
O11 V2 1.816600 1_555
O11 Ti1 2.161066 1_555
O12 V2 2.001299 1_555
O13 Ti1 1.858276 1_556
O13 V0 2.145073 1_545
O14 Ti1 2.129983 1_555
O15 Ti1 1.907013 1_556
O15 V1 2.127518 1_545
