# generated using pymatgen
data_LiP3W2O13
_symmetry_space_group_name_H-M   'P 1'
_cell_length_a   22.63665400
_cell_length_b   6.48691900
_cell_length_c   8.83175271
_cell_angle_alpha   52.71920938
_cell_angle_beta   90.00000000
_cell_angle_gamma   90.00000000
_symmetry_Int_Tables_number   1
_chemical_formula_structural   LiP3W2O13
_chemical_formula_sum   'Li4 P12 W8 O52'
_cell_volume   1031.89188274
_cell_formula_units_Z   4
loop_
 _symmetry_equiv_pos_site_id
 _symmetry_equiv_pos_as_xyz
  1  'x, y, z'
loop_
 _atom_site_type_symbol
 _atom_site_label
 _atom_site_symmetry_multiplicity
 _atom_site_fract_x
 _atom_site_fract_y
 _atom_site_fract_z
 _atom_site_occupancy
  Li  Li0  1  0.15039100  0.97533900  0.28990600  1
  Li  Li1  1  0.65039100  0.02466100  0.21009400  1
  Li  Li2  1  0.34960900  0.97533900  0.78990600  1
  Li  Li3  1  0.84960900  0.02466100  0.71009400  1
  P  P0  1  0.41603100  0.53621300  0.84609500  1
  P  P1  1  0.70417700  0.64287400  0.58024700  1
  P  P2  1  0.20417700  0.35712600  0.91975300  1
  P  P3  1  0.90064200  0.98021900  0.30076100  1
  P  P4  1  0.91603100  0.46378700  0.65390500  1
  P  P5  1  0.40064200  0.01978100  0.19923900  1
  P  P6  1  0.59935800  0.98021900  0.80076100  1
  P  P7  1  0.08396900  0.53621300  0.34609500  1
  P  P8  1  0.09935800  0.01978100  0.69923900  1
  P  P9  1  0.79582300  0.64287400  0.08024700  1
  P  P10  1  0.29582300  0.35712600  0.41975300  1
  P  P11  1  0.58396900  0.46378700  0.15390500  1
  W  W0  1  0.29197000  0.74511700  0.54237900  1
  W  W1  1  0.56479500  0.55543400  0.72190400  1
  W  W2  1  0.06479500  0.44456600  0.77809600  1
  W  W3  1  0.79197000  0.25488300  0.95762100  1
  W  W4  1  0.20803000  0.74511700  0.04237900  1
  W  W5  1  0.93520500  0.55543400  0.22190400  1
  W  W6  1  0.43520500  0.44456600  0.27809600  1
  W  W7  1  0.70803000  0.25488300  0.45762100  1
  O  O0  1  0.19204900  0.41840900  0.06262900  1
  O  O1  1  0.37507000  0.68761700  0.67396800  1
  O  O2  1  0.93389400  0.18895800  0.29509300  1
  O  O3  1  0.58457900  0.35400500  0.04117000  1
  O  O4  1  0.88766100  0.75391400  0.52245300  1
  O  O5  1  0.44066600  0.13260700  0.27194600  1
  O  O6  1  0.26273600  0.48525000  0.81720800  1
  O  O7  1  0.65525500  0.54527600  0.73033300  1
  O  O8  1  0.47701200  0.50361900  0.78989700  1
  O  O9  1  0.70564800  0.94278500  0.44561200  1
  O  O10  1  0.06358700  0.26213700  0.02562100  1
  O  O11  1  0.97701200  0.49638100  0.71010300  1
  O  O12  1  0.15525500  0.45472400  0.76966700  1
  O  O13  1  0.76273600  0.51475000  0.68279200  1
  O  O14  1  0.72099000  0.16235100  0.05854500  1
  O  O15  1  0.38766100  0.24608600  0.97754700  1
  O  O16  1  0.83963200  0.06110800  0.20764800  1
  O  O17  1  0.33963200  0.93889200  0.29235200  1
  O  O18  1  0.87507000  0.31238300  0.82603200  1
  O  O19  1  0.22099000  0.83764900  0.44145500  1
  O  O20  1  0.56358700  0.73786300  0.47437900  1
  O  O21  1  0.20564800  0.05721500  0.05438800  1
  O  O22  1  0.30795100  0.41840900  0.56262900  1
  O  O23  1  0.94066600  0.86739300  0.22805400  1
  O  O24  1  0.56610600  0.18895800  0.79509300  1
  O  O25  1  0.08457900  0.64599500  0.45883000  1
  O  O26  1  0.91542100  0.35400500  0.54117000  1
  O  O27  1  0.43389400  0.81104200  0.20490700  1
  O  O28  1  0.05933400  0.13260700  0.77194600  1
  O  O29  1  0.69204900  0.58159100  0.43737100  1
  O  O30  1  0.79435200  0.94278500  0.94561200  1
  O  O31  1  0.43641300  0.26213700  0.52562100  1
  O  O32  1  0.77901000  0.16235100  0.55854500  1
  O  O33  1  0.12493000  0.68761700  0.17396800  1
  O  O34  1  0.66036800  0.06110800  0.70764800  1
  O  O35  1  0.16036800  0.93889200  0.79235200  1
  O  O36  1  0.61233900  0.75391400  0.02245300  1
  O  O37  1  0.27901000  0.83764900  0.94145500  1
  O  O38  1  0.23726400  0.48525000  0.31720800  1
  O  O39  1  0.84474500  0.54527600  0.23033300  1
  O  O40  1  0.02298800  0.50361900  0.28989700  1
  O  O41  1  0.93641300  0.73786300  0.97437900  1
  O  O42  1  0.29435200  0.05721500  0.55438800  1
  O  O43  1  0.52298800  0.49638100  0.21010300  1
  O  O44  1  0.34474500  0.45472400  0.26966700  1
  O  O45  1  0.73726400  0.51475000  0.18279200  1
  O  O46  1  0.55933400  0.86739300  0.72805400  1
  O  O47  1  0.11233900  0.24608600  0.47754700  1
  O  O48  1  0.41542100  0.64599500  0.95883000  1
  O  O49  1  0.06610600  0.81104200  0.70490700  1
  O  O50  1  0.62493000  0.31238300  0.32603200  1
  O  O51  1  0.80795100  0.58159100  0.93737100  1
loop_
_geom_bond_atom_site_label_1
_geom_bond_atom_site_label_2
_geom_bond_distance
_geom_bond_site_symmetry_2
Li0 O19 1.922228 1_555
Li0 O21 2.198836 1_565
Li0 O25 2.268966 1_555
Li0 O0 2.487988 1_565
Li1 O14 1.922228 1_555
Li1 O9 2.198836 1_545
Li1 O3 2.268966 1_555
Li1 O29 2.487988 1_545
Li2 O37 1.922228 1_555
Li2 O42 2.198836 1_565
Li2 O48 2.268966 1_555
Li2 O22 2.487988 1_565
Li3 O32 1.922228 1_555
Li3 O30 2.198836 1_545
Li3 O26 2.268966 1_555
Li3 O51 2.487988 1_545
O0 P2 1.559923 1_554
O0 W4 2.048227 1_555
O1 P0 1.525309 1_555
O1 W0 2.122066 1_555
O2 P3 1.523313 1_545
O2 W5 2.051507 1_555
O3 P11 1.535457 1_555
O3 W1 2.322740 1_554
O4 P3 1.610245 1_555
O4 P4 1.629519 1_555
O5 P5 1.529116 1_555
O5 W6 2.060718 1_555
O6 P2 1.535016 1_555
O6 W0 2.052859 1_555
O7 P1 1.538699 1_555
O7 W1 2.048674 1_555
O8 P0 1.524367 1_555
O8 W1 2.043937 1_555
O9 P1 1.548382 1_555
O9 W7 2.091197 1_565
O10 W2 1.745312 1_554
O11 P4 1.524367 1_555
O11 W2 2.043937 1_655
O12 P2 1.538699 1_555
O12 W2 2.048674 1_555
O13 P1 1.535016 1_555
O13 W3 2.052859 1_555
O14 W3 1.757348 1_554
O15 P5 1.610245 1_556
O15 P0 1.629519 1_555
O16 P3 1.528458 1_545
O16 W3 2.063385 1_554
O17 P5 1.528458 1_565
O17 W0 2.063385 1_555
O18 P4 1.525309 1_555
O18 W3 2.122066 1_555
O19 W0 1.757348 1_555
O20 W1 1.745312 1_555
O21 P2 1.548382 1_554
O21 W4 2.091197 1_545
O22 P10 1.559923 1_555
O22 W0 2.048227 1_555
O23 P3 1.529116 1_555
O23 W5 2.060718 1_555
O24 P6 1.523313 1_545
O24 W1 2.051507 1_555
O25 P7 1.535457 1_555
O25 W2 2.322740 1_555
O26 P4 1.535457 1_555
O26 W5 2.322740 1_555
O27 P5 1.523313 1_565
O27 W6 2.051507 1_555
O28 P8 1.529116 1_555
O28 W2 2.060718 1_555
O29 P1 1.559923 1_555
O29 W7 2.048227 1_555
O30 P9 1.548382 1_556
O30 W3 2.091197 1_565
O31 W6 1.745312 1_555
O32 W7 1.757348 1_555
O33 P7 1.525309 1_555
O33 W4 2.122066 1_555
O34 P6 1.528458 1_545
O34 W7 2.063385 1_555
O35 P8 1.528458 1_565
O35 W4 2.063385 1_556
O36 P6 1.610245 1_554
O36 P11 1.629519 1_555
O37 W4 1.757348 1_556
O38 P10 1.535016 1_555
O38 W4 2.052859 1_555
O39 P9 1.538699 1_555
O39 W5 2.048674 1_555
O40 P7 1.524367 1_555
O40 W5 2.043937 1_455
O41 W5 1.745312 1_556
O42 P10 1.548382 1_555
O42 W0 2.091197 1_545
O43 P11 1.524367 1_555
O43 W6 2.043937 1_555
O44 P10 1.538699 1_555
O44 W6 2.048674 1_555
O45 P9 1.535016 1_555
O45 W7 2.052859 1_555
O46 P6 1.529116 1_555
O46 W1 2.060718 1_555
O47 P8 1.610245 1_555
O47 P7 1.629519 1_555
O48 P0 1.535457 1_555
O48 W6 2.322740 1_556
O49 P8 1.523313 1_565
O49 W2 2.051507 1_555
O50 P11 1.525309 1_555
O50 W7 2.122066 1_555
O51 P9 1.559923 1_556
O51 W3 2.048227 1_555
