# generated using pymatgen
data_V11NiO18
_symmetry_space_group_name_H-M   'P 1'
_cell_length_a   5.45855273
_cell_length_b   8.62732844
_cell_length_c   7.39948086
_cell_angle_alpha   67.27472974
_cell_angle_beta   97.76914099
_cell_angle_gamma   75.07036077
_symmetry_Int_Tables_number   1
_chemical_formula_structural   V11NiO18
_chemical_formula_sum   'V11 Ni1 O18'
_cell_volume   299.59708479
_cell_formula_units_Z   1
loop_
 _symmetry_equiv_pos_site_id
 _symmetry_equiv_pos_as_xyz
  1  'x, y, z'
loop_
 _atom_site_type_symbol
 _atom_site_label
 _atom_site_symmetry_multiplicity
 _atom_site_fract_x
 _atom_site_fract_y
 _atom_site_fract_z
 _atom_site_occupancy
  V  V0  1  0.30936596  0.00045035  0.35286165  1
  V  V1  1  0.69415058  0.00291709  0.14894482  1
  V  V2  1  0.63654196  0.33040861  0.18579454  1
  V  V3  1  0.30684794  0.00244992  0.84786732  1
  V  V4  1  0.69832484  -0.00520637  0.65247789  1
  V  V5  1  0.64306504  0.33667045  0.67740903  1
  V  V6  1  0.36813737  0.66565941  0.31946445  1
  V  V7  1  0.96740972  0.66377463  0.01624391  1
  V  V8  1  0.01710361  0.33745298  0.97957617  1
  V  V9  1  0.97818185  0.66353793  0.51450392  1
  V  V10  1  0.35675771  0.66646582  0.81777763  1
  Ni  Ni0  1  0.03420509  0.33178230  0.48467088  1
  O  O0  1  0.39022246  0.20816999  0.14615871  1
  O  O1  1  0.29822512  0.09640764  0.54796393  1
  O  O2  1  0.93811850  0.12610054  0.18699893  1
  O  O3  1  0.37411054  0.56259938  0.12489392  1
  O  O4  1  0.04062167  0.22769658  0.79608660  1
  O  O5  1  0.72099210  0.22744550  0.48038332  1
  O  O6  1  0.93251055  0.43640783  0.18173768  1
  O  O7  1  0.60705411  0.10707475  0.85005308  1
  O  O8  1  0.27917187  0.46095318  0.52343635  1
  O  O9  1  0.73073872  0.54355211  0.48080363  1
  O  O10  1  0.39440441  0.90002903  0.14519853  1
  O  O11  1  0.05742235  0.56440033  0.80926953  1
  O  O12  1  0.27242656  0.77234188  0.51844812  1
  O  O13  1  0.95918792  0.77070015  0.20904384  1
  O  O14  1  0.61822535  0.43858972  0.87584380  1
  O  O15  1  0.71343537  0.89593495  0.45492513  1
  O  O16  1  0.06275119  0.87439071  0.81477150  1
  O  O17  1  0.60029455  0.79083962  0.85638921  1
loop_
_geom_bond_atom_site_label_1
_geom_bond_atom_site_label_2
_geom_bond_distance
_geom_bond_site_symmetry_2
Ni0 O6 1.997395 1_455
Ni0 O1 1.998664 1_555
Ni0 O8 2.005808 1_555
Ni0 O9 2.114263 1_455
Ni0 O4 2.116765 1_555
Ni0 O5 2.129481 1_455
O0 V2 1.966969 1_555
O0 V8 2.000008 1_554
O0 V0 2.053771 1_555
O0 V1 2.082604 1_555
O1 V0 1.922075 1_555
O1 V3 2.036198 1_555
O1 V4 2.041895 1_555
O2 V1 1.959906 1_555
O2 V0 1.988900 1_655
O2 V8 2.070769 1_654
O2 V2 2.075004 1_555
O3 V6 1.962450 1_555
O3 V2 1.979219 1_555
O3 V10 2.073868 1_554
O3 V7 2.076883 1_455
O4 V8 1.932444 1_555
O4 V3 1.963170 1_555
O4 V5 2.039596 1_455
O5 V2 1.942783 1_555
O5 V4 1.965036 1_555
O5 V5 2.053509 1_555
O6 V7 1.945075 1_555
O6 V8 2.037169 1_654
O6 V2 2.049485 1_555
O7 V1 1.971032 1_556
O7 V5 1.976762 1_555
O7 V3 2.065570 1_555
O7 V4 2.089568 1_555
O8 V5 1.933938 1_555
O8 V9 2.039655 1_455
O8 V6 2.052659 1_555
O9 V6 1.941038 1_555
O9 V9 1.945990 1_555
O9 V5 2.037953 1_555
O10 V3 1.961050 1_564
O10 V6 1.989127 1_555
O10 V1 2.054476 1_565
O10 V0 2.083600 1_565
O11 V9 1.946498 1_455
O11 V8 1.964871 1_555
O11 V10 2.050721 1_555
O11 V7 2.079134 1_456
O12 V0 1.955263 1_565
O12 V10 1.973960 1_555
O12 V9 2.060837 1_455
O12 V6 2.072481 1_555
O13 V7 1.975096 1_555
O13 V1 1.987133 1_565
O13 V9 2.060810 1_555
O13 V6 2.089095 1_655
O14 V10 1.955098 1_555
O14 V5 1.984288 1_555
O14 V8 2.035419 1_655
O14 V2 2.092173 1_556
O15 V4 1.957206 1_565
O15 V9 1.988600 1_555
O15 V0 2.060818 1_565
O15 V1 2.063985 1_565
O16 V4 1.950348 1_465
O16 V3 1.983741 1_565
O16 V10 2.066408 1_555
O16 V7 2.097398 1_456
O17 V7 1.960082 1_556
O17 V10 1.967064 1_555
O17 V3 2.068723 1_565
O17 V4 2.076349 1_565
