# generated using pymatgen
data_LiCoPO4
_symmetry_space_group_name_H-M   'P 1'
_cell_length_a   4.92520700
_cell_length_b   9.09885900
_cell_length_c   6.41642801
_cell_angle_alpha   89.99766059
_cell_angle_beta   90.00500468
_cell_angle_gamma   89.99976066
_symmetry_Int_Tables_number   1
_chemical_formula_structural   LiCoPO4
_chemical_formula_sum   'Li4 Co4 P4 O16'
_cell_volume   287.54428970
_cell_formula_units_Z   4
loop_
 _symmetry_equiv_pos_site_id
 _symmetry_equiv_pos_as_xyz
  1  'x, y, z'
loop_
 _atom_site_type_symbol
 _atom_site_label
 _atom_site_symmetry_multiplicity
 _atom_site_fract_x
 _atom_site_fract_y
 _atom_site_fract_z
 _atom_site_occupancy
  Li  Li0  1  0.45988600  0.16232000  0.75003600  1
  Li  Li1  1  0.95990800  0.33765600  0.25002500  1
  Li  Li2  1  0.04009300  0.66234400  0.74997700  1
  Li  Li3  1  0.54011900  0.83768100  0.24996600  1
  Co  Co0  1  0.99999600  0.00000000  0.50000200  1
  Co  Co1  1  0.50000000  0.49999900  0.50000200  1
  Co  Co2  1  0.99999900  0.00000000  0.00000100  1
  Co  Co3  1  0.49999700  0.50000000  0.99999900  1
  P  P0  1  0.47072600  0.17893600  0.24998200  1
  P  P1  1  0.97071700  0.32106300  0.75001400  1
  P  P2  1  0.02928500  0.67893800  0.24998400  1
  P  P3  1  0.52927500  0.82106500  0.75001700  1
  O  O0  1  0.77786100  0.13503900  0.24999200  1
  O  O1  1  0.27784800  0.36497900  0.75000600  1
  O  O2  1  0.72215900  0.63501700  0.24999900  1
  O  O3  1  0.22213600  0.86496300  0.75000500  1
  O  O4  1  0.92411500  0.14892500  0.74998500  1
  O  O5  1  0.42408200  0.35108700  0.24996500  1
  O  O6  1  0.57591400  0.64891400  0.75004100  1
  O  O7  1  0.07588100  0.85107900  0.25001600  1
  O  O8  1  0.33518400  0.11969300  0.05017300  1
  O  O9  1  0.33522800  0.11971700  0.44984500  1
  O  O10  1  0.83514300  0.38031200  0.55018700  1
  O  O11  1  0.83522500  0.38027300  0.94986500  1
  O  O12  1  0.16477300  0.61972600  0.05012900  1
  O  O13  1  0.16486300  0.61968400  0.44980700  1
  O  O14  1  0.66477500  0.88028600  0.55015500  1
  O  O15  1  0.66481200  0.88030600  0.94982600  1
loop_
_geom_bond_atom_site_label_1
_geom_bond_atom_site_label_2
_geom_bond_distance
_geom_bond_site_symmetry_2
Li0 O1 2.050376 1_555
Li0 O8 2.058285 1_556
Li0 O9 2.058432 1_555
Li0 O4 2.289670 1_555
Li1 O0 2.050059 1_555
Li1 O11 2.058276 1_554
Li1 O10 2.058606 1_555
Li1 O5 2.289418 1_655
Li2 O3 2.050066 1_555
Li2 O12 2.058226 1_556
Li2 O13 2.058668 1_555
Li2 O6 2.289442 1_455
Li3 O2 2.050421 1_555
Li3 O15 2.058286 1_554
Li3 O14 2.058421 1_555
Li3 O7 2.289715 1_555
Co0 O14 2.004005 1_545
Co0 O9 2.004068 1_655
Co0 O7 2.132813 1_645
Co0 O4 2.132819 1_555
Co0 O3 2.297700 1_645
Co0 O0 2.297730 1_555
Co1 O13 2.003510 1_555
Co1 O10 2.003534 1_555
Co1 O5 2.132989 1_555
Co1 O6 2.133012 1_555
Co1 O1 2.297788 1_555
Co1 O2 2.297791 1_555
Co2 O8 2.003742 1_655
Co2 O15 2.003758 1_544
Co2 O7 2.132818 1_645
Co2 O4 2.132848 1_554
Co2 O0 2.297855 1_555
Co2 O3 2.297865 1_644
Co3 O12 2.004059 1_556
Co3 O11 2.004085 1_555
Co3 O6 2.132584 1_555
Co3 O5 2.132615 1_556
Co3 O1 2.297674 1_555
Co3 O2 2.297716 1_556
O0 P0 1.564544 1_555
O1 P1 1.564572 1_455
O2 P2 1.564560 1_655
O3 P3 1.564565 1_555
O4 P1 1.582989 1_555
O5 P0 1.583134 1_555
O6 P3 1.583130 1_555
O7 P2 1.583011 1_555
O8 P0 1.542663 1_555
O9 P0 1.542841 1_555
O10 P1 1.542808 1_555
O11 P1 1.542770 1_555
O12 P2 1.542790 1_555
O13 P2 1.542811 1_555
O14 P3 1.542846 1_555
O15 P3 1.542646 1_555
