# generated using pymatgen
data_LiNiPO4
_symmetry_space_group_name_H-M   'P 1'
_cell_length_a   5.16552716
_cell_length_b   7.58408542
_cell_length_c   8.05516851
_cell_angle_alpha   92.35448045
_cell_angle_beta   90.27188944
_cell_angle_gamma   78.08564319
_symmetry_Int_Tables_number   1
_chemical_formula_structural   LiNiPO4
_chemical_formula_sum   'Li4 Ni4 P4 O16'
_cell_volume   308.50655887
_cell_formula_units_Z   4
loop_
 _symmetry_equiv_pos_site_id
 _symmetry_equiv_pos_as_xyz
  1  'x, y, z'
loop_
 _atom_site_type_symbol
 _atom_site_label
 _atom_site_symmetry_multiplicity
 _atom_site_fract_x
 _atom_site_fract_y
 _atom_site_fract_z
 _atom_site_occupancy
  Li  Li0  1  0.30535000  0.18480200  0.90192300  1
  Li  Li1  1  0.31421800  0.66724100  0.57792100  1
  Li  Li2  1  0.68578800  0.33275300  0.42207700  1
  Li  Li3  1  0.69465400  0.81520100  0.09807600  1
  Ni  Ni0  1  0.13540600  0.94442600  0.31357100  1
  Ni  Ni1  1  0.19925600  0.47657900  0.21117900  1
  Ni  Ni2  1  0.80072600  0.52343100  0.78881500  1
  Ni  Ni3  1  0.86458200  0.05556800  0.68644200  1
  P  P0  1  0.24895100  0.27934200  0.56228600  1
  P  P1  1  0.21324200  0.77629900  0.91654100  1
  P  P2  1  0.78676100  0.22370300  0.08346000  1
  P  P3  1  0.75104900  0.72065800  0.43771400  1
  O  O0  1  0.05687700  0.16369100  0.48202500  1
  O  O1  1  0.05877300  0.28428800  0.08684300  1
  O  O2  1  0.13162300  0.34334400  0.73625400  1
  O  O3  1  0.26241400  0.44170400  0.45344600  1
  O  O4  1  0.18180800  0.95943600  0.83013500  1
  O  O5  1  0.41938300  0.63312400  0.81950000  1
  O  O6  1  0.30913100  0.79466300  0.09937500  1
  O  O7  1  0.53350600  0.17231300  0.57339500  1
  O  O8  1  0.46649400  0.82768600  0.42660500  1
  O  O9  1  0.69087800  0.20533100  0.90062400  1
  O  O10  1  0.58061300  0.36687600  0.18049900  1
  O  O11  1  0.81820000  0.04056700  0.16986500  1
  O  O12  1  0.73759100  0.55829500  0.54655100  1
  O  O13  1  0.86837000  0.65665900  0.26374500  1
  O  O14  1  0.94122600  0.71571500  0.91315900  1
  O  O15  1  0.94313000  0.83630700  0.51797500  1
loop_
_geom_bond_atom_site_label_1
_geom_bond_atom_site_label_2
_geom_bond_distance
_geom_bond_site_symmetry_2
Li0 O2 1.925327 1_555
Li0 O1 1.984755 1_556
Li0 O4 2.007147 1_545
Li0 O9 2.029433 1_555
Li1 O3 2.012029 1_555
Li1 O8 2.027612 1_555
Li1 O5 2.030298 1_555
Li1 O15 2.139827 1_455
Li1 O12 2.184324 1_555
Li2 O12 2.012056 1_555
Li2 O7 2.027611 1_555
Li2 O10 2.030308 1_555
Li2 O0 2.139822 1_655
Li2 O3 2.184334 1_555
Li3 O13 1.925308 1_555
Li3 O14 1.984722 1_554
Li3 O11 2.007159 1_565
Li3 O6 2.029426 1_555
Ni0 O8 1.991000 1_555
Ni0 O11 2.028418 1_465
Ni0 O0 2.076635 1_565
Ni0 O6 2.122534 1_555
Ni0 O15 2.198305 1_455
Ni1 O10 1.986162 1_555
Ni1 O13 1.990332 1_455
Ni1 O1 1.991617 1_555
Ni1 O3 1.996369 1_555
Ni2 O5 1.986085 1_555
Ni2 O2 1.990392 1_655
Ni2 O14 1.991650 1_555
Ni2 O12 1.996318 1_555
Ni3 O7 1.991013 1_555
Ni3 O4 2.028418 1_645
Ni3 O15 2.076681 1_545
Ni3 O9 2.122410 1_555
Ni3 O0 2.198453 1_655
O0 P0 1.574270 1_555
O1 P2 1.565666 1_455
O2 P0 1.548349 1_555
O3 P0 1.553829 1_555
O4 P1 1.557291 1_555
O5 P1 1.544249 1_555
O6 P1 1.561558 1_554
O7 P0 1.529546 1_555
O8 P3 1.529543 1_555
O9 P2 1.561569 1_556
O10 P2 1.544253 1_555
O11 P2 1.557279 1_555
O12 P3 1.553816 1_555
O13 P3 1.548339 1_555
O14 P1 1.565682 1_655
O15 P3 1.574287 1_555
