# generated using pymatgen
data_Nb2CdO6
_symmetry_space_group_name_H-M   'P 1'
_cell_length_a   5.17138843
_cell_length_b   5.92478358
_cell_length_c   14.93878738
_cell_angle_alpha   90.00000000
_cell_angle_beta   90.00000000
_cell_angle_gamma   90.00000000
_symmetry_Int_Tables_number   1
_chemical_formula_structural   Nb2CdO6
_chemical_formula_sum   'Nb8 Cd4 O24'
_cell_volume   457.71484351
_cell_formula_units_Z   4
loop_
 _symmetry_equiv_pos_site_id
 _symmetry_equiv_pos_as_xyz
  1  'x, y, z'
loop_
 _atom_site_type_symbol
 _atom_site_label
 _atom_site_symmetry_multiplicity
 _atom_site_fract_x
 _atom_site_fract_y
 _atom_site_fract_z
 _atom_site_occupancy
  Nb  Nb0  1  0.26409640  0.31746515  0.16487876  1
  Nb  Nb1  1  0.76409640  0.68253485  0.16487876  1
  Nb  Nb2  1  0.76409640  0.18253485  0.33512124  1
  Nb  Nb3  1  0.26409640  0.81746515  0.33512124  1
  Nb  Nb4  1  0.73590360  0.18253485  0.66487876  1
  Nb  Nb5  1  0.23590360  0.81746515  0.66487876  1
  Nb  Nb6  1  0.23590360  0.31746515  0.83512124  1
  Nb  Nb7  1  0.73590360  0.68253485  0.83512124  1
  Cd  Cd0  1  0.75000000  0.19321917  -0.00000000  1
  Cd  Cd1  1  0.25000000  0.80678083  -0.00000000  1
  Cd  Cd2  1  0.25000000  0.30678083  0.50000000  1
  Cd  Cd3  1  0.75000000  0.69321917  0.50000000  1
  O  O0  1  0.39499705  0.11507295  0.08556476  1
  O  O1  1  0.89499705  0.88492705  0.08556476  1
  O  O2  1  0.95083782  0.41011856  0.10274988  1
  O  O3  1  0.45083782  0.58988144  0.10274988  1
  O  O4  1  0.58995183  0.36955122  0.24448757  1
  O  O5  1  0.08995183  0.63044878  0.24448757  1
  O  O6  1  0.08995183  0.13044878  0.25551243  1
  O  O7  1  0.58995183  0.86955122  0.25551243  1
  O  O8  1  0.45083782  0.08988144  0.39725012  1
  O  O9  1  0.95083782  0.91011856  0.39725012  1
  O  O10  1  0.89499705  0.38492705  0.41443524  1
  O  O11  1  0.39499705  0.61507295  0.41443524  1
  O  O12  1  0.60500295  0.38492705  0.58556476  1
  O  O13  1  0.10500295  0.61507295  0.58556476  1
  O  O14  1  0.04916218  0.08988144  0.60274988  1
  O  O15  1  0.54916218  0.91011856  0.60274988  1
  O  O16  1  0.41004817  0.13044878  0.74448757  1
  O  O17  1  0.91004817  0.86955122  0.74448757  1
  O  O18  1  0.91004817  0.36955122  0.75551243  1
  O  O19  1  0.41004817  0.63044878  0.75551243  1
  O  O20  1  0.54916218  0.41011856  0.89725012  1
  O  O21  1  0.04916218  0.58988144  0.89725012  1
  O  O22  1  0.10500295  0.11507295  0.91443524  1
  O  O23  1  0.60500295  0.88492705  0.91443524  1
loop_
_geom_bond_atom_site_label_1
_geom_bond_atom_site_label_2
_geom_bond_distance
_geom_bond_site_symmetry_2
Nb0 O0 1.816601 1_555
Nb0 O2 1.946051 1_455
Nb0 O6 1.967729 1_555
Nb0 O4 2.085478 1_555
Nb0 O3 2.097390 1_555
Nb0 O5 2.379919 1_555
Nb1 O1 1.816601 1_555
Nb1 O3 1.946051 1_555
Nb1 O7 1.967729 1_555
Nb1 O5 2.085478 1_655
Nb1 O2 2.097390 1_555
Nb1 O4 2.379919 1_555
Nb2 O10 1.816601 1_555
Nb2 O8 1.946051 1_555
Nb2 O4 1.967729 1_555
Nb2 O6 2.085478 1_655
Nb2 O9 2.097390 1_545
Nb2 O7 2.379919 1_545
Nb3 O11 1.816601 1_555
Nb3 O9 1.946051 1_455
Nb3 O5 1.967729 1_555
Nb3 O7 2.085478 1_555
Nb3 O8 2.097390 1_565
Nb3 O6 2.379919 1_565
Nb4 O12 1.816601 1_555
Nb4 O14 1.946051 1_655
Nb4 O18 1.967729 1_555
Nb4 O16 2.085478 1_555
Nb4 O15 2.097390 1_545
Nb4 O17 2.379919 1_545
Nb5 O13 1.816601 1_555
Nb5 O15 1.946051 1_555
Nb5 O19 1.967729 1_555
Nb5 O17 2.085478 1_455
Nb5 O14 2.097390 1_565
Nb5 O16 2.379919 1_565
Nb6 O22 1.816601 1_555
Nb6 O20 1.946051 1_555
Nb6 O16 1.967729 1_555
Nb6 O18 2.085478 1_455
Nb6 O21 2.097390 1_555
Nb6 O19 2.379919 1_555
Nb7 O23 1.816601 1_555
Nb7 O21 1.946051 1_655
Nb7 O17 1.967729 1_555
Nb7 O19 2.085478 1_555
Nb7 O20 2.097390 1_555
Nb7 O18 2.379919 1_555
Cd0 O2 2.255271 1_555
Cd0 O20 2.255271 1_554
Cd0 O0 2.284431 1_555
Cd0 O22 2.284431 1_654
Cd0 O1 2.352121 1_545
Cd0 O23 2.352121 1_544
Cd1 O21 2.255271 1_554
Cd1 O3 2.255271 1_555
Cd1 O23 2.284431 1_554
Cd1 O1 2.284431 1_455
Cd1 O22 2.352121 1_564
Cd1 O0 2.352121 1_565
Cd2 O14 2.255271 1_555
Cd2 O8 2.255271 1_555
Cd2 O10 2.284431 1_455
Cd2 O12 2.284431 1_555
Cd2 O13 2.352121 1_555
Cd2 O11 2.352121 1_555
Cd3 O15 2.255271 1_555
Cd3 O9 2.255271 1_555
Cd3 O13 2.284431 1_655
Cd3 O11 2.284431 1_555
Cd3 O10 2.352121 1_555
Cd3 O12 2.352121 1_555
