# generated using pymatgen
data_LiFeP2O7
_symmetry_space_group_name_H-M   'P 1'
_cell_length_a   8.12090300
_cell_length_b   7.26896500
_cell_length_c   9.61627965
_cell_angle_alpha   73.93617745
_cell_angle_beta   90.00000000
_cell_angle_gamma   90.00000000
_symmetry_Int_Tables_number   1
_chemical_formula_structural   LiFeP2O7
_chemical_formula_sum   'Li4 Fe4 P8 O28'
_cell_volume   545.48977294
_cell_formula_units_Z   4
loop_
 _symmetry_equiv_pos_site_id
 _symmetry_equiv_pos_as_xyz
  1  'x, y, z'
loop_
 _atom_site_type_symbol
 _atom_site_label
 _atom_site_symmetry_multiplicity
 _atom_site_fract_x
 _atom_site_fract_y
 _atom_site_fract_z
 _atom_site_occupancy
  Li  Li0  1  0.51913900  0.69364900  0.79069500  1
  Li  Li1  1  0.98086100  0.69364900  0.29069500  1
  Li  Li2  1  0.01913900  0.30635100  0.70930500  1
  Li  Li3  1  0.48086100  0.30635100  0.20930500  1
  Fe  Fe0  1  0.06374900  0.69602700  0.76067200  1
  Fe  Fe1  1  0.43625100  0.69602700  0.26067200  1
  Fe  Fe2  1  0.56374900  0.30397300  0.73932800  1
  Fe  Fe3  1  0.93625100  0.30397300  0.23932800  1
  P  P0  1  0.25651400  0.89117300  0.96148200  1
  P  P1  1  0.24348600  0.89117300  0.46148200  1
  P  P2  1  0.76107600  0.67592100  0.54775300  1
  P  P3  1  0.26107600  0.32407900  0.95224700  1
  P  P4  1  0.73892400  0.67592100  0.04775300  1
  P  P5  1  0.23892400  0.32407900  0.45224700  1
  P  P6  1  0.75651400  0.10882700  0.53851800  1
  P  P7  1  0.74348600  0.10882700  0.03851800  1
  O  O0  1  0.59428500  0.16951600  0.59860700  1
  O  O1  1  0.41015100  0.86081300  0.88411600  1
  O  O2  1  0.72620900  0.88306800  0.56747900  1
  O  O3  1  0.73566300  0.67328300  0.89314200  1
  O  O4  1  0.23893200  0.80343800  0.62791800  1
  O  O5  1  0.90571500  0.16951600  0.09860700  1
  O  O6  1  0.08984900  0.86081300  0.38411600  1
  O  O7  1  0.61456800  0.56183500  0.63556700  1
  O  O8  1  0.77379100  0.88306800  0.06747900  1
  O  O9  1  0.42147000  0.39691000  0.86538200  1
  O  O10  1  0.76433700  0.67328300  0.39314200  1
  O  O11  1  0.26106800  0.80343800  0.12791800  1
  O  O12  1  0.92147000  0.60309000  0.63461800  1
  O  O13  1  0.11456800  0.43816500  0.86443300  1
  O  O14  1  0.88543200  0.56183500  0.13556700  1
  O  O15  1  0.07853000  0.39691000  0.36538200  1
  O  O16  1  0.73893200  0.19656200  0.87208200  1
  O  O17  1  0.23566300  0.32671700  0.60685800  1
  O  O18  1  0.57853000  0.60309000  0.13461800  1
  O  O19  1  0.22620900  0.11693200  0.93252100  1
  O  O20  1  0.38543200  0.43816500  0.36443300  1
  O  O21  1  0.91015100  0.13918700  0.61588400  1
  O  O22  1  0.09428500  0.83048400  0.90139300  1
  O  O23  1  0.76106800  0.19656200  0.37208200  1
  O  O24  1  0.26433700  0.32671700  0.10685800  1
  O  O25  1  0.27379100  0.11693200  0.43252100  1
  O  O26  1  0.58984900  0.13918700  0.11588400  1
  O  O27  1  0.40571500  0.83048400  0.40139300  1
loop_
_geom_bond_atom_site_label_1
_geom_bond_atom_site_label_2
_geom_bond_distance
_geom_bond_site_symmetry_2
Li0 O1 1.915993 1_555
Li0 O3 2.000902 1_555
Li0 O7 2.129548 1_555
Li0 O9 2.222652 1_555
Li1 O6 1.915993 1_655
Li1 O10 2.000902 1_555
Li1 O14 2.129548 1_555
Li1 O15 2.222652 1_655
Li2 O21 1.915993 1_455
Li2 O17 2.000902 1_555
Li2 O13 2.129548 1_555
Li2 O12 2.222652 1_455
Li3 O26 1.915993 1_555
Li3 O24 2.000902 1_555
Li3 O20 2.129548 1_555
Li3 O18 2.222652 1_555
Fe0 O22 1.892050 1_555
Fe0 O13 1.908984 1_555
Fe0 O4 1.926555 1_555
Fe0 O12 1.927160 1_455
Fe1 O27 1.892050 1_555
Fe1 O20 1.908984 1_555
Fe1 O11 1.926555 1_555
Fe1 O18 1.927160 1_555
Fe2 O0 1.892050 1_555
Fe2 O7 1.908984 1_555
Fe2 O16 1.926555 1_555
Fe2 O9 1.927160 1_555
Fe3 O5 1.892050 1_555
Fe3 O14 1.908984 1_555
Fe3 O23 1.926555 1_555
Fe3 O15 1.927160 1_655
O0 P6 1.550882 1_555
O1 P0 1.499915 1_555
O2 P2 1.594206 1_555
O2 P6 1.605677 1_565
O3 P4 1.492437 1_556
O4 P1 1.550740 1_555
O5 P7 1.550882 1_555
O6 P1 1.499915 1_555
O7 P2 1.558468 1_555
O8 P4 1.594206 1_555
O8 P7 1.605677 1_565
O9 P3 1.558819 1_555
O10 P2 1.492437 1_555
O11 P0 1.550740 1_554
O12 P2 1.558819 1_555
O13 P3 1.558468 1_555
O14 P4 1.558468 1_555
O15 P5 1.558819 1_555
O16 P7 1.550740 1_556
O17 P5 1.492437 1_555
O18 P4 1.558819 1_555
O19 P3 1.594206 1_555
O19 P0 1.605677 1_545
O20 P5 1.558468 1_555
O21 P6 1.499915 1_555
O22 P0 1.550882 1_555
O23 P6 1.550740 1_555
O24 P3 1.492437 1_554
O25 P5 1.594206 1_555
O25 P1 1.605677 1_545
O26 P7 1.499915 1_555
O27 P1 1.550882 1_555
