# generated using pymatgen
data_LiAlFeO4
_symmetry_space_group_name_H-M   'P 1'
_cell_length_a   5.70518800
_cell_length_b   5.70517600
_cell_length_c   8.44437100
_cell_angle_alpha   89.99978775
_cell_angle_beta   89.99984502
_cell_angle_gamma   90.00018077
_symmetry_Int_Tables_number   1
_chemical_formula_structural   LiAlFeO4
_chemical_formula_sum   'Li4 Al4 Fe4 O16'
_cell_volume   274.85669007
_cell_formula_units_Z   4
loop_
 _symmetry_equiv_pos_site_id
 _symmetry_equiv_pos_as_xyz
  1  'x, y, z'
loop_
 _atom_site_type_symbol
 _atom_site_label
 _atom_site_symmetry_multiplicity
 _atom_site_fract_x
 _atom_site_fract_y
 _atom_site_fract_z
 _atom_site_occupancy
  Li  Li0  1  0.00000400  0.23328300  0.99999700  1
  Li  Li1  1  0.00000100  0.76671300  0.49999900  1
  Li  Li2  1  0.23330000  0.00000000  0.24999900  1
  Li  Li3  1  0.76671100  0.00000100  0.75000000  1
  Al  Al0  1  0.26311800  0.26312700  0.62499800  1
  Al  Al1  1  0.26311700  0.73688000  0.87500100  1
  Al  Al2  1  0.73686400  0.26312800  0.37500000  1
  Al  Al3  1  0.73686700  0.73688000  0.12500100  1
  Fe  Fe0  1  0.23203800  0.50000200  0.25002000  1
  Fe  Fe1  1  0.49999500  0.23199200  0.00002300  1
  Fe  Fe2  1  0.49999600  0.76797300  0.49998800  1
  Fe  Fe3  1  0.76801100  0.50001600  0.74997700  1
  O  O0  1  0.00172800  0.26496600  0.26066500  1
  O  O1  1  0.00172600  0.73503500  0.23933800  1
  O  O2  1  0.26497200  0.00173100  0.98933900  1
  O  O3  1  0.26497100  0.99826700  0.51066000  1
  O  O4  1  0.26432400  0.48601400  0.00649600  1
  O  O5  1  0.26432000  0.51398500  0.49350800  1
  O  O6  1  0.48601200  0.26432200  0.24350700  1
  O  O7  1  0.48601100  0.73567700  0.25649400  1
  O  O8  1  0.51398500  0.26432400  0.75649600  1
  O  O9  1  0.51398300  0.73568000  0.74350400  1
  O  O10  1  0.73567500  0.51398800  0.50649200  1
  O  O11  1  0.73567900  0.48601200  0.99350300  1
  O  O12  1  0.73503000  0.00173400  0.01066200  1
  O  O13  1  0.73503000  0.99826500  0.48933700  1
  O  O14  1  0.99826400  0.26497100  0.73933500  1
  O  O15  1  0.99826800  0.73503200  0.76066300  1
loop_
_geom_bond_atom_site_label_1
_geom_bond_atom_site_label_2
_geom_bond_distance
_geom_bond_site_symmetry_2
Li0 O2 2.009598 1_555
Li0 O12 2.009609 1_456
Li0 O4 2.087116 1_556
Li0 O11 2.087134 1_455
Li0 O14 2.208560 1_455
Li0 O0 2.208609 1_556
Li1 O3 2.009610 1_555
Li1 O13 2.009613 1_455
Li1 O5 2.087104 1_555
Li1 O10 2.087115 1_455
Li1 O1 2.208548 1_555
Li1 O15 2.208573 1_455
Li2 O1 2.009663 1_545
Li2 O0 2.009667 1_555
Li2 O6 2.087047 1_555
Li2 O7 2.087054 1_545
Li2 O2 2.208536 1_554
Li2 O3 2.208545 1_545
Li3 O14 2.009606 1_555
Li3 O15 2.009623 1_545
Li3 O9 2.087107 1_545
Li3 O8 2.087114 1_555
Li3 O12 2.208557 1_556
Li3 O13 2.208566 1_545
Al0 O14 1.793195 1_455
Al0 O3 1.793231 1_545
Al0 O5 1.811412 1_555
Al0 O8 1.811502 1_555
Al1 O15 1.793180 1_455
Al1 O2 1.793188 1_565
Al1 O4 1.811475 1_556
Al1 O9 1.811488 1_555
Al2 O0 1.793234 1_655
Al2 O13 1.793234 1_545
Al2 O6 1.811409 1_555
Al2 O10 1.811438 1_555
Al3 O12 1.793200 1_565
Al3 O1 1.793223 1_655
Al3 O7 1.811422 1_555
Al3 O11 1.811505 1_554
Fe0 O0 1.879530 1_555
Fe0 O1 1.879547 1_555
Fe0 O7 1.977457 1_555
Fe0 O6 1.977495 1_555
Fe0 O5 2.065877 1_555
Fe0 O4 2.066182 1_555
Fe1 O2 1.879299 1_554
Fe1 O12 1.879323 1_555
Fe1 O4 1.977651 1_555
Fe1 O11 1.977698 1_554
Fe1 O6 2.065867 1_555
Fe1 O8 2.066230 1_554
Fe2 O3 1.879439 1_555
Fe2 O13 1.879453 1_555
Fe2 O5 1.977524 1_555
Fe2 O10 1.977535 1_555
Fe2 O7 2.065935 1_555
Fe2 O9 2.066117 1_555
Fe3 O15 1.879255 1_555
Fe3 O14 1.879345 1_555
Fe3 O9 1.977650 1_555
Fe3 O8 1.977754 1_555
Fe3 O10 2.065876 1_555
Fe3 O11 2.066225 1_555
