# generated using pymatgen
data_Li2Ni5O7
_symmetry_space_group_name_H-M   'P 1'
_cell_length_a   5.00549093
_cell_length_b   5.00549093
_cell_length_c   6.48448129
_cell_angle_alpha   82.31686029
_cell_angle_beta   82.31686029
_cell_angle_gamma   47.82663605
_symmetry_Int_Tables_number   1
_chemical_formula_structural   Li2Ni5O7
_chemical_formula_sum   'Li2 Ni5 O7'
_cell_volume   119.11333254
_cell_formula_units_Z   1
loop_
 _symmetry_equiv_pos_site_id
 _symmetry_equiv_pos_as_xyz
  1  'x, y, z'
loop_
 _atom_site_type_symbol
 _atom_site_label
 _atom_site_symmetry_multiplicity
 _atom_site_fract_x
 _atom_site_fract_y
 _atom_site_fract_z
 _atom_site_occupancy
  Li  Li0  1  0.56828220  0.56828220  0.78631831  1
  Li  Li1  1  0.43171780  0.43171780  0.21368169  1
  Ni  Ni0  1  0.28448505  0.28448505  0.64404168  1
  Ni  Ni1  1  0.86047178  0.86047178  0.93045682  1
  Ni  Ni2  1  0.13952822  0.13952822  0.06954318  1
  Ni  Ni3  1  -0.00000000  -0.00000000  0.50000000  1
  Ni  Ni4  1  0.71551495  0.71551495  0.35595832  1
  O  O0  1  0.79305821  0.79305821  0.63877220  1
  O  O1  1  0.07020474  0.07020474  0.78611367  1
  O  O2  1  0.34513062  0.34513062  0.92512905  1
  O  O3  1  0.92979526  0.92979526  0.21388633  1
  O  O4  1  0.65486938  0.65486938  0.07487095  1
  O  O5  1  0.50000000  0.50000000  0.50000000  1
  O  O6  1  0.20694179  0.20694179  0.36122780  1
loop_
_geom_bond_atom_site_label_1
_geom_bond_atom_site_label_2
_geom_bond_distance
_geom_bond_site_symmetry_2
Li0 O1 2.029071 1_655
Li0 O1 2.029071 1_565
Li0 O5 2.043748 1_555
Li0 O2 2.107872 1_555
Li0 O4 2.136042 1_556
Li0 O0 2.138048 1_555
Li1 O3 2.029071 1_455
Li1 O3 2.029071 1_545
Li1 O5 2.043748 1_555
Li1 O4 2.107872 1_555
Li1 O2 2.136042 1_554
Li1 O6 2.138048 1_555
Ni0 O2 1.981460 1_555
Ni0 O0 2.030607 1_455
Ni0 O0 2.030607 1_545
Ni0 O1 2.041049 1_555
Ni0 O5 2.055141 1_555
Ni0 O6 2.060936 1_555
Ni1 O4 1.975339 1_556
Ni1 O1 2.008654 1_665
Ni1 O3 2.030122 1_556
Ni1 O2 2.034490 1_565
Ni1 O2 2.034490 1_655
Ni1 O0 2.073504 1_555
Ni2 O2 1.975339 1_554
Ni2 O3 2.008654 1_445
Ni2 O1 2.030122 1_554
Ni2 O4 2.034490 1_545
Ni2 O4 2.034490 1_455
Ni2 O6 2.073504 1_555
Ni3 O6 1.974328 1_555
Ni3 O0 1.974328 1_445
Ni3 O5 2.028996 1_455
Ni3 O5 2.028996 1_545
Ni3 O3 2.050264 1_445
Ni3 O1 2.050264 1_555
Ni4 O4 1.981460 1_555
Ni4 O6 2.030607 1_655
Ni4 O6 2.030607 1_565
Ni4 O3 2.041049 1_555
Ni4 O5 2.055141 1_555
Ni4 O0 2.060936 1_555
