# generated using pymatgen
data_Li3Ni4SbO8
_symmetry_space_group_name_H-M   'P 1'
_cell_length_a   5.96170743
_cell_length_b   5.96170743
_cell_length_c   6.05592912
_cell_angle_alpha   59.88196848
_cell_angle_beta   59.88196848
_cell_angle_gamma   61.02203647
_symmetry_Int_Tables_number   1
_chemical_formula_structural   Li3Ni4SbO8
_chemical_formula_sum   'Li3 Ni4 Sb1 O8'
_cell_volume   153.05949884
_cell_formula_units_Z   1
loop_
 _symmetry_equiv_pos_site_id
 _symmetry_equiv_pos_as_xyz
  1  'x, y, z'
loop_
 _atom_site_type_symbol
 _atom_site_label
 _atom_site_symmetry_multiplicity
 _atom_site_fract_x
 _atom_site_fract_y
 _atom_site_fract_z
 _atom_site_occupancy
  Li  Li0  1  0.00000000  0.50000000  0.00000000  1
  Li  Li1  1  0.50000000  0.00000000  0.00000000  1
  Li  Li2  1  0.00000000  0.00000000  0.50000000  1
  Ni  Ni0  1  0.00000000  0.00000000  0.00000000  1
  Ni  Ni1  1  0.50000000  0.00000000  0.50000000  1
  Ni  Ni2  1  0.00000000  0.50000000  0.50000000  1
  Ni  Ni3  1  0.50000000  0.50000000  0.50000000  1
  Sb  Sb0  1  0.50000000  0.50000000  0.00000000  1
  O  O0  1  0.73910700  0.73910700  0.75650100  1
  O  O1  1  0.26416100  0.73762200  0.23558700  1
  O  O2  1  0.73762200  0.26416100  0.23558700  1
  O  O3  1  0.26089300  0.26089300  0.24349900  1
  O  O4  1  0.25011900  0.25011900  0.73366200  1
  O  O5  1  0.73583900  0.26237800  0.76441300  1
  O  O6  1  0.26237800  0.73583900  0.76441300  1
  O  O7  1  0.74988100  0.74988100  0.26633800  1
loop_
_geom_bond_atom_site_label_1
_geom_bond_atom_site_label_2
_geom_bond_distance
_geom_bond_site_symmetry_2
Li0 O2 2.082637 1_455
Li0 O6 2.082637 1_554
Li0 O3 2.160918 1_555
Li0 O0 2.160918 1_454
Li0 O4 2.211240 1_554
Li0 O7 2.211240 1_455
Li1 O5 2.082637 1_554
Li1 O1 2.082637 1_545
Li1 O3 2.160918 1_555
Li1 O0 2.160918 1_544
Li1 O4 2.211240 1_554
Li1 O7 2.211240 1_545
Li2 O3 2.178529 1_555
Li2 O0 2.178529 1_445
Li2 O5 2.255437 1_455
Li2 O2 2.255437 1_455
Li2 O6 2.255437 1_545
Li2 O1 2.255437 1_545
Ni0 O4 2.091795 1_554
Ni0 O7 2.091795 1_445
Ni0 O5 2.142595 1_454
Ni0 O6 2.142595 1_544
Ni0 O2 2.142595 1_455
Ni0 O1 2.142595 1_545
Ni1 O7 2.072368 1_545
Ni1 O4 2.072368 1_555
Ni1 O6 2.098933 1_545
Ni1 O2 2.098933 1_555
Ni1 O0 2.124454 1_545
Ni1 O3 2.124454 1_555
Ni2 O7 2.072368 1_455
Ni2 O4 2.072368 1_555
Ni2 O5 2.098933 1_455
Ni2 O1 2.098933 1_555
Ni2 O0 2.124454 1_455
Ni2 O3 2.124454 1_555
Ni3 O7 2.088095 1_555
Ni3 O4 2.088095 1_555
Ni3 O6 2.144931 1_555
Ni3 O1 2.144931 1_555
Ni3 O5 2.144931 1_555
Ni3 O2 2.144931 1_555
O0 Sb0 1.997083 1_556
O1 Sb0 2.025942 1_555
O2 Sb0 2.025942 1_555
O3 Sb0 1.997083 1_555
O5 Sb0 2.025942 1_556
O6 Sb0 2.025942 1_556
