# generated using pymatgen
data_MnH6(S2O9)2
_symmetry_space_group_name_H-M   'P 1'
_cell_length_a   7.40598300
_cell_length_b   10.22492600
_cell_length_c   20.77426700
_cell_angle_alpha   90.00000000
_cell_angle_beta   90.00000000
_cell_angle_gamma   90.00000000
_symmetry_Int_Tables_number   1
_chemical_formula_structural   MnH6(S2O9)2
_chemical_formula_sum   'Mn4 H24 S16 O72'
_cell_volume   1573.14441756
_cell_formula_units_Z   4
loop_
 _symmetry_equiv_pos_site_id
 _symmetry_equiv_pos_as_xyz
  1  'x, y, z'
loop_
 _atom_site_type_symbol
 _atom_site_label
 _atom_site_symmetry_multiplicity
 _atom_site_fract_x
 _atom_site_fract_y
 _atom_site_fract_z
 _atom_site_occupancy
  Mn  Mn0  1  0.25000000  0.15565300  0.25000000  1
  Mn  Mn1  1  0.25000000  0.65565300  0.25000000  1
  Mn  Mn2  1  0.75000000  0.34434700  0.75000000  1
  Mn  Mn3  1  0.75000000  0.84434700  0.75000000  1
  H  H0  1  0.04812100  0.43641200  0.77318600  1
  H  H1  1  0.04812100  0.93641200  0.72681400  1
  H  H2  1  0.06787900  0.34494900  0.71028900  1
  H  H3  1  0.06787900  0.84494900  0.78971100  1
  H  H4  1  0.09693300  0.06032500  0.56772300  1
  H  H5  1  0.09693300  0.56032500  0.93227700  1
  H  H6  1  0.40306700  0.56032500  0.56772300  1
  H  H7  1  0.40306700  0.06032500  0.93227700  1
  H  H8  1  0.43212100  0.84494900  0.71028900  1
  H  H9  1  0.43212100  0.34494900  0.78971100  1
  H  H10  1  0.45187900  0.43641200  0.72681400  1
  H  H11  1  0.45187900  0.93641200  0.77318600  1
  H  H12  1  0.54812100  0.06358800  0.22681400  1
  H  H13  1  0.54812100  0.56358800  0.27318600  1
  H  H14  1  0.56787900  0.65505100  0.21028900  1
  H  H15  1  0.56787900  0.15505100  0.28971100  1
  H  H16  1  0.59693300  0.93967500  0.06772300  1
  H  H17  1  0.59693300  0.43967500  0.43227700  1
  H  H18  1  0.90306700  0.43967500  0.06772300  1
  H  H19  1  0.90306700  0.93967500  0.43227700  1
  H  H20  1  0.93212100  0.65505100  0.28971100  1
  H  H21  1  0.93212100  0.15505100  0.21028900  1
  H  H22  1  0.95187900  0.56358800  0.22681400  1
  H  H23  1  0.95187900  0.06358800  0.27318600  1
  S  S0  1  0.13289200  0.40826500  0.16538700  1
  S  S1  1  0.13289200  0.90826500  0.33461300  1
  S  S2  1  0.23727600  0.38854000  0.57126500  1
  S  S3  1  0.23727600  0.88854000  0.92873500  1
  S  S4  1  0.26272400  0.38854000  0.92873500  1
  S  S5  1  0.26272400  0.88854000  0.57126500  1
  S  S6  1  0.36710800  0.90826500  0.16538700  1
  S  S7  1  0.36710800  0.40826500  0.33461300  1
  S  S8  1  0.63289200  0.59173500  0.66538700  1
  S  S9  1  0.63289200  0.09173500  0.83461300  1
  S  S10  1  0.73727600  0.61146000  0.07126500  1
  S  S11  1  0.73727600  0.11146000  0.42873500  1
  S  S12  1  0.76272400  0.11146000  0.07126500  1
  S  S13  1  0.76272400  0.61146000  0.42873500  1
  S  S14  1  0.86710800  0.09173500  0.66538700  1
  S  S15  1  0.86710800  0.59173500  0.83461300  1
  O  O0  1  0.03584900  0.08176700  0.70175800  1
  O  O1  1  0.03584900  0.58176700  0.79824200  1
  O  O2  1  0.01617800  0.34680800  0.75450000  1
  O  O3  1  0.01617800  0.84680800  0.74550000  1
  O  O4  1  0.09323000  0.81506600  0.57641200  1
  O  O5  1  0.09323000  0.31506600  0.92358800  1
  O  O6  1  0.11059100  0.40770100  0.09582200  1
  O  O7  1  0.11059100  0.90770100  0.40417800  1
  O  O8  1  0.11682100  0.33752200  0.52179600  1
  O  O9  1  0.11682100  0.83752200  0.97820400  1
  O  O10  1  0.14675500  0.38916800  0.63444800  1
  O  O11  1  0.14675500  0.88916800  0.86555200  1
  O  O12  1  0.22048700  0.03300100  0.55218500  1
  O  O13  1  0.22048700  0.53300100  0.94781500  1
  O  O14  1  0.23697600  0.78467900  0.31828900  1
  O  O15  1  0.23697600  0.28467900  0.18171100  1
  O  O16  1  0.25764700  0.02262200  0.31754400  1
  O  O17  1  0.25764700  0.52262200  0.18245600  1
  O  O18  1  0.24235300  0.02262200  0.18245600  1
  O  O19  1  0.24235300  0.52262200  0.31754400  1
  O  O20  1  0.26302400  0.78467900  0.18171100  1
  O  O21  1  0.26302400  0.28467900  0.31828900  1
  O  O22  1  0.27951300  0.53300100  0.55218500  1
  O  O23  1  0.27951300  0.03300100  0.94781500  1
  O  O24  1  0.35324500  0.38916800  0.86555200  1
  O  O25  1  0.35324500  0.88916800  0.63444800  1
  O  O26  1  0.38317900  0.83752200  0.52179600  1
  O  O27  1  0.38317900  0.33752200  0.97820400  1
  O  O28  1  0.38940900  0.90770100  0.09582200  1
  O  O29  1  0.38940900  0.40770100  0.40417800  1
  O  O30  1  0.40677000  0.31506600  0.57641200  1
  O  O31  1  0.40677000  0.81506600  0.92358800  1
  O  O32  1  0.48382200  0.34680800  0.74550000  1
  O  O33  1  0.48382200  0.84680800  0.75450000  1
  O  O34  1  0.46415100  0.08176700  0.79824200  1
  O  O35  1  0.46415100  0.58176700  0.70175800  1
  O  O36  1  0.53584900  0.91823300  0.20175800  1
  O  O37  1  0.53584900  0.41823300  0.29824200  1
  O  O38  1  0.51617800  0.65319200  0.25450000  1
  O  O39  1  0.51617800  0.15319200  0.24550000  1
  O  O40  1  0.59323000  0.18493400  0.07641200  1
  O  O41  1  0.59323000  0.68493400  0.42358800  1
  O  O42  1  0.61059100  0.59229900  0.59582200  1
  O  O43  1  0.61059100  0.09229900  0.90417800  1
  O  O44  1  0.61682100  0.66247800  0.02179600  1
  O  O45  1  0.61682100  0.16247800  0.47820400  1
  O  O46  1  0.64675500  0.61083200  0.13444800  1
  O  O47  1  0.64675500  0.11083200  0.36555200  1
  O  O48  1  0.72048700  0.96699900  0.05218500  1
  O  O49  1  0.72048700  0.46699900  0.44781500  1
  O  O50  1  0.73697600  0.21532100  0.81828900  1
  O  O51  1  0.73697600  0.71532100  0.68171100  1
  O  O52  1  0.75764700  0.47737800  0.68245600  1
  O  O53  1  0.75764700  0.97737800  0.81754400  1
  O  O54  1  0.74235300  0.47737800  0.81754400  1
  O  O55  1  0.74235300  0.97737800  0.68245600  1
  O  O56  1  0.76302400  0.21532100  0.68171100  1
  O  O57  1  0.76302400  0.71532100  0.81828900  1
  O  O58  1  0.77951300  0.46699900  0.05218500  1
  O  O59  1  0.77951300  0.96699900  0.44781500  1
  O  O60  1  0.85324500  0.11083200  0.13444800  1
  O  O61  1  0.85324500  0.61083200  0.36555200  1
  O  O62  1  0.88317900  0.66247800  0.47820400  1
  O  O63  1  0.88317900  0.16247800  0.02179600  1
  O  O64  1  0.88940900  0.09229900  0.59582200  1
  O  O65  1  0.88940900  0.59229900  0.90417800  1
  O  O66  1  0.90677000  0.68493400  0.07641200  1
  O  O67  1  0.90677000  0.18493400  0.42358800  1
  O  O68  1  0.98382200  0.65319200  0.24550000  1
  O  O69  1  0.98382200  0.15319200  0.25450000  1
  O  O70  1  0.96415100  0.41823300  0.20175800  1
  O  O71  1  0.96415100  0.91823300  0.29824200  1
loop_
_geom_bond_atom_site_label_1
_geom_bond_atom_site_label_2
_geom_bond_distance
_geom_bond_site_symmetry_2
Mn0 O21 1.939687 1_555
Mn0 O15 1.939687 1_555
Mn0 O16 1.955082 1_555
Mn0 O18 1.955082 1_555
Mn0 O39 1.973686 1_555
Mn0 O69 1.973686 1_455
Mn1 O14 1.939687 1_555
Mn1 O20 1.939687 1_555
Mn1 O19 1.955082 1_555
Mn1 O17 1.955082 1_555
Mn1 O38 1.973686 1_555
Mn1 O68 1.973686 1_455
Mn2 O50 1.939687 1_555
Mn2 O56 1.939687 1_555
Mn2 O54 1.955082 1_555
Mn2 O52 1.955082 1_555
Mn2 O2 1.973686 1_655
Mn2 O32 1.973686 1_555
Mn3 O57 1.939687 1_555
Mn3 O51 1.939687 1_555
Mn3 O53 1.955082 1_555
Mn3 O55 1.955082 1_555
Mn3 O3 1.973686 1_655
Mn3 O33 1.973686 1_555
H0 O2 1.022774 1_555
H0 O1 1.577379 1_555
H1 O3 1.022774 1_555
H1 O0 1.577379 1_565
H2 O2 0.995251 1_555
H3 O3 0.995251 1_555
H4 O12 1.009726 1_555
H4 O64 1.676232 1_455
H5 O13 1.009726 1_555
H5 O65 1.676232 1_455
H6 O22 1.009726 1_555
H6 O42 1.676232 1_555
H7 O23 1.009726 1_555
H7 O43 1.676232 1_555
H8 O33 0.995251 1_555
H9 O32 0.995251 1_555
H10 O32 1.022774 1_555
H10 O35 1.577379 1_555
H11 O33 1.022774 1_555
H11 O34 1.577379 1_565
H12 O39 1.022774 1_555
H12 O36 1.577379 1_545
H13 O38 1.022774 1_555
H13 O37 1.577379 1_555
H14 O38 0.995251 1_555
H15 O39 0.995251 1_555
H16 O48 1.009726 1_555
H16 O28 1.676232 1_555
H17 O49 1.009726 1_555
H17 O29 1.676232 1_555
H18 O58 1.009726 1_555
H18 O6 1.676232 1_655
H19 O59 1.009726 1_555
H19 O7 1.676232 1_655
H20 O68 0.995251 1_555
H21 O69 0.995251 1_555
H22 O68 1.022774 1_555
H22 O70 1.577379 1_555
H23 O69 1.022774 1_555
H23 O71 1.577379 1_545
O0 S14 1.463907 1_455
O1 S15 1.463907 1_455
O4 S5 1.466811 1_555
O5 S4 1.466811 1_555
O6 S0 1.454580 1_555
O7 S1 1.454580 1_555
O8 S2 1.457421 1_555
O9 S3 1.457421 1_555
O10 S2 1.473886 1_555
O11 S3 1.473886 1_555
O12 S5 1.561023 1_545
O13 S4 1.561023 1_555
O14 S1 1.518563 1_555
O15 S0 1.518563 1_555
O16 S1 1.531873 1_545
O17 S0 1.531873 1_555
O18 S6 1.531873 1_545
O19 S7 1.531873 1_555
O20 S6 1.518563 1_555
O21 S7 1.518563 1_555
O22 S2 1.561023 1_555
O23 S3 1.561023 1_545
O24 S4 1.473886 1_555
O25 S5 1.473886 1_555
O26 S5 1.457421 1_555
O27 S4 1.457421 1_555
O28 S6 1.454580 1_555
O29 S7 1.454580 1_555
O30 S2 1.466811 1_555
O31 S3 1.466811 1_555
O34 S9 1.463907 1_555
O35 S8 1.463907 1_555
O36 S6 1.463907 1_555
O37 S7 1.463907 1_555
O40 S12 1.466811 1_555
O41 S13 1.466811 1_555
O42 S8 1.454580 1_555
O43 S9 1.454580 1_555
O44 S10 1.457421 1_555
O45 S11 1.457421 1_555
O46 S10 1.473886 1_555
O47 S11 1.473886 1_555
O48 S12 1.561023 1_565
O49 S13 1.561023 1_555
O50 S9 1.518563 1_555
O51 S8 1.518563 1_555
O52 S8 1.531873 1_555
O53 S9 1.531873 1_565
O54 S15 1.531873 1_555
O55 S14 1.531873 1_565
O56 S14 1.518563 1_555
O57 S15 1.518563 1_555
O58 S10 1.561023 1_555
O59 S11 1.561023 1_565
O60 S12 1.473886 1_555
O61 S13 1.473886 1_555
O62 S13 1.457421 1_555
O63 S12 1.457421 1_555
O64 S14 1.454580 1_555
O65 S15 1.454580 1_555
O66 S10 1.466811 1_555
O67 S11 1.466811 1_555
O70 S0 1.463907 1_655
O71 S1 1.463907 1_655
