# generated using pymatgen
data_Na3SiBiCO7
_symmetry_space_group_name_H-M   'P 1'
_cell_length_a   7.19201500
_cell_length_b   5.24278400
_cell_length_c   9.47448337
_cell_angle_alpha   89.29738595
_cell_angle_beta   90.00000000
_cell_angle_gamma   90.00000000
_symmetry_Int_Tables_number   1
_chemical_formula_structural   Na3SiBiCO7
_chemical_formula_sum   'Na6 Si2 Bi2 C2 O14'
_cell_volume   357.21972569
_cell_formula_units_Z   2
loop_
 _symmetry_equiv_pos_site_id
 _symmetry_equiv_pos_as_xyz
  1  'x, y, z'
loop_
 _atom_site_type_symbol
 _atom_site_label
 _atom_site_symmetry_multiplicity
 _atom_site_fract_x
 _atom_site_fract_y
 _atom_site_fract_z
 _atom_site_occupancy
  Na  Na0  1  0.25000000  0.76871700  0.91285500  1
  Na  Na1  1  0.01176600  0.24605700  0.74678800  1
  Na  Na2  1  0.48823400  0.24605700  0.74678800  1
  Na  Na3  1  0.51176600  0.75394300  0.25321200  1
  Na  Na4  1  0.98823400  0.75394300  0.25321200  1
  Na  Na5  1  0.75000000  0.23128300  0.08714500  1
  Si  Si0  1  0.25000000  0.70851500  0.59525200  1
  Si  Si1  1  0.75000000  0.29148500  0.40474800  1
  Bi  Bi0  1  0.75000000  0.77101400  0.63312800  1
  Bi  Bi1  1  0.25000000  0.22898600  0.36687200  1
  C  C0  1  0.75000000  0.73050300  0.94757800  1
  C  C1  1  0.25000000  0.26949700  0.05242200  1
  O  O0  1  0.25000000  0.27871000  0.91593100  1
  O  O1  1  0.75000000  0.95198500  0.88198600  1
  O  O2  1  0.75000000  0.51978300  0.87538800  1
  O  O3  1  0.06777900  0.80515800  0.68510900  1
  O  O4  1  0.43222100  0.80515800  0.68510900  1
  O  O5  1  0.25000000  0.39261800  0.58987400  1
  O  O6  1  0.75000000  0.18961400  0.57311400  1
  O  O7  1  0.25000000  0.81038600  0.42688600  1
  O  O8  1  0.75000000  0.60738200  0.41012600  1
  O  O9  1  0.56777900  0.19484200  0.31489100  1
  O  O10  1  0.93222100  0.19484200  0.31489100  1
  O  O11  1  0.25000000  0.48021700  0.12461200  1
  O  O12  1  0.25000000  0.04801500  0.11801400  1
  O  O13  1  0.75000000  0.72129000  0.08406900  1
loop_
_geom_bond_atom_site_label_1
_geom_bond_atom_site_label_2
_geom_bond_distance
_geom_bond_site_symmetry_2
Na0 O12 2.447905 1_566
Na0 O11 2.497710 1_556
Na0 O3 2.529801 1_555
Na0 O4 2.529801 1_555
Na0 O0 2.568809 1_555
Na0 O0 2.674299 1_565
Na1 O0 2.353690 1_555
Na1 O5 2.389204 1_555
Na1 O3 2.424896 1_545
Na1 O6 2.520191 1_455
Na1 O2 2.670426 1_455
Na1 O1 2.741102 1_445
Na2 O0 2.353690 1_555
Na2 O5 2.389204 1_555
Na2 O4 2.424896 1_545
Na2 O6 2.520191 1_555
Na2 O2 2.670426 1_555
Na2 O1 2.741102 1_545
Na3 O13 2.353690 1_555
Na3 O8 2.389204 1_555
Na3 O9 2.424896 1_565
Na3 O7 2.520191 1_555
Na3 O11 2.670426 1_555
Na3 O12 2.741102 1_565
Na4 O13 2.353690 1_555
Na4 O8 2.389204 1_555
Na4 O10 2.424896 1_565
Na4 O7 2.520191 1_655
Na4 O11 2.670426 1_655
Na4 O12 2.741102 1_665
Na5 O1 2.447905 1_544
Na5 O2 2.497710 1_554
Na5 O9 2.529801 1_555
Na5 O10 2.529801 1_555
Na5 O13 2.568809 1_555
Na5 O13 2.674299 1_545
Bi0 O6 2.260332 1_565
Bi0 O8 2.290081 1_555
Bi0 O4 2.345237 1_555
Bi0 O3 2.345237 1_655
Bi0 O1 2.552312 1_555
Bi0 O2 2.632316 1_555
Bi1 O7 2.260332 1_545
Bi1 O5 2.290081 1_555
Bi1 O10 2.345237 1_455
Bi1 O9 2.345237 1_555
Bi1 O12 2.552312 1_555
Bi1 O11 2.632316 1_555
C0 O13 1.293491 1_556
C0 O2 1.306457 1_555
C0 O1 1.310285 1_555
C1 O0 1.293491 1_554
C1 O11 1.306457 1_555
C1 O12 1.310285 1_555
O3 Si0 1.646087 1_555
O4 Si0 1.646087 1_555
O5 Si0 1.657588 1_555
O6 Si1 1.675994 1_555
O7 Si0 1.675994 1_555
O8 Si1 1.657588 1_555
O9 Si1 1.646087 1_555
O10 Si1 1.646087 1_555
