# generated using pymatgen
data_LiVPO4
_symmetry_space_group_name_H-M   'P 1'
_cell_length_a   5.56350000
_cell_length_b   8.48212400
_cell_length_c   18.91778600
_cell_angle_alpha   90.00000000
_cell_angle_beta   90.00000000
_cell_angle_gamma   90.00000000
_symmetry_Int_Tables_number   1
_chemical_formula_structural   LiVPO4
_chemical_formula_sum   'Li12 V12 P12 O48'
_cell_volume   892.73593754
_cell_formula_units_Z   12
loop_
 _symmetry_equiv_pos_site_id
 _symmetry_equiv_pos_as_xyz
  1  'x, y, z'
loop_
 _atom_site_type_symbol
 _atom_site_label
 _atom_site_symmetry_multiplicity
 _atom_site_fract_x
 _atom_site_fract_y
 _atom_site_fract_z
 _atom_site_occupancy
  Li  Li0  1  0.75392000  0.91934800  0.08036500  1
  Li  Li1  1  0.22013900  0.41750000  0.08650100  1
  Li  Li2  1  0.73107000  0.58222400  0.24683200  1
  Li  Li3  1  0.23107000  0.08222400  0.25316800  1
  Li  Li4  1  0.72013900  0.91750000  0.41349900  1
  Li  Li5  1  0.25392000  0.41934800  0.41963500  1
  Li  Li6  1  0.75392000  0.58065200  0.58036500  1
  Li  Li7  1  0.22013900  0.08250000  0.58650100  1
  Li  Li8  1  0.73107000  0.91777600  0.74683200  1
  Li  Li9  1  0.23107000  0.41777600  0.75316800  1
  Li  Li10  1  0.72013900  0.58250000  0.91349900  1
  Li  Li11  1  0.25392000  0.08065200  0.91963500  1
  V  V0  1  0.73503700  0.25204200  0.00018700  1
  V  V1  1  0.23600000  0.75193400  0.16642800  1
  V  V2  1  0.73748100  0.24868400  0.16683800  1
  V  V3  1  0.23748100  0.74868400  0.33316200  1
  V  V4  1  0.73600000  0.25193400  0.33357200  1
  V  V5  1  0.23503700  0.75204200  0.49981300  1
  V  V6  1  0.73503700  0.24795800  0.50018700  1
  V  V7  1  0.23600000  0.74806600  0.66642800  1
  V  V8  1  0.73748100  0.25131600  0.66683800  1
  V  V9  1  0.23748100  0.75131600  0.83316200  1
  V  V10  1  0.73600000  0.24806600  0.83357200  1
  V  V11  1  0.23503700  0.74795800  0.99981300  1
  P  P0  1  0.73216700  0.60333700  0.08138100  1
  P  P1  1  0.23869900  0.10281100  0.08508600  1
  P  P2  1  0.73729200  0.89754500  0.24828800  1
  P  P3  1  0.23729200  0.39754500  0.25171200  1
  P  P4  1  0.73869900  0.60281100  0.41491400  1
  P  P5  1  0.23216700  0.10333700  0.41861900  1
  P  P6  1  0.73216700  0.89666300  0.58138100  1
  P  P7  1  0.23869900  0.39718900  0.58508600  1
  P  P8  1  0.73729200  0.60245500  0.74828800  1
  P  P9  1  0.23729200  0.10245500  0.75171200  1
  P  P10  1  0.73869900  0.89718900  0.91491400  1
  P  P11  1  0.23216700  0.39666300  0.91861900  1
  O  O0  1  0.73026600  0.50517400  0.01334700  1
  O  O1  1  0.23818100  0.99939500  0.01860000  1
  O  O2  1  0.46144400  0.21831200  0.08409000  1
  O  O3  1  0.01151500  0.21578500  0.08396400  1
  O  O4  1  0.95872500  0.71682200  0.08229300  1
  O  O5  1  0.50882900  0.71821600  0.08273300  1
  O  O6  1  0.73465400  0.49983600  0.14781400  1
  O  O7  1  0.23869600  0.00473500  0.15307800  1
  O  O8  1  0.73964300  0.99601500  0.18039300  1
  O  O9  1  0.23260700  0.50061800  0.18514200  1
  O  O10  1  0.46365700  0.28469100  0.25023300  1
  O  O11  1  0.01382300  0.28190500  0.25121100  1
  O  O12  1  0.51382300  0.78190500  0.24878900  1
  O  O13  1  0.96365700  0.78469100  0.24976700  1
  O  O14  1  0.73260700  0.00061800  0.31485800  1
  O  O15  1  0.23964300  0.49601500  0.31960700  1
  O  O16  1  0.73869600  0.50473500  0.34692200  1
  O  O17  1  0.23465400  0.99983600  0.35218600  1
  O  O18  1  0.00882900  0.21821600  0.41726700  1
  O  O19  1  0.45872500  0.21682200  0.41770700  1
  O  O20  1  0.51151500  0.71578500  0.41603600  1
  O  O21  1  0.96144400  0.71831200  0.41591000  1
  O  O22  1  0.73818100  0.49939500  0.48140000  1
  O  O23  1  0.23026600  0.00517400  0.48665300  1
  O  O24  1  0.73026600  0.99482600  0.51334700  1
  O  O25  1  0.23818100  0.50060500  0.51860000  1
  O  O26  1  0.46144400  0.28168800  0.58409000  1
  O  O27  1  0.01151500  0.28421500  0.58396400  1
  O  O28  1  0.95872500  0.78317800  0.58229300  1
  O  O29  1  0.50882900  0.78178400  0.58273300  1
  O  O30  1  0.73465400  0.00016400  0.64781400  1
  O  O31  1  0.23869600  0.49526500  0.65307800  1
  O  O32  1  0.73964300  0.50398500  0.68039300  1
  O  O33  1  0.23260700  0.99938200  0.68514200  1
  O  O34  1  0.46365700  0.21530900  0.75023300  1
  O  O35  1  0.01382300  0.21809500  0.75121100  1
  O  O36  1  0.51382300  0.71809500  0.74878900  1
  O  O37  1  0.96365700  0.71530900  0.74976700  1
  O  O38  1  0.73260700  0.49938200  0.81485800  1
  O  O39  1  0.23964300  0.00398500  0.81960700  1
  O  O40  1  0.73869600  0.99526500  0.84692200  1
  O  O41  1  0.23465400  0.50016400  0.85218600  1
  O  O42  1  0.00882900  0.28178400  0.91726700  1
  O  O43  1  0.45872500  0.28317800  0.91770700  1
  O  O44  1  0.51151500  0.78421500  0.91603600  1
  O  O45  1  0.96144400  0.78168800  0.91591000  1
  O  O46  1  0.73818100  0.00060500  0.98140000  1
  O  O47  1  0.23026600  0.49482600  0.98665300  1
loop_
_geom_bond_atom_site_label_1
_geom_bond_atom_site_label_2
_geom_bond_distance
_geom_bond_site_symmetry_2
Li0 O46 1.996957 1_564
Li0 O8 2.002506 1_555
Li0 O4 2.061710 1_555
Li0 O5 2.184454 1_555
Li1 O9 1.996015 1_555
Li1 O47 2.000330 1_554
Li1 O3 2.068068 1_555
Li1 O2 2.158454 1_555
Li2 O6 1.999409 1_555
Li2 O16 2.004764 1_555
Li2 O12 2.081081 1_555
Li2 O13 2.151001 1_555
Li3 O17 1.999409 1_545
Li3 O7 2.004764 1_555
Li3 O11 2.081081 1_555
Li3 O10 2.151001 1_555
Li4 O14 1.996015 1_565
Li4 O24 2.000330 1_555
Li4 O20 2.068068 1_555
Li4 O21 2.158454 1_555
Li5 O25 1.996957 1_555
Li5 O15 2.002506 1_555
Li5 O19 2.061710 1_555
Li5 O18 2.184454 1_555
Li6 O22 1.996957 1_555
Li6 O32 2.002506 1_555
Li6 O28 2.061710 1_555
Li6 O29 2.184454 1_555
Li7 O33 1.996015 1_545
Li7 O23 2.000330 1_555
Li7 O27 2.068068 1_555
Li7 O26 2.158454 1_555
Li8 O30 1.999409 1_565
Li8 O40 2.004764 1_555
Li8 O36 2.081081 1_555
Li8 O37 2.151001 1_555
Li9 O41 1.999409 1_555
Li9 O31 2.004764 1_555
Li9 O35 2.081081 1_555
Li9 O34 2.151001 1_555
Li10 O38 1.996015 1_555
Li10 O0 2.000330 1_556
Li10 O44 2.068068 1_555
Li10 O45 2.158454 1_555
Li11 O1 1.996957 1_546
Li11 O39 2.002506 1_555
Li11 O43 2.061710 1_555
Li11 O42 2.184454 1_555
O0 P0 1.532935 1_555
O0 V0 2.161645 1_555
O1 P1 1.533443 1_565
O1 V11 2.162201 1_554
O2 P1 1.579834 1_555
O2 V2 2.208018 1_555
O2 V0 2.217688 1_555
O3 P1 1.586270 1_555
O3 V2 2.204589 1_455
O3 V0 2.229893 1_455
O4 P0 1.586075 1_555
O4 V11 2.206259 1_654
O4 V1 2.236452 1_655
O5 P0 1.579257 1_555
O5 V11 2.201048 1_554
O5 V1 2.211941 1_555
O6 P0 1.533093 1_555
O6 V2 2.160546 1_555
O7 P1 1.531831 1_555
O7 V1 2.159163 1_545
O8 P2 1.532165 1_555
O8 V2 2.158490 1_565
O9 P3 1.533304 1_555
O9 V1 2.160974 1_555
O10 P3 1.582130 1_555
O10 V4 2.204224 1_555
O10 V2 2.214286 1_555
O11 P3 1.583642 1_555
O11 V4 2.209379 1_455
O11 V2 2.234007 1_455
O12 P2 1.583642 1_555
O12 V1 2.209379 1_555
O12 V3 2.234007 1_555
O13 P2 1.582130 1_555
O13 V1 2.204224 1_655
O13 V3 2.214286 1_655
O14 P2 1.533304 1_545
O14 V4 2.160974 1_555
O15 P3 1.532165 1_555
O15 V3 2.158490 1_555
O16 P4 1.531831 1_555
O16 V4 2.159163 1_555
O17 P5 1.533093 1_565
O17 V3 2.160546 1_555
O18 P5 1.579257 1_555
O18 V6 2.201048 1_455
O18 V4 2.211941 1_455
O19 P5 1.586075 1_555
O19 V6 2.206259 1_555
O19 V4 2.236452 1_555
O20 P4 1.586270 1_555
O20 V3 2.204589 1_555
O20 V5 2.229893 1_555
O21 P4 1.579834 1_555
O21 V3 2.208018 1_655
O21 V5 2.217688 1_655
O22 P4 1.533443 1_555
O22 V6 2.162201 1_555
O23 P5 1.532935 1_555
O23 V5 2.161645 1_545
O24 P6 1.532935 1_555
O24 V6 2.161645 1_565
O25 P7 1.533443 1_555
O25 V5 2.162201 1_555
O26 P7 1.579834 1_555
O26 V8 2.208018 1_555
O26 V6 2.217688 1_555
O27 P7 1.586270 1_555
O27 V8 2.204589 1_455
O27 V6 2.229893 1_455
O28 P6 1.586075 1_555
O28 V5 2.206259 1_655
O28 V7 2.236452 1_655
O29 P6 1.579257 1_555
O29 V5 2.201048 1_555
O29 V7 2.211941 1_555
O30 P6 1.533093 1_545
O30 V8 2.160546 1_555
O31 P7 1.531831 1_555
O31 V7 2.159163 1_555
O32 P8 1.532165 1_555
O32 V8 2.158490 1_555
O33 P9 1.533304 1_565
O33 V7 2.160974 1_555
O34 P9 1.582130 1_555
O34 V10 2.204224 1_555
O34 V8 2.214286 1_555
O35 P9 1.583642 1_555
O35 V10 2.209379 1_455
O35 V8 2.234007 1_455
O36 P8 1.583642 1_555
O36 V7 2.209379 1_555
O36 V9 2.234007 1_555
O37 P8 1.582130 1_555
O37 V7 2.204224 1_655
O37 V9 2.214286 1_655
O38 P8 1.533304 1_555
O38 V10 2.160974 1_555
O39 P9 1.532165 1_555
O39 V9 2.158490 1_545
O40 P10 1.531831 1_555
O40 V10 2.159163 1_565
O41 P11 1.533093 1_555
O41 V9 2.160546 1_555
O42 P11 1.579257 1_555
O42 V0 2.201048 1_456
O42 V10 2.211941 1_455
O43 P11 1.586075 1_555
O43 V0 2.206259 1_556
O43 V10 2.236452 1_555
O44 P10 1.586270 1_555
O44 V9 2.204589 1_555
O44 V11 2.229893 1_555
O45 P10 1.579834 1_555
O45 V9 2.208018 1_655
O45 V11 2.217688 1_655
O46 P10 1.533443 1_545
O46 V0 2.162201 1_556
O47 P11 1.532935 1_555
O47 V11 2.161645 1_555
