# generated using pymatgen
data_Mg7Co17O32
_symmetry_space_group_name_H-M   'P 1'
_cell_length_a   5.79072374
_cell_length_b   5.79072374
_cell_length_c   19.26571748
_cell_angle_alpha   80.84935865
_cell_angle_beta   80.84935865
_cell_angle_gamma   60.03750362
_symmetry_Int_Tables_number   1
_chemical_formula_structural   Mg7Co17O32
_chemical_formula_sum   'Mg7 Co17 O32'
_cell_volume   550.16620565
_cell_formula_units_Z   1
loop_
 _symmetry_equiv_pos_site_id
 _symmetry_equiv_pos_as_xyz
  1  'x, y, z'
loop_
 _atom_site_type_symbol
 _atom_site_label
 _atom_site_symmetry_multiplicity
 _atom_site_fract_x
 _atom_site_fract_y
 _atom_site_fract_z
 _atom_site_occupancy
  Mg  Mg0  1  0.62521600  0.62521600  0.62513500  1
  Mg  Mg1  1  0.75023400  0.75023400  0.75102100  1
  Mg  Mg2  1  0.37478400  0.37478400  0.37486500  1
  Mg  Mg3  1  0.24976600  0.24976600  0.24897900  1
  Mg  Mg4  1  0.50000000  0.50000000  0.50000000  1
  Mg  Mg5  1  0.87643000  0.87643000  0.87602700  1
  Mg  Mg6  1  0.12357000  0.12357000  0.12397300  1
  Co  Co0  1  0.10064500  0.10064500  0.71683400  1
  Co  Co1  1  0.14934200  0.14934200  0.53363500  1
  Co  Co2  1  0.40092200  0.40092200  0.78335100  1
  Co  Co3  1  0.62509000  0.12479700  0.62516700  1
  Co  Co4  1  0.12479700  0.62509000  0.62516700  1
  Co  Co5  1  0.37491000  0.87520300  0.37483300  1
  Co  Co6  1  0.87520300  0.37491000  0.37483300  1
  Co  Co7  1  0.85065800  0.85065800  0.46636500  1
  Co  Co8  1  0.89935500  0.89935500  0.28316600  1
  Co  Co9  1  0.12257800  0.62650800  0.12396700  1
  Co  Co10  1  0.62650800  0.12257800  0.12396700  1
  Co  Co11  1  0.59907800  0.59907800  0.21664900  1
  Co  Co12  1  0.34904700  0.34904700  0.96918200  1
  Co  Co13  1  0.00000000  0.00000000  0.00000000  1
  Co  Co14  1  0.65095300  0.65095300  0.03081800  1
  Co  Co15  1  0.87742200  0.37349200  0.87603300  1
  Co  Co16  1  0.37349200  0.87742200  0.87603300  1
  O  O0  1  0.30956900  0.79205400  0.56648700  1
  O  O1  1  0.79205400  0.30956900  0.56648700  1
  O  O2  1  0.94008900  0.45828300  0.68410100  1
  O  O3  1  0.45828300  0.94008900  0.68410100  1
  O  O4  1  0.93252900  0.93252900  0.68108800  1
  O  O5  1  0.82020500  0.82020500  0.56836800  1
  O  O6  1  0.68275000  0.68275000  0.43067700  1
  O  O7  1  0.42977600  0.42977600  0.68186800  1
  O  O8  1  0.31725000  0.31725000  0.56932300  1
  O  O9  1  0.17979500  0.17979500  0.43163200  1
  O  O10  1  0.05991100  0.54171700  0.31589900  1
  O  O11  1  0.54171700  0.05991100  0.31589900  1
  O  O12  1  0.69043100  0.20794600  0.43351300  1
  O  O13  1  0.20794600  0.69043100  0.43351300  1
  O  O14  1  0.57022400  0.57022400  0.31813200  1
  O  O15  1  0.43366200  0.43366200  0.17959100  1
  O  O16  1  0.31975900  0.31975900  0.07042800  1
  O  O17  1  0.06747100  0.06747100  0.31891200  1
  O  O18  1  0.82680900  0.82680900  0.06525300  1
  O  O19  1  0.92978100  0.92978100  0.18114900  1
  O  O20  1  0.81871000  0.27635100  0.06212500  1
  O  O21  1  0.27635100  0.81871000  0.06212500  1
  O  O22  1  0.95542800  0.44144800  0.18227800  1
  O  O23  1  0.44144800  0.95542800  0.18227800  1
  O  O24  1  0.18129000  0.72364900  0.93787500  1
  O  O25  1  0.72364900  0.18129000  0.93787500  1
  O  O26  1  0.17319100  0.17319100  0.93474700  1
  O  O27  1  0.07021900  0.07021900  0.81885100  1
  O  O28  1  0.56633800  0.56633800  0.82040900  1
  O  O29  1  0.68024100  0.68024100  0.92957200  1
  O  O30  1  0.55855200  0.04457200  0.81772200  1
  O  O31  1  0.04457200  0.55855200  0.81772200  1
loop_
_geom_bond_atom_site_label_1
_geom_bond_atom_site_label_2
_geom_bond_distance
_geom_bond_site_symmetry_2
Mg0 O0 2.024050 1_555
Mg0 O1 2.024050 1_555
Mg0 O3 2.024486 1_555
Mg0 O2 2.024486 1_555
Mg0 O5 2.057642 1_555
Mg0 O7 2.061267 1_555
Mg1 O2 2.028526 1_555
Mg1 O3 2.028526 1_555
Mg1 O30 2.035116 1_565
Mg1 O31 2.035116 1_655
Mg1 O4 2.062100 1_555
Mg1 O28 2.069347 1_555
Mg2 O13 2.024050 1_555
Mg2 O12 2.024050 1_555
Mg2 O10 2.024486 1_555
Mg2 O11 2.024486 1_555
Mg2 O9 2.057642 1_555
Mg2 O14 2.061267 1_555
Mg3 O10 2.028526 1_555
Mg3 O11 2.028526 1_555
Mg3 O23 2.035116 1_545
Mg3 O22 2.035116 1_455
Mg3 O17 2.062100 1_555
Mg3 O15 2.069347 1_555
Mg4 O1 2.023330 1_555
Mg4 O0 2.023330 1_555
Mg4 O12 2.023330 1_555
Mg4 O13 2.023330 1_555
Mg4 O6 2.059874 1_555
Mg4 O8 2.059874 1_555
Mg5 O24 2.023038 1_655
Mg5 O25 2.023038 1_565
Mg5 O30 2.029208 1_565
Mg5 O31 2.029208 1_655
Mg5 O29 2.046753 1_555
Mg5 O27 2.050240 1_665
Mg6 O20 2.023038 1_455
Mg6 O21 2.023038 1_545
Mg6 O23 2.029208 1_545
Mg6 O22 2.029208 1_455
Mg6 O16 2.046753 1_555
Mg6 O19 2.050240 1_445
Co0 O3 1.843604 1_545
Co0 O2 1.843604 1_455
Co0 O27 1.932803 1_555
Co0 O4 1.934646 1_445
Co1 O1 1.842513 1_455
Co1 O0 1.842513 1_545
Co1 O8 1.932116 1_555
Co1 O9 1.932529 1_555
Co2 O30 1.845539 1_555
Co2 O31 1.845539 1_555
Co2 O28 1.922578 1_555
Co2 O7 1.923148 1_555
Co3 O1 1.912746 1_555
Co3 O3 1.913922 1_545
Co3 O5 1.953224 1_545
Co3 O7 1.953690 1_555
Co3 O4 1.954071 1_545
Co3 O8 1.954862 1_555
Co4 O0 1.912746 1_555
Co4 O2 1.913922 1_455
Co4 O5 1.953224 1_455
Co4 O7 1.953690 1_555
Co4 O4 1.954071 1_455
Co4 O8 1.954862 1_555
Co5 O13 1.912746 1_555
Co5 O11 1.913922 1_565
Co5 O9 1.953224 1_565
Co5 O14 1.953690 1_555
Co5 O17 1.954071 1_565
Co5 O6 1.954862 1_555
Co6 O12 1.912746 1_555
Co6 O10 1.913922 1_655
Co6 O9 1.953224 1_655
Co6 O14 1.953690 1_555
Co6 O17 1.954071 1_655
Co6 O6 1.954862 1_555
Co7 O13 1.842513 1_655
Co7 O12 1.842513 1_565
Co7 O6 1.932116 1_555
Co7 O5 1.932529 1_555
Co8 O10 1.843604 1_655
Co8 O11 1.843604 1_565
Co8 O19 1.932803 1_555
Co8 O17 1.934646 1_665
Co9 O22 1.911706 1_455
Co9 O21 1.918830 1_555
Co9 O16 1.924878 1_555
Co9 O18 1.942387 1_455
Co9 O19 1.951904 1_455
Co9 O15 1.965835 1_555
Co10 O23 1.911706 1_545
Co10 O20 1.918830 1_555
Co10 O16 1.924878 1_555
Co10 O18 1.942387 1_545
Co10 O19 1.951904 1_545
Co10 O15 1.965835 1_555
Co11 O22 1.845539 1_555
Co11 O23 1.845539 1_555
Co11 O15 1.922578 1_555
Co11 O14 1.923148 1_555
Co12 O24 1.917898 1_555
Co12 O25 1.917898 1_555
Co12 O16 1.918481 1_556
Co12 O26 1.994919 1_555
Co13 O25 1.904462 1_454
Co13 O24 1.904462 1_544
Co13 O20 1.904462 1_455
Co13 O21 1.904462 1_545
Co13 O18 1.947996 1_445
Co13 O26 1.947996 1_554
Co14 O21 1.917898 1_555
Co14 O20 1.917898 1_555
Co14 O29 1.918481 1_554
Co14 O18 1.994919 1_555
Co15 O31 1.911706 1_655
Co15 O25 1.918830 1_555
Co15 O29 1.924878 1_555
Co15 O26 1.942387 1_655
Co15 O27 1.951904 1_655
Co15 O28 1.965835 1_555
Co16 O30 1.911706 1_565
Co16 O24 1.918830 1_555
Co16 O29 1.924878 1_555
Co16 O26 1.942387 1_565
Co16 O27 1.951904 1_565
Co16 O28 1.965835 1_555
