# generated using pymatgen
data_Li2Cr(PO3)4
_symmetry_space_group_name_H-M   'P 1'
_cell_length_a   12.90280000
_cell_length_b   8.14183200
_cell_length_c   11.81364505
_cell_angle_alpha   58.93292189
_cell_angle_beta   90.00000000
_cell_angle_gamma   90.00000000
_symmetry_Int_Tables_number   1
_chemical_formula_structural   Li2Cr(PO3)4
_chemical_formula_sum   'Li8 Cr4 P16 O48'
_cell_volume   1063.04024580
_cell_formula_units_Z   4
loop_
 _symmetry_equiv_pos_site_id
 _symmetry_equiv_pos_as_xyz
  1  'x, y, z'
loop_
 _atom_site_type_symbol
 _atom_site_label
 _atom_site_symmetry_multiplicity
 _atom_site_fract_x
 _atom_site_fract_y
 _atom_site_fract_z
 _atom_site_occupancy
  Li  Li0  1  0.07678000  0.59011300  0.57243200  1
  Li  Li1  1  0.70045000  0.90308900  0.16122600  1
  Li  Li2  1  0.57678000  0.40988700  0.92756800  1
  Li  Li3  1  0.20045000  0.09691100  0.33877400  1
  Li  Li4  1  0.79955000  0.90308900  0.66122600  1
  Li  Li5  1  0.42322000  0.59011300  0.07243200  1
  Li  Li6  1  0.29955000  0.09691100  0.83877400  1
  Li  Li7  1  0.92322000  0.40988700  0.42756800  1
  Cr  Cr0  1  0.14889400  0.25404800  0.98252400  1
  Cr  Cr1  1  0.64889400  0.74595200  0.51747600  1
  Cr  Cr2  1  0.35110600  0.25404800  0.48252400  1
  Cr  Cr3  1  0.85110600  0.74595200  0.01747600  1
  P  P0  1  0.82089800  0.39381300  0.68494700  1
  P  P1  1  0.42126700  0.55016500  0.61416600  1
  P  P2  1  0.32931100  0.90550700  0.14754800  1
  P  P3  1  0.92126700  0.44983500  0.88583400  1
  P  P4  1  0.92989600  0.08052000  0.13746300  1
  P  P5  1  0.32089800  0.60618700  0.81505300  1
  P  P6  1  0.42989600  0.91948000  0.36253700  1
  P  P7  1  0.82931100  0.09449300  0.35245200  1
  P  P8  1  0.17068900  0.90550700  0.64754800  1
  P  P9  1  0.57010400  0.08052000  0.63746300  1
  P  P10  1  0.67910200  0.39381300  0.18494700  1
  P  P11  1  0.07010400  0.91948000  0.86253700  1
  P  P12  1  0.07873300  0.55016500  0.11416600  1
  P  P13  1  0.67068900  0.09449300  0.85245200  1
  P  P14  1  0.57873300  0.44983500  0.38583400  1
  P  P15  1  0.17910200  0.60618700  0.31505300  1
  O  O0  1  0.63961100  0.20067900  0.91924100  1
  O  O1  1  0.36631100  0.36430300  0.65869600  1
  O  O2  1  0.90182600  0.41279500  0.58789800  1
  O  O3  1  0.87314100  0.33169500  0.82357600  1
  O  O4  1  0.24605300  0.79886700  0.26827400  1
  O  O5  1  0.84942900  0.94407800  0.14215000  1
  O  O6  1  0.53666500  0.54922000  0.63390400  1
  O  O7  1  0.74959700  0.55722900  0.65252600  1
  O  O8  1  0.24959700  0.44277100  0.84747400  1
  O  O9  1  0.03666500  0.45078000  0.86609600  1
  O  O10  1  0.39261900  0.69998900  0.46216800  1
  O  O11  1  0.37314100  0.66830500  0.67642400  1
  O  O12  1  0.04096800  0.05576500  0.11170500  1
  O  O13  1  0.42868900  0.92058400  0.22460900  1
  O  O14  1  0.78626600  0.89636000  0.44139100  1
  O  O15  1  0.28626600  0.10364000  0.05860900  1
  O  O16  1  0.92868900  0.07941600  0.27539100  1
  O  O17  1  0.40182600  0.58720500  0.91210200  1
  O  O18  1  0.86631100  0.63569700  0.84130400  1
  O  O19  1  0.54096800  0.94423500  0.38829500  1
  O  O20  1  0.13961100  0.79932100  0.58075900  1
  O  O21  1  0.89261900  0.30001100  0.03783200  1
  O  O22  1  0.25394700  0.79886700  0.76827400  1
  O  O23  1  0.65057100  0.94407800  0.64215000  1
  O  O24  1  0.34942900  0.05592200  0.35785000  1
  O  O25  1  0.74605300  0.20113300  0.23172600  1
  O  O26  1  0.10738100  0.69998900  0.96216800  1
  O  O27  1  0.86038900  0.20067900  0.41924100  1
  O  O28  1  0.45903200  0.05576500  0.61170500  1
  O  O29  1  0.13368900  0.36430300  0.15869600  1
  O  O30  1  0.59817400  0.41279500  0.08789800  1
  O  O31  1  0.07131100  0.92058400  0.72460900  1
  O  O32  1  0.71373400  0.89636000  0.94139100  1
  O  O33  1  0.21373400  0.10364000  0.55860900  1
  O  O34  1  0.57131100  0.07941600  0.77539100  1
  O  O35  1  0.95903200  0.94423500  0.88829500  1
  O  O36  1  0.62685900  0.33169500  0.32357600  1
  O  O37  1  0.60738100  0.30001100  0.53783200  1
  O  O38  1  0.96333500  0.54922000  0.13390400  1
  O  O39  1  0.75040300  0.55722900  0.15252600  1
  O  O40  1  0.25040300  0.44277100  0.34747400  1
  O  O41  1  0.46333500  0.45078000  0.36609600  1
  O  O42  1  0.15057100  0.05592200  0.85785000  1
  O  O43  1  0.75394700  0.20113300  0.73172600  1
  O  O44  1  0.12685900  0.66830500  0.17642400  1
  O  O45  1  0.09817400  0.58720500  0.41210200  1
  O  O46  1  0.63368900  0.63569700  0.34130400  1
  O  O47  1  0.36038900  0.79932100  0.08075900  1
loop_
_geom_bond_atom_site_label_1
_geom_bond_atom_site_label_2
_geom_bond_distance
_geom_bond_site_symmetry_2
Li0 O45 1.926289 1_555
Li0 O20 1.934217 1_555
Li1 O5 1.944111 1_555
Li1 O46 2.286335 1_555
Li2 O30 1.926289 1_556
Li2 O0 1.934217 1_555
Li3 O24 1.944111 1_555
Li3 O29 2.286335 1_555
Li4 O23 1.944111 1_555
Li4 O18 2.286335 1_555
Li5 O17 1.926289 1_554
Li5 O47 1.934217 1_555
Li6 O42 1.944111 1_555
Li6 O1 2.286335 1_555
Li7 O2 1.926289 1_555
Li7 O27 1.934217 1_555
Cr0 O8 2.016084 1_555
Cr0 O9 2.068952 1_555
Cr0 O15 2.076829 1_556
Cr0 O12 2.081263 1_556
Cr0 O29 2.665345 1_556
Cr0 O42 2.687747 1_555
Cr1 O7 2.016084 1_555
Cr1 O6 2.068952 1_555
Cr1 O14 2.076829 1_555
Cr1 O19 2.081263 1_555
Cr1 O46 2.665345 1_555
Cr1 O23 2.687747 1_555
Cr2 O40 2.016084 1_555
Cr2 O41 2.068952 1_555
Cr2 O33 2.076829 1_555
Cr2 O28 2.081263 1_555
Cr2 O1 2.665345 1_555
Cr2 O24 2.687747 1_555
Cr3 O39 2.016084 1_555
Cr3 O38 2.068952 1_555
Cr3 O32 2.076829 1_554
Cr3 O35 2.081263 1_554
Cr3 O18 2.665345 1_554
Cr3 O5 2.687747 1_555
O0 P13 1.494934 1_555
O1 P1 1.499295 1_555
O2 P0 1.498608 1_555
O3 P0 1.592930 1_555
O3 P3 1.606829 1_555
O4 P15 1.617998 1_555
O4 P2 1.632159 1_555
O5 P4 1.500539 1_565
O6 P1 1.506510 1_555
O7 P0 1.495782 1_555
O8 P5 1.495782 1_555
O9 P3 1.506510 1_455
O10 P1 1.608827 1_555
O10 P6 1.624623 1_555
O11 P5 1.592930 1_555
O11 P1 1.606829 1_555
O12 P4 1.500136 1_455
O13 P2 1.613493 1_555
O13 P6 1.624887 1_555
O14 P7 1.505128 1_565
O15 P2 1.505128 1_545
O16 P7 1.613493 1_555
O16 P4 1.624887 1_555
O17 P5 1.498608 1_555
O18 P3 1.499295 1_555
O19 P6 1.500136 1_555
O20 P8 1.494934 1_555
O21 P3 1.608827 1_554
O21 P4 1.624623 1_555
O22 P5 1.617998 1_555
O22 P8 1.632159 1_555
O23 P9 1.500539 1_565
O24 P6 1.500539 1_545
O25 P10 1.617998 1_555
O25 P7 1.632159 1_555
O26 P12 1.608827 1_556
O26 P11 1.624623 1_555
O27 P7 1.494934 1_555
O28 P9 1.500136 1_555
O29 P12 1.499295 1_555
O30 P10 1.498608 1_555
O31 P8 1.613493 1_555
O31 P11 1.624887 1_555
O32 P13 1.505128 1_565
O33 P8 1.505128 1_545
O34 P13 1.613493 1_555
O34 P9 1.624887 1_555
O35 P11 1.500136 1_655
O36 P10 1.592930 1_555
O36 P14 1.606829 1_555
O37 P14 1.608827 1_555
O37 P9 1.624623 1_555
O38 P12 1.506510 1_655
O39 P10 1.495782 1_555
O40 P15 1.495782 1_555
O41 P14 1.506510 1_555
O42 P11 1.500539 1_545
O43 P0 1.617998 1_555
O43 P13 1.632159 1_555
O44 P15 1.592930 1_555
O44 P12 1.606829 1_555
O45 P15 1.498608 1_555
O46 P14 1.499295 1_555
O47 P2 1.494934 1_555
