# generated using pymatgen
data_LiFePO4
_symmetry_space_group_name_H-M   'P 1'
_cell_length_a   5.65995212
_cell_length_b   6.29747737
_cell_length_c   9.21601028
_cell_angle_alpha   103.47308365
_cell_angle_beta   82.53230075
_cell_angle_gamma   103.76904247
_symmetry_Int_Tables_number   1
_chemical_formula_structural   LiFePO4
_chemical_formula_sum   'Li4 Fe4 P4 O16'
_cell_volume   309.30288236
_cell_formula_units_Z   4
loop_
 _symmetry_equiv_pos_site_id
 _symmetry_equiv_pos_as_xyz
  1  'x, y, z'
loop_
 _atom_site_type_symbol
 _atom_site_label
 _atom_site_symmetry_multiplicity
 _atom_site_fract_x
 _atom_site_fract_y
 _atom_site_fract_z
 _atom_site_occupancy
  Li  Li0  1  0.34412100  0.36931000  0.10989600  1
  Li  Li1  1  0.65478200  0.63488100  0.88857200  1
  Li  Li2  1  0.88767600  0.46263600  0.25100200  1
  Li  Li3  1  0.11005100  0.53200400  0.74840600  1
  Fe  Fe0  1  0.33720000  0.07213300  0.80159900  1
  Fe  Fe1  1  0.77176300  0.82964200  0.58558200  1
  Fe  Fe2  1  0.67153900  0.92377200  0.20082900  1
  Fe  Fe3  1  0.23380000  0.17320800  0.41398700  1
  P  P0  1  0.18856000  0.82169000  0.07504700  1
  P  P1  1  0.80962900  0.17995900  0.92525700  1
  P  P2  1  0.30398800  0.69125900  0.44720200  1
  P  P3  1  0.69671500  0.30825700  0.55316300  1
  O  O0  1  0.39026300  0.68768600  0.07418100  1
  O  O1  1  0.61297800  0.31943300  0.92628000  1
  O  O2  1  0.93504600  0.70895000  0.13850700  1
  O  O3  1  0.06591700  0.28693900  0.86287600  1
  O  O4  1  0.82805200  0.16542100  0.08962100  1
  O  O5  1  0.16379100  0.83068500  0.91003800  1
  O  O6  1  0.27894100  0.06060400  0.17121500  1
  O  O7  1  0.71084600  0.94351100  0.82651800  1
  O  O8  1  0.11989300  0.83985900  0.44755700  1
  O  O9  1  0.88446000  0.16306800  0.55218000  1
  O  O10  1  0.56579600  0.79618700  0.38450100  1
  O  O11  1  0.43735000  0.20213500  0.61770500  1
  O  O12  1  0.20625200  0.46018400  0.34439800  1
  O  O13  1  0.79377800  0.54111400  0.65408200  1
  O  O14  1  0.65603900  0.31792000  0.39254300  1
  O  O15  1  0.34077600  0.67755100  0.60725600  1
loop_
_geom_bond_atom_site_label_1
_geom_bond_atom_site_label_2
_geom_bond_distance
_geom_bond_site_symmetry_2
Li0 O0 2.057268 1_555
Li0 O6 2.085954 1_555
Li0 O1 2.142042 1_554
Li0 O12 2.192027 1_555
Li1 O1 2.049296 1_555
Li1 O7 2.093439 1_555
Li1 O0 2.141117 1_556
Li1 O13 2.195989 1_555
Li2 O14 1.947214 1_555
Li2 O2 2.007980 1_555
Li2 O4 2.088495 1_555
Li2 O12 2.101247 1_655
Li3 O15 1.944715 1_555
Li3 O3 2.015870 1_555
Li3 O5 2.095040 1_555
Li3 O13 2.107129 1_455
Fe0 O5 2.004184 1_545
Fe0 O11 2.009905 1_555
Fe0 O1 2.158080 1_555
Fe0 O3 2.216702 1_555
Fe0 O7 2.491912 1_545
Fe0 O15 2.706209 1_545
Fe1 O13 2.092432 1_555
Fe1 O9 2.126770 1_565
Fe1 O7 2.177223 1_555
Fe1 O8 2.197949 1_655
Fe1 O10 2.258388 1_555
Fe1 O15 2.399603 1_555
Fe2 O4 2.000006 1_565
Fe2 O10 2.002642 1_555
Fe2 O0 2.157529 1_555
Fe2 O2 2.181777 1_555
Fe2 O6 2.633127 1_565
Fe3 O12 2.098068 1_555
Fe3 O8 2.127156 1_545
Fe3 O6 2.184579 1_555
Fe3 O9 2.204278 1_455
Fe3 O11 2.277790 1_555
Fe3 O14 2.346356 1_555
O0 P0 1.571184 1_555
O1 P1 1.571364 1_555
O2 P0 1.547711 1_655
O3 P1 1.545019 1_455
O4 P1 1.556932 1_554
O5 P0 1.560385 1_556
O6 P0 1.562366 1_545
O7 P1 1.569211 1_565
O8 P2 1.556690 1_555
O9 P3 1.556078 1_555
O10 P2 1.567033 1_555
O11 P3 1.564193 1_555
O12 P2 1.559434 1_555
O13 P3 1.559168 1_555
O14 P3 1.544393 1_555
O15 P2 1.540887 1_555
