# generated using pymatgen
data_Na3CuO2
_symmetry_space_group_name_H-M   'P 1'
_cell_length_a   9.36361486
_cell_length_b   9.36361486
_cell_length_c   4.53007791
_cell_angle_alpha   90.00000000
_cell_angle_beta   90.00000000
_cell_angle_gamma   90.00000000
_symmetry_Int_Tables_number   1
_chemical_formula_structural   Na3CuO2
_chemical_formula_sum   'Na12 Cu4 O8'
_cell_volume   397.18492404
_cell_formula_units_Z   4
loop_
 _symmetry_equiv_pos_site_id
 _symmetry_equiv_pos_as_xyz
  1  'x, y, z'
loop_
 _atom_site_type_symbol
 _atom_site_label
 _atom_site_symmetry_multiplicity
 _atom_site_fract_x
 _atom_site_fract_y
 _atom_site_fract_z
 _atom_site_occupancy
  Na  Na0  1  0.65262626  0.97830025  0.50000000  1
  Na  Na1  1  0.52169975  0.15262626  -0.00000000  1
  Na  Na2  1  0.85285659  0.14714341  -0.00000000  1
  Na  Na3  1  0.35285659  0.35285659  0.50000000  1
  Na  Na4  1  0.02169975  0.34737374  0.50000000  1
  Na  Na5  1  0.15262626  0.52169975  0.00000000  1
  Na  Na6  1  0.84737374  0.47830025  -0.00000000  1
  Na  Na7  1  0.97830025  0.65262626  0.50000000  1
  Na  Na8  1  0.64714341  0.64714341  0.50000000  1
  Na  Na9  1  0.14714341  0.85285659  -0.00000000  1
  Na  Na10  1  0.47830025  0.84737374  0.00000000  1
  Na  Na11  1  0.34737374  0.02169975  0.50000000  1
  Cu  Cu0  1  0.17171951  0.17171951  0.00000000  1
  Cu  Cu1  1  0.67171951  0.32828049  0.50000000  1
  Cu  Cu2  1  0.32828049  0.67171951  0.50000000  1
  Cu  Cu3  1  0.82828049  0.82828049  -0.00000000  1
  O  O0  1  0.30332406  0.03323773  -0.00000000  1
  O  O1  1  0.53323773  0.19667594  0.50000000  1
  O  O2  1  0.03323773  0.30332406  -0.00000000  1
  O  O3  1  0.80332406  0.46676227  0.50000000  1
  O  O4  1  0.19667594  0.53323773  0.50000000  1
  O  O5  1  0.96676227  0.69667594  -0.00000000  1
  O  O6  1  0.46676227  0.80332406  0.50000000  1
  O  O7  1  0.69667594  0.96676227  -0.00000000  1
loop_
_geom_bond_atom_site_label_1
_geom_bond_atom_site_label_2
_geom_bond_distance
_geom_bond_site_symmetry_2
Na0 O7 2.304821 1_556
Na0 O7 2.304821 1_555
Na0 O1 2.330422 1_565
Na0 O6 2.390237 1_555
Na1 O1 2.304821 1_554
Na1 O1 2.304821 1_555
Na1 O0 2.330422 1_555
Na1 O7 2.390237 1_545
Na2 O2 2.234154 1_655
Na2 O7 2.234154 1_545
Na3 O4 2.234154 1_555
Na3 O1 2.234154 1_555
Na4 O2 2.304821 1_556
Na4 O2 2.304821 1_555
Na4 O3 2.330422 1_455
Na4 O4 2.390237 1_555
Na5 O4 2.304821 1_554
Na5 O4 2.304821 1_555
Na5 O2 2.330422 1_555
Na5 O5 2.390237 1_455
Na6 O3 2.304821 1_554
Na6 O3 2.304821 1_555
Na6 O5 2.330422 1_555
Na6 O2 2.390237 1_655
Na7 O5 2.304821 1_555
Na7 O5 2.304821 1_556
Na7 O4 2.330422 1_655
Na7 O3 2.390237 1_555
Na8 O3 2.234154 1_555
Na8 O6 2.234154 1_555
Na9 O0 2.234154 1_565
Na9 O5 2.234154 1_455
Na10 O6 2.304821 1_554
Na10 O6 2.304821 1_555
Na10 O7 2.330422 1_555
Na10 O0 2.390237 1_565
Na11 O0 2.304821 1_556
Na11 O0 2.304821 1_555
Na11 O6 2.330422 1_545
Na11 O1 2.390237 1_555
Cu0 O2 1.788842 1_555
Cu0 O0 1.788842 1_555
Cu1 O1 1.788842 1_555
Cu1 O3 1.788842 1_555
Cu2 O4 1.788842 1_555
Cu2 O6 1.788842 1_555
Cu3 O7 1.788842 1_555
Cu3 O5 1.788842 1_555
