# generated using pymatgen
data_BaMn4O8
_symmetry_space_group_name_H-M   'P 1'
_cell_length_a   5.95276200
_cell_length_b   12.96342489
_cell_length_c   12.97337575
_cell_angle_alpha   89.20245356
_cell_angle_beta   83.17151684
_cell_angle_gamma   83.50132277
_symmetry_Int_Tables_number   1
_chemical_formula_structural   BaMn4O8
_chemical_formula_sum   'Ba6 Mn24 O48'
_cell_volume   987.64304860
_cell_formula_units_Z   6
loop_
 _symmetry_equiv_pos_site_id
 _symmetry_equiv_pos_as_xyz
  1  'x, y, z'
loop_
 _atom_site_type_symbol
 _atom_site_label
 _atom_site_symmetry_multiplicity
 _atom_site_fract_x
 _atom_site_fract_y
 _atom_site_fract_z
 _atom_site_occupancy
  Ba  Ba0  1  0.17031200  0.85522000  0.51628100  1
  Ba  Ba1  1  0.40378800  0.48373600  0.85491400  1
  Ba  Ba2  1  0.50000000  0.00000000  0.00000000  1
  Ba  Ba3  1  0.00000000  0.00000000  0.00000000  1
  Ba  Ba4  1  0.59621200  0.51626400  0.14508600  1
  Ba  Ba5  1  0.82968800  0.14478000  0.48371900  1
  Mn  Mn0  1  0.57506700  0.71927400  0.97750200  1
  Mn  Mn1  1  0.07532300  0.71615300  0.98092000  1
  Mn  Mn2  1  0.85824500  0.78148600  0.78772600  1
  Mn  Mn3  1  0.35663500  0.78440500  0.78837300  1
  Mn  Mn4  1  0.18395700  0.62237500  0.63534300  1
  Mn  Mn5  1  0.68698900  0.62708900  0.63053800  1
  Mn  Mn6  1  0.43565400  0.98094200  0.28368200  1
  Mn  Mn7  1  0.93349100  0.97747800  0.28083000  1
  Mn  Mn8  1  0.99933800  0.63031100  0.37323000  1
  Mn  Mn9  1  0.49821900  0.63510100  0.37758100  1
  Mn  Mn10  1  0.24966000  0.78803800  0.21496000  1
  Mn  Mn11  1  0.74795600  0.78807100  0.21924800  1
  Mn  Mn12  1  0.25204400  0.21192900  0.78075200  1
  Mn  Mn13  1  0.75034000  0.21196200  0.78504000  1
  Mn  Mn14  1  0.50178100  0.36489900  0.62241900  1
  Mn  Mn15  1  0.00066200  0.36968900  0.62677000  1
  Mn  Mn16  1  0.06650900  0.02252200  0.71917000  1
  Mn  Mn17  1  0.56434600  0.01905800  0.71631800  1
  Mn  Mn18  1  0.81604300  0.37762500  0.36465700  1
  Mn  Mn19  1  0.31301100  0.37291100  0.36946200  1
  Mn  Mn20  1  0.14175500  0.21851400  0.21227400  1
  Mn  Mn21  1  0.64336500  0.21559500  0.21162700  1
  Mn  Mn22  1  0.42493300  0.28072600  0.02249800  1
  Mn  Mn23  1  0.92467700  0.28384700  0.01908000  1
  O  O0  1  0.30815700  0.81897100  0.94137900  1
  O  O1  1  0.81130400  0.81846100  0.94029300  1
  O  O2  1  0.09617500  0.87978500  0.76287600  1
  O  O3  1  0.58243400  0.87993400  0.76718300  1
  O  O4  1  0.85040700  0.99480500  0.62774900  1
  O  O5  1  0.33998500  0.00096400  0.62707600  1
  O  O6  1  0.60799200  0.68764200  0.82529400  1
  O  O7  1  0.13463700  0.68669400  0.82600800  1
  O  O8  1  0.40290900  0.72797800  0.64946200  1
  O  O9  1  0.91058800  0.72803900  0.64912600  1
  O  O10  1  0.65334100  0.37313100  0.99519500  1
  O  O11  1  0.16198900  0.37203800  0.99973100  1
  O  O12  1  0.45762200  0.52786600  0.64839200  1
  O  O13  1  0.95293300  0.52950900  0.64420000  1
  O  O14  1  0.71818400  0.94027800  0.18247300  1
  O  O15  1  0.22118100  0.94156800  0.18014800  1
  O  O16  1  0.72402000  0.64334700  0.47039100  1
  O  O17  1  0.21817400  0.64903600  0.47237700  1
  O  O18  1  0.47314000  0.23686400  0.87971100  1
  O  O19  1  0.96913300  0.23272600  0.87965000  1
  O  O20  1  0.45159400  0.82619500  0.31287500  1
  O  O21  1  0.97875800  0.82565500  0.31221600  1
  O  O22  1  0.23273100  0.35063300  0.72746200  1
  O  O23  1  0.72546700  0.35071600  0.72828200  1
  O  O24  1  0.27453300  0.64928400  0.27171800  1
  O  O25  1  0.76726900  0.64936700  0.27253800  1
  O  O26  1  0.54840600  0.17380500  0.68712500  1
  O  O27  1  0.02124200  0.17434500  0.68778400  1
  O  O28  1  0.52686000  0.76313600  0.12028900  1
  O  O29  1  0.03086700  0.76727400  0.12035000  1
  O  O30  1  0.27598000  0.35665300  0.52960900  1
  O  O31  1  0.78182600  0.35096400  0.52762300  1
  O  O32  1  0.28181600  0.05972200  0.81752700  1
  O  O33  1  0.77881900  0.05843200  0.81985200  1
  O  O34  1  0.54237800  0.47213400  0.35160800  1
  O  O35  1  0.04706700  0.47049100  0.35580000  1
  O  O36  1  0.34665900  0.62686900  0.00480500  1
  O  O37  1  0.83801100  0.62796200  0.00026900  1
  O  O38  1  0.59709100  0.27202200  0.35053800  1
  O  O39  1  0.08941200  0.27196100  0.35087400  1
  O  O40  1  0.39200800  0.31235800  0.17470600  1
  O  O41  1  0.86536300  0.31330600  0.17399200  1
  O  O42  1  0.14959300  0.00519500  0.37225100  1
  O  O43  1  0.66001500  0.99903600  0.37292400  1
  O  O44  1  0.41756600  0.12006600  0.23281700  1
  O  O45  1  0.90382500  0.12021500  0.23712400  1
  O  O46  1  0.69184300  0.18102900  0.05862100  1
  O  O47  1  0.18869600  0.18153900  0.05970700  1
loop_
_geom_bond_atom_site_label_1
_geom_bond_atom_site_label_2
_geom_bond_distance
_geom_bond_site_symmetry_2
Ba0 O42 2.680667 1_565
Ba0 O17 2.716826 1_555
Ba0 O5 2.740187 1_565
Ba0 O8 2.756049 1_555
Ba0 O4 2.762237 1_455
Ba0 O9 2.818352 1_455
Ba0 O20 2.956878 1_555
Ba0 O21 3.049743 1_455
Ba0 O2 3.192440 1_555
Ba1 O36 2.672135 1_556
Ba1 O12 2.720883 1_555
Ba1 O11 2.729691 1_555
Ba1 O22 2.761452 1_555
Ba1 O10 2.768184 1_555
Ba1 O23 2.814709 1_555
Ba1 O7 2.964992 1_555
Ba1 O6 3.033218 1_555
Ba1 O18 3.196833 1_555
Ba2 O33 2.846678 1_554
Ba2 O15 2.846678 1_545
Ba2 O46 2.872742 1_555
Ba2 O0 2.872742 1_544
Ba2 O1 2.880040 1_544
Ba2 O47 2.880040 1_555
Ba2 O32 2.888395 1_554
Ba2 O14 2.888395 1_545
Ba3 O0 2.862535 1_544
Ba3 O46 2.862535 1_455
Ba3 O33 2.868130 1_454
Ba3 O15 2.868130 1_545
Ba3 O1 2.873340 1_444
Ba3 O47 2.873340 1_555
Ba3 O14 2.883808 1_445
Ba3 O32 2.883808 1_554
Ba4 O10 2.672135 1_554
Ba4 O34 2.720883 1_555
Ba4 O37 2.729691 1_555
Ba4 O25 2.761452 1_555
Ba4 O36 2.768184 1_555
Ba4 O24 2.814709 1_555
Ba4 O41 2.964992 1_555
Ba4 O40 3.033218 1_555
Ba4 O28 3.196833 1_555
Ba5 O4 2.680667 1_545
Ba5 O31 2.716826 1_555
Ba5 O43 2.740187 1_545
Ba5 O38 2.756049 1_555
Ba5 O42 2.762237 1_655
Ba5 O39 2.818352 1_655
Ba5 O26 2.956878 1_555
Ba5 O27 3.049743 1_655
Ba5 O45 3.192440 1_555
Mn0 O37 1.902423 1_556
Mn0 O36 1.910866 1_556
Mn0 O28 1.924352 1_556
Mn0 O6 2.004527 1_555
Mn0 O1 2.023483 1_555
Mn0 O0 2.027260 1_555
Mn1 O37 1.907598 1_456
Mn1 O29 1.913397 1_556
Mn1 O36 1.931419 1_556
Mn1 O7 2.032642 1_555
Mn1 O0 2.047139 1_555
Mn1 O1 2.052444 1_455
Mn2 O9 1.913876 1_555
Mn2 O3 2.003917 1_555
Mn2 O2 2.005567 1_655
Mn2 O1 2.022392 1_555
Mn2 O6 2.039063 1_555
Mn2 O7 2.045322 1_655
Mn3 O3 1.922313 1_555
Mn3 O2 1.928410 1_555
Mn3 O8 1.931766 1_555
Mn3 O6 1.941795 1_555
Mn3 O7 1.948708 1_555
Mn3 O0 2.020788 1_555
Mn4 O13 1.920176 1_455
Mn4 O12 1.947189 1_555
Mn4 O9 1.997350 1_455
Mn4 O8 2.018431 1_555
Mn4 O17 2.126982 1_555
Mn4 O7 2.594083 1_555
Mn5 O13 1.935188 1_555
Mn5 O12 1.971398 1_555
Mn5 O9 2.005439 1_555
Mn5 O8 2.009988 1_555
Mn5 O16 2.073415 1_555
Mn5 O6 2.628757 1_555
Mn6 O43 1.904038 1_555
Mn6 O44 1.907761 1_565
Mn6 O42 1.934537 1_565
Mn6 O20 2.030022 1_555
Mn6 O14 2.030748 1_555
Mn6 O15 2.066165 1_555
Mn7 O43 1.897249 1_555
Mn7 O42 1.915705 1_665
Mn7 O45 1.922800 1_565
Mn7 O21 1.998935 1_555
Mn7 O14 2.012314 1_555
Mn7 O15 2.039656 1_655
Mn8 O16 1.937892 1_555
Mn8 O17 1.972082 1_655
Mn8 O25 2.004692 1_555
Mn8 O24 2.011873 1_655
Mn8 O35 2.070940 1_655
Mn8 O21 2.636529 1_555
Mn9 O16 1.920640 1_555
Mn9 O17 1.942839 1_555
Mn9 O25 1.999359 1_555
Mn9 O24 2.016303 1_555
Mn9 O34 2.125749 1_555
Mn9 O20 2.600053 1_555
Mn10 O24 1.930883 1_555
Mn10 O29 1.934940 1_555
Mn10 O28 1.934960 1_555
Mn10 O21 1.945659 1_455
Mn10 O20 1.954087 1_555
Mn10 O15 2.027488 1_555
Mn11 O25 1.913576 1_555
Mn11 O29 1.986985 1_655
Mn11 O28 1.998642 1_555
Mn11 O14 2.016678 1_555
Mn11 O21 2.035101 1_555
Mn11 O20 2.035126 1_555
Mn12 O22 1.913576 1_555
Mn12 O19 1.986985 1_455
Mn12 O18 1.998642 1_555
Mn12 O32 2.016678 1_555
Mn12 O27 2.035101 1_555
Mn12 O26 2.035126 1_555
Mn13 O23 1.930883 1_555
Mn13 O19 1.934940 1_555
Mn13 O18 1.934960 1_555
Mn13 O27 1.945659 1_655
Mn13 O26 1.954087 1_555
Mn13 O33 2.027488 1_555
Mn14 O30 1.920640 1_555
Mn14 O31 1.942839 1_555
Mn14 O22 1.999359 1_555
Mn14 O23 2.016303 1_555
Mn14 O12 2.125749 1_555
Mn14 O26 2.600053 1_555
Mn15 O30 1.937892 1_555
Mn15 O31 1.972082 1_455
Mn15 O22 2.004692 1_555
Mn15 O23 2.011873 1_455
Mn15 O13 2.070940 1_455
Mn15 O27 2.636529 1_555
Mn16 O5 1.897249 1_555
Mn16 O4 1.915705 1_445
Mn16 O2 1.922800 1_545
Mn16 O27 1.998935 1_555
Mn16 O32 2.012314 1_555
Mn16 O33 2.039656 1_455
Mn17 O5 1.904038 1_555
Mn17 O3 1.907761 1_545
Mn17 O4 1.934537 1_545
Mn17 O26 2.030022 1_555
Mn17 O32 2.030748 1_555
Mn17 O33 2.066165 1_555
Mn18 O35 1.920176 1_655
Mn18 O34 1.947189 1_555
Mn18 O39 1.997350 1_655
Mn18 O38 2.018431 1_555
Mn18 O31 2.126982 1_555
Mn18 O41 2.594083 1_555
Mn19 O35 1.935188 1_555
Mn19 O34 1.971398 1_555
Mn19 O39 2.005439 1_555
Mn19 O38 2.009988 1_555
Mn19 O30 2.073415 1_555
Mn19 O40 2.628757 1_555
Mn20 O39 1.913876 1_555
Mn20 O44 2.003917 1_555
Mn20 O45 2.005567 1_455
Mn20 O47 2.022392 1_555
Mn20 O40 2.039063 1_555
Mn20 O41 2.045322 1_455
Mn21 O44 1.922313 1_555
Mn21 O45 1.928410 1_555
Mn21 O38 1.931766 1_555
Mn21 O40 1.941795 1_555
Mn21 O41 1.948708 1_555
Mn21 O46 2.020788 1_555
Mn22 O11 1.902423 1_554
Mn22 O10 1.910866 1_554
Mn22 O18 1.924352 1_554
Mn22 O40 2.004527 1_555
Mn22 O47 2.023483 1_555
Mn22 O46 2.027260 1_555
Mn23 O11 1.907598 1_654
Mn23 O19 1.913397 1_554
Mn23 O10 1.931419 1_554
Mn23 O41 2.032642 1_555
Mn23 O46 2.047139 1_555
Mn23 O47 2.052444 1_655
