# generated using pymatgen
data_Li8BiS6
_symmetry_space_group_name_H-M   'P 1'
_cell_length_a   7.11463059
_cell_length_b   7.11463059
_cell_length_c   13.47914300
_cell_angle_alpha   90.00000000
_cell_angle_beta   90.00000000
_cell_angle_gamma   120.00000549
_symmetry_Int_Tables_number   1
_chemical_formula_structural   Li8BiS6
_chemical_formula_sum   'Li16 Bi2 S12'
_cell_volume   590.87769901
_cell_formula_units_Z   2
loop_
 _symmetry_equiv_pos_site_id
 _symmetry_equiv_pos_as_xyz
  1  'x, y, z'
loop_
 _atom_site_type_symbol
 _atom_site_label
 _atom_site_symmetry_multiplicity
 _atom_site_fract_x
 _atom_site_fract_y
 _atom_site_fract_z
 _atom_site_occupancy
  Li  Li0  1  0.00000000  0.67406600  0.76550000  1
  Li  Li1  1  0.00000000  0.61119200  0.13280500  1
  Li  Li2  1  0.00000000  0.38880800  0.63280500  1
  Li  Li3  1  0.00000000  0.32593400  0.26550000  1
  Li  Li4  1  0.33333300  0.66666700  0.39609100  1
  Li  Li5  1  0.33333300  0.66666700  0.89609100  1
  Li  Li6  1  0.32593400  0.32593400  0.76550000  1
  Li  Li7  1  0.38880800  0.38880800  0.13280500  1
  Li  Li8  1  0.61119200  0.61119200  0.63280500  1
  Li  Li9  1  0.32593400  0.00000000  0.26550000  1
  Li  Li10  1  0.67406600  0.67406600  0.26550000  1
  Li  Li11  1  0.38880800  0.00000000  0.63280500  1
  Li  Li12  1  0.66666700  0.33333300  0.89609100  1
  Li  Li13  1  0.66666700  0.33333300  0.39609100  1
  Li  Li14  1  0.61119200  0.00000000  0.13280500  1
  Li  Li15  1  0.67406600  0.00000000  0.76550000  1
  Bi  Bi0  1  0.00000000  0.00000000  0.99220500  1
  Bi  Bi1  1  0.00000000  0.00000000  0.49220500  1
  S  S0  1  0.00000000  0.64643300  0.95027600  1
  S  S1  1  0.00000000  0.35356700  0.45027600  1
  S  S2  1  0.33333300  0.66666700  0.21363300  1
  S  S3  1  0.00000000  0.00000000  0.18818400  1
  S  S4  1  0.00000000  0.00000000  0.68818400  1
  S  S5  1  0.33333300  0.66666700  0.71363300  1
  S  S6  1  0.35356700  0.35356700  0.95027600  1
  S  S7  1  0.35356700  0.00000000  0.45027600  1
  S  S8  1  0.64643300  0.64643300  0.45027600  1
  S  S9  1  0.66666700  0.33333300  0.71363300  1
  S  S10  1  0.66666700  0.33333300  0.21363300  1
  S  S11  1  0.64643300  0.00000000  0.95027600  1
loop_
_geom_bond_atom_site_label_1
_geom_bond_atom_site_label_2
_geom_bond_distance
_geom_bond_site_symmetry_2
Li0 S5 2.498118 1_555
Li0 S9 2.498121 1_455
Li0 S0 2.498369 1_555
Li0 S4 2.542318 1_565
Li1 S2 2.455803 1_555
Li1 S10 2.455805 1_455
Li1 S0 2.473077 1_554
Li1 S3 2.865171 1_565
Li2 S9 2.455803 1_455
Li2 S5 2.455805 1_555
Li2 S1 2.473077 1_555
Li2 S4 2.865171 1_555
Li3 S10 2.498118 1_455
Li3 S2 2.498121 1_555
Li3 S1 2.498369 1_555
Li3 S3 2.542318 1_555
Li4 S7 2.415982 1_565
Li4 S1 2.415984 1_555
Li4 S8 2.415988 1_555
Li4 S2 2.459377 1_555
Li5 S0 2.415982 1_555
Li5 S11 2.415984 1_565
Li5 S6 2.415988 1_555
Li5 S5 2.459377 1_555
Li6 S5 2.498124 1_555
Li6 S9 2.498124 1_555
Li6 S6 2.498369 1_555
Li6 S4 2.542318 1_555
Li7 S2 2.455809 1_555
Li7 S10 2.455809 1_555
Li7 S6 2.473077 1_554
Li7 S3 2.865171 1_555
Li8 S5 2.455809 1_555
Li8 S9 2.455809 1_555
Li8 S8 2.473077 1_555
Li8 S4 2.865171 1_665
Li9 S2 2.498118 1_545
Li9 S10 2.498121 1_555
Li9 S7 2.498369 1_555
Li9 S3 2.542318 1_555
Li10 S10 2.498124 1_555
Li10 S2 2.498124 1_555
Li10 S8 2.498369 1_555
Li10 S3 2.542318 1_665
Li11 S5 2.455803 1_545
Li11 S9 2.455805 1_555
Li11 S7 2.473077 1_555
Li11 S4 2.865171 1_555
Li12 S11 2.415982 1_555
Li12 S0 2.415984 1_655
Li12 S6 2.415988 1_555
Li12 S9 2.459377 1_555
Li13 S1 2.415982 1_655
Li13 S7 2.415984 1_555
Li13 S8 2.415988 1_555
Li13 S10 2.459377 1_555
Li14 S10 2.455803 1_555
Li14 S2 2.455805 1_545
Li14 S11 2.473077 1_554
Li14 S3 2.865171 1_655
Li15 S9 2.498118 1_555
Li15 S5 2.498121 1_545
Li15 S11 2.498369 1_555
Li15 S4 2.542318 1_655
Bi0 S6 2.578206 1_555
Bi0 S0 2.578206 1_545
Bi0 S11 2.578206 1_455
Bi0 S3 2.641629 1_556
Bi1 S8 2.578206 1_445
Bi1 S7 2.578206 1_555
Bi1 S1 2.578206 1_555
Bi1 S4 2.641629 1_555
