# generated using pymatgen
data_LaTmO2
_symmetry_space_group_name_H-M   'P 1'
_cell_length_a   6.32598860
_cell_length_b   6.32598860
_cell_length_c   6.32598897
_cell_angle_alpha   31.51386063
_cell_angle_beta   31.51386063
_cell_angle_gamma   31.51386776
_symmetry_Int_Tables_number   1
_chemical_formula_structural   LaTmO2
_chemical_formula_sum   'La1 Tm1 O2'
_cell_volume   61.40768197
_cell_formula_units_Z   1
loop_
 _symmetry_equiv_pos_site_id
 _symmetry_equiv_pos_as_xyz
  1  'x, y, z'
loop_
 _atom_site_type_symbol
 _atom_site_label
 _atom_site_symmetry_multiplicity
 _atom_site_fract_x
 _atom_site_fract_y
 _atom_site_fract_z
 _atom_site_occupancy
  La  La0  1  0.00000000  0.00000000  0.00000000  1
  Tm  Tm0  1  0.50000000  0.50000000  0.50000000  1
  O  O0  1  0.23033400  0.23033400  0.23033400  1
  O  O1  1  0.76966600  0.76966600  0.76966600  1
loop_
_geom_bond_atom_site_label_1
_geom_bond_atom_site_label_2
_geom_bond_distance
_geom_bond_site_symmetry_2
La0 O1 2.716612 1_544
La0 O0 2.716612 1_455
La0 O1 2.716612 1_454
La0 O0 2.716612 1_545
La0 O1 2.716613 1_445
La0 O0 2.716613 1_554
O0 Tm0 2.291536 1_554
O0 Tm0 2.291536 1_545
O0 Tm0 2.291536 1_455
O1 Tm0 2.291536 1_556
O1 Tm0 2.291536 1_655
O1 Tm0 2.291536 1_565
