# generated using pymatgen
data_Na2LiMnPCO7
_symmetry_space_group_name_H-M   'P 1'
_cell_length_a   6.84940500
_cell_length_b   8.84796713
_cell_length_c   10.23115906
_cell_angle_alpha   90.73285094
_cell_angle_beta   90.14373858
_cell_angle_gamma   90.33708862
_symmetry_Int_Tables_number   1
_chemical_formula_structural   Na2LiMnPCO7
_chemical_formula_sum   'Na8 Li4 Mn4 P4 C4 O28'
_cell_volume   619.97858809
_cell_formula_units_Z   4
loop_
 _symmetry_equiv_pos_site_id
 _symmetry_equiv_pos_as_xyz
  1  'x, y, z'
loop_
 _atom_site_type_symbol
 _atom_site_label
 _atom_site_symmetry_multiplicity
 _atom_site_fract_x
 _atom_site_fract_y
 _atom_site_fract_z
 _atom_site_occupancy
  Na  Na0  1  0.24650100  0.91705800  0.87903900  1
  Na  Na1  1  0.99968600  0.74313000  0.62291400  1
  Na  Na2  1  0.50003300  0.74260500  0.62261000  1
  Na  Na3  1  0.99974400  0.74287700  0.12628100  1
  Na  Na4  1  0.50040900  0.74284700  0.12576900  1
  Na  Na5  1  0.50168200  0.25572400  0.87481400  1
  Na  Na6  1  0.49972200  0.25705300  0.37671400  1
  Na  Na7  1  0.00083400  0.25621500  0.37608100  1
  Li  Li0  1  0.24981800  0.91558000  0.37704700  1
  Li  Li1  1  0.98037100  0.27081700  0.88311400  1
  Li  Li2  1  0.75648500  0.08866200  0.62507000  1
  Li  Li3  1  0.75343900  0.09038400  0.12442100  1
  Mn  Mn0  1  0.74878900  0.63823300  0.88652100  1
  Mn  Mn1  1  0.75049100  0.63896100  0.38809000  1
  Mn  Mn2  1  0.24806700  0.35678600  0.61336400  1
  Mn  Mn3  1  0.24691900  0.35745200  0.10994400  1
  P  P0  1  0.24437400  0.58579100  0.85170800  1
  P  P1  1  0.25028600  0.59530800  0.35245800  1
  P  P2  1  0.75385800  0.40177600  0.64844600  1
  P  P3  1  0.74923700  0.40458100  0.14513500  1
  C  C0  1  0.75835700  0.95370800  0.86814700  1
  C  C1  1  0.75022100  0.94788100  0.36605100  1
  C  C2  1  0.24918900  0.05244600  0.62876000  1
  C  C3  1  0.24935800  0.05810400  0.13813900  1
  O  O0  1  0.25124500  0.90946700  0.64922000  1
  O  O1  1  0.25121800  0.91402500  0.15586800  1
  O  O2  1  0.75071200  0.90956300  0.98919100  1
  O  O3  1  0.75121100  0.90598800  0.48806500  1
  O  O4  1  0.74834500  0.85320700  0.77321300  1
  O  O5  1  0.75103500  0.84594000  0.27250700  1
  O  O6  1  0.06550000  0.68257000  0.89325200  1
  O  O7  1  0.43116200  0.67333200  0.89648900  1
  O  O8  1  0.06953200  0.69173100  0.39175100  1
  O  O9  1  0.43250800  0.69213100  0.39149500  1
  O  O10  1  0.24802900  0.57048800  0.69962200  1
  O  O11  1  0.74966300  0.56245500  0.58772500  1
  O  O12  1  0.24912400  0.57010100  0.20079100  1
  O  O13  1  0.74984000  0.56435600  0.08396100  1
  O  O14  1  0.23251900  0.42316700  0.90830900  1
  O  O15  1  0.76605700  0.42233700  0.80081500  1
  O  O16  1  0.25086600  0.43736800  0.41654200  1
  O  O17  1  0.75422600  0.42755400  0.29684200  1
  O  O18  1  0.56903600  0.30709800  0.61225900  1
  O  O19  1  0.93074500  0.30655800  0.60236200  1
  O  O20  1  0.56600600  0.30931700  0.10677700  1
  O  O21  1  0.92714400  0.30765400  0.10045100  1
  O  O22  1  0.24709300  0.14749900  0.72784500  1
  O  O23  1  0.24689300  0.14945200  0.23883600  1
  O  O24  1  0.24928800  0.10338300  0.50959700  1
  O  O25  1  0.24964400  0.11537800  0.02123900  1
  O  O26  1  0.77484100  0.09524900  0.83935600  1
  O  O27  1  0.74864600  0.08865300  0.33498500  1
loop_
_geom_bond_atom_site_label_1
_geom_bond_atom_site_label_2
_geom_bond_distance
_geom_bond_site_symmetry_2
Na0 O25 2.265012 1_566
Na0 O0 2.351726 1_555
Na0 O6 2.416823 1_555
Na0 O7 2.514528 1_555
Na0 O22 2.575025 1_565
Na0 O1 2.832857 1_556
Na1 O0 2.272664 1_655
Na1 O11 2.359622 1_555
Na1 O10 2.428421 1_655
Na1 O8 2.451520 1_655
Na1 O4 2.504317 1_555
Na1 O3 2.635195 1_555
Na1 O6 2.859172 1_655
Na2 O0 2.275803 1_555
Na2 O11 2.368998 1_555
Na2 O10 2.434324 1_555
Na2 O9 2.443284 1_555
Na2 O4 2.480573 1_555
Na2 O3 2.641598 1_555
Na2 O7 2.914983 1_555
Na3 O1 2.303598 1_655
Na3 O13 2.357820 1_555
Na3 O12 2.426878 1_655
Na3 O5 2.442922 1_555
Na3 O6 2.479405 1_654
Na3 O2 2.668780 1_554
Na3 O8 2.799601 1_655
Na4 O1 2.307185 1_555
Na4 O13 2.369398 1_555
Na4 O12 2.427625 1_555
Na4 O5 2.442623 1_555
Na4 O7 2.461732 1_554
Na4 O2 2.665099 1_554
Na4 O9 2.800715 1_555
Na5 O26 2.381113 1_555
Na5 O14 2.394489 1_555
Na5 O20 2.452507 1_556
Na5 O15 2.455499 1_555
Na5 O22 2.479736 1_555
Na5 O25 2.608025 1_556
Na5 O18 2.769536 1_555
Na6 O27 2.307943 1_555
Na6 O16 2.373950 1_555
Na6 O23 2.414375 1_555
Na6 O17 2.447471 1_555
Na6 O18 2.488687 1_555
Na6 O24 2.582817 1_555
Na6 O20 2.843206 1_555
Na7 O27 2.304086 1_455
Na7 O16 2.370763 1_555
Na7 O23 2.387708 1_555
Na7 O19 2.402156 1_455
Na7 O17 2.421431 1_455
Na7 O24 2.579393 1_555
Na7 O21 2.905645 1_455
Li0 O24 2.131371 1_565
Li0 O1 2.262828 1_555
Li0 O8 2.334540 1_555
Li0 O9 2.352043 1_555
Li0 O23 2.521335 1_565
Li1 O26 2.132755 1_555
Li1 O15 2.169549 1_555
Li1 O14 2.197215 1_655
Li1 O21 2.273876 1_556
Li2 O3 2.125943 1_545
Li2 O26 2.195691 1_555
Li2 O19 2.276250 1_555
Li2 O18 2.331488 1_555
Li2 O4 2.592362 1_545
Li3 O2 2.101703 1_544
Li3 O27 2.154895 1_555
Li3 O21 2.271109 1_555
Li3 O20 2.338843 1_555
Mn0 O15 2.095768 1_555
Mn0 O13 2.131114 1_556
Mn0 O7 2.201850 1_555
Mn0 O6 2.202945 1_655
Mn0 O4 2.240156 1_555
Mn0 O2 2.608081 1_555
Mn1 O17 2.080163 1_555
Mn1 O11 2.159961 1_555
Mn1 O5 2.192622 1_555
Mn1 O9 2.231190 1_555
Mn1 O8 2.231999 1_655
Mn1 O3 2.562495 1_555
Mn2 O10 2.076389 1_555
Mn2 O16 2.144886 1_555
Mn2 O22 2.203709 1_555
Mn2 O19 2.218166 1_455
Mn2 O18 2.244537 1_555
Mn2 O24 2.468517 1_555
Mn3 O12 2.087843 1_555
Mn3 O14 2.152660 1_554
Mn3 O20 2.229361 1_555
Mn3 O21 2.233233 1_455
Mn3 O23 2.277735 1_555
Mn3 O25 2.315688 1_555
C0 O26 1.294541 1_565
C0 O2 1.304396 1_555
C0 O4 1.309840 1_555
C1 O27 1.289493 1_565
C1 O5 1.306735 1_555
C1 O3 1.306763 1_555
C2 O0 1.285067 1_545
C2 O24 1.305207 1_555
C2 O22 1.309058 1_555
C3 O1 1.290073 1_545
C3 O23 1.301499 1_555
C3 O25 1.304907 1_555
O6 P0 1.555835 1_555
O7 P0 1.556601 1_555
O8 P1 1.558337 1_555
O9 P1 1.558004 1_555
O10 P0 1.560446 1_555
O11 P2 1.559147 1_555
O12 P1 1.564843 1_555
O13 P3 1.553327 1_555
O14 P0 1.559657 1_555
O15 P2 1.569138 1_555
O16 P1 1.551209 1_555
O17 P3 1.563074 1_555
O18 P2 1.555191 1_555
O19 P2 1.550712 1_555
O20 P3 1.554409 1_555
O21 P3 1.560268 1_555
