# generated using pymatgen
data_Na4SnH32(SeO4)4
_symmetry_space_group_name_H-M   'P 1'
_cell_length_a   16.61370600
_cell_length_b   8.49651300
_cell_length_c   8.82256402
_cell_angle_alpha   87.94193791
_cell_angle_beta   90.00000000
_cell_angle_gamma   90.00000000
_symmetry_Int_Tables_number   1
_chemical_formula_structural   Na4SnH32(SeO4)4
_chemical_formula_sum   'Na8 Sn2 H64 Se8 O32'
_cell_volume   1244.57717580
_cell_formula_units_Z   2
loop_
 _symmetry_equiv_pos_site_id
 _symmetry_equiv_pos_as_xyz
  1  'x, y, z'
loop_
 _atom_site_type_symbol
 _atom_site_label
 _atom_site_symmetry_multiplicity
 _atom_site_fract_x
 _atom_site_fract_y
 _atom_site_fract_z
 _atom_site_occupancy
  Na  Na0  1  0.00000000  0.00000000  0.00000000  1
  Na  Na1  1  0.50000000  0.00000000  0.00000000  1
  Na  Na2  1  0.36432400  0.53006300  0.68228200  1
  Na  Na3  1  0.13567600  0.53006300  0.68228200  1
  Na  Na4  1  0.00000000  0.50000000  0.00000000  1
  Na  Na5  1  0.50000000  0.50000000  0.00000000  1
  Na  Na6  1  0.86432400  0.46993700  0.31771800  1
  Na  Na7  1  0.63567600  0.46993700  0.31771800  1
  Sn  Sn0  1  0.75000000  0.93746200  0.64538700  1
  Sn  Sn1  1  0.25000000  0.06253800  0.35461300  1
  H  H0  1  0.85838000  0.99331800  0.20391700  1
  H  H1  1  0.64162000  0.99331800  0.20391700  1
  H  H2  1  0.43852700  0.96350900  0.30936500  1
  H  H3  1  0.06147300  0.96350900  0.30936500  1
  H  H4  1  0.82937500  0.98065100  0.03486300  1
  H  H5  1  0.67062500  0.98065100  0.03486300  1
  H  H6  1  0.25000000  0.81587400  0.67072000  1
  H  H7  1  0.49867800  0.79355000  0.56808400  1
  H  H8  1  0.00132200  0.79355000  0.56808400  1
  H  H9  1  0.39171500  0.84080600  0.21882700  1
  H  H10  1  0.10828500  0.84080600  0.21882700  1
  H  H11  1  0.41048900  0.83904200  0.59850300  1
  H  H12  1  0.08951100  0.83904200  0.59850300  1
  H  H13  1  0.89871700  0.75083900  0.88043600  1
  H  H14  1  0.60128300  0.75083900  0.88043600  1
  H  H15  1  0.98602100  0.75102800  0.80593300  1
  H  H16  1  0.51397900  0.75102800  0.80593300  1
  H  H17  1  0.75000000  0.72808900  0.29755800  1
  H  H18  1  0.36054600  0.73023500  0.94395600  1
  H  H19  1  0.13945400  0.73023500  0.94395600  1
  H  H20  1  0.25000000  0.73150000  0.51691700  1
  H  H21  1  0.99504100  0.70710500  0.25189300  1
  H  H22  1  0.50495900  0.70710500  0.25189300  1
  H  H23  1  0.75000000  0.66245000  0.13452600  1
  H  H24  1  0.86083100  0.61473800  0.59741900  1
  H  H25  1  0.63916900  0.61473800  0.59741900  1
  H  H26  1  0.47023300  0.55201700  0.32310800  1
  H  H27  1  0.02976700  0.55201700  0.32310800  1
  H  H28  1  0.33119400  0.55851200  0.35168400  1
  H  H29  1  0.16880600  0.55851200  0.35168400  1
  H  H30  1  0.17144100  0.57554700  0.02332200  1
  H  H31  1  0.32855900  0.57554700  0.02332200  1
  H  H32  1  0.82855900  0.42445300  0.97667800  1
  H  H33  1  0.67144100  0.42445300  0.97667800  1
  H  H34  1  0.83119400  0.44148800  0.64831600  1
  H  H35  1  0.66880600  0.44148800  0.64831600  1
  H  H36  1  0.97023300  0.44798300  0.67689200  1
  H  H37  1  0.52976700  0.44798300  0.67689200  1
  H  H38  1  0.36083100  0.38526200  0.40258100  1
  H  H39  1  0.13916900  0.38526200  0.40258100  1
  H  H40  1  0.25000000  0.33755000  0.86547400  1
  H  H41  1  0.49504100  0.29289500  0.74810700  1
  H  H42  1  0.00495900  0.29289500  0.74810700  1
  H  H43  1  0.75000000  0.26850000  0.48308300  1
  H  H44  1  0.86054600  0.26976500  0.05604400  1
  H  H45  1  0.63945400  0.26976500  0.05604400  1
  H  H46  1  0.25000000  0.27191100  0.70244200  1
  H  H47  1  0.48602100  0.24897200  0.19406700  1
  H  H48  1  0.01397900  0.24897200  0.19406700  1
  H  H49  1  0.39871700  0.24916100  0.11956400  1
  H  H50  1  0.10128300  0.24916100  0.11956400  1
  H  H51  1  0.91048900  0.16095800  0.40149700  1
  H  H52  1  0.58951100  0.16095800  0.40149700  1
  H  H53  1  0.89171500  0.15919400  0.78117300  1
  H  H54  1  0.60828500  0.15919400  0.78117300  1
  H  H55  1  0.99867800  0.20645000  0.43191600  1
  H  H56  1  0.50132200  0.20645000  0.43191600  1
  H  H57  1  0.75000000  0.18412600  0.32928000  1
  H  H58  1  0.32937500  0.01934900  0.96513700  1
  H  H59  1  0.17062500  0.01934900  0.96513700  1
  H  H60  1  0.93852700  0.03649100  0.69063500  1
  H  H61  1  0.56147300  0.03649100  0.69063500  1
  H  H62  1  0.35838000  0.00668200  0.79608300  1
  H  H63  1  0.14162000  0.00668200  0.79608300  1
  Se  Se0  1  0.87155300  0.89022000  0.47764300  1
  Se  Se1  1  0.62844700  0.89022000  0.47764300  1
  Se  Se2  1  0.25000000  0.77951600  0.25433600  1
  Se  Se3  1  0.75000000  0.74723800  0.87633500  1
  Se  Se4  1  0.25000000  0.25276200  0.12366500  1
  Se  Se5  1  0.75000000  0.22048400  0.74566400  1
  Se  Se6  1  0.37155300  0.10978000  0.52235700  1
  Se  Se7  1  0.12844700  0.10978000  0.52235700  1
  O  O0  1  0.36572200  0.96047700  0.89960800  1
  O  O1  1  0.13427800  0.96047700  0.89960800  1
  O  O2  1  0.44501000  0.89213600  0.22360200  1
  O  O3  1  0.05499000  0.89213600  0.22360200  1
  O  O4  1  0.95674200  0.74495100  0.90384100  1
  O  O5  1  0.54325800  0.74495100  0.90384100  1
  O  O6  1  0.45112000  0.75846000  0.62772800  1
  O  O7  1  0.04888000  0.75846000  0.62772800  1
  O  O8  1  0.25000000  0.71117000  0.62915800  1
  O  O9  1  0.75000000  0.62969400  0.24300200  1
  O  O10  1  0.36615900  0.61453900  0.94559600  1
  O  O11  1  0.13384100  0.61453900  0.94559600  1
  O  O12  1  0.98490800  0.59248200  0.25898000  1
  O  O13  1  0.51509200  0.59248200  0.25898000  1
  O  O14  1  0.87335000  0.50121800  0.59254800  1
  O  O15  1  0.62665000  0.50121800  0.59254800  1
  O  O16  1  0.12665000  0.49878200  0.40745200  1
  O  O17  1  0.37335000  0.49878200  0.40745200  1
  O  O18  1  0.48490800  0.40751800  0.74102000  1
  O  O19  1  0.01509200  0.40751800  0.74102000  1
  O  O20  1  0.86615900  0.38546100  0.05440400  1
  O  O21  1  0.63384100  0.38546100  0.05440400  1
  O  O22  1  0.25000000  0.37030600  0.75699800  1
  O  O23  1  0.75000000  0.28883000  0.37084200  1
  O  O24  1  0.95112000  0.24154000  0.37227200  1
  O  O25  1  0.54888000  0.24154000  0.37227200  1
  O  O26  1  0.45674200  0.25504900  0.09615900  1
  O  O27  1  0.04325800  0.25504900  0.09615900  1
  O  O28  1  0.94501000  0.10786400  0.77639800  1
  O  O29  1  0.55499000  0.10786400  0.77639800  1
  O  O30  1  0.86572200  0.03952300  0.10039200  1
  O  O31  1  0.63427800  0.03952300  0.10039200  1
loop_
_geom_bond_atom_site_label_1
_geom_bond_atom_site_label_2
_geom_bond_distance
_geom_bond_site_symmetry_2
Na0 O28 2.331612 1_454
Na0 O3 2.331612 1_545
Na0 O1 2.428031 1_544
Na0 O30 2.428031 1_455
Na0 O4 2.462575 1_444
Na0 O27 2.462575 1_555
Na1 O2 2.331612 1_545
Na1 O29 2.331612 1_554
Na1 O31 2.428031 1_555
Na1 O0 2.428031 1_544
Na1 O5 2.462575 1_544
Na1 O26 2.462575 1_555
Na2 O18 2.308096 1_555
Na2 O22 2.412519 1_555
Na2 O6 2.451487 1_555
Na2 O17 2.453285 1_555
Na2 O10 2.456150 1_555
Na2 O8 2.478552 1_555
Na3 O19 2.308096 1_555
Na3 O22 2.412519 1_555
Na3 O7 2.451487 1_555
Na3 O16 2.453285 1_555
Na3 O11 2.456150 1_555
Na3 O8 2.478552 1_555
Na4 O27 2.332579 1_555
Na4 O4 2.332579 1_454
Na4 O19 2.455582 1_554
Na4 O12 2.455582 1_455
Na4 O11 2.467446 1_554
Na4 O20 2.467446 1_455
Na5 O26 2.332579 1_555
Na5 O5 2.332579 1_554
Na5 O18 2.455582 1_554
Na5 O13 2.455582 1_555
Na5 O21 2.467446 1_555
Na5 O10 2.467446 1_554
Na6 O12 2.308096 1_555
Na6 O9 2.412519 1_555
Na6 O24 2.451487 1_555
Na6 O14 2.453285 1_555
Na6 O20 2.456150 1_555
Na6 O23 2.478552 1_555
Na7 O13 2.308096 1_555
Na7 O9 2.412519 1_555
Na7 O25 2.451487 1_555
Na7 O15 2.453285 1_555
Na7 O21 2.456150 1_555
Na7 O23 2.478552 1_555
H0 O30 0.988668 1_565
H1 O31 0.988668 1_565
H2 O2 0.992382 1_555
H3 O3 0.992382 1_555
H4 O30 0.984815 1_565
H5 O31 0.984815 1_565
H6 O8 0.974325 1_555
H7 O6 0.989344 1_555
H8 O7 0.989344 1_555
H9 O2 0.988576 1_555
H10 O3 0.988576 1_555
H11 O6 0.989059 1_555
H12 O7 0.989059 1_555
H13 O4 0.986770 1_555
H14 O5 0.986770 1_555
H15 O4 0.991075 1_555
H16 O5 0.991075 1_555
H17 O9 0.979538 1_555
H18 O10 0.987014 1_555
H19 O11 0.987014 1_555
H20 O8 0.999076 1_555
H21 O12 0.988104 1_555
H22 O13 0.988104 1_555
H23 O9 0.987039 1_555
H24 O14 0.989136 1_555
H25 O15 0.989136 1_555
H26 O13 0.989832 1_555
H27 O12 0.989832 1_455
H28 O17 0.986009 1_555
H29 O16 0.986009 1_555
H30 O11 0.976679 1_554
H31 O10 0.976679 1_554
H32 O20 0.976679 1_556
H33 O21 0.976679 1_556
H34 O14 0.986009 1_555
H35 O15 0.986009 1_555
H36 O19 0.989832 1_655
H37 O18 0.989832 1_555
H38 O17 0.989136 1_555
H39 O16 0.989136 1_555
H40 O22 0.987039 1_555
H41 O18 0.988104 1_555
H42 O19 0.988104 1_555
H43 O23 0.999076 1_555
H44 O20 0.987014 1_555
H45 O21 0.987014 1_555
H46 O22 0.979538 1_555
H47 O26 0.991075 1_555
H48 O27 0.991075 1_555
H49 O26 0.986770 1_555
H50 O27 0.986770 1_555
H51 O24 0.989059 1_555
H52 O25 0.989059 1_555
H53 O28 0.988576 1_555
H54 O29 0.988576 1_555
H55 O24 0.989344 1_555
H56 O25 0.989344 1_555
H57 O23 0.974325 1_555
H58 O0 0.984815 1_545
H59 O1 0.984815 1_545
H60 O28 0.992382 1_555
H61 O29 0.992382 1_555
H62 O0 0.988668 1_545
H63 O1 0.988668 1_545
Se0 Sn0 2.544041 1_555
Se1 Sn0 2.544041 1_555
Se2 Sn1 2.591926 1_565
Se3 Sn0 2.554864 1_555
Se4 Sn1 2.554864 1_555
Se5 Sn0 2.591926 1_545
Se6 Sn1 2.544041 1_555
Se7 Sn1 2.544041 1_555
