# generated using pymatgen
data_LiMnPO4
_symmetry_space_group_name_H-M   'P 1'
_cell_length_a   4.82458804
_cell_length_b   7.71038900
_cell_length_c   8.66790107
_cell_angle_alpha   90.00102091
_cell_angle_beta   89.98600371
_cell_angle_gamma   90.00029119
_symmetry_Int_Tables_number   1
_chemical_formula_structural   LiMnPO4
_chemical_formula_sum   'Li4 Mn4 P4 O16'
_cell_volume   322.44114714
_cell_formula_units_Z   4
loop_
 _symmetry_equiv_pos_site_id
 _symmetry_equiv_pos_as_xyz
  1  'x, y, z'
loop_
 _atom_site_type_symbol
 _atom_site_label
 _atom_site_symmetry_multiplicity
 _atom_site_fract_x
 _atom_site_fract_y
 _atom_site_fract_z
 _atom_site_occupancy
  Li  Li0  1  0.03720900  0.14110700  0.02350400  1
  Li  Li1  1  0.53722400  0.35888700  0.52351300  1
  Li  Li2  1  0.03738900  0.64121000  0.47645300  1
  Li  Li3  1  0.53735000  0.85878900  0.97643400  1
  Mn  Mn0  1  0.97724300  0.52938900  0.82204400  1
  Mn  Mn1  1  0.47739000  0.97062600  0.32197000  1
  Mn  Mn2  1  0.97716000  0.02941900  0.67836000  1
  Mn  Mn3  1  0.47718100  0.47060600  0.17840500  1
  P  P0  1  0.55025600  0.24533000  0.85932400  1
  P  P1  1  0.05031300  0.25464700  0.35929900  1
  P  P2  1  0.55034900  0.74524300  0.64062000  1
  P  P3  1  0.05037500  0.75476400  0.14063800  1
  O  O0  1  0.66210300  0.08773800  0.94723200  1
  O  O1  1  0.16213200  0.41224700  0.44720900  1
  O  O2  1  0.66189600  0.58791700  0.55222300  1
  O  O3  1  0.16188900  0.91208500  0.05223200  1
  O  O4  1  0.13119500  0.08695100  0.45135200  1
  O  O5  1  0.63108900  0.41303800  0.95139000  1
  O  O6  1  0.13137900  0.58680400  0.04894100  1
  O  O7  1  0.63139800  0.91319900  0.54892700  1
  O  O8  1  0.22889800  0.23999000  0.83310800  1
  O  O9  1  0.72894800  0.25995500  0.33311200  1
  O  O10  1  0.22899700  0.73998000  0.66691300  1
  O  O11  1  0.72902400  0.76004000  0.16693800  1
  O  O12  1  0.70482300  0.25616600  0.70176800  1
  O  O13  1  0.20487900  0.24385900  0.20174200  1
  O  O14  1  0.70493200  0.75567100  0.79817000  1
  O  O15  1  0.20497900  0.74434100  0.29817800  1
loop_
_geom_bond_atom_site_label_1
_geom_bond_atom_site_label_2
_geom_bond_distance
_geom_bond_site_symmetry_2
Li0 O3 1.882064 1_545
Li0 O13 1.915590 1_555
Li0 O0 1.970305 1_454
Li0 O8 2.039480 1_554
Li1 O2 1.882075 1_555
Li1 O12 1.915491 1_555
Li1 O1 1.970331 1_555
Li1 O9 2.039715 1_555
Li2 O1 1.882284 1_555
Li2 O15 1.916600 1_555
Li2 O2 1.970153 1_455
Li2 O10 2.039770 1_555
Li3 O0 1.882152 1_565
Li3 O14 1.916446 1_555
Li3 O3 1.970095 1_556
Li3 O11 2.040188 1_556
Mn0 O6 2.148872 1_656
Mn0 O14 2.193875 1_555
Mn0 O5 2.202267 1_555
Mn0 O10 2.432935 1_655
Mn0 O8 2.542136 1_655
Mn1 O7 2.149169 1_555
Mn1 O15 2.194099 1_555
Mn1 O4 2.202485 1_565
Mn1 O11 2.432123 1_555
Mn1 O9 2.541451 1_565
Mn2 O4 2.149452 1_655
Mn2 O12 2.196360 1_555
Mn2 O7 2.201205 1_545
Mn2 O8 2.431256 1_655
Mn2 O10 2.542928 1_645
Mn2 O14 2.694054 1_545
Mn2 O0 2.818224 1_555
Mn3 O5 2.149341 1_554
Mn3 O13 2.196197 1_555
Mn3 O6 2.201442 1_555
Mn3 O9 2.431582 1_555
Mn3 O11 2.542907 1_555
Mn3 O15 2.693772 1_555
Mn3 O1 2.817776 1_555
O0 P0 1.532479 1_555
O1 P1 1.532464 1_555
O2 P2 1.532306 1_555
O3 P3 1.532276 1_555
O4 P1 1.568749 1_555
O5 P0 1.568797 1_555
O6 P3 1.568888 1_555
O7 P2 1.568919 1_555
O8 P0 1.567579 1_555
O9 P1 1.567571 1_655
O10 P2 1.567523 1_555
O11 P3 1.567529 1_655
O12 P0 1.558098 1_555
O13 P1 1.558081 1_555
O14 P2 1.558241 1_555
O15 P3 1.558214 1_555
