# generated using pymatgen
data_Li2VO2F
_symmetry_space_group_name_H-M   'P 1'
_cell_length_a   3.02350500
_cell_length_b   7.36270162
_cell_length_c   10.41386386
_cell_angle_alpha   89.00958799
_cell_angle_beta   89.88371229
_cell_angle_gamma   89.93579934
_symmetry_Int_Tables_number   1
_chemical_formula_structural   Li2VO2F
_chemical_formula_sum   'Li8 V4 O8 F4'
_cell_volume   231.78949517
_cell_formula_units_Z   4
loop_
 _symmetry_equiv_pos_site_id
 _symmetry_equiv_pos_as_xyz
  1  'x, y, z'
loop_
 _atom_site_type_symbol
 _atom_site_label
 _atom_site_symmetry_multiplicity
 _atom_site_fract_x
 _atom_site_fract_y
 _atom_site_fract_z
 _atom_site_occupancy
  Li  Li0  1  0.00009100  0.85171300  0.66307600  1
  Li  Li1  1  0.99945700  0.85775300  0.15501400  1
  Li  Li2  1  0.00016000  0.15609500  0.32576500  1
  Li  Li3  1  0.00203200  0.13740800  0.84496600  1
  Li  Li4  1  0.49943800  0.83914400  0.41128500  1
  Li  Li5  1  0.49989300  0.87809900  0.94151700  1
  Li  Li6  1  0.49798300  0.13114300  0.07492500  1
  Li  Li7  1  0.50013400  0.15085100  0.57665500  1
  V  V0  1  0.99895600  0.49465200  0.00876500  1
  V  V1  1  0.99144400  0.50054900  0.49887200  1
  V  V2  1  0.50735100  0.50302800  0.25319700  1
  V  V3  1  0.50375000  0.48074700  0.74114800  1
  O  O0  1  0.99398800  0.34106500  0.66624200  1
  O  O1  1  0.01744600  0.35276100  0.17380000  1
  O  O2  1  0.99643900  0.65467900  0.33669200  1
  O  O3  1  0.99930100  0.00362900  0.00053400  1
  O  O4  1  0.49654300  0.34998900  0.42040300  1
  O  O5  1  0.49233300  0.36944200  0.91416500  1
  O  O6  1  0.51367900  0.64810700  0.08500400  1
  O  O7  1  0.48838900  0.64885600  0.58665700  1
  F  F0  1  0.00189600  0.65331700  0.82305100  1
  F  F1  1  0.99982100  0.99932600  0.49935400  1
  F  F2  1  0.49981500  0.00114800  0.26012700  1
  F  F3  1  0.49958100  0.99649800  0.73878500  1
loop_
_geom_bond_atom_site_label_1
_geom_bond_atom_site_label_2
_geom_bond_distance
_geom_bond_site_symmetry_2
Li0 O7 2.252808 1_555
Li0 O7 2.304123 1_455
Li1 O3 1.918817 1_565
Li1 O6 2.262674 1_555
Li1 O6 2.315235 1_655
Li1 O2 2.391097 1_555
Li2 O1 2.127081 1_555
Li2 O4 2.306771 1_555
Li2 O4 2.316367 1_455
Li3 O3 1.881396 1_456
Li3 O0 2.369959 1_455
Li3 O5 2.384972 1_555
Li3 O5 2.417643 1_455
Li4 O2 2.175602 1_555
Li4 O2 2.192444 1_455
Li4 O7 2.282715 1_555
Li5 O3 1.880288 1_466
Li5 O3 1.881081 1_566
Li5 O6 2.239337 1_556
Li6 O3 1.946281 1_455
Li6 O3 1.948394 1_555
Li6 O5 2.404137 1_554
Li6 O1 2.424938 1_555
Li6 O1 2.501971 1_655
Li7 O4 2.171437 1_555
Li7 O0 2.262040 1_555
Li7 O0 2.282160 1_455
O0 V3 1.970489 1_555
O0 V3 2.019369 1_655
O0 V1 2.084731 1_555
O1 V0 1.996617 1_455
O1 V2 2.035194 1_555
O1 V2 2.075799 1_455
O2 V1 2.018455 1_555
O2 V2 2.057173 1_555
O2 V2 2.100769 1_655
O4 V1 2.043431 1_555
O4 V2 2.057842 1_555
O4 V1 2.061867 1_455
O5 V3 1.966708 1_555
O5 V0 2.016927 1_456
O5 V0 2.051200 1_556
O6 V0 2.020456 1_555
O6 V2 2.035800 1_555
O6 V0 2.090174 1_455
O7 V3 2.013424 1_555
O7 V1 2.080715 1_455
O7 V1 2.089644 1_555
F0 V3 2.158079 1_455
F0 V3 2.161510 1_555
F0 Li0 2.196604 1_555
F0 V0 2.242094 1_456
F0 Li5 2.571352 1_555
F0 Li5 2.573348 1_455
F1 Li0 2.006015 1_655
F1 Li7 2.048789 1_565
F1 Li7 2.054433 1_665
F1 Li2 2.127918 1_665
F1 Li4 2.131135 1_655
F1 Li4 2.137284 1_555
F2 Li4 1.958505 1_545
F2 Li2 2.017392 1_555
F2 Li2 2.022943 1_655
F2 Li6 2.138242 1_555
F2 Li1 2.150505 1_545
F2 Li1 2.156804 1_445
F3 Li0 2.017088 1_655
F3 Li7 2.018882 1_565
F3 Li0 2.018965 1_555
F3 Li3 2.142780 1_565
F3 Li3 2.157990 1_665
F3 Li5 2.270148 1_555
