# generated using pymatgen
data_BaYF5
_symmetry_space_group_name_H-M   'P 1'
_cell_length_a   7.44469800
_cell_length_b   8.66691534
_cell_length_c   11.37676363
_cell_angle_alpha   78.54620327
_cell_angle_beta   87.10929320
_cell_angle_gamma   75.68848739
_symmetry_Int_Tables_number   1
_chemical_formula_structural   BaYF5
_chemical_formula_sum   'Ba6 Y6 F30'
_cell_volume   697.11162722
_cell_formula_units_Z   6
loop_
 _symmetry_equiv_pos_site_id
 _symmetry_equiv_pos_as_xyz
  1  'x, y, z'
loop_
 _atom_site_type_symbol
 _atom_site_label
 _atom_site_symmetry_multiplicity
 _atom_site_fract_x
 _atom_site_fract_y
 _atom_site_fract_z
 _atom_site_occupancy
  Ba  Ba0  1  0.26840500  0.38025400  0.92747200  1
  Ba  Ba1  1  0.25815300  0.71952900  0.59743100  1
  Ba  Ba2  1  0.34375700  0.03622200  0.26476000  1
  Ba  Ba3  1  0.65624300  0.96377800  0.73524000  1
  Ba  Ba4  1  0.74184700  0.28047100  0.40256900  1
  Ba  Ba5  1  0.73159500  0.61974600  0.07252800  1
  Y  Y0  1  0.20585100  0.27796500  0.56816600  1
  Y  Y1  1  0.21739100  0.54876700  0.25858200  1
  Y  Y2  1  0.79505500  0.16730500  0.01334400  1
  Y  Y3  1  0.20494500  0.83269500  0.98665600  1
  Y  Y4  1  0.78260900  0.45123300  0.74141800  1
  Y  Y5  1  0.79414900  0.72203500  0.43183400  1
  F  F0  1  0.13481300  0.12453700  0.44619200  1
  F  F1  1  0.09098600  0.41037200  0.14906000  1
  F  F2  1  0.51637800  0.13253400  0.05809400  1
  F  F3  1  0.42353400  0.31277600  0.27785100  1
  F  F4  1  0.98720900  0.26677800  0.87510800  1
  F  F5  1  0.99015000  0.54363800  0.60635600  1
  F  F6  1  0.10014600  0.05591900  0.07164800  1
  F  F7  1  0.08169300  0.74906900  0.36557200  1
  F  F8  1  0.28177200  0.05666300  0.71106500  1
  F  F9  1  0.33570500  0.47760100  0.44965000  1
  F  F10  1  0.34779600  0.77085400  0.17828200  1
  F  F11  1  0.31677800  0.39456300  0.70031700  1
  F  F12  1  0.65087900  0.43027200  0.93959900  1
  F  F13  1  0.78182500  0.28865500  0.16485300  1
  F  F14  1  0.50522300  0.15927800  0.53981400  1
  F  F15  1  0.49477700  0.84072200  0.46018600  1
  F  F16  1  0.21817500  0.71134500  0.83514700  1
  F  F17  1  0.34912100  0.56972800  0.06040100  1
  F  F18  1  0.68322200  0.60543700  0.29968300  1
  F  F19  1  0.65220400  0.22914600  0.82171800  1
  F  F20  1  0.66429500  0.52239900  0.55035000  1
  F  F21  1  0.71822800  0.94333700  0.28893500  1
  F  F22  1  0.91830700  0.25093100  0.63442800  1
  F  F23  1  0.89985400  0.94408100  0.92835200  1
  F  F24  1  0.00985000  0.45636200  0.39364400  1
  F  F25  1  0.01279100  0.73322200  0.12489200  1
  F  F26  1  0.57646600  0.68722400  0.72214900  1
  F  F27  1  0.48362200  0.86746600  0.94190600  1
  F  F28  1  0.90901400  0.58962800  0.85094000  1
  F  F29  1  0.86518700  0.87546300  0.55380800  1
loop_
_geom_bond_atom_site_label_1
_geom_bond_atom_site_label_2
_geom_bond_distance
_geom_bond_site_symmetry_2
Ba0 F11 2.573819 1_555
Ba0 F17 2.628809 1_556
Ba0 F4 2.660995 1_455
Ba0 F2 2.697394 1_556
Ba0 F16 2.790951 1_555
Ba0 F1 2.814780 1_556
Ba0 F28 2.901159 1_455
Ba0 F12 2.998048 1_555
Ba0 F19 3.123418 1_555
Ba1 F15 2.574970 1_555
Ba1 F16 2.694563 1_555
Ba1 F26 2.749665 1_555
Ba1 F11 2.761793 1_555
Ba1 F5 2.781516 1_455
Ba1 F9 2.874041 1_555
Ba1 F29 2.925197 1_455
Ba1 F7 2.943530 1_555
Ba1 F20 3.161369 1_555
Ba2 F15 2.625316 1_545
Ba2 F3 2.640905 1_555
Ba2 F0 2.642170 1_555
Ba2 F10 2.668329 1_545
Ba2 F2 2.706012 1_555
Ba2 F21 2.715793 1_545
Ba2 F6 2.871402 1_555
Ba3 F14 2.625316 1_565
Ba3 F26 2.640905 1_555
Ba3 F29 2.642170 1_555
Ba3 F19 2.668329 1_565
Ba3 F27 2.706012 1_555
Ba3 F8 2.715793 1_565
Ba3 F23 2.871402 1_555
Ba4 F14 2.574970 1_555
Ba4 F13 2.694563 1_555
Ba4 F3 2.749665 1_555
Ba4 F18 2.761793 1_555
Ba4 F24 2.781516 1_655
Ba4 F20 2.874041 1_555
Ba4 F0 2.925197 1_655
Ba4 F22 2.943530 1_555
Ba4 F9 3.161369 1_555
Ba5 F18 2.573819 1_555
Ba5 F12 2.628809 1_554
Ba5 F25 2.660995 1_655
Ba5 F27 2.697394 1_554
Ba5 F13 2.790951 1_555
Ba5 F28 2.814780 1_554
Ba5 F1 2.901159 1_655
Ba5 F17 2.998048 1_555
Ba5 F10 3.123418 1_555
F0 Y0 2.264529 1_555
F1 Y1 2.268626 1_555
F2 Y2 2.189950 1_555
F3 Y1 2.211474 1_555
F4 Y2 2.259937 1_556
F4 Y4 2.291995 1_555
F5 Y4 2.296359 1_555
F5 Y5 2.533685 1_555
F5 Y0 2.562851 1_655
F6 Y3 2.281933 1_544
F6 Y2 2.311795 1_455
F7 Y5 2.284894 1_455
F7 Y1 2.316029 1_555
F8 Y0 2.227001 1_555
F9 Y1 2.296395 1_555
F9 Y0 2.348441 1_555
F10 Y1 2.370231 1_555
F10 Y3 2.378868 1_554
F11 Y0 2.259369 1_555
F12 Y2 2.274274 1_556
F12 Y4 2.404294 1_555
F13 Y2 2.176824 1_555
F14 Y0 2.248390 1_555
F15 Y5 2.248390 1_555
F16 Y3 2.176824 1_555
F17 Y3 2.274274 1_554
F17 Y1 2.404294 1_555
F18 Y5 2.259369 1_555
F19 Y4 2.370231 1_555
F19 Y2 2.378868 1_556
F20 Y4 2.296395 1_555
F20 Y5 2.348441 1_555
F21 Y5 2.227001 1_555
F22 Y0 2.284894 1_655
F22 Y4 2.316029 1_555
F23 Y2 2.281933 1_566
F23 Y3 2.311795 1_655
F24 Y1 2.296359 1_555
F24 Y0 2.533685 1_555
F24 Y5 2.562851 1_455
F25 Y3 2.259937 1_554
F25 Y1 2.291995 1_555
F26 Y4 2.211474 1_555
F27 Y3 2.189950 1_555
F28 Y4 2.268626 1_555
F29 Y5 2.264529 1_555
