# generated using pymatgen
data_Li3Ni2(CO3)4
_symmetry_space_group_name_H-M   'P 1'
_cell_length_a   5.39431200
_cell_length_b   6.45544018
_cell_length_c   8.19818271
_cell_angle_alpha   86.51219119
_cell_angle_beta   100.84370087
_cell_angle_gamma   113.20854204
_symmetry_Int_Tables_number   1
_chemical_formula_structural   Li3Ni2(CO3)4
_chemical_formula_sum   'Li3 Ni2 C4 O12'
_cell_volume   257.66726641
_cell_formula_units_Z   1
loop_
 _symmetry_equiv_pos_site_id
 _symmetry_equiv_pos_as_xyz
  1  'x, y, z'
loop_
 _atom_site_type_symbol
 _atom_site_label
 _atom_site_symmetry_multiplicity
 _atom_site_fract_x
 _atom_site_fract_y
 _atom_site_fract_z
 _atom_site_occupancy
  Li  Li0  1  0.52581100  0.05025800  0.31697400  1
  Li  Li1  1  0.12962600  0.95246800  0.66190300  1
  Li  Li2  1  0.21955900  0.45545100  0.82516500  1
  Ni  Ni0  1  0.95343700  0.99863000  0.01172700  1
  Ni  Ni1  1  0.72100800  0.49659200  0.50765500  1
  C  C0  1  0.32324500  0.39526200  0.20950600  1
  C  C1  1  0.91714600  0.89382000  0.29823500  1
  C  C2  1  0.69233400  0.10064800  0.70085300  1
  C  C3  1  0.74578900  0.60536400  0.79423800  1
  O  O0  1  0.21043400  0.33027300  0.05729700  1
  O  O1  1  0.73422100  0.94702200  0.19986900  1
  O  O2  1  0.55663500  0.38493700  0.27196100  1
  O  O3  1  0.13214700  0.91723800  0.23976300  1
  O  O4  1  0.20474800  0.46337300  0.29937700  1
  O  O5  1  0.88585500  0.82474100  0.44714200  1
  O  O6  1  0.66145200  0.17214200  0.54822900  1
  O  O7  1  0.93861100  0.10775700  0.76949300  1
  O  O8  1  0.96197800  0.61212100  0.73711800  1
  O  O9  1  0.51557900  0.52262800  0.69147900  1
  O  O10  1  0.49926900  0.02988000  0.78132400  1
  O  O11  1  0.76316600  0.67681100  0.93765100  1
loop_
_geom_bond_atom_site_label_1
_geom_bond_atom_site_label_2
_geom_bond_distance
_geom_bond_site_symmetry_2
Li0 O1 1.924623 1_545
Li0 O3 1.941820 1_545
Li0 O6 1.988613 1_555
Li0 O2 2.115309 1_555
Li1 O10 1.929716 1_565
Li1 O5 1.989940 1_455
Li1 O7 2.026893 1_465
Li1 O8 2.122319 1_455
Li2 O9 1.998491 1_555
Li2 O0 2.023324 1_556
Li2 O8 2.028774 1_455
Li2 O7 2.174017 1_455
Ni0 O11 1.994139 1_554
Ni0 O1 2.049796 1_555
Ni0 O0 2.051372 1_665
Ni0 O7 2.064172 1_564
Ni0 O3 2.074115 1_655
Ni1 O6 2.006429 1_555
Ni1 O2 2.015059 1_555
Ni1 O5 2.019332 1_555
Ni1 O8 2.066705 1_555
Ni1 O9 2.081665 1_555
C0 O4 1.258129 1_555
C0 O2 1.292699 1_555
C0 O0 1.296220 1_555
C1 O3 1.288379 1_655
C1 O5 1.292126 1_555
C1 O1 1.294585 1_555
C2 O10 1.255153 1_555
C2 O6 1.310825 1_555
C2 O7 1.325696 1_555
C3 O11 1.262648 1_555
C3 O9 1.294394 1_555
C3 O8 1.320640 1_555
