# generated using pymatgen
data_Li2MnVP2(HO5)2
_symmetry_space_group_name_H-M   'P 1'
_cell_length_a   5.48861700
_cell_length_b   7.43203802
_cell_length_c   14.34969034
_cell_angle_alpha   95.14043722
_cell_angle_beta   91.48467393
_cell_angle_gamma   110.04188969
_symmetry_Int_Tables_number   1
_chemical_formula_structural   Li2MnVP2(HO5)2
_chemical_formula_sum   'Li6 Mn3 V3 P6 H6 O30'
_cell_volume   546.68454167
_cell_formula_units_Z   3
loop_
 _symmetry_equiv_pos_site_id
 _symmetry_equiv_pos_as_xyz
  1  'x, y, z'
loop_
 _atom_site_type_symbol
 _atom_site_label
 _atom_site_symmetry_multiplicity
 _atom_site_fract_x
 _atom_site_fract_y
 _atom_site_fract_z
 _atom_site_occupancy
  Li  Li0  1  0.25604800  0.86194400  0.69525700  1
  Li  Li1  1  0.06822500  0.46595600  0.64071500  1
  Li  Li2  1  0.40781900  0.79684600  0.97498300  1
  Li  Li3  1  0.59385100  0.20262400  0.02590400  1
  Li  Li4  1  0.93270100  0.53831700  0.35776700  1
  Li  Li5  1  0.74323600  0.13274800  0.30579700  1
  Mn  Mn0  1  0.33580800  0.33542800  0.83549000  1
  Mn  Mn1  1  0.66675700  0.66754300  0.66720400  1
  Mn  Mn2  1  0.66832400  0.66726500  0.16614500  1
  V  V0  1  0.33401900  0.33419400  0.33199400  1
  V  V1  1  0.99433700  0.99679500  0.49912500  1
  V  V2  1  0.00145400  0.99905100  0.00001000  1
  P  P0  1  0.01376100  0.37910400  0.14564000  1
  P  P1  1  0.32004200  0.95362900  0.18696300  1
  P  P2  1  0.34849700  0.71494000  0.48090700  1
  P  P3  1  0.64051100  0.28469100  0.51846500  1
  P  P4  1  0.68191800  0.04781000  0.81288100  1
  P  P5  1  0.99237000  0.61872300  0.85462400  1
  H  H0  1  0.05250400  0.98754800  0.32522900  1
  H  H1  1  0.27801800  0.34763500  0.00740100  1
  H  H2  1  0.39041100  0.32481100  0.66131000  1
  H  H3  1  0.61669000  0.68255000  0.33856200  1
  H  H4  1  0.72239500  0.65175400  0.99233600  1
  H  H5  1  0.94303700  0.00913400  0.67598100  1
  O  O0  1  0.09312900  0.83053000  0.90227100  1
  O  O1  1  0.05969800  0.84121900  0.22506600  1
  O  O2  1  0.13765900  0.79624300  0.44768700  1
  O  O3  1  0.21158700  0.54277100  0.88583900  1
  O  O4  1  0.29781000  0.95838900  0.07831300  1
  O  O5  1  0.03605500  0.37343700  0.25440400  1
  O  O6  1  0.35113800  0.70834900  0.58788200  1
  O  O7  1  0.24979400  0.50603600  0.43090100  1
  O  O8  1  0.05460900  0.09696600  0.37183400  1
  O  O9  1  0.27440800  0.49168900  0.10784700  1
  O  O10  1  0.28058400  0.23822300  0.96129800  1
  O  O11  1  0.57674500  0.83554000  0.76604800  1
  O  O12  1  0.54137000  0.87827800  0.21437100  1
  O  O13  1  0.38881800  0.43434800  0.70655200  1
  O  O14  1  0.61956200  0.82643200  0.44734200  1
  O  O15  1  0.37124600  0.17276000  0.55224100  1
  O  O16  1  0.61764400  0.57346000  0.29297200  1
  O  O17  1  0.46107900  0.12524700  0.78683100  1
  O  O18  1  0.42311700  0.16550200  0.23328900  1
  O  O19  1  0.72129600  0.76100500  0.03906000  1
  O  O20  1  0.72966300  0.50791800  0.89234300  1
  O  O21  1  0.94280700  0.89883400  0.62969800  1
  O  O22  1  0.74426600  0.49463200  0.56707000  1
  O  O23  1  0.62977600  0.29178500  0.40978200  1
  O  O24  1  0.97962100  0.62302800  0.74724200  1
  O  O25  1  0.70581100  0.04316700  0.92163400  1
  O  O26  1  0.79242000  0.45450000  0.11888500  1
  O  O27  1  0.85204100  0.20162700  0.54749600  1
  O  O28  1  0.94237200  0.15941500  0.77433500  1
  O  O29  1  0.91114000  0.16762800  0.09877900  1
loop_
_geom_bond_atom_site_label_1
_geom_bond_atom_site_label_2
_geom_bond_distance
_geom_bond_site_symmetry_2
Li0 O6 2.020984 1_555
Li0 O21 2.049762 1_455
Li0 O11 2.085300 1_555
Li0 O24 2.112047 1_455
Li0 O17 2.185338 1_565
Li1 O24 2.010925 1_455
Li1 O13 2.069033 1_555
Li1 O22 2.127564 1_455
Li1 O6 2.149345 1_555
Li1 O27 2.214879 1_455
Li2 O19 2.037831 1_556
Li2 O4 2.056408 1_556
Li2 O0 2.093895 1_555
Li2 O3 2.112768 1_555
Li2 O25 2.208219 1_565
Li3 O10 2.039354 1_554
Li3 O25 2.061516 1_554
Li3 O29 2.111581 1_555
Li3 O26 2.133296 1_555
Li3 O4 2.187911 1_545
Li4 O16 2.047612 1_555
Li4 O5 2.053706 1_655
Li4 O7 2.103465 1_655
Li4 O2 2.146743 1_655
Li4 O23 2.213578 1_555
Li5 O8 2.040132 1_655
Li5 O23 2.061065 1_555
Li5 O18 2.114883 1_555
Li5 O12 2.137604 1_545
Li5 O5 2.157315 1_655
Mn0 O3 1.976769 1_555
Mn0 O17 1.991467 1_555
Mn0 O10 1.996217 1_555
Mn0 O13 2.042911 1_555
Mn0 O20 2.191750 1_555
Mn0 O28 2.214575 1_455
Mn1 O11 1.989106 1_555
Mn1 O21 1.990735 1_555
Mn1 O22 1.993132 1_555
Mn1 O13 2.014321 1_555
Mn1 O6 2.169851 1_555
Mn1 O24 2.175449 1_555
Mn2 O26 1.998563 1_555
Mn2 O16 1.999055 1_555
Mn2 O12 2.000843 1_555
Mn2 O19 2.002954 1_555
Mn2 O1 2.192521 1_655
Mn2 O9 2.203177 1_555
H0 O8 1.002189 1_565
H0 O1 1.732741 1_555
H1 O10 1.005494 1_554
H1 O9 1.721525 1_555
H2 O13 0.997370 1_555
H3 O16 0.996686 1_555
H4 O19 1.007403 1_556
H4 O20 1.720617 1_555
H5 O21 1.007361 1_545
H5 O28 1.720455 1_555
O0 P5 1.562734 1_455
O0 V2 1.985608 1_556
O1 P1 1.530637 1_555
O2 P2 1.560060 1_555
O2 V1 2.005450 1_455
O3 P5 1.565202 1_455
O4 P1 1.565215 1_555
O4 V2 2.074293 1_555
O5 P0 1.567814 1_555
O5 V0 2.071240 1_555
O6 P2 1.540072 1_555
O7 P2 1.556477 1_555
O7 V0 1.993238 1_555
O8 V1 2.026396 1_445
O8 V0 2.039600 1_555
O9 P0 1.530322 1_555
O10 V2 2.042020 1_546
O11 P4 1.561858 1_565
O12 P1 1.557238 1_555
O14 P2 1.547814 1_555
O14 V1 2.086524 1_555
O15 P3 1.542011 1_555
O15 V1 2.110956 1_445
O16 V0 2.055541 1_555
O17 P4 1.559918 1_555
O18 P1 1.556866 1_545
O18 V0 1.988728 1_555
O19 V2 2.041102 1_655
O20 P5 1.535134 1_555
O21 V1 2.061917 1_555
O22 P3 1.555845 1_555
O23 P3 1.565440 1_555
O23 V0 2.073704 1_555
O24 P5 1.544367 1_555
O25 P4 1.567137 1_555
O25 V2 2.083655 1_646
O26 P0 1.555066 1_655
O27 P3 1.553983 1_555
O27 V1 2.015659 1_545
O28 P4 1.532309 1_555
O29 P0 1.556881 1_655
O29 V2 1.991994 1_645
