# generated using pymatgen
data_Li4CrFe3O8
_symmetry_space_group_name_H-M   'P 1'
_cell_length_a   5.17892000
_cell_length_b   7.87996487
_cell_length_c   7.87989831
_cell_angle_alpha   81.80119727
_cell_angle_beta   83.74174104
_cell_angle_gamma   70.98706962
_symmetry_Int_Tables_number   1
_chemical_formula_structural   Li4CrFe3O8
_chemical_formula_sum   'Li8 Cr2 Fe6 O16'
_cell_volume   300.25228940
_cell_formula_units_Z   2
loop_
 _symmetry_equiv_pos_site_id
 _symmetry_equiv_pos_as_xyz
  1  'x, y, z'
loop_
 _atom_site_type_symbol
 _atom_site_label
 _atom_site_symmetry_multiplicity
 _atom_site_fract_x
 _atom_site_fract_y
 _atom_site_fract_z
 _atom_site_occupancy
  Li  Li0  1  0.50075400  0.68685500  0.93776600  1
  Li  Li1  1  0.50234400  0.43615900  0.68755600  1
  Li  Li2  1  0.49765600  0.56384100  0.31244400  1
  Li  Li3  1  0.49952100  0.06300500  0.81168500  1
  Li  Li4  1  0.50096500  0.18677900  0.43842600  1
  Li  Li5  1  0.49924600  0.31314500  0.06223400  1
  Li  Li6  1  0.49903500  0.81322100  0.56157400  1
  Li  Li7  1  0.50047900  0.93699500  0.18831500  1
  Cr  Cr0  1  0.99998500  0.12462200  0.62474300  1
  Cr  Cr1  1  0.00001500  0.87537800  0.37525700  1
  Fe  Fe0  1  0.00016800  0.37466900  0.87461800  1
  Fe  Fe1  1  0.00000000  0.50000000  0.50000000  1
  Fe  Fe2  1  0.99983200  0.62533100  0.12538200  1
  Fe  Fe3  1  0.99919200  0.24990800  0.25046800  1
  Fe  Fe4  1  0.00080800  0.75009200  0.74953200  1
  Fe  Fe5  1  0.00000000  0.00000000  0.00000000  1
  O  O0  1  0.22924100  0.53566500  0.90672400  1
  O  O1  1  0.77101900  0.58955500  0.71767900  1
  O  O2  1  0.22756200  0.66200500  0.53087000  1
  O  O3  1  0.77266100  0.21328300  0.84142600  1
  O  O4  1  0.22734900  0.28433200  0.65656900  1
  O  O5  1  0.22898100  0.41044500  0.28232100  1
  O  O6  1  0.77243800  0.33799500  0.46913000  1
  O  O7  1  0.22731500  0.91209100  0.78095700  1
  O  O8  1  0.22519800  0.03540400  0.40843000  1
  O  O9  1  0.77075900  0.46433500  0.09327600  1
  O  O10  1  0.77480200  0.96459600  0.59157000  1
  O  O11  1  0.22897000  0.16082400  0.03232900  1
  O  O12  1  0.77268500  0.08790900  0.21904300  1
  O  O13  1  0.22733900  0.78671700  0.15857400  1
  O  O14  1  0.77265100  0.71566800  0.34343100  1
  O  O15  1  0.77103000  0.83917600  0.96767100  1
loop_
_geom_bond_atom_site_label_1
_geom_bond_atom_site_label_2
_geom_bond_distance
_geom_bond_site_symmetry_2
Li0 O9 2.166727 1_556
Li0 O15 2.168581 1_555
Li0 O1 2.169200 1_555
Li0 O0 2.169348 1_555
Li0 O13 2.186099 1_556
Li0 O7 2.191038 1_555
Li1 O6 2.160382 1_555
Li1 O3 2.162208 1_555
Li1 O1 2.168703 1_555
Li1 O0 2.174620 1_555
Li1 O4 2.188280 1_555
Li1 O2 2.196123 1_555
Li2 O2 2.160382 1_555
Li2 O13 2.162208 1_555
Li2 O5 2.168703 1_555
Li2 O9 2.174620 1_555
Li2 O14 2.188280 1_555
Li2 O6 2.196123 1_555
Li3 O4 2.165278 1_555
Li3 O3 2.168202 1_555
Li3 O7 2.170029 1_545
Li3 O11 2.174332 1_556
Li3 O15 2.177482 1_545
Li3 O10 2.183220 1_545
Li4 O10 2.164603 1_545
Li4 O4 2.165585 1_555
Li4 O6 2.168638 1_555
Li4 O12 2.171433 1_555
Li4 O5 2.178395 1_555
Li4 O8 2.186868 1_555
Li5 O0 2.166727 1_554
Li5 O11 2.168581 1_555
Li5 O5 2.169200 1_555
Li5 O9 2.169348 1_555
Li5 O3 2.186099 1_554
Li5 O12 2.191038 1_555
Li6 O8 2.164603 1_565
Li6 O14 2.165585 1_555
Li6 O2 2.168638 1_555
Li6 O7 2.171433 1_555
Li6 O1 2.178395 1_555
Li6 O10 2.186868 1_555
Li7 O14 2.165278 1_555
Li7 O13 2.168202 1_555
Li7 O12 2.170029 1_565
Li7 O15 2.174332 1_554
Li7 O11 2.177482 1_565
Li7 O8 2.183220 1_565
Cr0 O8 2.033254 1_655
Cr0 O10 2.033995 1_545
Cr0 O7 2.036999 1_645
Cr0 O4 2.037938 1_655
Cr0 O6 2.038467 1_555
Cr0 O3 2.038513 1_555
Cr1 O10 2.033254 1_455
Cr1 O8 2.033995 1_565
Cr1 O12 2.036999 1_465
Cr1 O14 2.037938 1_455
Cr1 O2 2.038467 1_555
Cr1 O13 2.038513 1_555
Fe0 O4 2.050766 1_555
Fe0 O11 2.052028 1_556
Fe0 O3 2.052381 1_455
Fe0 O1 2.053859 1_455
Fe0 O0 2.053900 1_555
Fe0 O9 2.057545 1_456
Fe1 O1 2.050124 1_455
Fe1 O5 2.050124 1_555
Fe1 O2 2.051617 1_555
Fe1 O6 2.051617 1_455
Fe1 O14 2.052203 1_455
Fe1 O4 2.052203 1_555
Fe2 O14 2.050766 1_555
Fe2 O15 2.052028 1_554
Fe2 O13 2.052381 1_655
Fe2 O5 2.053859 1_655
Fe2 O9 2.053900 1_555
Fe2 O0 2.057545 1_654
Fe3 O12 2.048450 1_555
Fe3 O6 2.049045 1_555
Fe3 O8 2.050581 1_655
Fe3 O9 2.051574 1_555
Fe3 O5 2.053318 1_655
Fe3 O11 2.053642 1_655
Fe4 O7 2.048450 1_555
Fe4 O2 2.049045 1_555
Fe4 O10 2.050581 1_455
Fe4 O0 2.051574 1_555
Fe4 O1 2.053318 1_455
Fe4 O15 2.053642 1_455
Fe5 O13 2.050532 1_545
Fe5 O3 2.050532 1_454
Fe5 O12 2.052226 1_455
Fe5 O7 2.052226 1_544
Fe5 O11 2.052844 1_555
Fe5 O15 2.052844 1_444
