# generated using pymatgen
data_KAlP4(H2O7)2
_symmetry_space_group_name_H-M   'P 1'
_cell_length_a   4.95590000
_cell_length_b   7.55831429
_cell_length_c   7.86991778
_cell_angle_alpha   81.68211427
_cell_angle_beta   83.65834344
_cell_angle_gamma   73.91791967
_symmetry_Int_Tables_number   1
_chemical_formula_structural   KAlP4(H2O7)2
_chemical_formula_sum   'K1 Al1 P4 H4 O14'
_cell_volume   279.50815212
_cell_formula_units_Z   1
loop_
 _symmetry_equiv_pos_site_id
 _symmetry_equiv_pos_as_xyz
  1  'x, y, z'
loop_
 _atom_site_type_symbol
 _atom_site_label
 _atom_site_symmetry_multiplicity
 _atom_site_fract_x
 _atom_site_fract_y
 _atom_site_fract_z
 _atom_site_occupancy
  K  K0  1  0.00000000  0.00000000  0.00000000  1
  Al  Al0  1  0.00000000  0.50000000  0.00000000  1
  P  P0  1  0.41945000  0.60466300  0.22515300  1
  P  P1  1  0.58055000  0.39533700  0.77484700  1
  P  P2  1  0.31310300  0.23633700  0.31603000  1
  P  P3  1  0.68689700  0.76366300  0.68397000  1
  H  H0  1  0.12759100  0.78227400  0.41072600  1
  H  H1  1  0.87240900  0.21772600  0.58927400  1
  H  H2  1  0.31379100  0.99800500  0.62150900  1
  H  H3  1  0.68620900  0.00199500  0.37849100  1
  O  O0  1  0.16575300  0.16468200  0.47813200  1
  O  O1  1  0.83424700  0.83531800  0.52186800  1
  O  O2  1  0.16172200  0.28004000  0.15119300  1
  O  O3  1  0.83827800  0.71996000  0.84880700  1
  O  O4  1  0.23978500  0.62809100  0.07386600  1
  O  O5  1  0.76021500  0.37190900  0.92613400  1
  O  O6  1  0.37896700  0.42604600  0.35385700  1
  O  O7  1  0.62103300  0.57395400  0.64614300  1
  O  O8  1  0.27249500  0.41161700  0.82199600  1
  O  O9  1  0.72750500  0.58838300  0.17800400  1
  O  O10  1  0.30752900  0.77270300  0.33200100  1
  O  O11  1  0.69247100  0.22729700  0.66799900  1
  O  O12  1  0.39019800  0.90251700  0.72170400  1
  O  O13  1  0.60980200  0.09748300  0.27829600  1
loop_
_geom_bond_atom_site_label_1
_geom_bond_atom_site_label_2
_geom_bond_distance
_geom_bond_site_symmetry_2
K0 O5 2.735136 1_454
K0 O4 2.735136 1_545
K0 O13 2.796623 1_455
K0 O12 2.796623 1_544
K0 O2 2.901298 1_555
K0 O3 2.901298 1_444
K0 O11 3.198665 1_454
K0 O10 3.198665 1_545
Al0 O9 1.893534 1_455
Al0 O8 1.893534 1_554
Al0 O4 1.907953 1_555
Al0 O5 1.907953 1_454
Al0 O2 1.929316 1_555
Al0 O3 1.929316 1_454
H0 O10 1.019552 1_555
H0 O1 1.592771 1_455
H1 O11 1.019552 1_555
H1 O0 1.592771 1_655
H2 O12 1.017814 1_555
H2 O0 1.630363 1_565
H3 O13 1.017814 1_555
H3 O1 1.630363 1_545
O0 P2 1.505816 1_555
O1 P3 1.505816 1_555
O2 P2 1.519390 1_555
O3 P3 1.519390 1_555
O4 P0 1.525642 1_555
O5 P1 1.525642 1_555
O6 P0 1.611938 1_555
O6 P2 1.629558 1_555
O7 P1 1.611938 1_555
O7 P3 1.629558 1_555
O8 P1 1.505853 1_555
O9 P0 1.505853 1_555
O10 P0 1.563190 1_555
O11 P1 1.563190 1_555
O12 P3 1.578127 1_555
O13 P2 1.578127 1_555
