# generated using pymatgen
data_LiZrPCO7
_symmetry_space_group_name_H-M   'P 1'
_cell_length_a   6.63093000
_cell_length_b   5.68270700
_cell_length_c   8.89924128
_cell_angle_alpha   88.38631586
_cell_angle_beta   90.00000000
_cell_angle_gamma   90.00000000
_symmetry_Int_Tables_number   1
_chemical_formula_structural   LiZrPCO7
_chemical_formula_sum   'Li2 Zr2 P2 C2 O14'
_cell_volume   335.20494888
_cell_formula_units_Z   2
loop_
 _symmetry_equiv_pos_site_id
 _symmetry_equiv_pos_as_xyz
  1  'x, y, z'
loop_
 _atom_site_type_symbol
 _atom_site_label
 _atom_site_symmetry_multiplicity
 _atom_site_fract_x
 _atom_site_fract_y
 _atom_site_fract_z
 _atom_site_occupancy
  Li  Li0  1  0.43238300  0.74587100  0.84355900  1
  Li  Li1  1  0.93238300  0.25412900  0.15644100  1
  Zr  Zr0  1  0.25463800  0.20392700  0.65837600  1
  Zr  Zr1  1  0.75463800  0.79607300  0.34162400  1
  P  P0  1  0.75823300  0.27864100  0.55182600  1
  P  P1  1  0.25823300  0.72135900  0.44817400  1
  C  C0  1  0.25605200  0.26164600  0.94755000  1
  C  C1  1  0.75605200  0.73835400  0.05245000  1
  O  O0  1  0.70665700  0.70598500  0.92118100  1
  O  O1  1  0.27360700  0.05143000  0.88459800  1
  O  O2  1  0.28534700  0.43630500  0.84365800  1
  O  O3  1  0.94234800  0.21379200  0.65032700  1
  O  O4  1  0.56803900  0.19779300  0.63624900  1
  O  O5  1  0.27354800  0.84914200  0.60079200  1
  O  O6  1  0.75129600  0.54614000  0.51684300  1
  O  O7  1  0.25129600  0.45386000  0.48315700  1
  O  O8  1  0.77354800  0.15085800  0.39920800  1
  O  O9  1  0.06803900  0.80220700  0.36375100  1
  O  O10  1  0.44234800  0.78620800  0.34967300  1
  O  O11  1  0.78534700  0.56369500  0.15634200  1
  O  O12  1  0.77360700  0.94857000  0.11540200  1
  O  O13  1  0.20665700  0.29401500  0.07881900  1
loop_
_geom_bond_atom_site_label_1
_geom_bond_atom_site_label_2
_geom_bond_distance
_geom_bond_site_symmetry_2
Li0 O0 1.956366 1_555
Li0 O2 2.011268 1_555
Li0 O1 2.071871 1_565
Li0 O5 2.459631 1_555
Li1 O13 1.956366 1_655
Li1 O11 2.011268 1_555
Li1 O12 2.071871 1_545
Li1 O8 2.459631 1_555
C0 O13 1.232029 1_556
C0 O1 1.338714 1_555
C0 O2 1.351292 1_555
C1 O0 1.232029 1_554
C1 O12 1.338714 1_555
C1 O11 1.351292 1_555
O1 Zr0 2.172911 1_555
O2 Zr0 2.150972 1_555
O3 P0 1.541589 1_555
O3 Zr0 2.072715 1_655
O4 P0 1.531870 1_555
O4 Zr0 2.087832 1_555
O5 P1 1.561353 1_555
O5 Zr0 2.097937 1_565
O6 P0 1.543743 1_555
O6 Zr1 2.079535 1_555
O7 P1 1.543743 1_555
O7 Zr0 2.079535 1_555
O8 P0 1.561353 1_555
O8 Zr1 2.097937 1_545
O9 P1 1.531870 1_555
O9 Zr1 2.087832 1_455
O10 P1 1.541589 1_555
O10 Zr1 2.072715 1_555
O11 Zr1 2.150972 1_555
O12 Zr1 2.172911 1_555
