# generated using pymatgen
data_LiCr(PO3)4
_symmetry_space_group_name_H-M   'P 1'
_cell_length_a   8.51243139
_cell_length_b   8.51243139
_cell_length_c   9.53030676
_cell_angle_alpha   60.77880504
_cell_angle_beta   60.77880504
_cell_angle_gamma   50.85322317
_symmetry_Int_Tables_number   1
_chemical_formula_structural   LiCr(PO3)4
_chemical_formula_sum   'Li2 Cr2 P8 O24'
_cell_volume   450.58139797
_cell_formula_units_Z   2
loop_
 _symmetry_equiv_pos_site_id
 _symmetry_equiv_pos_as_xyz
  1  'x, y, z'
loop_
 _atom_site_type_symbol
 _atom_site_label
 _atom_site_symmetry_multiplicity
 _atom_site_fract_x
 _atom_site_fract_y
 _atom_site_fract_z
 _atom_site_occupancy
  Li  Li0  1  0.69105300  0.30894700  0.75000000  1
  Li  Li1  1  0.30894700  0.69105300  0.25000000  1
  Cr  Cr0  1  0.13714200  0.86285800  0.75000000  1
  Cr  Cr1  1  0.86285800  0.13714200  0.25000000  1
  P  P0  1  0.02633100  0.69798600  0.16681700  1
  P  P1  1  0.44251600  0.29781300  0.13651600  1
  P  P2  1  0.70218700  0.55748400  0.36348400  1
  P  P3  1  0.30201400  0.97366900  0.33318300  1
  P  P4  1  0.69798600  0.02633100  0.66681700  1
  P  P5  1  0.29781300  0.44251600  0.63651600  1
  P  P6  1  0.55748400  0.70218700  0.86348400  1
  P  P7  1  0.97366900  0.30201400  0.83318300  1
  O  O0  1  0.60668700  0.19282900  0.22291400  1
  O  O1  1  0.23287800  0.48534300  0.21974600  1
  O  O2  1  0.02462700  0.74480000  0.99357200  1
  O  O3  1  0.85026200  0.64866800  0.30386600  1
  O  O4  1  0.98560600  0.14354400  0.79279700  1
  O  O5  1  0.35133200  0.14973800  0.19613400  1
  O  O6  1  0.25520000  0.97537300  0.50642800  1
  O  O7  1  0.63268500  0.51050700  0.54803100  1
  O  O8  1  0.48949300  0.36731500  0.95196900  1
  O  O9  1  0.51465700  0.76712200  0.28025400  1
  O  O10  1  0.80717100  0.39331300  0.27708600  1
  O  O11  1  0.85645600  0.01439400  0.70720300  1
  O  O12  1  0.14354400  0.98560600  0.29279700  1
  O  O13  1  0.19282800  0.60668700  0.72291400  1
  O  O14  1  0.48534300  0.23287800  0.71974600  1
  O  O15  1  0.51050700  0.63268500  0.04803100  1
  O  O16  1  0.36731500  0.48949300  0.45196900  1
  O  O17  1  0.74480000  0.02462700  0.49357200  1
  O  O18  1  0.64866800  0.85026200  0.80386600  1
  O  O19  1  0.01439400  0.85645600  0.20720300  1
  O  O20  1  0.14973800  0.35133200  0.69613400  1
  O  O21  1  0.97537300  0.25520000  0.00642800  1
  O  O22  1  0.76712200  0.51465700  0.78025400  1
  O  O23  1  0.39331300  0.80717100  0.77708600  1
loop_
_geom_bond_atom_site_label_1
_geom_bond_atom_site_label_2
_geom_bond_distance
_geom_bond_site_symmetry_2
Li0 O7 1.878448 1_555
Li0 O8 1.878448 1_555
Li0 O4 2.101426 1_555
Li0 O11 2.101426 1_555
Li0 O22 2.382367 1_555
Li0 O14 2.382367 1_555
Li1 O15 1.878448 1_555
Li1 O16 1.878448 1_555
Li1 O12 2.101426 1_555
Li1 O19 2.101426 1_555
Li1 O9 2.382367 1_555
Li1 O1 2.382367 1_555
Cr0 O2 2.020556 1_555
Cr0 O6 2.020556 1_555
Cr0 O4 2.021254 1_465
Cr0 O11 2.021254 1_465
Cr0 O23 2.042423 1_555
Cr0 O13 2.042428 1_555
Cr1 O21 2.020556 1_555
Cr1 O17 2.020556 1_555
Cr1 O12 2.021254 1_645
Cr1 O19 2.021254 1_645
Cr1 O10 2.042423 1_555
Cr1 O0 2.042423 1_555
O0 P1 1.502593 1_555
O1 P0 1.605724 1_555
O1 P1 1.618466 1_555
O2 P0 1.502914 1_556
O3 P0 1.573623 1_655
O3 P2 1.618515 1_555
O4 P7 1.507929 1_555
O5 P3 1.573623 1_545
O5 P1 1.618515 1_555
O6 P3 1.502914 1_555
O7 P2 1.483017 1_555
O8 P1 1.483017 1_556
O9 P3 1.605724 1_555
O9 P2 1.618466 1_555
O10 P2 1.502593 1_555
O11 P4 1.507929 1_555
O12 P3 1.507929 1_555
O13 P5 1.502591 1_555
O14 P4 1.605724 1_555
O14 P5 1.618466 1_555
O15 P6 1.483017 1_554
O16 P5 1.483017 1_555
O17 P4 1.502914 1_555
O18 P4 1.573623 1_565
O18 P6 1.618515 1_555
O19 P0 1.507929 1_555
O20 P7 1.573623 1_455
O20 P5 1.618515 1_555
O21 P7 1.502914 1_554
O22 P7 1.605724 1_555
O22 P6 1.618466 1_555
O23 P6 1.502593 1_555
