# generated using pymatgen
data_Ti11O14
_symmetry_space_group_name_H-M   'P 1'
_cell_length_a   5.07661800
_cell_length_b   5.10822362
_cell_length_c   10.69932619
_cell_angle_alpha   85.73210451
_cell_angle_beta   103.67012971
_cell_angle_gamma   109.12320476
_symmetry_Int_Tables_number   1
_chemical_formula_structural   Ti11O14
_chemical_formula_sum   'Ti11 O14'
_cell_volume   254.72159638
_cell_formula_units_Z   1
loop_
 _symmetry_equiv_pos_site_id
 _symmetry_equiv_pos_as_xyz
  1  'x, y, z'
loop_
 _atom_site_type_symbol
 _atom_site_label
 _atom_site_symmetry_multiplicity
 _atom_site_fract_x
 _atom_site_fract_y
 _atom_site_fract_z
 _atom_site_occupancy
  Ti  Ti0  1  0.84819000  0.98606100  0.71890100  1
  Ti  Ti1  1  0.57355100  0.00542300  0.14477900  1
  Ti  Ti2  1  0.71302300  0.00042400  0.42585800  1
  Ti  Ti3  1  0.51176700  0.49407500  0.01583800  1
  Ti  Ti4  1  0.93060500  0.50087600  0.86687600  1
  Ti  Ti5  1  0.77616100  0.50003400  0.55570200  1
  Ti  Ti6  1  0.14359600  0.00188500  0.28561600  1
  Ti  Ti7  1  0.42824100  0.99426300  0.85036700  1
  Ti  Ti8  1  0.21474400  0.50057800  0.43153400  1
  Ti  Ti9  1  0.06026600  0.49728900  0.13837100  1
  Ti  Ti10  1  0.36732300  0.50904200  0.70538100  1
  O  O0  1  0.38873900  0.74512900  0.28458200  1
  O  O1  1  0.25844300  0.75697500  0.00252500  1
  O  O2  1  0.45922900  0.24865700  0.42509500  1
  O  O3  1  0.31777900  0.24875600  0.14545800  1
  O  O4  1  0.82453000  0.75317900  0.14661700  1
  O  O5  1  0.96469900  0.75339200  0.42525100  1
  O  O6  1  0.09586300  0.73397800  0.71212200  1
  O  O7  1  0.89233100  0.25766400  0.28630200  1
  O  O8  1  0.67337900  0.73796400  0.86394300  1
  O  O9  1  0.74773000  0.23169700  0.99890300  1
  O  O10  1  0.03294600  0.24108800  0.57209900  1
  O  O11  1  0.53499600  0.76435100  0.56669300  1
  O  O12  1  0.18919500  0.26078200  0.85494100  1
  O  O13  1  0.61718200  0.25827600  0.71199200  1
loop_
_geom_bond_atom_site_label_1
_geom_bond_atom_site_label_2
_geom_bond_distance
_geom_bond_site_symmetry_2
O0 Ti6 2.084998 1_565
O0 Ti2 2.099105 1_565
O0 Ti1 2.106076 1_565
O0 Ti8 2.110448 1_555
O0 Ti9 2.123502 1_555
O1 Ti1 2.071888 1_565
O1 Ti4 2.074150 1_454
O1 Ti9 2.100997 1_555
O1 Ti3 2.119954 1_555
O1 Ti7 2.132517 1_554
O2 Ti5 2.010232 1_555
O2 Ti6 2.051811 1_555
O2 Ti8 2.073970 1_555
O2 Ti2 2.081322 1_555
O3 Ti3 2.010434 1_555
O3 Ti6 2.058077 1_555
O3 Ti1 2.072287 1_555
O3 Ti9 2.086339 1_555
O4 Ti3 2.019744 1_555
O4 Ti9 2.059274 1_655
O4 Ti6 2.060041 1_665
O4 Ti1 2.084253 1_565
O5 Ti5 2.022406 1_555
O5 Ti6 2.066846 1_665
O5 Ti2 2.070350 1_565
O5 Ti8 2.074723 1_655
O6 Ti10 2.078802 1_555
O6 Ti0 2.088577 1_455
O6 Ti7 2.108531 1_555
O6 Ti4 2.138189 1_455
O6 Ti5 2.146200 1_455
O7 Ti1 2.082770 1_555
O7 Ti2 2.086027 1_555
O7 Ti8 2.094618 1_655
O7 Ti9 2.096658 1_655
O7 Ti6 2.105262 1_655
O8 Ti4 2.045515 1_555
O8 Ti7 2.058561 1_555
O8 Ti0 2.103156 1_555
O8 Ti10 2.125702 1_555
O8 Ti3 2.127346 1_556
O9 Ti4 2.059710 1_555
O9 Ti1 2.065930 1_556
O9 Ti9 2.087249 1_656
O9 Ti7 2.099286 1_545
O9 Ti3 2.110645 1_556
O10 Ti2 2.091483 1_455
O10 Ti10 2.100619 1_555
O10 Ti8 2.104398 1_555
O10 Ti5 2.113523 1_455
O10 Ti0 2.152924 1_445
O11 Ti2 2.049573 1_565
O11 Ti10 2.051565 1_555
O11 Ti8 2.072057 1_555
O11 Ti0 2.081721 1_555
O11 Ti5 2.123798 1_555
O12 Ti4 2.097925 1_455
O12 Ti7 2.109287 1_545
O12 Ti0 2.146186 1_445
O12 Ti10 2.148753 1_555
O12 Ti3 2.181650 1_556
O13 Ti10 2.064829 1_555
O13 Ti0 2.080037 1_545
O13 Ti7 2.111224 1_545
O13 Ti4 2.140336 1_555
O13 Ti5 2.156437 1_555
