# generated using pymatgen
data_Sr10P6ClO24F
_symmetry_space_group_name_H-M   'P 1'
_cell_length_a   7.30267800
_cell_length_b   9.93906300
_cell_length_c   17.21384900
_cell_angle_alpha   89.99958394
_cell_angle_beta   90.00000000
_cell_angle_gamma   90.00000000
_symmetry_Int_Tables_number   1
_chemical_formula_structural   Sr10P6ClO24F
_chemical_formula_sum   'Sr20 P12 Cl2 O48 F2'
_cell_volume   1249.41174445
_cell_formula_units_Z   2
loop_
 _symmetry_equiv_pos_site_id
 _symmetry_equiv_pos_as_xyz
  1  'x, y, z'
loop_
 _atom_site_type_symbol
 _atom_site_label
 _atom_site_symmetry_multiplicity
 _atom_site_fract_x
 _atom_site_fract_y
 _atom_site_fract_z
 _atom_site_occupancy
  Sr  Sr0  1  0.24600400  0.74773200  0.99645200  1
  Sr  Sr1  1  0.25086600  0.61594000  0.62450100  1
  Sr  Sr2  1  0.99916000  0.49892100  0.83311900  1
  Sr  Sr3  1  0.49909200  0.49924100  0.83280900  1
  Sr  Sr4  1  0.75089200  0.37037900  0.62006200  1
  Sr  Sr5  1  0.25121300  0.25259800  0.49589400  1
  Sr  Sr6  1  0.24660600  0.13177900  0.87370200  1
  Sr  Sr7  1  0.24666600  0.12277600  0.12941600  1
  Sr  Sr8  1  0.49981800  0.99888000  0.66638400  1
  Sr  Sr9  1  0.99957400  0.99923600  0.66609200  1
  Sr  Sr10  1  0.99981800  0.00112000  0.33361600  1
  Sr  Sr11  1  0.49957400  0.00076400  0.33390800  1
  Sr  Sr12  1  0.74666600  0.87722400  0.87058400  1
  Sr  Sr13  1  0.74660600  0.86822100  0.12629800  1
  Sr  Sr14  1  0.75121300  0.74740200  0.50410600  1
  Sr  Sr15  1  0.25089200  0.62962100  0.37993800  1
  Sr  Sr16  1  0.49916000  0.50107900  0.16688100  1
  Sr  Sr17  1  0.99909200  0.50075900  0.16719100  1
  Sr  Sr18  1  0.75086600  0.38406000  0.37549900  1
  Sr  Sr19  1  0.74600400  0.25226800  0.00354800  1
  P  P0  1  0.75093600  0.66856000  0.69867800  1
  P  P1  1  0.74978400  0.61176600  0.98348900  1
  P  P2  1  0.25089500  0.28582000  0.68361100  1
  P  P3  1  0.74998500  0.21902200  0.81313700  1
  P  P4  1  0.74995700  0.17050100  0.20317900  1
  P  P5  1  0.75104500  0.11607900  0.48511600  1
  P  P6  1  0.25104500  0.88392100  0.51488400  1
  P  P7  1  0.24995700  0.82949900  0.79682100  1
  P  P8  1  0.24998500  0.78097800  0.18686300  1
  P  P9  1  0.75089500  0.71418000  0.31638900  1
  P  P10  1  0.24978400  0.38823400  0.01651100  1
  P  P11  1  0.25093600  0.33144000  0.30132200  1
  Cl  Cl0  1  0.47558800  0.00043800  0.00002800  1
  Cl  Cl1  1  0.97558800  0.99956200  0.99997200  1
  O  O0  1  0.92366300  0.68699900  0.95498700  1
  O  O1  1  0.57864100  0.69292600  0.95735000  1
  O  O2  1  0.25135500  0.68577600  0.83310300  1
  O  O3  1  0.74847200  0.67043100  0.78965100  1
  O  O4  1  0.57952000  0.59044300  0.66990500  1
  O  O5  1  0.92376700  0.59016100  0.67205400  1
  O  O6  1  0.74558100  0.47316400  0.94050900  1
  O  O7  1  0.25098900  0.40803100  0.74048800  1
  O  O8  1  0.25138800  0.40724800  0.92657500  1
  O  O9  1  0.74597900  0.35233000  0.76510000  1
  O  O10  1  0.07979100  0.28958900  0.62996300  1
  O  O11  1  0.42360300  0.28647300  0.63100600  1
  O  O12  1  0.92407600  0.22382700  0.86511600  1
  O  O13  1  0.57865800  0.21749200  0.86685900  1
  O  O14  1  0.92391400  0.19559400  0.45916200  1
  O  O15  1  0.57983600  0.19872000  0.46023000  1
  O  O16  1  0.25130200  0.18494200  0.33394700  1
  O  O17  1  0.74603600  0.17588400  0.29382100  1
  O  O18  1  0.24853800  0.15028500  0.72995400  1
  O  O19  1  0.57894400  0.09017300  0.17562000  1
  O  O20  1  0.92384200  0.08986500  0.17957700  1
  O  O21  1  0.75123300  0.09331600  0.57477800  1
  O  O22  1  0.75162100  0.09277700  0.75932900  1
  O  O23  1  0.24882500  0.02134600  0.55909600  1
  O  O24  1  0.74882500  0.97865400  0.44090400  1
  O  O25  1  0.25162100  0.90722300  0.24067100  1
  O  O26  1  0.25123300  0.90668400  0.42522200  1
  O  O27  1  0.07894400  0.90982700  0.82438000  1
  O  O28  1  0.42384200  0.91013500  0.82042300  1
  O  O29  1  0.74853800  0.84971500  0.27004600  1
  O  O30  1  0.24603600  0.82411600  0.70617900  1
  O  O31  1  0.75130200  0.81505800  0.66605300  1
  O  O32  1  0.42391400  0.80440600  0.54083800  1
  O  O33  1  0.07983600  0.80128000  0.53977000  1
  O  O34  1  0.42407600  0.77617300  0.13488400  1
  O  O35  1  0.07865800  0.78250800  0.13314100  1
  O  O36  1  0.57979100  0.71041100  0.37003700  1
  O  O37  1  0.92360300  0.71352700  0.36899400  1
  O  O38  1  0.24597900  0.64767000  0.23490000  1
  O  O39  1  0.75138800  0.59275200  0.07342500  1
  O  O40  1  0.75098900  0.59196900  0.25951200  1
  O  O41  1  0.24558100  0.52683600  0.05949100  1
  O  O42  1  0.07952000  0.40955700  0.33009500  1
  O  O43  1  0.42376700  0.40983900  0.32794600  1
  O  O44  1  0.24847200  0.32956900  0.21034900  1
  O  O45  1  0.75135500  0.31422400  0.16689700  1
  O  O46  1  0.42366300  0.31300100  0.04501300  1
  O  O47  1  0.07864100  0.30707400  0.04265000  1
  F  F0  1  0.27534700  0.49876900  0.49993800  1
  F  F1  1  0.77534700  0.50123100  0.50006200  1
loop_
_geom_bond_atom_site_label_1
_geom_bond_atom_site_label_2
_geom_bond_distance
_geom_bond_site_symmetry_2
Cl0 Sr0 3.020455 1_544
Cl0 Sr6 3.037916 1_554
Cl0 Sr7 3.038742 1_555
Cl0 Sr19 3.188751 1_555
Cl0 Sr13 3.220003 1_545
Cl0 Sr12 3.222354 1_544
Cl1 Sr19 3.020455 1_566
Cl1 Sr13 3.037916 1_556
Cl1 Sr12 3.038742 1_555
Cl1 Sr0 3.188751 1_655
Cl1 Sr6 3.220003 1_665
Cl1 Sr7 3.222354 1_666
O0 P1 1.553120 1_555
O0 Sr0 2.532773 1_655
O0 Sr12 2.712224 1_555
O0 Sr2 2.863427 1_555
O1 P1 1.554075 1_555
O1 Sr0 2.578858 1_555
O1 Sr12 2.663015 1_555
O1 Sr3 2.939276 1_555
O2 P7 1.559067 1_555
O2 Sr3 2.590421 1_555
O2 Sr2 2.615514 1_455
O2 Sr0 2.878772 1_555
O3 P0 1.566209 1_555
O3 Sr12 2.483044 1_555
O3 Sr3 2.600665 1_555
O3 Sr2 2.610963 1_555
O4 P0 1.554068 1_555
O4 Sr1 2.536797 1_555
O4 Sr4 2.662018 1_555
O4 Sr3 3.005024 1_555
O5 P0 1.552478 1_555
O5 Sr1 2.538028 1_655
O5 Sr4 2.677037 1_555
O5 Sr2 2.968582 1_555
O6 P1 1.563984 1_555
O6 Sr19 2.449026 1_556
O6 Sr3 2.596986 1_555
O6 Sr2 2.629072 1_555
O7 P2 1.560130 1_555
O7 Sr3 2.574893 1_555
O7 Sr2 2.596275 1_455
O7 Sr1 2.873391 1_555
O8 P10 1.559679 1_556
O8 Sr3 2.591009 1_555
O8 Sr2 2.609778 1_455
O8 Sr6 2.885436 1_555
O9 P3 1.562087 1_555
O9 Sr4 2.503355 1_555
O9 Sr3 2.596369 1_555
O9 Sr2 2.629101 1_555
O10 P2 1.554197 1_555
O10 Sr4 2.538242 1_455
O10 Sr5 2.651118 1_555
O10 Sr9 3.009646 1_445
O11 P2 1.552655 1_555
O11 Sr4 2.538399 1_555
O11 Sr5 2.666000 1_555
O11 Sr8 2.975080 1_545
O12 P3 1.555364 1_555
O12 Sr6 2.531091 1_655
O12 Sr19 2.729359 1_556
O12 Sr2 2.842485 1_555
O13 P3 1.555886 1_555
O13 Sr6 2.572860 1_555
O13 Sr19 2.673815 1_556
O13 Sr3 2.919407 1_555
O14 P5 1.554943 1_555
O14 Sr5 2.536467 1_655
O14 Sr18 2.679512 1_555
O14 Sr10 2.951924 1_555
O15 P5 1.556076 1_555
O15 Sr5 2.534330 1_555
O15 Sr18 2.660943 1_555
O15 Sr11 2.990493 1_555
O16 P11 1.560603 1_555
O16 Sr11 2.576449 1_555
O16 Sr10 2.590518 1_455
O16 Sr5 2.867690 1_555
O17 P4 1.561478 1_555
O17 Sr18 2.501833 1_555
O17 Sr11 2.597112 1_555
O17 Sr10 2.630790 1_555
O18 P2 1.565671 1_555
O18 Sr6 2.481322 1_555
O18 Sr9 2.601513 1_445
O18 Sr8 2.613286 1_545
O19 P4 1.556313 1_555
O19 Sr7 2.574019 1_555
O19 Sr13 2.662027 1_545
O19 Sr11 2.924011 1_555
O20 P4 1.555585 1_555
O20 Sr7 2.531852 1_655
O20 Sr13 2.714644 1_545
O20 Sr10 2.849000 1_555
O21 P5 1.559921 1_555
O21 Sr9 2.575669 1_545
O21 Sr8 2.595853 1_545
O21 Sr4 2.861957 1_555
O22 P3 1.559648 1_555
O22 Sr9 2.592106 1_545
O22 Sr8 2.610001 1_545
O22 Sr12 2.873816 1_545
O23 P6 1.563683 1_545
O23 Sr5 2.542966 1_555
O23 Sr9 2.598786 1_445
O23 Sr8 2.611564 1_545
O24 P5 1.563683 1_565
O24 Sr14 2.542966 1_555
O24 Sr11 2.598786 1_565
O24 Sr10 2.611564 1_565
O25 P8 1.559648 1_555
O25 Sr11 2.592106 1_565
O25 Sr10 2.610001 1_465
O25 Sr7 2.873816 1_565
O26 P6 1.559921 1_555
O26 Sr11 2.575669 1_565
O26 Sr10 2.595853 1_465
O26 Sr15 2.861957 1_555
O27 P7 1.556313 1_555
O27 Sr12 2.574019 1_455
O27 Sr6 2.662027 1_565
O27 Sr9 2.924011 1_455
O28 P7 1.555585 1_555
O28 Sr12 2.531852 1_555
O28 Sr6 2.714644 1_565
O28 Sr8 2.849000 1_555
O29 P9 1.565671 1_555
O29 Sr13 2.481322 1_555
O29 Sr11 2.601513 1_565
O29 Sr10 2.613286 1_565
O30 P7 1.561478 1_555
O30 Sr1 2.501833 1_555
O30 Sr9 2.597112 1_455
O30 Sr8 2.630790 1_555
O31 P0 1.560603 1_555
O31 Sr9 2.576449 1_555
O31 Sr8 2.590518 1_555
O31 Sr14 2.867690 1_555
O32 P6 1.554943 1_555
O32 Sr14 2.536467 1_555
O32 Sr1 2.679512 1_555
O32 Sr8 2.951924 1_555
O33 P6 1.556076 1_555
O33 Sr14 2.534330 1_455
O33 Sr1 2.660943 1_555
O33 Sr9 2.990493 1_455
O34 P8 1.555364 1_555
O34 Sr13 2.531091 1_555
O34 Sr0 2.729359 1_554
O34 Sr16 2.842485 1_555
O35 P8 1.555886 1_555
O35 Sr13 2.572860 1_455
O35 Sr0 2.673815 1_554
O35 Sr17 2.919407 1_455
O36 P9 1.554197 1_555
O36 Sr15 2.538242 1_555
O36 Sr14 2.651118 1_555
O36 Sr11 3.009646 1_565
O37 P9 1.552655 1_555
O37 Sr15 2.538399 1_655
O37 Sr14 2.666000 1_555
O37 Sr10 2.975080 1_565
O38 P8 1.562087 1_555
O38 Sr15 2.503355 1_555
O38 Sr17 2.596369 1_455
O38 Sr16 2.629101 1_555
O39 P1 1.559679 1_554
O39 Sr17 2.591009 1_555
O39 Sr16 2.609778 1_555
O39 Sr13 2.885436 1_555
O40 P9 1.560130 1_555
O40 Sr17 2.574893 1_555
O40 Sr16 2.596275 1_555
O40 Sr18 2.873391 1_555
O41 P10 1.563984 1_555
O41 Sr0 2.449026 1_554
O41 Sr17 2.596986 1_455
O41 Sr16 2.629072 1_555
O42 P11 1.554068 1_555
O42 Sr18 2.536797 1_455
O42 Sr15 2.662018 1_555
O42 Sr17 3.005024 1_455
O43 P11 1.552478 1_555
O43 Sr18 2.538028 1_555
O43 Sr15 2.677037 1_555
O43 Sr16 2.968582 1_555
O44 P11 1.566209 1_555
O44 Sr7 2.483044 1_555
O44 Sr17 2.600665 1_455
O44 Sr16 2.610963 1_555
O45 P4 1.559067 1_555
O45 Sr17 2.590421 1_555
O45 Sr16 2.615514 1_555
O45 Sr19 2.878772 1_555
O46 P10 1.553120 1_555
O46 Sr19 2.532773 1_555
O46 Sr7 2.712224 1_555
O46 Sr16 2.863427 1_555
O47 P10 1.554075 1_555
O47 Sr19 2.578858 1_455
O47 Sr7 2.663015 1_555
O47 Sr17 2.939276 1_455
F0 Sr1 2.446600 1_555
F0 Sr15 2.447495 1_555
F0 Sr5 2.454037 1_555
F1 Sr18 2.446600 1_555
F1 Sr4 2.447495 1_555
F1 Sr14 2.454037 1_555
