# generated using pymatgen
data_FeOF
_symmetry_space_group_name_H-M   'P 1'
_cell_length_a   3.10558700
_cell_length_b   14.16129600
_cell_length_c   14.20891602
_cell_angle_alpha   89.76845999
_cell_angle_beta   90.00000000
_cell_angle_gamma   90.00000000
_symmetry_Int_Tables_number   1
_chemical_formula_structural   FeOF
_chemical_formula_sum   'Fe18 O18 F18'
_cell_volume   624.89075841
_cell_formula_units_Z   18
loop_
 _symmetry_equiv_pos_site_id
 _symmetry_equiv_pos_as_xyz
  1  'x, y, z'
loop_
 _atom_site_type_symbol
 _atom_site_label
 _atom_site_symmetry_multiplicity
 _atom_site_fract_x
 _atom_site_fract_y
 _atom_site_fract_z
 _atom_site_occupancy
  Fe  Fe0  1  0.00000000  0.98631600  0.99925400  1
  Fe  Fe1  1  0.00000000  0.99402500  0.33789400  1
  Fe  Fe2  1  0.00000000  0.99343300  0.65931400  1
  Fe  Fe3  1  0.50000000  0.82947600  0.14754600  1
  Fe  Fe4  1  0.50000000  0.84413300  0.49999100  1
  Fe  Fe5  1  0.50000000  0.85022500  0.82735600  1
  Fe  Fe6  1  0.00000000  0.66523400  0.99811100  1
  Fe  Fe7  1  0.00000000  0.65483300  0.32987800  1
  Fe  Fe8  1  0.00000000  0.65277200  0.66592200  1
  Fe  Fe9  1  0.50000000  0.51349700  0.49795200  1
  Fe  Fe10  1  0.50000000  0.49680400  0.18041500  1
  Fe  Fe11  1  0.50000000  0.51528200  0.83512100  1
  Fe  Fe12  1  0.00000000  0.32173000  0.99656800  1
  Fe  Fe13  1  0.00000000  0.32865900  0.32308000  1
  Fe  Fe14  1  0.00000000  0.32353700  0.66611100  1
  Fe  Fe15  1  0.50000000  0.17994000  0.16369700  1
  Fe  Fe16  1  0.50000000  0.16613900  0.51918600  1
  Fe  Fe17  1  0.50000000  0.17879000  0.83154300  1
  O  O0  1  0.50000000  0.93252000  0.59983400  1
  O  O1  1  0.50000000  0.93495900  0.93652300  1
  O  O2  1  0.00000000  0.90224000  0.10744800  1
  O  O3  1  0.00000000  0.89983500  0.43073000  1
  O  O4  1  0.00000000  0.90212900  0.76467000  1
  O  O5  1  0.50000000  0.72773400  0.06402500  1
  O  O6  1  0.50000000  0.60656700  0.26401100  1
  O  O7  1  0.50000000  0.60265100  0.60102700  1
  O  O8  1  0.50000000  0.60048400  0.93820800  1
  O  O9  1  0.00000000  0.56459900  0.43344100  1
  O  O10  1  0.00000000  0.56446400  0.76867400  1
  O  O11  1  0.00000000  0.43307300  0.23393000  1
  O  O12  1  0.50000000  0.26200200  0.27325900  1
  O  O13  1  0.50000000  0.27419700  0.59967900  1
  O  O14  1  0.50000000  0.26793600  0.93567400  1
  O  O15  1  0.00000000  0.23270200  0.10300200  1
  O  O16  1  0.00000000  0.23172600  0.76780500  1
  O  O17  1  0.00000000  0.09905100  0.56567000  1
  F  F0  1  0.50000000  0.93626800  0.26871300  1
  F  F1  1  0.00000000  0.77319800  0.23809100  1
  F  F2  1  0.00000000  0.76712300  0.56431800  1
  F  F3  1  0.00000000  0.76951500  0.89302700  1
  F  F4  1  0.50000000  0.73323600  0.73110000  1
  F  F5  1  0.50000000  0.73413200  0.40078500  1
  F  F6  1  0.00000000  0.55974800  0.10246700  1
  F  F7  1  0.00000000  0.43518800  0.56689900  1
  F  F8  1  0.00000000  0.43240100  0.90001900  1
  F  F9  1  0.50000000  0.40191300  0.06330500  1
  F  F10  1  0.50000000  0.39514000  0.40342700  1
  F  F11  1  0.50000000  0.40004800  0.73356200  1
  F  F12  1  0.00000000  0.23005400  0.43569000  1
  F  F13  1  0.00000000  0.09455400  0.23435500  1
  F  F14  1  0.00000000  0.10103900  0.90092500  1
  F  F15  1  0.50000000  0.06770900  0.06795400  1
  F  F16  1  0.50000000  0.06884100  0.39403400  1
  F  F17  1  0.50000000  0.06620000  0.73477800  1
loop_
_geom_bond_atom_site_label_1
_geom_bond_atom_site_label_2
_geom_bond_distance
_geom_bond_site_symmetry_2
Fe0 O1 1.933864 1_555
Fe0 O1 1.933864 1_455
Fe0 O2 1.940656 1_556
Fe1 O3 1.872155 1_555
Fe2 O0 1.968609 1_555
Fe2 O0 1.968609 1_455
Fe2 O4 1.974121 1_555
Fe2 O17 1.997859 1_565
Fe3 O5 1.870315 1_555
Fe3 O2 1.947518 1_555
Fe3 O2 1.947518 1_655
Fe4 O0 1.895690 1_555
Fe4 O3 1.998904 1_655
Fe4 O3 1.998904 1_555
Fe5 O4 1.933776 1_655
Fe5 O4 1.933776 1_555
Fe5 O1 1.964932 1_555
Fe6 O8 1.995678 1_455
Fe6 O8 1.995678 1_555
Fe6 O5 2.019503 1_456
Fe6 O5 2.019503 1_556
Fe7 O6 1.938925 1_455
Fe7 O6 1.938925 1_555
Fe7 O9 1.944998 1_555
Fe8 O10 1.918520 1_555
Fe8 O7 1.941774 1_455
Fe8 O7 1.941774 1_555
Fe9 O7 1.937511 1_555
Fe9 O9 1.941576 1_655
Fe9 O9 1.941576 1_555
Fe10 O11 1.948934 1_555
Fe10 O11 1.948934 1_655
Fe10 O6 1.960084 1_555
Fe11 O8 1.901474 1_555
Fe11 O10 1.944824 1_655
Fe11 O10 1.944824 1_555
Fe12 O14 1.935319 1_455
Fe12 O14 1.935319 1_555
Fe12 O15 1.964987 1_556
Fe13 O11 1.943148 1_555
Fe13 O12 1.951598 1_455
Fe13 O12 1.951598 1_555
Fe14 O16 1.939885 1_555
Fe14 O13 1.948256 1_455
Fe14 O13 1.948256 1_555
Fe15 O15 1.925613 1_655
Fe15 O15 1.925613 1_555
Fe15 O12 1.946433 1_555
Fe16 O13 1.914125 1_555
Fe16 O17 1.935185 1_555
Fe16 O17 1.935185 1_655
Fe17 O16 1.946238 1_555
Fe17 O16 1.946238 1_655
Fe17 O14 1.948843 1_555
F0 Fe1 2.013185 1_655
F0 Fe1 2.013185 1_555
F0 Fe3 2.296131 1_555
F1 Fe7 2.119647 1_555
F1 Fe3 2.166389 1_555
F1 Fe3 2.166389 1_455
F2 Fe4 2.104249 1_555
F2 Fe4 2.104249 1_455
F2 Fe8 2.165097 1_555
F3 Fe6 2.095810 1_555
F3 Fe5 2.140001 1_555
F3 Fe5 2.140001 1_455
F4 Fe8 2.139106 1_655
F4 Fe8 2.139106 1_555
F4 Fe5 2.152581 1_555
F5 Fe4 2.105078 1_555
F5 Fe7 2.167134 1_655
F5 Fe7 2.167134 1_555
F6 Fe6 2.100534 1_554
F6 Fe10 2.103428 1_455
F6 Fe10 2.103428 1_555
F7 Fe14 2.114042 1_555
F7 Fe9 2.142874 1_555
F7 Fe9 2.142874 1_455
F8 Fe12 2.078670 1_555
F8 Fe11 2.151818 1_555
F8 Fe11 2.151818 1_455
F9 Fe10 2.143066 1_555
F9 Fe12 2.146722 1_654
F9 Fe12 2.146722 1_554
F10 Fe13 2.146985 1_555
F10 Fe13 2.146985 1_655
F10 Fe9 2.152064 1_555
F11 Fe14 2.124162 1_655
F11 Fe14 2.124162 1_555
F11 Fe11 2.182747 1_555
F12 Fe13 2.119437 1_555
F12 Fe16 2.151568 1_555
F12 Fe16 2.151568 1_455
F13 Fe1 2.043069 1_545
F13 Fe15 2.207131 1_455
F13 Fe15 2.207131 1_555
F14 Fe0 2.138478 1_545
F14 Fe17 2.141636 1_555
F14 Fe17 2.141636 1_455
F15 Fe15 2.096226 1_555
F15 Fe0 2.168339 1_644
F15 Fe0 2.168339 1_544
F16 Fe1 2.043729 1_545
F16 Fe1 2.043729 1_645
F16 Fe16 2.254013 1_555
F17 Fe17 2.109577 1_555
F17 Fe2 2.152144 1_545
F17 Fe2 2.152144 1_645
