# generated using pymatgen
data_LiMn3(OF3)2
_symmetry_space_group_name_H-M   'P 1'
_cell_length_a   5.20234300
_cell_length_b   6.98627992
_cell_length_c   7.64343710
_cell_angle_alpha   100.58918445
_cell_angle_beta   90.94332624
_cell_angle_gamma   90.36648889
_symmetry_Int_Tables_number   1
_chemical_formula_structural   LiMn3(OF3)2
_chemical_formula_sum   'Li2 Mn6 O4 F12'
_cell_volume   273.02041892
_cell_formula_units_Z   2
loop_
 _symmetry_equiv_pos_site_id
 _symmetry_equiv_pos_as_xyz
  1  'x, y, z'
loop_
 _atom_site_type_symbol
 _atom_site_label
 _atom_site_symmetry_multiplicity
 _atom_site_fract_x
 _atom_site_fract_y
 _atom_site_fract_z
 _atom_site_occupancy
  Li  Li0  1  0.78048700  0.16817700  0.84202000  1
  Li  Li1  1  0.21951300  0.83182300  0.15798000  1
  Mn  Mn0  1  0.71878200  0.66561300  0.82139400  1
  Mn  Mn1  1  0.24578000  0.82894700  0.67011500  1
  Mn  Mn2  1  0.73587800  0.68599300  0.31799200  1
  Mn  Mn3  1  0.26412200  0.31400700  0.68200800  1
  Mn  Mn4  1  0.75422000  0.17105300  0.32988500  1
  Mn  Mn5  1  0.28121800  0.33438700  0.17860600  1
  O  O0  1  0.40862500  0.57786300  0.69577200  1
  O  O1  1  0.89268600  0.92485200  0.30887900  1
  O  O2  1  0.10731400  0.07514800  0.69112100  1
  O  O3  1  0.59137500  0.42213700  0.30422800  1
  F  F0  1  0.57995800  0.92478600  0.81725900  1
  F  F1  1  0.04344600  0.79780600  0.90650700  1
  F  F2  1  0.90327800  0.68898300  0.56410900  1
  F  F3  1  0.91020400  0.42539700  0.80323400  1
  F  F4  1  0.43024700  0.31140300  0.92098200  1
  F  F5  1  0.40911800  0.81105500  0.43376800  1
  F  F6  1  0.59088200  0.18894500  0.56623200  1
  F  F7  1  0.56975300  0.68859700  0.07901800  1
  F  F8  1  0.08979600  0.57460300  0.19676600  1
  F  F9  1  0.09672200  0.31101700  0.43589100  1
  F  F10  1  0.95655400  0.20219400  0.09349300  1
  F  F11  1  0.42004200  0.07521400  0.18274100  1
loop_
_geom_bond_atom_site_label_1
_geom_bond_atom_site_label_2
_geom_bond_distance
_geom_bond_site_symmetry_2
Li0 O2 2.108746 1_655
Li1 O1 2.108746 1_455
Mn0 O0 1.902969 1_555
Mn1 O2 1.849686 1_565
Mn1 O0 1.993277 1_555
Mn2 O1 1.866062 1_555
Mn2 O3 1.970435 1_555
Mn3 O2 1.866062 1_555
Mn3 O0 1.970435 1_555
Mn4 O1 1.849686 1_545
Mn4 O3 1.993277 1_555
Mn5 O3 1.902969 1_555
F0 Mn0 1.959099 1_555
F0 Li0 1.966725 1_565
F0 Mn1 2.092749 1_555
F1 Mn0 1.962641 1_455
F1 Li1 2.088387 1_556
F1 Mn1 2.150393 1_555
F2 Mn2 2.056471 1_555
F2 Mn1 2.103923 1_655
F2 Mn0 2.234576 1_555
F3 Mn0 1.941055 1_555
F3 Li0 1.989826 1_555
F3 Mn3 2.159553 1_655
F4 Mn3 2.010990 1_555
F4 Mn5 2.107133 1_556
F4 Li0 2.126736 1_555
F5 Mn1 1.992498 1_555
F5 Mn2 2.054401 1_555
F5 Li1 2.341650 1_555
F6 Mn4 1.992498 1_555
F6 Mn3 2.054401 1_555
F6 Li0 2.341650 1_555
F7 Mn2 2.010990 1_555
F7 Mn0 2.107133 1_554
F7 Li1 2.126736 1_555
F8 Mn5 1.941055 1_555
F8 Li1 1.989826 1_555
F8 Mn2 2.159553 1_455
F9 Mn3 2.056471 1_555
F9 Mn4 2.103923 1_455
F9 Mn5 2.234576 1_555
F10 Mn5 1.962641 1_655
F10 Li0 2.088387 1_554
F10 Mn4 2.150393 1_555
F11 Mn5 1.959099 1_555
F11 Li1 1.966725 1_545
F11 Mn4 2.092749 1_555
