# generated using pymatgen
data_CeZr11O24
_symmetry_space_group_name_H-M   'P 1'
_cell_length_a   6.84619503
_cell_length_b   7.39387209
_cell_length_c   9.59771429
_cell_angle_alpha   93.20753518
_cell_angle_beta   91.60590142
_cell_angle_gamma   116.46023385
_symmetry_Int_Tables_number   1
_chemical_formula_structural   CeZr11O24
_chemical_formula_sum   'Ce1 Zr11 O24'
_cell_volume   433.49683739
_cell_formula_units_Z   1
loop_
 _symmetry_equiv_pos_site_id
 _symmetry_equiv_pos_as_xyz
  1  'x, y, z'
loop_
 _atom_site_type_symbol
 _atom_site_label
 _atom_site_symmetry_multiplicity
 _atom_site_fract_x
 _atom_site_fract_y
 _atom_site_fract_z
 _atom_site_occupancy
  Ce  Ce0  1  0.92621309  0.83191917  0.63365567  1
  Zr  Zr0  1  0.22242861  0.95261845  0.01365423  1
  Zr  Zr1  1  0.11671228  0.71639278  0.32231878  1
  Zr  Zr2  1  0.74620706  0.50712057  0.03603487  1
  Zr  Zr3  1  0.55016274  0.61657263  0.33913998  1
  Zr  Zr4  1  0.41595954  0.83800899  0.70584699  1
  Zr  Zr5  1  0.07978602  0.17573007  0.36657825  1
  Zr  Zr6  1  0.58869268  0.16220333  0.29874861  1
  Zr  Zr7  1  0.44549164  0.38180149  0.65901243  1
  Zr  Zr8  1  0.25365352  0.49386296  0.96486479  1
  Zr  Zr9  1  0.88027656  0.28413649  0.67578967  1
  Zr  Zr10  1  0.78253973  0.05052710  0.99433099  1
  O  O0  1  0.11303431  0.65458397  0.09065832  1
  O  O1  1  0.46983730  0.85359363  0.31372624  1
  O  O2  1  0.86611323  0.81364693  0.01485510  1
  O  O3  1  0.19504540  0.78475108  0.53392647  1
  O  O4  1  0.47913854  0.53930956  0.12932182  1
  O  O5  1  0.19705902  0.47927096  0.34404263  1
  O  O6  1  0.15883546  0.87282773  0.80370590  1
  O  O7  1  0.55050148  0.17184158  0.07310284  1
  O  O8  1  0.88408278  0.83834156  0.39496233  1
  O  O9  1  0.54230216  0.67369017  0.57515857  1
  O  O10  1  0.22382152  0.01534189  0.24371701  1
  O  O11  1  0.78399801  0.49382680  0.26055291  1
  O  O12  1  0.21331689  0.50409832  0.74267423  1
  O  O13  1  0.44559209  0.32094107  0.42142807  1
  O  O14  1  0.76968960  0.99518598  0.76165702  1
  O  O15  1  0.11810489  0.17439711  0.59170892  1
  O  O16  1  0.45498774  0.82672905  0.93302511  1
  O  O17  1  0.85631140  0.12883498  0.20357434  1
  O  O18  1  0.79244198  0.50753065  0.65028592  1
  O  O19  1  0.52204562  0.45998754  0.86963116  1
  O  O20  1  0.81022710  0.20454185  0.46346659  1
  O  O21  1  0.13621250  0.18617335  0.98328810  1
  O  O22  1  0.52189017  0.14172747  0.67878724  1
  O  O23  1  0.88729334  0.34793073  0.91276888  1
loop_
_geom_bond_atom_site_label_1
_geom_bond_atom_site_label_2
_geom_bond_distance
_geom_bond_site_symmetry_2
Ce0 O6 2.159008 1_655
Ce0 O18 2.170365 1_555
Ce0 O3 2.249125 1_655
Ce0 O14 2.274963 1_555
Ce0 O8 2.306743 1_555
Ce0 O15 2.340800 1_665
Ce0 O9 2.386543 1_555
O0 Zr0 2.169248 1_555
O0 Zr8 2.172724 1_554
O0 Zr1 2.241862 1_555
O0 Zr2 2.278753 1_455
O1 Zr6 2.068361 1_565
O1 Zr3 2.081426 1_555
O1 Zr1 2.171522 1_555
O2 Zr2 2.062707 1_555
O2 Zr10 2.087851 1_564
O2 Zr0 2.185364 1_655
O3 Zr1 2.061638 1_555
O3 Zr4 2.102808 1_555
O4 Zr3 2.046195 1_555
O4 Zr8 2.080663 1_554
O4 Zr2 2.158019 1_555
O5 Zr5 2.046149 1_555
O5 Zr1 2.076979 1_555
O5 Zr3 2.168280 1_555
O6 Zr0 2.046174 1_556
O6 Zr4 2.125233 1_555
O7 Zr0 2.139613 1_545
O7 Zr6 2.183063 1_555
O7 Zr10 2.271784 1_554
O7 Zr2 2.287509 1_555
O8 Zr3 2.166664 1_555
O8 Zr1 2.259909 1_655
O8 Zr5 2.282626 1_665
O9 Zr4 2.150430 1_555
O9 Zr7 2.166638 1_555
O9 Zr3 2.287485 1_555
O10 Zr5 2.172556 1_555
O10 Zr1 2.183080 1_545
O10 Zr0 2.229587 1_545
O10 Zr6 2.267734 1_555
O11 Zr1 2.173179 1_655
O11 Zr2 2.176037 1_555
O11 Zr6 2.267337 1_555
O11 Zr3 2.289376 1_555
O12 Zr8 2.152513 1_555
O12 Zr9 2.179994 1_455
O12 Zr4 2.284259 1_555
O12 Zr7 2.293494 1_555
O13 Zr6 2.158336 1_555
O13 Zr3 2.178210 1_555
O13 Zr5 2.273427 1_555
O13 Zr7 2.299489 1_555
O14 Zr9 2.146490 1_565
O14 Zr4 2.202669 1_555
O14 Zr10 2.239806 1_565
O15 Zr7 2.130159 1_555
O15 Zr5 2.170399 1_555
O15 Zr9 2.266802 1_455
O16 Zr10 2.150201 1_565
O16 Zr4 2.200002 1_555
O16 Zr8 2.266113 1_555
O16 Zr0 2.304194 1_556
O17 Zr10 2.043490 1_554
O17 Zr5 2.059349 1_655
O17 Zr6 2.173370 1_555
O18 Zr9 2.017900 1_555
O18 Zr7 2.136657 1_555
O19 Zr7 2.057916 1_555
O19 Zr2 2.085918 1_556
O19 Zr8 2.180162 1_555
O20 Zr6 2.069950 1_555
O20 Zr9 2.070878 1_555
O20 Zr5 2.177193 1_655
O21 Zr8 2.067932 1_555
O21 Zr0 2.090565 1_546
O21 Zr10 2.177625 1_455
O22 Zr4 2.064185 1_545
O22 Zr7 2.078462 1_555
O22 Zr9 2.198784 1_555
O23 Zr2 2.153926 1_556
O23 Zr10 2.186617 1_555
O23 Zr8 2.272172 1_655
O23 Zr9 2.291634 1_555
