# generated using pymatgen
data_Li4Mn2Fe3Sb(PO4)6
_symmetry_space_group_name_H-M   'P 1'
_cell_length_a   8.45709300
_cell_length_b   8.54876565
_cell_length_c   8.56208945
_cell_angle_alpha   64.50339866
_cell_angle_beta   64.98786343
_cell_angle_gamma   64.72672363
_symmetry_Int_Tables_number   1
_chemical_formula_structural   Li4Mn2Fe3Sb(PO4)6
_chemical_formula_sum   'Li4 Mn2 Fe3 Sb1 P6 O24'
_cell_volume   483.10081236
_cell_formula_units_Z   1
loop_
 _symmetry_equiv_pos_site_id
 _symmetry_equiv_pos_as_xyz
  1  'x, y, z'
loop_
 _atom_site_type_symbol
 _atom_site_label
 _atom_site_symmetry_multiplicity
 _atom_site_fract_x
 _atom_site_fract_y
 _atom_site_fract_z
 _atom_site_occupancy
  Li  Li0  1  0.74917300  0.14265500  0.35594400  1
  Li  Li1  1  0.28373400  0.84074800  0.64737600  1
  Li  Li2  1  0.64316700  0.28009200  0.84032100  1
  Li  Li3  1  0.84188600  0.64438000  0.28759100  1
  Mn  Mn0  1  0.01385700  0.00124300  0.99663400  1
  Mn  Mn1  1  0.48521000  0.50684100  0.50018700  1
  Fe  Fe0  1  0.14838100  0.15069800  0.14633700  1
  Fe  Fe1  1  0.34778100  0.34843900  0.34653800  1
  Fe  Fe2  1  0.66026800  0.65952400  0.66263800  1
  Sb  Sb0  1  0.84131000  0.83496300  0.84251000  1
  P  P0  1  0.07178100  0.74710800  0.43071500  1
  P  P1  1  0.43068100  0.07298000  0.74794000  1
  P  P2  1  0.74620200  0.43170500  0.07008600  1
  P  P3  1  0.25045400  0.54255700  0.94985300  1
  P  P4  1  0.55109800  0.94987600  0.25170800  1
  P  P5  1  0.94122300  0.24766000  0.54405500  1
  O  O0  1  0.10883700  0.30860300  0.48775200  1
  O  O1  1  0.32367300  0.49913100  0.10437400  1
  O  O2  1  0.06800300  0.90484800  0.25189200  1
  O  O3  1  0.53425900  0.10226400  0.31497300  1
  O  O4  1  0.06781700  0.80563700  0.58156400  1
  O  O5  1  0.25403600  0.59013100  0.40781900  1
  O  O6  1  0.24459300  0.08798600  0.89339400  1
  O  O7  1  0.42617300  0.24950600  0.58173500  1
  O  O8  1  0.17128800  0.39856800  0.98521300  1
  O  O9  1  0.59391000  0.40908500  0.25710000  1
  O  O10  1  0.10381000  0.74212600  0.92764300  1
  O  O11  1  0.39376600  0.99796100  0.18348400  1
  O  O12  1  0.58113800  0.06298000  0.81441900  1
  O  O13  1  0.89067300  0.24125600  0.08791400  1
  O  O14  1  0.40402000  0.56302600  0.76177100  1
  O  O15  1  0.81074600  0.58028000  0.06221400  1
  O  O16  1  0.56261900  0.76306500  0.40832600  1
  O  O17  1  0.74790500  0.91775500  0.10329100  1
  O  O18  1  0.75662800  0.40628200  0.56808100  1
  O  O19  1  0.95384500  0.17592900  0.40250100  1
  O  O20  1  0.47777100  0.90419100  0.69169800  1
  O  O21  1  0.92791600  0.10080500  0.74090900  1
  O  O22  1  0.68753700  0.47717100  0.90438900  1
  O  O23  1  0.90282900  0.68694400  0.48011000  1
loop_
_geom_bond_atom_site_label_1
_geom_bond_atom_site_label_2
_geom_bond_distance
_geom_bond_site_symmetry_2
Li0 O13 2.069481 1_555
Li0 O19 2.082653 1_555
Li0 O9 2.086769 1_555
Li0 O3 2.173726 1_555
Li1 O14 2.099816 1_555
Li1 O20 2.143538 1_555
Li1 O10 2.247341 1_555
Li1 O4 2.285981 1_555
Li1 O16 2.437966 1_555
Li2 O18 2.084579 1_555
Li2 O22 2.188549 1_555
Li2 O12 2.247973 1_555
Li2 O21 2.260759 1_555
Li2 O14 2.442500 1_555
Li3 O16 2.113852 1_555
Li3 O23 2.123690 1_555
Li3 O17 2.209770 1_555
Li3 O15 2.357262 1_555
Li3 O18 2.451731 1_555
Mn0 O6 2.086069 1_555
Mn0 O2 2.153815 1_546
Mn0 O13 2.184704 1_456
Mn0 O10 2.267614 1_545
Mn0 O21 2.293440 1_455
Mn0 O17 2.339843 1_446
Mn1 O5 2.142139 1_555
Mn1 O7 2.212925 1_555
Mn1 O14 2.250008 1_555
Mn1 O9 2.258077 1_555
Mn1 O16 2.269551 1_555
Mn1 O18 2.314962 1_555
Fe0 O11 1.999896 1_545
Fe0 O8 2.009636 1_554
Fe0 O19 2.148652 1_455
Fe0 O13 2.178857 1_455
Fe0 O2 2.182016 1_545
Fe0 O6 2.185586 1_554
Fe1 O0 1.956633 1_555
Fe1 O1 1.958028 1_555
Fe1 O3 2.069870 1_555
Fe1 O5 2.087044 1_555
Fe1 O7 2.096197 1_555
Fe1 O9 2.102322 1_555
Fe2 O22 2.021516 1_555
Fe2 O23 2.022290 1_555
Fe2 O20 2.045882 1_555
Fe2 O16 2.333209 1_555
Fe2 O18 2.334734 1_555
Fe2 O14 2.337859 1_555
O0 P5 1.532881 1_455
O1 P3 1.531430 1_554
O2 P0 1.546212 1_555
O3 P4 1.547474 1_545
O4 P0 1.557268 1_555
O4 Sb0 2.275340 1_455
O5 P0 1.555583 1_555
O6 P1 1.533613 1_555
O7 P1 1.565824 1_555
O8 P3 1.505506 1_555
O9 P2 1.569175 1_555
O10 P3 1.611940 1_555
O10 Sb0 2.335689 1_455
O11 P4 1.504697 1_555
O12 P1 1.558221 1_555
O12 Sb0 2.253986 1_545
O13 P2 1.553074 1_555
O14 P3 1.579082 1_555
O15 P2 1.550136 1_555
O15 Sb0 2.211137 1_554
O16 P4 1.578628 1_555
O17 P4 1.606898 1_555
O17 Sb0 2.345657 1_554
O18 P5 1.574565 1_555
O19 P5 1.526732 1_555
O20 P1 1.554966 1_565
O21 P5 1.602547 1_555
O21 Sb0 2.374556 1_545
O22 P2 1.538112 1_556
O23 P0 1.553778 1_655
