# generated using pymatgen
data_Li4V5O9F
_symmetry_space_group_name_H-M   'P 1'
_cell_length_a   5.23388754
_cell_length_b   5.18582315
_cell_length_c   8.02792499
_cell_angle_alpha   71.24087466
_cell_angle_beta   70.62723407
_cell_angle_gamma   79.25072725
_symmetry_Int_Tables_number   1
_chemical_formula_structural   Li4V5O9F
_chemical_formula_sum   'Li4 V5 O9 F1'
_cell_volume   193.85865117
_cell_formula_units_Z   1
loop_
 _symmetry_equiv_pos_site_id
 _symmetry_equiv_pos_as_xyz
  1  'x, y, z'
loop_
 _atom_site_type_symbol
 _atom_site_label
 _atom_site_symmetry_multiplicity
 _atom_site_fract_x
 _atom_site_fract_y
 _atom_site_fract_z
 _atom_site_occupancy
  Li  Li0  1  0.49650300  0.70652000  0.09735800  1
  Li  Li1  1  0.49394800  0.09385800  0.31444000  1
  Li  Li2  1  0.50541600  0.50747800  0.49166300  1
  Li  Li3  1  0.51679300  0.31590900  0.89888200  1
  V  V0  1  0.99965800  0.99622500  0.00595000  1
  V  V1  1  0.99990000  0.39533500  0.19823700  1
  V  V2  1  0.99144100  0.19451900  0.59702400  1
  V  V3  1  0.98997200  0.79450200  0.40387100  1
  V  V4  1  0.99219400  0.61663600  0.79971500  1
  O  O0  1  0.22684700  0.04648900  0.15127100  1
  O  O1  1  0.22291700  0.44077400  0.36154700  1
  O  O2  1  0.21113400  0.84443500  0.55213200  1
  O  O3  1  0.21420400  0.64479300  0.96168400  1
  O  O4  1  0.77628000  0.35560300  0.03546100  1
  O  O5  1  0.77694400  0.15925100  0.43167500  1
  O  O6  1  0.76949700  0.74780900  0.24994100  1
  O  O7  1  0.78282200  0.53290000  0.65201300  1
  O  O8  1  0.78371000  0.96803100  0.84902900  1
  F  F0  1  0.24147100  0.26044600  0.75330600  1
loop_
_geom_bond_atom_site_label_1
_geom_bond_atom_site_label_2
_geom_bond_distance
_geom_bond_site_symmetry_2
Li0 O0 2.108276 1_565
Li0 O4 2.192638 1_555
Li0 O3 2.222648 1_554
Li0 O6 2.243157 1_555
Li0 O8 2.259761 1_554
Li0 O1 2.299820 1_555
Li1 O5 2.124170 1_555
Li1 O1 2.126399 1_555
Li1 O6 2.169158 1_545
Li1 O2 2.181304 1_545
Li1 O0 2.297929 1_555
Li1 O4 2.374715 1_555
Li2 O6 2.130018 1_555
Li2 O5 2.158850 1_555
Li2 O2 2.169557 1_555
Li2 O1 2.201078 1_555
Li2 O7 2.281012 1_555
Li3 O4 2.080009 1_556
Li3 O7 2.109983 1_555
Li3 O8 2.125957 1_545
Li3 O3 2.164940 1_555
Li3 O0 2.300126 1_556
O0 V0 2.018512 1_445
O0 V1 2.041021 1_455
O0 V3 2.142173 1_445
O1 V2 2.043819 1_455
O1 V3 2.063643 1_455
O1 V1 2.110298 1_455
O2 V3 2.011877 1_455
O2 V2 2.028591 1_465
O2 V4 2.035406 1_455
O3 V1 2.021379 1_456
O3 V0 2.024110 1_456
O3 V4 2.061550 1_455
O4 V0 2.045415 1_545
O4 V4 2.048225 1_554
O4 V1 2.097067 1_555
O5 V1 1.994742 1_555
O5 V3 2.047090 1_545
O5 V2 2.068141 1_555
O6 V3 2.039601 1_555
O6 V1 2.073951 1_555
O6 V0 2.082764 1_555
O7 V2 1.982448 1_555
O7 V4 2.041102 1_555
O7 V3 2.088504 1_555
O8 V0 2.002628 1_556
O8 V4 2.025775 1_555
O8 V2 2.035496 1_565
F0 V4 2.115212 1_455
F0 V0 2.179301 1_446
F0 V2 2.221593 1_455
F0 Li2 2.228423 1_555
F0 Li3 2.238988 1_555
