# generated using pymatgen
data_LiMnF3
_symmetry_space_group_name_H-M   'P 1'
_cell_length_a   8.98355855
_cell_length_b   8.98355855
_cell_length_c   8.98355846
_cell_angle_alpha   112.27347105
_cell_angle_beta   112.27347105
_cell_angle_gamma   112.27347193
_symmetry_Int_Tables_number   1
_chemical_formula_structural   LiMnF3
_chemical_formula_sum   'Li6 Mn6 F18'
_cell_volume   491.78593982
_cell_formula_units_Z   6
loop_
 _symmetry_equiv_pos_site_id
 _symmetry_equiv_pos_as_xyz
  1  'x, y, z'
loop_
 _atom_site_type_symbol
 _atom_site_label
 _atom_site_symmetry_multiplicity
 _atom_site_fract_x
 _atom_site_fract_y
 _atom_site_fract_z
 _atom_site_occupancy
  Li  Li0  1  0.91564400  0.06452900  0.71769100  1
  Li  Li1  1  0.93547100  0.28230900  0.08435600  1
  Li  Li2  1  0.28230900  0.08435600  0.93547100  1
  Li  Li3  1  0.71769100  0.91564400  0.06452900  1
  Li  Li4  1  0.06452900  0.71769100  0.91564400  1
  Li  Li5  1  0.08435600  0.93547100  0.28230900  1
  Mn  Mn0  1  0.00614200  0.31456900  0.48322700  1
  Mn  Mn1  1  0.51677300  0.99385800  0.68543100  1
  Mn  Mn2  1  0.68543100  0.51677300  0.99385800  1
  Mn  Mn3  1  0.31456900  0.48322700  0.00614200  1
  Mn  Mn4  1  0.48322700  0.00614200  0.31456900  1
  Mn  Mn5  1  0.99385800  0.68543100  0.51677300  1
  F  F0  1  0.98890700  0.89521000  0.70963400  1
  F  F1  1  0.69136400  0.08466700  0.26010500  1
  F  F2  1  0.10479000  0.29036600  0.01109300  1
  F  F3  1  0.64102500  0.96525200  0.52762900  1
  F  F4  1  0.03474800  0.47237100  0.35897500  1
  F  F5  1  0.73989500  0.30863600  0.91533300  1
  F  F6  1  0.91533300  0.73989500  0.30863600  1
  F  F7  1  0.29036600  0.01109300  0.10479000  1
  F  F8  1  0.47237100  0.35897500  0.03474800  1
  F  F9  1  0.52762900  0.64102500  0.96525200  1
  F  F10  1  0.70963400  0.98890700  0.89521000  1
  F  F11  1  0.08466700  0.26010500  0.69136400  1
  F  F12  1  0.26010500  0.69136400  0.08466700  1
  F  F13  1  0.96525200  0.52762900  0.64102500  1
  F  F14  1  0.35897500  0.03474800  0.47237100  1
  F  F15  1  0.89521000  0.70963400  0.98890700  1
  F  F16  1  0.30863600  0.91533300  0.73989500  1
  F  F17  1  0.01109300  0.10479000  0.29036600  1
loop_
_geom_bond_atom_site_label_1
_geom_bond_atom_site_label_2
_geom_bond_distance
_geom_bond_site_symmetry_2
F0 Li0 1.861097 1_565
F0 Li2 1.971960 1_665
F0 Mn5 2.049920 1_555
F1 Li3 2.003341 1_545
F1 Mn4 2.046581 1_555
F1 Mn0 2.101807 1_655
F2 Li1 1.861097 1_455
F2 Li0 1.971960 1_454
F2 Mn3 2.049920 1_555
F3 Li0 1.944643 1_565
F3 Mn1 2.112458 1_555
F3 Mn4 2.163081 1_565
F4 Li1 1.944643 1_455
F4 Mn0 2.112458 1_555
F4 Mn5 2.163081 1_455
F5 Li1 2.003341 1_556
F5 Mn2 2.046581 1_555
F5 Mn1 2.101807 1_545
F6 Li5 2.003341 1_655
F6 Mn5 2.046581 1_555
F6 Mn2 2.101807 1_554
F7 Li2 1.861097 1_554
F7 Li4 1.971960 1_544
F7 Mn4 2.049920 1_555
F8 Li2 1.944643 1_554
F8 Mn3 2.112458 1_555
F8 Mn2 2.163081 1_554
F9 Li3 1.944643 1_556
F9 Mn2 2.112458 1_555
F9 Mn3 2.163081 1_556
F10 Li3 1.861097 1_556
F10 Li1 1.971960 1_566
F10 Mn1 2.049920 1_555
F11 Li0 2.003341 1_455
F11 Mn0 2.046581 1_555
F11 Mn3 2.101807 1_556
F12 Li4 2.003341 1_554
F12 Mn3 2.046581 1_555
F12 Mn4 2.101807 1_565
F13 Li4 1.944643 1_655
F13 Mn5 2.112458 1_555
F13 Mn0 2.163081 1_655
F14 Li5 1.944643 1_545
F14 Mn4 2.112458 1_555
F14 Mn1 2.163081 1_545
F15 Li4 1.861097 1_655
F15 Li5 1.971960 1_656
F15 Mn2 2.049920 1_555
F16 Li2 2.003341 1_565
F16 Mn1 2.046581 1_555
F16 Mn5 2.101807 1_455
F17 Li5 1.861097 1_545
F17 Li3 1.971960 1_445
F17 Mn0 2.049920 1_555
