# generated using pymatgen
data_VFe3Ni2(PO4)6
_symmetry_space_group_name_H-M   'P 1'
_cell_length_a   8.43970765
_cell_length_b   8.59655140
_cell_length_c   8.59655150
_cell_angle_alpha   60.00000044
_cell_angle_beta   59.38331501
_cell_angle_gamma   59.38331689
_symmetry_Int_Tables_number   1
_chemical_formula_structural   VFe3Ni2(PO4)6
_chemical_formula_sum   'V1 Fe3 Ni2 P6 O24'
_cell_volume   436.86704027
_cell_formula_units_Z   1
loop_
 _symmetry_equiv_pos_site_id
 _symmetry_equiv_pos_as_xyz
  1  'x, y, z'
loop_
 _atom_site_type_symbol
 _atom_site_label
 _atom_site_symmetry_multiplicity
 _atom_site_fract_x
 _atom_site_fract_y
 _atom_site_fract_z
 _atom_site_occupancy
  V  V0  1  0.56754700  0.14415100  0.14415100  1
  Fe  Fe0  1  0.06781300  0.64406200  0.64406200  1
  Fe  Fe1  1  0.43552000  0.85482700  0.85482700  1
  Fe  Fe2  1  0.92964000  0.35678600  0.35678600  1
  Ni  Ni0  1  0.00504600  0.99831800  0.99831800  1
  Ni  Ni1  1  0.50420100  0.49860000  0.49860000  1
  P  P0  1  0.24730900  0.25191400  0.54674900  1
  P  P1  1  0.24730900  0.95402800  0.25191400  1
  P  P2  1  0.24730900  0.54674900  0.95402800  1
  P  P3  1  0.74804000  0.45328000  0.04694000  1
  P  P4  1  0.74804000  0.04694000  0.75174000  1
  P  P5  1  0.74804000  0.75174000  0.45328000  1
  O  O0  1  0.06688100  0.10908800  0.32340700  1
  O  O1  1  0.06688100  0.50062400  0.10908800  1
  O  O2  1  0.06688100  0.32340700  0.50062400  1
  O  O3  1  0.22673300  0.09054500  0.74098100  1
  O  O4  1  0.43118300  0.17833300  0.37748600  1
  O  O5  1  0.28696500  0.40742100  0.54803000  1
  O  O6  1  0.22673300  0.94174100  0.09054500  1
  O  O7  1  0.28696500  0.75758500  0.40742100  1
  O  O8  1  0.56398600  0.60707700  0.00431000  1
  O  O9  1  0.28696500  0.54803000  0.75758500  1
  O  O10  1  0.76683300  0.25147200  0.06514300  1
  O  O11  1  0.56398600  0.00431000  0.82462500  1
  O  O12  1  0.43118300  0.01300000  0.17833300  1
  O  O13  1  0.22673300  0.74098100  0.94174100  1
  O  O14  1  0.72372300  0.43497700  0.24579400  1
  O  O15  1  0.43118300  0.37748600  0.01300000  1
  O  O16  1  0.72372300  0.24579400  0.59550500  1
  O  O17  1  0.76683300  0.06514300  0.91655200  1
  O  O18  1  0.72372300  0.59550500  0.43497700  1
  O  O19  1  0.56398600  0.82462500  0.60707700  1
  O  O20  1  0.76683300  0.91655200  0.25147200  1
  O  O21  1  0.93509300  0.69056900  0.48700500  1
  O  O22  1  0.93509300  0.48700500  0.88733400  1
  O  O23  1  0.93509300  0.88733400  0.69056900  1
loop_
_geom_bond_atom_site_label_1
_geom_bond_atom_site_label_2
_geom_bond_distance
_geom_bond_site_symmetry_2
Fe0 O21 1.944711 1_455
Fe0 O22 1.944719 1_455
Fe0 O23 1.944726 1_455
Fe0 O5 2.128950 1_555
Fe0 O7 2.128957 1_555
Fe0 O9 2.128962 1_555
Fe1 O11 1.921728 1_565
Fe1 O8 1.921741 1_556
Fe1 O19 1.921751 1_555
Fe1 O6 2.074936 1_556
Fe1 O3 2.074939 1_565
Fe1 O13 2.074942 1_555
Fe2 O0 1.928296 1_655
Fe2 O1 1.928303 1_655
Fe2 O2 1.928311 1_655
Fe2 O14 2.059183 1_555
Fe2 O16 2.059186 1_555
Fe2 O18 2.059189 1_555
Ni0 O3 2.136380 1_565
Ni0 O13 2.136380 1_555
Ni0 O6 2.136380 1_556
Ni0 O20 2.173756 1_456
Ni0 O10 2.173756 1_466
Ni0 O17 2.173756 1_465
Ni1 O9 2.119787 1_555
Ni1 O5 2.119787 1_555
Ni1 O7 2.119787 1_555
Ni1 O18 2.123656 1_555
Ni1 O16 2.123663 1_555
Ni1 O14 2.123669 1_555
O0 P1 1.507249 1_545
O1 P2 1.507249 1_554
O2 P0 1.507249 1_555
O3 P0 1.541515 1_555
O4 P0 1.595654 1_555
O4 V0 1.824264 1_555
O5 P0 1.540597 1_555
O6 P1 1.541515 1_555
O7 P1 1.540592 1_555
O8 P3 1.516134 1_555
O9 P2 1.540588 1_555
O10 P3 1.591505 1_555
O10 V0 1.982846 1_555
O11 P4 1.516138 1_555
O12 P1 1.595665 1_545
O12 V0 1.824250 1_555
O13 P2 1.541515 1_555
O14 P3 1.547803 1_555
O15 P2 1.595660 1_554
O15 V0 1.824258 1_555
O16 P4 1.547807 1_555
O17 P4 1.591505 1_555
O17 V0 1.982846 1_556
O18 P5 1.547812 1_555
O19 P5 1.516129 1_555
O20 P5 1.591505 1_555
O20 V0 1.982846 1_565
O21 P5 1.523462 1_555
O22 P3 1.523460 1_556
O23 P4 1.523457 1_565
