# generated using pymatgen
data_Ba2YI7
_symmetry_space_group_name_H-M   'P 1'
_cell_length_a   8.74310900
_cell_length_b   14.95875400
_cell_length_c   16.30213000
_cell_angle_alpha   90.00000000
_cell_angle_beta   90.00000000
_cell_angle_gamma   90.00000000
_symmetry_Int_Tables_number   1
_chemical_formula_structural   Ba2YI7
_chemical_formula_sum   'Ba8 Y4 I28'
_cell_volume   2132.09064685
_cell_formula_units_Z   4
loop_
 _symmetry_equiv_pos_site_id
 _symmetry_equiv_pos_as_xyz
  1  'x, y, z'
loop_
 _atom_site_type_symbol
 _atom_site_label
 _atom_site_symmetry_multiplicity
 _atom_site_fract_x
 _atom_site_fract_y
 _atom_site_fract_z
 _atom_site_occupancy
  Ba  Ba0  1  0.25000000  0.23625600  0.46146400  1
  Ba  Ba1  1  0.25000000  0.25328100  0.76050600  1
  Ba  Ba2  1  0.75000000  0.24671900  0.26050600  1
  Ba  Ba3  1  0.75000000  0.26374400  0.96146400  1
  Ba  Ba4  1  0.25000000  0.73625600  0.03853600  1
  Ba  Ba5  1  0.25000000  0.75328100  0.73949400  1
  Ba  Ba6  1  0.75000000  0.74671900  0.23949400  1
  Ba  Ba7  1  0.75000000  0.76374400  0.53853600  1
  Y  Y0  1  0.25000000  0.93760800  0.28836300  1
  Y  Y1  1  0.75000000  0.56239200  0.78836300  1
  Y  Y2  1  0.25000000  0.43760700  0.21163700  1
  Y  Y3  1  0.75000000  0.06239200  0.71163700  1
  I  I0  1  0.75000000  0.10325400  0.10508700  1
  I  I1  1  0.02266700  0.08652500  0.34308700  1
  I  I2  1  0.47733300  0.08652500  0.34308700  1
  I  I3  1  0.97381100  0.10726000  0.85237600  1
  I  I4  1  0.52618900  0.10726000  0.85237600  1
  I  I5  1  0.52937700  0.18123200  0.61578800  1
  I  I6  1  0.97062300  0.18123200  0.61578800  1
  I  I7  1  0.02937700  0.31876800  0.11578800  1
  I  I8  1  0.47062300  0.31876800  0.11578800  1
  I  I9  1  0.02618900  0.39274000  0.35237600  1
  I  I10  1  0.47381100  0.39274000  0.35237600  1
  I  I11  1  0.97733300  0.41347500  0.84308700  1
  I  I12  1  0.52266700  0.41347500  0.84308700  1
  I  I13  1  0.25000000  0.39674600  0.60508700  1
  I  I14  1  0.75000000  0.60325400  0.39491300  1
  I  I15  1  0.02266700  0.58652500  0.15691300  1
  I  I16  1  0.47733300  0.58652500  0.15691300  1
  I  I17  1  0.97381100  0.60726000  0.64762400  1
  I  I18  1  0.52618900  0.60726000  0.64762400  1
  I  I19  1  0.97062300  0.68123200  0.88421200  1
  I  I20  1  0.52937700  0.68123200  0.88421200  1
  I  I21  1  0.47062300  0.81876800  0.38421200  1
  I  I22  1  0.02937700  0.81876800  0.38421200  1
  I  I23  1  0.47381100  0.89274000  0.14762400  1
  I  I24  1  0.02618900  0.89274000  0.14762400  1
  I  I25  1  0.52266700  0.91347500  0.65691300  1
  I  I26  1  0.97733300  0.91347500  0.65691300  1
  I  I27  1  0.25000000  0.89674600  0.89491300  1
loop_
_geom_bond_atom_site_label_1
_geom_bond_atom_site_label_2
_geom_bond_distance
_geom_bond_site_symmetry_2
Ba0 I13 3.353428 1_555
Ba0 I10 3.531436 1_555
Ba0 I9 3.531436 1_555
Ba0 I2 3.562487 1_555
Ba0 I1 3.562487 1_555
Ba0 I6 3.601831 1_455
Ba0 I5 3.601831 1_555
Ba1 I13 3.320392 1_555
Ba1 I5 3.562845 1_555
Ba1 I6 3.562845 1_455
Ba1 I3 3.584018 1_455
Ba1 I4 3.584018 1_555
Ba1 I12 3.638392 1_555
Ba1 I11 3.638392 1_455
Ba2 I0 3.320392 1_555
Ba2 I7 3.562845 1_655
Ba2 I8 3.562845 1_555
Ba2 I9 3.584018 1_655
Ba2 I10 3.584018 1_555
Ba2 I2 3.638392 1_555
Ba2 I1 3.638392 1_655
Ba3 I0 3.353428 1_556
Ba3 I4 3.531436 1_555
Ba3 I3 3.531436 1_555
Ba3 I12 3.562487 1_555
Ba3 I11 3.562487 1_555
Ba3 I8 3.601831 1_556
Ba3 I7 3.601831 1_656
Ba4 I27 3.353428 1_554
Ba4 I24 3.531436 1_555
Ba4 I23 3.531436 1_555
Ba4 I16 3.562487 1_555
Ba4 I15 3.562487 1_555
Ba4 I20 3.601831 1_554
Ba4 I19 3.601831 1_454
Ba5 I27 3.320392 1_555
Ba5 I20 3.562845 1_555
Ba5 I19 3.562845 1_455
Ba5 I17 3.584018 1_455
Ba5 I18 3.584018 1_555
Ba5 I26 3.638392 1_455
Ba5 I25 3.638392 1_555
Ba6 I14 3.320392 1_555
Ba6 I21 3.562845 1_555
Ba6 I22 3.562845 1_655
Ba6 I24 3.584018 1_655
Ba6 I23 3.584018 1_555
Ba6 I16 3.638392 1_555
Ba6 I15 3.638392 1_655
Ba7 I14 3.353428 1_555
Ba7 I18 3.531436 1_555
Ba7 I17 3.531436 1_555
Ba7 I25 3.562487 1_555
Ba7 I26 3.562487 1_555
Ba7 I22 3.601831 1_655
Ba7 I21 3.601831 1_555
I1 Y0 3.115875 1_545
I2 Y0 3.115875 1_545
I3 Y3 3.089267 1_555
I4 Y3 3.089267 1_555
I5 Y3 3.053281 1_555
I6 Y3 3.053281 1_555
I7 Y2 3.053272 1_555
I8 Y2 3.053272 1_555
I9 Y2 3.089264 1_555
I10 Y2 3.089264 1_555
I11 Y1 3.115875 1_555
I12 Y1 3.115875 1_555
I15 Y2 3.115885 1_555
I16 Y2 3.115885 1_555
I17 Y1 3.089267 1_555
I18 Y1 3.089267 1_555
I19 Y1 3.053281 1_555
I20 Y1 3.053281 1_555
I21 Y0 3.053281 1_555
I22 Y0 3.053281 1_555
I23 Y0 3.089267 1_555
I24 Y0 3.089267 1_555
I25 Y3 3.115875 1_565
I26 Y3 3.115875 1_565
