# generated using pymatgen
data_Nb9PO25
_symmetry_space_group_name_H-M   'P 1'
_cell_length_a   15.86840000
_cell_length_b   15.86840000
_cell_length_c   3.89810300
_cell_angle_alpha   90.00000000
_cell_angle_beta   90.00000000
_cell_angle_gamma   90.00000000
_symmetry_Int_Tables_number   1
_chemical_formula_structural   Nb9PO25
_chemical_formula_sum   'Nb18 P2 O50'
_cell_volume   981.56618618
_cell_formula_units_Z   2
loop_
 _symmetry_equiv_pos_site_id
 _symmetry_equiv_pos_as_xyz
  1  'x, y, z'
loop_
 _atom_site_type_symbol
 _atom_site_label
 _atom_site_symmetry_multiplicity
 _atom_site_fract_x
 _atom_site_fract_y
 _atom_site_fract_z
 _atom_site_occupancy
  Nb  Nb0  1  0.78132800  0.60887300  0.75067200  1
  Nb  Nb1  1  0.33052100  0.61379000  0.74406000  1
  Nb  Nb2  1  0.61379000  0.66947900  0.25594000  1
  Nb  Nb3  1  0.10887300  0.71867200  0.75067200  1
  Nb  Nb4  1  0.39112700  0.78132800  0.24932800  1
  Nb  Nb5  1  0.88621000  0.83052100  0.74406000  1
  Nb  Nb6  1  0.16947900  0.88621000  0.25594000  1
  Nb  Nb7  1  0.71867200  0.89112700  0.24932800  1
  Nb  Nb8  1  0.50000000  0.00000000  0.28776300  1
  Nb  Nb9  1  0.28132800  0.10887300  0.24932800  1
  Nb  Nb10  1  0.83052100  0.11379000  0.25594000  1
  Nb  Nb11  1  0.11379000  0.16947900  0.74406000  1
  Nb  Nb12  1  0.60887300  0.21867200  0.24932800  1
  Nb  Nb13  1  0.89112700  0.28132800  0.75067200  1
  Nb  Nb14  1  0.38621000  0.33052100  0.25594000  1
  Nb  Nb15  1  0.66947900  0.38621000  0.74406000  1
  Nb  Nb16  1  0.21867200  0.39112700  0.75067200  1
  Nb  Nb17  1  0.00000000  0.50000000  0.71223700  1
  P  P0  1  0.00000000  0.00000000  0.00000000  1
  P  P1  1  0.50000000  0.50000000  0.00000000  1
  O  O0  1  0.28294500  0.51025700  0.74914700  1
  O  O1  1  0.88194400  0.54863700  0.74899400  1
  O  O2  1  0.56544100  0.54921400  0.21775400  1
  O  O3  1  0.45078600  0.56544100  0.78224600  1
  O  O4  1  0.74792700  0.61250300  0.24957700  1
  O  O5  1  0.04863700  0.61805600  0.74899400  1
  O  O6  1  0.34439700  0.64515700  0.25453700  1
  O  O7  1  0.64515700  0.65560300  0.74546300  1
  O  O8  1  0.21871500  0.67322800  0.75402900  1
  O  O9  1  0.51025700  0.71705500  0.25085300  1
  O  O10  1  0.82677200  0.71871500  0.75402900  1
  O  O11  1  0.38749700  0.74792700  0.75042300  1
  O  O12  1  0.11250300  0.75207300  0.24957700  1
  O  O13  1  0.67322800  0.78128500  0.24597100  1
  O  O14  1  0.98974300  0.78294500  0.74914700  1
  O  O15  1  0.28128500  0.82677200  0.24597100  1
  O  O16  1  0.85484300  0.84439700  0.25453700  1
  O  O17  1  0.15560300  0.85484300  0.74546300  1
  O  O18  1  0.45136300  0.88194400  0.25100600  1
  O  O19  1  0.75207300  0.88749700  0.75042300  1
  O  O20  1  0.04921400  0.93455900  0.21775400  1
  O  O21  1  0.93455900  0.95078600  0.78224600  1
  O  O22  1  0.61805600  0.95136300  0.25100600  1
  O  O23  1  0.21705500  0.98974300  0.25085300  1
  O  O24  1  0.50000000  0.00000000  0.75679200  1
  O  O25  1  0.78294500  0.01025700  0.25085300  1
  O  O26  1  0.38194400  0.04863700  0.25100600  1
  O  O27  1  0.06544100  0.04921400  0.78224600  1
  O  O28  1  0.95078600  0.06544100  0.21775400  1
  O  O29  1  0.24792700  0.11250300  0.75042300  1
  O  O30  1  0.54863700  0.11805600  0.25100600  1
  O  O31  1  0.84439700  0.14515700  0.74546300  1
  O  O32  1  0.14515700  0.15560300  0.25453700  1
  O  O33  1  0.71871500  0.17322800  0.24597100  1
  O  O34  1  0.01025700  0.21705500  0.74914700  1
  O  O35  1  0.32677200  0.21871500  0.24597100  1
  O  O36  1  0.88749700  0.24792700  0.24957700  1
  O  O37  1  0.61250300  0.25207300  0.75042300  1
  O  O38  1  0.17322800  0.28128500  0.75402900  1
  O  O39  1  0.48974300  0.28294500  0.25085300  1
  O  O40  1  0.78128500  0.32677200  0.75402900  1
  O  O41  1  0.35484300  0.34439700  0.74546300  1
  O  O42  1  0.65560300  0.35484300  0.25453700  1
  O  O43  1  0.95136300  0.38194400  0.74899400  1
  O  O44  1  0.25207300  0.38749700  0.24957700  1
  O  O45  1  0.54921400  0.43455900  0.78224600  1
  O  O46  1  0.43455900  0.45078600  0.21775400  1
  O  O47  1  0.11805600  0.45136300  0.74899400  1
  O  O48  1  0.71705500  0.48974300  0.74914700  1
  O  O49  1  0.00000000  0.50000000  0.24320800  1
loop_
_geom_bond_atom_site_label_1
_geom_bond_atom_site_label_2
_geom_bond_distance
_geom_bond_site_symmetry_2
Nb0 O1 1.860879 1_555
Nb0 O10 1.886345 1_555
Nb0 O4 2.016537 1_556
Nb0 O4 2.024771 1_555
Nb0 O48 2.147993 1_555
Nb0 O7 2.284602 1_555
Nb1 O0 1.808171 1_555
Nb1 O6 1.984314 1_555
Nb1 O8 2.009685 1_555
Nb1 O3 2.062238 1_555
Nb1 O6 2.062984 1_556
Nb1 O11 2.312731 1_555
Nb2 O9 1.808171 1_555
Nb2 O7 1.984314 1_555
Nb2 O13 2.009685 1_555
Nb2 O2 2.062238 1_555
Nb2 O7 2.062984 1_554
Nb2 O4 2.312731 1_555
Nb3 O5 1.860879 1_555
Nb3 O8 1.886345 1_555
Nb3 O12 2.016537 1_556
Nb3 O12 2.024771 1_555
Nb3 O14 2.147993 1_455
Nb3 O17 2.284602 1_555
Nb4 O18 1.860879 1_555
Nb4 O15 1.886345 1_555
Nb4 O11 2.016537 1_554
Nb4 O11 2.024771 1_555
Nb4 O9 2.147993 1_555
Nb4 O6 2.284602 1_555
Nb5 O14 1.808171 1_555
Nb5 O16 1.984314 1_555
Nb5 O10 2.009685 1_555
Nb5 O21 2.062238 1_555
Nb5 O16 2.062984 1_556
Nb5 O19 2.312731 1_555
Nb6 O23 1.808171 1_555
Nb6 O17 1.984314 1_555
Nb6 O15 2.009685 1_555
Nb6 O20 2.062238 1_555
Nb6 O17 2.062984 1_554
Nb6 O12 2.312731 1_555
Nb7 O22 1.860879 1_555
Nb7 O13 1.886345 1_555
Nb7 O19 2.016537 1_554
Nb7 O19 2.024771 1_555
Nb7 O25 2.147993 1_565
Nb7 O16 2.284602 1_555
Nb8 O24 1.828323 1_555
Nb8 O26 2.031174 1_555
Nb8 O30 2.031174 1_555
Nb8 O18 2.031174 1_545
Nb8 O22 2.031174 1_545
Nb8 O24 2.069780 1_554
Nb9 O26 1.860879 1_555
Nb9 O35 1.886345 1_555
Nb9 O29 2.016537 1_554
Nb9 O29 2.024771 1_555
Nb9 O23 2.147993 1_545
Nb9 O32 2.284602 1_555
Nb10 O25 1.808171 1_555
Nb10 O31 1.984314 1_555
Nb10 O33 2.009685 1_555
Nb10 O28 2.062238 1_555
Nb10 O31 2.062984 1_554
Nb10 O36 2.312731 1_555
Nb11 O34 1.808171 1_555
Nb11 O32 1.984314 1_555
Nb11 O38 2.009685 1_555
Nb11 O27 2.062238 1_555
Nb11 O32 2.062984 1_556
Nb11 O29 2.312731 1_555
Nb12 O30 1.860879 1_555
Nb12 O33 1.886345 1_555
Nb12 O37 2.016537 1_554
Nb12 O37 2.024771 1_555
Nb12 O39 2.147993 1_555
Nb12 O42 2.284602 1_555
Nb13 O43 1.860879 1_555
Nb13 O40 1.886345 1_555
Nb13 O36 2.016537 1_556
Nb13 O36 2.024771 1_555
Nb13 O34 2.147993 1_655
Nb13 O31 2.284602 1_555
Nb14 O39 1.808171 1_555
Nb14 O41 1.984314 1_555
Nb14 O35 2.009685 1_555
Nb14 O46 2.062238 1_555
Nb14 O41 2.062984 1_554
Nb14 O44 2.312731 1_555
Nb15 O48 1.808171 1_555
Nb15 O42 1.984314 1_555
Nb15 O40 2.009685 1_555
Nb15 O45 2.062238 1_555
Nb15 O42 2.062984 1_556
Nb15 O37 2.312731 1_555
Nb16 O47 1.860879 1_555
Nb16 O38 1.886345 1_555
Nb16 O44 2.016537 1_556
Nb16 O44 2.024771 1_555
Nb16 O0 2.147993 1_555
Nb16 O41 2.284602 1_555
Nb17 O49 1.828323 1_555
Nb17 O47 2.031174 1_555
Nb17 O43 2.031174 1_455
Nb17 O1 2.031174 1_455
Nb17 O5 2.031174 1_555
Nb17 O49 2.069780 1_556
O2 P1 1.552016 1_555
O3 P1 1.552016 1_556
O20 P0 1.552016 1_565
O21 P0 1.552016 1_666
O27 P0 1.552016 1_556
O28 P0 1.552016 1_655
O45 P1 1.552016 1_556
O46 P1 1.552016 1_555
