# generated using pymatgen
data_Li6MnO4
_symmetry_space_group_name_H-M   'P 1'
_cell_length_a   8.02473343
_cell_length_b   8.02467273
_cell_length_c   8.02460364
_cell_angle_alpha   109.63268585
_cell_angle_beta   70.61222317
_cell_angle_gamma   70.61201693
_symmetry_Int_Tables_number   1
_chemical_formula_structural   Li6MnO4
_chemical_formula_sum   'Li24 Mn4 O16'
_cell_volume   397.81908554
_cell_formula_units_Z   4
loop_
 _symmetry_equiv_pos_site_id
 _symmetry_equiv_pos_as_xyz
  1  'x, y, z'
loop_
 _atom_site_type_symbol
 _atom_site_label
 _atom_site_symmetry_multiplicity
 _atom_site_fract_x
 _atom_site_fract_y
 _atom_site_fract_z
 _atom_site_occupancy
  Li  Li0  1  0.25000919  0.35706722  0.10706016  1
  Li  Li1  1  0.25000769  0.85707148  0.60705938  1
  Li  Li2  1  0.25002941  0.10704693  0.85703524  1
  Li  Li3  1  0.25002663  0.60704764  0.35703817  1
  Li  Li4  1  0.75001203  0.14292539  0.39292270  1
  Li  Li5  1  0.75000841  0.64292714  0.89292306  1
  Li  Li6  1  0.74997691  0.39295979  0.64294568  1
  Li  Li7  1  0.74998615  0.89295500  0.14293980  1
  Li  Li8  1  0.03421609  0.62498063  0.09073535  1
  Li  Li9  1  0.03421858  0.12497470  0.59073825  1
  Li  Li10  1  0.03419699  0.84084800  0.87507375  1
  Li  Li11  1  0.03419700  0.34085385  0.37506825  1
  Li  Li12  1  0.46574732  0.40929175  0.87506249  1
  Li  Li13  1  0.46574547  0.90928761  0.37506915  1
  Li  Li14  1  0.46576482  0.62497737  0.65919334  1
  Li  Li15  1  0.46576081  0.12498291  0.15919132  1
  Li  Li16  1  0.53428607  0.87499458  0.84075050  1
  Li  Li17  1  0.53427880  0.37499938  0.34075972  1
  Li  Li18  1  0.53425810  0.09070000  0.62492143  1
  Li  Li19  1  0.53426136  0.59069587  0.12491874  1
  Li  Li20  1  0.96580726  0.65916318  0.62494854  1
  Li  Li21  1  0.96580088  0.15916806  0.12494835  1
  Li  Li22  1  0.96580960  0.87502163  0.40922181  1
  Li  Li23  1  0.96581714  0.37502229  0.90921527  1
  Mn  Mn0  1  0.25001226  0.87499305  0.12500602  1
  Mn  Mn1  1  0.74998766  0.62499995  0.37499668  1
  Mn  Mn2  1  0.25000904  0.37499533  0.62500376  1
  Mn  Mn3  1  0.74998823  0.12500292  0.87499864  1
  O  O0  1  0.01614574  0.60352077  0.35359739  1
  O  O1  1  0.01614802  0.10352198  0.85359566  1
  O  O2  1  0.25006536  0.11967698  0.10352424  1
  O  O3  1  0.25006698  0.61965977  0.60352263  1
  O  O4  1  0.24992468  0.35359774  0.86970643  1
  O  O5  1  0.24992438  0.85359733  0.36971112  1
  O  O6  1  0.48389651  0.36969879  0.11962362  1
  O  O7  1  0.48389764  0.86969819  0.61961850  1
  O  O8  1  0.51611261  0.13029310  0.38035889  1
  O  O9  1  0.51609925  0.63030832  0.88037385  1
  O  O10  1  0.74993619  0.38037380  0.39646504  1
  O  O11  1  0.74993810  0.88037028  0.89646560  1
  O  O12  1  0.75008588  0.14639570  0.63028173  1
  O  O13  1  0.75008778  0.64639393  0.13027549  1
  O  O14  1  0.98391182  0.89647076  0.14639070  1
  O  O15  1  0.98390218  0.39646989  0.64638853  1
loop_
_geom_bond_atom_site_label_1
_geom_bond_atom_site_label_2
_geom_bond_distance
_geom_bond_site_symmetry_2
Li0 O2 1.895481 1_555
Li0 O4 1.895726 1_554
Li0 O6 1.946330 1_555
Li0 O0 1.946495 1_555
Li1 O3 1.895643 1_555
Li1 O5 1.895667 1_555
Li1 O7 1.946325 1_555
Li1 O1 1.946475 1_565
Li2 O1 1.895571 1_555
Li2 O7 1.895794 1_545
Li2 O2 1.946368 1_556
Li2 O4 1.946385 1_555
Li3 O0 1.895576 1_555
Li3 O6 1.895792 1_555
Li3 O5 1.946379 1_555
Li3 O3 1.946386 1_555
Li4 O12 1.895738 1_555
Li4 O10 1.895878 1_555
Li4 O8 1.946430 1_555
Li4 O14 1.946568 1_545
Li5 O13 1.895709 1_556
Li5 O11 1.895850 1_555
Li5 O9 1.946429 1_555
Li5 O15 1.946569 1_555
Li6 O9 1.895849 1_555
Li6 O15 1.895892 1_555
Li6 O10 1.946417 1_555
Li6 O12 1.946496 1_555
Li7 O8 1.895785 1_565
Li7 O14 1.895932 1_555
Li7 O11 1.946389 1_554
Li7 O13 1.946492 1_555
Li8 O4 1.936006 1_554
Li8 O14 1.936846 1_455
Li8 O13 2.133490 1_455
Li8 O0 2.134876 1_555
Li9 O5 1.935974 1_545
Li9 O15 1.936871 1_455
Li9 O12 2.133498 1_455
Li9 O1 2.134814 1_555
Li10 O14 1.935563 1_456
Li10 O3 1.937292 1_555
Li10 O1 2.133499 1_565
Li10 O11 2.134618 1_455
Li11 O15 1.935582 1_455
Li11 O2 1.937238 1_555
Li11 O0 2.133413 1_555
Li11 O10 2.134625 1_455
Li12 O9 1.935748 1_555
Li12 O4 1.936893 1_555
Li12 O6 2.133454 1_556
Li12 O12 2.135209 1_555
Li13 O8 1.935762 1_565
Li13 O5 1.936869 1_555
Li13 O7 2.133356 1_555
Li13 O13 2.135240 1_555
Li14 O3 1.935738 1_555
Li14 O9 1.936911 1_555
Li14 O10 2.133856 1_555
Li14 O7 2.134637 1_555
Li15 O2 1.935682 1_555
Li15 O8 1.936918 1_555
Li15 O11 2.133887 1_544
Li15 O6 2.134580 1_555
Li16 O11 1.935676 1_555
Li16 O7 1.936816 1_555
Li16 O2 2.134294 1_566
Li16 O9 2.134671 1_555
Li17 O10 1.935675 1_555
Li17 O6 1.936815 1_555
Li17 O3 2.134193 1_555
Li17 O8 2.134693 1_555
Li18 O7 1.935682 1_545
Li18 O12 1.936948 1_555
Li18 O8 2.133457 1_555
Li18 O4 2.135203 1_555
Li19 O6 1.935677 1_555
Li19 O13 1.936941 1_555
Li19 O9 2.133427 1_554
Li19 O5 2.135239 1_555
Li20 O0 1.935694 1_655
Li20 O11 1.937185 1_555
Li20 O15 2.133433 1_555
Li20 O3 2.134572 1_655
Li21 O1 1.935683 1_654
Li21 O10 1.937173 1_555
Li21 O14 2.133444 1_545
Li21 O2 2.134637 1_655
Li22 O12 1.936055 1_565
Li22 O0 1.936923 1_655
Li22 O5 2.133408 1_655
Li22 O14 2.134533 1_555
Li23 O13 1.936055 1_556
Li23 O1 1.936937 1_655
Li23 O4 2.133354 1_655
Li23 O15 2.134525 1_555
Mn0 O5 2.027600 1_555
Mn0 O14 2.027686 1_455
Mn0 O9 2.027742 1_554
Mn0 O2 2.028062 1_565
Mn1 O10 2.027552 1_555
Mn1 O13 2.027694 1_555
Mn1 O7 2.027759 1_555
Mn1 O0 2.028109 1_655
Mn2 O4 2.027595 1_555
Mn2 O15 2.027745 1_455
Mn2 O8 2.027868 1_555
Mn2 O3 2.027915 1_555
Mn3 O11 2.027596 1_545
Mn3 O12 2.027662 1_555
Mn3 O6 2.027767 1_556
Mn3 O1 2.028110 1_655
