# generated using pymatgen
data_Li2Mn2(PO4)3
_symmetry_space_group_name_H-M   'P 1'
_cell_length_a   8.36619602
_cell_length_b   8.39546461
_cell_length_c   9.03076649
_cell_angle_alpha   88.11472659
_cell_angle_beta   60.02146972
_cell_angle_gamma   118.19579875
_symmetry_Int_Tables_number   1
_chemical_formula_structural   Li2Mn2(PO4)3
_chemical_formula_sum   'Li4 Mn4 P6 O24'
_cell_volume   453.19009546
_cell_formula_units_Z   2
loop_
 _symmetry_equiv_pos_site_id
 _symmetry_equiv_pos_as_xyz
  1  'x, y, z'
loop_
 _atom_site_type_symbol
 _atom_site_label
 _atom_site_symmetry_multiplicity
 _atom_site_fract_x
 _atom_site_fract_y
 _atom_site_fract_z
 _atom_site_occupancy
  Li  Li0  1  0.46531700  0.22833600  0.13962500  1
  Li  Li1  1  0.35443800  0.35523100  0.45269200  1
  Li  Li2  1  0.64556200  0.64476900  0.54730800  1
  Li  Li3  1  0.53468300  0.77166400  0.86037500  1
  Mn  Mn0  1  0.20230400  0.85396100  0.44479400  1
  Mn  Mn1  1  0.20902500  0.35263500  0.92453100  1
  Mn  Mn2  1  0.79097500  0.64736500  0.07546900  1
  Mn  Mn3  1  0.79769600  0.14603900  0.55520600  1
  P  P0  1  0.28620700  0.54012500  0.25269200  1
  P  P1  1  0.28724000  0.75890300  0.75011400  1
  P  P2  1  0.00729400  0.04312300  0.73792300  1
  P  P3  1  0.99270600  0.95687700  0.26207700  1
  P  P4  1  0.71276000  0.24109700  0.24988600  1
  P  P5  1  0.71379300  0.45987500  0.74730800  1
  O  O0  1  0.18833300  0.98296000  0.26699600  1
  O  O1  1  0.21178600  0.67415500  0.31694300  1
  O  O2  1  0.32515300  0.54209700  0.06841100  1
  O  O3  1  0.10664400  0.11950500  0.09187400  1
  O  O4  1  0.12055700  0.32677800  0.39461700  1
  O  O5  1  0.25041300  0.75272500  0.59992400  1
  O  O6  1  0.07756700  0.69078100  0.94128000  1
  O  O7  1  0.49794700  0.59957100  0.24598400  1
  O  O8  1  0.47267600  0.95649900  0.72745000  1
  O  O9  1  0.15093200  0.24700300  0.72942400  1
  O  O10  1  0.36493600  0.62138300  0.75068900  1
  O  O11  1  0.18318100  0.04147600  0.55567900  1
  O  O12  1  0.81681900  0.95852400  0.44432100  1
  O  O13  1  0.63506400  0.37861700  0.24931100  1
  O  O14  1  0.84906800  0.75299700  0.27057600  1
  O  O15  1  0.52732400  0.04350100  0.27255000  1
  O  O16  1  0.50205300  0.40042900  0.75401600  1
  O  O17  1  0.92243300  0.30921900  0.05872000  1
  O  O18  1  0.74958700  0.24727500  0.40007600  1
  O  O19  1  0.87944300  0.67322200  0.60538300  1
  O  O20  1  0.89335600  0.88049500  0.90812600  1
  O  O21  1  0.67484700  0.45790300  0.93158900  1
  O  O22  1  0.78821400  0.32584500  0.68305700  1
  O  O23  1  0.81166700  0.01704000  0.73300400  1
loop_
_geom_bond_atom_site_label_1
_geom_bond_atom_site_label_2
_geom_bond_distance
_geom_bond_site_symmetry_2
Li0 O21 1.896049 1_554
Li0 O0 1.898956 1_545
Li0 O13 2.093963 1_555
Li0 O15 2.319178 1_555
Li1 O9 2.026436 1_555
Li1 O13 2.038471 1_555
Li1 O7 2.077282 1_555
Li1 O4 2.180109 1_555
Li1 O11 2.190234 1_555
Li2 O14 2.026436 1_555
Li2 O10 2.038471 1_555
Li2 O16 2.077282 1_555
Li2 O19 2.180109 1_555
Li2 O12 2.190234 1_555
Li3 O2 1.896049 1_556
Li3 O23 1.898956 1_565
Li3 O10 2.093963 1_555
Li3 O8 2.319178 1_555
Mn0 O5 1.911916 1_555
Mn0 O11 1.920500 1_565
Mn0 O1 1.937638 1_555
Mn0 O19 1.941412 1_455
Mn0 O15 1.966473 1_565
Mn0 O0 1.989332 1_555
Mn1 O17 1.895168 1_456
Mn1 O3 1.943156 1_556
Mn1 O16 1.949208 1_555
Mn1 O10 2.048465 1_555
Mn1 O9 2.162986 1_555
Mn1 O2 2.258208 1_556
Mn2 O6 1.895168 1_654
Mn2 O20 1.943156 1_554
Mn2 O7 1.949208 1_555
Mn2 O13 2.048465 1_555
Mn2 O14 2.162986 1_555
Mn2 O21 2.258208 1_554
Mn3 O18 1.911916 1_555
Mn3 O12 1.920500 1_545
Mn3 O22 1.937638 1_555
Mn3 O4 1.941412 1_655
Mn3 O8 1.966473 1_545
Mn3 O23 1.989332 1_555
O0 P3 1.569454 1_455
O1 P0 1.527900 1_555
O2 P0 1.525514 1_555
O3 P3 1.517627 1_445
O4 P0 1.581051 1_555
O5 P1 1.531142 1_555
O6 P1 1.531398 1_555
O7 P0 1.564013 1_555
O8 P1 1.558535 1_555
O9 P2 1.528149 1_555
O10 P1 1.570886 1_555
O11 P2 1.573110 1_555
O12 P3 1.573110 1_555
O13 P4 1.570886 1_555
O14 P3 1.528149 1_555
O15 P4 1.558535 1_555
O16 P5 1.564013 1_555
O17 P4 1.531398 1_555
O18 P4 1.531142 1_555
O19 P5 1.581051 1_555
O20 P2 1.517627 1_665
O21 P5 1.525514 1_555
O22 P5 1.527900 1_555
O23 P2 1.569454 1_655
