# generated using pymatgen
data_Li2Fe2Si5O13
_symmetry_space_group_name_H-M   'P 1'
_cell_length_a   7.54549300
_cell_length_b   7.67104055
_cell_length_c   9.87278754
_cell_angle_alpha   83.87765782
_cell_angle_beta   68.08125405
_cell_angle_gamma   74.22610177
_symmetry_Int_Tables_number   1
_chemical_formula_structural   Li2Fe2Si5O13
_chemical_formula_sum   'Li4 Fe4 Si10 O26'
_cell_volume   510.17361434
_cell_formula_units_Z   2
loop_
 _symmetry_equiv_pos_site_id
 _symmetry_equiv_pos_as_xyz
  1  'x, y, z'
loop_
 _atom_site_type_symbol
 _atom_site_label
 _atom_site_symmetry_multiplicity
 _atom_site_fract_x
 _atom_site_fract_y
 _atom_site_fract_z
 _atom_site_occupancy
  Li  Li0  1  0.18471600  0.07980700  0.86751200  1
  Li  Li1  1  0.15925400  0.40803000  0.74453500  1
  Li  Li2  1  0.84074600  0.59197000  0.25546500  1
  Li  Li3  1  0.81528400  0.92019300  0.13248800  1
  Fe  Fe0  1  0.02884900  0.15624500  0.60080700  1
  Fe  Fe1  1  0.44090900  0.84031300  0.40090200  1
  Fe  Fe2  1  0.55909100  0.15968700  0.59909800  1
  Fe  Fe3  1  0.97115100  0.84375500  0.39919300  1
  Si  Si0  1  0.14956200  0.22295400  0.26579500  1
  Si  Si1  1  0.21418100  0.69272900  0.04353700  1
  Si  Si2  1  0.30849200  0.45764300  0.40789900  1
  Si  Si3  1  0.26475500  0.76577100  0.72812200  1
  Si  Si4  1  0.62925500  0.70490700  0.04538300  1
  Si  Si5  1  0.37074500  0.29509300  0.95461700  1
  Si  Si6  1  0.73524500  0.23422900  0.27187800  1
  Si  Si7  1  0.69150800  0.54235700  0.59210100  1
  Si  Si8  1  0.78581900  0.30727100  0.95646300  1
  Si  Si9  1  0.85043800  0.77704600  0.73420500  1
  O  O0  1  0.02275100  0.77150200  0.18422400  1
  O  O1  1  0.15885800  0.05494200  0.38050800  1
  O  O2  1  0.29559700  0.16162400  0.09633700  1
  O  O3  1  0.20039200  0.39966500  0.30679700  1
  O  O4  1  0.07399400  0.69265700  0.74057200  1
  O  O5  1  0.41410100  0.68111000  0.06997500  1
  O  O6  1  0.23753400  0.67753000  0.42259000  1
  O  O7  1  0.27772500  0.32434700  0.55011700  1
  O  O8  1  0.54988300  0.41134000  0.30997100  1
  O  O9  1  0.36927300  0.21643900  0.80997400  1
  O  O10  1  0.21126700  0.49556700  0.99457100  1
  O  O11  1  0.30183500  0.93639500  0.61812400  1
  O  O12  1  0.21276000  0.82989700  0.89909000  1
  O  O13  1  0.78724000  0.17010300  0.10091000  1
  O  O14  1  0.69816500  0.06360500  0.38187600  1
  O  O15  1  0.78873300  0.50443300  0.00542900  1
  O  O16  1  0.63072700  0.78356100  0.19002600  1
  O  O17  1  0.45011700  0.58866000  0.69002900  1
  O  O18  1  0.72227500  0.67565300  0.44988300  1
  O  O19  1  0.76246600  0.32247000  0.57741000  1
  O  O20  1  0.58589900  0.31889000  0.93002500  1
  O  O21  1  0.92600600  0.30734300  0.25942800  1
  O  O22  1  0.79960800  0.60033500  0.69320300  1
  O  O23  1  0.70440300  0.83837600  0.90366300  1
  O  O24  1  0.84114200  0.94505800  0.61949200  1
  O  O25  1  0.97724900  0.22849800  0.81577600  1
loop_
_geom_bond_atom_site_label_1
_geom_bond_atom_site_label_2
_geom_bond_distance
_geom_bond_site_symmetry_2
Li0 O9 1.853763 1_555
Li0 O25 1.874676 1_455
Li0 O12 1.875725 1_545
Li0 O11 2.545226 1_545
Li1 O7 1.888195 1_555
Li1 O25 2.092343 1_455
Li1 O9 2.093862 1_555
Li1 O4 2.102253 1_555
Li2 O18 1.888195 1_555
Li2 O0 2.092343 1_655
Li2 O16 2.093862 1_555
Li2 O21 2.102253 1_555
Li3 O16 1.853763 1_555
Li3 O0 1.874676 1_655
Li3 O13 1.875725 1_565
Li3 O14 2.545226 1_565
Fe0 O25 2.116553 1_455
Fe0 O19 2.147023 1_455
Fe0 O1 2.156346 1_555
Fe0 O11 2.330026 1_545
Fe0 O24 2.377648 1_445
Fe0 O7 2.432502 1_555
Fe1 O16 2.050237 1_555
Fe1 O11 2.116641 1_555
Fe1 O6 2.167834 1_555
Fe1 O18 2.348373 1_555
Fe1 O1 2.371650 1_565
Fe2 O9 2.050237 1_555
Fe2 O14 2.116641 1_555
Fe2 O19 2.167834 1_555
Fe2 O7 2.348373 1_555
Fe2 O24 2.371650 1_545
Fe3 O0 2.116553 1_655
Fe3 O6 2.147023 1_655
Fe3 O24 2.156346 1_555
Fe3 O14 2.330026 1_565
Fe3 O1 2.377648 1_665
Fe3 O18 2.432502 1_555
O0 Si1 1.608543 1_555
O1 Si0 1.627097 1_555
O2 Si0 1.656576 1_555
O2 Si5 1.656870 1_554
O3 Si0 1.632215 1_555
O3 Si2 1.661085 1_555
O4 Si3 1.641226 1_555
O4 Si9 1.656876 1_455
O5 Si1 1.602352 1_555
O5 Si4 1.607867 1_555
O6 Si2 1.629745 1_555
O7 Si2 1.627994 1_555
O8 Si6 1.620700 1_555
O8 Si2 1.668907 1_555
O9 Si5 1.613290 1_555
O10 Si1 1.644272 1_556
O10 Si5 1.654536 1_555
O11 Si3 1.624757 1_555
O12 Si3 1.680116 1_555
O12 Si1 1.681141 1_556
O13 Si6 1.680116 1_555
O13 Si8 1.681141 1_554
O14 Si6 1.624757 1_555
O15 Si8 1.644272 1_554
O15 Si4 1.654536 1_555
O16 Si4 1.613290 1_555
O17 Si3 1.620700 1_555
O17 Si7 1.668907 1_555
O18 Si7 1.627994 1_555
O19 Si7 1.629745 1_555
O20 Si8 1.602352 1_555
O20 Si5 1.607867 1_555
O21 Si6 1.641226 1_555
O21 Si0 1.656876 1_655
O22 Si9 1.632215 1_555
O22 Si7 1.661085 1_555
O23 Si9 1.656576 1_555
O23 Si4 1.656870 1_556
O24 Si9 1.627097 1_555
O25 Si8 1.608543 1_555
