# generated using pymatgen
data_Li2Cr(Si2O5)2
_symmetry_space_group_name_H-M   'P 1'
_cell_length_a   7.71906600
_cell_length_b   11.15650200
_cell_length_c   11.22045559
_cell_angle_alpha   68.65075432
_cell_angle_beta   90.00000000
_cell_angle_gamma   90.00000000
_symmetry_Int_Tables_number   1
_chemical_formula_structural   Li2Cr(Si2O5)2
_chemical_formula_sum   'Li8 Cr4 Si16 O40'
_cell_volume   899.97320760
_cell_formula_units_Z   4
loop_
 _symmetry_equiv_pos_site_id
 _symmetry_equiv_pos_as_xyz
  1  'x, y, z'
loop_
 _atom_site_type_symbol
 _atom_site_label
 _atom_site_symmetry_multiplicity
 _atom_site_fract_x
 _atom_site_fract_y
 _atom_site_fract_z
 _atom_site_occupancy
  Li  Li0  1  0.75000000  0.91157200  0.39407900  1
  Li  Li1  1  0.75000000  0.97540600  0.10290900  1
  Li  Li2  1  0.75000000  0.63794200  0.86813200  1
  Li  Li3  1  0.75000000  0.61896600  0.45967000  1
  Li  Li4  1  0.25000000  0.38103400  0.54033000  1
  Li  Li5  1  0.25000000  0.36205800  0.13186800  1
  Li  Li6  1  0.25000000  0.02459400  0.89709100  1
  Li  Li7  1  0.25000000  0.08842800  0.60592100  1
  Cr  Cr0  1  0.98296300  0.78895800  0.27946300  1
  Cr  Cr1  1  0.51703700  0.78895800  0.27946300  1
  Cr  Cr2  1  0.48296300  0.21104200  0.72053700  1
  Cr  Cr3  1  0.01703700  0.21104200  0.72053700  1
  Si  Si0  1  0.54869800  0.90996800  0.74139700  1
  Si  Si1  1  0.95130200  0.90996800  0.74139700  1
  Si  Si2  1  0.04594200  0.73937700  0.58947200  1
  Si  Si3  1  0.45405800  0.73937700  0.58947200  1
  Si  Si4  1  0.44989200  0.75806000  0.01026900  1
  Si  Si5  1  0.05010800  0.75806000  0.01026900  1
  Si  Si6  1  0.44772800  0.47040000  0.77547300  1
  Si  Si7  1  0.05227200  0.47040000  0.77547300  1
  Si  Si8  1  0.94772800  0.52960000  0.22452700  1
  Si  Si9  1  0.55227200  0.52960000  0.22452700  1
  Si  Si10  1  0.94989200  0.24194000  0.98973100  1
  Si  Si11  1  0.55010800  0.24194000  0.98973100  1
  Si  Si12  1  0.95405800  0.26062300  0.41052800  1
  Si  Si13  1  0.54594200  0.26062300  0.41052800  1
  Si  Si14  1  0.45130200  0.09003200  0.25860300  1
  Si  Si15  1  0.04869800  0.09003200  0.25860300  1
  O  O0  1  0.75000000  0.95298200  0.70103600  1
  O  O1  1  0.94276500  0.77875500  0.87512900  1
  O  O2  1  0.55723500  0.77875500  0.87512900  1
  O  O3  1  0.25000000  0.80943300  0.96661500  1
  O  O4  1  0.46417000  0.86780000  0.62824900  1
  O  O5  1  0.03583000  0.86780000  0.62824900  1
  O  O6  1  0.93423900  0.97698000  0.24383700  1
  O  O7  1  0.56576100  0.97698000  0.24383700  1
  O  O8  1  0.25000000  0.71218600  0.56592000  1
  O  O9  1  0.92974300  0.75718300  0.46586900  1
  O  O10  1  0.57025700  0.75718300  0.46586900  1
  O  O11  1  0.96275400  0.83514100  0.08983100  1
  O  O12  1  0.53724600  0.83514100  0.08983100  1
  O  O13  1  0.52980400  0.61823400  0.71597400  1
  O  O14  1  0.97019600  0.61823400  0.71597400  1
  O  O15  1  0.25000000  0.48087300  0.82523000  1
  O  O16  1  0.94235500  0.39937800  0.90997500  1
  O  O17  1  0.55764500  0.39937800  0.90997500  1
  O  O18  1  0.95971700  0.59865000  0.32699700  1
  O  O19  1  0.54028300  0.59865000  0.32699700  1
  O  O20  1  0.45971700  0.40135000  0.67300300  1
  O  O21  1  0.04028300  0.40135000  0.67300300  1
  O  O22  1  0.44235500  0.60062200  0.09002500  1
  O  O23  1  0.05764500  0.60062200  0.09002500  1
  O  O24  1  0.75000000  0.51912700  0.17477000  1
  O  O25  1  0.47019600  0.38176600  0.28402600  1
  O  O26  1  0.02980400  0.38176600  0.28402600  1
  O  O27  1  0.03724600  0.16485900  0.91016900  1
  O  O28  1  0.46275400  0.16485900  0.91016900  1
  O  O29  1  0.42974300  0.24281700  0.53413100  1
  O  O30  1  0.07025700  0.24281700  0.53413100  1
  O  O31  1  0.75000000  0.28781400  0.43408000  1
  O  O32  1  0.43423900  0.02302000  0.75616300  1
  O  O33  1  0.06576100  0.02302000  0.75616300  1
  O  O34  1  0.96417000  0.13220000  0.37175100  1
  O  O35  1  0.53583000  0.13220000  0.37175100  1
  O  O36  1  0.75000000  0.19056700  0.03338500  1
  O  O37  1  0.44276500  0.22124500  0.12487100  1
  O  O38  1  0.05723500  0.22124500  0.12487100  1
  O  O39  1  0.25000000  0.04701800  0.29896400  1
loop_
_geom_bond_atom_site_label_1
_geom_bond_atom_site_label_2
_geom_bond_distance
_geom_bond_site_symmetry_2
Li0 O6 2.121603 1_555
Li0 O7 2.121603 1_555
Li0 O9 2.128488 1_555
Li0 O10 2.128488 1_555
Li1 O6 2.131544 1_555
Li1 O7 2.131544 1_555
Li1 O36 2.237689 1_565
Li1 O11 2.309667 1_555
Li1 O12 2.309667 1_555
Li2 O1 2.185861 1_555
Li2 O2 2.185861 1_555
Li2 O14 2.474971 1_555
Li2 O13 2.474971 1_555
Li3 O9 2.094222 1_555
Li3 O10 2.094222 1_555
Li3 O18 2.265768 1_555
Li3 O19 2.265768 1_555
Li4 O29 2.094222 1_555
Li4 O30 2.094222 1_555
Li4 O21 2.265768 1_555
Li4 O20 2.265768 1_555
Li5 O37 2.185861 1_555
Li5 O38 2.185861 1_555
Li5 O25 2.474971 1_555
Li5 O26 2.474971 1_555
Li6 O32 2.131544 1_555
Li6 O33 2.131544 1_555
Li6 O3 2.237689 1_545
Li6 O28 2.309667 1_555
Li6 O27 2.309667 1_555
Li7 O32 2.121603 1_555
Li7 O33 2.121603 1_555
Li7 O29 2.128488 1_555
Li7 O30 2.128488 1_555
Cr0 O18 2.000004 1_555
Cr0 O11 2.004728 1_555
Cr0 O6 2.022604 1_555
Cr0 O9 2.032044 1_555
Cr1 O19 2.000004 1_555
Cr1 O12 2.004728 1_555
Cr1 O7 2.022604 1_555
Cr1 O10 2.032044 1_555
Cr2 O20 2.000004 1_555
Cr2 O28 2.004728 1_555
Cr2 O32 2.022604 1_555
Cr2 O29 2.032044 1_555
Cr3 O21 2.000004 1_555
Cr3 O27 2.004728 1_555
Cr3 O33 2.022604 1_555
Cr3 O30 2.032044 1_555
O0 Si0 1.640621 1_555
O0 Si1 1.640621 1_555
O1 Si5 1.668599 1_656
O1 Si1 1.673180 1_555
O2 Si4 1.668599 1_556
O2 Si0 1.673180 1_555
O3 Si4 1.656742 1_556
O3 Si5 1.656742 1_556
O4 Si0 1.641260 1_555
O4 Si3 1.643796 1_555
O5 Si1 1.641260 1_455
O5 Si2 1.643796 1_555
O6 Si15 1.597182 1_665
O7 Si14 1.597182 1_565
O8 Si3 1.643559 1_555
O8 Si2 1.643559 1_555
O9 Si2 1.602130 1_655
O10 Si3 1.602130 1_555
O11 Si5 1.596906 1_655
O12 Si4 1.596906 1_555
O13 Si6 1.663009 1_555
O13 Si3 1.669265 1_555
O14 Si7 1.663009 1_655
O14 Si2 1.669265 1_655
O15 Si6 1.643886 1_555
O15 Si7 1.643886 1_555
O16 Si10 1.656774 1_555
O16 Si7 1.659712 1_655
O17 Si11 1.656774 1_555
O17 Si6 1.659712 1_555
O18 Si8 1.602767 1_555
O19 Si9 1.602767 1_555
O20 Si6 1.602767 1_555
O21 Si7 1.602767 1_555
O22 Si4 1.656774 1_555
O22 Si9 1.659712 1_555
O23 Si5 1.656774 1_555
O23 Si8 1.659712 1_455
O24 Si8 1.643886 1_555
O24 Si9 1.643886 1_555
O25 Si9 1.663009 1_555
O25 Si13 1.669265 1_555
O26 Si8 1.663009 1_455
O26 Si12 1.669265 1_455
O27 Si10 1.596906 1_455
O28 Si11 1.596906 1_555
O29 Si13 1.602130 1_555
O30 Si12 1.602130 1_455
O31 Si12 1.643559 1_555
O31 Si13 1.643559 1_555
O32 Si0 1.597182 1_545
O33 Si1 1.597182 1_445
O34 Si15 1.641260 1_655
O34 Si12 1.643796 1_555
O35 Si14 1.641260 1_555
O35 Si13 1.643796 1_555
O36 Si10 1.656742 1_554
O36 Si11 1.656742 1_554
O37 Si11 1.668599 1_554
O37 Si14 1.673180 1_555
O38 Si10 1.668599 1_454
O38 Si15 1.673180 1_555
O39 Si14 1.640621 1_555
O39 Si15 1.640621 1_555
