# generated using pymatgen
data_Hg(TeO3)2
_symmetry_space_group_name_H-M   'P 1'
_cell_length_a   12.80491700
_cell_length_b   6.57290700
_cell_length_c   8.67069507
_cell_angle_alpha   60.45667328
_cell_angle_beta   90.00000000
_cell_angle_gamma   90.00000000
_symmetry_Int_Tables_number   1
_chemical_formula_structural   Hg(TeO3)2
_chemical_formula_sum   'Hg4 Te8 O24'
_cell_volume   634.89071337
_cell_formula_units_Z   4
loop_
 _symmetry_equiv_pos_site_id
 _symmetry_equiv_pos_as_xyz
  1  'x, y, z'
loop_
 _atom_site_type_symbol
 _atom_site_label
 _atom_site_symmetry_multiplicity
 _atom_site_fract_x
 _atom_site_fract_y
 _atom_site_fract_z
 _atom_site_occupancy
  Hg  Hg0  1  0.90752800  0.32539100  0.75371700  1
  Hg  Hg1  1  0.40752800  0.67460900  0.74628300  1
  Hg  Hg2  1  0.59247200  0.32539100  0.25371700  1
  Hg  Hg3  1  0.09247200  0.67460900  0.24628300  1
  Te  Te0  1  0.12022000  0.66056600  0.66428800  1
  Te  Te1  1  0.62022000  0.33943400  0.83571200  1
  Te  Te2  1  0.20597900  0.12622500  0.78100500  1
  Te  Te3  1  0.70597900  0.87377500  0.71899500  1
  Te  Te4  1  0.29402100  0.12622500  0.28100500  1
  Te  Te5  1  0.79402100  0.87377500  0.21899500  1
  Te  Te6  1  0.37978000  0.66056600  0.16428800  1
  Te  Te7  1  0.87978000  0.33943400  0.33571200  1
  O  O0  1  0.09491300  0.36875500  0.64160900  1
  O  O1  1  0.48390800  0.36368600  0.75166100  1
  O  O2  1  0.85008100  0.17265700  0.58032900  1
  O  O3  1  0.73302100  0.51297300  0.69018500  1
  O  O4  1  0.23302100  0.48702700  0.80981500  1
  O  O5  1  0.62740000  0.99925500  0.51330900  1
  O  O6  1  0.98390800  0.63631400  0.74833900  1
  O  O7  1  0.14817700  0.94579600  0.67277600  1
  O  O8  1  0.64817700  0.05420400  0.82722400  1
  O  O9  1  0.40508700  0.36875500  0.14160900  1
  O  O10  1  0.12740000  0.00074500  0.98669100  1
  O  O11  1  0.64991900  0.17265700  0.08032900  1
  O  O12  1  0.35008100  0.82734300  0.91967100  1
  O  O13  1  0.87260000  0.99925500  0.01330900  1
  O  O14  1  0.59491300  0.63124500  0.85839100  1
  O  O15  1  0.35182300  0.94579600  0.17277600  1
  O  O16  1  0.85182300  0.05420400  0.32722400  1
  O  O17  1  0.01609200  0.36368600  0.25166100  1
  O  O18  1  0.37260000  0.00074500  0.48669100  1
  O  O19  1  0.76697900  0.51297300  0.19018500  1
  O  O20  1  0.26697900  0.48702700  0.30981500  1
  O  O21  1  0.14991900  0.82734300  0.41967100  1
  O  O22  1  0.51609200  0.63631400  0.24833900  1
  O  O23  1  0.90508700  0.63124500  0.35839100  1
loop_
_geom_bond_atom_site_label_1
_geom_bond_atom_site_label_2
_geom_bond_distance
_geom_bond_site_symmetry_2
Hg0 O6 2.245292 1_555
Hg0 O13 2.259055 1_546
Hg0 O2 2.301634 1_555
Hg0 O3 2.479324 1_555
Hg0 O0 2.551521 1_655
Hg1 O1 2.245292 1_555
Hg1 O18 2.259055 1_565
Hg1 O12 2.301634 1_555
Hg1 O4 2.479324 1_555
Hg1 O14 2.551521 1_555
Hg2 O22 2.245292 1_555
Hg2 O5 2.259055 1_545
Hg2 O11 2.301634 1_555
Hg2 O19 2.479324 1_555
Hg2 O9 2.551521 1_555
Hg3 O17 2.245292 1_555
Hg3 O10 2.259055 1_564
Hg3 O21 2.301634 1_555
Hg3 O20 2.479324 1_555
Hg3 O23 2.551521 1_455
O0 Te2 2.030919 1_555
O0 Te0 2.048056 1_555
O1 Te1 1.867782 1_555
O2 Te7 1.884688 1_555
O2 Te3 2.525954 1_545
O3 Te1 1.886852 1_555
O3 Te3 2.527967 1_555
O4 Te0 1.886852 1_555
O4 Te2 2.527967 1_555
O5 Te3 1.850071 1_555
O6 Te0 1.867782 1_655
O7 Te0 1.945374 1_555
O7 Te2 1.983036 1_565
O8 Te1 1.945374 1_555
O8 Te3 1.983036 1_545
O9 Te4 2.030919 1_555
O9 Te6 2.048056 1_555
O10 Te2 1.850071 1_555
O11 Te1 1.884688 1_554
O11 Te5 2.525954 1_545
O12 Te6 1.884688 1_556
O12 Te2 2.525954 1_565
O13 Te5 1.850071 1_555
O14 Te3 2.030919 1_555
O14 Te1 2.048056 1_555
O15 Te6 1.945374 1_555
O15 Te4 1.983036 1_565
O16 Te7 1.945374 1_555
O16 Te5 1.983036 1_545
O17 Te7 1.867782 1_455
O18 Te4 1.850071 1_555
O19 Te7 1.886852 1_555
O19 Te5 2.527967 1_555
O20 Te6 1.886852 1_555
O20 Te4 2.527967 1_555
O21 Te0 1.884688 1_555
O21 Te4 2.525954 1_565
O22 Te6 1.867782 1_555
O23 Te5 2.030919 1_555
O23 Te7 2.048056 1_555
