# generated using pymatgen
data_Li7Mn11(Si3O16)2
_symmetry_space_group_name_H-M   'P 1'
_cell_length_a   8.25579500
_cell_length_b   8.26268002
_cell_length_c   8.30604633
_cell_angle_alpha   91.30303143
_cell_angle_beta   90.71150704
_cell_angle_gamma   89.99644965
_symmetry_Int_Tables_number   1
_chemical_formula_structural   Li7Mn11(Si3O16)2
_chemical_formula_sum   'Li7 Mn11 Si6 O32'
_cell_volume   566.40667996
_cell_formula_units_Z   1
loop_
 _symmetry_equiv_pos_site_id
 _symmetry_equiv_pos_as_xyz
  1  'x, y, z'
loop_
 _atom_site_type_symbol
 _atom_site_label
 _atom_site_symmetry_multiplicity
 _atom_site_fract_x
 _atom_site_fract_y
 _atom_site_fract_z
 _atom_site_occupancy
  Li  Li0  1  0.37584000  0.12991600  0.88102000  1
  Li  Li1  1  0.74878700  0.25316000  0.75613800  1
  Li  Li2  1  0.24408300  0.24859600  0.24693200  1
  Li  Li3  1  0.87620600  0.37586900  0.12522500  1
  Li  Li4  1  0.62735600  0.61905800  0.62206300  1
  Li  Li5  1  0.75722800  0.74353100  0.25431800  1
  Li  Li6  1  0.12062700  0.87677000  0.36780400  1
  Mn  Mn0  1  0.49197500  0.00114400  0.50318600  1
  Mn  Mn1  1  0.37121100  0.37259200  0.61971900  1
  Mn  Mn2  1  0.99533900  0.50325700  0.48384100  1
  Mn  Mn3  1  0.50995800  0.48496900  0.99738200  1
  Mn  Mn4  1  0.88308500  0.62529200  0.87635700  1
  Mn  Mn5  1  0.38448900  0.61057500  0.36507500  1
  Mn  Mn6  1  0.25097300  0.75868900  0.74390700  1
  Mn  Mn7  1  0.87192200  0.88723400  0.62494800  1
  Mn  Mn8  1  0.63208000  0.88229900  0.88655500  1
  Mn  Mn9  1  0.37893900  0.87300700  0.12575700  1
  Mn  Mn10  1  0.00700800  0.01548700  0.01186300  1
  Si  Si0  1  0.11302600  0.13563800  0.61927700  1
  Si  Si1  1  0.87199300  0.12736200  0.38197600  1
  Si  Si2  1  0.62266500  0.12119700  0.13486700  1
  Si  Si3  1  0.12307400  0.37517700  0.87499400  1
  Si  Si4  1  0.62116900  0.36881000  0.38059900  1
  Si  Si5  1  0.13027100  0.61691600  0.11811100  1
  O  O0  1  0.40564400  0.10226300  0.13936600  1
  O  O1  1  0.88731500  0.12608700  0.61016300  1
  O  O2  1  0.63719100  0.11569600  0.92319200  1
  O  O3  1  0.08425600  0.14425000  0.40184000  1
  O  O4  1  0.84807000  0.11996200  0.16893500  1
  O  O5  1  0.32562000  0.13940500  0.61970500  1
  O  O6  1  0.63907300  0.13691700  0.36310300  1
  O  O7  1  0.11224400  0.16245400  0.84551000  1
  O  O8  1  0.61962600  0.33412500  0.15856200  1
  O  O9  1  0.12719100  0.36070900  0.64260300  1
  O  O10  1  0.83485700  0.34246800  0.38661200  1
  O  O11  1  0.34136200  0.37382000  0.85008600  1
  O  O12  1  0.59995600  0.35837900  0.59733900  1
  O  O13  1  0.13640300  0.39683400  0.08501000  1
  O  O14  1  0.39819300  0.37128700  0.38269500  1
  O  O15  1  0.90744600  0.39871000  0.86647200  1
  O  O16  1  0.62242600  0.57755300  0.36668500  1
  O  O17  1  0.12096200  0.60498100  0.88623400  1
  O  O18  1  0.37493500  0.59866800  0.61430900  1
  O  O19  1  0.91821000  0.62830800  0.10633000  1
  O  O20  1  0.14013200  0.61351500  0.32689700  1
  O  O21  1  0.65185100  0.64356300  0.87982300  1
  O  O22  1  0.34886700  0.63509900  0.10846600  1
  O  O23  1  0.88150100  0.65645100  0.63835100  1
  O  O24  1  0.37568400  0.84596800  0.35452000  1
  O  O25  1  0.86959500  0.86777400  0.86476400  1
  O  O26  1  0.14808100  0.84376400  0.11618500  1
  O  O27  1  0.64123800  0.88158000  0.65366900  1
  O  O28  1  0.40149200  0.88345100  0.89263900  1
  O  O29  1  0.86521000  0.91196300  0.39888200  1
  O  O30  1  0.62039300  0.89662400  0.12350500  1
  O  O31  1  0.10569300  0.92082800  0.62565500  1
loop_
_geom_bond_atom_site_label_1
_geom_bond_atom_site_label_2
_geom_bond_distance
_geom_bond_site_symmetry_2
Li0 O28 2.051759 1_545
Li0 O11 2.056730 1_555
Li0 O0 2.174059 1_556
Li0 O2 2.185194 1_555
Li0 O5 2.207822 1_555
Li0 O7 2.209681 1_555
Li1 O1 1.963890 1_555
Li1 O15 1.980446 1_555
Li1 O12 2.004270 1_555
Li1 O2 2.041515 1_555
Li2 O14 1.957189 1_555
Li2 O0 2.004870 1_555
Li2 O13 2.035796 1_555
Li2 O3 2.057356 1_555
Li3 O19 2.124116 1_555
Li3 O4 2.166530 1_555
Li3 O8 2.168345 1_555
Li3 O15 2.180247 1_554
Li3 O13 2.185533 1_655
Li3 O10 2.225311 1_555
Li4 O18 2.090822 1_555
Li4 O23 2.123018 1_555
Li4 O16 2.140899 1_555
Li4 O21 2.152944 1_555
Li4 O12 2.170587 1_555
Li4 O27 2.181876 1_555
Li5 O29 2.017657 1_555
Li5 O16 2.018574 1_555
Li5 O30 2.022057 1_555
Li5 O19 2.042265 1_555
Li6 O26 2.116485 1_555
Li6 O24 2.124933 1_555
Li6 O29 2.146558 1_455
Li6 O31 2.169284 1_555
Li6 O20 2.200123 1_555
Li6 O3 2.242375 1_565
Mn0 O24 1.997298 1_545
Mn0 O27 2.018555 1_545
Mn0 O5 2.027435 1_555
Mn0 O6 2.044941 1_555
Mn1 O18 1.869819 1_555
Mn1 O12 1.903253 1_555
Mn1 O11 1.932073 1_555
Mn1 O5 1.963189 1_555
Mn1 O14 1.983827 1_555
Mn1 O9 2.028468 1_555
Mn2 O20 2.012731 1_655
Mn2 O23 2.021993 1_555
Mn2 O10 2.024219 1_555
Mn2 O9 2.084698 1_655
Mn3 O21 2.032166 1_555
Mn3 O22 2.033972 1_556
Mn3 O11 2.045579 1_555
Mn3 O8 2.052107 1_556
Mn4 O15 1.882976 1_555
Mn4 O21 1.915492 1_555
Mn4 O19 1.928089 1_556
Mn4 O17 1.971862 1_655
Mn4 O23 1.999262 1_555
Mn4 O25 2.011063 1_555
Mn5 O24 1.950253 1_555
Mn5 O16 1.983124 1_555
Mn5 O14 1.988995 1_555
Mn5 O20 2.038468 1_555
Mn5 O18 2.077195 1_555
Mn5 O22 2.162061 1_555
Mn6 O18 1.979084 1_555
Mn6 O28 2.009264 1_555
Mn6 O31 2.056329 1_555
Mn6 O17 2.064600 1_555
Mn7 O29 1.893541 1_555
Mn7 O23 1.914231 1_555
Mn7 O27 1.923002 1_555
Mn7 O31 1.949759 1_655
Mn7 O1 1.984347 1_565
Mn7 O25 2.002373 1_555
Mn8 O28 1.905003 1_555
Mn8 O27 1.936651 1_555
Mn8 O2 1.945877 1_565
Mn8 O30 1.972543 1_556
Mn8 O25 1.974840 1_555
Mn8 O21 1.978911 1_555
Mn9 O0 1.907704 1_565
Mn9 O24 1.918763 1_555
Mn9 O26 1.921625 1_555
Mn9 O28 1.951380 1_554
Mn9 O22 1.983129 1_555
Mn9 O30 2.003295 1_555
Mn10 O26 2.037446 1_545
Mn10 O4 2.039660 1_455
Mn10 O25 2.041413 1_444
Mn10 O7 2.060316 1_554
O0 Si2 1.799432 1_555
O1 Si0 1.865623 1_655
O1 Si1 1.898249 1_555
O2 Si2 1.763308 1_556
O3 Si1 1.763349 1_455
O3 Si0 1.821663 1_555
O4 Si1 1.777745 1_555
O4 Si2 1.878874 1_555
O5 Si0 1.755368 1_555
O6 Si2 1.900387 1_555
O6 Si4 1.924079 1_555
O6 Si1 1.929135 1_555
O7 Si3 1.771226 1_555
O7 Si0 1.887200 1_555
O8 Si2 1.766088 1_555
O8 Si4 1.859820 1_555
O9 Si0 1.868886 1_555
O9 Si3 1.931954 1_555
O10 Si4 1.777752 1_555
O10 Si1 1.803212 1_555
O11 Si3 1.816533 1_555
O12 Si4 1.814910 1_555
O13 Si3 1.751602 1_554
O13 Si5 1.833732 1_555
O14 Si4 1.841251 1_555
O15 Si3 1.791456 1_655
O16 Si4 1.731305 1_555
O17 Si3 1.899059 1_555
O17 Si5 1.926842 1_556
O19 Si5 1.754891 1_655
O20 Si5 1.735952 1_555
O22 Si5 1.813848 1_555
O26 Si5 1.880586 1_555
O29 Si1 1.789419 1_565
O30 Si2 1.855913 1_565
O31 Si0 1.777958 1_565
