# generated using pymatgen
data_CaY2O4
_symmetry_space_group_name_H-M   'P 1'
_cell_length_a   6.84896699
_cell_length_b   6.84896699
_cell_length_c   6.84896699
_cell_angle_alpha   60.00000000
_cell_angle_beta   60.00000000
_cell_angle_gamma   60.00000000
_symmetry_Int_Tables_number   1
_chemical_formula_structural   CaY2O4
_chemical_formula_sum   'Ca2 Y4 O8'
_cell_volume   227.17483462
_cell_formula_units_Z   2
loop_
 _symmetry_equiv_pos_site_id
 _symmetry_equiv_pos_as_xyz
  1  'x, y, z'
loop_
 _atom_site_type_symbol
 _atom_site_label
 _atom_site_symmetry_multiplicity
 _atom_site_fract_x
 _atom_site_fract_y
 _atom_site_fract_z
 _atom_site_occupancy
  Ca  Ca0  1  0.25000000  0.25000000  0.25000000  1
  Ca  Ca1  1  0.00000000  0.00000000  0.00000000  1
  Y  Y0  1  0.62500000  0.62500000  0.62500000  1
  Y  Y1  1  0.62500000  0.12500000  0.62500000  1
  Y  Y2  1  0.12500000  0.62500000  0.62500000  1
  Y  Y3  1  0.62500000  0.62500000  0.12500000  1
  O  O0  1  0.38765800  0.38765800  0.83702500  1
  O  O1  1  0.86234200  0.41297500  0.86234200  1
  O  O2  1  0.38765800  0.83702500  0.38765800  1
  O  O3  1  0.83702500  0.38765800  0.38765800  1
  O  O4  1  0.38765800  0.38765800  0.38765800  1
  O  O5  1  0.86234200  0.86234200  0.86234200  1
  O  O6  1  0.86234200  0.86234200  0.41297500  1
  O  O7  1  0.41297500  0.86234200  0.86234200  1
loop_
_geom_bond_atom_site_label_1
_geom_bond_atom_site_label_2
_geom_bond_distance
_geom_bond_site_symmetry_2
Ca0 O4 2.309416 1_555
Ca0 O2 2.309422 1_545
Ca0 O3 2.309422 1_455
Ca0 O0 2.309422 1_554
Ca1 O5 2.309416 1_444
Ca1 O1 2.309422 1_454
Ca1 O7 2.309422 1_544
Ca1 O6 2.309422 1_445
O0 Y2 2.305396 1_555
O0 Y1 2.305396 1_555
O0 Y0 2.305401 1_555
O1 Y2 2.305396 1_655
O1 Y3 2.305396 1_556
O1 Y0 2.305401 1_555
O2 Y3 2.305396 1_555
O2 Y2 2.305396 1_555
O2 Y0 2.305401 1_555
O3 Y3 2.305396 1_555
O3 Y1 2.305396 1_555
O3 Y0 2.305401 1_555
O4 Y3 2.305401 1_555
O4 Y2 2.305401 1_555
O4 Y1 2.305401 1_555
O5 Y3 2.305401 1_556
O5 Y1 2.305401 1_565
O5 Y2 2.305401 1_655
O6 Y1 2.305396 1_565
O6 Y2 2.305396 1_655
O6 Y0 2.305401 1_555
O7 Y1 2.305396 1_565
O7 Y3 2.305396 1_556
O7 Y0 2.305401 1_555
