# generated using pymatgen
data_Li5Mn6(BO3)6
_symmetry_space_group_name_H-M   'P 1'
_cell_length_a   9.14852068
_cell_length_b   9.14852068
_cell_length_c   11.85011344
_cell_angle_alpha   65.67008654
_cell_angle_beta   65.67008654
_cell_angle_gamma   59.92119950
_symmetry_Int_Tables_number   1
_chemical_formula_structural   Li5Mn6(BO3)6
_chemical_formula_sum   'Li10 Mn12 B12 O36'
_cell_volume   754.99155036
_cell_formula_units_Z   2
loop_
 _symmetry_equiv_pos_site_id
 _symmetry_equiv_pos_as_xyz
  1  'x, y, z'
loop_
 _atom_site_type_symbol
 _atom_site_label
 _atom_site_symmetry_multiplicity
 _atom_site_fract_x
 _atom_site_fract_y
 _atom_site_fract_z
 _atom_site_occupancy
  Li  Li0  1  0.90405500  0.37596900  0.66581800  1
  Li  Li1  1  0.91287300  0.41595900  0.91335500  1
  Li  Li2  1  0.23330900  0.71154500  0.67041300  1
  Li  Li3  1  0.41595900  0.91287300  0.41335500  1
  Li  Li4  1  0.24002500  0.75328500  0.91458900  1
  Li  Li5  1  0.57911000  0.03766600  0.66448200  1
  Li  Li6  1  0.71154500  0.23330900  0.17041300  1
  Li  Li7  1  0.75328500  0.24002500  0.41458900  1
  Li  Li8  1  0.03766600  0.57911000  0.16448200  1
  Li  Li9  1  0.37596900  0.90405500  0.16581800  1
  Mn  Mn0  1  0.90522100  0.77386000  0.88151300  1
  Mn  Mn1  1  0.56732600  0.39527600  0.63466400  1
  Mn  Mn2  1  0.59518600  0.40699500  0.88618100  1
  Mn  Mn3  1  0.72106600  0.91807200  0.12775200  1
  Mn  Mn4  1  0.91807200  0.72106600  0.62775200  1
  Mn  Mn5  1  0.77386000  0.90522100  0.38151300  1
  Mn  Mn6  1  0.24797600  0.06260900  0.63360800  1
  Mn  Mn7  1  0.09628200  0.27630000  0.38376400  1
  Mn  Mn8  1  0.27630000  0.09628200  0.88376400  1
  Mn  Mn9  1  0.39527600  0.56732600  0.13466400  1
  Mn  Mn10  1  0.40699500  0.59518600  0.38618100  1
  Mn  Mn11  1  0.06260900  0.24797600  0.13360800  1
  B  B0  1  0.90578800  0.06647300  0.62676500  1
  B  B1  1  0.94533500  0.09055100  0.87721300  1
  B  B2  1  0.74906700  0.60114400  0.37262100  1
  B  B3  1  0.25594700  0.43659300  0.87656000  1
  B  B4  1  0.57602500  0.72383000  0.62590800  1
  B  B5  1  0.60114400  0.74906700  0.87262100  1
  B  B6  1  0.39242800  0.23939400  0.13247200  1
  B  B7  1  0.43659300  0.25594700  0.37656000  1
  B  B8  1  0.72383000  0.57602500  0.12590800  1
  B  B9  1  0.23939400  0.39242800  0.63247200  1
  B  B10  1  0.06647300  0.90578800  0.12676500  1
  B  B11  1  0.09055100  0.94533500  0.37721300  1
  O  O0  1  0.98189100  0.88368300  0.67668100  1
  O  O1  1  0.84845800  0.98908400  0.92900500  1
  O  O2  1  0.00134200  0.16593000  0.59435700  1
  O  O3  1  0.86269100  0.26857200  0.86299700  1
  O  O4  1  0.43681200  0.35227400  0.83778800  1
  O  O5  1  0.65073900  0.49997300  0.42292100  1
  O  O6  1  0.92506600  0.52766500  0.35208800  1
  O  O7  1  0.82640100  0.67142300  0.08734500  1
  O  O8  1  0.65752900  0.54227900  0.66992100  1
  O  O9  1  0.66401700  0.78619200  0.33963100  1
  O  O10  1  0.17649500  0.61483200  0.86299000  1
  O  O11  1  0.78619200  0.66401700  0.83963100  1
  O  O12  1  0.49997300  0.65073900  0.92292100  1
  O  O13  1  0.40629200  0.80512400  0.61524000  1
  O  O14  1  0.67142300  0.82640100  0.58734500  1
  O  O15  1  0.88368300  0.98189100  0.17668100  1
  O  O16  1  0.46241500  0.06755500  0.13609700  1
  O  O17  1  0.00753800  0.12929900  0.33971600  1
  O  O18  1  0.52766500  0.92506600  0.85208800  1
  O  O19  1  0.12929900  0.00753800  0.83971600  1
  O  O20  1  0.33897700  0.15684400  0.42313100  1
  O  O21  1  0.61483200  0.17649500  0.36299000  1
  O  O22  1  0.50395700  0.32477600  0.09432600  1
  O  O23  1  0.74182600  0.14601000  0.60747400  1
  O  O24  1  0.21140400  0.33506000  0.16727500  1
  O  O25  1  0.80512400  0.40629200  0.11524000  1
  O  O26  1  0.33506000  0.21140400  0.66727500  1
  O  O27  1  0.35227400  0.43681200  0.33778800  1
  O  O28  1  0.15684400  0.33897700  0.92313100  1
  O  O29  1  0.06755500  0.46241500  0.63609700  1
  O  O30  1  0.32477600  0.50395700  0.59432600  1
  O  O31  1  0.54227900  0.65752900  0.16992100  1
  O  O32  1  0.14601000  0.74182600  0.10747400  1
  O  O33  1  0.98908400  0.84845800  0.42900500  1
  O  O34  1  0.26857200  0.86269100  0.36299700  1
  O  O35  1  0.16593000  0.00134200  0.09435700  1
loop_
_geom_bond_atom_site_label_1
_geom_bond_atom_site_label_2
_geom_bond_distance
_geom_bond_site_symmetry_2
Li0 O29 1.873241 1_655
Li0 O8 1.983641 1_555
Li0 O2 2.051108 1_655
Li0 O3 2.078625 1_555
Li1 O11 1.954669 1_555
Li1 O3 1.973380 1_555
Li1 O28 2.015265 1_655
Li1 O25 2.161665 1_556
Li2 O13 1.925905 1_555
Li2 O10 2.020072 1_555
Li2 O0 2.025037 1_455
Li2 O30 2.077531 1_555
Li3 O9 1.954669 1_555
Li3 O34 1.973380 1_555
Li3 O20 2.015265 1_565
Li3 O13 2.161665 1_555
Li4 O19 1.975351 1_565
Li4 O10 1.996241 1_555
Li4 O32 2.061134 1_556
Li4 O12 2.103857 1_555
Li5 O23 1.937378 1_555
Li5 O26 1.984345 1_555
Li5 O18 1.990449 1_545
Li5 O14 2.113724 1_545
Li6 O25 1.925905 1_555
Li6 O21 2.020072 1_555
Li6 O15 2.025037 1_545
Li6 O22 2.077531 1_555
Li7 O17 1.975351 1_655
Li7 O21 1.996241 1_555
Li7 O23 2.061134 1_555
Li7 O5 2.103857 1_555
Li8 O32 1.937378 1_555
Li8 O24 1.984345 1_555
Li8 O6 1.990449 1_455
Li8 O7 2.113724 1_455
Li9 O16 1.873241 1_565
Li9 O31 1.983641 1_555
Li9 O35 2.051108 1_565
Li9 O34 2.078625 1_555
Mn0 O1 2.027465 1_555
Mn0 O11 2.096446 1_555
Mn0 O10 2.125790 1_655
Mn0 O0 2.164999 1_555
Mn0 O7 2.166157 1_556
Mn1 O23 2.094060 1_555
Mn1 O30 2.100422 1_555
Mn1 O8 2.126904 1_555
Mn1 O4 2.167192 1_555
Mn1 O5 2.229428 1_555
Mn2 O3 2.072309 1_555
Mn2 O4 2.080144 1_555
Mn2 O12 2.112157 1_555
Mn2 O22 2.179561 1_556
Mn2 O8 2.305277 1_555
Mn3 O16 2.038171 1_565
Mn3 O1 2.136279 1_554
Mn3 O7 2.140096 1_555
Mn3 O15 2.179608 1_555
Mn3 O9 2.255545 1_555
Mn4 O29 2.038171 1_655
Mn4 O33 2.136279 1_555
Mn4 O14 2.140096 1_555
Mn4 O0 2.179608 1_555
Mn4 O11 2.255545 1_555
Mn5 O33 2.027465 1_555
Mn5 O9 2.096446 1_555
Mn5 O21 2.125790 1_565
Mn5 O15 2.164999 1_555
Mn5 O14 2.166157 1_555
Mn6 O13 2.106378 1_545
Mn6 O26 2.107928 1_555
Mn6 O2 2.136705 1_555
Mn6 O19 2.178836 1_555
Mn6 O20 2.212228 1_555
Mn7 O6 2.011279 1_455
Mn7 O20 2.083945 1_555
Mn7 O17 2.182256 1_555
Mn7 O2 2.240205 1_555
Mn7 O24 2.276938 1_555
Mn8 O18 2.011279 1_545
Mn8 O28 2.083945 1_555
Mn8 O19 2.182256 1_555
Mn8 O35 2.240205 1_556
Mn8 O26 2.276938 1_555
Mn9 O32 2.094060 1_555
Mn9 O22 2.100422 1_555
Mn9 O31 2.126904 1_555
Mn9 O27 2.167192 1_555
Mn9 O12 2.229428 1_554
Mn10 O34 2.072309 1_555
Mn10 O27 2.080144 1_555
Mn10 O5 2.112157 1_555
Mn10 O30 2.179561 1_555
Mn10 O31 2.305277 1_555
Mn11 O25 2.106378 1_455
Mn11 O24 2.107928 1_555
Mn11 O35 2.136705 1_555
Mn11 O17 2.178836 1_555
Mn11 O28 2.212228 1_554
B0 O23 1.372285 1_555
B0 O2 1.404389 1_655
B0 O0 1.410074 1_545
B1 O3 1.377332 1_555
B1 O1 1.389566 1_545
B1 O19 1.409735 1_655
B2 O6 1.353005 1_555
B2 O5 1.399766 1_555
B2 O9 1.417446 1_555
B3 O10 1.380329 1_555
B3 O28 1.384673 1_555
B3 O4 1.389315 1_555
B4 O13 1.380935 1_555
B4 O8 1.397112 1_555
B4 O14 1.410681 1_555
B5 O18 1.353005 1_555
B5 O12 1.399766 1_555
B5 O11 1.417446 1_555
B6 O16 1.356935 1_555
B6 O24 1.400178 1_555
B6 O22 1.408354 1_555
B7 O21 1.380329 1_555
B7 O20 1.384673 1_555
B7 O27 1.389315 1_555
B8 O25 1.380935 1_555
B8 O31 1.397112 1_555
B8 O7 1.410681 1_555
B9 O29 1.356935 1_555
B9 O26 1.400178 1_555
B9 O30 1.408354 1_555
B10 O32 1.372285 1_555
B10 O35 1.404389 1_565
B10 O15 1.410074 1_455
B11 O34 1.377332 1_555
B11 O33 1.389566 1_455
B11 O17 1.409735 1_565
