# generated using pymatgen
data_NaBeSi3O8
_symmetry_space_group_name_H-M   'P 1'
_cell_length_a   7.40085000
_cell_length_b   12.83033200
_cell_length_c   13.80152200
_cell_angle_alpha   90.00000000
_cell_angle_beta   90.00000000
_cell_angle_gamma   90.00000000
_symmetry_Int_Tables_number   1
_chemical_formula_structural   NaBeSi3O8
_chemical_formula_sum   'Na8 Be8 Si24 O64'
_cell_volume   1310.52852570
_cell_formula_units_Z   8
loop_
 _symmetry_equiv_pos_site_id
 _symmetry_equiv_pos_as_xyz
  1  'x, y, z'
loop_
 _atom_site_type_symbol
 _atom_site_label
 _atom_site_symmetry_multiplicity
 _atom_site_fract_x
 _atom_site_fract_y
 _atom_site_fract_z
 _atom_site_occupancy
  Na  Na0  1  0.99859600  0.60230200  0.06938900  1
  Na  Na1  1  0.50140400  0.10230200  0.43061100  1
  Na  Na2  1  0.00140400  0.39769800  0.56938900  1
  Na  Na3  1  0.49859600  0.89769800  0.93061100  1
  Na  Na4  1  0.00140400  0.39769800  0.93061100  1
  Na  Na5  1  0.49859600  0.89769800  0.56938900  1
  Na  Na6  1  0.99859600  0.60230200  0.43061100  1
  Na  Na7  1  0.50140400  0.10230200  0.06938900  1
  Be  Be0  1  0.15752700  0.99493500  0.99985800  1
  Be  Be1  1  0.34247300  0.49493500  0.50014200  1
  Be  Be2  1  0.84247300  0.00506500  0.49985800  1
  Be  Be3  1  0.65752700  0.50506500  0.00014200  1
  Be  Be4  1  0.84247300  0.00506500  0.00014200  1
  Be  Be5  1  0.65752700  0.50506500  0.49985800  1
  Be  Be6  1  0.15752700  0.99493500  0.50014200  1
  Be  Be7  1  0.34247300  0.49493500  0.99985800  1
  Si  Si0  1  0.48419900  0.65885100  0.13805100  1
  Si  Si1  1  0.01580100  0.15885100  0.36194900  1
  Si  Si2  1  0.51580100  0.34114900  0.63805100  1
  Si  Si3  1  0.98419900  0.84114900  0.86194900  1
  Si  Si4  1  0.51580100  0.34114900  0.86194900  1
  Si  Si5  1  0.98419900  0.84114900  0.63805100  1
  Si  Si6  1  0.48419900  0.65885100  0.36194900  1
  Si  Si7  1  0.01580100  0.15885100  0.13805100  1
  Si  Si8  1  0.76752100  0.84394000  0.13682700  1
  Si  Si9  1  0.73247900  0.34394000  0.36317300  1
  Si  Si10  1  0.23247900  0.15606000  0.63682700  1
  Si  Si11  1  0.26752100  0.65606000  0.86317300  1
  Si  Si12  1  0.23247900  0.15606000  0.86317300  1
  Si  Si13  1  0.26752100  0.65606000  0.63682700  1
  Si  Si14  1  0.76752100  0.84394000  0.36317300  1
  Si  Si15  1  0.73247900  0.34394000  0.13682700  1
  Si  Si16  1  0.19556000  0.83288800  0.13808200  1
  Si  Si17  1  0.30444000  0.33288800  0.36191800  1
  Si  Si18  1  0.80444000  0.16711200  0.63808200  1
  Si  Si19  1  0.69556000  0.66711200  0.86191800  1
  Si  Si20  1  0.80444000  0.16711200  0.86191800  1
  Si  Si21  1  0.69556000  0.66711200  0.63808200  1
  Si  Si22  1  0.19556000  0.83288800  0.36191800  1
  Si  Si23  1  0.30444000  0.33288800  0.13808200  1
  O  O0  1  0.50040800  0.61965000  0.25000000  1
  O  O1  1  0.99959200  0.11965000  0.25000000  1
  O  O2  1  0.49959200  0.38035000  0.75000000  1
  O  O3  1  0.00040800  0.88035000  0.75000000  1
  O  O4  1  0.28843900  0.71676000  0.12294300  1
  O  O5  1  0.21156100  0.21676000  0.37705700  1
  O  O6  1  0.71156100  0.28324000  0.62294300  1
  O  O7  1  0.78843900  0.78324000  0.87705700  1
  O  O8  1  0.71156100  0.28324000  0.87705700  1
  O  O9  1  0.78843900  0.78324000  0.62294300  1
  O  O10  1  0.28843900  0.71676000  0.37705700  1
  O  O11  1  0.21156100  0.21676000  0.12294300  1
  O  O12  1  0.49348000  0.55985900  0.06588200  1
  O  O13  1  0.00652000  0.05985900  0.43411800  1
  O  O14  1  0.50652000  0.44014100  0.56588200  1
  O  O15  1  0.99348000  0.94014100  0.93411800  1
  O  O16  1  0.50652000  0.44014100  0.93411800  1
  O  O17  1  0.99348000  0.94014100  0.56588200  1
  O  O18  1  0.49348000  0.55985900  0.43411800  1
  O  O19  1  0.00652000  0.05985900  0.06588200  1
  O  O20  1  0.65177500  0.73750600  0.11383600  1
  O  O21  1  0.84822500  0.23750600  0.38616400  1
  O  O22  1  0.34822500  0.26249400  0.61383600  1
  O  O23  1  0.15177500  0.76249400  0.88616400  1
  O  O24  1  0.34822500  0.26249400  0.88616400  1
  O  O25  1  0.15177500  0.76249400  0.61383600  1
  O  O26  1  0.65177500  0.73750600  0.38616400  1
  O  O27  1  0.84822500  0.23750600  0.11383600  1
  O  O28  1  0.70930500  0.93536300  0.06331100  1
  O  O29  1  0.79069500  0.43536300  0.43668900  1
  O  O30  1  0.29069500  0.06463700  0.56331100  1
  O  O31  1  0.20930500  0.56463700  0.93668900  1
  O  O32  1  0.29069500  0.06463700  0.93668900  1
  O  O33  1  0.20930500  0.56463700  0.56331100  1
  O  O34  1  0.70930500  0.93536300  0.43668900  1
  O  O35  1  0.79069500  0.43536300  0.06331100  1
  O  O36  1  0.73346900  0.87860800  0.25000000  1
  O  O37  1  0.76653100  0.37860800  0.25000000  1
  O  O38  1  0.26653100  0.12139200  0.75000000  1
  O  O39  1  0.23346900  0.62139200  0.75000000  1
  O  O40  1  0.97915100  0.80649000  0.12372600  1
  O  O41  1  0.52084900  0.30649000  0.37627400  1
  O  O42  1  0.02084900  0.19351000  0.62372600  1
  O  O43  1  0.47915100  0.69351000  0.87627400  1
  O  O44  1  0.02084900  0.19351000  0.87627400  1
  O  O45  1  0.47915100  0.69351000  0.62372600  1
  O  O46  1  0.97915100  0.80649000  0.37627400  1
  O  O47  1  0.52084900  0.30649000  0.12372600  1
  O  O48  1  0.23280700  0.87102800  0.25000000  1
  O  O49  1  0.26719300  0.37102800  0.25000000  1
  O  O50  1  0.76719300  0.12897200  0.75000000  1
  O  O51  1  0.73280700  0.62897200  0.75000000  1
  O  O52  1  0.27471700  0.91565600  0.06180300  1
  O  O53  1  0.22528300  0.41565600  0.43819700  1
  O  O54  1  0.72528300  0.08434400  0.56180300  1
  O  O55  1  0.77471700  0.58434400  0.93819700  1
  O  O56  1  0.72528300  0.08434400  0.93819700  1
  O  O57  1  0.77471700  0.58434400  0.56180300  1
  O  O58  1  0.27471700  0.91565600  0.43819700  1
  O  O59  1  0.22528300  0.41565600  0.06180300  1
  O  O60  1  0.01067000  0.55835300  0.25000000  1
  O  O61  1  0.48933000  0.05835300  0.25000000  1
  O  O62  1  0.98933000  0.44164700  0.75000000  1
  O  O63  1  0.51067000  0.94164700  0.75000000  1
loop_
_geom_bond_atom_site_label_1
_geom_bond_atom_site_label_2
_geom_bond_distance
_geom_bond_site_symmetry_2
Na0 O31 2.453487 1_654
Na0 O55 2.465125 1_554
Na0 O60 2.557251 1_655
Na0 O35 2.638584 1_555
Na0 O4 2.702645 1_655
Na0 O40 2.728820 1_555
Na0 O59 2.925798 1_655
Na1 O30 2.453487 1_555
Na1 O54 2.465125 1_555
Na1 O61 2.557251 1_555
Na1 O34 2.638584 1_545
Na1 O5 2.702645 1_555
Na1 O41 2.728820 1_555
Na1 O58 2.925798 1_545
Na2 O29 2.453487 1_455
Na2 O53 2.465125 1_555
Na2 O62 2.557251 1_455
Na2 O33 2.638584 1_555
Na2 O6 2.702645 1_455
Na2 O42 2.728820 1_555
Na2 O57 2.925798 1_455
Na3 O28 2.453487 1_556
Na3 O52 2.465125 1_556
Na3 O63 2.557251 1_555
Na3 O32 2.638584 1_565
Na3 O7 2.702645 1_555
Na3 O43 2.728820 1_555
Na3 O56 2.925798 1_565
Na4 O35 2.453487 1_456
Na4 O59 2.465125 1_556
Na4 O62 2.557251 1_455
Na4 O31 2.638584 1_555
Na4 O8 2.702645 1_455
Na4 O44 2.728820 1_555
Na4 O55 2.925798 1_455
Na5 O34 2.453487 1_555
Na5 O58 2.465125 1_555
Na5 O63 2.557251 1_555
Na5 O30 2.638584 1_565
Na5 O9 2.702645 1_555
Na5 O45 2.728820 1_555
Na5 O54 2.925798 1_565
Na6 O33 2.453487 1_655
Na6 O57 2.465125 1_555
Na6 O60 2.557251 1_655
Na6 O29 2.638584 1_555
Na6 O10 2.702645 1_655
Na6 O46 2.728820 1_555
Na6 O53 2.925798 1_655
Na7 O32 2.453487 1_554
Na7 O56 2.465125 1_554
Na7 O61 2.557251 1_555
Na7 O28 2.638584 1_545
Na7 O11 2.702645 1_555
Na7 O47 2.728820 1_555
Na7 O52 2.925798 1_545
Be0 O52 1.586751 1_556
Be0 O32 1.590968 1_565
Be0 O19 1.665296 1_566
Be0 O15 1.670769 1_455
Be1 O53 1.586751 1_555
Be1 O33 1.590968 1_555
Be1 O18 1.665296 1_555
Be1 O14 1.670769 1_555
Be2 O54 1.586751 1_555
Be2 O34 1.590968 1_545
Be2 O17 1.665296 1_545
Be2 O13 1.670769 1_655
Be3 O55 1.586751 1_554
Be3 O35 1.590968 1_555
Be3 O16 1.665296 1_554
Be3 O12 1.670769 1_555
Be4 O56 1.586751 1_554
Be4 O28 1.590968 1_545
Be4 O15 1.665296 1_544
Be4 O19 1.670769 1_655
Be5 O57 1.586751 1_555
Be5 O29 1.590968 1_555
Be5 O14 1.665296 1_555
Be5 O18 1.670769 1_555
Be6 O58 1.586751 1_555
Be6 O30 1.590968 1_565
Be6 O13 1.665296 1_565
Be6 O17 1.670769 1_455
Be7 O59 1.586751 1_556
Be7 O31 1.590968 1_555
Be7 O12 1.665296 1_556
Be7 O16 1.670769 1_555
O0 Si6 1.629292 1_555
O0 Si0 1.629292 1_555
O1 Si1 1.629292 1_655
O1 Si7 1.629292 1_655
O2 Si4 1.629292 1_555
O2 Si2 1.629292 1_555
O3 Si3 1.629292 1_455
O3 Si5 1.629292 1_455
O4 Si0 1.641496 1_555
O4 Si16 1.654127 1_555
O5 Si1 1.641496 1_555
O5 Si17 1.654127 1_555
O6 Si2 1.641496 1_555
O6 Si18 1.654127 1_555
O7 Si3 1.641496 1_555
O7 Si19 1.654127 1_555
O8 Si4 1.641496 1_555
O8 Si20 1.654127 1_555
O9 Si5 1.641496 1_555
O9 Si21 1.654127 1_555
O10 Si6 1.641496 1_555
O10 Si22 1.654127 1_555
O11 Si7 1.641496 1_555
O11 Si23 1.654127 1_555
O12 Si0 1.615541 1_555
O13 Si1 1.615541 1_555
O14 Si2 1.615541 1_555
O15 Si3 1.615541 1_555
O16 Si4 1.615541 1_555
O17 Si5 1.615541 1_555
O18 Si6 1.615541 1_555
O19 Si7 1.615541 1_555
O20 Si0 1.633470 1_555
O20 Si8 1.642955 1_555
O21 Si1 1.633470 1_655
O21 Si9 1.642955 1_555
O22 Si2 1.633470 1_555
O22 Si10 1.642955 1_555
O23 Si3 1.633470 1_455
O23 Si11 1.642955 1_555
O24 Si4 1.633470 1_555
O24 Si12 1.642955 1_555
O25 Si5 1.633470 1_455
O25 Si13 1.642955 1_555
O26 Si6 1.633470 1_555
O26 Si14 1.642955 1_555
O27 Si7 1.633470 1_655
O27 Si15 1.642955 1_555
O28 Si8 1.609661 1_555
O29 Si9 1.609661 1_555
O30 Si10 1.609661 1_555
O31 Si11 1.609661 1_555
O32 Si12 1.609661 1_555
O33 Si13 1.609661 1_555
O34 Si14 1.609661 1_555
O35 Si15 1.609661 1_555
O36 Si14 1.643496 1_555
O36 Si8 1.643496 1_555
O37 Si9 1.643496 1_555
O37 Si15 1.643496 1_555
O38 Si12 1.643496 1_555
O38 Si10 1.643496 1_555
O39 Si11 1.643496 1_555
O39 Si13 1.643496 1_555
O40 Si8 1.648237 1_555
O40 Si16 1.648978 1_655
O41 Si9 1.648237 1_555
O41 Si17 1.648978 1_555
O42 Si10 1.648237 1_555
O42 Si18 1.648978 1_455
O43 Si11 1.648237 1_555
O43 Si19 1.648978 1_555
O44 Si12 1.648237 1_555
O44 Si20 1.648978 1_455
O45 Si13 1.648237 1_555
O45 Si21 1.648978 1_555
O46 Si14 1.648237 1_555
O46 Si22 1.648978 1_655
O47 Si15 1.648237 1_555
O47 Si23 1.648978 1_555
O48 Si22 1.643581 1_555
O48 Si16 1.643581 1_555
O49 Si17 1.643581 1_555
O49 Si23 1.643581 1_555
O50 Si20 1.643581 1_555
O50 Si18 1.643581 1_555
O51 Si19 1.643581 1_555
O51 Si21 1.643581 1_555
O52 Si16 1.605998 1_555
O53 Si17 1.605998 1_555
O54 Si18 1.605998 1_555
O55 Si19 1.605998 1_555
O56 Si20 1.605998 1_555
O57 Si21 1.605998 1_555
O58 Si22 1.605998 1_555
O59 Si23 1.605998 1_555
