# generated using pymatgen
data_Li2TiFe2O5
_symmetry_space_group_name_H-M   'P 1'
_cell_length_a   5.18785700
_cell_length_b   5.18978347
_cell_length_c   7.95535657
_cell_angle_alpha   71.17899017
_cell_angle_beta   83.68037458
_cell_angle_gamma   70.63108876
_symmetry_Int_Tables_number   1
_chemical_formula_structural   Li2TiFe2O5
_chemical_formula_sum   'Li4 Ti2 Fe4 O10'
_cell_volume   191.26094289
_cell_formula_units_Z   2
loop_
 _symmetry_equiv_pos_site_id
 _symmetry_equiv_pos_as_xyz
  1  'x, y, z'
loop_
 _atom_site_type_symbol
 _atom_site_label
 _atom_site_symmetry_multiplicity
 _atom_site_fract_x
 _atom_site_fract_y
 _atom_site_fract_z
 _atom_site_occupancy
  Li  Li0  1  0.49991400  0.90042300  0.19767200  1
  Li  Li1  1  0.49759600  0.49652500  0.00462400  1
  Li  Li2  1  0.99978600  0.40181600  0.19839000  1
  Li  Li3  1  0.99916700  0.20350900  0.59161400  1
  Ti  Ti0  1  0.49703300  0.30287600  0.38582300  1
  Ti  Ti1  1  0.99986300  0.00126600  0.00553200  1
  Fe  Fe0  1  0.50116000  0.69890000  0.60406500  1
  Fe  Fe1  1  0.00228300  0.80171500  0.39328300  1
  Fe  Fe2  1  0.99629600  0.59984400  0.80144400  1
  Fe  Fe3  1  0.50067800  0.09659300  0.80556100  1
  O  O0  1  0.76995600  0.32956000  0.81958600  1
  O  O1  1  0.26242500  0.43628800  0.58753600  1
  O  O2  1  0.74534800  0.15835800  0.20003200  1
  O  O3  1  0.74123400  0.97447100  0.58419300  1
  O  O4  1  0.23821700  0.84518000  0.81248100  1
  O  O5  1  0.22694100  0.22371400  0.00428300  1
  O  O6  1  0.26597400  0.07016200  0.39736500  1
  O  O7  1  0.77121200  0.77650800  0.00266700  1
  O  O8  1  0.72815800  0.53994800  0.40399400  1
  O  O9  1  0.25675800  0.64234800  0.19985400  1
loop_
_geom_bond_atom_site_label_1
_geom_bond_atom_site_label_2
_geom_bond_distance
_geom_bond_site_symmetry_2
Li0 O7 2.088970 1_555
Li0 O5 2.103700 1_565
Li0 O9 2.118087 1_555
Li0 O6 2.131206 1_565
Li0 O2 2.136712 1_565
Li0 O8 2.138524 1_555
Li1 O9 2.061554 1_555
Li1 O2 2.081344 1_555
Li1 O0 2.113582 1_554
Li1 O4 2.115301 1_554
Li1 O5 2.301757 1_555
Li1 O7 2.339908 1_555
Li2 O5 2.103672 1_655
Li2 O2 2.104937 1_555
Li2 O9 2.110046 1_655
Li2 O6 2.126477 1_655
Li2 O7 2.129617 1_555
Li2 O8 2.180390 1_555
Li3 O3 2.079578 1_545
Li3 O6 2.089637 1_655
Li3 O1 2.094062 1_655
Li3 O8 2.098890 1_555
Li3 O0 2.214913 1_555
Li3 O4 2.219297 1_645
Fe0 O8 2.095421 1_555
Fe0 O3 2.147970 1_555
Fe0 O1 2.163295 1_555
Fe0 O6 2.177876 1_565
Fe0 O4 2.193969 1_555
Fe0 O0 2.278431 1_555
Fe1 O9 2.108206 1_555
Fe1 O2 2.131848 1_465
Fe1 O3 2.136570 1_455
Fe1 O1 2.162546 1_555
Fe1 O8 2.248412 1_455
Fe1 O6 2.261976 1_565
Fe2 O0 2.071670 1_555
Fe2 O4 2.088142 1_655
Fe2 O7 2.142906 1_556
Fe2 O5 2.165515 1_656
Fe2 O3 2.268686 1_555
Fe2 O1 2.271547 1_655
Fe3 O7 2.108418 1_546
Fe3 O5 2.123318 1_556
Fe3 O0 2.160431 1_555
Fe3 O4 2.162182 1_545
Fe3 O1 2.167431 1_555
Fe3 O3 2.184524 1_545
O0 Ti1 1.981917 1_556
O1 Ti0 2.064887 1_555
O2 Ti0 2.015403 1_555
O2 Ti1 2.110076 1_555
O3 Ti0 2.067056 1_565
O4 Ti1 2.064970 1_466
O5 Ti1 1.900731 1_455
O6 Ti0 1.941243 1_555
O7 Ti1 1.925898 1_565
O8 Ti0 2.025787 1_555
O9 Ti0 2.028304 1_555
O9 Ti1 2.141176 1_465
