# generated using pymatgen
data_LiAg2F4
_symmetry_space_group_name_H-M   'P 1'
_cell_length_a   8.08330717
_cell_length_b   6.97506318
_cell_length_c   6.06916113
_cell_angle_alpha   76.23428335
_cell_angle_beta   56.94129229
_cell_angle_gamma   46.82442436
_symmetry_Int_Tables_number   1
_chemical_formula_structural   LiAg2F4
_chemical_formula_sum   'Li2 Ag4 F8'
_cell_volume   203.95790484
_cell_formula_units_Z   2
loop_
 _symmetry_equiv_pos_site_id
 _symmetry_equiv_pos_as_xyz
  1  'x, y, z'
loop_
 _atom_site_type_symbol
 _atom_site_label
 _atom_site_symmetry_multiplicity
 _atom_site_fract_x
 _atom_site_fract_y
 _atom_site_fract_z
 _atom_site_occupancy
  Li  Li0  1  0.25000000  0.25000000  0.25000000  1
  Li  Li1  1  0.00000000  0.00000000  0.00000000  1
  Ag  Ag0  1  0.90638600  0.59361400  0.90638600  1
  Ag  Ag1  1  0.59361400  0.90638600  0.59361400  1
  Ag  Ag2  1  0.65638600  0.34361400  0.65638600  1
  Ag  Ag3  1  0.34361400  0.65638600  0.34361400  1
  F  F0  1  0.26510800  0.38988600  0.46261200  1
  F  F1  1  0.38988600  0.26510800  0.88239300  1
  F  F2  1  0.78738800  0.36760700  0.98489200  1
  F  F3  1  0.36760700  0.78738800  0.86011400  1
  F  F4  1  0.88239300  0.46261200  0.38988600  1
  F  F5  1  0.46261200  0.88239300  0.26510800  1
  F  F6  1  0.86011400  0.98489200  0.36760700  1
  F  F7  1  0.98489200  0.86011400  0.78738800  1
loop_
_geom_bond_atom_site_label_1
_geom_bond_atom_site_label_2
_geom_bond_distance
_geom_bond_site_symmetry_2
Ag0 F2 2.203396 1_555
Ag0 F7 2.203403 1_555
Ag0 F5 2.311630 1_556
Ag0 F0 2.311630 1_655
Ag1 F3 2.203397 1_555
Ag1 F6 2.203403 1_555
Ag1 F1 2.311626 1_565
Ag1 F4 2.311631 1_555
Ag2 F4 2.203397 1_555
Ag2 F1 2.203403 1_555
Ag2 F6 2.311626 1_545
Ag2 F3 2.311631 1_555
Ag3 F5 2.203396 1_555
Ag3 F0 2.203403 1_555
Ag3 F2 2.311630 1_554
Ag3 F7 2.311630 1_455
F0 Li0 1.888431 1_555
F1 Li0 1.888436 1_556
F2 Li1 1.888436 1_656
F3 Li1 1.888437 1_566
F4 Li0 1.888437 1_655
F5 Li0 1.888436 1_565
F6 Li1 1.888436 1_665
F7 Li1 1.888431 1_666
