# generated using pymatgen
data_Zn
_symmetry_space_group_name_H-M   'P 1'
_cell_length_a   5.22872024
_cell_length_b   5.22871897
_cell_length_c   9.74632204
_cell_angle_alpha   90.00000000
_cell_angle_beta   90.00000000
_cell_angle_gamma   119.99998276
_symmetry_Int_Tables_number   1
_chemical_formula_structural   Zn
_chemical_formula_sum   Zn16
_cell_volume   230.76087131
_cell_formula_units_Z   16
loop_
 _symmetry_equiv_pos_site_id
 _symmetry_equiv_pos_as_xyz
  1  'x, y, z'
loop_
 _atom_site_type_symbol
 _atom_site_label
 _atom_site_symmetry_multiplicity
 _atom_site_fract_x
 _atom_site_fract_y
 _atom_site_fract_z
 _atom_site_occupancy
  Zn  Zn0_0  1  0.16666650  0.33333350  0.12500000  1
  Zn  Zn0_1  1  0.16666650  0.33333350  0.62500000  1
  Zn  Zn0_2  1  0.16666650  0.83333350  0.12500000  1
  Zn  Zn0_3  1  0.16666650  0.83333350  0.62500000  1
  Zn  Zn0_4  1  0.66666650  0.33333350  0.12500000  1
  Zn  Zn0_5  1  0.66666650  0.33333350  0.62500000  1
  Zn  Zn0_6  1  0.66666650  0.83333350  0.12500000  1
  Zn  Zn0_7  1  0.66666650  0.83333350  0.62500000  1
  Zn  Zn1_0  1  0.33333350  0.16666650  0.37500000  1
  Zn  Zn1_1  1  0.33333350  0.16666650  0.87500000  1
  Zn  Zn1_2  1  0.33333350  0.66666650  0.37500000  1
  Zn  Zn1_3  1  0.33333350  0.66666650  0.87500000  1
  Zn  Zn1_4  1  0.83333350  0.16666650  0.37500000  1
  Zn  Zn1_5  1  0.83333350  0.16666650  0.87500000  1
  Zn  Zn1_6  1  0.83333350  0.66666650  0.37500000  1
  Zn  Zn1_7  1  0.83333350  0.66666650  0.87500000  1
loop_
_geom_bond_atom_site_label_1
_geom_bond_atom_site_label_2
_geom_bond_distance
_geom_bond_site_symmetry_2
Zn0_0 Zn0_2 2.614359 1_545
Zn0_0 Zn0_2 2.614359 1_555
Zn0_0 Zn0_4 2.614360 1_455
Zn0_0 Zn0_4 2.614360 1_555
Zn0_0 Zn0_6 2.614360 1_445
Zn0_0 Zn0_6 2.614360 1_555
Zn0_0 Zn1_2 2.866219 1_555
Zn0_0 Zn1_3 2.866219 1_554
Zn0_0 Zn1_4 2.866219 1_455
Zn0_0 Zn1_5 2.866219 1_454
Zn0_0 Zn1_0 2.866222 1_555
Zn0_0 Zn1_1 2.866222 1_554
Zn0_1 Zn0_3 2.614359 1_545
Zn0_1 Zn0_3 2.614359 1_555
Zn0_1 Zn0_5 2.614360 1_455
Zn0_1 Zn0_5 2.614360 1_555
Zn0_1 Zn0_7 2.614360 1_445
Zn0_1 Zn0_7 2.614360 1_555
Zn0_1 Zn1_3 2.866219 1_555
Zn0_1 Zn1_2 2.866219 1_555
Zn0_1 Zn1_5 2.866219 1_455
Zn0_1 Zn1_4 2.866219 1_455
Zn0_1 Zn1_1 2.866222 1_555
Zn0_1 Zn1_0 2.866222 1_555
Zn0_2 Zn0_6 2.614360 1_455
Zn0_2 Zn0_6 2.614360 1_555
Zn0_2 Zn0_4 2.614360 1_565
Zn0_2 Zn0_4 2.614360 1_455
Zn0_2 Zn1_0 2.866219 1_565
Zn0_2 Zn1_1 2.866219 1_564
Zn0_2 Zn1_6 2.866219 1_455
Zn0_2 Zn1_7 2.866219 1_454
Zn0_2 Zn1_2 2.866222 1_555
Zn0_2 Zn1_3 2.866222 1_554
Zn0_3 Zn0_7 2.614360 1_455
Zn0_3 Zn0_7 2.614360 1_555
Zn0_3 Zn0_5 2.614360 1_565
Zn0_3 Zn0_5 2.614360 1_455
Zn0_3 Zn1_1 2.866219 1_565
Zn0_3 Zn1_0 2.866219 1_565
Zn0_3 Zn1_7 2.866219 1_455
Zn0_3 Zn1_6 2.866219 1_455
Zn0_3 Zn1_3 2.866222 1_555
Zn0_3 Zn1_2 2.866222 1_555
Zn0_4 Zn0_6 2.614359 1_545
Zn0_4 Zn0_6 2.614359 1_555
Zn0_4 Zn1_6 2.866219 1_555
Zn0_4 Zn1_7 2.866219 1_554
Zn0_4 Zn1_0 2.866219 1_555
Zn0_4 Zn1_1 2.866219 1_554
Zn0_4 Zn1_4 2.866222 1_555
Zn0_4 Zn1_5 2.866222 1_554
Zn0_5 Zn0_7 2.614359 1_545
Zn0_5 Zn0_7 2.614359 1_555
Zn0_5 Zn1_7 2.866219 1_555
Zn0_5 Zn1_6 2.866219 1_555
Zn0_5 Zn1_1 2.866219 1_555
Zn0_5 Zn1_0 2.866219 1_555
Zn0_5 Zn1_5 2.866222 1_555
Zn0_5 Zn1_4 2.866222 1_555
Zn0_6 Zn1_4 2.866219 1_565
Zn0_6 Zn1_5 2.866219 1_564
Zn0_6 Zn1_2 2.866219 1_555
Zn0_6 Zn1_3 2.866219 1_554
Zn0_6 Zn1_6 2.866222 1_555
Zn0_6 Zn1_7 2.866222 1_554
Zn0_7 Zn1_5 2.866219 1_565
Zn0_7 Zn1_4 2.866219 1_565
Zn0_7 Zn1_3 2.866219 1_555
Zn0_7 Zn1_2 2.866219 1_555
Zn0_7 Zn1_7 2.866222 1_555
Zn0_7 Zn1_6 2.866222 1_555
Zn1_0 Zn1_2 2.614359 1_545
Zn1_0 Zn1_2 2.614359 1_555
Zn1_0 Zn1_4 2.614360 1_455
Zn1_0 Zn1_4 2.614360 1_555
Zn1_0 Zn1_6 2.614360 1_555
Zn1_0 Zn1_6 2.614360 1_445
Zn1_1 Zn1_3 2.614359 1_545
Zn1_1 Zn1_3 2.614359 1_555
Zn1_1 Zn1_5 2.614360 1_455
Zn1_1 Zn1_5 2.614360 1_555
Zn1_1 Zn1_7 2.614360 1_555
Zn1_1 Zn1_7 2.614360 1_445
Zn1_2 Zn1_6 2.614360 1_555
Zn1_2 Zn1_6 2.614360 1_455
Zn1_2 Zn1_4 2.614360 1_455
Zn1_2 Zn1_4 2.614360 1_565
Zn1_3 Zn1_7 2.614360 1_555
Zn1_3 Zn1_7 2.614360 1_455
Zn1_3 Zn1_5 2.614360 1_455
Zn1_3 Zn1_5 2.614360 1_565
Zn1_4 Zn1_6 2.614359 1_545
Zn1_4 Zn1_6 2.614359 1_555
Zn1_5 Zn1_7 2.614359 1_545
Zn1_5 Zn1_7 2.614359 1_555
