# generated using pymatgen
data_Li2CuNiO4
_symmetry_space_group_name_H-M   'P 1'
_cell_length_a   5.68717094
_cell_length_b   6.01392038
_cell_length_c   5.68702224
_cell_angle_alpha   64.07062110
_cell_angle_beta   87.78599344
_cell_angle_gamma   118.14641049
_symmetry_Int_Tables_number   1
_chemical_formula_structural   Li2CuNiO4
_chemical_formula_sum   'Li4 Cu2 Ni2 O8'
_cell_volume   146.70204410
_cell_formula_units_Z   2
loop_
 _symmetry_equiv_pos_site_id
 _symmetry_equiv_pos_as_xyz
  1  'x, y, z'
loop_
 _atom_site_type_symbol
 _atom_site_label
 _atom_site_symmetry_multiplicity
 _atom_site_fract_x
 _atom_site_fract_y
 _atom_site_fract_z
 _atom_site_occupancy
  Li  Li0  1  0.99999600  0.00000000  0.50000000  1
  Li  Li1  1  0.49999700  0.50000000  0.49999800  1
  Li  Li2  1  0.49999800  0.50000100  0.99999700  1
  Li  Li3  1  0.49999900  0.00000000  0.49999900  1
  Cu  Cu0  1  0.00001300  0.50000200  0.50000200  1
  Cu  Cu1  1  0.00000000  0.99999700  0.00000200  1
  Ni  Ni0  1  0.50000800  0.00000300  0.00001100  1
  Ni  Ni1  1  0.00000600  0.49999900  0.00000100  1
  O  O0  1  0.19256200  0.93286400  0.79256300  1
  O  O1  1  0.27459600  0.56713200  0.24034000  1
  O  O2  1  0.72540200  0.43286900  0.75965400  1
  O  O3  1  0.80743400  0.06713600  0.20743600  1
  O  O4  1  0.26414200  0.05403300  0.18900200  1
  O  O5  1  0.75697900  0.44599300  0.28987400  1
  O  O6  1  0.24301600  0.55400500  0.71012400  1
  O  O7  1  0.73585300  0.94596600  0.81099700  1
loop_
_geom_bond_atom_site_label_1
_geom_bond_atom_site_label_2
_geom_bond_distance
_geom_bond_site_symmetry_2
Li0 O3 2.025113 1_555
Li0 O0 2.025124 1_645
Li0 O7 2.078927 1_545
Li0 O4 2.078945 1_655
Li0 O2 2.577647 1_545
Li0 O1 2.577650 1_655
Li1 O1 2.024843 1_555
Li1 O2 2.024852 1_555
Li1 O6 2.078883 1_555
Li1 O5 2.078889 1_555
Li1 O3 2.577701 1_565
Li1 O0 2.577701 1_545
Li2 O7 2.030058 1_555
Li2 O4 2.030070 1_556
Li2 O1 2.123668 1_556
Li2 O2 2.123680 1_555
Li2 O6 2.263805 1_555
Li2 O5 2.263820 1_556
Li3 O5 2.030207 1_555
Li3 O6 2.030216 1_545
Li3 O3 2.123689 1_555
Li3 O0 2.123701 1_545
Li3 O7 2.263810 1_545
Li3 O4 2.263817 1_555
Cu0 O6 1.867321 1_555
Cu0 O5 1.867471 1_455
Cu0 O1 1.867594 1_555
Cu0 O2 1.867659 1_455
Cu0 O4 2.530873 1_565
Cu0 O7 2.530883 1_445
Cu1 O4 1.867410 1_565
Cu1 O7 1.867449 1_454
Cu1 O0 1.867586 1_554
Cu1 O3 1.867609 1_465
Cu1 O5 2.530723 1_455
Cu1 O6 2.530747 1_564
Ni0 O4 1.914521 1_555
Ni0 O7 1.914541 1_544
Ni0 O2 1.973027 1_554
Ni0 O1 1.973034 1_545
Ni0 O3 2.126326 1_555
Ni0 O0 2.126501 1_544
Ni1 O6 1.914531 1_554
Ni1 O5 1.914573 1_455
Ni1 O3 1.972948 1_455
Ni1 O0 1.972966 1_554
Ni1 O1 2.126634 1_555
Ni1 O2 2.126719 1_454
