# generated using pymatgen
data_LiFeP2HO7
_symmetry_space_group_name_H-M   'P 1'
_cell_length_a   6.02328141
_cell_length_b   7.82687554
_cell_length_c   12.74654922
_cell_angle_alpha   84.96154699
_cell_angle_beta   95.87994427
_cell_angle_gamma   97.59521415
_symmetry_Int_Tables_number   1
_chemical_formula_structural   LiFeP2HO7
_chemical_formula_sum   'Li4 Fe4 P8 H4 O28'
_cell_volume   590.82680609
_cell_formula_units_Z   4
loop_
 _symmetry_equiv_pos_site_id
 _symmetry_equiv_pos_as_xyz
  1  'x, y, z'
loop_
 _atom_site_type_symbol
 _atom_site_label
 _atom_site_symmetry_multiplicity
 _atom_site_fract_x
 _atom_site_fract_y
 _atom_site_fract_z
 _atom_site_occupancy
  Li  Li0  1  0.49683100  0.11679600  0.07035400  1
  Li  Li1  1  0.99575800  0.11755700  0.56980000  1
  Li  Li2  1  0.00589900  0.88385900  0.42945000  1
  Li  Li3  1  0.50190900  0.88230900  0.92942100  1
  Fe  Fe0  1  0.35394000  0.73906300  0.61402900  1
  Fe  Fe1  1  0.14828300  0.25984800  0.88658700  1
  Fe  Fe2  1  0.85230500  0.73915100  0.11421200  1
  Fe  Fe3  1  0.64835000  0.26069000  0.38659200  1
  P  P0  1  0.39477800  0.70595800  0.14773400  1
  P  P1  1  0.89557700  0.70700400  0.64772300  1
  P  P2  1  0.10494100  0.29477500  0.35214600  1
  P  P3  1  0.60508100  0.29376100  0.85215400  1
  P  P4  1  0.03575000  0.15361600  0.13782100  1
  P  P5  1  0.53445700  0.15357700  0.63778500  1
  P  P6  1  0.46577500  0.84653400  0.36217100  1
  P  P7  1  0.96293500  0.84553600  0.86270700  1
  H  H0  1  0.67223200  0.69432400  0.47404500  1
  H  H1  1  0.16867500  0.69286800  0.97503300  1
  H  H2  1  0.83020400  0.30529500  0.02470000  1
  H  H3  1  0.32939900  0.30624400  0.52504100  1
  O  O0  1  0.15828400  0.63851900  0.09774100  1
  O  O1  1  0.65963100  0.63962200  0.59707000  1
  O  O2  1  0.34102600  0.36203500  0.40265100  1
  O  O3  1  0.84155200  0.36036200  0.90250700  1
  O  O4  1  0.19591500  0.18863300  0.05135600  1
  O  O5  1  0.69386400  0.18806700  0.55092800  1
  O  O6  1  0.30663100  0.81114300  0.44903900  1
  O  O7  1  0.80279400  0.80941300  0.94911600  1
  O  O8  1  0.49095700  0.87578900  0.09118500  1
  O  O9  1  0.99227200  0.87682500  0.59135500  1
  O  O10  1  0.00815800  0.12486100  0.40859500  1
  O  O11  1  0.50791600  0.12365000  0.90819300  1
  O  O12  1  0.57182700  0.58017600  0.15485300  1
  O  O13  1  0.07294400  0.58144800  0.65523200  1
  O  O14  1  0.92750700  0.42042000  0.34457900  1
  O  O15  1  0.42830500  0.41973800  0.84553000  1
  O  O16  1  0.81269700  0.23836200  0.09746200  1
  O  O17  1  0.31165400  0.23878100  0.59763900  1
  O  O18  1  0.68947100  0.76178700  0.40162300  1
  O  O19  1  0.18581500  0.76006600  0.90240300  1
  O  O20  1  0.34584300  0.73873000  0.26706100  1
  O  O21  1  0.84403100  0.73902100  0.76681400  1
  O  O22  1  0.15464700  0.26174600  0.23296900  1
  O  O23  1  0.65424100  0.26216500  0.73262900  1
  O  O24  1  0.52225700  0.03328200  0.32242400  1
  O  O25  1  0.02007600  0.03248900  0.82349300  1
  O  O26  1  0.97875100  0.96695600  0.17779200  1
  O  O27  1  0.47785900  0.96714700  0.67825300  1
loop_
_geom_bond_atom_site_label_1
_geom_bond_atom_site_label_2
_geom_bond_distance
_geom_bond_site_symmetry_2
Li0 O8 1.877847 1_545
Li0 O4 1.953328 1_555
Li0 O16 2.022110 1_555
Li0 O11 2.070664 1_554
Li1 O9 1.877726 1_545
Li1 O5 1.954819 1_555
Li1 O17 2.022400 1_655
Li1 O10 2.059311 1_655
Li2 O10 1.880115 1_565
Li2 O6 1.955072 1_555
Li2 O18 2.027537 1_455
Li2 O9 2.069373 1_455
Li3 O11 1.880639 1_565
Li3 O7 1.956526 1_555
Li3 O19 2.025079 1_555
Li3 O8 2.065676 1_556
Fe0 O13 2.044182 1_555
Fe0 O27 2.047787 1_555
Fe0 O1 2.129009 1_555
Fe0 O6 2.129230 1_555
Fe0 O9 2.535523 1_455
Fe1 O25 2.042217 1_555
Fe1 O15 2.047589 1_555
Fe1 O4 2.125366 1_556
Fe1 O3 2.136007 1_455
Fe1 O11 2.518160 1_555
Fe2 O12 2.044765 1_555
Fe2 O26 2.045561 1_555
Fe2 O7 2.128702 1_554
Fe2 O0 2.133809 1_655
Fe2 O8 2.529093 1_555
Fe3 O24 2.045711 1_555
Fe3 O14 2.046509 1_555
Fe3 O5 2.121434 1_555
Fe3 O2 2.142886 1_555
Fe3 O10 2.517517 1_655
H0 O18 1.030189 1_555
H0 O1 1.595623 1_555
H1 O19 1.031531 1_555
H1 O0 1.589793 1_556
H2 O16 1.032399 1_555
H2 O3 1.585079 1_554
H3 O17 1.032507 1_555
H3 O2 1.588706 1_555
O0 P0 1.545360 1_555
O1 P1 1.545447 1_555
O2 P2 1.545233 1_555
O3 P3 1.545181 1_555
O4 P4 1.521639 1_555
O5 P5 1.522263 1_555
O6 P6 1.521521 1_555
O7 P7 1.521296 1_555
O8 P0 1.528319 1_555
O9 P1 1.528232 1_555
O10 P2 1.529412 1_555
O11 P3 1.529082 1_555
O12 P0 1.535151 1_555
O13 P1 1.535015 1_455
O14 P2 1.535785 1_655
O15 P3 1.535436 1_555
O16 P4 1.594885 1_655
O17 P5 1.594836 1_555
O18 P6 1.595976 1_555
O19 P7 1.595158 1_455
O20 P6 1.594562 1_555
O20 P0 1.626808 1_555
O21 P7 1.594921 1_555
O21 P1 1.627102 1_555
O22 P4 1.594411 1_555
O22 P2 1.626880 1_555
O23 P5 1.595016 1_555
O23 P3 1.627252 1_555
O24 P6 1.510842 1_545
O25 P7 1.510984 1_445
O26 P4 1.511414 1_665
O27 P5 1.511219 1_565
