# generated using pymatgen
data_LiCuS
_symmetry_space_group_name_H-M   'P 1'
_cell_length_a   5.29985600
_cell_length_b   12.38011500
_cell_length_c   16.11785200
_cell_angle_alpha   90.00000000
_cell_angle_beta   90.00000000
_cell_angle_gamma   90.00000000
_symmetry_Int_Tables_number   1
_chemical_formula_structural   LiCuS
_chemical_formula_sum   'Li24 Cu24 S24'
_cell_volume   1057.53783107
_cell_formula_units_Z   24
loop_
 _symmetry_equiv_pos_site_id
 _symmetry_equiv_pos_as_xyz
  1  'x, y, z'
loop_
 _atom_site_type_symbol
 _atom_site_label
 _atom_site_symmetry_multiplicity
 _atom_site_fract_x
 _atom_site_fract_y
 _atom_site_fract_z
 _atom_site_occupancy
  Li  Li0  1  0.84020700  0.07792500  0.17793900  1
  Li  Li1  1  0.15979300  0.07792500  0.67793900  1
  Li  Li2  1  0.33298300  0.07478000  0.33733300  1
  Li  Li3  1  0.66701700  0.07478000  0.83733300  1
  Li  Li4  1  0.26928000  0.07828000  0.01069800  1
  Li  Li5  1  0.73072000  0.07828000  0.51069800  1
  Li  Li6  1  0.76928000  0.42172000  0.01069800  1
  Li  Li7  1  0.23072000  0.42172000  0.51069800  1
  Li  Li8  1  0.83298300  0.42522000  0.33733300  1
  Li  Li9  1  0.16701700  0.42522000  0.83733300  1
  Li  Li10  1  0.34020700  0.42207500  0.17793900  1
  Li  Li11  1  0.65979300  0.42207500  0.67793900  1
  Li  Li12  1  0.65979300  0.57792500  0.82206100  1
  Li  Li13  1  0.34020700  0.57792500  0.32206100  1
  Li  Li14  1  0.83298300  0.57478000  0.16266700  1
  Li  Li15  1  0.16701700  0.57478000  0.66266700  1
  Li  Li16  1  0.23072000  0.57828000  0.98930200  1
  Li  Li17  1  0.76928000  0.57828000  0.48930200  1
  Li  Li18  1  0.26928000  0.92172000  0.48930200  1
  Li  Li19  1  0.73072000  0.92172000  0.98930200  1
  Li  Li20  1  0.66701700  0.92522000  0.66266700  1
  Li  Li21  1  0.33298300  0.92522000  0.16266700  1
  Li  Li22  1  0.84020700  0.92207500  0.32206100  1
  Li  Li23  1  0.15979300  0.92207500  0.82206100  1
  Cu  Cu0  1  0.59695000  0.23533500  0.09695900  1
  Cu  Cu1  1  0.40305000  0.23533500  0.59695900  1
  Cu  Cu2  1  0.40468100  0.25800600  0.76589200  1
  Cu  Cu3  1  0.59531900  0.25800600  0.26589200  1
  Cu  Cu4  1  0.96871900  0.23805800  0.42847200  1
  Cu  Cu5  1  0.03128100  0.23805800  0.92847200  1
  Cu  Cu6  1  0.46871900  0.26194200  0.42847200  1
  Cu  Cu7  1  0.53128100  0.26194200  0.92847200  1
  Cu  Cu8  1  0.09531900  0.24199400  0.26589200  1
  Cu  Cu9  1  0.90468100  0.24199400  0.76589200  1
  Cu  Cu10  1  0.09695000  0.26466500  0.09695900  1
  Cu  Cu11  1  0.90305000  0.26466500  0.59695900  1
  Cu  Cu12  1  0.90305000  0.73533500  0.90304100  1
  Cu  Cu13  1  0.09695000  0.73533500  0.40304100  1
  Cu  Cu14  1  0.90468100  0.75800600  0.73410800  1
  Cu  Cu15  1  0.09531900  0.75800600  0.23410800  1
  Cu  Cu16  1  0.46871900  0.73805800  0.07152800  1
  Cu  Cu17  1  0.53128100  0.73805800  0.57152800  1
  Cu  Cu18  1  0.03128100  0.76194200  0.57152800  1
  Cu  Cu19  1  0.96871900  0.76194200  0.07152800  1
  Cu  Cu20  1  0.40468100  0.74199400  0.73410800  1
  Cu  Cu21  1  0.59531900  0.74199400  0.23410800  1
  Cu  Cu22  1  0.59695000  0.76466500  0.40304100  1
  Cu  Cu23  1  0.40305000  0.76466500  0.90304100  1
  S  S0  1  0.19950400  0.11815100  0.83096900  1
  S  S1  1  0.80049600  0.11815100  0.33096900  1
  S  S2  1  0.29559200  0.12606100  0.16793200  1
  S  S3  1  0.70440800  0.12606100  0.66793200  1
  S  S4  1  0.25586900  0.12137100  0.49512400  1
  S  S5  1  0.74413100  0.12137100  0.99512400  1
  S  S6  1  0.24413100  0.37862900  0.99512400  1
  S  S7  1  0.75586900  0.37862900  0.49512400  1
  S  S8  1  0.79559200  0.37393900  0.16793200  1
  S  S9  1  0.20440800  0.37393900  0.66793200  1
  S  S10  1  0.30049600  0.38184900  0.33096900  1
  S  S11  1  0.69950400  0.38184900  0.83096900  1
  S  S12  1  0.69950400  0.61815100  0.66903100  1
  S  S13  1  0.30049600  0.61815100  0.16903100  1
  S  S14  1  0.79559200  0.62606100  0.33206800  1
  S  S15  1  0.20440800  0.62606100  0.83206800  1
  S  S16  1  0.24413100  0.62137100  0.50487600  1
  S  S17  1  0.75586900  0.62137100  0.00487600  1
  S  S18  1  0.74413100  0.87862900  0.50487600  1
  S  S19  1  0.25586900  0.87862900  0.00487600  1
  S  S20  1  0.29559200  0.87393900  0.33206800  1
  S  S21  1  0.70440800  0.87393900  0.83206800  1
  S  S22  1  0.19950400  0.88184900  0.66903100  1
  S  S23  1  0.80049600  0.88184900  0.16903100  1
loop_
_geom_bond_atom_site_label_1
_geom_bond_atom_site_label_2
_geom_bond_distance
_geom_bond_site_symmetry_2
Li0 S23 2.440777 1_545
Li0 S2 2.491186 1_655
Li0 S1 2.525074 1_555
Li0 S2 2.951668 1_555
Li1 S22 2.440777 1_545
Li1 S3 2.491186 1_455
Li1 S0 2.525074 1_555
Li1 S3 2.951668 1_555
Li2 S20 2.495762 1_545
Li2 S1 2.537337 1_555
Li2 S4 2.639671 1_555
Li2 S2 2.810213 1_555
Li2 S1 2.874560 1_455
Li3 S21 2.495762 1_545
Li3 S0 2.537337 1_555
Li3 S5 2.639671 1_555
Li3 S3 2.810213 1_555
Li3 S0 2.874560 1_655
Li4 S19 2.474504 1_545
Li4 S5 2.584780 1_554
Li4 S2 2.606128 1_555
Li4 S5 2.844975 1_454
Li4 S0 2.961776 1_554
Li5 S18 2.474504 1_545
Li5 S4 2.584780 1_555
Li5 S3 2.606128 1_555
Li5 S4 2.844975 1_655
Li5 S1 2.961776 1_555
Li6 S17 2.474504 1_555
Li6 S6 2.584780 1_654
Li6 S8 2.606128 1_555
Li6 S6 2.844975 1_554
Li6 S11 2.961776 1_554
Li7 S16 2.474504 1_555
Li7 S7 2.584780 1_455
Li7 S9 2.606128 1_555
Li7 S7 2.844975 1_555
Li7 S10 2.961776 1_555
Li8 S14 2.495762 1_555
Li8 S10 2.537337 1_655
Li8 S7 2.639671 1_555
Li8 S8 2.810213 1_555
Li8 S10 2.874560 1_555
Li9 S15 2.495762 1_555
Li9 S11 2.537337 1_455
Li9 S6 2.639671 1_555
Li9 S9 2.810213 1_555
Li9 S11 2.874560 1_555
Li10 S13 2.440777 1_555
Li10 S8 2.491186 1_555
Li10 S10 2.525074 1_555
Li10 S8 2.951668 1_455
Li11 S12 2.440777 1_555
Li11 S9 2.491186 1_555
Li11 S11 2.525074 1_555
Li11 S9 2.951668 1_655
Li12 S11 2.440777 1_555
Li12 S15 2.491186 1_555
Li12 S12 2.525074 1_555
Li12 S15 2.951668 1_655
Li13 S10 2.440777 1_555
Li13 S14 2.491186 1_555
Li13 S13 2.525074 1_555
Li13 S14 2.951668 1_455
Li14 S8 2.495762 1_555
Li14 S13 2.537337 1_655
Li14 S17 2.639671 1_555
Li14 S14 2.810213 1_555
Li14 S13 2.874560 1_555
Li15 S9 2.495762 1_555
Li15 S12 2.537337 1_455
Li15 S16 2.639671 1_555
Li15 S15 2.810213 1_555
Li15 S12 2.874560 1_555
Li16 S6 2.474504 1_555
Li16 S17 2.584780 1_456
Li16 S15 2.606128 1_555
Li16 S17 2.844975 1_556
Li16 S13 2.961776 1_556
Li17 S7 2.474504 1_555
Li17 S16 2.584780 1_655
Li17 S14 2.606128 1_555
Li17 S16 2.844975 1_555
Li17 S12 2.961776 1_555
Li18 S4 2.474504 1_565
Li18 S18 2.584780 1_555
Li18 S20 2.606128 1_555
Li18 S18 2.844975 1_455
Li18 S22 2.961776 1_555
Li19 S5 2.474504 1_565
Li19 S19 2.584780 1_556
Li19 S21 2.606128 1_555
Li19 S19 2.844975 1_656
Li19 S23 2.961776 1_556
Li20 S3 2.495762 1_565
Li20 S22 2.537337 1_555
Li20 S18 2.639671 1_555
Li20 S21 2.810213 1_555
Li20 S22 2.874560 1_655
Li21 S2 2.495762 1_565
Li21 S23 2.537337 1_555
Li21 S19 2.639671 1_555
Li21 S20 2.810213 1_555
Li21 S23 2.874560 1_455
Li22 S1 2.440777 1_565
Li22 S20 2.491186 1_655
Li22 S23 2.525074 1_555
Li22 S20 2.951668 1_555
Li23 S0 2.440777 1_565
Li23 S21 2.491186 1_455
Li23 S22 2.525074 1_555
Li23 S21 2.951668 1_555
Cu0 S5 2.300680 1_554
Cu0 S8 2.315457 1_555
Cu0 S2 2.385292 1_555
Cu0 Li0 2.676445 1_555
Cu0 Cu3 2.737278 1_555
Cu0 Li6 2.844577 1_555
Cu0 Li4 2.954552 1_555
Cu1 S4 2.300680 1_555
Cu1 S9 2.315457 1_555
Cu1 S3 2.385292 1_555
Cu1 Li1 2.676445 1_555
Cu1 Cu2 2.737278 1_555
Cu1 Li7 2.844577 1_555
Cu1 Li5 2.954552 1_555
Cu2 S0 2.297927 1_555
Cu2 S9 2.383177 1_555
Cu2 S11 2.427413 1_555
Cu2 Cu9 2.657332 1_555
Cu2 Cu9 2.657332 1_455
Cu2 Li9 2.682887 1_555
Cu2 Cu7 2.705415 1_555
Cu2 S3 2.772112 1_555
Cu2 Li11 2.821955 1_555
Cu2 Li3 2.899035 1_555
Cu2 Li1 2.943540 1_555
Cu3 S1 2.297927 1_555
Cu3 S8 2.383177 1_555
Cu3 S10 2.427413 1_555
Cu3 Cu8 2.657332 1_655
Cu3 Cu8 2.657332 1_555
Cu3 Li8 2.682887 1_555
Cu3 Cu6 2.705415 1_555
Cu3 S2 2.772112 1_555
Cu3 Li10 2.821955 1_555
Cu3 Li2 2.899035 1_555
Cu3 Li0 2.943540 1_555
Cu4 S7 2.335645 1_555
Cu4 S1 2.338426 1_555
Cu4 S4 2.357328 1_655
Cu4 Li5 2.694481 1_555
Cu4 Cu8 2.705415 1_655
Cu4 Li8 2.836240 1_555
Cu4 S10 2.954747 1_655
Cu4 Li7 2.975656 1_655
Cu5 S6 2.335645 1_555
Cu5 S0 2.338426 1_555
Cu5 S5 2.357328 1_455
Cu5 Li4 2.694481 1_556
Cu5 Cu9 2.705415 1_455
Cu5 Li9 2.836240 1_555
Cu5 S11 2.954747 1_455
Cu5 Li6 2.975656 1_456
Cu6 S4 2.335645 1_555
Cu6 S10 2.338426 1_555
Cu6 S7 2.357328 1_555
Cu6 Li7 2.694481 1_555
Cu6 Li2 2.836240 1_555
Cu6 S1 2.954747 1_555
Cu6 Li5 2.975656 1_555
Cu7 S5 2.335645 1_555
Cu7 S11 2.338426 1_555
Cu7 S6 2.357328 1_555
Cu7 Li6 2.694481 1_556
Cu7 Li3 2.836240 1_555
Cu7 S0 2.954747 1_555
Cu7 Li4 2.975656 1_556
Cu8 S10 2.297927 1_555
Cu8 S2 2.383177 1_555
Cu8 S1 2.427413 1_455
Cu8 Li2 2.682887 1_555
Cu8 S8 2.772112 1_455
Cu8 Li0 2.821955 1_455
Cu8 Li8 2.899035 1_455
Cu8 Li10 2.943540 1_555
Cu9 S11 2.297927 1_555
Cu9 S3 2.383177 1_555
Cu9 S0 2.427413 1_655
Cu9 Li3 2.682887 1_555
Cu9 S9 2.772112 1_655
Cu9 Li1 2.821955 1_655
Cu9 Li9 2.899035 1_655
Cu9 Li11 2.943540 1_555
Cu10 S6 2.300680 1_554
Cu10 S2 2.315457 1_555
Cu10 S8 2.385292 1_455
Cu10 Li10 2.676445 1_555
Cu10 Cu8 2.737278 1_555
Cu10 Li4 2.844577 1_555
Cu10 Li6 2.954552 1_455
Cu11 S7 2.300680 1_555
Cu11 S3 2.315457 1_555
Cu11 S9 2.385292 1_655
Cu11 Li11 2.676445 1_555
Cu11 Cu9 2.737278 1_555
Cu11 Li5 2.844577 1_555
Cu11 Li7 2.954552 1_655
Cu12 S17 2.300680 1_556
Cu12 S21 2.315457 1_555
Cu12 S15 2.385292 1_655
Cu12 Li12 2.676445 1_555
Cu12 Cu14 2.737278 1_555
Cu12 Li19 2.844577 1_555
Cu12 Li16 2.954552 1_655
Cu13 S16 2.300680 1_555
Cu13 S20 2.315457 1_555
Cu13 S14 2.385292 1_455
Cu13 Li13 2.676445 1_555
Cu13 Cu15 2.737278 1_555
Cu13 Li18 2.844577 1_555
Cu13 Li17 2.954552 1_455
Cu14 S12 2.297927 1_555
Cu14 S21 2.383177 1_555
Cu14 S22 2.427413 1_655
Cu14 Cu20 2.657332 1_555
Cu14 Cu20 2.657332 1_655
Cu14 Li20 2.682887 1_555
Cu14 Cu18 2.705415 1_655
Cu14 S15 2.772112 1_655
Cu14 Li23 2.821955 1_655
Cu14 Li15 2.899035 1_655
Cu14 Li12 2.943540 1_555
Cu15 S13 2.297927 1_555
Cu15 S20 2.383177 1_555
Cu15 S23 2.427413 1_455
Cu15 Cu21 2.657332 1_455
Cu15 Cu21 2.657332 1_555
Cu15 Li21 2.682887 1_555
Cu15 Cu19 2.705415 1_455
Cu15 S14 2.772112 1_455
Cu15 Li22 2.821955 1_455
Cu15 Li14 2.899035 1_455
Cu15 Li13 2.943540 1_555
Cu16 S19 2.335645 1_555
Cu16 S13 2.338426 1_555
Cu16 S17 2.357328 1_555
Cu16 Li16 2.694481 1_554
Cu16 Cu21 2.705415 1_555
Cu16 Li21 2.836240 1_555
Cu16 S23 2.954747 1_555
Cu16 Li19 2.975656 1_554
Cu17 S18 2.335645 1_555
Cu17 S12 2.338426 1_555
Cu17 S16 2.357328 1_555
Cu17 Li17 2.694481 1_555
Cu17 Cu20 2.705415 1_555
Cu17 Li20 2.836240 1_555
Cu17 S22 2.954747 1_555
Cu17 Li18 2.975656 1_555
Cu18 S16 2.335645 1_555
Cu18 S22 2.338426 1_555
Cu18 S18 2.357328 1_455
Cu18 Li18 2.694481 1_555
Cu18 Li15 2.836240 1_555
Cu18 S12 2.954747 1_455
Cu18 Li17 2.975656 1_455
Cu19 S17 2.335645 1_555
Cu19 S23 2.338426 1_555
Cu19 S19 2.357328 1_655
Cu19 Li19 2.694481 1_554
Cu19 Li14 2.836240 1_555
Cu19 S13 2.954747 1_655
Cu19 Li16 2.975656 1_654
Cu20 S22 2.297927 1_555
Cu20 S15 2.383177 1_555
Cu20 S12 2.427413 1_555
Cu20 Li15 2.682887 1_555
Cu20 Cu23 2.737278 1_555
Cu20 S21 2.772112 1_555
Cu20 Li12 2.821955 1_555
Cu20 Li20 2.899035 1_555
Cu20 Li23 2.943540 1_555
Cu21 S23 2.297927 1_555
Cu21 S14 2.383177 1_555
Cu21 S13 2.427413 1_555
Cu21 Li14 2.682887 1_555
Cu21 Cu22 2.737278 1_555
Cu21 S20 2.772112 1_555
Cu21 Li13 2.821955 1_555
Cu21 Li21 2.899035 1_555
Cu21 Li22 2.943540 1_555
Cu22 S18 2.300680 1_555
Cu22 S14 2.315457 1_555
Cu22 S20 2.385292 1_555
Cu22 Li22 2.676445 1_555
Cu22 Li17 2.844577 1_555
Cu22 Li18 2.954552 1_555
Cu23 S19 2.300680 1_556
Cu23 S15 2.315457 1_555
Cu23 S21 2.385292 1_555
Cu23 Li23 2.676445 1_555
Cu23 Li16 2.844577 1_555
Cu23 Li19 2.954552 1_555
