# generated using pymatgen
data_SmH10S3N3O11
_symmetry_space_group_name_H-M   'P 1'
_cell_length_a   7.92462900
_cell_length_b   9.17616062
_cell_length_c   9.24946085
_cell_angle_alpha   117.47905119
_cell_angle_beta   95.12146056
_cell_angle_gamma   92.41094458
_symmetry_Int_Tables_number   1
_chemical_formula_structural   SmH10S3N3O11
_chemical_formula_sum   'Sm2 H20 S6 N6 O22'
_cell_volume   591.69007201
_cell_formula_units_Z   2
loop_
 _symmetry_equiv_pos_site_id
 _symmetry_equiv_pos_as_xyz
  1  'x, y, z'
loop_
 _atom_site_type_symbol
 _atom_site_label
 _atom_site_symmetry_multiplicity
 _atom_site_fract_x
 _atom_site_fract_y
 _atom_site_fract_z
 _atom_site_occupancy
  Sm  Sm0  1  0.21774500  0.38197300  0.21996400  1
  Sm  Sm1  1  0.78225500  0.61802700  0.78003600  1
  H  H0  1  0.12841900  0.96468500  0.32689700  1
  H  H1  1  0.14137300  0.24636600  0.62572800  1
  H  H2  1  0.20097200  0.44887200  0.74540400  1
  H  H3  1  0.32048200  0.32753400  0.88497900  1
  H  H4  1  0.32328300  0.89660800  0.32353200  1
  H  H5  1  0.36721600  0.78850100  0.78574700  1
  H  H6  1  0.27092600  0.02949300  0.14480200  1
  H  H7  1  0.29367400  0.03591200  0.97495500  1
  H  H8  1  0.39988100  0.88207200  0.67210600  1
  H  H9  1  0.49485900  0.33927300  0.99556000  1
  H  H10  1  0.50514100  0.66072700  0.00444000  1
  H  H11  1  0.60011900  0.11792800  0.32789400  1
  H  H12  1  0.70632600  0.96408800  0.02504500  1
  H  H13  1  0.72907400  0.97050700  0.85519800  1
  H  H14  1  0.63278400  0.21149900  0.21425300  1
  H  H15  1  0.67671700  0.10339200  0.67646800  1
  H  H16  1  0.67951800  0.67246600  0.11502100  1
  H  H17  1  0.79902800  0.55112800  0.25459600  1
  H  H18  1  0.85862700  0.75363400  0.37427200  1
  H  H19  1  0.87158100  0.03531500  0.67310300  1
  S  S0  1  0.13474700  0.76211700  0.61913100  1
  S  S1  1  0.14510000  0.72121900  0.10446700  1
  S  S2  1  0.39906800  0.32232700  0.58434900  1
  S  S3  1  0.60093200  0.67767300  0.41565100  1
  S  S4  1  0.85490000  0.27878100  0.89553300  1
  S  S5  1  0.86525300  0.23788300  0.38086900  1
  N  N0  1  0.24159800  0.33277900  0.69634700  1
  N  N1  1  0.22070900  0.90789000  0.25339700  1
  N  N2  1  0.31501600  0.86185500  0.74050300  1
  N  N3  1  0.68498400  0.13814500  0.25949700  1
  N  N4  1  0.77929100  0.09211000  0.74660300  1
  N  N5  1  0.75840200  0.66722100  0.30365300  1
  O  O0  1  0.02089100  0.25213900  0.95905300  1
  O  O1  1  0.03493700  0.72982100  0.73026000  1
  O  O2  1  0.06354000  0.87426200  0.56416400  1
  O  O3  1  0.12539900  0.60700000  0.17547000  1
  O  O4  1  0.17306800  0.60526200  0.48350900  1
  O  O5  1  0.27059700  0.67369300  0.98801100  1
  O  O6  1  0.37020300  0.33567900  0.99176400  1
  O  O7  1  0.32607000  0.29795800  0.42186600  1
  O  O8  1  0.29785000  0.10280600  0.09514500  1
  O  O9  1  0.49727300  0.48487800  0.68170200  1
  O  O10  1  0.48945800  0.18290100  0.57063100  1
  O  O11  1  0.51054200  0.81709900  0.42936900  1
  O  O12  1  0.50272700  0.51512200  0.31829800  1
  O  O13  1  0.70215000  0.89719400  0.90485500  1
  O  O14  1  0.67393000  0.70204200  0.57813400  1
  O  O15  1  0.62979700  0.66432100  0.00823600  1
  O  O16  1  0.72940300  0.32630700  0.01198900  1
  O  O17  1  0.82693200  0.39473800  0.51649100  1
  O  O18  1  0.87460100  0.39300000  0.82453000  1
  O  O19  1  0.93646000  0.12573800  0.43583600  1
  O  O20  1  0.96506300  0.27017900  0.26974000  1
  O  O21  1  0.97910900  0.74786100  0.04094700  1
loop_
_geom_bond_atom_site_label_1
_geom_bond_atom_site_label_2
_geom_bond_distance
_geom_bond_site_symmetry_2
H0 N1 1.030799 1_555
H1 N0 1.030848 1_555
H2 N0 1.026270 1_555
H3 O6 0.998154 1_555
H4 N1 1.033053 1_555
H5 N2 1.025569 1_555
H6 O8 0.999808 1_555
H7 O8 0.987787 1_556
H8 N2 1.029904 1_555
H9 O6 0.983957 1_555
H10 O15 0.983957 1_555
H11 N3 1.029904 1_555
H12 O13 0.987787 1_554
H13 O13 0.999808 1_555
H14 N3 1.025569 1_555
H15 N4 1.033053 1_555
H16 O15 0.998154 1_555
H17 N5 1.026270 1_555
H18 N5 1.030848 1_555
H19 N4 1.030799 1_555
N0 S2 1.669952 1_555
N1 S1 1.667163 1_555
N2 S0 1.671587 1_555
N3 S5 1.671587 1_555
N4 S4 1.667163 1_555
N5 S3 1.669952 1_555
O0 S4 1.468640 1_455
O0 Sm0 2.488996 1_556
O1 S0 1.475306 1_555
O1 Sm1 2.387802 1_455
O2 S0 1.454762 1_555
O3 S1 1.481194 1_555
O3 Sm0 2.413763 1_555
O4 S0 1.475137 1_555
O4 Sm0 2.423116 1_555
O5 S1 1.460736 1_556
O6 Sm0 2.401314 1_556
O7 S2 1.472093 1_555
O7 Sm0 2.432458 1_555
O8 Sm0 2.415869 1_555
O9 S2 1.476165 1_555
O9 Sm1 2.407469 1_555
O10 S2 1.452435 1_555
O11 S3 1.452435 1_555
O12 S3 1.476165 1_555
O12 Sm0 2.407469 1_555
O13 Sm1 2.415869 1_555
O14 S3 1.472093 1_555
O14 Sm1 2.432458 1_555
O15 Sm1 2.401314 1_554
O16 S4 1.460736 1_554
O17 S5 1.475137 1_555
O17 Sm1 2.423116 1_555
O18 S4 1.481194 1_555
O18 Sm1 2.413763 1_555
O19 S5 1.454762 1_555
O20 S5 1.475306 1_555
O20 Sm0 2.387802 1_655
O21 S1 1.468640 1_655
O21 Sm1 2.488996 1_554
