# generated using pymatgen
data_LiFeO2
_symmetry_space_group_name_H-M   'P 1'
_cell_length_a   5.88687081
_cell_length_b   5.88691638
_cell_length_c   5.88691710
_cell_angle_alpha   90.02595129
_cell_angle_beta   60.01457401
_cell_angle_gamma   60.01457249
_symmetry_Int_Tables_number   1
_chemical_formula_structural   LiFeO2
_chemical_formula_sum   'Li4 Fe4 O8'
_cell_volume   144.29065923
_cell_formula_units_Z   4
loop_
 _symmetry_equiv_pos_site_id
 _symmetry_equiv_pos_as_xyz
  1  'x, y, z'
loop_
 _atom_site_type_symbol
 _atom_site_label
 _atom_site_symmetry_multiplicity
 _atom_site_fract_x
 _atom_site_fract_y
 _atom_site_fract_z
 _atom_site_occupancy
  Li  Li0  1  0.50000000  0.50000000  0.50000000  1
  Li  Li1  1  0.50000000  0.50000000  0.00000000  1
  Li  Li2  1  -0.00000000  0.50000000  0.50000000  1
  Li  Li3  1  -0.00000000  0.00000000  0.50000000  1
  Fe  Fe0  1  0.50000000  0.00000000  0.50000000  1
  Fe  Fe1  1  0.50000000  0.00000000  0.00000000  1
  Fe  Fe2  1  -0.00000000  0.50000000  0.00000000  1
  Fe  Fe3  1  -0.00000000  0.00000000  0.00000000  1
  O  O0  1  0.98869012  0.75559513  0.76692659  1
  O  O1  1  0.98865767  0.75570423  0.24440715  1
  O  O2  1  0.48869105  0.76692726  0.75559381  1
  O  O3  1  0.51134114  0.75559439  0.24429596  1
  O  O4  1  0.48865886  0.24440561  0.75570404  1
  O  O5  1  0.51130895  0.23307274  0.24440619  1
  O  O6  1  0.01134233  0.24429577  0.75559285  1
  O  O7  1  0.01130988  0.24440487  0.23307341  1
loop_
_geom_bond_atom_site_label_1
_geom_bond_atom_site_label_2
_geom_bond_distance
_geom_bond_site_symmetry_2
Li0 O5 2.128574 1_555
Li0 O2 2.128574 1_555
Li0 O3 2.129890 1_555
Li0 O4 2.129890 1_555
Li0 O7 2.129892 1_655
Li0 O0 2.129892 1_455
Li1 O3 2.128654 1_555
Li1 O4 2.128654 1_554
Li1 O1 2.130026 1_455
Li1 O6 2.130026 1_654
Li1 O2 2.130031 1_554
Li1 O5 2.130031 1_555
Li2 O0 2.128572 1_455
Li2 O7 2.128572 1_555
Li2 O6 2.129884 1_555
Li2 O1 2.129884 1_455
Li2 O2 2.129888 1_455
Li2 O5 2.129888 1_555
Li3 O1 2.128652 1_445
Li3 O6 2.128652 1_555
Li3 O4 2.130021 1_455
Li3 O3 2.130021 1_545
Li3 O0 2.130022 1_445
Li3 O7 2.130022 1_555
Fe0 O4 2.035217 1_555
Fe0 O3 2.035217 1_545
Fe0 O6 2.035625 1_555
Fe0 O1 2.035625 1_545
Fe0 O5 2.035702 1_555
Fe0 O2 2.035702 1_545
Fe1 O5 2.035298 1_555
Fe1 O2 2.035298 1_544
Fe1 O7 2.035762 1_555
Fe1 O0 2.035762 1_544
Fe1 O4 2.035853 1_554
Fe1 O3 2.035853 1_545
Fe2 O6 2.035219 1_554
Fe2 O1 2.035219 1_455
Fe2 O3 2.035630 1_455
Fe2 O4 2.035630 1_554
Fe2 O7 2.035710 1_555
Fe2 O0 2.035710 1_454
Fe3 O7 2.035299 1_555
Fe3 O0 2.035299 1_444
Fe3 O2 2.035766 1_544
Fe3 O5 2.035766 1_455
Fe3 O1 2.035858 1_445
Fe3 O6 2.035858 1_554
