# generated using pymatgen
data_Li4Mn2Cu3Sn3O16
_symmetry_space_group_name_H-M   'P 1'
_cell_length_a   6.04664303
_cell_length_b   6.11455897
_cell_length_c   9.58827612
_cell_angle_alpha   89.99513022
_cell_angle_beta   90.17795926
_cell_angle_gamma   120.36675916
_symmetry_Int_Tables_number   1
_chemical_formula_structural   Li4Mn2Cu3Sn3O16
_chemical_formula_sum   'Li4 Mn2 Cu3 Sn3 O16'
_cell_volume   305.86583910
_cell_formula_units_Z   1
loop_
 _symmetry_equiv_pos_site_id
 _symmetry_equiv_pos_as_xyz
  1  'x, y, z'
loop_
 _atom_site_type_symbol
 _atom_site_label
 _atom_site_symmetry_multiplicity
 _atom_site_fract_x
 _atom_site_fract_y
 _atom_site_fract_z
 _atom_site_occupancy
  Li  Li0  1  0.35187500  0.67604300  0.89195700  1
  Li  Li1  1  0.95320800  0.97665600  0.98528700  1
  Li  Li2  1  0.96284900  0.98146200  0.49875900  1
  Li  Li3  1  0.67163800  0.33583700  0.40431400  1
  Mn  Mn0  1  0.33670800  0.66830200  0.49092800  1
  Mn  Mn1  1  0.68609700  0.34313400  0.98032200  1
  Cu  Cu0  1  0.66286400  0.83130200  0.21338400  1
  Cu  Cu1  1  0.83388300  0.65998700  0.71195300  1
  Cu  Cu2  1  0.83399500  0.17406600  0.71196400  1
  Sn  Sn0  1  0.17307700  0.83260100  0.21209100  1
  Sn  Sn1  1  0.17294200  0.34033600  0.21212700  1
  Sn  Sn2  1  0.34160300  0.17077400  0.71050000  1
  O  O0  1  0.16656700  0.83232200  0.59244600  1
  O  O1  1  0.03548400  0.51773100  0.34700300  1
  O  O2  1  0.35068400  0.67525300  0.10011700  1
  O  O3  1  0.98731400  0.99359200  0.30974800  1
  O  O4  1  0.98552000  0.99275900  0.79890500  1
  O  O5  1  0.16656900  0.33417700  0.59233000  1
  O  O6  1  0.47572100  0.95757400  0.35520800  1
  O  O7  1  0.47568300  0.51805900  0.35518300  1
  O  O8  1  0.33758900  0.16879500  0.09459100  1
  O  O9  1  0.64360000  0.82157400  0.59669800  1
  O  O10  1  0.53036200  0.48087100  0.85072300  1
  O  O11  1  0.53052600  0.04971500  0.85077600  1
  O  O12  1  0.68490300  0.34253800  0.60788800  1
  O  O13  1  0.84095600  0.66220800  0.09034400  1
  O  O14  1  0.96675400  0.48376400  0.85201000  1
  O  O15  1  0.84102900  0.17886900  0.09028600  1
loop_
_geom_bond_atom_site_label_1
_geom_bond_atom_site_label_2
_geom_bond_distance
_geom_bond_site_symmetry_2
Li0 O2 1.995928 1_556
Li0 O10 2.012515 1_555
Li0 O11 2.012543 1_565
Li0 O14 2.044057 1_455
Li1 O4 1.795611 1_555
Li1 O15 1.963384 1_566
Li1 O13 1.963833 1_556
Li1 O8 2.259399 1_666
Li2 O3 1.817231 1_555
Li2 O9 1.914944 1_555
Li2 O5 2.069073 1_665
Li2 O0 2.069937 1_655
Li3 O12 1.952905 1_555
Li3 O1 1.978028 1_655
Li3 O7 2.049033 1_555
Li3 O6 2.049647 1_545
Mn0 O9 1.892205 1_555
Mn0 O7 2.007910 1_555
Mn0 O6 2.007914 1_555
Mn0 O5 2.014559 1_555
Mn0 O0 2.015260 1_555
Mn0 O1 2.087733 1_555
Mn1 O14 1.915809 1_555
Mn1 O11 1.983277 1_555
Mn1 O10 1.983581 1_555
Mn1 O13 1.985744 1_556
Mn1 O15 1.985748 1_556
Mn1 O8 2.126127 1_556
Cu0 O3 1.925561 1_555
Cu0 O2 1.954349 1_555
Cu0 O7 2.148346 1_555
Cu0 O6 2.149165 1_555
Cu0 O13 2.180426 1_555
Cu0 O15 2.182400 1_565
Cu1 O4 1.945571 1_555
Cu1 O12 1.949783 1_555
Cu1 O10 2.078656 1_555
Cu1 O0 2.083489 1_655
Cu1 O14 2.116197 1_555
Cu1 O9 2.159298 1_555
Cu2 O4 1.945625 1_545
Cu2 O12 1.950101 1_555
Cu2 O11 2.078715 1_555
Cu2 O5 2.083702 1_655
Cu2 O14 2.119025 1_555
Cu2 O9 2.162412 1_545
O0 Sn2 2.112493 1_565
O1 Sn1 2.111461 1_555
O1 Sn0 2.111635 1_555
O2 Sn0 2.069707 1_555
O2 Sn1 2.069731 1_555
O3 Sn1 2.057003 1_665
O3 Sn0 2.057208 1_655
O4 Sn2 2.044701 1_665
O5 Sn2 2.112754 1_555
O6 Sn0 2.094405 1_555
O7 Sn1 2.094447 1_555
O8 Sn0 2.103252 1_545
O8 Sn1 2.103415 1_555
O10 Sn2 2.123300 1_555
O11 Sn2 2.123009 1_555
O12 Sn2 2.046531 1_555
O13 Sn0 2.085979 1_655
O15 Sn1 2.085588 1_655
