# generated using pymatgen
data_FeOF
_symmetry_space_group_name_H-M   'P 1'
_cell_length_a   14.16717598
_cell_length_b   14.14719904
_cell_length_c   3.09071100
_cell_angle_alpha   90.00000000
_cell_angle_beta   90.00000000
_cell_angle_gamma   90.50688884
_symmetry_Int_Tables_number   1
_chemical_formula_structural   FeOF
_chemical_formula_sum   'Fe18 O18 F18'
_cell_volume   619.43416372
_cell_formula_units_Z   18
loop_
 _symmetry_equiv_pos_site_id
 _symmetry_equiv_pos_as_xyz
  1  'x, y, z'
loop_
 _atom_site_type_symbol
 _atom_site_label
 _atom_site_symmetry_multiplicity
 _atom_site_fract_x
 _atom_site_fract_y
 _atom_site_fract_z
 _atom_site_occupancy
  Fe  Fe0  1  0.01350000  0.99725100  0.00000000  1
  Fe  Fe1  1  0.00566500  0.33670300  0.00000000  1
  Fe  Fe2  1  0.01014900  0.66171900  0.00000000  1
  Fe  Fe3  1  0.17244300  0.14691200  0.50000000  1
  Fe  Fe4  1  0.15594100  0.49711500  0.50000000  1
  Fe  Fe5  1  0.17680800  0.85274500  0.50000000  1
  Fe  Fe6  1  0.33549800  0.99995600  0.00000000  1
  Fe  Fe7  1  0.34654900  0.32924600  0.00000000  1
  Fe  Fe8  1  0.34656300  0.66477100  0.00000000  1
  Fe  Fe9  1  0.48743500  0.49717900  0.50000000  1
  Fe  Fe10  1  0.48276400  0.15792200  0.50000000  1
  Fe  Fe11  1  0.48236600  0.83740600  0.50000000  1
  Fe  Fe12  1  0.67913400  0.99693700  0.00000000  1
  Fe  Fe13  1  0.67702600  0.32731800  0.00000000  1
  Fe  Fe14  1  0.67637900  0.66624100  0.00000000  1
  Fe  Fe15  1  0.82038900  0.16327000  0.50000000  1
  Fe  Fe16  1  0.81471200  0.49820600  0.50000000  1
  Fe  Fe17  1  0.82107800  0.83098500  0.50000000  1
  O  O0  1  0.06573700  0.60357300  0.50000000  1
  O  O1  1  0.06444200  0.93386400  0.50000000  1
  O  O2  1  0.10460200  0.10129100  0.00000000  1
  O  O3  1  0.10112200  0.43316200  0.00000000  1
  O  O4  1  0.23958800  0.90476800  0.00000000  1
  O  O5  1  0.27450700  0.06044100  0.50000000  1
  O  O6  1  0.39767500  0.26710800  0.50000000  1
  O  O7  1  0.39887200  0.60227400  0.50000000  1
  O  O8  1  0.39516500  0.93996100  0.50000000  1
  O  O9  1  0.43008000  0.09581700  0.00000000  1
  O  O10  1  0.43464100  0.43521900  0.00000000  1
  O  O11  1  0.43113000  0.77325400  0.00000000  1
  O  O12  1  0.73249900  0.26833200  0.50000000  1
  O  O13  1  0.72978800  0.60341800  0.50000000  1
  O  O14  1  0.73160000  0.93555800  0.50000000  1
  O  O15  1  0.76813200  0.10273700  0.00000000  1
  O  O16  1  0.76640600  0.43455200  0.00000000  1
  O  O17  1  0.76837600  0.76882400  0.00000000  1
  F  F0  1  0.06702200  0.26450300  0.50000000  1
  F  F1  1  0.10508400  0.77248100  0.00000000  1
  F  F2  1  0.23201200  0.23410200  0.00000000  1
  F  F3  1  0.23343600  0.56569700  0.00000000  1
  F  F4  1  0.26341500  0.73116600  0.50000000  1
  F  F5  1  0.26785100  0.40015300  0.50000000  1
  F  F6  1  0.56343800  0.23034500  0.00000000  1
  F  F7  1  0.56638500  0.56726500  0.00000000  1
  F  F8  1  0.56474900  0.90289600  0.00000000  1
  F  F9  1  0.59935100  0.06731600  0.50000000  1
  F  F10  1  0.59949800  0.39966900  0.50000000  1
  F  F11  1  0.59881100  0.73475800  0.50000000  1
  F  F12  1  0.90336300  0.23480400  0.00000000  1
  F  F13  1  0.89803600  0.56585200  0.00000000  1
  F  F14  1  0.89891700  0.90096800  0.00000000  1
  F  F15  1  0.93321800  0.06745400  0.50000000  1
  F  F16  1  0.93097700  0.40039600  0.50000000  1
  F  F17  1  0.93567600  0.73414200  0.50000000  1
loop_
_geom_bond_atom_site_label_1
_geom_bond_atom_site_label_2
_geom_bond_distance
_geom_bond_site_symmetry_2
Fe0 O1 1.929920 1_554
Fe0 O1 1.929920 1_555
Fe0 O2 1.949000 1_565
Fe1 O3 1.912698 1_555
Fe2 O0 1.922617 1_554
Fe2 O0 1.922617 1_555
Fe3 O5 1.902265 1_555
Fe3 O2 1.928067 1_556
Fe3 O2 1.928067 1_555
Fe4 O3 1.948699 1_555
Fe4 O3 1.948699 1_556
Fe4 O0 1.983799 1_555
Fe5 O4 1.925946 1_556
Fe5 O4 1.925946 1_555
Fe5 O1 1.970660 1_555
Fe6 O9 1.898031 1_565
Fe6 O4 1.904558 1_555
Fe6 O8 1.958512 1_555
Fe6 O8 1.958512 1_554
Fe6 O5 1.969780 1_565
Fe6 O5 1.969780 1_564
Fe7 O6 1.922705 1_555
Fe7 O6 1.922705 1_554
Fe7 O10 1.942189 1_555
Fe8 O7 1.931486 1_554
Fe8 O7 1.931486 1_555
Fe8 O11 1.938621 1_555
Fe9 O10 1.924655 1_556
Fe9 O10 1.924655 1_555
Fe9 O7 1.953925 1_555
Fe10 O9 1.924985 1_556
Fe10 O9 1.924985 1_555
Fe10 O6 1.967773 1_555
Fe11 O8 1.913875 1_555
Fe11 O11 1.930554 1_556
Fe11 O11 1.930554 1_555
Fe12 O14 1.925110 1_555
Fe12 O14 1.925110 1_554
Fe12 O15 1.948508 1_565
Fe13 O12 1.927103 1_555
Fe13 O12 1.927103 1_554
Fe13 O16 1.967461 1_555
Fe14 O13 1.939706 1_555
Fe14 O13 1.939706 1_554
Fe14 O17 1.942005 1_555
Fe15 O15 1.912688 1_555
Fe15 O15 1.912688 1_556
Fe15 O12 1.947393 1_555
Fe16 O16 1.912201 1_555
Fe16 O16 1.912201 1_556
Fe16 O13 1.922164 1_555
Fe17 O17 1.925442 1_556
Fe17 O17 1.925442 1_555
Fe17 O14 1.956729 1_555
F0 Fe1 2.050062 1_555
F0 Fe1 2.050062 1_556
F0 Fe3 2.245455 1_555
F1 Fe2 2.055975 1_555
F1 Fe5 2.165550 1_554
F1 Fe5 2.165550 1_555
F2 Fe7 2.099088 1_555
F2 Fe3 2.145559 1_554
F2 Fe3 2.145559 1_555
F3 Fe8 2.119766 1_555
F3 Fe4 2.125088 1_555
F3 Fe4 2.125088 1_554
F4 Fe5 2.121608 1_555
F4 Fe8 2.162778 1_556
F4 Fe8 2.162778 1_555
F5 Fe4 2.105659 1_555
F5 Fe7 2.158068 1_556
F5 Fe7 2.158068 1_555
F6 Fe13 2.105381 1_555
F6 Fe10 2.173349 1_555
F6 Fe10 2.173349 1_554
F7 Fe14 2.085751 1_555
F7 Fe9 2.145380 1_555
F7 Fe9 2.145380 1_554
F8 Fe12 2.087564 1_555
F8 Fe11 2.142334 1_555
F8 Fe11 2.142334 1_554
F9 Fe10 2.099683 1_555
F9 Fe12 2.162629 1_546
F9 Fe12 2.162629 1_545
F10 Fe9 2.112410 1_555
F10 Fe13 2.159184 1_555
F10 Fe13 2.159184 1_556
F11 Fe14 2.134053 1_556
F11 Fe14 2.134053 1_555
F11 Fe11 2.207424 1_555
F12 Fe1 2.035131 1_655
F12 Fe15 2.184731 1_555
F12 Fe15 2.184731 1_554
F13 Fe2 2.079441 1_655
F13 Fe16 2.162750 1_555
F13 Fe16 2.162750 1_554
F14 Fe0 2.109845 1_655
F14 Fe17 2.136611 1_555
F14 Fe17 2.136611 1_554
F15 Fe15 2.104969 1_555
F15 Fe0 2.165206 1_646
F15 Fe0 2.165206 1_645
F16 Fe1 2.082438 1_655
F16 Fe1 2.082438 1_656
F16 Fe16 2.160590 1_555
F17 Fe17 2.133603 1_555
F17 Fe2 2.137802 1_655
F17 Fe2 2.137802 1_656
