# generated using pymatgen
data_Dy(NO5)3
_symmetry_space_group_name_H-M   'P 1'
_cell_length_a   7.08200200
_cell_length_b   8.91738181
_cell_length_c   12.06566041
_cell_angle_alpha   110.73289827
_cell_angle_beta   89.06302289
_cell_angle_gamma   113.35328809
_symmetry_Int_Tables_number   1
_chemical_formula_structural   Dy(NO5)3
_chemical_formula_sum   'Dy2 N6 O30'
_cell_volume   647.39975087
_cell_formula_units_Z   2
loop_
 _symmetry_equiv_pos_site_id
 _symmetry_equiv_pos_as_xyz
  1  'x, y, z'
loop_
 _atom_site_type_symbol
 _atom_site_label
 _atom_site_symmetry_multiplicity
 _atom_site_fract_x
 _atom_site_fract_y
 _atom_site_fract_z
 _atom_site_occupancy
  Dy  Dy0  1  0.10151500  0.06165100  0.27939800  1
  Dy  Dy1  1  0.89848500  0.93834900  0.72060200  1
  N  N0  1  0.08367100  0.81566100  0.50945500  1
  N  N1  1  0.91632900  0.18433900  0.49054500  1
  N  N2  1  0.17171400  0.10402600  0.81482700  1
  N  N3  1  0.82828600  0.89597400  0.18517300  1
  N  N4  1  0.07557900  0.49929300  0.16749900  1
  N  N5  1  0.92442100  0.50070700  0.83250100  1
  O  O0  1  0.41718500  0.62915100  0.50235500  1
  O  O1  1  0.58281500  0.37084900  0.49764500  1
  O  O2  1  0.90677300  0.75263900  0.29881900  1
  O  O3  1  0.09322700  0.24736100  0.70118100  1
  O  O4  1  0.53106900  0.00103200  0.30942400  1
  O  O5  1  0.46893100  0.99896800  0.69057600  1
  O  O6  1  0.25021900  0.41901000  0.22579400  1
  O  O7  1  0.74978100  0.58099000  0.77420600  1
  O  O8  1  0.93311200  0.80672900  0.43911200  1
  O  O9  1  0.06688800  0.19327100  0.56088800  1
  O  O10  1  0.92442700  0.36121700  0.16131100  1
  O  O11  1  0.07557300  0.63878300  0.83868900  1
  O  O12  1  0.31964000  0.16982200  0.85320900  1
  O  O13  1  0.68036000  0.83017800  0.14679100  1
  O  O14  1  0.43204900  0.55444300  0.05281500  1
  O  O15  1  0.56795100  0.44555700  0.94718500  1
  O  O16  1  0.91896700  0.11709100  0.11786400  1
  O  O17  1  0.08103300  0.88290900  0.88213600  1
  O  O18  1  0.26047700  0.92796600  0.47089000  1
  O  O19  1  0.73952300  0.07203400  0.52911000  1
  O  O20  1  0.05281100  0.72531100  0.60215800  1
  O  O21  1  0.94718900  0.27468900  0.39784200  1
  O  O22  1  0.43052300  0.42786500  0.42079100  1
  O  O23  1  0.56947700  0.57213500  0.57920900  1
  O  O24  1  0.04921600  0.68209700  0.12261100  1
  O  O25  1  0.95078400  0.31790300  0.87738900  1
  O  O26  1  0.38227900  0.05518600  0.22654500  1
  O  O27  1  0.61772100  0.94481400  0.77345500  1
  O  O28  1  0.41137200  0.29983600  0.99132600  1
  O  O29  1  0.58862800  0.70016400  0.00867400  1
loop_
_geom_bond_atom_site_label_1
_geom_bond_atom_site_label_2
_geom_bond_distance
_geom_bond_site_symmetry_2
Dy0 N3 1.958512 1_445
Dy0 O26 2.094515 1_555
Dy0 O21 2.553162 1_455
Dy0 O2 2.642701 1_445
Dy0 O16 2.643056 1_455
Dy0 O22 3.026059 1_555
Dy1 N2 1.958512 1_665
Dy1 O27 2.094515 1_555
Dy1 O20 2.553162 1_655
Dy1 O3 2.642701 1_665
Dy1 O17 2.643056 1_655
Dy1 O23 3.026059 1_555
N0 O8 1.333419 1_455
N0 O18 1.450529 1_555
N0 O20 1.561553 1_555
N1 O9 1.333419 1_655
N1 O19 1.450529 1_555
N1 O21 1.561553 1_555
N2 O12 0.996186 1_555
N3 O13 0.996186 1_555
N4 O10 1.249036 1_455
N4 O6 1.903652 1_555
N4 O24 1.963473 1_555
N5 O11 1.249036 1_655
N5 O7 1.903652 1_555
N5 O25 1.963473 1_555
O0 O22 1.754975 1_555
O0 O23 1.755811 1_555
O1 O23 1.754975 1_555
O1 O22 1.755811 1_555
O2 O8 1.579142 1_555
O3 O9 1.579142 1_555
O12 O28 1.616683 1_555
O13 O29 1.616683 1_555
O14 O29 1.590651 1_555
O14 O15 1.821552 1_554
O15 O28 1.590651 1_555
O22 O23 1.895725 1_555
O26 O4 1.767294 1_555
O27 O5 1.767294 1_555
