# generated using pymatgen
data_SN
_symmetry_space_group_name_H-M   'P 1'
_cell_length_a   3.63393800
_cell_length_b   3.64231700
_cell_length_c   3.64231700
_cell_angle_alpha   90.00000000
_cell_angle_beta   90.00000000
_cell_angle_gamma   90.00000000
_symmetry_Int_Tables_number   1
_chemical_formula_structural   SN
_chemical_formula_sum   'S2 N2'
_cell_volume   48.20954083
_cell_formula_units_Z   2
loop_
 _symmetry_equiv_pos_site_id
 _symmetry_equiv_pos_as_xyz
  1  'x, y, z'
loop_
 _atom_site_type_symbol
 _atom_site_label
 _atom_site_symmetry_multiplicity
 _atom_site_fract_x
 _atom_site_fract_y
 _atom_site_fract_z
 _atom_site_occupancy
  S  S0  1  0.17848500  0.50000000  0.00000000  1
  S  S1  1  0.82151500  0.00000000  0.50000000  1
  N  N0  1  0.00000000  0.50000000  0.50000000  1
  N  N1  1  0.00000000  0.00000000  0.00000000  1
loop_
_geom_bond_atom_site_label_1
_geom_bond_atom_site_label_2
_geom_bond_distance
_geom_bond_site_symmetry_2
N0 S0 1.933211 1_556
N0 S1 1.933211 1_455
N0 S1 1.933211 1_465
N0 S0 1.933211 1_555
N1 S1 1.933211 1_455
N1 S1 1.933211 1_454
N1 S0 1.933211 1_545
N1 S0 1.933211 1_555
