# generated using pymatgen
data_LiTiS2
_symmetry_space_group_name_H-M   'P 1'
_cell_length_a   7.11210829
_cell_length_b   7.11210829
_cell_length_c   7.11210829
_cell_angle_alpha   60.00000000
_cell_angle_beta   60.00000000
_cell_angle_gamma   60.00000000
_symmetry_Int_Tables_number   1
_chemical_formula_structural   LiTiS2
_chemical_formula_sum   'Li4 Ti4 S8'
_cell_volume   254.37831369
_cell_formula_units_Z   4
loop_
 _symmetry_equiv_pos_site_id
 _symmetry_equiv_pos_as_xyz
  1  'x, y, z'
loop_
 _atom_site_type_symbol
 _atom_site_label
 _atom_site_symmetry_multiplicity
 _atom_site_fract_x
 _atom_site_fract_y
 _atom_site_fract_z
 _atom_site_occupancy
  Li  Li0  1  0.12500000  0.12500000  0.12500000  1
  Li  Li1  1  0.62500000  0.12500000  0.12500000  1
  Li  Li2  1  0.12500000  0.62500000  0.12500000  1
  Li  Li3  1  0.12500000  0.12500000  0.62500000  1
  Ti  Ti0  1  0.62500000  0.62500000  0.12500000  1
  Ti  Ti1  1  0.62500000  0.62500000  0.62500000  1
  Ti  Ti2  1  0.62500000  0.12500000  0.62500000  1
  Ti  Ti3  1  0.12500000  0.62500000  0.62500000  1
  S  S0  1  0.87217700  0.38346800  0.87217700  1
  S  S1  1  0.87217700  0.87217700  0.38346800  1
  S  S2  1  0.87217700  0.87217700  0.87217700  1
  S  S3  1  0.38346800  0.87217700  0.87217700  1
  S  S4  1  0.37782300  0.37782300  0.37782300  1
  S  S5  1  0.86653200  0.37782300  0.37782300  1
  S  S6  1  0.37782300  0.86653200  0.37782300  1
  S  S7  1  0.37782300  0.37782300  0.86653200  1
loop_
_geom_bond_atom_site_label_1
_geom_bond_atom_site_label_2
_geom_bond_distance
_geom_bond_site_symmetry_2
Li0 S0 2.543221 1_454
Li0 S6 2.543221 1_545
Li0 S7 2.543221 1_554
Li0 S3 2.543221 1_544
Li0 S1 2.543221 1_445
Li0 S5 2.543221 1_455
Li1 S0 2.543216 1_554
Li1 S1 2.543216 1_545
Li1 S6 2.543216 1_545
Li1 S7 2.543216 1_554
Li1 S2 2.543221 1_544
Li1 S4 2.543221 1_555
Li2 S1 2.543216 1_455
Li2 S3 2.543216 1_554
Li2 S7 2.543216 1_554
Li2 S5 2.543216 1_455
Li2 S4 2.543221 1_555
Li2 S2 2.543221 1_454
Li3 S3 2.543216 1_545
Li3 S0 2.543216 1_455
Li3 S6 2.543216 1_545
Li3 S5 2.543216 1_455
Li3 S4 2.543221 1_555
Li3 S2 2.543221 1_445
S0 Ti1 2.486440 1_555
S0 Ti3 2.486445 1_655
S0 Ti0 2.486445 1_556
S1 Ti1 2.486440 1_555
S1 Ti3 2.486445 1_655
S1 Ti2 2.486445 1_565
S2 Ti3 2.486440 1_655
S2 Ti0 2.486440 1_556
S2 Ti2 2.486440 1_565
S3 Ti1 2.486440 1_555
S3 Ti0 2.486445 1_556
S3 Ti2 2.486445 1_565
S4 Ti2 2.486440 1_555
S4 Ti3 2.486440 1_555
S4 Ti0 2.486440 1_555
S5 Ti1 2.486440 1_555
S5 Ti0 2.486445 1_555
S5 Ti2 2.486445 1_555
S6 Ti1 2.486440 1_555
S6 Ti3 2.486445 1_555
S6 Ti0 2.486445 1_555
S7 Ti1 2.486440 1_555
S7 Ti3 2.486445 1_555
S7 Ti2 2.486445 1_555
