# generated using pymatgen
data_Li2VO2F
_symmetry_space_group_name_H-M   'P 1'
_cell_length_a   2.97606088
_cell_length_b   2.97606088
_cell_length_c   14.51800300
_cell_angle_alpha   90.00000000
_cell_angle_beta   90.00000000
_cell_angle_gamma   119.99997506
_symmetry_Int_Tables_number   1
_chemical_formula_structural   Li2VO2F
_chemical_formula_sum   'Li4 V2 O4 F2'
_cell_volume   111.35795437
_cell_formula_units_Z   2
loop_
 _symmetry_equiv_pos_site_id
 _symmetry_equiv_pos_as_xyz
  1  'x, y, z'
loop_
 _atom_site_type_symbol
 _atom_site_label
 _atom_site_symmetry_multiplicity
 _atom_site_fract_x
 _atom_site_fract_y
 _atom_site_fract_z
 _atom_site_occupancy
  Li  Li0  1  0.66666700  0.33333300  0.33854000  1
  Li  Li1  1  0.00000000  0.00000000  0.00000000  1
  Li  Li2  1  0.00000000  0.00000000  0.50000000  1
  Li  Li3  1  0.33333300  0.66666700  0.66146000  1
  V  V0  1  0.66666700  0.33333300  0.83135400  1
  V  V1  1  0.33333300  0.66666700  0.16864600  1
  O  O0  1  0.66666700  0.33333300  0.09085700  1
  O  O1  1  0.00000000  0.00000000  0.24642300  1
  O  O2  1  0.00000000  0.00000000  0.75357700  1
  O  O3  1  0.33333300  0.66666700  0.90914300  1
  F  F0  1  0.66666700  0.33333300  0.58100000  1
  F  F1  1  0.33333300  0.66666700  0.41900000  1
loop_
_geom_bond_atom_site_label_1
_geom_bond_atom_site_label_2
_geom_bond_distance
_geom_bond_site_symmetry_2
Li0 O1 2.177343 1_655
Li0 O1 2.177346 1_555
Li0 O1 2.177346 1_665
Li1 O0 2.166156 1_455
Li1 O3 2.166156 1_544
Li1 O0 2.166158 1_555
Li1 O0 2.166158 1_445
Li1 O3 2.166158 1_554
Li1 O3 2.166158 1_444
Li3 O2 2.177343 1_565
Li3 O2 2.177346 1_665
Li3 O2 2.177346 1_555
O0 V1 2.056142 1_655
O0 V1 2.056142 1_545
O0 V1 2.056146 1_555
O1 V1 2.056046 1_545
O1 V1 2.056048 1_445
O1 V1 2.056048 1_555
O2 V0 2.056046 1_455
O2 V0 2.056048 1_445
O2 V0 2.056048 1_555
O3 V0 2.056142 1_565
O3 V0 2.056142 1_455
O3 V0 2.056146 1_555
F0 Li3 2.077693 1_655
F0 Li3 2.077693 1_545
F0 Li3 2.077697 1_555
F0 Li2 2.082110 1_655
F0 Li2 2.082113 1_555
F0 Li2 2.082113 1_665
F1 Li0 2.077693 1_455
F1 Li0 2.077693 1_565
F1 Li0 2.077697 1_555
F1 Li2 2.082110 1_565
F1 Li2 2.082113 1_665
F1 Li2 2.082113 1_555
