# generated using pymatgen
data_SbOF
_symmetry_space_group_name_H-M   'P 1'
_cell_length_a   4.07725400
_cell_length_b   7.08387200
_cell_length_c   8.38826000
_cell_angle_alpha   90.00000000
_cell_angle_beta   90.00000000
_cell_angle_gamma   90.00000000
_symmetry_Int_Tables_number   1
_chemical_formula_structural   SbOF
_chemical_formula_sum   'Sb4 O4 F4'
_cell_volume   242.27597833
_cell_formula_units_Z   4
loop_
 _symmetry_equiv_pos_site_id
 _symmetry_equiv_pos_as_xyz
  1  'x, y, z'
loop_
 _atom_site_type_symbol
 _atom_site_label
 _atom_site_symmetry_multiplicity
 _atom_site_fract_x
 _atom_site_fract_y
 _atom_site_fract_z
 _atom_site_occupancy
  Sb  Sb0  1  0.37744900  0.13213400  0.11871000  1
  Sb  Sb1  1  0.87744900  0.36786600  0.61871000  1
  Sb  Sb2  1  0.37744900  0.63213400  0.38129000  1
  Sb  Sb3  1  0.87744900  0.86786600  0.88129000  1
  O  O0  1  0.74613900  0.12627000  0.96128100  1
  O  O1  1  0.24613900  0.37373000  0.46128100  1
  O  O2  1  0.74613900  0.62627000  0.53871900  1
  O  O3  1  0.24613900  0.87373000  0.03871900  1
  F  F0  1  0.16270100  0.99744700  0.72058300  1
  F  F1  1  0.66270100  0.50255300  0.22058300  1
  F  F2  1  0.16270100  0.49744700  0.77941700  1
  F  F3  1  0.66270100  0.00255300  0.27941700  1
loop_
_geom_bond_atom_site_label_1
_geom_bond_atom_site_label_2
_geom_bond_distance
_geom_bond_site_symmetry_2
O0 Sb0 2.001332 1_556
O0 Sb3 2.021779 1_545
O1 Sb1 2.001332 1_455
O1 Sb2 2.021779 1_555
O2 Sb2 2.001332 1_555
O2 Sb1 2.021779 1_555
O3 Sb3 2.001332 1_454
O3 Sb0 2.021779 1_565
F0 Sb3 2.003128 1_455
F1 Sb2 2.003128 1_555
F2 Sb1 2.003128 1_455
F3 Sb0 2.003128 1_555
