# generated using pymatgen
data_LiCu3P3O11
_symmetry_space_group_name_H-M   'P 1'
_cell_length_a   9.09082000
_cell_length_b   8.48516900
_cell_length_c   10.80852249
_cell_angle_alpha   84.21704623
_cell_angle_beta   90.00000000
_cell_angle_gamma   90.00000000
_symmetry_Int_Tables_number   1
_chemical_formula_structural   LiCu3P3O11
_chemical_formula_sum   'Li4 Cu12 P12 O44'
_cell_volume   829.49543558
_cell_formula_units_Z   4
loop_
 _symmetry_equiv_pos_site_id
 _symmetry_equiv_pos_as_xyz
  1  'x, y, z'
loop_
 _atom_site_type_symbol
 _atom_site_label
 _atom_site_symmetry_multiplicity
 _atom_site_fract_x
 _atom_site_fract_y
 _atom_site_fract_z
 _atom_site_occupancy
  Li  Li0  1  0.76357100  0.93675900  0.47894500  1
  Li  Li1  1  0.73642900  0.93675900  0.97894500  1
  Li  Li2  1  0.26357100  0.06324100  0.02105500  1
  Li  Li3  1  0.23642900  0.06324100  0.52105500  1
  Cu  Cu0  1  0.33929400  0.96245900  0.75582700  1
  Cu  Cu1  1  0.16070600  0.96245900  0.25582700  1
  Cu  Cu2  1  0.36613400  0.54860100  0.92876400  1
  Cu  Cu3  1  0.38112400  0.56388100  0.64721200  1
  Cu  Cu4  1  0.13386600  0.54860100  0.42876400  1
  Cu  Cu5  1  0.88112400  0.43611900  0.85278800  1
  Cu  Cu6  1  0.11887600  0.56388100  0.14721200  1
  Cu  Cu7  1  0.86613400  0.45139900  0.57123600  1
  Cu  Cu8  1  0.61887600  0.43611900  0.35278800  1
  Cu  Cu9  1  0.63386600  0.45139900  0.07123600  1
  Cu  Cu10  1  0.83929400  0.03754100  0.74417300  1
  Cu  Cu11  1  0.66070600  0.03754100  0.24417300  1
  P  P0  1  0.06660200  0.80022900  0.89436000  1
  P  P1  1  0.05322600  0.79877300  0.63304500  1
  P  P2  1  0.43339800  0.80022900  0.39436000  1
  P  P3  1  0.66969200  0.65043700  0.80211700  1
  P  P4  1  0.44677400  0.79877300  0.13304500  1
  P  P5  1  0.83030800  0.65043700  0.30211700  1
  P  P6  1  0.16969200  0.34956300  0.69788300  1
  P  P7  1  0.55322600  0.20122700  0.86695500  1
  P  P8  1  0.33030800  0.34956300  0.19788300  1
  P  P9  1  0.56660200  0.19977100  0.60564000  1
  P  P10  1  0.94677400  0.20122700  0.36695500  1
  P  P11  1  0.93339800  0.19977100  0.10564000  1
  O  O0  1  0.96802500  0.94777400  0.88334000  1
  O  O1  1  0.93272100  0.92609700  0.61222100  1
  O  O2  1  0.53197500  0.94777400  0.38334000  1
  O  O3  1  0.70108100  0.82420900  0.79760800  1
  O  O4  1  0.23284200  0.83518500  0.88716800  1
  O  O5  1  0.56727900  0.92609700  0.11222100  1
  O  O6  1  0.79891900  0.82420900  0.29760800  1
  O  O7  1  0.21135200  0.86250100  0.63066800  1
  O  O8  1  0.26715800  0.83518500  0.38716800  1
  O  O9  1  0.49957500  0.62574900  0.78748900  1
  O  O10  1  0.02996100  0.70827000  0.77147500  1
  O  O11  1  0.28864800  0.86250100  0.13066800  1
  O  O12  1  0.47199800  0.68095800  0.50448100  1
  O  O13  1  0.73328500  0.56459900  0.93107000  1
  O  O14  1  0.02641300  0.67352500  0.54295800  1
  O  O15  1  0.00042500  0.62574900  0.28748900  1
  O  O16  1  0.47003900  0.70827000  0.27147500  1
  O  O17  1  0.75643100  0.55039500  0.71170900  1
  O  O18  1  0.02800200  0.68095800  0.00448100  1
  O  O19  1  0.76671500  0.56459900  0.43107000  1
  O  O20  1  0.47358700  0.67352500  0.04295800  1
  O  O21  1  0.74356900  0.55039500  0.21170900  1
  O  O22  1  0.25643100  0.44960500  0.78829100  1
  O  O23  1  0.52641300  0.32647500  0.95704200  1
  O  O24  1  0.23328500  0.43540100  0.56893000  1
  O  O25  1  0.97199800  0.31904200  0.99551900  1
  O  O26  1  0.24356900  0.44960500  0.28829100  1
  O  O27  1  0.52996100  0.29173000  0.72852500  1
  O  O28  1  0.99957500  0.37425100  0.71251100  1
  O  O29  1  0.97358700  0.32647500  0.45704200  1
  O  O30  1  0.26671500  0.43540100  0.06893000  1
  O  O31  1  0.52800200  0.31904200  0.49551900  1
  O  O32  1  0.71135200  0.13749900  0.86933200  1
  O  O33  1  0.97003900  0.29173000  0.22852500  1
  O  O34  1  0.50042500  0.37425100  0.21251100  1
  O  O35  1  0.73284200  0.16481500  0.61283200  1
  O  O36  1  0.78864800  0.13749900  0.36933200  1
  O  O37  1  0.20108100  0.17579100  0.70239200  1
  O  O38  1  0.43272100  0.07390300  0.88777900  1
  O  O39  1  0.76715800  0.16481500  0.11283200  1
  O  O40  1  0.29891900  0.17579100  0.20239200  1
  O  O41  1  0.46802500  0.05222600  0.61666000  1
  O  O42  1  0.06727900  0.07390300  0.38777900  1
  O  O43  1  0.03197500  0.05222600  0.11666000  1
loop_
_geom_bond_atom_site_label_1
_geom_bond_atom_site_label_2
_geom_bond_distance
_geom_bond_site_symmetry_2
Li0 O36 1.987516 1_565
Li0 O1 2.102753 1_555
Li0 O6 2.287803 1_555
Li0 O2 2.343028 1_555
Li0 O35 2.545801 1_565
Li1 O32 1.987516 1_565
Li1 O5 2.102753 1_556
Li1 O3 2.287803 1_555
Li1 O0 2.343028 1_555
Li1 O39 2.545801 1_566
Li2 O11 1.987516 1_545
Li2 O38 2.102753 1_554
Li2 O40 2.287803 1_555
Li2 O43 2.343028 1_555
Li2 O4 2.545801 1_544
Li3 O7 1.987516 1_545
Li3 O42 2.102753 1_555
Li3 O37 2.287803 1_555
Li3 O41 2.343028 1_555
Li3 O8 2.545801 1_545
Cu0 O4 1.951694 1_555
Cu0 O38 1.980253 1_565
Cu0 O41 1.995345 1_565
Cu0 O7 2.033081 1_555
Cu0 O37 2.231204 1_565
Cu1 O8 1.951694 1_555
Cu1 O42 1.980253 1_565
Cu1 O43 1.995345 1_565
Cu1 O11 2.033081 1_555
Cu1 O40 2.231204 1_565
Cu2 O30 1.934268 1_556
Cu2 O20 1.965931 1_556
Cu2 O9 2.007565 1_555
Cu2 O22 2.064570 1_555
Cu2 O23 2.377553 1_555
Cu3 O12 1.934029 1_555
Cu3 O9 1.973408 1_555
Cu3 O24 1.973968 1_555
Cu3 O22 2.062136 1_555
Cu4 O24 1.934268 1_555
Cu4 O14 1.965931 1_555
Cu4 O15 2.007565 1_555
Cu4 O26 2.064570 1_555
Cu4 O29 2.377553 1_455
Cu5 O25 1.934029 1_555
Cu5 O28 1.973408 1_555
Cu5 O13 1.973968 1_555
Cu5 O17 2.062136 1_555
Cu6 O18 1.934029 1_555
Cu6 O15 1.973408 1_555
Cu6 O30 1.973968 1_555
Cu6 O26 2.062136 1_555
Cu7 O19 1.934268 1_555
Cu7 O29 1.965931 1_555
Cu7 O28 2.007565 1_555
Cu7 O17 2.064570 1_555
Cu7 O14 2.377553 1_655
Cu8 O31 1.934029 1_555
Cu8 O34 1.973408 1_555
Cu8 O19 1.973968 1_555
Cu8 O21 2.062136 1_555
Cu9 O13 1.934268 1_554
Cu9 O23 1.965931 1_554
Cu9 O34 2.007565 1_555
Cu9 O21 2.064570 1_555
Cu9 O20 2.377553 1_555
Cu10 O35 1.951694 1_555
Cu10 O1 1.980253 1_545
Cu10 O0 1.995345 1_545
Cu10 O32 2.033081 1_555
Cu10 O3 2.231204 1_545
Cu11 O39 1.951694 1_555
Cu11 O5 1.980253 1_545
Cu11 O2 1.995345 1_545
Cu11 O36 2.033081 1_555
Cu11 O6 2.231204 1_545
O0 P0 1.534464 1_655
O1 P1 1.539137 1_655
O2 P2 1.534464 1_555
O3 P3 1.497807 1_555
O4 P0 1.540543 1_555
O5 P4 1.539137 1_555
O6 P5 1.497807 1_555
O7 P1 1.535140 1_555
O8 P2 1.540543 1_555
O9 P3 1.570741 1_555
O10 P1 1.625297 1_555
O10 P0 1.640970 1_555
O11 P4 1.535140 1_555
O12 P2 1.523577 1_555
O13 P3 1.613315 1_555
O14 P1 1.531501 1_555
O15 P5 1.570741 1_455
O16 P4 1.625297 1_555
O16 P2 1.640970 1_555
O17 P3 1.569840 1_555
O18 P0 1.523577 1_554
O19 P5 1.613315 1_555
O20 P4 1.531501 1_555
O21 P5 1.569840 1_555
O22 P6 1.569840 1_555
O23 P7 1.531501 1_555
O24 P6 1.613315 1_555
O25 P11 1.523577 1_556
O26 P8 1.569840 1_555
O27 P7 1.625297 1_555
O27 P9 1.640970 1_555
O28 P6 1.570741 1_655
O29 P10 1.531501 1_555
O30 P8 1.613315 1_555
O31 P9 1.523577 1_555
O32 P7 1.535140 1_555
O33 P10 1.625297 1_555
O33 P11 1.640970 1_555
O34 P8 1.570741 1_555
O35 P9 1.540543 1_555
O36 P10 1.535140 1_555
O37 P6 1.497807 1_555
O38 P7 1.539137 1_555
O39 P11 1.540543 1_555
O40 P8 1.497807 1_555
O41 P9 1.534464 1_555
O42 P10 1.539137 1_455
O43 P11 1.534464 1_455
