# generated using pymatgen
data_LiVOF3
_symmetry_space_group_name_H-M   'P 1'
_cell_length_a   4.95012201
_cell_length_b   7.39946684
_cell_length_c   7.68096862
_cell_angle_alpha   102.78170394
_cell_angle_beta   89.99376545
_cell_angle_gamma   89.99802120
_symmetry_Int_Tables_number   1
_chemical_formula_structural   LiVOF3
_chemical_formula_sum   'Li4 V4 O4 F12'
_cell_volume   274.36893740
_cell_formula_units_Z   4
loop_
 _symmetry_equiv_pos_site_id
 _symmetry_equiv_pos_as_xyz
  1  'x, y, z'
loop_
 _atom_site_type_symbol
 _atom_site_label
 _atom_site_symmetry_multiplicity
 _atom_site_fract_x
 _atom_site_fract_y
 _atom_site_fract_z
 _atom_site_occupancy
  Li  Li0  1  0.75258400  0.85391500  0.13329100  1
  Li  Li1  1  0.74751200  0.35400200  0.13324900  1
  Li  Li2  1  0.25252700  0.64606200  0.86676300  1
  Li  Li3  1  0.24745000  0.14606500  0.86673200  1
  V  V0  1  0.23617500  0.20166200  0.32921000  1
  V  V1  1  0.73625400  0.29836700  0.67076200  1
  V  V2  1  0.26382500  0.70162400  0.32920700  1
  V  V3  1  0.76378300  0.79840100  0.67085200  1
  O  O0  1  0.53370700  0.79363600  0.45669700  1
  O  O1  1  0.96632100  0.29360200  0.45656600  1
  O  O2  1  0.03374800  0.70635600  0.54332900  1
  O  O3  1  0.46613300  0.20629200  0.54330200  1
  F  F0  1  0.42771100  0.69674000  0.09788200  1
  F  F1  1  0.07237600  0.19676200  0.09785500  1
  F  F2  1  0.92766900  0.80326900  0.90215800  1
  F  F3  1  0.57232700  0.30325000  0.90210100  1
  F  F4  1  0.94978500  0.59251800  0.19726200  1
  F  F5  1  0.55025500  0.09252300  0.19725200  1
  F  F6  1  0.44976700  0.90750900  0.80277900  1
  F  F7  1  0.05009800  0.40745100  0.80273300  1
  F  F8  1  0.09427500  0.94088200  0.30529500  1
  F  F9  1  0.40578100  0.44091200  0.30529400  1
  F  F10  1  0.59423300  0.55911300  0.69471300  1
  F  F11  1  0.90570300  0.05908600  0.69471600  1
loop_
_geom_bond_atom_site_label_1
_geom_bond_atom_site_label_2
_geom_bond_distance
_geom_bond_site_symmetry_2
O0 V2 1.706626 1_555
O0 V3 1.994705 1_555
O1 V0 1.705669 1_655
O1 V1 1.994732 1_555
O2 V3 1.706933 1_455
O2 V2 1.994334 1_555
O3 V1 1.707567 1_555
O3 V0 1.994139 1_555
F0 Li2 1.936447 1_554
F0 V2 1.946210 1_555
F0 Li0 1.967997 1_555
F1 Li3 1.936044 1_554
F1 V0 1.946380 1_555
F1 Li1 1.968115 1_455
F2 Li0 1.936139 1_556
F2 V3 1.946261 1_555
F2 Li2 1.967954 1_655
F3 Li1 1.936639 1_556
F3 V1 1.946393 1_555
F3 Li3 1.968052 1_555
F4 V2 1.932322 1_655
F4 Li1 1.993843 1_555
F4 Li0 2.314294 1_555
F5 V0 1.932376 1_555
F5 Li0 1.994413 1_545
F5 Li1 2.315056 1_555
F6 V3 1.931949 1_555
F6 Li3 1.994060 1_565
F6 Li2 2.314753 1_555
F7 V1 1.931579 1_455
F7 Li2 1.994822 1_555
F7 Li3 2.314623 1_555
F8 V2 2.004047 1_555
F8 V0 2.023341 1_565
F8 Li0 2.155184 1_455
F9 V0 2.004153 1_555
F9 V2 2.022909 1_555
F9 Li1 2.155182 1_555
F10 V3 2.004170 1_555
F10 V1 2.023220 1_555
F10 Li2 2.155153 1_555
F11 V1 2.004084 1_555
F11 V3 2.022766 1_545
F11 Li3 2.155466 1_655
