# generated using pymatgen
data_Sn2N2O
_symmetry_space_group_name_H-M   'P 1'
_cell_length_a   8.84696700
_cell_length_b   8.84754191
_cell_length_c   8.86224379
_cell_angle_alpha   109.54460861
_cell_angle_beta   109.38207055
_cell_angle_gamma   109.33917744
_symmetry_Int_Tables_number   1
_chemical_formula_structural   Sn2N2O
_chemical_formula_sum   'Sn16 N16 O8'
_cell_volume   534.96744432
_cell_formula_units_Z   8
loop_
 _symmetry_equiv_pos_site_id
 _symmetry_equiv_pos_as_xyz
  1  'x, y, z'
loop_
 _atom_site_type_symbol
 _atom_site_label
 _atom_site_symmetry_multiplicity
 _atom_site_fract_x
 _atom_site_fract_y
 _atom_site_fract_z
 _atom_site_occupancy
  Sn  Sn0  1  0.51933400  0.51997600  0.49028600  1
  Sn  Sn1  1  0.95952300  0.67785300  0.78898600  1
  Sn  Sn2  1  0.71136900  0.24139400  0.52182400  1
  Sn  Sn3  1  0.67591300  0.71387000  0.02929900  1
  Sn  Sn4  1  0.55220500  0.33575900  0.70955500  1
  Sn  Sn5  1  0.50664300  0.00256500  0.99520400  1
  Sn  Sn6  1  0.80587500  0.54940400  0.23838600  1
  Sn  Sn7  1  0.98588200  0.48363000  0.00930900  1
  Sn  Sn8  1  0.99102700  0.99862800  0.49790500  1
  Sn  Sn9  1  0.70866300  0.95437300  0.75517600  1
  Sn  Sn10  1  0.27873400  0.02838000  0.25628200  1
  Sn  Sn11  1  0.21653500  0.46908400  0.74792000  1
  Sn  Sn12  1  0.47139500  0.68854300  0.27903800  1
  Sn  Sn13  1  0.29280000  0.26811400  0.97046600  1
  Sn  Sn14  1  0.32609100  0.80147800  0.46376500  1
  Sn  Sn15  1  0.03294300  0.31806600  0.21562700  1
  N  N0  1  0.78762100  0.78890600  0.23778600  1
  N  N1  1  0.80922300  0.57275800  0.46233100  1
  N  N2  1  0.78153200  0.54825900  0.99069600  1
  N  N3  1  0.97068100  0.23557600  0.50121200  1
  N  N4  1  0.31692200  0.04490200  0.95473900  1
  N  N5  1  0.18493300  0.22580000  0.27014600  1
  N  N6  1  0.70519800  0.96284300  0.03486100  1
  N  N7  1  0.76985900  0.31650600  0.22875500  1
  N  N8  1  0.23004500  0.45590100  0.99736800  1
  N  N9  1  0.48570600  0.53625100  0.73354500  1
  N  N10  1  0.52713000  0.98452500  0.23587300  1
  N  N11  1  0.99836300  0.49833100  0.27384800  1
  N  N12  1  0.03628600  0.76677700  0.50710300  1
  N  N13  1  0.55243600  0.82152900  0.94984800  1
  N  N14  1  0.99855000  0.51242800  0.73497100  1
  N  N15  1  0.57243500  0.80234500  0.46528300  1
  O  O0  1  0.82187700  0.77606100  0.72781700  1
  O  O1  1  0.18834900  0.17425500  0.76985800  1
  O  O2  1  0.39716400  0.17389300  0.55019000  1
  O  O3  1  0.45614700  0.99802700  0.77470000  1
  O  O4  1  0.27551900  0.73178700  0.75045700  1
  O  O5  1  0.42718100  0.17807100  0.05163200  1
  O  O6  1  0.17224000  0.39720300  0.55727100  1
  O  O7  1  0.49966900  0.44594700  0.27068400  1
loop_
_geom_bond_atom_site_label_1
_geom_bond_atom_site_label_2
_geom_bond_distance
_geom_bond_site_symmetry_2
N0 Sn3 1.537546 1_555
N0 Sn8 2.041698 1_555
N0 Sn6 2.179427 1_555
N1 Sn6 1.914414 1_555
N1 N12 1.967443 1_655
N2 Sn3 1.980077 1_556
N2 Sn7 2.042657 1_556
N2 Sn6 2.129508 1_556
N2 Sn4 2.200694 1_555
N3 O6 1.649014 1_655
N3 Sn11 2.150481 1_655
N3 Sn8 2.154183 1_545
N3 Sn2 2.376782 1_555
N4 O5 1.040664 1_556
N4 Sn5 1.786869 1_555
N4 Sn13 2.019857 1_555
N5 Sn15 1.807654 1_555
N5 Sn10 2.153779 1_555
N5 Sn0 2.646607 1_555
N6 Sn5 1.847827 1_564
N6 Sn3 2.112525 1_555
N6 Sn9 2.465334 1_554
N7 Sn6 1.945302 1_555
N7 Sn15 2.364422 1_655
N7 Sn5 2.468232 1_554
N8 Sn13 1.886603 1_555
N8 Sn11 2.218406 1_555
N8 Sn12 2.267303 1_556
N8 Sn7 2.285339 1_456
N9 Sn4 2.014888 1_555
N9 Sn3 2.176307 1_556
N9 Sn0 2.236778 1_555
N9 Sn11 2.314071 1_555
N10 Sn5 2.144248 1_564
N10 Sn2 2.279309 1_565
N10 Sn10 2.407092 1_565
N10 Sn12 2.680926 1_555
N11 Sn15 1.667591 1_655
N11 Sn6 1.858063 1_555
N11 N7 1.927196 1_555
N11 Sn7 2.267159 1_555
N11 Sn14 2.650115 1_655
N12 Sn6 2.154593 1_455
N12 Sn8 2.238093 1_455
N12 Sn14 2.650748 1_555
N13 N6 1.237783 1_556
N13 Sn5 1.731564 1_565
N13 Sn3 1.795487 1_556
N14 Sn1 1.570390 1_555
N14 Sn11 2.061976 1_655
N14 Sn2 2.349941 1_555
N14 Sn7 2.562200 1_556
N15 Sn12 1.360079 1_555
N15 Sn9 2.102651 1_555
N15 Sn14 2.172420 1_555
O0 Sn1 1.763397 1_555
O0 Sn9 2.121957 1_555
O0 Sn0 2.404462 1_555
O1 Sn13 1.455252 1_555
O1 Sn8 2.043471 1_445
O2 Sn4 1.409582 1_555
O2 Sn10 2.142710 1_555
O3 Sn5 1.837421 1_565
O3 Sn14 2.303337 1_555
O3 Sn9 2.439917 1_555
O4 Sn11 2.197500 1_555
O4 Sn5 2.227133 1_565
O5 Sn13 1.734527 1_554
O5 Sn5 1.895321 1_554
O6 Sn11 1.445417 1_555
O7 Sn0 1.758906 1_555
O7 Sn12 2.221836 1_555
O7 Sn13 2.227972 1_554
