# generated using pymatgen
data_LiCuF3
_symmetry_space_group_name_H-M   'P 1'
_cell_length_a   5.09163770
_cell_length_b   5.09163770
_cell_length_c   8.76117900
_cell_angle_alpha   90.00000000
_cell_angle_beta   90.00000000
_cell_angle_gamma   93.22139186
_symmetry_Int_Tables_number   1
_chemical_formula_structural   LiCuF3
_chemical_formula_sum   'Li4 Cu4 F12'
_cell_volume   226.77268828
_cell_formula_units_Z   4
loop_
 _symmetry_equiv_pos_site_id
 _symmetry_equiv_pos_as_xyz
  1  'x, y, z'
loop_
 _atom_site_type_symbol
 _atom_site_label
 _atom_site_symmetry_multiplicity
 _atom_site_fract_x
 _atom_site_fract_y
 _atom_site_fract_z
 _atom_site_occupancy
  Li  Li0  1  0.04434700  0.52761900  0.50000000  1
  Li  Li1  1  0.47238100  0.95565300  0.50000000  1
  Li  Li2  1  0.51852900  0.48147100  0.50000000  1
  Li  Li3  1  0.98195400  0.01804600  0.00000000  1
  Cu  Cu0  1  0.50891100  0.49108900  0.83202500  1
  Cu  Cu1  1  0.50891100  0.49108900  0.16797500  1
  Cu  Cu2  1  0.99235700  0.00764300  0.68388000  1
  Cu  Cu3  1  0.99235700  0.00764300  0.31612000  1
  F  F0  1  0.18863900  0.18802700  0.50000000  1
  F  F1  1  0.19745800  0.19411100  0.83066100  1
  F  F2  1  0.19745800  0.19411100  0.16933900  1
  F  F3  1  0.32121500  0.67878500  0.35045400  1
  F  F4  1  0.32121500  0.67878500  0.64954600  1
  F  F5  1  0.34105300  0.65894700  0.00000000  1
  F  F6  1  0.68958700  0.31041300  0.00000000  1
  F  F7  1  0.68796700  0.31203300  0.34085500  1
  F  F8  1  0.68796700  0.31203300  0.65914500  1
  F  F9  1  0.80588900  0.80254200  0.16933900  1
  F  F10  1  0.80588900  0.80254200  0.83066100  1
  F  F11  1  0.81197300  0.81136100  0.50000000  1
loop_
_geom_bond_atom_site_label_1
_geom_bond_atom_site_label_2
_geom_bond_distance
_geom_bond_site_symmetry_2
Cu0 F5 1.925826 1_556
Cu0 F6 1.988331 1_556
Cu0 F8 2.012431 1_555
Cu0 F4 2.117838 1_555
Cu0 F10 2.128823 1_555
Cu0 F1 2.128823 1_555
Cu1 F5 1.925826 1_555
Cu1 F6 1.988331 1_555
Cu1 F7 2.012431 1_555
Cu1 F3 2.117838 1_555
Cu1 F9 2.128823 1_555
Cu1 F2 2.128823 1_555
Cu2 F1 1.879966 1_655
Cu2 F10 1.879966 1_545
Cu2 F0 2.081952 1_655
Cu2 F11 2.081952 1_545
Cu2 F8 2.262952 1_555
Cu2 F4 2.452140 1_645
Cu3 F2 1.879966 1_655
Cu3 F9 1.879966 1_545
Cu3 F0 2.081952 1_655
Cu3 F11 2.081952 1_545
Cu3 F7 2.262952 1_555
Cu3 F3 2.452140 1_645
F0 Li0 1.916310 1_555
F0 Li1 1.918118 1_545
F0 Li2 2.184408 1_555
F1 Li3 2.024397 1_456
F2 Li3 2.024397 1_455
F3 Li2 1.961812 1_555
F3 Li0 2.043129 1_555
F3 Li1 2.043129 1_555
F4 Li2 1.961812 1_555
F4 Li1 2.043129 1_555
F4 Li0 2.043129 1_555
F6 Li3 2.163579 1_555
F7 Li2 1.875174 1_555
F7 Li0 2.493540 1_655
F7 Li1 2.493540 1_545
F8 Li2 1.875174 1_555
F8 Li0 2.493540 1_655
F8 Li1 2.493540 1_545
F9 Li3 2.024397 1_565
F10 Li3 2.024397 1_566
F11 Li1 1.916310 1_555
F11 Li0 1.918118 1_655
F11 Li2 2.184408 1_555
