# generated using pymatgen
data_Li4Ti2V3Cr4O18
_symmetry_space_group_name_H-M   'P 1'
_cell_length_a   2.97694500
_cell_length_b   8.96260900
_cell_length_c   24.98488600
_cell_angle_alpha   90.00000000
_cell_angle_beta   90.00000000
_cell_angle_gamma   90.00000000
_symmetry_Int_Tables_number   1
_chemical_formula_structural   Li4Ti2V3Cr4O18
_chemical_formula_sum   'Li8 Ti4 V6 Cr8 O36'
_cell_volume   666.62659167
_cell_formula_units_Z   2
loop_
 _symmetry_equiv_pos_site_id
 _symmetry_equiv_pos_as_xyz
  1  'x, y, z'
loop_
 _atom_site_type_symbol
 _atom_site_label
 _atom_site_symmetry_multiplicity
 _atom_site_fract_x
 _atom_site_fract_y
 _atom_site_fract_z
 _atom_site_occupancy
  Li  Li0  1  0.00000000  0.18779100  0.49381000  1
  Li  Li1  1  0.00000000  0.20803800  0.69003900  1
  Li  Li2  1  0.00000000  0.29196200  0.19003900  1
  Li  Li3  1  0.00000000  0.31220900  0.99381000  1
  Li  Li4  1  0.00000000  0.68779100  0.00619000  1
  Li  Li5  1  0.00000000  0.70803800  0.80996100  1
  Li  Li6  1  0.00000000  0.79196200  0.30996100  1
  Li  Li7  1  0.00000000  0.81220900  0.50619000  1
  Ti  Ti0  1  0.00000000  0.99316100  0.60258600  1
  Ti  Ti1  1  0.00000000  0.50683900  0.10258600  1
  Ti  Ti2  1  0.00000000  0.49316100  0.89741400  1
  Ti  Ti3  1  0.00000000  0.00683900  0.39741400  1
  V  V0  1  0.00000000  0.00000000  0.00000000  1
  V  V1  1  0.50000000  0.14536600  0.30255000  1
  V  V2  1  0.50000000  0.35463400  0.80255000  1
  V  V3  1  0.00000000  0.50000000  0.50000000  1
  V  V4  1  0.50000000  0.64536600  0.19745000  1
  V  V5  1  0.50000000  0.85463400  0.69745000  1
  Cr  Cr0  1  0.00000000  0.01908200  0.81062100  1
  Cr  Cr1  1  0.50000000  0.14837100  0.08628200  1
  Cr  Cr2  1  0.50000000  0.35162900  0.58628200  1
  Cr  Cr3  1  0.00000000  0.48091800  0.31062100  1
  Cr  Cr4  1  0.00000000  0.51908200  0.68937900  1
  Cr  Cr5  1  0.50000000  0.64837100  0.41371800  1
  Cr  Cr6  1  0.50000000  0.85162900  0.91371800  1
  Cr  Cr7  1  0.00000000  0.98091800  0.18937900  1
  O  O0  1  0.00000000  0.99953600  0.92418400  1
  O  O1  1  0.00000000  0.00046400  0.07581600  1
  O  O2  1  0.50000000  0.06078600  0.44176000  1
  O  O3  1  0.50000000  0.04583100  0.65975100  1
  O  O4  1  0.50000000  0.11326700  0.16464400  1
  O  O5  1  0.00000000  0.09083300  0.25624400  1
  O  O6  1  0.50000000  0.15043900  0.00467800  1
  O  O7  1  0.50000000  0.15247800  0.78482600  1
  O  O8  1  0.00000000  0.18773100  0.35368100  1
  O  O9  1  0.00000000  0.20187200  0.58567000  1
  O  O10  1  0.00000000  0.29812800  0.08567000  1
  O  O11  1  0.00000000  0.31226900  0.85368100  1
  O  O12  1  0.50000000  0.34752200  0.28482600  1
  O  O13  1  0.50000000  0.34956100  0.50467800  1
  O  O14  1  0.00000000  0.40916700  0.75624400  1
  O  O15  1  0.50000000  0.38673300  0.66464400  1
  O  O16  1  0.50000000  0.45416900  0.15975100  1
  O  O17  1  0.50000000  0.43921400  0.94176000  1
  O  O18  1  0.00000000  0.49953600  0.57581600  1
  O  O19  1  0.00000000  0.50046400  0.42418400  1
  O  O20  1  0.50000000  0.56078600  0.05824000  1
  O  O21  1  0.50000000  0.54583100  0.84024900  1
  O  O22  1  0.50000000  0.61326700  0.33535600  1
  O  O23  1  0.00000000  0.59083300  0.24375600  1
  O  O24  1  0.50000000  0.65043900  0.49532200  1
  O  O25  1  0.50000000  0.65247800  0.71517400  1
  O  O26  1  0.00000000  0.68773100  0.14631900  1
  O  O27  1  0.00000000  0.70187200  0.91433000  1
  O  O28  1  0.00000000  0.79812800  0.41433000  1
  O  O29  1  0.00000000  0.81226900  0.64631900  1
  O  O30  1  0.50000000  0.84752200  0.21517400  1
  O  O31  1  0.50000000  0.84956100  0.99532200  1
  O  O32  1  0.00000000  0.90916700  0.74375600  1
  O  O33  1  0.50000000  0.88673300  0.83535600  1
  O  O34  1  0.50000000  0.95416900  0.34024900  1
  O  O35  1  0.50000000  0.93921400  0.55824000  1
loop_
_geom_bond_atom_site_label_1
_geom_bond_atom_site_label_2
_geom_bond_distance
_geom_bond_site_symmetry_2
Li0 O13 2.095576 1_455
Li0 O13 2.095576 1_555
Li0 O2 2.280893 1_455
Li0 O2 2.280893 1_555
Li0 O9 2.298579 1_555
Li1 O3 2.213987 1_455
Li1 O3 2.213987 1_555
Li1 O15 2.276657 1_455
Li1 O15 2.276657 1_555
Li1 O14 2.446557 1_555
Li1 O9 2.608233 1_555
Li2 O16 2.213987 1_555
Li2 O16 2.213987 1_455
Li2 O4 2.276657 1_455
Li2 O4 2.276657 1_555
Li2 O5 2.446557 1_555
Li2 O10 2.608233 1_555
Li3 O6 2.095576 1_456
Li3 O6 2.095576 1_556
Li3 O17 2.280893 1_455
Li3 O17 2.280893 1_555
Li3 O10 2.298579 1_556
Li4 O31 2.095576 1_454
Li4 O31 2.095576 1_554
Li4 O20 2.280893 1_555
Li4 O20 2.280893 1_455
Li4 O27 2.298579 1_554
Li5 O21 2.213987 1_455
Li5 O21 2.213987 1_555
Li5 O33 2.276657 1_455
Li5 O33 2.276657 1_555
Li5 O32 2.446557 1_555
Li5 O27 2.608233 1_555
Li6 O34 2.213987 1_455
Li6 O34 2.213987 1_555
Li6 O22 2.276657 1_455
Li6 O22 2.276657 1_555
Li6 O23 2.446557 1_555
Li6 O28 2.608233 1_555
Li7 O24 2.095576 1_455
Li7 O24 2.095576 1_555
Li7 O35 2.280893 1_455
Li7 O35 2.280893 1_555
Li7 O28 2.298579 1_555
Cr0 O32 1.939439 1_545
Cr0 O33 2.001132 1_445
Cr0 O33 2.001132 1_545
Cr0 O7 2.015022 1_455
Cr0 O7 2.015022 1_555
Cr1 O4 1.982984 1_555
Cr1 O10 2.004326 1_555
Cr1 O10 2.004326 1_655
Cr1 O1 2.010281 1_555
Cr1 O1 2.010281 1_655
Cr1 O6 2.038951 1_555
Cr2 O15 1.982984 1_555
Cr2 O9 2.004326 1_555
Cr2 O9 2.004326 1_655
Cr2 O18 2.010281 1_655
Cr2 O18 2.010281 1_555
Cr2 O13 2.038951 1_555
Cr3 O23 1.939439 1_555
Cr3 O22 2.001132 1_455
Cr3 O22 2.001132 1_555
Cr3 O12 2.015022 1_555
Cr3 O12 2.015022 1_455
Cr4 O14 1.939439 1_555
Cr4 O15 2.001132 1_455
Cr4 O15 2.001132 1_555
Cr4 O25 2.015022 1_555
Cr4 O25 2.015022 1_455
Cr5 O22 1.982984 1_555
Cr5 O28 2.004326 1_655
Cr5 O28 2.004326 1_555
Cr5 O19 2.010281 1_555
Cr5 O19 2.010281 1_655
Cr5 O24 2.038951 1_555
Cr6 O33 1.982984 1_555
Cr6 O27 2.004326 1_555
Cr6 O27 2.004326 1_655
Cr6 O0 2.010281 1_555
Cr6 O0 2.010281 1_655
Cr6 O31 2.038951 1_555
Cr7 O5 1.939439 1_565
Cr7 O4 2.001132 1_465
Cr7 O4 2.001132 1_565
Cr7 O30 2.015022 1_455
Cr7 O30 2.015022 1_555
O0 V0 1.894259 1_566
O1 V0 1.894259 1_555
O2 Ti3 1.917537 1_655
O2 Ti3 1.917537 1_555
O3 V5 1.955426 1_545
O3 Ti0 2.116204 1_645
O3 Ti0 2.116204 1_545
O5 V1 1.947554 1_555
O5 V1 1.947554 1_455
O6 V0 2.011764 1_555
O6 V0 2.011764 1_655
O7 V2 1.865176 1_555
O8 Ti3 1.955099 1_555
O8 V1 1.997933 1_555
O8 V1 1.997933 1_455
O9 Ti0 1.917747 1_545
O10 Ti1 1.917747 1_555
O11 Ti2 1.955099 1_555
O11 V2 1.997933 1_455
O11 V2 1.997933 1_555
O12 V1 1.865176 1_555
O13 V3 2.011764 1_555
O13 V3 2.011764 1_655
O14 V2 1.947554 1_455
O14 V2 1.947554 1_555
O16 V4 1.955426 1_555
O16 Ti1 2.116204 1_555
O16 Ti1 2.116204 1_655
O17 Ti2 1.917537 1_555
O17 Ti2 1.917537 1_655
O18 V3 1.894259 1_555
O19 V3 1.894259 1_555
O20 Ti1 1.917537 1_655
O20 Ti1 1.917537 1_555
O21 V2 1.955426 1_555
O21 Ti2 2.116204 1_655
O21 Ti2 2.116204 1_555
O23 V4 1.947554 1_555
O23 V4 1.947554 1_455
O24 V3 2.011764 1_555
O24 V3 2.011764 1_655
O25 V5 1.865176 1_555
O26 Ti1 1.955099 1_555
O26 V4 1.997933 1_555
O26 V4 1.997933 1_455
O27 Ti2 1.917747 1_555
O28 Ti3 1.917747 1_565
O29 Ti0 1.955099 1_555
O29 V5 1.997933 1_555
O29 V5 1.997933 1_455
O30 V4 1.865176 1_555
O31 V0 2.011764 1_666
O31 V0 2.011764 1_566
O32 V5 1.947554 1_555
O32 V5 1.947554 1_455
O34 V1 1.955426 1_565
O34 Ti3 2.116204 1_565
O34 Ti3 2.116204 1_665
O35 Ti0 1.917537 1_555
O35 Ti0 1.917537 1_655
