# generated using pymatgen
data_VO2
_symmetry_space_group_name_H-M   'P 1'
_cell_length_a   5.71934397
_cell_length_b   5.75291792
_cell_length_c   5.73584278
_cell_angle_alpha   117.82602988
_cell_angle_beta   112.22832969
_cell_angle_gamma   98.60544794
_symmetry_Int_Tables_number   1
_chemical_formula_structural   VO2
_chemical_formula_sum   'V4 O8'
_cell_volume   141.70354722
_cell_formula_units_Z   4
loop_
 _symmetry_equiv_pos_site_id
 _symmetry_equiv_pos_as_xyz
  1  'x, y, z'
loop_
 _atom_site_type_symbol
 _atom_site_label
 _atom_site_symmetry_multiplicity
 _atom_site_fract_x
 _atom_site_fract_y
 _atom_site_fract_z
 _atom_site_occupancy
  V  V0  1  0.99984300  0.00004100  0.00002500  1
  V  V1  1  0.50012800  0.00015300  0.50002300  1
  V  V2  1  0.34404800  0.59492600  0.75064300  1
  V  V3  1  0.65595700  0.40513000  0.24939100  1
  O  O0  1  0.23944200  0.21921000  0.48153000  1
  O  O1  1  0.26795700  0.73198600  0.53794800  1
  O  O2  1  0.69392000  0.73157800  0.96338500  1
  O  O3  1  0.76332500  0.23051100  0.96878200  1
  O  O4  1  0.23662100  0.76946900  0.03120400  1
  O  O5  1  0.30611600  0.26831500  0.03662200  1
  O  O6  1  0.73213800  0.26799000  0.46204900  1
  O  O7  1  0.76050400  0.78069100  0.51839700  1
loop_
_geom_bond_atom_site_label_1
_geom_bond_atom_site_label_2
_geom_bond_distance
_geom_bond_site_symmetry_2
O0 V2 1.792214 1_555
O0 V1 2.095176 1_555
O0 V0 2.112780 1_455
O1 V2 1.702506 1_555
O1 V1 2.027167 1_565
O2 V2 1.702180 1_555
O2 V0 2.025078 1_566
O3 V3 1.843841 1_556
O3 V0 2.048189 1_556
O3 V1 2.065365 1_555
O4 V2 1.843806 1_554
O4 V0 2.049676 1_465
O4 V1 2.065725 1_565
O5 V3 1.701995 1_555
O5 V0 2.026008 1_455
O6 V3 1.702741 1_555
O6 V1 2.025477 1_555
O7 V3 1.791494 1_555
O7 V1 2.095452 1_565
O7 V0 2.113122 1_566
