# generated using pymatgen
data_ZrIr2
_symmetry_space_group_name_H-M   'P 1'
_cell_length_a   5.25899213
_cell_length_b   5.25899213
_cell_length_c   5.25899213
_cell_angle_alpha   60.00000000
_cell_angle_beta   60.00000000
_cell_angle_gamma   60.00000000
_symmetry_Int_Tables_number   1
_chemical_formula_structural   ZrIr2
_chemical_formula_sum   'Zr2 Ir4'
_cell_volume   102.84722207
_cell_formula_units_Z   2
loop_
 _symmetry_equiv_pos_site_id
 _symmetry_equiv_pos_as_xyz
  1  'x, y, z'
loop_
 _atom_site_type_symbol
 _atom_site_label
 _atom_site_symmetry_multiplicity
 _atom_site_fract_x
 _atom_site_fract_y
 _atom_site_fract_z
 _atom_site_occupancy
  Zr  Zr0  1  0.50000000  0.50000000  0.50000000  1
  Zr  Zr1  1  0.75000000  0.75000000  0.75000000  1
  Ir  Ir0  1  0.62500000  0.12500000  0.12500000  1
  Ir  Ir1  1  0.12500000  0.12500000  0.12500000  1
  Ir  Ir2  1  0.12500000  0.12500000  0.62500000  1
  Ir  Ir3  1  0.12500000  0.62500000  0.12500000  1
loop_
_geom_bond_atom_site_label_1
_geom_bond_atom_site_label_2
_geom_bond_distance
_geom_bond_site_symmetry_2
Zr0 Zr1 3.220462 1_545
Zr0 Zr1 3.220462 1_554
Zr0 Zr1 3.220462 1_455
Zr0 Zr1 3.220462 1_555
Ir0 Ir1 2.629496 1_655
Ir0 Ir1 2.629496 1_555
Ir0 Ir2 2.629496 1_555
Ir0 Ir2 2.629496 1_654
Ir0 Ir3 2.629496 1_645
Ir0 Ir3 2.629496 1_555
Ir0 Zr1 3.083357 1_544
Ir0 Zr0 3.083357 1_555
Ir0 Zr1 3.083357 1_545
Ir0 Zr0 3.083357 1_545
Ir0 Zr0 3.083357 1_554
Ir0 Zr1 3.083357 1_554
Ir1 Ir2 2.629496 1_555
Ir1 Ir3 2.629496 1_555
Ir1 Ir3 2.629496 1_545
Ir1 Ir2 2.629496 1_554
Ir1 Zr1 3.083357 1_544
Ir1 Zr0 3.083357 1_455
Ir1 Zr1 3.083357 1_454
Ir1 Zr0 3.083357 1_545
Ir1 Zr1 3.083357 1_445
Ir1 Zr0 3.083357 1_554
Ir2 Ir3 2.629496 1_546
Ir2 Ir3 2.629496 1_555
Ir2 Zr0 3.083357 1_455
Ir2 Zr1 3.083357 1_455
Ir2 Zr1 3.083357 1_545
Ir2 Zr0 3.083357 1_545
Ir2 Zr0 3.083357 1_555
Ir2 Zr1 3.083357 1_445
Ir3 Zr0 3.083357 1_455
Ir3 Zr0 3.083357 1_554
Ir3 Zr1 3.083357 1_455
Ir3 Zr1 3.083357 1_554
Ir3 Zr0 3.083357 1_555
Ir3 Zr1 3.083357 1_454
