# generated using pymatgen
data_Na6Bi2C4SO16
_symmetry_space_group_name_H-M   'P 1'
_cell_length_a   10.29884056
_cell_length_b   10.29884056
_cell_length_c   10.29884056
_cell_angle_alpha   60.00000000
_cell_angle_beta   60.00000000
_cell_angle_gamma   60.00000000
_symmetry_Int_Tables_number   1
_chemical_formula_structural   Na6Bi2C4SO16
_chemical_formula_sum   'Na12 Bi4 C8 S2 O32'
_cell_volume   772.41376860
_cell_formula_units_Z   2
loop_
 _symmetry_equiv_pos_site_id
 _symmetry_equiv_pos_as_xyz
  1  'x, y, z'
loop_
 _atom_site_type_symbol
 _atom_site_label
 _atom_site_symmetry_multiplicity
 _atom_site_fract_x
 _atom_site_fract_y
 _atom_site_fract_z
 _atom_site_occupancy
  Na  Na0  1  0.04563400  0.45436600  0.04563400  1
  Na  Na1  1  0.79563400  0.20436600  0.79563400  1
  Na  Na2  1  0.45436600  0.45436600  0.04563400  1
  Na  Na3  1  0.20436600  0.20436600  0.79563400  1
  Na  Na4  1  0.04563400  0.45436600  0.45436600  1
  Na  Na5  1  0.79563400  0.20436600  0.20436600  1
  Na  Na6  1  0.04563400  0.04563400  0.45436600  1
  Na  Na7  1  0.45436600  0.04563400  0.04563400  1
  Na  Na8  1  0.20436600  0.79563400  0.79563400  1
  Na  Na9  1  0.79563400  0.79563400  0.20436600  1
  Na  Na10  1  0.45436600  0.04563400  0.45436600  1
  Na  Na11  1  0.20436600  0.79563400  0.20436600  1
  Bi  Bi0  1  0.62500000  0.12500000  0.62500000  1
  Bi  Bi1  1  0.62500000  0.62500000  0.12500000  1
  Bi  Bi2  1  0.12500000  0.62500000  0.62500000  1
  Bi  Bi3  1  0.62500000  0.62500000  0.62500000  1
  C  C0  1  0.82454200  0.39181900  0.39181900  1
  C  C1  1  0.39181900  0.39181900  0.82454200  1
  C  C2  1  0.39181900  0.82454200  0.39181900  1
  C  C3  1  0.85818100  0.85818100  0.85818100  1
  C  C4  1  0.85818100  0.42545800  0.85818100  1
  C  C5  1  0.39181900  0.39181900  0.39181900  1
  C  C6  1  0.85818100  0.85818100  0.42545800  1
  C  C7  1  0.42545800  0.85818100  0.85818100  1
  S  S0  1  0.25000000  0.25000000  0.25000000  1
  S  S1  1  0.00000000  0.00000000  0.00000000  1
  O  O0  1  0.82373100  0.26371200  0.39520900  1
  O  O1  1  0.19068600  0.19068600  0.19068600  1
  O  O2  1  0.51734800  0.26371200  0.82373100  1
  O  O3  1  0.26371200  0.39520900  0.82373100  1
  O  O4  1  0.19068600  0.19068600  0.42794100  1
  O  O5  1  0.42794100  0.19068600  0.19068600  1
  O  O6  1  0.82373100  0.51734800  0.26371200  1
  O  O7  1  0.82373100  0.39520900  0.51734800  1
  O  O8  1  0.19068600  0.42794100  0.19068600  1
  O  O9  1  0.39520900  0.82373100  0.26371200  1
  O  O10  1  0.98628800  0.73265200  0.85479100  1
  O  O11  1  0.39520900  0.51734800  0.82373100  1
  O  O12  1  0.26371200  0.82373100  0.51734800  1
  O  O13  1  0.73265200  0.85479100  0.98628800  1
  O  O14  1  0.39520900  0.26371200  0.51734800  1
  O  O15  1  0.73265200  0.42626900  0.85479100  1
  O  O16  1  0.85479100  0.98628800  0.73265200  1
  O  O17  1  0.51734800  0.82373100  0.39520900  1
  O  O18  1  0.51734800  0.39520900  0.26371200  1
  O  O19  1  0.98628800  0.42626900  0.73265200  1
  O  O20  1  0.85479100  0.73265200  0.42626900  1
  O  O21  1  0.26371200  0.51734800  0.39520900  1
  O  O22  1  0.85479100  0.42626900  0.98628800  1
  O  O23  1  0.05931400  0.82205900  0.05931400  1
  O  O24  1  0.42626900  0.85479100  0.73265200  1
  O  O25  1  0.42626900  0.73265200  0.98628800  1
  O  O26  1  0.05931400  0.05931400  0.82205900  1
  O  O27  1  0.82205900  0.05931400  0.05931400  1
  O  O28  1  0.98628800  0.85479100  0.42626900  1
  O  O29  1  0.73265200  0.98628800  0.42626900  1
  O  O30  1  0.05931400  0.05931400  0.05931400  1
  O  O31  1  0.42626900  0.98628800  0.85479100  1
loop_
_geom_bond_atom_site_label_1
_geom_bond_atom_site_label_2
_geom_bond_distance
_geom_bond_site_symmetry_2
Na0 O6 2.351490 1_455
Na0 O3 2.351490 1_554
Na0 O8 2.440467 1_555
Na0 O1 2.440473 1_555
Na0 O22 2.503440 1_454
Na0 O10 2.503440 1_454
Na1 O16 2.351490 1_545
Na1 O15 2.351490 1_555
Na1 O26 2.440476 1_655
Na1 O27 2.440476 1_556
Na1 O7 2.503440 1_555
Na1 O2 2.503440 1_555
Na2 O18 2.351490 1_555
Na2 O11 2.351490 1_554
Na2 O8 2.440476 1_555
Na2 O5 2.440476 1_555
Na2 O25 2.503440 1_554
Na2 O15 2.503440 1_554
Na3 O19 2.351490 1_455
Na3 O31 2.351490 1_545
Na3 O26 2.440467 1_555
Na3 O30 2.440473 1_556
Na3 O14 2.503440 1_555
Na3 O3 2.503440 1_555
Na4 O21 2.351490 1_555
Na4 O7 2.351490 1_455
Na4 O4 2.440476 1_555
Na4 O8 2.440476 1_555
Na4 O19 2.503440 1_455
Na4 O20 2.503440 1_455
Na5 O29 2.351490 1_545
Na5 O22 2.351490 1_554
Na5 O27 2.440467 1_555
Na5 O30 2.440473 1_655
Na5 O18 2.503440 1_555
Na5 O0 2.503440 1_555
Na6 O0 2.351490 1_455
Na6 O12 2.351490 1_545
Na6 O4 2.440467 1_555
Na6 O1 2.440473 1_555
Na6 O16 2.503440 1_445
Na6 O28 2.503440 1_445
Na7 O2 2.351490 1_554
Na7 O9 2.351490 1_545
Na7 O5 2.440467 1_555
Na7 O1 2.440473 1_555
Na7 O13 2.503440 1_544
Na7 O31 2.503440 1_544
Na8 O10 2.351490 1_455
Na8 O24 2.351490 1_555
Na8 O23 2.440476 1_556
Na8 O26 2.440476 1_565
Na8 O12 2.503440 1_555
Na8 O11 2.503440 1_555
Na9 O13 2.351490 1_554
Na9 O20 2.351490 1_555
Na9 O23 2.440476 1_655
Na9 O27 2.440476 1_565
Na9 O6 2.503440 1_555
Na9 O17 2.503440 1_555
Na10 O17 2.351490 1_545
Na10 O14 2.351490 1_555
Na10 O4 2.440476 1_555
Na10 O5 2.440476 1_555
Na10 O24 2.503440 1_545
Na10 O29 2.503440 1_545
Na11 O25 2.351490 1_554
Na11 O28 2.351490 1_455
Na11 O23 2.440467 1_555
Na11 O30 2.440473 1_565
Na11 O21 2.503440 1_555
Na11 O9 2.503440 1_555
Bi0 O31 2.555357 1_545
Bi0 O16 2.555357 1_545
Bi0 O2 2.555357 1_555
Bi0 O29 2.555357 1_545
Bi0 O14 2.555357 1_555
Bi0 O0 2.555357 1_555
Bi1 O22 2.555357 1_554
Bi1 O9 2.555357 1_555
Bi1 O25 2.555357 1_554
Bi1 O13 2.555357 1_554
Bi1 O18 2.555357 1_555
Bi1 O6 2.555357 1_555
Bi2 O28 2.555357 1_455
Bi2 O10 2.555357 1_455
Bi2 O21 2.555357 1_555
Bi2 O3 2.555357 1_555
Bi2 O12 2.555357 1_555
Bi2 O19 2.555357 1_455
Bi3 O15 2.555357 1_555
Bi3 O24 2.555357 1_555
Bi3 O7 2.555357 1_555
Bi3 O20 2.555357 1_555
Bi3 O11 2.555357 1_555
Bi3 O17 2.555357 1_555
C0 O0 1.306387 1_555
C0 O6 1.306392 1_555
C0 O7 1.306398 1_555
C1 O3 1.306387 1_555
C1 O2 1.306392 1_555
C1 O11 1.306398 1_555
C2 O9 1.306387 1_555
C2 O12 1.306392 1_555
C2 O17 1.306398 1_555
C3 O16 1.306392 1_555
C3 O10 1.306392 1_555
C3 O13 1.306392 1_555
C4 O22 1.306387 1_555
C4 O19 1.306392 1_555
C4 O15 1.306398 1_555
C5 O18 1.306392 1_555
C5 O14 1.306392 1_555
C5 O21 1.306392 1_555
C6 O28 1.306387 1_555
C6 O29 1.306392 1_555
C6 O20 1.306398 1_555
C7 O31 1.306387 1_555
C7 O25 1.306392 1_555
C7 O24 1.306398 1_555
O1 S0 1.496309 1_555
O4 S0 1.496300 1_555
O5 S0 1.496300 1_555
O8 S0 1.496300 1_555
O23 S1 1.496300 1_565
O26 S1 1.496300 1_556
O27 S1 1.496300 1_655
O30 S1 1.496309 1_555
