# generated using pymatgen
data_Li3Mg(NiO2)4
_symmetry_space_group_name_H-M   'P 1'
_cell_length_a   5.86801145
_cell_length_b   5.86801145
_cell_length_c   5.86801221
_cell_angle_alpha   60.02948681
_cell_angle_beta   60.02948681
_cell_angle_gamma   60.02948024
_symmetry_Int_Tables_number   1
_chemical_formula_structural   Li3Mg(NiO2)4
_chemical_formula_sum   'Li3 Mg1 Ni4 O8'
_cell_volume   142.97104306
_cell_formula_units_Z   1
loop_
 _symmetry_equiv_pos_site_id
 _symmetry_equiv_pos_as_xyz
  1  'x, y, z'
loop_
 _atom_site_type_symbol
 _atom_site_label
 _atom_site_symmetry_multiplicity
 _atom_site_fract_x
 _atom_site_fract_y
 _atom_site_fract_z
 _atom_site_occupancy
  Li  Li0  1  0.00000000  0.50000000  0.00000000  1
  Li  Li1  1  0.50000000  0.00000000  0.00000000  1
  Li  Li2  1  0.00000000  0.00000000  0.50000000  1
  Mg  Mg0  1  0.50000000  0.50000000  0.50000000  1
  Ni  Ni0  1  0.50000000  0.00000000  0.50000000  1
  Ni  Ni1  1  0.00000000  0.00000000  0.00000000  1
  Ni  Ni2  1  0.00000000  0.50000000  0.50000000  1
  Ni  Ni3  1  0.50000000  0.50000000  0.00000000  1
  O  O0  1  0.75000400  0.26523200  0.75000400  1
  O  O1  1  0.24999600  0.73476800  0.24999600  1
  O  O2  1  0.73476800  0.24999600  0.24999600  1
  O  O3  1  0.25709500  0.25709500  0.25709500  1
  O  O4  1  0.74290500  0.74290500  0.74290500  1
  O  O5  1  0.26523200  0.75000400  0.75000400  1
  O  O6  1  0.24999600  0.24999600  0.73476800  1
  O  O7  1  0.75000400  0.75000400  0.26523200  1
loop_
_geom_bond_atom_site_label_1
_geom_bond_atom_site_label_2
_geom_bond_distance
_geom_bond_site_symmetry_2
Li0 O4 2.135581 1_454
Li0 O3 2.135581 1_555
Li0 O6 2.139257 1_554
Li0 O7 2.139257 1_455
Li0 O2 2.139257 1_455
Li0 O5 2.139257 1_554
Li1 O4 2.135581 1_544
Li1 O3 2.135581 1_555
Li1 O7 2.139257 1_545
Li1 O6 2.139257 1_554
Li1 O0 2.139257 1_554
Li1 O1 2.139257 1_545
Li2 O4 2.135581 1_445
Li2 O3 2.135581 1_555
Li2 O2 2.139257 1_455
Li2 O1 2.139257 1_545
Li2 O0 2.139257 1_455
Li2 O5 2.139257 1_545
Mg0 O5 2.077020 1_555
Mg0 O2 2.077020 1_555
Mg0 O0 2.077020 1_555
Mg0 O1 2.077020 1_555
Mg0 O6 2.077020 1_555
Mg0 O7 2.077020 1_555
Ni0 O6 2.012906 1_555
Ni0 O7 2.012906 1_545
Ni0 O2 2.012906 1_555
Ni0 O5 2.012906 1_545
Ni0 O3 2.017997 1_555
Ni0 O4 2.017997 1_545
Ni1 O5 2.077066 1_544
Ni1 O2 2.077066 1_455
Ni1 O1 2.077066 1_545
Ni1 O0 2.077066 1_454
Ni1 O7 2.077066 1_445
Ni1 O6 2.077066 1_554
Ni2 O6 2.012906 1_555
Ni2 O7 2.012906 1_455
Ni2 O1 2.012906 1_555
Ni2 O0 2.012906 1_455
Ni2 O3 2.017997 1_555
Ni2 O4 2.017997 1_455
Ni3 O0 2.012906 1_554
Ni3 O1 2.012906 1_555
Ni3 O5 2.012906 1_554
Ni3 O2 2.012906 1_555
Ni3 O3 2.017997 1_555
Ni3 O4 2.017997 1_554
