# generated using pymatgen
data_Li2FeH8(SO6)2
_symmetry_space_group_name_H-M   'P 1'
_cell_length_a   12.12942428
_cell_length_b   9.34096700
_cell_length_c   9.46600493
_cell_angle_alpha   90.00000000
_cell_angle_beta   94.79262754
_cell_angle_gamma   90.00000000
_symmetry_Int_Tables_number   1
_chemical_formula_structural   Li2FeH8(SO6)2
_chemical_formula_sum   'Li8 Fe4 H32 S8 O48'
_cell_volume   1068.75370163
_cell_formula_units_Z   4
loop_
 _symmetry_equiv_pos_site_id
 _symmetry_equiv_pos_as_xyz
  1  'x, y, z'
loop_
 _atom_site_type_symbol
 _atom_site_label
 _atom_site_symmetry_multiplicity
 _atom_site_fract_x
 _atom_site_fract_y
 _atom_site_fract_z
 _atom_site_occupancy
  Li  Li0  1  0.15992100  0.64350100  0.24726300  1
  Li  Li1  1  0.21049300  0.24868700  0.29092600  1
  Li  Li2  1  0.28950700  0.74868700  0.70907400  1
  Li  Li3  1  0.34007900  0.14350100  0.75273700  1
  Li  Li4  1  0.65992100  0.85649900  0.24726300  1
  Li  Li5  1  0.71049300  0.25131300  0.29092600  1
  Li  Li6  1  0.78950700  0.75131300  0.70907400  1
  Li  Li7  1  0.84007900  0.35649900  0.75273700  1
  Fe  Fe0  1  0.00000000  0.50000000  0.50000000  1
  Fe  Fe1  1  0.00000000  0.00000000  0.00000000  1
  Fe  Fe2  1  0.50000000  0.00000000  0.50000000  1
  Fe  Fe3  1  0.50000000  0.50000000  0.00000000  1
  H  H0  1  0.05243400  0.27958400  0.94704200  1
  H  H1  1  0.06521000  0.71389900  0.98355400  1
  H  H2  1  0.07125100  0.01827600  0.72944100  1
  H  H3  1  0.05860500  0.01949900  0.28102900  1
  H  H4  1  0.06464100  0.64468500  0.74390500  1
  H  H5  1  0.06171300  0.75325800  0.61760300  1
  H  H6  1  0.07140700  0.24959500  0.62240200  1
  H  H7  1  0.08787200  0.36231600  0.74340000  1
  H  H8  1  0.41212800  0.86231600  0.25660000  1
  H  H9  1  0.42859300  0.74959500  0.37759800  1
  H  H10  1  0.43828700  0.25325800  0.38239700  1
  H  H11  1  0.43535900  0.14468500  0.25609500  1
  H  H12  1  0.44139500  0.51949900  0.71897100  1
  H  H13  1  0.42874900  0.51827600  0.27055900  1
  H  H14  1  0.43479000  0.21389900  0.01644600  1
  H  H15  1  0.44756600  0.77958400  0.05295800  1
  H  H16  1  0.55243400  0.22041600  0.94704200  1
  H  H17  1  0.56521000  0.78610100  0.98355400  1
  H  H18  1  0.57125100  0.48172400  0.72944100  1
  H  H19  1  0.55860500  0.48050100  0.28102900  1
  H  H20  1  0.56464100  0.85531500  0.74390500  1
  H  H21  1  0.56171300  0.74674200  0.61760300  1
  H  H22  1  0.57140700  0.25040500  0.62240200  1
  H  H23  1  0.58787200  0.13768400  0.74340000  1
  H  H24  1  0.91212800  0.63768400  0.25660000  1
  H  H25  1  0.92859300  0.75040500  0.37759800  1
  H  H26  1  0.93828700  0.24674200  0.38239700  1
  H  H27  1  0.93535900  0.35531500  0.25609500  1
  H  H28  1  0.94139500  0.98050100  0.71897100  1
  H  H29  1  0.92874900  0.98172400  0.27055900  1
  H  H30  1  0.93479000  0.28610100  0.01644600  1
  H  H31  1  0.94756600  0.72041600  0.05295800  1
  S  S0  1  0.21091200  0.50203600  0.96275900  1
  S  S1  1  0.22115600  0.00924500  0.53057800  1
  S  S2  1  0.27884400  0.50924500  0.46942200  1
  S  S3  1  0.28908800  0.00203600  0.03724100  1
  S  S4  1  0.71091200  0.99796400  0.96275900  1
  S  S5  1  0.72115600  0.49075500  0.53057800  1
  S  S6  1  0.77884400  0.99075500  0.46942200  1
  S  S7  1  0.78908800  0.49796400  0.03724100  1
  O  O0  1  0.01181500  0.97080700  0.77822100  1
  O  O1  1  0.02160000  0.67098000  0.65261400  1
  O  O2  1  0.03775900  0.33833300  0.65696800  1
  O  O3  1  0.01904400  0.77096100  0.04647400  1
  O  O4  1  0.15248800  0.62804400  0.88916900  1
  O  O5  1  0.17408800  0.36665200  0.89090700  1
  O  O6  1  0.16297800  0.10296600  0.62794100  1
  O  O7  1  0.15770200  0.53718500  0.43225700  1
  O  O8  1  0.19880700  0.85614800  0.56013800  1
  O  O9  1  0.19095200  0.04730000  0.38059900  1
  O  O10  1  0.16995600  0.02442600  0.04655400  1
  O  O11  1  0.18380400  0.49589700  0.11301200  1
  O  O12  1  0.31619600  0.99589700  0.88698800  1
  O  O13  1  0.33004400  0.52442600  0.95344600  1
  O  O14  1  0.30904800  0.54730000  0.61940100  1
  O  O15  1  0.30119300  0.35614800  0.43986200  1
  O  O16  1  0.34229800  0.03718500  0.56774300  1
  O  O17  1  0.33702200  0.60296600  0.37205900  1
  O  O18  1  0.32591200  0.86665200  0.10909300  1
  O  O19  1  0.34751200  0.12804400  0.11083100  1
  O  O20  1  0.48095600  0.27096100  0.95352600  1
  O  O21  1  0.46224100  0.83833300  0.34303200  1
  O  O22  1  0.47840000  0.17098000  0.34738600  1
  O  O23  1  0.51181500  0.52919300  0.77822100  1
  O  O24  1  0.48818500  0.47080700  0.22177900  1
  O  O25  1  0.52160000  0.82902000  0.65261400  1
  O  O26  1  0.53775900  0.16166700  0.65696800  1
  O  O27  1  0.51904400  0.72903900  0.04647400  1
  O  O28  1  0.65248800  0.87195600  0.88916900  1
  O  O29  1  0.67408800  0.13334800  0.89090700  1
  O  O30  1  0.66297800  0.39703400  0.62794100  1
  O  O31  1  0.65770200  0.96281500  0.43225700  1
  O  O32  1  0.69880700  0.64385200  0.56013800  1
  O  O33  1  0.69095200  0.45270000  0.38059900  1
  O  O34  1  0.66995600  0.47557400  0.04655400  1
  O  O35  1  0.68380400  0.00410300  0.11301200  1
  O  O36  1  0.81619600  0.50410300  0.88698800  1
  O  O37  1  0.83004400  0.97557400  0.95344600  1
  O  O38  1  0.80904800  0.95270000  0.61940100  1
  O  O39  1  0.80119300  0.14385200  0.43986200  1
  O  O40  1  0.84229800  0.46281500  0.56774300  1
  O  O41  1  0.83702200  0.89703400  0.37205900  1
  O  O42  1  0.82591200  0.63334800  0.10909300  1
  O  O43  1  0.84751200  0.37195600  0.11083100  1
  O  O44  1  0.98095600  0.22903900  0.95352600  1
  O  O45  1  0.96224100  0.66166700  0.34303200  1
  O  O46  1  0.97840000  0.32902000  0.34738600  1
  O  O47  1  0.98818500  0.02919300  0.22177900  1
loop_
_geom_bond_atom_site_label_1
_geom_bond_atom_site_label_2
_geom_bond_distance
_geom_bond_site_symmetry_2
Li0 O11 1.913481 1_555
Li0 O7 2.015286 1_555
Li0 O17 2.393600 1_555
Li1 O15 1.986541 1_555
Li1 O9 2.085440 1_555
Li2 O8 1.986541 1_555
Li2 O14 2.085440 1_555
Li3 O12 1.913481 1_545
Li3 O16 2.015286 1_555
Li3 O6 2.393600 1_555
Li4 O35 1.913481 1_565
Li4 O31 2.015286 1_555
Li4 O41 2.393600 1_555
Li5 O39 1.986541 1_555
Li5 O33 2.085440 1_555
Li6 O32 1.986541 1_555
Li6 O38 2.085440 1_555
Li7 O36 1.913481 1_555
Li7 O40 2.015286 1_555
Li7 O30 2.393600 1_555
Fe0 O7 2.096606 1_555
Fe0 O40 2.096606 1_455
Fe0 O2 2.141099 1_555
Fe0 O45 2.141099 1_455
Fe0 O1 2.154805 1_555
Fe0 O46 2.154805 1_455
Fe1 O10 2.084252 1_555
Fe1 O37 2.084252 1_444
Fe1 O47 2.133656 1_455
Fe1 O0 2.133656 1_544
Fe1 O3 2.192519 1_545
Fe1 O44 2.192519 1_454
Fe2 O16 2.096606 1_555
Fe2 O31 2.096606 1_545
Fe2 O26 2.141099 1_555
Fe2 O21 2.141099 1_545
Fe2 O25 2.154805 1_545
Fe2 O22 2.154805 1_555
Fe3 O34 2.084252 1_555
Fe3 O13 2.084252 1_554
Fe3 O24 2.133656 1_555
Fe3 O23 2.133656 1_554
Fe3 O27 2.192519 1_555
Fe3 O20 2.192519 1_554
H0 O44 0.993600 1_455
H1 O3 1.004061 1_556
H1 O4 1.649289 1_555
H2 O0 0.992563 1_545
H3 O47 0.986049 1_455
H4 O1 1.002131 1_555
H4 O4 1.674966 1_555
H5 O1 0.981930 1_555
H6 O2 0.991473 1_555
H7 O2 1.002972 1_555
H7 O5 1.673588 1_555
H8 O21 1.002972 1_555
H8 O18 1.673588 1_555
H9 O21 0.991473 1_555
H10 O22 0.981930 1_555
H11 O22 1.002131 1_555
H11 O19 1.674966 1_555
H12 O23 0.986049 1_555
H13 O24 0.992563 1_555
H14 O20 1.004061 1_554
H14 O19 1.649289 1_555
H15 O27 0.993600 1_555
H16 O20 0.993600 1_555
H17 O27 1.004061 1_556
H17 O28 1.649289 1_555
H18 O23 0.992563 1_555
H19 O24 0.986049 1_555
H20 O25 1.002131 1_555
H20 O28 1.674966 1_555
H21 O25 0.981930 1_555
H22 O26 0.991473 1_555
H23 O26 1.002972 1_555
H23 O29 1.673588 1_555
H24 O45 1.002972 1_555
H24 O42 1.673588 1_555
H25 O45 0.991473 1_555
H26 O46 0.981930 1_555
H27 O46 1.002131 1_555
H27 O43 1.674966 1_555
H28 O0 0.986049 1_655
H29 O47 0.992563 1_565
H30 O44 1.004061 1_554
H30 O43 1.649289 1_555
H31 O3 0.993600 1_655
O4 S0 1.513396 1_555
O5 S0 1.486809 1_555
O6 S1 1.490792 1_555
O7 S2 1.504854 1_555
O8 S1 1.486461 1_565
O9 S1 1.479601 1_555
O10 S3 1.469977 1_555
O11 S0 1.487438 1_554
O12 S3 1.487438 1_566
O13 S0 1.469977 1_555
O14 S2 1.479601 1_555
O15 S2 1.486461 1_555
O16 S1 1.504854 1_555
O17 S2 1.490792 1_555
O18 S3 1.486809 1_565
O19 S3 1.513396 1_555
O28 S4 1.513396 1_555
O29 S4 1.486809 1_545
O30 S5 1.490792 1_555
O31 S6 1.504854 1_555
O32 S5 1.486461 1_555
O33 S5 1.479601 1_555
O34 S7 1.469977 1_555
O35 S4 1.487438 1_544
O36 S7 1.487438 1_556
O37 S4 1.469977 1_555
O38 S6 1.479601 1_555
O39 S6 1.486461 1_545
O40 S5 1.504854 1_555
O41 S6 1.490792 1_555
O42 S7 1.486809 1_555
O43 S7 1.513396 1_555
