# generated using pymatgen
data_Mn2PH2CO7
_symmetry_space_group_name_H-M   'P 1'
_cell_length_a   6.59415300
_cell_length_b   10.17523100
_cell_length_c   10.34499045
_cell_angle_alpha   63.51192578
_cell_angle_beta   90.00000000
_cell_angle_gamma   90.00000000
_symmetry_Int_Tables_number   1
_chemical_formula_structural   Mn2PH2CO7
_chemical_formula_sum   'Mn8 P4 H8 C4 O28'
_cell_volume   621.25462165
_cell_formula_units_Z   4
loop_
 _symmetry_equiv_pos_site_id
 _symmetry_equiv_pos_as_xyz
  1  'x, y, z'
loop_
 _atom_site_type_symbol
 _atom_site_label
 _atom_site_symmetry_multiplicity
 _atom_site_fract_x
 _atom_site_fract_y
 _atom_site_fract_z
 _atom_site_occupancy
  Mn  Mn0  1  0.14631800  0.02575300  0.11635100  1
  Mn  Mn1  1  0.35368200  0.52575300  0.11635100  1
  Mn  Mn2  1  0.97371400  0.26707300  0.23453100  1
  Mn  Mn3  1  0.52628600  0.76707300  0.23453100  1
  Mn  Mn4  1  0.47371400  0.23292700  0.76546900  1
  Mn  Mn5  1  0.02628600  0.73292700  0.76546900  1
  Mn  Mn6  1  0.64631800  0.47424700  0.88364900  1
  Mn  Mn7  1  0.85368200  0.97424700  0.88364900  1
  P  P0  1  0.65131900  0.10543700  0.10184500  1
  P  P1  1  0.84868100  0.60543700  0.10184500  1
  P  P2  1  0.15131900  0.39456300  0.89815500  1
  P  P3  1  0.34868100  0.89456300  0.89815500  1
  H  H0  1  0.45553100  0.22147200  0.26551000  1
  H  H1  1  0.37843300  0.27822400  0.37805000  1
  H  H2  1  0.04446900  0.72147200  0.26551000  1
  H  H3  1  0.12156700  0.77822400  0.37805000  1
  H  H4  1  0.87843300  0.22177600  0.62195000  1
  H  H5  1  0.95553100  0.27852800  0.73449000  1
  H  H6  1  0.62156700  0.72177600  0.62195000  1
  H  H7  1  0.54446900  0.77852800  0.73449000  1
  C  C0  1  0.95402600  0.04150400  0.54052100  1
  C  C1  1  0.45402600  0.45849600  0.45947900  1
  C  C2  1  0.54597400  0.54150400  0.54052100  1
  C  C3  1  0.04597400  0.95849600  0.45947900  1
  O  O0  1  0.82690300  0.01457800  0.07814300  1
  O  O1  1  0.09884900  0.26142800  0.04497000  1
  O  O2  1  0.70079400  0.16194700  0.21373200  1
  O  O3  1  0.67309700  0.51457800  0.07814300  1
  O  O4  1  0.09047400  0.03683300  0.32807100  1
  O  O5  1  0.03333700  0.49738200  0.15656700  1
  O  O6  1  0.40115100  0.76142800  0.04497000  1
  O  O7  1  0.34930600  0.28165900  0.28226500  1
  O  O8  1  0.79920600  0.66194700  0.21373200  1
  O  O9  1  0.93041500  0.17936900  0.47177600  1
  O  O10  1  0.40952600  0.53683300  0.32807100  1
  O  O11  1  0.46666300  0.99738200  0.15656700  1
  O  O12  1  0.15069400  0.78165900  0.28226500  1
  O  O13  1  0.43041500  0.32063100  0.52822400  1
  O  O14  1  0.56958500  0.67936900  0.47177600  1
  O  O15  1  0.84930600  0.21834100  0.71773500  1
  O  O16  1  0.53333700  0.00261800  0.84343300  1
  O  O17  1  0.59047400  0.46316700  0.67192900  1
  O  O18  1  0.06958500  0.82063100  0.52822400  1
  O  O19  1  0.20079400  0.33805300  0.78626800  1
  O  O20  1  0.65069400  0.71834100  0.71773500  1
  O  O21  1  0.59884900  0.23857200  0.95503000  1
  O  O22  1  0.96666300  0.50261800  0.84343300  1
  O  O23  1  0.90952600  0.96316700  0.67192900  1
  O  O24  1  0.32690300  0.48542200  0.92185700  1
  O  O25  1  0.29920600  0.83805300  0.78626800  1
  O  O26  1  0.90115100  0.73857200  0.95503000  1
  O  O27  1  0.17309700  0.98542200  0.92185700  1
loop_
_geom_bond_atom_site_label_1
_geom_bond_atom_site_label_2
_geom_bond_distance
_geom_bond_site_symmetry_2
Mn0 O11 2.147449 1_545
Mn0 O0 2.155373 1_455
Mn0 O1 2.194152 1_555
Mn0 O27 2.232584 1_544
Mn0 O4 2.272826 1_555
Mn0 O12 2.304980 1_545
Mn1 O5 2.147449 1_555
Mn1 O3 2.155373 1_555
Mn1 O6 2.194152 1_555
Mn1 O24 2.232584 1_554
Mn1 O10 2.272826 1_555
Mn1 O7 2.304980 1_555
Mn2 O5 2.147285 1_655
Mn2 O1 2.151792 1_655
Mn2 O2 2.152825 1_555
Mn2 O9 2.224354 1_555
Mn2 O4 2.235043 1_655
Mn2 O7 2.542705 1_655
Mn3 O11 2.147285 1_555
Mn3 O6 2.151792 1_555
Mn3 O8 2.152825 1_555
Mn3 O14 2.224354 1_555
Mn3 O10 2.235043 1_555
Mn3 O12 2.542705 1_555
Mn4 O16 2.147285 1_555
Mn4 O21 2.151792 1_555
Mn4 O19 2.152825 1_555
Mn4 O13 2.224354 1_555
Mn4 O17 2.235043 1_555
Mn4 O15 2.542705 1_555
Mn5 O22 2.147285 1_455
Mn5 O26 2.151792 1_455
Mn5 O25 2.152825 1_555
Mn5 O18 2.224354 1_555
Mn5 O23 2.235043 1_455
Mn5 O20 2.542705 1_455
Mn6 O22 2.147449 1_555
Mn6 O24 2.155373 1_555
Mn6 O21 2.194152 1_555
Mn6 O3 2.232584 1_556
Mn6 O17 2.272826 1_555
Mn6 O20 2.304980 1_555
Mn7 O16 2.147449 1_565
Mn7 O27 2.155373 1_655
Mn7 O26 2.194152 1_555
Mn7 O0 2.232584 1_566
Mn7 O23 2.272826 1_555
Mn7 O15 2.304980 1_565
H0 O7 0.995206 1_555
H1 O7 0.994530 1_555
H2 O12 0.995206 1_555
H3 O12 0.994530 1_555
H4 O15 0.994530 1_555
H5 O15 0.995206 1_555
H6 O20 0.994530 1_555
H7 O20 0.995206 1_555
C0 O23 1.266055 1_545
C0 O9 1.268054 1_555
C1 O10 1.266055 1_555
C1 O13 1.268054 1_555
C2 O17 1.266055 1_555
C2 O14 1.268054 1_555
C3 O4 1.266055 1_565
C3 O18 1.268054 1_555
O0 P0 1.567679 1_555
O1 P2 1.557657 1_554
O2 P0 1.539638 1_555
O3 P1 1.567679 1_555
O5 P1 1.567417 1_455
O6 P3 1.557657 1_554
O8 P1 1.539638 1_555
O11 P0 1.567417 1_565
O16 P3 1.567417 1_545
O19 P2 1.539638 1_555
O21 P0 1.557657 1_556
O22 P2 1.567417 1_655
O24 P2 1.567679 1_555
O25 P3 1.539638 1_555
O26 P1 1.557657 1_556
O27 P3 1.567679 1_555
