# generated using pymatgen
data_Li2Mn2F7
_symmetry_space_group_name_H-M   'P 1'
_cell_length_a   5.58032600
_cell_length_b   6.58220372
_cell_length_c   8.79920004
_cell_angle_alpha   108.77783695
_cell_angle_beta   102.23099206
_cell_angle_gamma   87.98261133
_symmetry_Int_Tables_number   1
_chemical_formula_structural   Li2Mn2F7
_chemical_formula_sum   'Li4 Mn4 F14'
_cell_volume   298.86331901
_cell_formula_units_Z   2
loop_
 _symmetry_equiv_pos_site_id
 _symmetry_equiv_pos_as_xyz
  1  'x, y, z'
loop_
 _atom_site_type_symbol
 _atom_site_label
 _atom_site_symmetry_multiplicity
 _atom_site_fract_x
 _atom_site_fract_y
 _atom_site_fract_z
 _atom_site_occupancy
  Li  Li0  1  0.89459500  0.59250000  0.25843900  1
  Li  Li1  1  0.44282200  0.76519400  0.34732100  1
  Li  Li2  1  0.55717800  0.23480600  0.65267900  1
  Li  Li3  1  0.10540500  0.40750000  0.74156100  1
  Mn  Mn0  1  0.69997200  0.98603300  0.16494600  1
  Mn  Mn1  1  0.22242700  0.22563700  0.30882200  1
  Mn  Mn2  1  0.77757300  0.77436300  0.69117800  1
  Mn  Mn3  1  0.30002800  0.01396700  0.83505400  1
  F  F0  1  0.60509200  0.69792100  0.15027000  1
  F  F1  1  0.06863900  0.92893900  0.26614000  1
  F  F2  1  0.30713200  0.10416900  0.08665500  1
  F  F3  1  0.84205100  0.27522200  0.20571000  1
  F  F4  1  0.23829200  0.51658500  0.30075700  1
  F  F5  1  0.77110200  0.68669400  0.46147300  1
  F  F6  1  0.55742300  0.08344700  0.37750000  1
  F  F7  1  0.44257700  0.91655300  0.62250000  1
  F  F8  1  0.22889800  0.31330600  0.53852700  1
  F  F9  1  0.76170800  0.48341500  0.69924300  1
  F  F10  1  0.15794900  0.72477800  0.79429000  1
  F  F11  1  0.69286800  0.89583100  0.91334500  1
  F  F12  1  0.93136100  0.07106100  0.73386000  1
  F  F13  1  0.39490800  0.30207900  0.84973000  1
loop_
_geom_bond_atom_site_label_1
_geom_bond_atom_site_label_2
_geom_bond_distance
_geom_bond_site_symmetry_2
F0 Li0 1.921482 1_555
F0 Mn0 1.943564 1_555
F0 Li1 2.040869 1_555
F1 Mn1 2.049560 1_565
F1 Mn0 2.133384 1_455
F1 Li1 2.395237 1_555
F1 Li0 2.424634 1_455
F2 Mn1 2.010706 1_555
F2 Mn3 2.091319 1_554
F2 Mn0 2.338771 1_545
F3 Mn0 1.981609 1_545
F3 Li0 2.006058 1_555
F3 Mn1 2.181998 1_655
F4 Li1 1.910506 1_555
F4 Mn1 1.944864 1_555
F4 Li0 1.953601 1_455
F5 Mn2 1.907687 1_555
F5 Li0 1.956905 1_555
F5 Li1 2.029688 1_555
F6 Mn0 2.089103 1_545
F6 Mn1 2.120858 1_555
F6 Li1 2.128835 1_545
F6 Li2 2.302992 1_555
F7 Mn3 2.089103 1_565
F7 Mn2 2.120858 1_555
F7 Li2 2.128835 1_565
F7 Li1 2.302992 1_555
F8 Mn1 1.907687 1_555
F8 Li3 1.956905 1_555
F8 Li2 2.029688 1_555
F9 Li2 1.910506 1_555
F9 Mn2 1.944864 1_555
F9 Li3 1.953601 1_655
F10 Mn3 1.981609 1_565
F10 Li3 2.006058 1_555
F10 Mn2 2.181998 1_455
F11 Mn2 2.010706 1_555
F11 Mn0 2.091319 1_556
F11 Mn3 2.338771 1_565
F12 Mn2 2.049560 1_545
F12 Mn3 2.133384 1_655
F12 Li2 2.395237 1_555
F12 Li3 2.424634 1_655
F13 Li3 1.921482 1_555
F13 Mn3 1.943564 1_555
F13 Li2 2.040869 1_555
