# generated using pymatgen
data_Ba4Tm6O13
_symmetry_space_group_name_H-M   'P 1'
_cell_length_a   12.66426976
_cell_length_b   12.66426976
_cell_length_c   12.66426976
_cell_angle_alpha   152.28931568
_cell_angle_beta   121.72011664
_cell_angle_gamma   65.72747492
_symmetry_Int_Tables_number   1
_chemical_formula_structural   Ba4Tm6O13
_chemical_formula_sum   'Ba8 Tm12 O26'
_cell_volume   795.78143514
_cell_formula_units_Z   2
loop_
 _symmetry_equiv_pos_site_id
 _symmetry_equiv_pos_as_xyz
  1  'x, y, z'
loop_
 _atom_site_type_symbol
 _atom_site_label
 _atom_site_symmetry_multiplicity
 _atom_site_fract_x
 _atom_site_fract_y
 _atom_site_fract_z
 _atom_site_occupancy
  Ba  Ba0  1  0.29271800  0.15832000  0.13298000  1
  Ba  Ba1  1  0.45383600  0.33400100  0.11999900  1
  Ba  Ba2  1  0.21400200  0.83400100  0.38016500  1
  Ba  Ba3  1  0.02534000  0.65832000  0.36560100  1
  Ba  Ba4  1  0.97466000  0.34026200  0.63298000  1
  Ba  Ba5  1  0.78599800  0.16616300  0.61999900  1
  Ba  Ba6  1  0.54616400  0.66616300  0.88016500  1
  Ba  Ba7  1  0.70728200  0.84026200  0.86560100  1
  Tm  Tm0  1  0.83635600  0.38972600  0.29900200  1
  Tm  Tm1  1  0.36816800  0.74490000  0.62448100  1
  Tm  Tm2  1  0.55461100  0.93942300  0.59394000  1
  Tm  Tm3  1  0.34548300  0.43942300  0.88481200  1
  Tm  Tm4  1  0.12041900  0.24490000  0.87673200  1
  Tm  Tm5  1  0.90927600  0.96264600  0.79900200  1
  Tm  Tm6  1  0.09072400  0.88972600  0.05337000  1
  Tm  Tm7  1  0.87958100  0.75631400  0.12448100  1
  Tm  Tm8  1  0.65451700  0.53932900  0.09394000  1
  Tm  Tm9  1  0.44538900  0.03932900  0.38481200  1
  Tm  Tm10  1  0.63183200  0.25631400  0.37673200  1
  Tm  Tm11  1  0.16364400  0.46264600  0.55337000  1
  O  O0  1  0.00000000  0.68955900  0.68955900  1
  O  O1  1  0.00000000  0.18955900  0.18955900  1
  O  O2  1  0.73577700  0.35137600  0.35369400  1
  O  O3  1  0.74306600  0.08998400  0.89362300  1
  O  O4  1  0.50362600  0.50387900  0.49818500  1
  O  O5  1  0.47325500  0.87760600  0.64607900  1
  O  O6  1  0.51602500  0.58530500  0.20177700  1
  O  O7  1  0.24256600  0.48581800  0.24773600  1
  O  O8  1  0.23808200  0.98581800  0.74325200  1
  O  O9  1  0.38352800  0.08530500  0.56927900  1
  O  O10  1  0.00231800  0.11791700  0.85369400  1
  O  O11  1  0.23152700  0.37760600  0.90435100  1
  O  O12  1  0.80363900  0.65055700  0.39362300  1
  O  O13  1  0.00569300  0.00387900  0.50025300  1
  O  O14  1  0.99430700  0.49456000  0.99818500  1
  O  O15  1  0.19636100  0.58998400  0.84691800  1
  O  O16  1  0.76847300  0.67282400  0.14607900  1
  O  O17  1  0.99768200  0.85137600  0.11559900  1
  O  O18  1  0.61647200  0.18575200  0.70177700  1
  O  O19  1  0.76191800  0.50517000  0.74773600  1
  O  O20  1  0.75743400  0.00517000  0.24325200  1
  O  O21  1  0.48397500  0.68575200  0.06927900  1
  O  O22  1  0.52674500  0.17282400  0.40435100  1
  O  O23  1  0.49637400  0.99456000  0.00025300  1
  O  O24  1  0.25693400  0.15055700  0.34691800  1
  O  O25  1  0.26422300  0.61791700  0.61559900  1
loop_
_geom_bond_atom_site_label_1
_geom_bond_atom_site_label_2
_geom_bond_distance
_geom_bond_site_symmetry_2
Ba0 O23 2.786974 1_545
Ba0 O7 2.801739 1_555
Ba0 O8 2.858638 1_544
Ba0 O4 2.908420 1_555
Ba0 O25 2.994667 1_555
Ba0 O22 3.041045 1_555
Ba0 O24 3.058608 1_555
Ba0 O25 3.169474 1_544
Ba0 O10 3.310857 1_554
Ba1 O6 2.681172 1_555
Ba1 O4 2.767712 1_555
Ba1 O7 2.878750 1_555
Ba1 O5 2.906997 1_544
Ba1 O23 2.912348 1_545
Ba1 O8 2.935913 1_544
Ba1 O11 2.999461 1_554
Ba1 O2 3.152357 1_555
Ba1 O5 3.209347 1_555
Ba2 O9 2.681180 1_565
Ba2 O13 2.767723 1_565
Ba2 O8 2.878750 1_555
Ba2 O11 2.906997 1_554
Ba2 O14 2.912347 1_454
Ba2 O7 2.935913 1_555
Ba2 O5 2.999461 1_555
Ba2 O17 3.152357 1_455
Ba2 O11 3.209347 1_565
Ba3 O14 2.786974 1_454
Ba3 O8 2.801738 1_555
Ba3 O7 2.858633 1_555
Ba3 O13 2.908408 1_565
Ba3 O10 2.994672 1_565
Ba3 O16 3.041040 1_455
Ba3 O12 3.058616 1_455
Ba3 O10 3.169473 1_554
Ba3 O25 3.310865 1_555
Ba4 O13 2.786974 1_655
Ba4 O19 2.801739 1_555
Ba4 O20 2.858638 1_555
Ba4 O14 2.908405 1_555
Ba4 O17 2.994667 1_556
Ba4 O11 3.041045 1_655
Ba4 O15 3.058608 1_655
Ba4 O17 3.169474 1_545
Ba4 O2 3.310857 1_555
Ba5 O18 2.681172 1_555
Ba5 O14 2.767725 1_555
Ba5 O19 2.878750 1_555
Ba5 O16 2.906997 1_545
Ba5 O13 2.912348 1_655
Ba5 O20 2.935913 1_555
Ba5 O22 2.999461 1_555
Ba5 O10 3.152357 1_655
Ba5 O16 3.209347 1_556
Ba6 O21 2.681160 1_556
Ba6 O23 2.767723 1_556
Ba6 O20 2.878750 1_566
Ba6 O22 2.906997 1_555
Ba6 O4 2.912360 1_555
Ba6 O19 2.935913 1_555
Ba6 O16 2.999461 1_556
Ba6 O25 3.152357 1_555
Ba6 O22 3.209347 1_566
Ba7 O4 2.786974 1_555
Ba7 O20 2.801751 1_566
Ba7 O19 2.858646 1_555
Ba7 O23 2.908423 1_556
Ba7 O2 2.994668 1_566
Ba7 O5 3.041038 1_555
Ba7 O3 3.058597 1_565
Ba7 O2 3.169470 1_555
Ba7 O17 3.310861 1_556
O0 Tm5 2.263240 1_455
O0 Tm6 2.263240 1_556
O0 Tm11 2.369440 1_555
O0 Tm0 2.369440 1_455
O1 Tm11 2.263240 1_555
O1 Tm0 2.263240 1_455
O1 Tm5 2.369440 1_444
O1 Tm6 2.369440 1_545
O2 Tm0 2.090465 1_555
O2 Tm10 2.365603 1_555
O3 Tm5 2.215225 1_545
O3 Tm0 2.228249 1_556
O3 Tm2 2.266971 1_545
O4 Tm10 2.175787 1_555
O4 Tm1 2.180347 1_555
O5 Tm2 2.098629 1_555
O5 Tm1 2.304917 1_555
O6 Tm2 2.197665 1_555
O6 Tm3 2.285651 1_554
O6 Tm8 2.356149 1_555
O7 Tm4 2.152417 1_554
O7 Tm1 2.156849 1_555
O8 Tm1 2.152417 1_555
O8 Tm4 2.156849 1_565
O9 Tm3 2.197667 1_555
O9 Tm2 2.285656 1_545
O9 Tm9 2.356137 1_555
O10 Tm5 2.090465 1_445
O10 Tm4 2.365614 1_555
O11 Tm3 2.098629 1_555
O11 Tm4 2.304917 1_555
O12 Tm0 2.215225 1_555
O12 Tm5 2.228249 1_555
O12 Tm8 2.266971 1_555
O13 Tm7 2.175793 1_445
O13 Tm4 2.180348 1_555
O14 Tm4 2.175793 1_655
O14 Tm7 2.180353 1_556
O15 Tm11 2.215225 1_555
O15 Tm6 2.228249 1_556
O15 Tm3 2.266971 1_555
O16 Tm8 2.098629 1_555
O16 Tm7 2.304928 1_555
O17 Tm6 2.090465 1_655
O17 Tm7 2.365604 1_555
O18 Tm8 2.197665 1_556
O18 Tm9 2.285651 1_555
O18 Tm2 2.356149 1_545
O19 Tm10 2.152418 1_555
O19 Tm7 2.156846 1_556
O20 Tm7 2.152410 1_545
O20 Tm10 2.156855 1_555
O21 Tm9 2.197667 1_565
O21 Tm8 2.285656 1_555
O21 Tm3 2.356157 1_554
O22 Tm9 2.098629 1_555
O22 Tm10 2.304928 1_555
O23 Tm1 2.175791 1_554
O23 Tm10 2.180347 1_565
O24 Tm6 2.215225 1_545
O24 Tm11 2.228249 1_555
O24 Tm9 2.266971 1_555
O25 Tm11 2.090465 1_555
O25 Tm1 2.365614 1_555
