# generated using pymatgen
data_V2Cu(PO4)3
_symmetry_space_group_name_H-M   'P 1'
_cell_length_a   8.62611637
_cell_length_b   8.62611721
_cell_length_c   8.62611746
_cell_angle_alpha   59.85521412
_cell_angle_beta   59.85520782
_cell_angle_gamma   59.85520361
_symmetry_Int_Tables_number   1
_chemical_formula_structural   V2Cu(PO4)3
_chemical_formula_sum   'V4 Cu2 P6 O24'
_cell_volume   452.37823260
_cell_formula_units_Z   2
loop_
 _symmetry_equiv_pos_site_id
 _symmetry_equiv_pos_as_xyz
  1  'x, y, z'
loop_
 _atom_site_type_symbol
 _atom_site_label
 _atom_site_symmetry_multiplicity
 _atom_site_fract_x
 _atom_site_fract_y
 _atom_site_fract_z
 _atom_site_occupancy
  V  V0  1  0.14225200  0.14225200  0.14225200  1
  V  V1  1  0.35774800  0.35774800  0.35774800  1
  V  V2  1  0.64225200  0.64225200  0.64225200  1
  V  V3  1  0.85774800  0.85774800  0.85774800  1
  Cu  Cu0  1  0.00000000  0.00000000  0.00000000  1
  Cu  Cu1  1  0.50000000  0.50000000  0.50000000  1
  P  P0  1  0.03998900  0.75000000  0.46001100  1
  P  P1  1  0.46001100  0.03998900  0.75000000  1
  P  P2  1  0.75000000  0.46001100  0.03998900  1
  P  P3  1  0.25000000  0.53998900  0.96001100  1
  P  P4  1  0.53998900  0.96001100  0.25000000  1
  P  P5  1  0.96001100  0.25000000  0.53998900  1
  O  O0  1  0.12427300  0.30228900  0.50401700  1
  O  O1  1  0.30228900  0.50401700  0.12427300  1
  O  O2  1  0.05803200  0.91701700  0.26921600  1
  O  O3  1  0.50401700  0.12427300  0.30228900  1
  O  O4  1  0.00401700  0.80228900  0.62427300  1
  O  O5  1  0.23078400  0.58298300  0.44196800  1
  O  O6  1  0.26921600  0.05803200  0.91701700  1
  O  O7  1  0.44196800  0.23078400  0.58298300  1
  O  O8  1  0.19771100  0.37572700  0.99598300  1
  O  O9  1  0.58298300  0.44196800  0.23078400  1
  O  O10  1  0.08298300  0.73078400  0.94196800  1
  O  O11  1  0.37572700  0.99598300  0.19771100  1
  O  O12  1  0.62427300  0.00401700  0.80228900  1
  O  O13  1  0.91701700  0.26921600  0.05803200  1
  O  O14  1  0.41701700  0.55803200  0.76921600  1
  O  O15  1  0.80228900  0.62427300  0.00401700  1
  O  O16  1  0.55803200  0.76921600  0.41701700  1
  O  O17  1  0.73078400  0.94196800  0.08298300  1
  O  O18  1  0.76921600  0.41701700  0.55803200  1
  O  O19  1  0.99598300  0.19771100  0.37572700  1
  O  O20  1  0.49598300  0.87572700  0.69771100  1
  O  O21  1  0.94196800  0.08298300  0.73078400  1
  O  O22  1  0.69771100  0.49598300  0.87572700  1
  O  O23  1  0.87572700  0.69771100  0.49598300  1
loop_
_geom_bond_atom_site_label_1
_geom_bond_atom_site_label_2
_geom_bond_distance
_geom_bond_site_symmetry_2
Cu0 O6 2.300891 1_554
Cu0 O17 2.300891 1_445
Cu0 O13 2.300892 1_455
Cu0 O10 2.300892 1_544
Cu0 O2 2.300892 1_545
Cu0 O21 2.300892 1_454
Cu1 O18 2.300891 1_555
Cu1 O5 2.300891 1_555
Cu1 O14 2.300892 1_555
Cu1 O9 2.300892 1_555
Cu1 O16 2.300892 1_555
Cu1 O7 2.300892 1_555
O0 P5 1.538570 1_455
O0 V1 1.919943 1_555
O1 P3 1.538570 1_554
O1 V1 1.919944 1_555
O2 P0 1.547581 1_555
O2 V0 1.995869 1_565
O3 P4 1.538570 1_545
O3 V1 1.919943 1_555
O4 P0 1.538570 1_555
O4 V3 1.919944 1_455
O5 P0 1.547581 1_555
O5 V1 1.995869 1_555
O6 P1 1.547581 1_555
O6 V0 1.995869 1_556
O7 P1 1.547581 1_555
O7 V1 1.995869 1_555
O8 P3 1.538570 1_555
O8 V0 1.919944 1_556
O9 P2 1.547581 1_555
O9 V1 1.995869 1_555
O10 P3 1.547581 1_555
O10 V3 1.995869 1_455
O11 P4 1.538570 1_555
O11 V0 1.919943 1_565
O12 P1 1.538570 1_555
O12 V3 1.919943 1_545
O13 P2 1.547581 1_555
O13 V0 1.995869 1_655
O14 P3 1.547581 1_555
O14 V2 1.995869 1_555
O15 P2 1.538570 1_555
O15 V3 1.919944 1_554
O16 P4 1.547581 1_555
O16 V2 1.995869 1_555
O17 P4 1.547581 1_555
O17 V3 1.995869 1_554
O18 P5 1.547581 1_555
O18 V2 1.995869 1_555
O19 P5 1.538570 1_555
O19 V0 1.919944 1_655
O20 P1 1.538570 1_565
O20 V2 1.919943 1_555
O21 P5 1.547581 1_555
O21 V3 1.995869 1_545
O22 P2 1.538570 1_556
O22 V2 1.919944 1_555
O23 P0 1.538570 1_655
O23 V2 1.919943 1_555
