# generated using pymatgen
data_LiMnPH2O5
_symmetry_space_group_name_H-M   'P 1'
_cell_length_a   5.15638900
_cell_length_b   8.29690400
_cell_length_c   11.19159500
_cell_angle_alpha   90.00000000
_cell_angle_beta   90.00000000
_cell_angle_gamma   90.00000000
_symmetry_Int_Tables_number   1
_chemical_formula_structural   LiMnPH2O5
_chemical_formula_sum   'Li4 Mn4 P4 H8 O20'
_cell_volume   478.79953937
_cell_formula_units_Z   4
loop_
 _symmetry_equiv_pos_site_id
 _symmetry_equiv_pos_as_xyz
  1  'x, y, z'
loop_
 _atom_site_type_symbol
 _atom_site_label
 _atom_site_symmetry_multiplicity
 _atom_site_fract_x
 _atom_site_fract_y
 _atom_site_fract_z
 _atom_site_occupancy
  Li  Li0  1  0.70027000  0.31665500  0.18955900  1
  Li  Li1  1  0.20027000  0.81665500  0.31044100  1
  Li  Li2  1  0.70027000  0.18334500  0.68955900  1
  Li  Li3  1  0.20027000  0.68334500  0.81044100  1
  Mn  Mn0  1  0.19454600  0.12605500  0.12306100  1
  Mn  Mn1  1  0.69454600  0.62605500  0.37693900  1
  Mn  Mn2  1  0.19454600  0.37394500  0.62306100  1
  Mn  Mn3  1  0.69454600  0.87394500  0.87693900  1
  P  P0  1  0.69409400  0.91728600  0.17177700  1
  P  P1  1  0.19409400  0.41728600  0.32822300  1
  P  P2  1  0.69409400  0.58271400  0.67177700  1
  P  P3  1  0.19409400  0.08271400  0.82822300  1
  H  H0  1  0.36292200  0.55849000  0.00145600  1
  H  H1  1  0.15177900  0.68195200  0.03982600  1
  H  H2  1  0.65177900  0.18195200  0.46017400  1
  H  H3  1  0.86292200  0.05849000  0.49854400  1
  H  H4  1  0.36292200  0.94151000  0.50145600  1
  H  H5  1  0.15177900  0.81804800  0.53982600  1
  H  H6  1  0.65177900  0.31804800  0.96017400  1
  H  H7  1  0.86292200  0.44151000  0.99854400  1
  O  O0  1  0.68745900  0.40254000  0.01858300  1
  O  O1  1  0.62729200  0.83203700  0.05319500  1
  O  O2  1  0.58158800  0.09253900  0.17074300  1
  O  O3  1  0.99420000  0.92709400  0.18973400  1
  O  O4  1  0.07212000  0.32254200  0.22244800  1
  O  O5  1  0.57212000  0.82254200  0.27755200  1
  O  O6  1  0.49420000  0.42709400  0.31026600  1
  O  O7  1  0.08158800  0.59253900  0.32925700  1
  O  O8  1  0.12729200  0.33203700  0.44680500  1
  O  O9  1  0.18745900  0.90254000  0.48141700  1
  O  O10  1  0.68745900  0.09746000  0.51858300  1
  O  O11  1  0.62729200  0.66796300  0.55319500  1
  O  O12  1  0.58158800  0.40746100  0.67074300  1
  O  O13  1  0.99420000  0.57290600  0.68973400  1
  O  O14  1  0.07212000  0.17745800  0.72244800  1
  O  O15  1  0.57212000  0.67745800  0.77755200  1
  O  O16  1  0.49420000  0.07290600  0.81026600  1
  O  O17  1  0.08158800  0.90746100  0.82925700  1
  O  O18  1  0.12729200  0.16796300  0.94680500  1
  O  O19  1  0.18745900  0.59746000  0.98141700  1
loop_
_geom_bond_atom_site_label_1
_geom_bond_atom_site_label_2
_geom_bond_distance
_geom_bond_site_symmetry_2
Li0 O6 1.947722 1_555
Li0 O4 1.953024 1_655
Li0 O2 1.968877 1_555
Li0 O0 2.042937 1_555
Li1 O3 1.947722 1_455
Li1 O5 1.953024 1_555
Li1 O7 1.968877 1_555
Li1 O9 2.042937 1_555
Li2 O16 1.947722 1_555
Li2 O14 1.953024 1_655
Li2 O12 1.968877 1_555
Li2 O10 2.042937 1_555
Li3 O13 1.947722 1_455
Li3 O15 1.953024 1_555
Li3 O17 1.968877 1_555
Li3 O19 2.042937 1_555
Mn0 O18 2.032795 1_554
Mn0 O4 2.072047 1_555
Mn0 O2 2.084484 1_555
Mn0 O3 2.085427 1_445
Mn1 O11 2.032795 1_555
Mn1 O5 2.072047 1_555
Mn1 O7 2.084484 1_655
Mn1 O6 2.085427 1_555
Mn2 O8 2.032795 1_555
Mn2 O14 2.072047 1_555
Mn2 O12 2.084484 1_555
Mn2 O13 2.085427 1_455
Mn3 O1 2.032795 1_556
Mn3 O15 2.072047 1_555
Mn3 O17 2.084484 1_655
Mn3 O16 2.085427 1_565
H0 O19 0.986621 1_554
H1 O19 0.976008 1_554
H2 O10 0.976008 1_555
H3 O10 0.986621 1_555
H4 O9 0.986621 1_555
H5 O9 0.976008 1_555
H6 O0 0.976008 1_556
H7 O0 0.986621 1_556
O1 P0 1.542783 1_555
O2 P0 1.565555 1_545
O3 P0 1.562579 1_555
O4 P1 1.553981 1_555
O5 P0 1.553981 1_555
O6 P1 1.562579 1_555
O7 P1 1.565555 1_555
O8 P1 1.542783 1_555
O11 P2 1.542783 1_555
O12 P2 1.565555 1_555
O13 P2 1.562579 1_555
O14 P3 1.553981 1_555
O15 P2 1.553981 1_555
O16 P3 1.562579 1_555
O17 P3 1.565555 1_565
O18 P3 1.542783 1_555
