# generated using pymatgen
data_Li4Mn7O16
_symmetry_space_group_name_H-M   'P 1'
_cell_length_a   7.61520408
_cell_length_b   7.61520408
_cell_length_c   5.22130472
_cell_angle_alpha   77.80424063
_cell_angle_beta   77.80424063
_cell_angle_gamma   97.99936983
_symmetry_Int_Tables_number   1
_chemical_formula_structural   Li4Mn7O16
_chemical_formula_sum   'Li4 Mn7 O16'
_cell_volume   283.87433353
_cell_formula_units_Z   1
loop_
 _symmetry_equiv_pos_site_id
 _symmetry_equiv_pos_as_xyz
  1  'x, y, z'
loop_
 _atom_site_type_symbol
 _atom_site_label
 _atom_site_symmetry_multiplicity
 _atom_site_fract_x
 _atom_site_fract_y
 _atom_site_fract_z
 _atom_site_occupancy
  Li  Li0  1  0.74807600  0.74807600  0.49204100  1
  Li  Li1  1  0.87310400  0.12689600  0.50000000  1
  Li  Li2  1  0.25192400  0.25192400  0.50795900  1
  Li  Li3  1  0.12689600  0.87310400  0.50000000  1
  Mn  Mn0  1  0.87832500  0.63118900  0.00485100  1
  Mn  Mn1  1  0.75492100  0.24507900  0.00000000  1
  Mn  Mn2  1  0.63118900  0.87832500  0.00485100  1
  Mn  Mn3  1  0.50000000  0.50000000  0.00000000  1
  Mn  Mn4  1  0.24507900  0.75492100  0.00000000  1
  Mn  Mn5  1  0.36881100  0.12167500  0.99514900  1
  Mn  Mn6  1  0.12167500  0.36881100  0.99514900  1
  O  O0  1  0.99179100  0.26052200  0.78335900  1
  O  O1  1  0.85255200  0.85255200  0.77491600  1
  O  O2  1  0.74051600  0.49510800  0.80382900  1
  O  O3  1  0.88490900  0.37517200  0.20410800  1
  O  O4  1  0.73947800  0.00820900  0.21664100  1
  O  O5  1  0.62482800  0.11509100  0.79589200  1
  O  O6  1  0.63528000  0.63528000  0.20874000  1
  O  O7  1  0.49510800  0.74051600  0.80382900  1
  O  O8  1  0.36472000  0.36472000  0.79126000  1
  O  O9  1  0.50489200  0.25948400  0.19617100  1
  O  O10  1  0.26052200  0.99179100  0.78335900  1
  O  O11  1  0.37517200  0.88490900  0.20410800  1
  O  O12  1  0.11509100  0.62482800  0.79589200  1
  O  O13  1  0.25948400  0.50489200  0.19617100  1
  O  O14  1  0.00820900  0.73947800  0.21664100  1
  O  O15  1  0.14744800  0.14744800  0.22508400  1
loop_
_geom_bond_atom_site_label_1
_geom_bond_atom_site_label_2
_geom_bond_distance
_geom_bond_site_symmetry_2
Li0 O1 2.065000 1_555
Li0 O6 2.128844 1_555
Li0 O4 2.206483 1_565
Li0 O14 2.206483 1_655
Li0 O7 2.229139 1_555
Li0 O2 2.229139 1_555
Li1 O5 2.151617 1_555
Li1 O3 2.151617 1_555
Li1 O0 2.233027 1_555
Li1 O4 2.233027 1_555
Li1 O15 2.235323 1_655
Li1 O1 2.235323 1_545
Li2 O15 2.065000 1_555
Li2 O8 2.128844 1_555
Li2 O10 2.206483 1_545
Li2 O0 2.206483 1_455
Li2 O9 2.229139 1_555
Li2 O13 2.229139 1_555
Li3 O12 2.151617 1_555
Li3 O11 2.151617 1_555
Li3 O10 2.233027 1_555
Li3 O14 2.233027 1_555
Li3 O1 2.235323 1_455
Li3 O15 2.235323 1_565
Mn0 O14 1.871248 1_655
Mn0 O1 1.912616 1_554
Mn0 O12 1.912877 1_654
Mn0 O6 1.938415 1_555
Mn0 O2 1.974620 1_554
Mn0 O3 2.019453 1_555
Mn1 O0 1.889379 1_554
Mn1 O4 1.889379 1_555
Mn1 O5 1.927670 1_554
Mn1 O3 1.927670 1_555
Mn1 O9 1.992004 1_555
Mn1 O2 1.992004 1_554
Mn2 O4 1.871248 1_565
Mn2 O1 1.912616 1_554
Mn2 O5 1.912877 1_564
Mn2 O6 1.938415 1_555
Mn2 O7 1.974620 1_554
Mn2 O11 2.019453 1_555
Mn3 O7 1.909889 1_554
Mn3 O2 1.909889 1_554
Mn3 O13 1.909889 1_555
Mn3 O9 1.909889 1_555
Mn3 O6 1.990935 1_555
Mn3 O8 1.990935 1_554
Mn4 O14 1.889379 1_555
Mn4 O10 1.889379 1_554
Mn4 O12 1.927670 1_554
Mn4 O11 1.927670 1_555
Mn4 O13 1.992004 1_555
Mn4 O7 1.992004 1_554
Mn5 O10 1.871248 1_545
Mn5 O15 1.912616 1_556
Mn5 O11 1.912877 1_546
Mn5 O8 1.938415 1_555
Mn5 O9 1.974620 1_556
Mn5 O5 2.019453 1_555
Mn6 O0 1.871248 1_455
Mn6 O15 1.912616 1_556
Mn6 O3 1.912877 1_456
Mn6 O8 1.938415 1_555
Mn6 O13 1.974620 1_556
Mn6 O12 2.019453 1_555
