# generated using pymatgen
data_Li2Co3SnO8
_symmetry_space_group_name_H-M   'P 1'
_cell_length_a   5.95811837
_cell_length_b   5.95811837
_cell_length_c   5.95811736
_cell_angle_alpha   57.87875448
_cell_angle_beta   57.87875448
_cell_angle_gamma   57.87875869
_symmetry_Int_Tables_number   1
_chemical_formula_structural   Li2Co3SnO8
_chemical_formula_sum   'Li2 Co3 Sn1 O8'
_cell_volume   142.27680931
_cell_formula_units_Z   1
loop_
 _symmetry_equiv_pos_site_id
 _symmetry_equiv_pos_as_xyz
  1  'x, y, z'
loop_
 _atom_site_type_symbol
 _atom_site_label
 _atom_site_symmetry_multiplicity
 _atom_site_fract_x
 _atom_site_fract_y
 _atom_site_fract_z
 _atom_site_occupancy
  Li  Li0  1  0.11519700  0.11519700  0.11519700  1
  Li  Li1  1  0.88480300  0.88480300  0.88480300  1
  Co  Co0  1  0.00000000  0.50000000  0.50000000  1
  Co  Co1  1  0.50000000  0.00000000  0.50000000  1
  Co  Co2  1  0.50000000  0.50000000  0.00000000  1
  Sn  Sn0  1  0.50000000  0.50000000  0.50000000  1
  O  O0  1  0.25187400  0.71203500  0.25187400  1
  O  O1  1  0.71203500  0.25187400  0.25187400  1
  O  O2  1  0.73035200  0.73035200  0.73035200  1
  O  O3  1  0.25187400  0.25187400  0.71203500  1
  O  O4  1  0.74812600  0.74812600  0.28796500  1
  O  O5  1  0.26964800  0.26964800  0.26964800  1
  O  O6  1  0.28796500  0.74812600  0.74812600  1
  O  O7  1  0.74812600  0.28796500  0.74812600  1
loop_
_geom_bond_atom_site_label_1
_geom_bond_atom_site_label_2
_geom_bond_distance
_geom_bond_site_symmetry_2
Li0 O3 1.908184 1_554
Li0 O1 1.908184 1_455
Li0 O0 1.908184 1_545
Li0 O5 2.289575 1_555
Li1 O4 1.908184 1_556
Li1 O6 1.908184 1_655
Li1 O7 1.908184 1_565
Li1 O2 2.289575 1_555
Co0 O2 1.913609 1_455
Co0 O5 1.913609 1_555
Co0 O3 1.924672 1_555
Co0 O4 1.924672 1_455
Co0 O0 1.924672 1_555
Co0 O7 1.924672 1_455
Co1 O2 1.913609 1_545
Co1 O5 1.913609 1_555
Co1 O3 1.924672 1_555
Co1 O4 1.924672 1_545
Co1 O1 1.924672 1_555
Co1 O6 1.924672 1_545
Co2 O5 1.913609 1_555
Co2 O2 1.913609 1_554
Co2 O1 1.924672 1_555
Co2 O0 1.924672 1_555
Co2 O6 1.924672 1_554
Co2 O7 1.924672 1_554
O0 Sn0 2.078236 1_555
O1 Sn0 2.078236 1_555
O3 Sn0 2.078236 1_555
O4 Sn0 2.078236 1_555
O6 Sn0 2.078236 1_555
O7 Sn0 2.078236 1_555
