# generated using pymatgen
data_Na3Li3Fe2P2(CO7)2
_symmetry_space_group_name_H-M   'P 1'
_cell_length_a   5.17895693
_cell_length_b   11.25178786
_cell_length_c   10.70589507
_cell_angle_alpha   105.89528744
_cell_angle_beta   92.60780583
_cell_angle_gamma   88.19101017
_symmetry_Int_Tables_number   1
_chemical_formula_structural   Na3Li3Fe2P2(CO7)2
_chemical_formula_sum   'Na6 Li6 Fe4 P4 C4 O28'
_cell_volume   599.26563285
_cell_formula_units_Z   2
loop_
 _symmetry_equiv_pos_site_id
 _symmetry_equiv_pos_as_xyz
  1  'x, y, z'
loop_
 _atom_site_type_symbol
 _atom_site_label
 _atom_site_symmetry_multiplicity
 _atom_site_fract_x
 _atom_site_fract_y
 _atom_site_fract_z
 _atom_site_occupancy
  Na  Na0  1  0.75749000  0.15430600  0.07105400  1
  Na  Na1  1  0.75759900  0.65412000  0.57078100  1
  Na  Na2  1  0.25757600  0.38204800  0.12343300  1
  Na  Na3  1  0.25731800  0.88196900  0.62373100  1
  Na  Na4  1  0.74977500  0.62089100  0.87726200  1
  Na  Na5  1  0.74833100  0.12088300  0.37770200  1
  Li  Li0  1  0.22932800  0.16487600  0.87379100  1
  Li  Li1  1  0.23076200  0.66472300  0.37365500  1
  Li  Li2  1  0.76509200  0.83916800  0.12376600  1
  Li  Li3  1  0.76231600  0.33983900  0.62401400  1
  Li  Li4  1  0.24576300  0.85589000  0.94508400  1
  Li  Li5  1  0.24449900  0.35564000  0.44489700  1
  Fe  Fe0  1  0.78459700  0.05207300  0.70554900  1
  Fe  Fe1  1  0.21777000  0.44556300  0.78979500  1
  Fe  Fe2  1  0.78602500  0.55182500  0.20576500  1
  Fe  Fe3  1  0.21818200  0.94548500  0.28985700  1
  P  P0  1  0.71507200  0.33093800  0.91138800  1
  P  P1  1  0.71539200  0.83084500  0.41116300  1
  P  P2  1  0.29178100  0.66846400  0.08300300  1
  P  P3  1  0.28977400  0.16852200  0.58297100  1
  C  C0  1  0.71182700  0.40246700  0.36284700  1
  C  C1  1  0.71308300  0.90247700  0.86281700  1
  C  C2  1  0.28034900  0.59449900  0.64145000  1
  C  C3  1  0.28032200  0.09465900  0.14156700  1
  O  O0  1  0.29680900  0.16751300  0.06694700  1
  O  O1  1  0.29701100  0.66740100  0.56698000  1
  O  O2  1  0.95480300  0.41434100  0.34370200  1
  O  O3  1  0.95597100  0.91392400  0.84327300  1
  O  O4  1  0.53679700  0.46019600  0.30809300  1
  O  O5  1  0.53793500  0.96049500  0.80836100  1
  O  O6  1  0.82749400  0.19579100  0.87587900  1
  O  O7  1  0.82816900  0.69571900  0.37575000  1
  O  O8  1  0.79433000  0.38756900  0.05741800  1
  O  O9  1  0.79457800  0.88751700  0.55716700  1
  O  O10  1  0.41350200  0.32874800  0.89554900  1
  O  O11  1  0.41386700  0.82851000  0.39533700  1
  O  O12  1  0.17764800  0.59900900  0.17374600  1
  O  O13  1  0.17598300  0.09882900  0.67359700  1
  O  O14  1  0.82345200  0.40421800  0.82326500  1
  O  O15  1  0.82364000  0.90407200  0.32298800  1
  O  O16  1  0.59251200  0.67069100  0.10274600  1
  O  O17  1  0.59049000  0.17094800  0.60288900  1
  O  O18  1  0.21632900  0.60796100  0.93843700  1
  O  O19  1  0.21421000  0.10810200  0.43839400  1
  O  O20  1  0.18142400  0.80477900  0.11188500  1
  O  O21  1  0.17928900  0.30480400  0.61190600  1
  O  O22  1  0.48707600  0.54731200  0.68467700  1
  O  O23  1  0.48721900  0.04833700  0.18555000  1
  O  O24  1  0.05664900  0.56522700  0.67373400  1
  O  O25  1  0.05671500  0.06462400  0.17312200  1
  O  O26  1  0.63860100  0.83565000  0.93566200  1
  O  O27  1  0.63748100  0.33553600  0.43560700  1
loop_
_geom_bond_atom_site_label_1
_geom_bond_atom_site_label_2
_geom_bond_distance
_geom_bond_site_symmetry_2
Na0 O25 2.228219 1_655
Na0 O6 2.308530 1_554
Na0 O0 2.384938 1_555
Na0 O23 2.438343 1_555
Na0 O8 2.681493 1_555
Na0 O0 2.804717 1_655
Na1 O24 2.228154 1_655
Na1 O7 2.308224 1_555
Na1 O1 2.384523 1_555
Na1 O22 2.440991 1_555
Na1 O9 2.682993 1_555
Na1 O1 2.805026 1_655
Na2 O0 2.326913 1_555
Na2 O4 2.374990 1_555
Na2 O12 2.378478 1_555
Na2 O8 2.473768 1_455
Na2 O10 2.512206 1_554
Na2 O2 2.825414 1_455
Na2 O8 2.905945 1_555
Na3 O1 2.327374 1_555
Na3 O13 2.378735 1_565
Na3 O5 2.379674 1_555
Na3 O9 2.472754 1_455
Na3 O11 2.518320 1_555
Na3 O3 2.815095 1_455
Na3 O9 2.910243 1_555
Na4 O14 2.369130 1_555
Na4 O22 2.380807 1_555
Na4 O26 2.383038 1_555
Na4 O18 2.484839 1_655
Na4 O16 2.492774 1_556
Na4 O24 2.677811 1_655
Na4 O18 2.885273 1_555
Na5 O23 2.371420 1_555
Na5 O15 2.371589 1_545
Na5 O27 2.381580 1_555
Na5 O19 2.480108 1_655
Na5 O17 2.490786 1_555
Na5 O25 2.691382 1_655
Na5 O19 2.886959 1_555
Li0 O10 2.054117 1_555
Li0 O0 2.073775 1_556
Li0 O13 2.075758 1_555
Li0 O6 2.099206 1_455
Li1 O11 2.050705 1_555
Li1 O12 2.072513 1_555
Li1 O1 2.074663 1_555
Li1 O7 2.103205 1_455
Li2 O15 2.067910 1_555
Li2 O16 2.073172 1_555
Li2 O26 2.079450 1_554
Li2 O20 2.181805 1_655
Li3 O14 2.069289 1_555
Li3 O17 2.075405 1_555
Li3 O27 2.078147 1_555
Li3 O21 2.186164 1_655
Li4 O3 2.011476 1_455
Li4 O26 2.044023 1_555
Li4 O20 2.063844 1_556
Li5 O2 2.010577 1_455
Li5 O27 2.044573 1_555
Li5 O21 2.065298 1_555
Fe0 O9 2.084404 1_545
Fe0 O6 2.088103 1_555
Fe0 O17 2.151136 1_555
Fe0 O13 2.175177 1_655
Fe0 O5 2.176575 1_545
Fe0 O3 2.535198 1_545
Fe1 O18 2.068521 1_555
Fe1 O21 2.123271 1_555
Fe1 O10 2.159534 1_555
Fe1 O14 2.175567 1_455
Fe1 O24 2.191846 1_555
Fe1 O22 2.339192 1_555
Fe2 O8 2.081663 1_555
Fe2 O7 2.086398 1_555
Fe2 O16 2.152297 1_555
Fe2 O12 2.178048 1_655
Fe2 O4 2.181849 1_555
Fe2 O2 2.527115 1_555
Fe3 O19 2.069768 1_565
Fe3 O20 2.122918 1_555
Fe3 O11 2.158796 1_555
Fe3 O15 2.175931 1_455
Fe3 O25 2.193166 1_565
Fe3 O23 2.340712 1_565
C0 O27 1.299659 1_555
C0 O2 1.300931 1_555
C0 O4 1.307774 1_555
C1 O26 1.299722 1_555
C1 O3 1.300630 1_555
C1 O5 1.308361 1_555
C2 O1 1.298034 1_555
C2 O24 1.301161 1_555
C2 O22 1.302278 1_555
C3 O0 1.298767 1_555
C3 O25 1.300869 1_555
C3 O23 1.301836 1_555
O6 P0 1.563158 1_555
O7 P1 1.563604 1_555
O8 P0 1.559205 1_554
O9 P1 1.558940 1_555
O10 P0 1.563547 1_555
O11 P1 1.563336 1_555
O12 P2 1.549576 1_555
O13 P3 1.549687 1_555
O14 P0 1.545471 1_555
O15 P1 1.545198 1_555
O16 P2 1.562252 1_555
O17 P3 1.562361 1_555
O18 P2 1.547955 1_556
O19 P3 1.548023 1_555
O20 P2 1.573442 1_555
O21 P3 1.573301 1_555
