# generated using pymatgen
data_Na3(NiO2)5
_symmetry_space_group_name_H-M   'P 1'
_cell_length_a   6.32422674
_cell_length_b   8.86252003
_cell_length_c   7.71109531
_cell_angle_alpha   104.08121400
_cell_angle_beta   111.15722241
_cell_angle_gamma   97.77382822
_symmetry_Int_Tables_number   1
_chemical_formula_structural   Na3(NiO2)5
_chemical_formula_sum   'Na6 Ni10 O20'
_cell_volume   378.87729843
_cell_formula_units_Z   2
loop_
 _symmetry_equiv_pos_site_id
 _symmetry_equiv_pos_as_xyz
  1  'x, y, z'
loop_
 _atom_site_type_symbol
 _atom_site_label
 _atom_site_symmetry_multiplicity
 _atom_site_fract_x
 _atom_site_fract_y
 _atom_site_fract_z
 _atom_site_occupancy
  Na  Na0  1  0.20088883  0.70030722  0.90033035  1
  Na  Na1  1  0.70089547  0.20031297  0.40032903  1
  Na  Na2  1  0.80032566  0.29124150  0.10241906  1
  Na  Na3  1  0.30033171  0.79126787  0.60242624  1
  Na  Na4  1  0.09955464  0.60876139  0.19779885  1
  Na  Na5  1  0.59954738  0.10879958  0.69779132  1
  Ni  Ni0  1  0.70028399  0.69989813  0.89999816  1
  Ni  Ni1  1  0.50070358  0.49939574  0.49780512  1
  Ni  Ni2  1  0.89899289  0.90058270  0.30212616  1
  Ni  Ni3  1  0.29885039  0.30173276  0.09875663  1
  Ni  Ni4  1  0.10082861  0.09820774  0.70109123  1
  Ni  Ni5  1  0.20028455  0.19989541  0.39999768  1
  Ni  Ni6  1  0.00069243  0.99940106  0.99779740  1
  Ni  Ni7  1  0.39900864  0.40058135  0.80213351  1
  Ni  Ni8  1  0.79883892  0.80171770  0.59875384  1
  Ni  Ni9  1  0.60087615  0.59824367  0.20110745  1
  O  O0  1  0.00097755  0.18080832  0.90751182  1
  O  O1  1  0.50097911  0.68079071  0.40751779  1
  O  O2  1  0.39873051  0.21916238  0.89240288  1
  O  O3  1  0.89872396  0.71917613  0.39240126  1
  O  O4  1  0.60085701  0.41172553  0.27608992  1
  O  O5  1  0.10086447  0.91175879  0.77609158  1
  O  O6  1  0.29881574  0.48822811  0.02378769  1
  O  O7  1  0.79882424  0.98825885  0.52379565  1
  O  O8  1  0.20093653  0.38920378  0.29273772  1
  O  O9  1  0.70096093  0.88924053  0.79275829  1
  O  O10  1  0.69885489  0.51065582  0.00722185  1
  O  O11  1  0.19887168  0.01069054  0.50723760  1
  O  O12  1  0.79735629  0.62373063  0.69064754  1
  O  O13  1  0.29736341  0.12371691  0.19063973  1
  O  O14  1  0.60275292  0.77623486  0.10918333  1
  O  O15  1  0.10274307  0.27625383  0.60918465  1
  O  O16  1  0.39878205  0.58399604  0.72296619  1
  O  O17  1  0.89879443  0.08401874  0.22297531  1
  O  O18  1  0.00145743  0.81601038  0.07709794  1
  O  O19  1  0.50144493  0.31599337  0.57708623  1
loop_
_geom_bond_atom_site_label_1
_geom_bond_atom_site_label_2
_geom_bond_distance
_geom_bond_site_symmetry_2
Na0 O16 2.323355 1_555
Na0 O18 2.326145 1_556
Na0 O14 2.358186 1_556
Na0 O6 2.362741 1_556
Na0 O5 2.363605 1_555
Na0 O12 2.367835 1_455
Na1 O17 2.323274 1_555
Na1 O19 2.326115 1_555
Na1 O15 2.358105 1_655
Na1 O7 2.362574 1_545
Na1 O4 2.363306 1_555
Na1 O13 2.367840 1_555
Na2 O17 2.312366 1_555
Na2 O4 2.326591 1_555
Na2 O10 2.328976 1_555
Na2 O8 2.329676 1_655
Na2 O2 2.360052 1_554
Na2 O0 2.413289 1_654
Na3 O16 2.312680 1_555
Na3 O5 2.326580 1_555
Na3 O11 2.329000 1_565
Na3 O9 2.329792 1_555
Na3 O3 2.360127 1_455
Na3 O1 2.413399 1_555
Na4 O18 2.312595 1_555
Na4 O6 2.327428 1_555
Na4 O8 2.329193 1_555
Na4 O10 2.330516 1_455
Na4 O1 2.358685 1_555
Na4 O3 2.412469 1_455
Na5 O19 2.312164 1_555
Na5 O7 2.327456 1_545
Na5 O9 2.329351 1_545
Na5 O11 2.330369 1_555
Na5 O0 2.358724 1_655
Na5 O2 2.412299 1_555
Ni0 O18 1.860124 1_656
Ni0 O16 1.860987 1_555
Ni0 O12 1.932832 1_555
Ni0 O14 1.933948 1_556
Ni0 O10 2.042702 1_556
Ni0 O9 2.043411 1_555
Ni1 O19 1.870622 1_555
Ni1 O12 1.890713 1_555
Ni1 O1 1.901022 1_555
Ni1 O8 1.905773 1_555
Ni1 O4 2.048485 1_555
Ni1 O16 2.072997 1_555
Ni2 O17 1.870360 1_565
Ni2 O14 1.889322 1_555
Ni2 O3 1.901063 1_555
Ni2 O11 1.906202 1_665
Ni2 O7 2.048260 1_555
Ni2 O18 2.074340 1_655
Ni3 O4 1.852152 1_555
Ni3 O8 1.859053 1_555
Ni3 O6 1.879079 1_555
Ni3 O13 1.880384 1_555
Ni3 O0 1.884540 1_554
Ni3 O2 1.936611 1_554
Ni4 O7 1.851993 1_445
Ni4 O11 1.858909 1_555
Ni4 O5 1.878813 1_545
Ni4 O15 1.880815 1_555
Ni4 O2 1.884868 1_555
Ni4 O0 1.936983 1_555
Ni5 O19 1.860017 1_555
Ni5 O17 1.860866 1_455
Ni5 O13 1.932927 1_555
Ni5 O15 1.934040 1_555
Ni5 O11 2.042469 1_555
Ni5 O8 2.043221 1_555
Ni6 O18 1.870604 1_556
Ni6 O13 1.890742 1_566
Ni6 O0 1.901117 1_565
Ni6 O9 1.905507 1_455
Ni6 O5 2.048447 1_555
Ni6 O17 2.073041 1_466
Ni7 O16 1.870249 1_555
Ni7 O15 1.889391 1_555
Ni7 O2 1.901142 1_555
Ni7 O10 1.905959 1_556
Ni7 O6 2.048203 1_556
Ni7 O19 2.074376 1_555
Ni8 O5 1.852332 1_655
Ni8 O9 1.859170 1_555
Ni8 O7 1.879423 1_555
Ni8 O12 1.880193 1_555
Ni8 O1 1.884473 1_555
Ni8 O3 1.936567 1_555
Ni9 O6 1.852405 1_555
Ni9 O10 1.859002 1_555
Ni9 O4 1.879324 1_555
Ni9 O14 1.880434 1_555
Ni9 O3 1.884563 1_555
Ni9 O1 1.937007 1_555
