# generated using pymatgen
data_Na3CrSiBO7
_symmetry_space_group_name_H-M   'P 1'
_cell_length_a   5.32316028
_cell_length_b   8.95863939
_cell_length_c   6.48333300
_cell_angle_alpha   89.99983081
_cell_angle_beta   90.00022102
_cell_angle_gamma   87.88324419
_symmetry_Int_Tables_number   1
_chemical_formula_structural   Na3CrSiBO7
_chemical_formula_sum   'Na6 Cr2 Si2 B2 O14'
_cell_volume   308.96798357
_cell_formula_units_Z   2
loop_
 _symmetry_equiv_pos_site_id
 _symmetry_equiv_pos_as_xyz
  1  'x, y, z'
loop_
 _atom_site_type_symbol
 _atom_site_label
 _atom_site_symmetry_multiplicity
 _atom_site_fract_x
 _atom_site_fract_y
 _atom_site_fract_z
 _atom_site_occupancy
  Na  Na0  1  0.76286800  0.07966200  0.25000500  1
  Na  Na1  1  0.23763900  0.92012500  0.75000200  1
  Na  Na2  1  0.25701000  0.26086600  0.00846200  1
  Na  Na3  1  0.25701100  0.26086500  0.49154400  1
  Na  Na4  1  0.74279900  0.73905700  0.50848100  1
  Na  Na5  1  0.74279500  0.73905900  0.99152700  1
  Cr  Cr0  1  0.21210200  0.66683100  0.24999100  1
  Cr  Cr1  1  0.78769000  0.33314000  0.75001600  1
  Si  Si0  1  0.71727100  0.42835700  0.25000600  1
  Si  Si1  1  0.28192600  0.57181000  0.74999300  1
  B  B0  1  0.72918100  0.06661700  0.74999800  1
  B  B1  1  0.27217100  0.93317700  0.25000300  1
  O  O0  1  0.31307200  0.07965400  0.25000500  1
  O  O1  1  0.68609200  0.92051000  0.75000500  1
  O  O2  1  0.96513500  0.13161500  0.74999200  1
  O  O3  1  0.03630500  0.86744400  0.24999800  1
  O  O4  1  0.53710700  0.18143700  0.75000200  1
  O  O5  1  0.46433600  0.81918600  0.24999900  1
  O  O6  1  0.41644000  0.47661800  0.24999500  1
  O  O7  1  0.58260700  0.52384900  0.74999500  1
  O  O8  1  0.10638100  0.42560900  0.74999600  1
  O  O9  1  0.89179900  0.57460900  0.24999700  1
  O  O10  1  0.78412800  0.31941900  0.04991500  1
  O  O11  1  0.78412400  0.31942100  0.45008200  1
  O  O12  1  0.21600300  0.68053100  0.54972600  1
  O  O13  1  0.21600600  0.68053100  0.95026700  1
loop_
_geom_bond_atom_site_label_1
_geom_bond_atom_site_label_2
_geom_bond_distance
_geom_bond_site_symmetry_2
Na0 O3 2.351319 1_645
Na0 O0 2.394339 1_555
Na0 O11 2.515342 1_555
Na0 O10 2.515366 1_555
Na1 O2 2.343269 1_465
Na1 O1 2.387317 1_555
Na1 O13 2.514855 1_555
Na1 O12 2.514899 1_555
Na2 O0 2.267397 1_555
Na2 O4 2.336447 1_554
Na2 O8 2.354085 1_554
Na2 O10 2.566375 1_455
Na2 O2 2.587616 1_454
Na2 O6 2.651316 1_555
Na2 O10 2.886066 1_555
Na3 O0 2.267380 1_555
Na3 O4 2.336421 1_555
Na3 O8 2.354039 1_555
Na3 O11 2.566409 1_455
Na3 O2 2.587526 1_455
Na3 O6 2.651380 1_555
Na3 O11 2.886053 1_555
Na4 O1 2.269219 1_555
Na4 O5 2.332871 1_555
Na4 O9 2.349816 1_555
Na4 O12 2.567860 1_655
Na4 O3 2.589420 1_655
Na4 O7 2.649044 1_555
Na4 O12 2.884211 1_555
Na5 O1 2.269187 1_555
Na5 O5 2.332817 1_556
Na5 O9 2.349758 1_556
Na5 O13 2.567911 1_655
Na5 O3 2.589371 1_656
Na5 O7 2.649122 1_555
Na5 O13 2.884186 1_555
Cr0 O9 1.921912 1_455
Cr0 O13 1.947242 1_554
Cr0 O12 1.947313 1_555
Cr0 O5 1.949643 1_555
Cr0 O6 1.987462 1_555
Cr0 O3 1.995362 1_555
Cr1 O8 1.915196 1_655
Cr1 O4 1.939127 1_555
Cr1 O10 1.948363 1_556
Cr1 O11 1.948589 1_555
Cr1 O7 1.993227 1_555
Cr1 O2 2.006406 1_555
B0 O1 1.337184 1_545
B0 O2 1.403810 1_555
B0 O4 1.423297 1_555
B1 O0 1.338084 1_565
B1 O3 1.406346 1_555
B1 O5 1.418473 1_555
O6 Si0 1.643221 1_555
O7 Si1 1.641842 1_555
O8 Si1 1.636794 1_555
O9 Si0 1.633925 1_555
O10 Si0 1.654188 1_555
O11 Si0 1.654090 1_555
O12 Si1 1.652992 1_555
O13 Si1 1.653031 1_555
