# generated using pymatgen
data_AlPd
_symmetry_space_group_name_H-M   'P 1'
_cell_length_a   4.86579220
_cell_length_b   4.86579220
_cell_length_c   4.86579220
_cell_angle_alpha   90.00000000
_cell_angle_beta   90.00000000
_cell_angle_gamma   90.00000000
_symmetry_Int_Tables_number   1
_chemical_formula_structural   AlPd
_chemical_formula_sum   'Al4 Pd4'
_cell_volume   115.20217369
_cell_formula_units_Z   4
loop_
 _symmetry_equiv_pos_site_id
 _symmetry_equiv_pos_as_xyz
  1  'x, y, z'
loop_
 _atom_site_type_symbol
 _atom_site_label
 _atom_site_symmetry_multiplicity
 _atom_site_fract_x
 _atom_site_fract_y
 _atom_site_fract_z
 _atom_site_occupancy
  Al  Al0  1  0.84445308  0.84445308  0.84445308  1
  Al  Al1  1  0.65554692  0.15554692  0.34445308  1
  Al  Al2  1  0.34445308  0.65554692  0.15554692  1
  Al  Al3  1  0.15554692  0.34445308  0.65554692  1
  Pd  Pd0  1  0.14822952  0.14822952  0.14822952  1
  Pd  Pd1  1  0.35177048  0.85177048  0.64822952  1
  Pd  Pd2  1  0.64822952  0.35177048  0.85177048  1
  Pd  Pd3  1  0.85177048  0.64822952  0.35177048  1
loop_
_geom_bond_atom_site_label_1
_geom_bond_atom_site_label_2
_geom_bond_distance
_geom_bond_site_symmetry_2
Al0 Pd0 2.560167 1_666
Al0 Pd1 2.580675 1_555
Al0 Pd3 2.580675 1_555
Al0 Pd2 2.580675 1_555
Al0 Pd1 2.646956 1_655
Al0 Pd2 2.646956 1_565
Al0 Pd3 2.646956 1_556
Al1 Pd1 2.560167 1_545
Al1 Pd3 2.580675 1_555
Al1 Pd0 2.580675 1_655
Al1 Pd2 2.580675 1_554
Al1 Pd0 2.646956 1_555
Al1 Pd3 2.646956 1_545
Al1 Pd2 2.646956 1_555
Al2 Pd2 2.560167 1_554
Al2 Pd1 2.580675 1_555
Al2 Pd0 2.580675 1_565
Al2 Pd3 2.580675 1_455
Al2 Pd1 2.646956 1_554
Al2 Pd3 2.646956 1_555
Al2 Pd0 2.646956 1_555
Al3 Pd3 2.560167 1_455
Al3 Pd2 2.580675 1_555
Al3 Pd1 2.580675 1_545
Al3 Pd0 2.580675 1_556
Al3 Pd2 2.646956 1_455
Al3 Pd0 2.646956 1_555
Al3 Pd1 2.646956 1_555
Pd0 Pd2 2.996779 1_454
Pd0 Pd3 2.996779 1_445
Pd0 Pd2 2.996779 1_554
Pd0 Pd1 2.996779 1_544
Pd0 Pd3 2.996779 1_455
Pd0 Pd1 2.996779 1_545
Pd1 Pd2 2.996779 1_565
Pd1 Pd3 2.996779 1_555
Pd1 Pd2 2.996779 1_555
Pd1 Pd3 2.996779 1_455
Pd2 Pd3 2.996779 1_556
Pd2 Pd3 2.996779 1_555
