# generated using pymatgen
data_SrTaNO2
_symmetry_space_group_name_H-M   'P 1'
_cell_length_a   5.73112100
_cell_length_b   5.74288568
_cell_length_c   8.18980999
_cell_angle_alpha   90.05389724
_cell_angle_beta   90.01695827
_cell_angle_gamma   90.09372236
_symmetry_Int_Tables_number   1
_chemical_formula_structural   SrTaNO2
_chemical_formula_sum   'Sr4 Ta4 N4 O8'
_cell_volume   269.55213896
_cell_formula_units_Z   4
loop_
 _symmetry_equiv_pos_site_id
 _symmetry_equiv_pos_as_xyz
  1  'x, y, z'
loop_
 _atom_site_type_symbol
 _atom_site_label
 _atom_site_symmetry_multiplicity
 _atom_site_fract_x
 _atom_site_fract_y
 _atom_site_fract_z
 _atom_site_occupancy
  Sr  Sr0  1  0.00392000  0.00328500  0.24877700  1
  Sr  Sr1  1  0.51381600  0.50827800  0.24854700  1
  Sr  Sr2  1  0.48899100  0.50562600  0.72497400  1
  Sr  Sr3  1  0.97883100  0.00296500  0.72560500  1
  Ta  Ta0  1  0.49715600  0.00385300  0.99810900  1
  Ta  Ta1  1  0.49478900  0.01746000  0.48527700  1
  Ta  Ta2  1  0.99953300  0.50515400  0.97369400  1
  Ta  Ta3  1  0.99701600  0.48836800  0.49184100  1
  N  N0  1  0.00281600  0.53919800  0.73772600  1
  N  N1  1  0.73226700  0.26876800  0.50185100  1
  N  N2  1  0.23161400  0.22934800  0.50323000  1
  N  N3  1  0.49648400  0.03131800  0.23034600  1
  O  O0  1  0.51048300  0.94869900  0.73599800  1
  O  O1  1  0.77900500  0.77242400  0.46201100  1
  O  O2  1  0.77955900  0.77698700  0.00440500  1
  O  O3  1  0.27981900  0.71755400  0.00373700  1
  O  O4  1  0.27868600  0.72331600  0.46333600  1
  O  O5  1  0.99371500  0.46259800  0.22916900  1
  O  O6  1  0.72094800  0.27620000  0.96187000  1
  O  O7  1  0.22055100  0.21860200  0.96149900  1
loop_
_geom_bond_atom_site_label_1
_geom_bond_atom_site_label_2
_geom_bond_distance
_geom_bond_site_symmetry_2
N0 Ta2 1.942674 1_455
N0 Ta3 2.034781 1_455
N0 Sr3 2.669069 1_465
N0 Sr2 2.795280 1_555
N0 Sr2 2.952594 1_455
N0 Sr3 3.083870 1_455
N1 Ta3 1.973176 1_555
N1 Ta1 1.986657 1_555
N1 Sr2 2.671401 1_555
N1 Sr3 2.774131 1_555
N1 Sr1 2.787908 1_555
N1 Sr0 3.007973 1_655
N2 Ta1 1.945012 1_555
N2 Ta3 2.008945 1_455
N2 Sr3 2.665654 1_455
N2 Sr0 2.778277 1_555
N2 Sr2 2.824278 1_555
N2 Sr1 3.087414 1_555
N3 Ta0 1.908363 1_554
N3 Ta1 2.089452 1_555
N3 Sr1 2.744674 1_555
N3 Sr0 2.831347 1_555
N3 Sr0 2.916764 1_655
N3 Sr1 3.009396 1_545
O0 Ta1 2.093283 1_565
O0 Ta0 2.170971 1_565
O0 Sr2 2.548809 1_555
O0 Sr3 2.703058 1_565
O0 Sr3 3.064530 1_465
O0 Sr2 3.202297 1_565
O1 Ta3 2.071034 1_555
O1 Ta1 2.162631 1_565
O1 Sr0 2.543452 1_665
O1 Sr1 2.766452 1_555
O1 Sr3 2.777228 1_565
O1 Sr2 3.122221 1_555
O2 Ta2 2.023749 1_554
O2 Ta0 2.080045 1_564
O2 Sr0 2.708489 1_665
O2 Sr3 2.864314 1_564
O2 Sr1 2.949361 1_555
O2 Sr2 3.228230 1_554
O3 Ta2 2.030169 1_454
O3 Ta0 2.061654 1_564
O3 Sr1 2.696465 1_555
O3 Sr2 2.851614 1_554
O3 Sr0 3.037168 1_565
O3 Sr3 3.296173 1_464
O4 Ta1 2.100517 1_565
O4 Ta3 2.115339 1_455
O4 Sr1 2.537344 1_555
O4 Sr2 2.759622 1_555
O4 Sr0 2.857369 1_565
O4 Sr3 3.186034 1_465
O5 Ta2 2.107012 1_554
O5 Ta3 2.156255 1_555
O5 Sr0 2.643558 1_655
O5 Sr1 2.767855 1_555
O5 Sr1 2.996002 1_655
O5 Sr0 3.109556 1_665
O6 Ta0 2.043014 1_555
O6 Ta2 2.068858 1_555
O6 Sr2 2.697471 1_555
O6 Sr3 2.897288 1_555
O6 Sr1 2.949372 1_556
O6 Sr0 3.258941 1_656
O7 Ta0 2.032418 1_555
O7 Ta2 2.080662 1_455
O7 Sr3 2.678312 1_455
O7 Sr0 2.933952 1_556
O7 Sr2 2.972494 1_555
