# generated using pymatgen
data_HgNCl
_symmetry_space_group_name_H-M   'P 1'
_cell_length_a   6.84425300
_cell_length_b   7.70085700
_cell_length_c   10.68850600
_cell_angle_alpha   90.00000000
_cell_angle_beta   90.00000000
_cell_angle_gamma   90.00000000
_symmetry_Int_Tables_number   1
_chemical_formula_structural   HgNCl
_chemical_formula_sum   'Hg8 N8 Cl8'
_cell_volume   563.35495597
_cell_formula_units_Z   8
loop_
 _symmetry_equiv_pos_site_id
 _symmetry_equiv_pos_as_xyz
  1  'x, y, z'
loop_
 _atom_site_type_symbol
 _atom_site_label
 _atom_site_symmetry_multiplicity
 _atom_site_fract_x
 _atom_site_fract_y
 _atom_site_fract_z
 _atom_site_occupancy
  Hg  Hg0  1  0.00000000  0.50000000  0.50000000  1
  Hg  Hg1  1  0.50000000  0.00000000  0.00000000  1
  Hg  Hg2  1  0.50000000  0.50000000  0.50000000  1
  Hg  Hg3  1  0.00000000  0.00000000  0.00000000  1
  Hg  Hg4  1  0.00000000  0.50000000  0.00000000  1
  Hg  Hg5  1  0.50000000  0.00000000  0.50000000  1
  Hg  Hg6  1  0.50000000  0.50000000  0.00000000  1
  Hg  Hg7  1  0.00000000  0.00000000  0.50000000  1
  N  N0  1  0.25000000  0.62728100  0.42759300  1
  N  N1  1  0.25000000  0.12728100  0.07240700  1
  N  N2  1  0.75000000  0.37271900  0.57240700  1
  N  N3  1  0.75000000  0.87271900  0.92759300  1
  N  N4  1  0.25000000  0.95436500  0.61109500  1
  N  N5  1  0.25000000  0.45436500  0.88890500  1
  N  N6  1  0.75000000  0.04563500  0.38890500  1
  N  N7  1  0.75000000  0.54563500  0.11109500  1
  Cl  Cl0  1  0.25000000  0.61491600  0.26145700  1
  Cl  Cl1  1  0.25000000  0.11491600  0.23854300  1
  Cl  Cl2  1  0.75000000  0.38508400  0.73854300  1
  Cl  Cl3  1  0.75000000  0.88508400  0.76145700  1
  Cl  Cl4  1  0.25000000  0.61282400  0.76606400  1
  Cl  Cl5  1  0.25000000  0.11282400  0.73393600  1
  Cl  Cl6  1  0.75000000  0.38717600  0.23393600  1
  Cl  Cl7  1  0.75000000  0.88717600  0.26606400  1
loop_
_geom_bond_atom_site_label_1
_geom_bond_atom_site_label_2
_geom_bond_distance
_geom_bond_site_symmetry_2
Hg0 N0 2.118356 1_555
Hg0 N2 2.118356 1_455
Hg1 N1 2.118356 1_555
Hg1 N3 2.118356 1_544
Hg2 N0 2.118356 1_555
Hg2 N2 2.118356 1_555
Hg3 N1 2.118356 1_555
Hg3 N3 2.118356 1_444
Hg4 N7 2.112168 1_455
Hg4 N5 2.112168 1_554
Hg5 N4 2.112168 1_545
Hg5 N6 2.112168 1_555
Hg6 N7 2.112168 1_555
Hg6 N5 2.112168 1_554
Hg7 N4 2.112168 1_545
Hg7 N6 2.112168 1_455
Cl0 N0 1.778297 1_555
Cl1 N1 1.778297 1_555
Cl2 N2 1.778297 1_555
Cl3 N3 1.778297 1_555
Cl4 N5 1.792482 1_555
Cl5 N4 1.792482 1_545
Cl6 N7 1.792482 1_555
Cl7 N6 1.792482 1_565
