# generated using pymatgen
data_K2FeH4(SO5)2
_symmetry_space_group_name_H-M   'P 1'
_cell_length_a   6.76293200
_cell_length_b   7.70459468
_cell_length_c   10.84371069
_cell_angle_alpha   71.78380652
_cell_angle_beta   74.39190672
_cell_angle_gamma   70.26634193
_symmetry_Int_Tables_number   1
_chemical_formula_structural   K2FeH4(SO5)2
_chemical_formula_sum   'K4 Fe2 H8 S4 O20'
_cell_volume   496.66368392
_cell_formula_units_Z   2
loop_
 _symmetry_equiv_pos_site_id
 _symmetry_equiv_pos_as_xyz
  1  'x, y, z'
loop_
 _atom_site_type_symbol
 _atom_site_label
 _atom_site_symmetry_multiplicity
 _atom_site_fract_x
 _atom_site_fract_y
 _atom_site_fract_z
 _atom_site_occupancy
  K  K0  1  0.29690500  0.25441100  0.91815000  1
  K  K1  1  0.25435600  0.74637200  0.58117100  1
  K  K2  1  0.74192700  0.74753100  0.08518800  1
  K  K3  1  0.78232100  0.20071100  0.42184700  1
  Fe  Fe0  1  0.77185800  0.56954400  0.74864100  1
  Fe  Fe1  1  0.26273000  0.45298200  0.24691900  1
  H  H0  1  0.74378800  0.21547400  0.86881700  1
  H  H1  1  0.85189000  0.20594500  0.71944400  1
  H  H2  1  0.90612100  0.79190300  0.79791200  1
  H  H3  1  0.13704000  0.36252000  0.68172500  1
  H  H4  1  0.27438300  0.79570700  0.14300900  1
  H  H5  1  0.13847000  0.78399000  0.29405000  1
  H  H6  1  0.13571200  0.16586900  0.20722800  1
  H  H7  1  0.35055500  0.07288400  0.27338700  1
  S  S0  1  0.28260400  0.71197700  0.93007600  1
  S  S1  1  0.27530900  0.18973900  0.56047900  1
  S  S2  1  0.76799400  0.26970800  0.08234200  1
  S  S3  1  0.78699800  0.70624900  0.41541100  1
  O  O0  1  0.22348200  0.55375700  0.04397500  1
  O  O1  1  0.09005700  0.83088100  0.87413400  1
  O  O2  1  0.37123500  0.82609200  0.97776400  1
  O  O3  1  0.44400400  0.61910400  0.82652000  1
  O  O4  1  0.08139900  0.47240900  0.72101600  1
  O  O5  1  0.08297900  0.13744800  0.56002400  1
  O  O6  1  0.46274500  0.02763900  0.58915200  1
  O  O7  1  0.33443600  0.34054600  0.44197400  1
  O  O8  1  0.74027000  0.28510200  0.77376100  1
  O  O9  1  0.78873900  0.80160000  0.75661900  1
  O  O10  1  0.81401700  0.43431400  0.97384100  1
  O  O11  1  0.96930700  0.14766800  0.13159400  1
  O  O12  1  0.68088400  0.15501100  0.03297100  1
  O  O13  1  0.61049800  0.34189200  0.19471500  1
  O  O14  1  0.90753700  0.55843600  0.33732600  1
  O  O15  1  0.93083600  0.81859900  0.41200900  1
  O  O16  1  0.59449600  0.82697900  0.35953800  1
  O  O17  1  0.71790400  0.60572100  0.55740400  1
  O  O18  1  0.27433200  0.72531300  0.23751200  1
  O  O19  1  0.22699600  0.18433000  0.25914900  1
loop_
_geom_bond_atom_site_label_1
_geom_bond_atom_site_label_2
_geom_bond_distance
_geom_bond_site_symmetry_2
K0 O4 2.700646 1_555
K0 O11 2.867563 1_456
K0 O0 2.873472 1_556
K0 O12 2.946346 1_556
K0 O8 3.036298 1_555
K0 O2 3.046577 1_545
K0 O10 3.058800 1_455
K0 O3 3.079319 1_555
K1 O4 2.614333 1_555
K1 O5 2.797736 1_565
K1 O16 2.917170 1_555
K1 O17 2.917932 1_555
K1 O6 2.989157 1_565
K1 O3 3.006762 1_555
K1 O15 3.026692 1_455
K2 O2 2.848525 1_554
K2 O10 2.868718 1_554
K2 O1 2.897565 1_654
K2 O12 2.913153 1_565
K2 O14 2.984603 1_555
K2 O16 3.057693 1_555
K2 O0 3.063568 1_655
K2 O18 3.183685 1_555
K2 O13 3.309864 1_555
K3 O5 2.670323 1_655
K3 O13 2.758838 1_555
K3 O15 2.798090 1_545
K3 O7 2.823265 1_555
K3 O6 2.839769 1_555
K3 O14 2.955085 1_555
K3 O19 3.033196 1_655
K3 O11 3.160038 1_555
Fe0 O9 1.859288 1_555
Fe0 O4 1.943426 1_655
Fe0 O3 2.097016 1_555
Fe0 O17 2.118552 1_555
Fe0 O8 2.198675 1_555
Fe0 O10 2.390305 1_555
Fe1 O18 2.095724 1_555
Fe1 O19 2.123492 1_555
Fe1 O7 2.140571 1_555
Fe1 O0 2.150143 1_555
Fe1 O13 2.193558 1_555
Fe1 O14 2.303107 1_455
H0 O8 1.004829 1_555
H0 O12 1.665663 1_556
H0 K0 2.850997 1_555
H1 O8 0.981396 1_555
H2 O9 0.983149 1_555
H2 K1 2.858734 1_655
H2 K2 2.963637 1_556
H3 O4 0.981862 1_555
H3 K0 2.825542 1_555
H4 O18 0.998371 1_555
H4 K2 2.969015 1_555
H5 O18 1.007044 1_555
H5 O15 1.634904 1_455
H6 O19 1.007340 1_555
H6 O11 1.622947 1_455
H6 K3 2.857352 1_455
H6 K0 2.967553 1_554
H7 O19 0.980503 1_555
O0 S0 1.514405 1_554
O1 S0 1.474773 1_555
O2 S0 1.485474 1_555
O3 S0 1.509896 1_555
O5 S1 1.487538 1_555
O6 S1 1.470894 1_555
O7 S1 1.504989 1_555
O10 S2 1.492031 1_556
O11 S2 1.495248 1_555
O12 S2 1.493872 1_555
O13 S2 1.501300 1_555
O14 S3 1.510951 1_555
O15 S3 1.492069 1_555
O16 S3 1.476999 1_555
O17 S3 1.516791 1_555
