# generated using pymatgen
data_CuH4(IO4)2
_symmetry_space_group_name_H-M   'P 1'
_cell_length_a   4.88546700
_cell_length_b   6.71982100
_cell_length_c   11.33671171
_cell_angle_alpha   75.63727672
_cell_angle_beta   90.00000000
_cell_angle_gamma   90.00000000
_symmetry_Int_Tables_number   1
_chemical_formula_structural   CuH4(IO4)2
_chemical_formula_sum   'Cu2 H8 I4 O16'
_cell_volume   360.54564600
_cell_formula_units_Z   2
loop_
 _symmetry_equiv_pos_site_id
 _symmetry_equiv_pos_as_xyz
  1  'x, y, z'
loop_
 _atom_site_type_symbol
 _atom_site_label
 _atom_site_symmetry_multiplicity
 _atom_site_fract_x
 _atom_site_fract_y
 _atom_site_fract_z
 _atom_site_occupancy
  Cu  Cu0  1  0.50000000  0.00000000  0.50000000  1
  Cu  Cu1  1  0.00000000  0.00000000  0.00000000  1
  H  H0  1  0.40871400  0.82157800  0.92638000  1
  H  H1  1  0.09128600  0.82157800  0.42638000  1
  H  H2  1  0.23399800  0.65949800  0.54037000  1
  H  H3  1  0.73399800  0.34050200  0.95963000  1
  H  H4  1  0.26600200  0.65949800  0.04037000  1
  H  H5  1  0.76600200  0.34050200  0.45963000  1
  H  H6  1  0.90871400  0.17842200  0.57362000  1
  H  H7  1  0.59128600  0.17842200  0.07362000  1
  I  I0  1  0.86110900  0.73963300  0.76806600  1
  I  I1  1  0.63889100  0.73963300  0.26806600  1
  I  I2  1  0.36110900  0.26036700  0.73193400  1
  I  I3  1  0.13889100  0.26036700  0.23193400  1
  O  O0  1  0.68774600  0.92908000  0.83631300  1
  O  O1  1  0.22781000  0.77552800  0.96675300  1
  O  O2  1  0.81225400  0.92908000  0.33631300  1
  O  O3  1  0.70994500  0.79081600  0.61493800  1
  O  O4  1  0.27219000  0.77552800  0.46675300  1
  O  O5  1  0.65110600  0.51665500  0.84113900  1
  O  O6  1  0.79005500  0.79081600  0.11493800  1
  O  O7  1  0.15110600  0.48334500  0.65886100  1
  O  O8  1  0.84889400  0.51665500  0.34113900  1
  O  O9  1  0.20994500  0.20918400  0.88506200  1
  O  O10  1  0.34889400  0.48334500  0.15886100  1
  O  O11  1  0.72781000  0.22447200  0.53324700  1
  O  O12  1  0.29005500  0.20918400  0.38506200  1
  O  O13  1  0.18774600  0.07092000  0.66368700  1
  O  O14  1  0.77219000  0.22447200  0.03324700  1
  O  O15  1  0.31225400  0.07092000  0.16368700  1
loop_
_geom_bond_atom_site_label_1
_geom_bond_atom_site_label_2
_geom_bond_distance
_geom_bond_site_symmetry_2
Cu0 O3 1.953741 1_545
Cu0 O12 1.953741 1_555
Cu0 O11 1.984466 1_555
Cu0 O4 1.984466 1_545
Cu0 O13 2.537037 1_555
Cu0 O2 2.537037 1_545
Cu1 O9 1.953741 1_554
Cu1 O6 1.953741 1_445
Cu1 O14 1.984466 1_455
Cu1 O1 1.984466 1_544
Cu1 O15 2.537037 1_555
Cu1 O0 2.537037 1_444
H0 O1 1.008008 1_555
H1 O4 1.008008 1_555
H2 O4 1.008181 1_555
H2 O7 1.606475 1_555
H3 O14 1.008181 1_556
H3 O5 1.606475 1_555
H4 O1 1.008181 1_554
H4 O10 1.606475 1_555
H5 O11 1.008181 1_555
H5 O8 1.606475 1_555
H6 O11 1.008008 1_555
H7 O14 1.008008 1_555
I0 O5 1.835256 1_555
I0 O3 1.838764 1_555
I0 O0 1.850745 1_555
I1 O8 1.835256 1_555
I1 O6 1.838764 1_555
I1 O2 1.850745 1_555
I2 O7 1.835256 1_555
I2 O9 1.838764 1_555
I2 O13 1.850745 1_555
I3 O10 1.835256 1_555
I3 O12 1.838764 1_555
I3 O15 1.850745 1_555
