# generated using pymatgen
data_Mn9(Si2O9)2
_symmetry_space_group_name_H-M   'P 1'
_cell_length_a   4.89553800
_cell_length_b   10.52103800
_cell_length_c   28.20684600
_cell_angle_alpha   90.00000000
_cell_angle_beta   90.00000000
_cell_angle_gamma   90.00000000
_symmetry_Int_Tables_number   1
_chemical_formula_structural   Mn9(Si2O9)2
_chemical_formula_sum   'Mn36 Si16 O72'
_cell_volume   1452.82579651
_cell_formula_units_Z   4
loop_
 _symmetry_equiv_pos_site_id
 _symmetry_equiv_pos_as_xyz
  1  'x, y, z'
loop_
 _atom_site_type_symbol
 _atom_site_label
 _atom_site_symmetry_multiplicity
 _atom_site_fract_x
 _atom_site_fract_y
 _atom_site_fract_z
 _atom_site_occupancy
  Mn  Mn0  1  0.50034000  0.87478500  0.24932200  1
  Mn  Mn1  1  0.49966000  0.12521500  0.74932200  1
  Mn  Mn2  1  0.00034000  0.62521500  0.74932200  1
  Mn  Mn3  1  0.99966000  0.37478500  0.24932200  1
  Mn  Mn4  1  0.49560300  0.87983600  0.13518700  1
  Mn  Mn5  1  0.50439700  0.12016400  0.63518700  1
  Mn  Mn6  1  0.99560300  0.62016400  0.63518700  1
  Mn  Mn7  1  0.00439700  0.37983600  0.13518700  1
  Mn  Mn8  1  0.52186400  0.87155400  0.36571600  1
  Mn  Mn9  1  0.47813600  0.12844600  0.86571600  1
  Mn  Mn10  1  0.02186400  0.62844600  0.86571600  1
  Mn  Mn11  1  0.97813600  0.37155400  0.36571600  1
  Mn  Mn12  1  0.46654200  0.59243100  0.07575700  1
  Mn  Mn13  1  0.53345800  0.40756900  0.57575700  1
  Mn  Mn14  1  0.96654200  0.90756900  0.57575700  1
  Mn  Mn15  1  0.03345800  0.09243100  0.07575700  1
  Mn  Mn16  1  0.54312200  0.15648600  0.41681000  1
  Mn  Mn17  1  0.45687800  0.84351400  0.91681000  1
  Mn  Mn18  1  0.04312200  0.34351400  0.91681000  1
  Mn  Mn19  1  0.95687800  0.65648600  0.41681000  1
  Mn  Mn20  1  0.51610700  0.15738600  0.19222600  1
  Mn  Mn21  1  0.48389300  0.84261400  0.69222600  1
  Mn  Mn22  1  0.01610700  0.34261400  0.69222600  1
  Mn  Mn23  1  0.98389300  0.65738600  0.19222600  1
  Mn  Mn24  1  0.47431600  0.59067100  0.30748400  1
  Mn  Mn25  1  0.52568400  0.40932900  0.80748400  1
  Mn  Mn26  1  0.97431600  0.90932900  0.80748400  1
  Mn  Mn27  1  0.02568400  0.09067100  0.30748400  1
  Mn  Mn28  1  0.47788000  0.87034300  0.02144600  1
  Mn  Mn29  1  0.52212000  0.12965700  0.52144600  1
  Mn  Mn30  1  0.97788000  0.62965700  0.52144600  1
  Mn  Mn31  1  0.02212000  0.37034300  0.02144600  1
  Mn  Mn32  1  0.52373200  0.86519800  0.47951000  1
  Mn  Mn33  1  0.47626800  0.13480200  0.97951000  1
  Mn  Mn34  1  0.02373200  0.63480200  0.97951000  1
  Mn  Mn35  1  0.97626800  0.36519800  0.47951000  1
  Si  Si0  1  0.42771600  0.47318200  0.19277100  1
  Si  Si1  1  0.57228400  0.52681800  0.69277100  1
  Si  Si2  1  0.92771600  0.02681800  0.69277100  1
  Si  Si3  1  0.07228400  0.97318200  0.19277100  1
  Si  Si4  1  0.56875900  0.27671300  0.30445500  1
  Si  Si5  1  0.43124100  0.72328700  0.80445500  1
  Si  Si6  1  0.06875900  0.22328700  0.80445500  1
  Si  Si7  1  0.93124100  0.77671300  0.30445500  1
  Si  Si8  1  0.39380200  0.46532800  0.42191100  1
  Si  Si9  1  0.60619800  0.53467200  0.92191100  1
  Si  Si10  1  0.89380200  0.03467200  0.92191100  1
  Si  Si11  1  0.10619800  0.96532800  0.42191100  1
  Si  Si12  1  0.58378200  0.28131600  0.08125200  1
  Si  Si13  1  0.41621800  0.71868400  0.58125200  1
  Si  Si14  1  0.08378200  0.21868400  0.58125200  1
  Si  Si15  1  0.91621800  0.78131600  0.08125200  1
  O  O0  1  0.76233000  0.47094000  0.19283400  1
  O  O1  1  0.23767000  0.52906000  0.69283400  1
  O  O2  1  0.26233000  0.02906000  0.69283400  1
  O  O3  1  0.73767000  0.97094000  0.19283400  1
  O  O4  1  0.23430000  0.27721200  0.30619000  1
  O  O5  1  0.76570000  0.72278800  0.80619000  1
  O  O6  1  0.73430000  0.22278800  0.80619000  1
  O  O7  1  0.26570000  0.77721200  0.30619000  1
  O  O8  1  0.28488300  0.32782600  0.19297000  1
  O  O9  1  0.71511700  0.67217400  0.69297000  1
  O  O10  1  0.78488300  0.17217400  0.69297000  1
  O  O11  1  0.21511700  0.82782600  0.19297000  1
  O  O12  1  0.70734000  0.42235900  0.30525300  1
  O  O13  1  0.29266000  0.57764100  0.80525300  1
  O  O14  1  0.20734000  0.07764100  0.80525300  1
  O  O15  1  0.79266000  0.92235900  0.30525300  1
  O  O16  1  0.28679500  0.54024200  0.14553300  1
  O  O17  1  0.71320500  0.45975800  0.64553300  1
  O  O18  1  0.78679500  0.95975800  0.64553300  1
  O  O19  1  0.21320500  0.04024200  0.14553300  1
  O  O20  1  0.71316000  0.20764800  0.35109800  1
  O  O21  1  0.28684000  0.79235200  0.85109800  1
  O  O22  1  0.21316000  0.29235200  0.85109800  1
  O  O23  1  0.78684000  0.70764800  0.35109800  1
  O  O24  1  0.28705500  0.54031100  0.24003900  1
  O  O25  1  0.71294500  0.45968900  0.74003900  1
  O  O26  1  0.78705500  0.95968900  0.74003900  1
  O  O27  1  0.21294500  0.04031100  0.24003900  1
  O  O28  1  0.71005500  0.21064100  0.25734700  1
  O  O29  1  0.28994500  0.78935900  0.75734700  1
  O  O30  1  0.21005500  0.28935900  0.75734700  1
  O  O31  1  0.78994500  0.71064100  0.25734700  1
  O  O32  1  0.24895100  0.27885200  0.08125200  1
  O  O33  1  0.75104900  0.72114800  0.58125200  1
  O  O34  1  0.74895100  0.22114800  0.58125200  1
  O  O35  1  0.25104900  0.77885200  0.08125200  1
  O  O36  1  0.72603700  0.46650900  0.41922900  1
  O  O37  1  0.27396300  0.53349100  0.91922900  1
  O  O38  1  0.22603700  0.03349100  0.91922900  1
  O  O39  1  0.77396300  0.96650900  0.41922900  1
  O  O40  1  0.71499400  0.42837000  0.07901300  1
  O  O41  1  0.28500600  0.57163000  0.57901300  1
  O  O42  1  0.21499400  0.07163000  0.57901300  1
  O  O43  1  0.78500600  0.92837000  0.07901300  1
  O  O44  1  0.24988700  0.31879500  0.42378100  1
  O  O45  1  0.75011300  0.68120500  0.92378100  1
  O  O46  1  0.74988700  0.18120500  0.92378100  1
  O  O47  1  0.25011300  0.81879500  0.42378100  1
  O  O48  1  0.71844900  0.21970600  0.12991000  1
  O  O49  1  0.28155100  0.78029400  0.62991000  1
  O  O50  1  0.21844900  0.28029400  0.62991000  1
  O  O51  1  0.78155100  0.71970600  0.12991000  1
  O  O52  1  0.26526500  0.52932100  0.37239200  1
  O  O53  1  0.73473500  0.47067900  0.87239200  1
  O  O54  1  0.76526500  0.97067900  0.87239200  1
  O  O55  1  0.23473500  0.02932100  0.37239200  1
  O  O56  1  0.74693700  0.21368400  0.03595800  1
  O  O57  1  0.25306300  0.78631600  0.53595800  1
  O  O58  1  0.24693700  0.28631600  0.53595800  1
  O  O59  1  0.75306300  0.71368400  0.03595800  1
  O  O60  1  0.22029500  0.52871200  0.46669200  1
  O  O61  1  0.77970500  0.47128800  0.96669200  1
  O  O62  1  0.72029500  0.97128800  0.96669200  1
  O  O63  1  0.27970500  0.02871200  0.46669200  1
  O  O64  1  0.79394600  0.46293400  0.52528200  1
  O  O65  1  0.20605400  0.53706600  0.02528200  1
  O  O66  1  0.29394600  0.03706600  0.02528200  1
  O  O67  1  0.70605400  0.96293400  0.52528200  1
  O  O68  1  0.74997900  0.72256600  0.47468100  1
  O  O69  1  0.25002100  0.27743400  0.97468100  1
  O  O70  1  0.24997900  0.77743400  0.97468100  1
  O  O71  1  0.75002100  0.22256600  0.47468100  1
loop_
_geom_bond_atom_site_label_1
_geom_bond_atom_site_label_2
_geom_bond_distance
_geom_bond_site_symmetry_2
Mn0 O11 2.172637 1_555
Mn0 O15 2.188015 1_555
Mn0 O3 2.216328 1_555
Mn0 O7 2.224042 1_555
Mn0 O31 2.245824 1_555
Mn0 O27 2.254090 1_565
Mn1 O10 2.172637 1_555
Mn1 O14 2.188015 1_555
Mn1 O2 2.216328 1_555
Mn1 O6 2.224042 1_555
Mn1 O30 2.245824 1_555
Mn1 O26 2.254090 1_545
Mn2 O9 2.172637 1_455
Mn2 O13 2.188015 1_555
Mn2 O1 2.216328 1_555
Mn2 O5 2.224042 1_455
Mn2 O29 2.245824 1_555
Mn2 O25 2.254090 1_455
Mn3 O8 2.172637 1_655
Mn3 O12 2.188015 1_555
Mn3 O0 2.216328 1_555
Mn3 O4 2.224042 1_655
Mn3 O28 2.245824 1_555
Mn3 O24 2.254090 1_655
Mn4 O43 2.186008 1_555
Mn4 O51 2.195477 1_555
Mn4 O11 2.200320 1_555
Mn4 O19 2.201037 1_565
Mn4 O35 2.208307 1_555
Mn4 O3 2.228696 1_555
Mn5 O42 2.186008 1_555
Mn5 O50 2.195477 1_555
Mn5 O10 2.200320 1_555
Mn5 O18 2.201037 1_545
Mn5 O34 2.208307 1_555
Mn5 O2 2.228696 1_555
Mn6 O41 2.186008 1_655
Mn6 O49 2.195477 1_655
Mn6 O9 2.200320 1_555
Mn6 O17 2.201037 1_555
Mn6 O33 2.208307 1_555
Mn6 O1 2.228696 1_655
Mn7 O40 2.186008 1_455
Mn7 O48 2.195477 1_455
Mn7 O8 2.200320 1_555
Mn7 O16 2.201037 1_555
Mn7 O32 2.208307 1_555
Mn7 O0 2.228696 1_455
Mn8 O47 2.181852 1_555
Mn8 O55 2.183230 1_565
Mn8 O39 2.190797 1_555
Mn8 O23 2.196932 1_555
Mn8 O15 2.225265 1_555
Mn8 O7 2.318847 1_555
Mn9 O46 2.181852 1_555
Mn9 O54 2.183230 1_545
Mn9 O38 2.190797 1_555
Mn9 O22 2.196932 1_555
Mn9 O14 2.225265 1_555
Mn9 O6 2.318847 1_555
Mn10 O45 2.181852 1_455
Mn10 O53 2.183230 1_455
Mn10 O37 2.190797 1_555
Mn10 O21 2.196932 1_555
Mn10 O13 2.225265 1_555
Mn10 O5 2.318847 1_455
Mn11 O44 2.181852 1_655
Mn11 O52 2.183230 1_655
Mn11 O36 2.190797 1_555
Mn11 O20 2.196932 1_555
Mn11 O12 2.225265 1_555
Mn11 O4 2.318847 1_655
Mn12 O65 1.998136 1_555
Mn12 O40 2.113582 1_555
Mn12 O59 2.203444 1_555
Mn12 O16 2.224742 1_555
Mn12 O35 2.232446 1_555
Mn12 O51 2.550392 1_555
Mn13 O64 1.998136 1_555
Mn13 O41 2.113582 1_555
Mn13 O58 2.203444 1_555
Mn13 O17 2.224742 1_555
Mn13 O34 2.232446 1_555
Mn13 O50 2.550392 1_555
Mn14 O67 1.998136 1_555
Mn14 O42 2.113582 1_665
Mn14 O57 2.203444 1_655
Mn14 O18 2.224742 1_555
Mn14 O33 2.232446 1_555
Mn14 O49 2.550392 1_655
Mn15 O66 1.998136 1_555
Mn15 O43 2.113582 1_445
Mn15 O56 2.203444 1_455
Mn15 O19 2.224742 1_555
Mn15 O32 2.232446 1_555
Mn15 O48 2.550392 1_455
Mn16 O71 2.043005 1_555
Mn16 O20 2.101962 1_555
Mn16 O44 2.239542 1_555
Mn16 O39 2.297125 1_545
Mn16 O63 2.334493 1_555
Mn16 O55 2.374656 1_555
Mn17 O70 2.043005 1_555
Mn17 O21 2.101962 1_555
Mn17 O45 2.239542 1_555
Mn17 O38 2.297125 1_565
Mn17 O62 2.334493 1_555
Mn17 O54 2.374656 1_555
Mn18 O69 2.043005 1_555
Mn18 O22 2.101962 1_555
Mn18 O46 2.239542 1_455
Mn18 O37 2.297125 1_555
Mn18 O61 2.334493 1_455
Mn18 O53 2.374656 1_455
Mn19 O68 2.043005 1_555
Mn19 O23 2.101962 1_555
Mn19 O47 2.239542 1_655
Mn19 O36 2.297125 1_555
Mn19 O60 2.334493 1_655
Mn19 O52 2.374656 1_655
Mn20 O8 2.120701 1_555
Mn20 O48 2.121505 1_555
Mn20 O28 2.142310 1_555
Mn20 O3 2.241584 1_545
Mn20 O19 2.335069 1_555
Mn20 O27 2.353455 1_555
Mn21 O9 2.120701 1_555
Mn21 O49 2.121505 1_555
Mn21 O29 2.142310 1_555
Mn21 O2 2.241584 1_565
Mn21 O18 2.335069 1_555
Mn21 O26 2.353455 1_555
Mn22 O10 2.120701 1_455
Mn22 O50 2.121505 1_555
Mn22 O30 2.142310 1_555
Mn22 O1 2.241584 1_555
Mn22 O17 2.335069 1_455
Mn22 O25 2.353455 1_455
Mn23 O11 2.120701 1_655
Mn23 O51 2.121505 1_555
Mn23 O31 2.142310 1_555
Mn23 O0 2.241584 1_555
Mn23 O16 2.335069 1_655
Mn23 O24 2.353455 1_655
Mn24 O12 2.107398 1_555
Mn24 O24 2.177226 1_555
Mn24 O52 2.194543 1_555
Mn24 O7 2.212731 1_555
Mn24 O23 2.317092 1_555
Mn24 O31 2.445550 1_555
Mn25 O13 2.107398 1_555
Mn25 O25 2.177226 1_555
Mn25 O53 2.194543 1_555
Mn25 O6 2.212731 1_555
Mn25 O22 2.317092 1_555
Mn25 O30 2.445550 1_555
Mn26 O14 2.107398 1_665
Mn26 O26 2.177226 1_555
Mn26 O54 2.194543 1_555
Mn26 O5 2.212731 1_555
Mn26 O21 2.317092 1_655
Mn26 O29 2.445550 1_655
Mn27 O15 2.107398 1_445
Mn27 O27 2.177226 1_555
Mn27 O55 2.194543 1_555
Mn27 O4 2.212731 1_555
Mn27 O20 2.317092 1_455
Mn27 O28 2.445550 1_455
Mn28 O66 1.974688 1_565
Mn28 O70 1.985017 1_554
Mn28 O59 2.167726 1_555
Mn28 O62 2.218470 1_554
Mn28 O35 2.237285 1_555
Mn28 O43 2.295657 1_555
Mn29 O67 1.974688 1_545
Mn29 O71 1.985017 1_555
Mn29 O58 2.167726 1_555
Mn29 O63 2.218470 1_555
Mn29 O34 2.237285 1_555
Mn29 O42 2.295657 1_555
Mn30 O64 1.974688 1_555
Mn30 O68 1.985017 1_555
Mn30 O57 2.167726 1_655
Mn30 O60 2.218470 1_655
Mn30 O33 2.237285 1_555
Mn30 O41 2.295657 1_655
Mn31 O65 1.974688 1_555
Mn31 O69 1.985017 1_554
Mn31 O56 2.167726 1_455
Mn31 O61 2.218470 1_454
Mn31 O32 2.237285 1_555
Mn31 O40 2.295657 1_455
Mn32 O68 1.870092 1_555
Mn32 O67 1.876416 1_555
Mn32 O47 2.122176 1_555
Mn32 O63 2.125430 1_565
Mn32 O57 2.231534 1_555
Mn32 O39 2.351158 1_555
Mn33 O69 1.870092 1_555
Mn33 O66 1.876416 1_556
Mn33 O46 2.122176 1_555
Mn33 O62 2.125430 1_545
Mn33 O56 2.231534 1_556
Mn33 O38 2.351158 1_555
Mn34 O70 1.870092 1_555
Mn34 O65 1.876416 1_556
Mn34 O45 2.122176 1_455
Mn34 O61 2.125430 1_455
Mn34 O59 2.231534 1_456
Mn34 O37 2.351158 1_555
Mn35 O71 1.870092 1_555
Mn35 O64 1.876416 1_555
Mn35 O44 2.122176 1_655
Mn35 O60 2.125430 1_655
Mn35 O58 2.231534 1_655
Mn35 O36 2.351158 1_555
O0 Si0 1.638286 1_555
O1 Si1 1.638286 1_555
O2 Si2 1.638286 1_455
O3 Si3 1.638286 1_655
O4 Si4 1.638096 1_555
O5 Si5 1.638096 1_555
O6 Si6 1.638096 1_655
O7 Si7 1.638096 1_455
O8 Si0 1.681583 1_555
O9 Si1 1.681583 1_555
O10 Si2 1.681583 1_555
O11 Si3 1.681583 1_555
O12 Si4 1.675965 1_555
O13 Si5 1.675965 1_555
O14 Si6 1.675965 1_555
O15 Si7 1.675965 1_555
O16 Si0 1.658044 1_555
O17 Si1 1.658044 1_555
O18 Si2 1.658044 1_565
O19 Si3 1.658044 1_545
O20 Si4 1.660926 1_555
O21 Si5 1.660926 1_555
O22 Si6 1.660926 1_555
O23 Si7 1.660926 1_555
O24 Si0 1.658504 1_555
O25 Si1 1.658504 1_555
O26 Si2 1.658504 1_565
O27 Si3 1.658504 1_545
O28 Si4 1.651463 1_555
O29 Si5 1.651463 1_555
O30 Si6 1.651463 1_555
O31 Si7 1.651463 1_555
O32 Si12 1.639383 1_555
O33 Si13 1.639383 1_555
O34 Si14 1.639383 1_655
O35 Si15 1.639383 1_455
O36 Si8 1.628275 1_555
O37 Si9 1.628275 1_555
O38 Si10 1.628275 1_455
O39 Si11 1.628275 1_655
O40 Si12 1.676399 1_555
O41 Si13 1.676399 1_555
O42 Si14 1.676399 1_555
O43 Si15 1.676399 1_555
O44 Si8 1.695858 1_555
O45 Si9 1.695858 1_555
O46 Si10 1.695858 1_555
O47 Si11 1.695858 1_555
O48 Si12 1.654848 1_555
O49 Si13 1.654848 1_555
O50 Si14 1.654848 1_555
O51 Si15 1.654848 1_555
O52 Si8 1.673392 1_555
O53 Si9 1.673392 1_555
O54 Si10 1.673392 1_565
O55 Si11 1.673392 1_545
O56 Si12 1.666299 1_555
O57 Si13 1.666299 1_555
O58 Si14 1.666299 1_555
O59 Si15 1.666299 1_555
O60 Si8 1.661838 1_555
O61 Si9 1.661838 1_555
O62 Si10 1.661838 1_565
O63 Si11 1.661838 1_545
