# generated using pymatgen
data_Bi6B10O21
_symmetry_space_group_name_H-M   'P 1'
_cell_length_a   7.08905800
_cell_length_b   7.16172200
_cell_length_c   11.35306411
_cell_angle_alpha   102.60385719
_cell_angle_beta   86.38037874
_cell_angle_gamma   116.69185329
_symmetry_Int_Tables_number   1
_chemical_formula_structural   Bi6B10O21
_chemical_formula_sum   'Bi6 B10 O21'
_cell_volume   502.15814730
_cell_formula_units_Z   1
loop_
 _symmetry_equiv_pos_site_id
 _symmetry_equiv_pos_as_xyz
  1  'x, y, z'
loop_
 _atom_site_type_symbol
 _atom_site_label
 _atom_site_symmetry_multiplicity
 _atom_site_fract_x
 _atom_site_fract_y
 _atom_site_fract_z
 _atom_site_occupancy
  Bi  Bi0  1  0.76011700  0.27033200  0.91107700  1
  Bi  Bi1  1  0.21068000  0.99935700  0.44229400  1
  Bi  Bi2  1  0.84627000  0.26811500  0.36566100  1
  Bi  Bi3  1  0.15373000  0.73188500  0.63433900  1
  Bi  Bi4  1  0.78932000  0.00064300  0.55770600  1
  Bi  Bi5  1  0.23988300  0.72966800  0.08892300  1
  B  B0  1  0.42140800  0.17881100  0.72614400  1
  B  B1  1  0.17102800  0.32488600  0.77320400  1
  B  B2  1  0.61960500  0.44620600  0.58907000  1
  B  B3  1  0.56213300  0.56986900  0.80144200  1
  B  B4  1  0.86439300  0.78911300  0.95566200  1
  B  B5  1  0.13560700  0.21088700  0.04433800  1
  B  B6  1  0.43786700  0.43013100  0.19855800  1
  B  B7  1  0.38039500  0.55379400  0.41093000  1
  B  B8  1  0.82897200  0.67511400  0.22679600  1
  B  B9  1  0.57859200  0.82118900  0.27385600  1
  O  O0  1  0.96380300  0.29663800  0.76013000  1
  O  O1  1  0.00000000  0.00000000  0.00000000  1
  O  O2  1  0.54969700  0.00459700  0.27112600  1
  O  O3  1  0.20153100  0.14330600  0.75028800  1
  O  O4  1  0.46777900  0.24048800  0.60098000  1
  O  O5  1  0.56731200  0.36644300  0.81476800  1
  O  O6  1  0.91935500  0.63150700  0.97285100  1
  O  O7  1  0.73199100  0.48079000  0.48709000  1
  O  O8  1  0.33665100  0.52737300  0.80207100  1
  O  O9  1  0.31964900  0.25244900  0.10122000  1
  O  O10  1  0.66104900  0.61509200  0.68600700  1
  O  O11  1  0.33895100  0.38490800  0.31399300  1
  O  O12  1  0.68035100  0.74755100  0.89878000  1
  O  O13  1  0.66334900  0.47262700  0.19792900  1
  O  O14  1  0.26800900  0.51921000  0.51291000  1
  O  O15  1  0.08064500  0.36849300  0.02714900  1
  O  O16  1  0.43268800  0.63355700  0.18523200  1
  O  O17  1  0.53222100  0.75951200  0.39902000  1
  O  O18  1  0.79846900  0.85669400  0.24971200  1
  O  O19  1  0.45030300  0.99540300  0.72887400  1
  O  O20  1  0.03619700  0.70336200  0.23987000  1
loop_
_geom_bond_atom_site_label_1
_geom_bond_atom_site_label_2
_geom_bond_distance
_geom_bond_site_symmetry_2
Bi0 O0 2.154376 1_555
Bi0 O5 2.213554 1_555
Bi0 O6 2.267575 1_555
Bi0 O15 2.435678 1_656
Bi1 O4 2.403941 1_565
Bi1 O20 2.679981 1_555
Bi2 O7 2.219880 1_555
Bi2 O2 2.229374 1_555
Bi3 O14 2.219880 1_555
Bi3 O19 2.229374 1_555
Bi4 O17 2.403941 1_545
Bi4 O0 2.679981 1_555
Bi5 O20 2.154376 1_555
Bi5 O16 2.213554 1_555
Bi5 O15 2.267575 1_555
Bi5 O6 2.435678 1_454
B0 O19 1.424266 1_545
B0 O5 1.476677 1_555
B0 O3 1.479798 1_555
B0 O4 1.551418 1_555
B1 O8 1.378565 1_555
B1 O3 1.379646 1_555
B1 O0 1.403012 1_455
B2 O7 1.366734 1_555
B2 O10 1.378795 1_555
B2 O4 1.411133 1_555
B3 O12 1.444989 1_555
B3 O10 1.476244 1_555
B3 O8 1.486673 1_555
B3 O5 1.513831 1_555
B4 O12 1.371659 1_555
B4 O1 1.372416 1_666
B4 O6 1.401696 1_555
B5 O9 1.371659 1_555
B5 O1 1.372416 1_555
B5 O15 1.401696 1_555
B6 O9 1.444989 1_555
B6 O11 1.476244 1_555
B6 O13 1.486673 1_555
B6 O16 1.513831 1_555
B7 O14 1.366734 1_555
B7 O11 1.378795 1_555
B7 O17 1.411133 1_555
B8 O13 1.378565 1_555
B8 O18 1.379646 1_555
B8 O20 1.403012 1_655
B9 O2 1.424266 1_565
B9 O16 1.476677 1_555
B9 O18 1.479798 1_555
B9 O17 1.551418 1_555
