# generated using pymatgen
data_Li4(NiO2)11
_symmetry_space_group_name_H-M   'P 1'
_cell_length_a   7.41524500
_cell_length_b   7.63998179
_cell_length_c   7.74996572
_cell_angle_alpha   82.77328705
_cell_angle_beta   111.16969566
_cell_angle_gamma   113.81065003
_symmetry_Int_Tables_number   1
_chemical_formula_structural   Li4(NiO2)11
_chemical_formula_sum   'Li4 Ni11 O22'
_cell_volume   374.47289961
_cell_formula_units_Z   1
loop_
 _symmetry_equiv_pos_site_id
 _symmetry_equiv_pos_as_xyz
  1  'x, y, z'
loop_
 _atom_site_type_symbol
 _atom_site_label
 _atom_site_symmetry_multiplicity
 _atom_site_fract_x
 _atom_site_fract_y
 _atom_site_fract_z
 _atom_site_occupancy
  Li  Li0  1  0.30698400  0.94825400  0.55872900  1
  Li  Li1  1  0.15410800  0.39644200  0.09931500  1
  Li  Li2  1  0.84589200  0.60355800  0.90068500  1
  Li  Li3  1  0.69301600  0.05174600  0.44127100  1
  Ni  Ni0  1  0.45336100  0.36376000  0.63296100  1
  Ni  Ni1  1  0.36780000  0.09767400  0.91357000  1
  Ni  Ni2  1  0.63220000  0.90232600  0.08643000  1
  Ni  Ni3  1  0.18039100  0.54687800  0.45152900  1
  Ni  Ni4  1  0.54663900  0.63624000  0.36703900  1
  Ni  Ni5  1  0.09027600  0.27352500  0.72591700  1
  Ni  Ni6  1  0.26941500  0.81726900  0.17951500  1
  Ni  Ni7  1  0.81960900  0.45312200  0.54847100  1
  Ni  Ni8  1  0.73058500  0.18273100  0.82048500  1
  Ni  Ni9  1  0.00000000  0.00000000  0.00000000  1
  Ni  Ni10  1  0.90972400  0.72647500  0.27408300  1
  O  O0  1  0.57136200  0.21394700  0.57415200  1
  O  O1  1  0.61293000  0.33615400  0.87318700  1
  O  O2  1  0.49646500  0.03114200  0.15679500  1
  O  O3  1  0.68225200  0.51364300  0.29615400  1
  O  O4  1  0.23227600  0.14773100  0.66514900  1
  O  O5  1  0.31774800  0.48635700  0.70384600  1
  O  O6  1  0.50353500  0.96885800  0.84320500  1
  O  O7  1  0.22399900  0.22149600  0.97329300  1
  O  O8  1  0.38707000  0.66384600  0.12681300  1
  O  O9  1  0.93734600  0.30942800  0.48626000  1
  O  O10  1  0.31745900  0.42014400  0.38689300  1
  O  O11  1  0.06265400  0.69057200  0.51374000  1
  O  O12  1  0.42863800  0.78605300  0.42584800  1
  O  O13  1  0.95653400  0.40256700  0.79433400  1
  O  O14  1  0.11542300  0.85319800  0.93897500  1
  O  O15  1  0.88457700  0.14680200  0.06102500  1
  O  O16  1  0.04346600  0.59743300  0.20566600  1
  O  O17  1  0.13665800  0.95009400  0.24479100  1
  O  O18  1  0.68254100  0.57985600  0.61310700  1
  O  O19  1  0.86334200  0.04990600  0.75520900  1
  O  O20  1  0.77600100  0.77850400  0.02670700  1
  O  O21  1  0.76772400  0.85226900  0.33485100  1
loop_
_geom_bond_atom_site_label_1
_geom_bond_atom_site_label_2
_geom_bond_distance
_geom_bond_site_symmetry_2
Li0 O11 2.028864 1_555
Li0 O6 2.142631 1_555
Li0 O4 2.153508 1_565
Li0 O0 2.157935 1_565
Li0 O17 2.302434 1_555
Li0 O12 2.303178 1_555
Li1 O8 2.048745 1_555
Li1 O7 2.064520 1_554
Li1 O15 2.087195 1_455
Li1 O10 2.107557 1_555
Li1 O13 2.293825 1_454
Li1 O16 2.352548 1_555
Li2 O1 2.048745 1_555
Li2 O20 2.064520 1_556
Li2 O14 2.087195 1_655
Li2 O18 2.107557 1_555
Li2 O16 2.293825 1_656
Li2 O13 2.352548 1_555
Li3 O9 2.028864 1_555
Li3 O2 2.142631 1_555
Li3 O21 2.153508 1_545
Li3 O12 2.157935 1_545
Li3 O19 2.302434 1_555
Li3 O0 2.303178 1_555
Ni0 O1 1.849940 1_555
Ni0 O5 1.865286 1_555
Ni0 O4 1.865730 1_555
Ni0 O18 1.870018 1_555
Ni0 O0 1.873853 1_555
Ni0 O10 1.895688 1_555
Ni1 O7 1.878110 1_555
Ni1 O2 1.890341 1_556
Ni1 O4 1.894843 1_555
Ni1 O6 1.900068 1_545
Ni1 O1 2.077247 1_555
Ni1 O14 2.093074 1_545
Ni2 O20 1.878110 1_555
Ni2 O6 1.890341 1_554
Ni2 O21 1.894843 1_555
Ni2 O2 1.900068 1_565
Ni2 O8 2.077247 1_555
Ni2 O15 2.093074 1_565
Ni3 O11 1.846873 1_555
Ni3 O10 1.872391 1_555
Ni3 O16 1.882792 1_555
Ni3 O5 1.946597 1_555
Ni3 O9 2.049188 1_455
Ni3 O12 2.055325 1_555
Ni4 O8 1.849940 1_555
Ni4 O3 1.865286 1_555
Ni4 O21 1.865730 1_555
Ni4 O10 1.870018 1_555
Ni4 O12 1.873853 1_555
Ni4 O18 1.895688 1_555
Ni5 O9 1.847332 1_455
Ni5 O5 1.855330 1_555
Ni5 O13 1.880794 1_455
Ni5 O4 1.882367 1_555
Ni5 O7 1.889503 1_555
Ni5 O19 1.912870 1_455
Ni6 O14 1.855071 1_554
Ni6 O2 1.859030 1_565
Ni6 O8 1.872280 1_555
Ni6 O17 1.884211 1_555
Ni6 O16 1.885900 1_555
Ni6 O12 1.892158 1_555
Ni7 O9 1.846873 1_555
Ni7 O18 1.872391 1_555
Ni7 O13 1.882792 1_555
Ni7 O3 1.946597 1_555
Ni7 O11 2.049188 1_655
Ni7 O0 2.055325 1_555
Ni8 O15 1.855071 1_556
Ni8 O6 1.859030 1_545
Ni8 O1 1.872280 1_555
Ni8 O19 1.884211 1_555
Ni8 O13 1.885900 1_555
Ni8 O0 1.892158 1_555
Ni9 O15 1.847979 1_455
Ni9 O14 1.847979 1_544
Ni9 O17 1.874246 1_545
Ni9 O19 1.874246 1_454
Ni9 O7 1.885756 1_554
Ni9 O20 1.885756 1_445
Ni10 O11 1.847332 1_655
Ni10 O3 1.855330 1_555
Ni10 O16 1.880794 1_655
Ni10 O21 1.882367 1_555
Ni10 O20 1.889503 1_555
Ni10 O17 1.912870 1_655
