# generated using pymatgen
data_MoH4O5
_symmetry_space_group_name_H-M   'P 1'
_cell_length_a   14.05839900
_cell_length_b   10.59816100
_cell_length_c   14.90901428
_cell_angle_alpha   46.29835072
_cell_angle_beta   90.00000000
_cell_angle_gamma   90.00000000
_symmetry_Int_Tables_number   1
_chemical_formula_structural   MoH4O5
_chemical_formula_sum   'Mo16 H64 O80'
_cell_volume   1605.91266703
_cell_formula_units_Z   16
loop_
 _symmetry_equiv_pos_site_id
 _symmetry_equiv_pos_as_xyz
  1  'x, y, z'
loop_
 _atom_site_type_symbol
 _atom_site_label
 _atom_site_symmetry_multiplicity
 _atom_site_fract_x
 _atom_site_fract_y
 _atom_site_fract_z
 _atom_site_occupancy
  Mo  Mo0  1  0.75130000  0.02691600  0.35572500  1
  Mo  Mo1  1  0.74870000  0.02691600  0.85572500  1
  Mo  Mo2  1  0.24870000  0.97308400  0.64427500  1
  Mo  Mo3  1  0.25130000  0.97308400  0.14427500  1
  Mo  Mo4  1  0.74635900  0.46627500  0.88258900  1
  Mo  Mo5  1  0.75364100  0.46627500  0.38258900  1
  Mo  Mo6  1  0.25364100  0.53372500  0.11741100  1
  Mo  Mo7  1  0.24635900  0.53372500  0.61741100  1
  Mo  Mo8  1  0.75558700  0.97049700  0.13897100  1
  Mo  Mo9  1  0.74441300  0.97049700  0.63897100  1
  Mo  Mo10  1  0.24441300  0.02950300  0.86102900  1
  Mo  Mo11  1  0.25558700  0.02950300  0.36102900  1
  Mo  Mo12  1  0.74894100  0.53386700  0.60438400  1
  Mo  Mo13  1  0.75105900  0.53386700  0.10438400  1
  Mo  Mo14  1  0.25105900  0.46613300  0.39561600  1
  Mo  Mo15  1  0.24894100  0.46613300  0.89561600  1
  H  H0  1  0.56331800  0.92103400  0.46472900  1
  H  H1  1  0.93668200  0.92103400  0.96472900  1
  H  H2  1  0.43668200  0.07896600  0.53527100  1
  H  H3  1  0.06331800  0.07896600  0.03527100  1
  H  H4  1  0.55931500  0.12515900  0.37374400  1
  H  H5  1  0.94068500  0.12515900  0.87374400  1
  H  H6  1  0.44068500  0.87484100  0.62625600  1
  H  H7  1  0.05931500  0.87484100  0.12625600  1
  H  H8  1  0.55777800  0.40413600  0.97865800  1
  H  H9  1  0.94222200  0.40413600  0.47865800  1
  H  H10  1  0.44222200  0.59586400  0.02134200  1
  H  H11  1  0.05777800  0.59586400  0.52134200  1
  H  H12  1  0.56441500  0.61029300  0.88164500  1
  H  H13  1  0.93558500  0.61029300  0.38164500  1
  H  H14  1  0.43558500  0.38970700  0.11835500  1
  H  H15  1  0.06441500  0.38970700  0.61835500  1
  H  H16  1  0.56413700  0.89319500  0.22393100  1
  H  H17  1  0.93586300  0.89319500  0.72393100  1
  H  H18  1  0.43586300  0.10680500  0.77606900  1
  H  H19  1  0.06413700  0.10680500  0.27606900  1
  H  H20  1  0.93652800  0.87351500  0.62869500  1
  H  H21  1  0.56347200  0.87351500  0.12869500  1
  H  H22  1  0.06347200  0.12648500  0.37130500  1
  H  H23  1  0.43652800  0.12648500  0.87130500  1
  H  H24  1  0.56442800  0.39689100  0.71868300  1
  H  H25  1  0.93557200  0.39689100  0.21868300  1
  H  H26  1  0.43557200  0.60310900  0.28131700  1
  H  H27  1  0.06442800  0.60310900  0.78131700  1
  H  H28  1  0.93412300  0.37815300  0.12291700  1
  H  H29  1  0.56587700  0.37815300  0.62291700  1
  H  H30  1  0.06587700  0.62184700  0.87708300  1
  H  H31  1  0.43412300  0.62184700  0.37708300  1
  H  H32  1  0.54582800  0.69955500  0.44239500  1
  H  H33  1  0.95417200  0.69955500  0.94239500  1
  H  H34  1  0.45417200  0.30044500  0.55760500  1
  H  H35  1  0.04582800  0.30044500  0.05760500  1
  H  H36  1  0.96125300  0.16497700  0.12415200  1
  H  H37  1  0.53874700  0.16497700  0.62415200  1
  H  H38  1  0.03874700  0.83502300  0.87584800  1
  H  H39  1  0.46125300  0.83502300  0.37584800  1
  H  H40  1  0.54604700  0.16797200  0.19052600  1
  H  H41  1  0.95395300  0.16797200  0.69052600  1
  H  H42  1  0.45395300  0.83202800  0.80947400  1
  H  H43  1  0.04604700  0.83202800  0.30947400  1
  H  H44  1  0.95764000  0.83841900  0.37118600  1
  H  H45  1  0.54236000  0.83841900  0.87118600  1
  H  H46  1  0.04236000  0.16158100  0.62881400  1
  H  H47  1  0.45764000  0.16158100  0.12881400  1
  H  H48  1  0.55183000  0.20015700  0.93620600  1
  H  H49  1  0.94817000  0.20015700  0.43620600  1
  H  H50  1  0.44817000  0.79984300  0.06379400  1
  H  H51  1  0.05183000  0.79984300  0.56379400  1
  H  H52  1  0.96364600  0.67284100  0.62304200  1
  H  H53  1  0.53635400  0.67284100  0.12304200  1
  H  H54  1  0.03635400  0.32715900  0.37695800  1
  H  H55  1  0.46364600  0.32715900  0.87695800  1
  H  H56  1  0.56159200  0.67995600  0.67510600  1
  H  H57  1  0.93840800  0.67995600  0.17510600  1
  H  H58  1  0.43840800  0.32004400  0.32489400  1
  H  H59  1  0.06159200  0.32004400  0.82489400  1
  H  H60  1  0.96517400  0.33168500  0.87314100  1
  H  H61  1  0.53482600  0.33168500  0.37314100  1
  H  H62  1  0.03482600  0.66831500  0.12685900  1
  H  H63  1  0.46517400  0.66831500  0.62685900  1
  O  O0  1  0.87192700  0.98555200  0.35968600  1
  O  O1  1  0.62807300  0.98555200  0.85968600  1
  O  O2  1  0.12807300  0.01444800  0.64031400  1
  O  O3  1  0.37192700  0.01444800  0.14031400  1
  O  O4  1  0.86853500  0.45370400  0.87098300  1
  O  O5  1  0.63146500  0.45370400  0.37098300  1
  O  O6  1  0.13146500  0.54629600  0.12901700  1
  O  O7  1  0.36853500  0.54629600  0.62901700  1
  O  O8  1  0.87309100  0.03557400  0.12430400  1
  O  O9  1  0.62690900  0.03557400  0.62430400  1
  O  O10  1  0.12690900  0.96442600  0.87569600  1
  O  O11  1  0.37309100  0.96442600  0.37569600  1
  O  O12  1  0.86965900  0.56174700  0.61223400  1
  O  O13  1  0.63034100  0.56174700  0.11223400  1
  O  O14  1  0.13034100  0.43825300  0.38776600  1
  O  O15  1  0.36965900  0.43825300  0.88776600  1
  O  O16  1  0.71193600  0.03570900  0.23197800  1
  O  O17  1  0.78806400  0.03570900  0.73197800  1
  O  O18  1  0.28806400  0.96429100  0.76802200  1
  O  O19  1  0.21193600  0.96429100  0.26802200  1
  O  O20  1  0.71110900  0.75787600  0.47860100  1
  O  O21  1  0.78889100  0.75787600  0.97860100  1
  O  O22  1  0.28889100  0.24212400  0.52139900  1
  O  O23  1  0.21110900  0.24212400  0.02139900  1
  O  O24  1  0.76082200  0.73880900  0.27696500  1
  O  O25  1  0.73917800  0.73880900  0.77696500  1
  O  O26  1  0.23917800  0.26119100  0.72303500  1
  O  O27  1  0.26082200  0.26119100  0.22303500  1
  O  O28  1  0.75252400  0.46399700  0.01930000  1
  O  O29  1  0.74747600  0.46399700  0.51930000  1
  O  O30  1  0.24747600  0.53600300  0.98070000  1
  O  O31  1  0.25252400  0.53600300  0.48070000  1
  O  O32  1  0.74808100  0.95839500  0.02132000  1
  O  O33  1  0.75191900  0.95839500  0.52132000  1
  O  O34  1  0.25191900  0.04160500  0.97868000  1
  O  O35  1  0.24808100  0.04160500  0.47868000  1
  O  O36  1  0.71250200  0.23943700  0.98807900  1
  O  O37  1  0.78749800  0.23943700  0.48807900  1
  O  O38  1  0.28749800  0.76056300  0.01192100  1
  O  O39  1  0.21250200  0.76056300  0.51192100  1
  O  O40  1  0.75367200  0.25663800  0.76810200  1
  O  O41  1  0.74632800  0.25663800  0.26810200  1
  O  O42  1  0.24632800  0.74336200  0.23189800  1
  O  O43  1  0.25367200  0.74336200  0.73189800  1
  O  O44  1  0.70703300  0.53510300  0.73333300  1
  O  O45  1  0.79296700  0.53510300  0.23333300  1
  O  O46  1  0.29296700  0.46489700  0.26666700  1
  O  O47  1  0.20703300  0.46489700  0.76666700  1
  O  O48  1  0.58907300  0.03000900  0.38431900  1
  O  O49  1  0.91092700  0.03000900  0.88431900  1
  O  O50  1  0.41092700  0.96999100  0.61568100  1
  O  O51  1  0.08907300  0.96999100  0.11568100  1
  O  O52  1  0.58700900  0.50710200  0.89794100  1
  O  O53  1  0.91299100  0.50710200  0.39794100  1
  O  O54  1  0.41299100  0.49289800  0.10205900  1
  O  O55  1  0.08700900  0.49289800  0.60205900  1
  O  O56  1  0.59251500  0.94375200  0.14372300  1
  O  O57  1  0.90748500  0.94375200  0.64372300  1
  O  O58  1  0.40748500  0.05624800  0.85627700  1
  O  O59  1  0.09251500  0.05624800  0.35627700  1
  O  O60  1  0.58967800  0.45372800  0.63560000  1
  O  O61  1  0.91032200  0.45372800  0.13560000  1
  O  O62  1  0.41032200  0.54627200  0.36440000  1
  O  O63  1  0.08967800  0.54627200  0.86440000  1
  O  O64  1  0.50301100  0.76513500  0.37062400  1
  O  O65  1  0.99698900  0.76513500  0.87062400  1
  O  O66  1  0.49698900  0.23486500  0.62937600  1
  O  O67  1  0.00301100  0.23486500  0.12937600  1
  O  O68  1  0.50073300  0.24186700  0.12177100  1
  O  O69  1  0.99926700  0.24186700  0.62177100  1
  O  O70  1  0.49926700  0.75813300  0.87822900  1
  O  O71  1  0.00073300  0.75813300  0.37822900  1
  O  O72  1  0.50619600  0.26248400  0.86759500  1
  O  O73  1  0.99380400  0.26248400  0.36759500  1
  O  O74  1  0.49380400  0.73751600  0.13240500  1
  O  O75  1  0.00619600  0.73751600  0.63240500  1
  O  O76  1  0.50958900  0.75070200  0.61543100  1
  O  O77  1  0.99041100  0.75070200  0.11543100  1
  O  O78  1  0.49041100  0.24929800  0.38456900  1
  O  O79  1  0.00958900  0.24929800  0.88456900  1
loop_
_geom_bond_atom_site_label_1
_geom_bond_atom_site_label_2
_geom_bond_distance
_geom_bond_site_symmetry_2
Mo0 O0 1.742328 1_545
Mo0 O41 1.801121 1_555
Mo0 O16 1.865792 1_555
Mo0 O33 2.035999 1_545
Mo0 O20 2.141847 1_545
Mo0 O48 2.324542 1_555
Mo1 O1 1.742328 1_545
Mo1 O40 1.801121 1_555
Mo1 O17 1.865792 1_555
Mo1 O32 2.035999 1_546
Mo1 O21 2.141847 1_545
Mo1 O49 2.324542 1_555
Mo2 O2 1.742328 1_565
Mo2 O43 1.801121 1_555
Mo2 O18 1.865792 1_555
Mo2 O35 2.035999 1_565
Mo2 O22 2.141847 1_565
Mo2 O50 2.324542 1_555
Mo3 O3 1.742328 1_565
Mo3 O42 1.801121 1_555
Mo3 O19 1.865792 1_555
Mo3 O34 2.035999 1_564
Mo3 O23 2.141847 1_565
Mo3 O51 2.324542 1_555
Mo4 O4 1.740601 1_555
Mo4 O36 1.804169 1_555
Mo4 O44 1.883232 1_555
Mo4 O28 2.023478 1_556
Mo4 O25 2.132505 1_555
Mo4 O52 2.322710 1_555
Mo5 O5 1.740601 1_555
Mo5 O37 1.804169 1_555
Mo5 O45 1.883232 1_555
Mo5 O29 2.023478 1_555
Mo5 O24 2.132505 1_555
Mo5 O53 2.322710 1_555
Mo6 O6 1.740601 1_555
Mo6 O38 1.804169 1_555
Mo6 O46 1.883232 1_555
Mo6 O30 2.023478 1_554
Mo6 O27 2.132505 1_555
Mo6 O54 2.322710 1_555
Mo7 O7 1.740601 1_555
Mo7 O39 1.804169 1_555
Mo7 O47 1.883232 1_555
Mo7 O31 2.023478 1_555
Mo7 O26 2.132505 1_555
Mo7 O55 2.322710 1_555
Mo8 O8 1.744687 1_565
Mo8 O24 1.812975 1_555
Mo8 O32 1.848022 1_555
Mo8 O16 2.025158 1_565
Mo8 O36 2.165998 1_564
Mo8 O56 2.305062 1_555
Mo9 O9 1.744687 1_565
Mo9 O25 1.812975 1_555
Mo9 O33 1.848022 1_555
Mo9 O17 2.025158 1_565
Mo9 O37 2.165998 1_565
Mo9 O57 2.305062 1_555
Mo10 O10 1.744687 1_545
Mo10 O26 1.812975 1_555
Mo10 O34 1.848022 1_555
Mo10 O18 2.025158 1_545
Mo10 O38 2.165998 1_546
Mo10 O58 2.305062 1_555
Mo11 O11 1.744687 1_545
Mo11 O27 1.812975 1_555
Mo11 O35 1.848022 1_555
Mo11 O19 2.025158 1_545
Mo11 O39 2.165998 1_545
Mo11 O59 2.305062 1_555
Mo12 O12 1.740386 1_555
Mo12 O20 1.812161 1_555
Mo12 O29 1.858996 1_555
Mo12 O44 2.019429 1_555
Mo12 O40 2.164508 1_555
Mo12 O60 2.324823 1_555
Mo13 O13 1.740386 1_555
Mo13 O21 1.812161 1_554
Mo13 O28 1.858996 1_555
Mo13 O45 2.019429 1_555
Mo13 O41 2.164508 1_555
Mo13 O61 2.324823 1_555
Mo14 O14 1.740386 1_555
Mo14 O22 1.812161 1_555
Mo14 O31 1.858996 1_555
Mo14 O46 2.019429 1_555
Mo14 O42 2.164508 1_555
Mo14 O62 2.324823 1_555
Mo15 O15 1.740386 1_555
Mo15 O23 1.812161 1_556
Mo15 O30 1.858996 1_555
Mo15 O47 2.019429 1_555
Mo15 O43 2.164508 1_555
Mo15 O63 2.324823 1_555
H0 O48 0.994465 1_565
H1 O49 0.994465 1_565
H2 O50 0.994465 1_545
H3 O51 0.994465 1_545
H4 O48 0.998540 1_555
H5 O49 0.998540 1_555
H6 O50 0.998540 1_555
H7 O51 0.998540 1_555
H8 O52 0.996633 1_555
H9 O53 0.996633 1_555
H10 O54 0.996633 1_555
H11 O55 0.996633 1_555
H12 O52 0.994386 1_555
H13 O53 0.994386 1_555
H14 O54 0.994386 1_555
H15 O55 0.994386 1_555
H16 O56 0.995426 1_555
H17 O57 0.995426 1_555
H18 O58 0.995426 1_555
H19 O59 0.995426 1_555
H20 O57 1.000736 1_555
H21 O56 1.000736 1_555
H22 O59 1.000736 1_555
H23 O58 1.000736 1_555
H24 O60 0.996077 1_555
H25 O61 0.996077 1_555
H26 O62 0.996077 1_555
H27 O63 0.996077 1_555
H28 O61 0.999262 1_555
H29 O60 0.999262 1_555
H30 O63 0.999262 1_555
H31 O62 0.999262 1_555
H32 O64 0.981180 1_555
H33 O65 0.981180 1_555
H34 O66 0.981180 1_555
H35 O67 0.981180 1_555
H36 O67 0.989455 1_655
H37 O66 0.989455 1_555
H38 O65 0.989455 1_455
H39 O64 0.989455 1_555
H40 O68 0.980114 1_555
H41 O69 0.980114 1_555
H42 O70 0.980114 1_555
H43 O71 0.980114 1_555
H44 O71 0.989235 1_655
H45 O70 0.989235 1_555
H46 O69 0.989235 1_455
H47 O68 0.989235 1_555
H48 O72 0.980100 1_555
H49 O73 0.980100 1_555
H50 O74 0.980100 1_555
H51 O75 0.980100 1_555
H52 O75 0.989620 1_655
H53 O74 0.989620 1_555
H54 O73 0.989620 1_455
H55 O72 0.989620 1_555
H56 O76 0.983074 1_555
H57 O77 0.983074 1_555
H58 O78 0.983074 1_555
H59 O79 0.983074 1_555
H60 O79 0.987792 1_655
H61 O78 0.987792 1_555
H62 O77 0.987792 1_455
H63 O76 0.987792 1_555
