# generated using pymatgen
data_Li5VO3F2
_symmetry_space_group_name_H-M   'P 1'
_cell_length_a   3.92055906
_cell_length_b   18.52505974
_cell_length_c   6.06597906
_cell_angle_alpha   84.36761093
_cell_angle_beta   89.98110895
_cell_angle_gamma   90.00393534
_symmetry_Int_Tables_number   1
_chemical_formula_structural   Li5VO3F2
_chemical_formula_sum   'Li20 V4 O12 F8'
_cell_volume   438.43647783
_cell_formula_units_Z   4
loop_
 _symmetry_equiv_pos_site_id
 _symmetry_equiv_pos_as_xyz
  1  'x, y, z'
loop_
 _atom_site_type_symbol
 _atom_site_label
 _atom_site_symmetry_multiplicity
 _atom_site_fract_x
 _atom_site_fract_y
 _atom_site_fract_z
 _atom_site_occupancy
  Li  Li0  1  0.99824400  0.65898200  0.50598300  1
  Li  Li1  1  0.49850000  0.90910000  0.75606500  1
  Li  Li2  1  0.99849400  0.15900700  0.00626400  1
  Li  Li3  1  0.49876300  0.40915100  0.25720200  1
  Li  Li4  1  0.99791600  0.65450300  0.99992800  1
  Li  Li5  1  0.49816100  0.90450300  0.24906900  1
  Li  Li6  1  0.99813400  0.15451500  0.49964500  1
  Li  Li7  1  0.49823900  0.40451700  0.74988900  1
  Li  Li8  1  0.49820300  0.60805900  0.29372400  1
  Li  Li9  1  0.99849400  0.85813400  0.54328700  1
  Li  Li10  1  0.49848300  0.10811700  0.79356000  1
  Li  Li11  1  0.99870900  0.35819500  0.04391800  1
  Li  Li12  1  0.49785500  0.59228900  0.71781400  1
  Li  Li13  1  0.99805700  0.84225800  0.96818700  1
  Li  Li14  1  0.49803100  0.09224400  0.21873900  1
  Li  Li15  1  0.99824600  0.34227800  0.46920000  1
  Li  Li16  1  0.99949800  0.51763400  0.05714300  1
  Li  Li17  1  0.49934700  0.76728000  0.30728900  1
  Li  Li18  1  0.99948600  0.01771000  0.55691500  1
  Li  Li19  1  0.49957800  0.26769700  0.80741800  1
  V  V0  1  0.99789700  0.50036500  0.49262700  1
  V  V1  1  0.49804100  0.75057700  0.74290100  1
  V  V2  1  0.99797900  0.00058600  0.99281400  1
  V  V3  1  0.49803400  0.25037300  0.24329800  1
  O  O0  1  0.49818600  0.68223000  0.50365300  1
  O  O1  1  0.99842800  0.93250400  0.75401000  1
  O  O2  1  0.49842200  0.18243100  0.00478400  1
  O  O3  1  0.99868800  0.43237700  0.25487600  1
  O  O4  1  0.49795500  0.50053400  0.56759100  1
  O  O5  1  0.99793300  0.75061100  0.81728500  1
  O  O6  1  0.49796600  0.00070600  0.06811400  1
  O  O7  1  0.99804600  0.25060800  0.31927900  1
  O  O8  1  0.99810500  0.58574200  0.27529000  1
  O  O9  1  0.49834900  0.83579100  0.52672700  1
  O  O10  1  0.99834500  0.08591500  0.77626900  1
  O  O11  1  0.49854200  0.33580900  0.02655800  1
  F  F0  1  0.49781600  0.65396400  0.97993200  1
  F  F1  1  0.99801500  0.90350600  0.23079200  1
  F  F2  1  0.49801200  0.15313100  0.48097000  1
  F  F3  1  0.99807300  0.40346600  0.73143500  1
  F  F4  1  0.99781300  0.57563600  0.77732000  1
  F  F5  1  0.49800600  0.82609100  0.02774000  1
  F  F6  1  0.99797700  0.07590100  0.27723900  1
  F  F7  1  0.49815500  0.32592500  0.52782300  1
loop_
_geom_bond_atom_site_label_1
_geom_bond_atom_site_label_2
_geom_bond_distance
_geom_bond_site_symmetry_2
Li0 O0 2.006527 1_655
Li0 O0 2.007039 1_555
Li0 O8 2.042496 1_555
Li0 O5 2.660137 1_555
Li1 O1 2.007119 1_555
Li1 O1 2.007736 1_455
Li1 O9 2.037273 1_555
Li2 O2 2.007255 1_655
Li2 O2 2.007870 1_555
Li2 O10 2.037313 1_554
Li3 O3 2.006376 1_555
Li3 O3 2.007017 1_455
Li3 O11 2.043655 1_555
Li3 O4 2.652635 1_555
Li4 O8 1.998740 1_556
Li4 O5 2.002528 1_555
Li5 O6 1.999251 1_565
Li5 O9 2.009027 1_555
Li6 O7 1.995896 1_555
Li6 O10 2.003016 1_555
Li7 O4 2.000147 1_555
Li7 O11 2.004334 1_556
Li8 O0 1.962906 1_555
Li8 O8 2.008396 1_555
Li8 O8 2.009162 1_455
Li8 O4 2.465354 1_555
Li9 O1 1.969177 1_555
Li9 O9 2.007491 1_655
Li9 O9 2.008610 1_555
Li9 O5 2.465799 1_555
Li10 O2 1.970569 1_556
Li10 O10 2.007282 1_555
Li10 O10 2.008351 1_455
Li10 O6 2.466270 1_556
Li11 O3 1.967545 1_555
Li11 O11 2.007920 1_655
Li11 O11 2.009210 1_555
Li11 O7 2.471603 1_555
Li12 O4 2.005896 1_555
Li12 O0 2.009695 1_555
Li13 O5 2.006330 1_555
Li13 O1 2.014079 1_555
Li14 O6 2.003625 1_555
Li14 O2 2.012482 1_555
Li15 O7 2.003508 1_555
Li15 O3 2.012495 1_555
Li16 O3 1.887140 1_555
Li16 O8 1.915909 1_555
Li17 O0 1.879582 1_555
Li17 O9 1.927243 1_555
Li18 O1 1.884270 1_545
Li18 O10 1.922745 1_555
Li19 O2 1.886040 1_556
Li19 O11 1.920513 1_556
O0 V1 2.017417 1_555
O1 V2 2.011887 1_565
O2 V3 2.008703 1_555
O3 V0 2.005684 1_555
O4 V0 2.012035 1_555
O4 V0 2.012770 1_455
O5 V1 2.011285 1_555
O5 V1 2.011820 1_655
O6 V2 2.012746 1_554
O6 V2 2.012940 1_454
O7 V3 2.013643 1_655
O7 V3 2.014030 1_555
O8 V0 1.957112 1_555
O9 V1 1.950682 1_555
O10 V2 1.953600 1_555
O11 V3 1.955774 1_555
F0 Li4 1.963684 1_455
F0 Li4 1.964545 1_555
F0 Li8 2.007133 1_556
F0 Li12 2.046968 1_555
F0 V1 2.182993 1_555
F1 Li5 1.962995 1_555
F1 Li5 1.964208 1_655
F1 Li9 1.996744 1_555
F1 Li13 2.044421 1_554
F1 V2 2.192848 1_564
F2 Li6 1.963350 1_455
F2 Li6 1.964376 1_555
F2 Li10 1.995104 1_555
F2 Li14 2.038310 1_555
F2 V3 2.194046 1_555
F3 Li7 1.962993 1_555
F3 Li7 1.964364 1_655
F3 Li11 1.996066 1_556
F3 Li15 2.041848 1_555
F3 V0 2.193234 1_555
F4 Li16 1.917745 1_556
F4 Li12 2.011518 1_555
F4 Li12 2.011566 1_655
F4 Li4 2.084521 1_555
F4 Li0 2.143394 1_555
F4 V0 2.323652 1_555
F5 Li17 1.923508 1_555
F5 Li13 2.010328 1_454
F5 Li13 2.010446 1_554
F5 Li5 2.072518 1_555
F5 Li1 2.140807 1_554
F5 V1 2.327393 1_554
F6 Li18 1.918663 1_555
F6 Li14 2.009702 1_555
F6 Li14 2.009847 1_655
F6 Li6 2.080061 1_555
F6 Li2 2.138997 1_555
F6 V2 2.322897 1_554
F7 Li19 1.918581 1_555
F7 Li15 2.009707 1_455
F7 Li15 2.010133 1_555
F7 Li7 2.078271 1_555
F7 Li3 2.138933 1_555
F7 V3 2.326342 1_555
