# generated using pymatgen
data_Zn9Fe21O40
_symmetry_space_group_name_H-M   'P 1'
_cell_length_a   6.03843473
_cell_length_b   6.05913253
_cell_length_c   24.97704123
_cell_angle_alpha   90.09350023
_cell_angle_beta   96.72789761
_cell_angle_gamma   119.99884379
_symmetry_Int_Tables_number   1
_chemical_formula_structural   Zn9Fe21O40
_chemical_formula_sum   'Zn9 Fe21 O40'
_cell_volume   784.05005007
_cell_formula_units_Z   1
loop_
 _symmetry_equiv_pos_site_id
 _symmetry_equiv_pos_as_xyz
  1  'x, y, z'
loop_
 _atom_site_type_symbol
 _atom_site_label
 _atom_site_symmetry_multiplicity
 _atom_site_fract_x
 _atom_site_fract_y
 _atom_site_fract_z
 _atom_site_occupancy
  Zn  Zn0  1  0.25022800  0.87564000  0.12525100  1
  Zn  Zn1  1  0.74995500  0.87519200  0.12512600  1
  Zn  Zn2  1  0.04977200  0.27436000  0.32474900  1
  Zn  Zn3  1  0.55004500  0.27480800  0.32487400  1
  Zn  Zn4  1  0.85030100  0.67538600  0.52630600  1
  Zn  Zn5  1  0.74998600  0.87637600  0.62483300  1
  Zn  Zn6  1  0.65000000  0.07500000  0.72500000  1
  Zn  Zn7  1  0.44969900  0.47461400  0.92369400  1
  Zn  Zn8  1  0.55001400  0.27362400  0.82516700  1
  Fe  Fe0  1  0.35067400  0.67579600  0.02568700  1
  Fe  Fe1  1  0.00029900  0.00562200  0.00141900  1
  Fe  Fe2  1  0.24954800  0.37448500  0.12535000  1
  Fe  Fe3  1  0.05045200  0.77551500  0.32465000  1
  Fe  Fe4  1  0.69654000  0.34265300  0.04891500  1
  Fe  Fe5  1  0.49439300  0.74031800  0.24828300  1
  Fe  Fe6  1  0.15000000  0.07500000  0.22500000  1
  Fe  Fe7  1  0.60346000  0.80734700  0.40108500  1
  Fe  Fe8  1  0.80560700  0.40968200  0.20171700  1
  Fe  Fe9  1  0.35043800  0.67643600  0.52593000  1
  Fe  Fe10  1  0.10559700  0.54606300  0.65146500  1
  Fe  Fe11  1  0.29970100  0.14437800  0.44858100  1
  Fe  Fe12  1  0.94932600  0.47420400  0.42431300  1
  Fe  Fe13  1  0.19440300  0.60393700  0.79853500  1
  Fe  Fe14  1  0.39483300  0.20442800  0.59950400  1
  Fe  Fe15  1  0.84933900  0.17592900  0.52570600  1
  Fe  Fe16  1  0.15000000  0.07500000  0.72500000  1
  Fe  Fe17  1  0.45066100  0.97407100  0.92429400  1
  Fe  Fe18  1  0.65000000  0.57500000  0.72500000  1
  Fe  Fe19  1  0.90516700  0.94557200  0.85049600  1
  Fe  Fe20  1  0.94956200  0.47356400  0.92407000  1
  O  O0  1  0.06633700  0.52504300  0.07543300  1
  O  O1  1  0.53255000  0.52489900  0.07463300  1
  O  O2  1  0.33424900  0.92636600  0.27456500  1
  O  O3  1  0.44069900  0.71093300  0.17069900  1
  O  O4  1  0.05804600  0.03832900  0.07853500  1
  O  O5  1  0.96023100  0.74525700  0.17582800  1
  O  O6  1  0.23366300  0.62495700  0.37456700  1
  O  O7  1  0.43373100  0.22499200  0.17515800  1
  O  O8  1  0.86626900  0.92500800  0.27484200  1
  O  O9  1  0.14557200  0.80277000  0.47490100  1
  O  O10  1  0.53856400  0.00552600  0.07395300  1
  O  O11  1  0.33976900  0.40474300  0.27417200  1
  O  O12  1  0.14221800  0.33660600  0.47496100  1
  O  O13  1  0.05166300  0.51968300  0.57218300  1
  O  O14  1  0.24195400  0.11167100  0.37146500  1
  O  O15  1  0.76745000  0.62510100  0.37536700  1
  O  O16  1  0.64838200  0.83190400  0.47914000  1
  O  O17  1  0.96575100  0.22363400  0.17543500  1
  O  O18  1  0.85930100  0.43906700  0.27930100  1
  O  O19  1  0.34795300  0.93989400  0.77276100  1
  O  O20  1  0.76143600  0.14447400  0.37604700  1
  O  O21  1  0.54648300  0.53761600  0.57239500  1
  O  O22  1  0.03445800  0.02576800  0.57216400  1
  O  O23  1  0.66994000  0.32917100  0.47414100  1
  O  O24  1  0.46788400  0.72563800  0.67729600  1
  O  O25  1  0.94752700  0.73247800  0.67845400  1
  O  O26  1  0.85295400  0.91739200  0.77128500  1
  O  O27  1  0.24833700  0.63031700  0.87781700  1
  O  O28  1  0.15778200  0.81339400  0.97503900  1
  O  O29  1  0.54957000  0.02054200  0.57176200  1
  O  O30  1  0.35247300  0.41752200  0.77154600  1
  O  O31  1  0.44704600  0.23260800  0.67871500  1
  O  O32  1  0.15442700  0.34723000  0.97509900  1
  O  O33  1  0.83211600  0.42436200  0.77270400  1
  O  O34  1  0.63006000  0.82082900  0.97585900  1
  O  O35  1  0.95204700  0.21010600  0.67723900  1
  O  O36  1  0.75351700  0.61238400  0.87760500  1
  O  O37  1  0.26554200  0.12423200  0.87783600  1
  O  O38  1  0.75043000  0.12945800  0.87823800  1
  O  O39  1  0.65161800  0.31809600  0.97086000  1
loop_
_geom_bond_atom_site_label_1
_geom_bond_atom_site_label_2
_geom_bond_distance
_geom_bond_site_symmetry_2
Fe0 O10 2.033987 1_565
Fe0 O34 2.044593 1_554
Fe0 O1 2.056653 1_555
Fe0 O32 2.060596 1_554
Fe0 O0 2.064316 1_555
Fe0 O28 2.069142 1_554
Fe1 O4 1.908696 1_555
Fe1 O32 1.950411 1_554
Fe1 O34 1.954367 1_444
Fe1 O28 1.986688 1_544
Fe2 O3 2.025898 1_555
Fe2 O4 2.042852 1_555
Fe2 O17 2.068055 1_455
Fe2 O7 2.071700 1_555
Fe2 O0 2.073716 1_555
Fe2 O1 2.075860 1_555
Fe3 O18 2.025898 1_455
Fe3 O14 2.042852 1_565
Fe3 O2 2.068055 1_555
Fe3 O8 2.071700 1_455
Fe3 O6 2.073716 1_555
Fe3 O15 2.075860 1_455
Fe4 O10 1.915494 1_555
Fe4 O39 1.931677 1_554
Fe4 O0 1.956957 1_655
Fe4 O1 1.962842 1_555
Fe5 O11 1.916128 1_555
Fe5 O3 1.919870 1_555
Fe5 O8 1.967376 1_555
Fe5 O2 1.968051 1_555
Fe6 O5 2.046015 1_445
Fe6 O11 2.046015 1_555
Fe6 O8 2.063380 1_445
Fe6 O7 2.063380 1_555
Fe6 O17 2.065033 1_455
Fe6 O2 2.065033 1_545
Fe7 O20 1.915494 1_565
Fe7 O16 1.931677 1_555
Fe7 O6 1.956957 1_555
Fe7 O15 1.962842 1_555
Fe8 O5 1.916128 1_555
Fe8 O18 1.919870 1_555
Fe8 O7 1.967376 1_555
Fe8 O17 1.968051 1_555
Fe9 O21 2.032919 1_555
Fe9 O29 2.065472 1_565
Fe9 O13 2.066418 1_555
Fe9 O16 2.071599 1_555
Fe9 O9 2.078807 1_555
Fe9 O12 2.113975 1_555
Fe10 O24 1.916435 1_555
Fe10 O35 1.916927 1_455
Fe10 O13 1.961817 1_555
Fe10 O25 1.966630 1_455
Fe11 O14 1.908696 1_555
Fe11 O9 1.950411 1_545
Fe11 O23 1.954367 1_555
Fe11 O12 1.986688 1_555
Fe12 O20 2.033987 1_555
Fe12 O23 2.044593 1_555
Fe12 O15 2.056653 1_555
Fe12 O9 2.060596 1_655
Fe12 O6 2.064316 1_655
Fe12 O12 2.069142 1_655
Fe13 O33 1.916435 1_455
Fe13 O19 1.916927 1_555
Fe13 O27 1.961817 1_555
Fe13 O30 1.966630 1_555
Fe14 O22 1.915044 1_555
Fe14 O21 1.916718 1_555
Fe14 O29 1.945457 1_555
Fe14 O31 1.960040 1_555
Fe15 O22 2.034794 1_655
Fe15 O29 2.067256 1_555
Fe15 O13 2.072122 1_655
Fe15 O16 2.074220 1_545
Fe15 O23 2.092188 1_555
Fe15 O12 2.118845 1_655
Fe16 O35 2.041959 1_455
Fe16 O19 2.041959 1_545
Fe16 O31 2.059706 1_555
Fe16 O26 2.059706 1_445
Fe16 O25 2.067700 1_445
Fe16 O30 2.067700 1_555
Fe17 O37 2.034794 1_565
Fe17 O38 2.067256 1_565
Fe17 O27 2.072122 1_555
Fe17 O39 2.074220 1_565
Fe17 O34 2.092188 1_555
Fe17 O28 2.118845 1_555
Fe18 O33 2.040180 1_555
Fe18 O24 2.040180 1_555
Fe18 O31 2.064019 1_555
Fe18 O26 2.064019 1_555
Fe18 O25 2.066063 1_555
Fe18 O30 2.066063 1_555
Fe19 O37 1.915044 1_665
Fe19 O36 1.916718 1_555
Fe19 O38 1.945457 1_565
Fe19 O26 1.960040 1_555
Fe20 O36 2.032919 1_555
Fe20 O38 2.065472 1_555
Fe20 O27 2.066418 1_655
Fe20 O39 2.071599 1_555
Fe20 O32 2.078803 1_655
Fe20 O28 2.113975 1_655
O0 Zn0 2.145430 1_555
O1 Zn1 2.153117 1_555
O2 Zn3 2.142669 1_565
O3 Zn1 2.101603 1_555
O3 Zn0 2.110203 1_555
O4 Zn1 2.112929 1_445
O4 Zn0 2.123746 1_545
O5 Zn0 2.103478 1_655
O5 Zn1 2.112324 1_555
O6 Zn2 2.145430 1_555
O7 Zn0 2.141185 1_545
O8 Zn2 2.141185 1_665
O9 Zn4 2.141670 1_455
O10 Zn0 2.109087 1_545
O10 Zn1 2.125020 1_545
O11 Zn2 2.103478 1_555
O11 Zn3 2.112324 1_555
O13 Zn4 2.122655 1_455
O14 Zn3 2.112929 1_555
O14 Zn2 2.123746 1_555
O15 Zn3 2.153117 1_555
O16 Zn4 2.144115 1_555
O17 Zn1 2.142669 1_545
O18 Zn3 2.101603 1_555
O18 Zn2 2.110203 1_655
O19 Zn6 2.107074 1_565
O19 Zn8 2.107368 1_565
O20 Zn2 2.109087 1_655
O20 Zn3 2.125020 1_555
O21 Zn4 2.086696 1_555
O21 Zn5 2.128500 1_555
O22 Zn4 2.094892 1_445
O22 Zn5 2.116408 1_445
O23 Zn4 2.158324 1_555
O24 Zn5 2.103369 1_555
O24 Zn6 2.113517 1_565
O25 Zn5 2.155519 1_555
O26 Zn6 2.142962 1_565
O27 Zn7 2.122655 1_555
O29 Zn5 2.160954 1_545
O30 Zn8 2.155519 1_555
O31 Zn6 2.142962 1_555
O32 Zn7 2.141674 1_555
O33 Zn8 2.103369 1_555
O33 Zn6 2.113517 1_555
O34 Zn7 2.158324 1_555
O35 Zn6 2.107074 1_555
O35 Zn5 2.107368 1_545
O36 Zn7 2.086696 1_555
O36 Zn8 2.128500 1_555
O37 Zn7 2.094892 1_555
O37 Zn8 2.116408 1_555
O38 Zn8 2.160954 1_555
O39 Zn7 2.144115 1_555
