# generated using pymatgen
data_V2OF5
_symmetry_space_group_name_H-M   'P 1'
_cell_length_a   8.44599678
_cell_length_b   8.44599678
_cell_length_c   4.56238000
_cell_angle_alpha   90.00000000
_cell_angle_beta   90.00000000
_cell_angle_gamma   120.00000613
_symmetry_Int_Tables_number   1
_chemical_formula_structural   V2OF5
_chemical_formula_sum   'V6 O3 F15'
_cell_volume   281.85379255
_cell_formula_units_Z   3
loop_
 _symmetry_equiv_pos_site_id
 _symmetry_equiv_pos_as_xyz
  1  'x, y, z'
loop_
 _atom_site_type_symbol
 _atom_site_label
 _atom_site_symmetry_multiplicity
 _atom_site_fract_x
 _atom_site_fract_y
 _atom_site_fract_z
 _atom_site_occupancy
  V  V0  1  0.32418100  0.33070700  0.23474200  1
  V  V1  1  0.00652600  0.33070700  0.76525800  1
  V  V2  1  0.66929300  0.67581900  0.76525800  1
  V  V3  1  0.00652600  0.67581900  0.23474200  1
  V  V4  1  0.66929300  0.99347400  0.23474200  1
  V  V5  1  0.32418100  0.99347400  0.76525800  1
  O  O0  1  0.12792600  0.25585300  0.00000000  1
  O  O1  1  0.74414700  0.87207400  0.00000000  1
  O  O2  1  0.12792600  0.87207400  0.00000000  1
  F  F0  1  0.88188100  0.11811900  0.50000000  1
  F  F1  1  0.54131300  0.08262500  0.50000000  1
  F  F2  1  0.78439700  0.21560300  0.00000000  1
  F  F3  1  0.91737500  0.45868700  0.50000000  1
  F  F4  1  0.23623800  0.11811900  0.50000000  1
  F  F5  1  0.43120700  0.21560300  0.00000000  1
  F  F6  1  0.78439700  0.56879300  0.00000000  1
  F  F7  1  0.54131300  0.45868700  0.50000000  1
  F  F8  1  0.88188100  0.76376200  0.50000000  1
  F  F9  1  0.21629700  0.43259500  0.50000000  1
  F  F10  1  0.45161400  0.54838600  0.00000000  1
  F  F11  1  0.09677100  0.54838600  0.00000000  1
  F  F12  1  0.56740500  0.78370300  0.50000000  1
  F  F13  1  0.21629700  0.78370300  0.50000000  1
  F  F14  1  0.45161400  0.90322900  0.00000000  1
loop_
_geom_bond_atom_site_label_1
_geom_bond_atom_site_label_2
_geom_bond_distance
_geom_bond_site_symmetry_2
O0 V1 1.801741 1_554
O0 V0 1.801747 1_555
O1 V4 1.801741 1_555
O1 V2 1.801747 1_554
O2 V5 1.801746 1_554
O2 V3 1.801746 1_555
F0 V1 1.976496 1_655
F0 V4 1.976496 1_545
F1 V4 2.003459 1_545
F1 V5 2.003465 1_545
F2 V4 1.946274 1_545
F2 V1 1.946274 1_654
F3 V1 2.003459 1_655
F3 V3 2.003465 1_655
F4 V0 1.976496 1_555
F4 V5 1.976496 1_545
F5 V5 1.946274 1_544
F5 V0 1.946280 1_555
F6 V3 1.946274 1_655
F6 V2 1.946280 1_554
F7 V2 2.003465 1_555
F7 V0 2.003465 1_555
F8 V2 1.976496 1_555
F8 V3 1.976496 1_655
F9 V1 1.954354 1_555
F9 V0 1.954360 1_555
F10 V2 1.925297 1_554
F10 V0 1.925297 1_555
F11 V3 1.925292 1_555
F11 V1 1.925298 1_554
F12 V4 1.954354 1_555
F12 V2 1.954360 1_555
F13 V5 1.954355 1_555
F13 V3 1.954355 1_555
F14 V5 1.925292 1_554
F14 V4 1.925298 1_555
