# generated using pymatgen
data_Ni2P4C11S2(OF8)3
_symmetry_space_group_name_H-M   'P 1'
_cell_length_a   10.59161400
_cell_length_b   14.41495200
_cell_length_c   19.00835500
_cell_angle_alpha   90.00000000
_cell_angle_beta   90.00000000
_cell_angle_gamma   90.00000000
_symmetry_Int_Tables_number   1
_chemical_formula_structural   Ni2P4C11S2(OF8)3
_chemical_formula_sum   'Ni8 P16 C44 S8 O12 F96'
_cell_volume   2902.15016225
_cell_formula_units_Z   4
loop_
 _symmetry_equiv_pos_site_id
 _symmetry_equiv_pos_as_xyz
  1  'x, y, z'
loop_
 _atom_site_type_symbol
 _atom_site_label
 _atom_site_symmetry_multiplicity
 _atom_site_fract_x
 _atom_site_fract_y
 _atom_site_fract_z
 _atom_site_occupancy
  Ni  Ni0  1  0.00847300  0.20228400  0.18198100  1
  Ni  Ni1  1  0.00847300  0.79771600  0.68198100  1
  Ni  Ni2  1  0.99152700  0.20228400  0.31801900  1
  Ni  Ni3  1  0.49152700  0.70228400  0.18198100  1
  Ni  Ni4  1  0.50847300  0.29771600  0.81801900  1
  Ni  Ni5  1  0.99152700  0.79771600  0.81801900  1
  Ni  Ni6  1  0.49152700  0.29771600  0.68198100  1
  Ni  Ni7  1  0.50847300  0.70228400  0.31801900  1
  P  P0  1  0.13933600  0.90216300  0.83660200  1
  P  P1  1  0.29941600  0.35188800  0.68019200  1
  P  P2  1  0.20058400  0.85188800  0.68019200  1
  P  P3  1  0.79941600  0.14811200  0.31980800  1
  P  P4  1  0.36066400  0.40216300  0.83660200  1
  P  P5  1  0.20058400  0.14811200  0.18019200  1
  P  P6  1  0.13933600  0.09783700  0.33660200  1
  P  P7  1  0.86066400  0.90216300  0.66339800  1
  P  P8  1  0.70058400  0.35188800  0.81980800  1
  P  P9  1  0.79941600  0.85188800  0.81980800  1
  P  P10  1  0.63933600  0.40216300  0.66339800  1
  P  P11  1  0.29941600  0.64811200  0.18019200  1
  P  P12  1  0.86066400  0.09783700  0.16339800  1
  P  P13  1  0.70058400  0.64811200  0.31980800  1
  P  P14  1  0.36066400  0.59783700  0.33660200  1
  P  P15  1  0.63933600  0.59783700  0.16339800  1
  C  C0  1  0.82335000  0.74645100  0.32388100  1
  C  C1  1  0.00000000  0.69919600  0.75000000  1
  C  C2  1  0.25009100  0.36990900  0.91320600  1
  C  C3  1  0.82335000  0.25354900  0.82388100  1
  C  C4  1  0.32335000  0.24645100  0.17611900  1
  C  C5  1  0.89298500  0.97310800  0.13280800  1
  C  C6  1  0.17665000  0.25354900  0.67611900  1
  C  C7  1  0.50231500  0.22299600  0.60703700  1
  C  C8  1  0.74990900  0.63009100  0.08679400  1
  C  C9  1  0.49768500  0.22299600  0.89296300  1
  C  C10  1  0.23499300  0.42225500  0.60195400  1
  C  C11  1  0.00231500  0.72299600  0.89296300  1
  C  C12  1  0.67665000  0.75354900  0.82388100  1
  C  C13  1  0.39298500  0.47310800  0.36719200  1
  C  C14  1  0.76500700  0.57774500  0.39804600  1
  C  C15  1  0.73499300  0.92225500  0.89804600  1
  C  C16  1  0.67665000  0.24645100  0.32388100  1
  C  C17  1  0.32335000  0.75354900  0.67611900  1
  C  C18  1  0.74990900  0.36990900  0.58679400  1
  C  C19  1  0.50000000  0.19919600  0.75000000  1
  C  C20  1  0.89298500  0.02689200  0.63280800  1
  C  C21  1  0.73499300  0.07774500  0.39804600  1
  C  C22  1  0.75009100  0.13009100  0.08679400  1
  C  C23  1  0.60701500  0.47310800  0.13280800  1
  C  C24  1  0.49768500  0.77700400  0.39296300  1
  C  C25  1  0.39298500  0.52689200  0.86719200  1
  C  C26  1  0.10701500  0.02689200  0.86719200  1
  C  C27  1  0.50000000  0.80080400  0.25000000  1
  C  C28  1  0.23499300  0.57774500  0.10195400  1
  C  C29  1  0.99768500  0.72299600  0.60703700  1
  C  C30  1  0.00000000  0.30080400  0.25000000  1
  C  C31  1  0.75009100  0.86990900  0.58679400  1
  C  C32  1  0.50231500  0.77700400  0.10703700  1
  C  C33  1  0.24990900  0.86990900  0.91320600  1
  C  C34  1  0.24990900  0.13009100  0.41320600  1
  C  C35  1  0.26500700  0.07774500  0.10195400  1
  C  C36  1  0.10701500  0.97310800  0.36719200  1
  C  C37  1  0.25009100  0.63009100  0.41320600  1
  C  C38  1  0.17665000  0.74645100  0.17611900  1
  C  C39  1  0.60701500  0.52689200  0.63280800  1
  C  C40  1  0.76500700  0.42225500  0.89804600  1
  C  C41  1  0.99768500  0.27700400  0.10703700  1
  C  C42  1  0.26500700  0.92225500  0.60195400  1
  C  C43  1  0.00231500  0.27700400  0.39296300  1
  S  S0  1  0.21968600  0.56592000  0.26098500  1
  S  S1  1  0.21968600  0.43408000  0.76098500  1
  S  S2  1  0.71968600  0.93408000  0.73901500  1
  S  S3  1  0.78031400  0.43408000  0.73901500  1
  S  S4  1  0.28031400  0.06592000  0.26098500  1
  S  S5  1  0.28031400  0.93408000  0.76098500  1
  S  S6  1  0.71968600  0.06592000  0.23901500  1
  S  S7  1  0.78031400  0.56592000  0.23901500  1
  O  O0  1  0.49542600  0.82553600  0.44141100  1
  O  O1  1  0.00000000  0.61748900  0.75000000  1
  O  O2  1  0.50000000  0.11748900  0.75000000  1
  O  O3  1  0.50457400  0.82553600  0.05858900  1
  O  O4  1  0.99542600  0.67446400  0.55858900  1
  O  O5  1  0.00457400  0.32553600  0.44141100  1
  O  O6  1  0.50000000  0.88251100  0.25000000  1
  O  O7  1  0.50457400  0.17446400  0.55858900  1
  O  O8  1  0.00457400  0.67446400  0.94141100  1
  O  O9  1  0.99542600  0.32553600  0.05858900  1
  O  O10  1  0.00000000  0.38251100  0.25000000  1
  O  O11  1  0.49542600  0.17446400  0.94141100  1
  F  F0  1  0.55630300  0.52618400  0.56716700  1
  F  F1  1  0.21180600  0.08129600  0.86859200  1
  F  F2  1  0.11016100  0.55716200  0.10603900  1
  F  F3  1  0.25428600  0.62681400  0.04172500  1
  F  F4  1  0.38983900  0.05716200  0.10603900  1
  F  F5  1  0.19592700  0.71332400  0.39834700  1
  F  F6  1  0.18176400  0.13993500  0.47346000  1
  F  F7  1  0.25428600  0.37318600  0.54172500  1
  F  F8  1  0.21180600  0.91870400  0.36859200  1
  F  F9  1  0.71180600  0.58129600  0.63140800  1
  F  F10  1  0.55630300  0.47381600  0.06716700  1
  F  F11  1  0.20105200  0.99640300  0.09718900  1
  F  F12  1  0.70105200  0.49640300  0.40281100  1
  F  F13  1  0.38983900  0.94283800  0.60603900  1
  F  F14  1  0.20105200  0.00359700  0.59718900  1
  F  F15  1  0.55462000  0.21815000  0.32415500  1
  F  F16  1  0.61016100  0.94283800  0.89396100  1
  F  F17  1  0.69337400  0.69773100  0.76679100  1
  F  F18  1  0.97718000  0.93307500  0.17741200  1
  F  F19  1  0.94369700  0.02618400  0.56716700  1
  F  F20  1  0.19337400  0.19773100  0.73320900  1
  F  F21  1  0.30662600  0.30226900  0.23320900  1
  F  F22  1  0.80407300  0.71332400  0.10165300  1
  F  F23  1  0.05462000  0.28185000  0.67584500  1
  F  F24  1  0.78819400  0.08129600  0.63140800  1
  F  F25  1  0.05462000  0.71815000  0.17584500  1
  F  F26  1  0.31823600  0.63993500  0.47346000  1
  F  F27  1  0.94369700  0.97381600  0.06716700  1
  F  F28  1  0.29894800  0.49640300  0.09718900  1
  F  F29  1  0.55462000  0.78185000  0.82415500  1
  F  F30  1  0.74571400  0.37318600  0.95827500  1
  F  F31  1  0.78819400  0.91870400  0.13140800  1
  F  F32  1  0.84383400  0.56814900  0.07435700  1
  F  F33  1  0.75428600  0.87318600  0.95827500  1
  F  F34  1  0.24571400  0.12681400  0.04172500  1
  F  F35  1  0.05630300  0.02618400  0.93283300  1
  F  F36  1  0.68176400  0.63993500  0.02654000  1
  F  F37  1  0.18176400  0.86006500  0.97346000  1
  F  F38  1  0.69337400  0.30226900  0.26679100  1
  F  F39  1  0.65616600  0.93185100  0.57435700  1
  F  F40  1  0.70105200  0.50359700  0.90281100  1
  F  F41  1  0.84383400  0.43185100  0.57435700  1
  F  F42  1  0.79894800  0.99640300  0.40281100  1
  F  F43  1  0.74571400  0.62681400  0.45827500  1
  F  F44  1  0.80662600  0.80226900  0.26679100  1
  F  F45  1  0.52282000  0.56692500  0.67741200  1
  F  F46  1  0.19337400  0.80226900  0.23320900  1
  F  F47  1  0.44369700  0.47381600  0.43283300  1
  F  F48  1  0.80350100  0.20174600  0.88269400  1
  F  F49  1  0.69649900  0.70174600  0.88269400  1
  F  F50  1  0.02282000  0.93307500  0.32258800  1
  F  F51  1  0.94538000  0.71815000  0.32415500  1
  F  F52  1  0.30350100  0.70174600  0.61730600  1
  F  F53  1  0.97718000  0.06692500  0.67741200  1
  F  F54  1  0.81823600  0.86006500  0.52654000  1
  F  F55  1  0.30350100  0.29825400  0.11730600  1
  F  F56  1  0.47718000  0.43307500  0.32258800  1
  F  F57  1  0.80350100  0.79825400  0.38269400  1
  F  F58  1  0.02282000  0.06692500  0.82258800  1
  F  F59  1  0.19649900  0.79825400  0.11730600  1
  F  F60  1  0.47718000  0.56692500  0.82258800  1
  F  F61  1  0.30407300  0.21332400  0.39834700  1
  F  F62  1  0.79894800  0.00359700  0.90281100  1
  F  F63  1  0.19649900  0.20174600  0.61730600  1
  F  F64  1  0.44538000  0.78185000  0.67584500  1
  F  F65  1  0.31823600  0.36006500  0.97346000  1
  F  F66  1  0.05630300  0.97381600  0.43283300  1
  F  F67  1  0.29894800  0.50359700  0.59718900  1
  F  F68  1  0.71180600  0.41870400  0.13140800  1
  F  F69  1  0.11016100  0.44283800  0.60603900  1
  F  F70  1  0.34383400  0.06814900  0.42564300  1
  F  F71  1  0.69592700  0.21332400  0.10165300  1
  F  F72  1  0.15616600  0.56814900  0.42564300  1
  F  F73  1  0.68176400  0.36006500  0.52654000  1
  F  F74  1  0.94538000  0.28185000  0.82415500  1
  F  F75  1  0.61016100  0.05716200  0.39396100  1
  F  F76  1  0.65616600  0.06814900  0.07435700  1
  F  F77  1  0.88983900  0.55716200  0.39396100  1
  F  F78  1  0.44369700  0.52618400  0.93283300  1
  F  F79  1  0.69649900  0.29825400  0.38269400  1
  F  F80  1  0.88983900  0.44283800  0.89396100  1
  F  F81  1  0.34383400  0.93185100  0.92564300  1
  F  F82  1  0.81823600  0.13993500  0.02654000  1
  F  F83  1  0.28819400  0.58129600  0.86859200  1
  F  F84  1  0.24571400  0.87318600  0.54172500  1
  F  F85  1  0.30407300  0.78667600  0.89834700  1
  F  F86  1  0.19592700  0.28667600  0.89834700  1
  F  F87  1  0.30662600  0.69773100  0.73320900  1
  F  F88  1  0.15616600  0.43185100  0.92564300  1
  F  F89  1  0.80407300  0.28667600  0.60165300  1
  F  F90  1  0.69592700  0.78667600  0.60165300  1
  F  F91  1  0.75428600  0.12681400  0.45827500  1
  F  F92  1  0.44538000  0.21815000  0.17584500  1
  F  F93  1  0.80662600  0.19773100  0.76679100  1
  F  F94  1  0.28819400  0.41870400  0.36859200  1
  F  F95  1  0.52282000  0.43307500  0.17741200  1
loop_
_geom_bond_atom_site_label_1
_geom_bond_atom_site_label_2
_geom_bond_distance
_geom_bond_site_symmetry_2
Ni0 P5 2.179727 1_555
Ni0 P12 2.200569 1_455
Ni1 P2 2.179727 1_555
Ni1 P7 2.200569 1_455
Ni2 P3 2.179727 1_555
Ni2 P6 2.200569 1_655
Ni3 P11 2.179727 1_555
Ni3 P15 2.200569 1_555
Ni4 P8 2.179727 1_555
Ni4 P4 2.200569 1_555
Ni5 P9 2.179727 1_555
Ni5 P0 2.200569 1_655
Ni6 P1 2.179727 1_555
Ni6 P10 2.200569 1_555
Ni7 P13 2.179727 1_555
Ni7 P14 2.200569 1_555
P0 S5 2.123032 1_555
P1 S1 2.115507 1_555
P2 S5 2.115507 1_555
P3 S6 2.115507 1_555
P4 S1 2.123032 1_555
P5 S4 2.115507 1_555
P6 S4 2.123032 1_555
P7 S2 2.123032 1_555
P8 S3 2.115507 1_555
P9 S2 2.115507 1_555
P10 S3 2.123032 1_555
P11 S0 2.115507 1_555
P12 S6 2.123032 1_555
P13 S7 2.115507 1_555
P14 S0 2.123032 1_555
P15 S7 2.123032 1_555
C0 F51 1.355359 1_555
C0 F57 1.360736 1_555
C0 F44 1.362502 1_555
C0 P13 1.925150 1_555
C1 O1 1.177802 1_555
C1 Ni5 1.922649 1_455
C1 Ni1 1.922649 1_555
C2 F88 1.357499 1_555
C2 F86 1.359562 1_555
C2 F65 1.361198 1_555
C2 P4 1.925624 1_555
C3 F74 1.355359 1_555
C3 F48 1.360736 1_555
C3 F93 1.362502 1_555
C3 P8 1.925150 1_555
C4 F92 1.355359 1_555
C4 F55 1.360736 1_555
C4 F21 1.362502 1_555
C4 P5 1.925150 1_555
C5 F27 1.358465 1_555
C5 F18 1.359080 1_555
C5 F31 1.359271 1_555
C5 P12 1.920407 1_565
C6 F23 1.355359 1_555
C6 F63 1.360736 1_555
C6 F20 1.362502 1_555
C6 P1 1.925150 1_555
C7 O7 1.156755 1_555
C7 Ni6 1.789566 1_555
C8 F32 1.357499 1_555
C8 F22 1.359562 1_555
C8 F36 1.361198 1_555
C8 P15 1.925624 1_555
C9 O11 1.156755 1_555
C9 Ni4 1.789566 1_555
C10 F67 1.357169 1_555
C10 F69 1.357277 1_555
C10 F7 1.361161 1_555
C10 P1 1.925140 1_555
C11 O8 1.156755 1_555
C11 Ni5 1.789566 1_455
C12 F29 1.355359 1_555
C12 F49 1.360736 1_555
C12 F17 1.362502 1_555
C12 P9 1.925150 1_555
C13 F47 1.358465 1_555
C13 F56 1.359080 1_555
C13 F94 1.359271 1_555
C13 P14 1.920407 1_555
C14 F12 1.357169 1_555
C14 F77 1.357277 1_555
C14 F43 1.361161 1_555
C14 P13 1.925140 1_555
C15 F62 1.357169 1_565
C15 F16 1.357277 1_555
C15 F33 1.361161 1_555
C15 P9 1.925140 1_555
C16 F15 1.355359 1_555
C16 F79 1.360736 1_555
C16 F38 1.362502 1_555
C16 P3 1.925150 1_555
C17 F64 1.355359 1_555
C17 F52 1.360736 1_555
C17 F87 1.362502 1_555
C17 P2 1.925150 1_555
C18 F41 1.357499 1_555
C18 F89 1.359562 1_555
C18 F73 1.361198 1_555
C18 P10 1.925624 1_555
C19 O2 1.177802 1_555
C19 Ni4 1.922649 1_555
C19 Ni6 1.922649 1_555
C20 F19 1.358465 1_555
C20 F53 1.359080 1_555
C20 F24 1.359271 1_555
C20 P7 1.920407 1_545
C21 F42 1.357169 1_545
C21 F75 1.357277 1_555
C21 F91 1.361161 1_555
C21 P3 1.925140 1_555
C22 F76 1.357499 1_555
C22 F71 1.359562 1_555
C22 F82 1.361198 1_555
C22 P12 1.925624 1_555
C23 F10 1.358465 1_555
C23 F95 1.359080 1_555
C23 F68 1.359271 1_555
C23 P15 1.920407 1_555
C24 O0 1.156755 1_555
C24 Ni7 1.789566 1_555
C25 F78 1.358465 1_555
C25 F60 1.359080 1_555
C25 F83 1.359271 1_555
C25 P4 1.920407 1_555
C26 F35 1.358465 1_555
C26 F58 1.359080 1_555
C26 F1 1.359271 1_555
C26 P0 1.920407 1_545
C27 O6 1.177802 1_555
C27 Ni7 1.922649 1_555
C27 Ni3 1.922649 1_555
C28 F28 1.357169 1_555
C28 F2 1.357277 1_555
C28 F3 1.361161 1_555
C28 P11 1.925140 1_555
C29 O4 1.156755 1_555
C29 Ni1 1.789566 1_655
C30 O10 1.177802 1_555
C30 Ni0 1.922649 1_555
C30 Ni2 1.922649 1_455
C31 F39 1.357499 1_555
C31 F90 1.359562 1_555
C31 F54 1.361198 1_555
C31 P7 1.925624 1_555
C32 O3 1.156755 1_555
C32 Ni3 1.789566 1_555
C33 F81 1.357499 1_555
C33 F85 1.359562 1_555
C33 F37 1.361198 1_555
C33 P0 1.925624 1_555
C34 F70 1.357499 1_555
C34 F61 1.359562 1_555
C34 F6 1.361198 1_555
C34 P6 1.925624 1_555
C35 F11 1.357169 1_545
C35 F4 1.357277 1_555
C35 F34 1.361161 1_555
C35 P5 1.925140 1_555
C36 F66 1.358465 1_555
C36 F50 1.359080 1_555
C36 F8 1.359271 1_555
C36 P6 1.920407 1_565
C37 F72 1.357499 1_555
C37 F5 1.359562 1_555
C37 F26 1.361198 1_555
C37 P14 1.925624 1_555
C38 F25 1.355359 1_555
C38 F59 1.360736 1_555
C38 F46 1.362502 1_555
C38 P11 1.925150 1_555
C39 F0 1.358465 1_555
C39 F45 1.359080 1_555
C39 F9 1.359271 1_555
C39 P10 1.920407 1_555
C40 F40 1.357169 1_555
C40 F80 1.357277 1_555
C40 F30 1.361161 1_555
C40 P8 1.925140 1_555
C41 O9 1.156755 1_555
C41 Ni0 1.789566 1_655
C42 F14 1.357169 1_565
C42 F13 1.357277 1_555
C42 F84 1.361161 1_555
C42 P2 1.925140 1_555
C43 O5 1.156755 1_555
C43 Ni2 1.789566 1_455
