# generated using pymatgen
data_LaSiNi
_symmetry_space_group_name_H-M   'P 1'
_cell_length_a   4.18516838
_cell_length_b   4.18516418
_cell_length_c   7.58670223
_cell_angle_alpha   106.00752920
_cell_angle_beta   106.00739983
_cell_angle_gamma   90.00184486
_symmetry_Int_Tables_number   1
_chemical_formula_structural   LaSiNi
_chemical_formula_sum   'La2 Si2 Ni2'
_cell_volume   122.36355796
_cell_formula_units_Z   2
loop_
 _symmetry_equiv_pos_site_id
 _symmetry_equiv_pos_as_xyz
  1  'x, y, z'
loop_
 _atom_site_type_symbol
 _atom_site_label
 _atom_site_symmetry_multiplicity
 _atom_site_fract_x
 _atom_site_fract_y
 _atom_site_fract_z
 _atom_site_occupancy
  La  La0  1  0.74816675  0.24815241  0.49653731  1
  La  La1  1  0.99812540  0.99815456  0.99650466  1
  Si  Si0  1  0.16825096  0.66828871  0.33656773  1
  Si  Si1  1  0.41828962  0.41824523  0.83656240  1
  Ni  Ni0  1  0.58770429  0.58745510  0.17490955  1
  Ni  Ni1  1  0.33746297  0.83770399  0.67491835  1
loop_
_geom_bond_atom_site_label_1
_geom_bond_atom_site_label_2
_geom_bond_distance
_geom_bond_site_symmetry_2
La0 Ni0 3.070154 1_545
La0 Ni0 3.070653 1_555
La0 Si0 3.162849 1_545
La0 Si0 3.163237 1_645
La0 Si0 3.163529 1_555
La0 Si0 3.163738 1_655
La0 Si1 3.165274 1_555
La0 Si1 3.166063 1_655
La0 Ni1 3.209626 1_545
La0 Ni1 3.210383 1_645
La0 Ni1 3.211772 1_555
La0 Ni1 3.212352 1_655
La1 Ni1 3.069907 1_555
La1 Ni1 3.070479 1_655
La1 Si1 3.162763 1_555
La1 Si1 3.163114 1_565
La1 Si1 3.163517 1_655
La1 Si1 3.163690 1_665
La1 Si0 3.165497 1_656
La1 Si0 3.166235 1_666
La1 Ni0 3.209670 1_556
La1 Ni0 3.210381 1_566
La1 Ni0 3.211903 1_656
La1 Ni0 3.212438 1_666
Ni0 Si1 2.363683 1_554
Ni0 Si0 2.376897 1_655
Ni0 Si0 2.378864 1_555
Ni1 Si0 2.363707 1_555
Ni1 Si1 2.376851 1_565
Ni1 Si1 2.378812 1_555
