# generated using pymatgen
data_Ti3Cu2Sb(PO4)6
_symmetry_space_group_name_H-M   'P 1'
_cell_length_a   8.72778666
_cell_length_b   8.72778666
_cell_length_c   8.72778638
_cell_angle_alpha   59.95085010
_cell_angle_beta   59.95085010
_cell_angle_gamma   59.95085024
_symmetry_Int_Tables_number   1
_chemical_formula_structural   Ti3Cu2Sb(PO4)6
_chemical_formula_sum   'Ti3 Cu2 Sb1 P6 O24'
_cell_volume   469.58366252
_cell_formula_units_Z   1
loop_
 _symmetry_equiv_pos_site_id
 _symmetry_equiv_pos_as_xyz
  1  'x, y, z'
loop_
 _atom_site_type_symbol
 _atom_site_label
 _atom_site_symmetry_multiplicity
 _atom_site_fract_x
 _atom_site_fract_y
 _atom_site_fract_z
 _atom_site_occupancy
  Ti  Ti0  1  0.14205000  0.14205000  0.14205000  1
  Ti  Ti1  1  0.35675400  0.35675400  0.35675400  1
  Ti  Ti2  1  0.64166900  0.64166900  0.64166900  1
  Cu  Cu0  1  0.00594400  0.00594400  0.00594400  1
  Cu  Cu1  1  0.49985700  0.49985700  0.49985700  1
  Sb  Sb0  1  0.85722800  0.85722800  0.85722800  1
  P  P0  1  0.45316800  0.74787800  0.04337800  1
  P  P1  1  0.74787800  0.04337800  0.45316800  1
  P  P2  1  0.96127800  0.53564700  0.25436700  1
  P  P3  1  0.25436700  0.96127800  0.53564700  1
  P  P4  1  0.53564700  0.25436700  0.96127800  1
  P  P5  1  0.04337800  0.45316800  0.74787800  1
  O  O0  1  0.49020100  0.31190300  0.12249400  1
  O  O1  1  0.12249400  0.49020100  0.31190300  1
  O  O2  1  0.26514200  0.91496000  0.06014800  1
  O  O3  1  0.31190300  0.12249400  0.49020100  1
  O  O4  1  0.60625800  0.80047500  0.02424800  1
  O  O5  1  0.43091800  0.58169400  0.22992100  1
  O  O6  1  0.91496000  0.06014800  0.26514200  1
  O  O7  1  0.58169400  0.22992100  0.43091800  1
  O  O8  1  0.00037700  0.37592300  0.19555700  1
  O  O9  1  0.22992100  0.43091800  0.58169400  1
  O  O10  1  0.95036800  0.72798900  0.09251100  1
  O  O11  1  0.19555700  0.00037700  0.37592300  1
  O  O12  1  0.80047500  0.02424800  0.60625800  1
  O  O13  1  0.06014800  0.26514200  0.91496000  1
  O  O14  1  0.77179500  0.55479900  0.41919600  1
  O  O15  1  0.02424800  0.60625800  0.80047500  1
  O  O16  1  0.41919600  0.77179500  0.55479900  1
  O  O17  1  0.09251100  0.95036800  0.72798900  1
  O  O18  1  0.55479900  0.41919600  0.77179500  1
  O  O19  1  0.37592300  0.19555700  0.00037700  1
  O  O20  1  0.69755000  0.87441800  0.50193500  1
  O  O21  1  0.72798900  0.09251100  0.95036800  1
  O  O22  1  0.87441800  0.50193500  0.69755000  1
  O  O23  1  0.50193500  0.69755000  0.87441800  1
loop_
_geom_bond_atom_site_label_1
_geom_bond_atom_site_label_2
_geom_bond_distance
_geom_bond_site_symmetry_2
Cu0 O6 2.206478 1_455
Cu0 O2 2.206478 1_545
Cu0 O13 2.206478 1_554
Cu0 O17 2.380566 1_544
Cu0 O21 2.380566 1_454
Cu0 O10 2.380566 1_445
Cu1 O18 2.342439 1_555
Cu1 O16 2.342439 1_555
Cu1 O14 2.342439 1_555
Cu1 O5 2.393043 1_555
Cu1 O7 2.393043 1_555
Cu1 O9 2.393044 1_555
O0 P4 1.529223 1_554
O0 Ti1 1.910528 1_555
O1 P2 1.529223 1_455
O1 Ti1 1.910528 1_555
O2 P0 1.554850 1_555
O2 Ti0 2.027502 1_565
O3 P3 1.529223 1_545
O3 Ti1 1.910528 1_555
O4 P0 1.529041 1_555
O4 Sb0 2.081806 1_554
O5 P0 1.546821 1_555
O5 Ti1 1.969069 1_555
O6 P1 1.554850 1_555
O6 Ti0 2.027502 1_655
O7 P1 1.546821 1_555
O7 Ti1 1.969069 1_555
O8 P2 1.545318 1_455
O8 Ti0 1.939627 1_555
O9 P5 1.546821 1_555
O9 Ti1 1.969069 1_555
O10 P2 1.556407 1_555
O10 Sb0 2.140970 1_554
O11 P3 1.545318 1_545
O11 Ti0 1.939627 1_555
O12 P1 1.529041 1_555
O12 Sb0 2.081806 1_545
O13 P5 1.554850 1_555
O13 Ti0 2.027502 1_556
O14 P2 1.553635 1_555
O14 Ti2 2.009571 1_555
O15 P5 1.529041 1_555
O15 Sb0 2.081806 1_455
O16 P3 1.553635 1_555
O16 Ti2 2.009571 1_555
O17 P3 1.556407 1_555
O17 Sb0 2.140970 1_455
O18 P4 1.553635 1_555
O18 Ti2 2.009571 1_555
O19 P4 1.545318 1_554
O19 Ti0 1.939627 1_555
O20 P1 1.543234 1_565
O20 Ti2 1.940919 1_555
O21 P4 1.556407 1_555
O21 Sb0 2.140970 1_545
O22 P5 1.543234 1_655
O22 Ti2 1.940919 1_555
O23 P0 1.543233 1_556
O23 Ti2 1.940919 1_555
