# generated using pymatgen
data_Li2MnSiO4
_symmetry_space_group_name_H-M   'P 1'
_cell_length_a   5.08684800
_cell_length_b   6.40513400
_cell_length_c   10.89629900
_cell_angle_alpha   90.00000000
_cell_angle_beta   90.00000000
_cell_angle_gamma   90.00000000
_symmetry_Int_Tables_number   1
_chemical_formula_structural   Li2MnSiO4
_chemical_formula_sum   'Li8 Mn4 Si4 O16'
_cell_volume   355.02259377
_cell_formula_units_Z   4
loop_
 _symmetry_equiv_pos_site_id
 _symmetry_equiv_pos_as_xyz
  1  'x, y, z'
loop_
 _atom_site_type_symbol
 _atom_site_label
 _atom_site_symmetry_multiplicity
 _atom_site_fract_x
 _atom_site_fract_y
 _atom_site_fract_z
 _atom_site_occupancy
  Li  Li0  1  0.20670500  0.99713600  0.66751100  1
  Li  Li1  1  0.29329500  0.99713600  0.16751100  1
  Li  Li2  1  0.20670500  0.50286400  0.66751100  1
  Li  Li3  1  0.29329500  0.50286400  0.16751100  1
  Li  Li4  1  0.70670500  0.49713600  0.83248900  1
  Li  Li5  1  0.79329500  0.49713600  0.33248900  1
  Li  Li6  1  0.79329500  0.00286400  0.33248900  1
  Li  Li7  1  0.70670500  0.00286400  0.83248900  1
  Mn  Mn0  1  0.79105600  0.25000000  0.57882600  1
  Mn  Mn1  1  0.70894400  0.25000000  0.07882600  1
  Mn  Mn2  1  0.29105600  0.75000000  0.92117400  1
  Mn  Mn3  1  0.20894400  0.75000000  0.42117400  1
  Si  Si0  1  0.19461100  0.25000000  0.90935800  1
  Si  Si1  1  0.30538900  0.25000000  0.40935800  1
  Si  Si2  1  0.69461100  0.75000000  0.59064200  1
  Si  Si3  1  0.80538900  0.75000000  0.09064200  1
  O  O0  1  0.30639800  0.04047600  0.83792900  1
  O  O1  1  0.19360200  0.04047600  0.33792900  1
  O  O2  1  0.86933600  0.25000000  0.90421600  1
  O  O3  1  0.21427900  0.25000000  0.55536300  1
  O  O4  1  0.28572100  0.25000000  0.05536300  1
  O  O5  1  0.63066400  0.25000000  0.40421600  1
  O  O6  1  0.30639800  0.45952400  0.83792900  1
  O  O7  1  0.19360200  0.45952400  0.33792900  1
  O  O8  1  0.80639800  0.54047600  0.66207100  1
  O  O9  1  0.69360200  0.54047600  0.16207100  1
  O  O10  1  0.71427900  0.75000000  0.94463700  1
  O  O11  1  0.36933600  0.75000000  0.59578400  1
  O  O12  1  0.78572100  0.75000000  0.44463700  1
  O  O13  1  0.13066400  0.75000000  0.09578400  1
  O  O14  1  0.80639800  0.95952400  0.66207100  1
  O  O15  1  0.69360200  0.95952400  0.16207100  1
loop_
_geom_bond_atom_site_label_1
_geom_bond_atom_site_label_2
_geom_bond_distance
_geom_bond_site_symmetry_2
Li0 O0 1.944841 1_565
Li0 O11 1.949595 1_555
Li0 O3 2.029275 1_565
Li0 O14 2.051359 1_455
Li1 O1 1.944841 1_565
Li1 O13 1.949595 1_555
Li1 O4 2.029275 1_565
Li1 O15 2.051359 1_555
Li2 O6 1.944841 1_555
Li2 O11 1.949595 1_555
Li2 O3 2.029275 1_555
Li2 O8 2.051359 1_455
Li3 O7 1.944841 1_555
Li3 O13 1.949595 1_555
Li3 O4 2.029275 1_555
Li3 O9 2.051359 1_555
Li4 O8 1.944841 1_555
Li4 O2 1.949595 1_555
Li4 O10 2.029275 1_555
Li4 O6 2.051359 1_555
Li5 O9 1.944841 1_555
Li5 O5 1.949595 1_555
Li5 O12 2.029275 1_555
Li5 O7 2.051359 1_655
Li6 O15 1.944841 1_545
Li6 O5 1.949595 1_555
Li6 O12 2.029275 1_545
Li6 O1 2.051359 1_655
Li7 O14 1.944841 1_545
Li7 O2 1.949595 1_555
Li7 O10 2.029275 1_545
Li7 O0 2.051359 1_555
Mn0 O5 2.070163 1_555
Mn0 O14 2.071341 1_545
Mn0 O8 2.071341 1_555
Mn0 O3 2.167998 1_655
Mn1 O2 2.070163 1_554
Mn1 O9 2.071341 1_555
Mn1 O15 2.071341 1_545
Mn1 O4 2.167998 1_555
Mn2 O13 2.070163 1_556
Mn2 O0 2.071341 1_565
Mn2 O6 2.071341 1_555
Mn2 O10 2.167998 1_555
Mn3 O11 2.070163 1_555
Mn3 O1 2.071341 1_565
Mn3 O7 2.071341 1_555
Mn3 O12 2.167998 1_455
O0 Si0 1.652322 1_555
O1 Si1 1.652322 1_555
O2 Si0 1.655573 1_655
O3 Si1 1.657047 1_555
O4 Si0 1.657047 1_554
O5 Si1 1.655573 1_555
O6 Si0 1.652322 1_555
O7 Si1 1.652322 1_555
O8 Si2 1.652322 1_555
O9 Si3 1.652322 1_555
O10 Si3 1.657047 1_556
O11 Si2 1.655573 1_555
O12 Si2 1.657047 1_555
O13 Si3 1.655573 1_455
O14 Si2 1.652322 1_555
O15 Si3 1.652322 1_555
