# generated using pymatgen
data_FeOF
_symmetry_space_group_name_H-M   'P 1'
_cell_length_a   3.10876900
_cell_length_b   14.32313600
_cell_length_c   14.41516632
_cell_angle_alpha   89.86116403
_cell_angle_beta   90.00000000
_cell_angle_gamma   90.00000000
_symmetry_Int_Tables_number   1
_chemical_formula_structural   FeOF
_chemical_formula_sum   'Fe18 O18 F18'
_cell_volume   641.86685619
_cell_formula_units_Z   18
loop_
 _symmetry_equiv_pos_site_id
 _symmetry_equiv_pos_as_xyz
  1  'x, y, z'
loop_
 _atom_site_type_symbol
 _atom_site_label
 _atom_site_symmetry_multiplicity
 _atom_site_fract_x
 _atom_site_fract_y
 _atom_site_fract_z
 _atom_site_occupancy
  Fe  Fe0  1  0.00000000  0.98582500  0.99846900  1
  Fe  Fe1  1  0.00000000  0.98672900  0.33177100  1
  Fe  Fe2  1  0.00000000  0.99672800  0.67124400  1
  Fe  Fe3  1  0.50000000  0.84652300  0.16494500  1
  Fe  Fe4  1  0.50000000  0.83447400  0.48537100  1
  Fe  Fe5  1  0.50000000  0.84733400  0.83032800  1
  Fe  Fe6  1  0.00000000  0.65334500  0.99855300  1
  Fe  Fe7  1  0.00000000  0.66650600  0.34548000  1
  Fe  Fe8  1  0.00000000  0.65299800  0.66511700  1
  Fe  Fe9  1  0.50000000  0.51322400  0.49780800  1
  Fe  Fe10  1  0.50000000  0.49934100  0.15223900  1
  Fe  Fe11  1  0.50000000  0.51375400  0.83169200  1
  Fe  Fe12  1  0.00000000  0.32846000  0.00673000  1
  Fe  Fe13  1  0.00000000  0.31963100  0.33149700  1
  Fe  Fe14  1  0.00000000  0.31978900  0.66554800  1
  Fe  Fe15  1  0.50000000  0.17966900  0.16480500  1
  Fe  Fe16  1  0.50000000  0.17999300  0.49777200  1
  Fe  Fe17  1  0.50000000  0.18415900  0.83695600  1
  O  O0  1  0.50000000  0.93399800  0.27027700  1
  O  O1  1  0.50000000  0.93572600  0.93504000  1
  O  O2  1  0.00000000  0.89786000  0.10278000  1
  O  O3  1  0.00000000  0.90041200  0.43810000  1
  O  O4  1  0.00000000  0.89647600  0.76796100  1
  O  O5  1  0.50000000  0.73046300  0.39738300  1
  O  O6  1  0.50000000  0.60263100  0.60081200  1
  O  O7  1  0.50000000  0.60174700  0.93655900  1
  O  O8  1  0.00000000  0.56399500  0.10376300  1
  O  O9  1  0.00000000  0.56099200  0.43249100  1
  O  O10  1  0.00000000  0.56515700  0.76825600  1
  O  O11  1  0.50000000  0.39655300  0.06241500  1
  O  O12  1  0.50000000  0.26883700  0.26902300  1
  O  O13  1  0.50000000  0.26638900  0.60379400  1
  O  O14  1  0.50000000  0.27286500  0.93884300  1
  O  O15  1  0.00000000  0.22833700  0.10247900  1
  O  O16  1  0.00000000  0.23102000  0.43613500  1
  O  O17  1  0.00000000  0.23410100  0.77290500  1
  F  F0  1  0.50000000  0.93306100  0.59925600  1
  F  F1  1  0.00000000  0.76493500  0.22896200  1
  F  F2  1  0.00000000  0.77091300  0.56759900  1
  F  F3  1  0.00000000  0.76789500  0.89910700  1
  F  F4  1  0.50000000  0.73154100  0.06524300  1
  F  F5  1  0.50000000  0.73098600  0.73214900  1
  F  F6  1  0.50000000  0.60059400  0.26769900  1
  F  F7  1  0.00000000  0.43625600  0.23406200  1
  F  F8  1  0.00000000  0.43405300  0.56608600  1
  F  F9  1  0.00000000  0.43655000  0.89406400  1
  F  F10  1  0.50000000  0.39690400  0.39977100  1
  F  F11  1  0.50000000  0.39793000  0.73074600  1
  F  F12  1  0.00000000  0.10025000  0.23372000  1
  F  F13  1  0.00000000  0.09898400  0.56547100  1
  F  F14  1  0.00000000  0.10359000  0.90035500  1
  F  F15  1  0.50000000  0.06377300  0.06533900  1
  F  F16  1  0.50000000  0.06565000  0.39958800  1
  F  F17  1  0.50000000  0.07009600  0.73544200  1
loop_
_geom_bond_atom_site_label_1
_geom_bond_atom_site_label_2
_geom_bond_distance
_geom_bond_site_symmetry_2
Fe0 O1 1.941706 1_455
Fe0 O1 1.941706 1_555
Fe0 O2 1.959400 1_556
Fe1 O0 1.943085 1_555
Fe1 O0 1.943085 1_455
Fe1 O3 1.966889 1_555
Fe2 O4 1.998986 1_555
Fe3 O2 1.938201 1_555
Fe3 O2 1.938201 1_655
Fe3 O0 1.970911 1_555
Fe4 O3 1.941466 1_555
Fe4 O3 1.941466 1_655
Fe4 O5 1.958901 1_555
Fe5 O4 1.927882 1_655
Fe5 O4 1.927882 1_555
Fe5 O1 1.972450 1_555
Fe6 O7 1.940133 1_455
Fe6 O7 1.940133 1_555
Fe6 O8 1.982056 1_556
Fe7 O5 1.954072 1_555
Fe7 O5 1.954072 1_455
Fe7 O9 1.961639 1_555
Fe8 O10 1.945346 1_555
Fe8 O6 1.949117 1_555
Fe8 O6 1.949117 1_455
Fe9 O9 1.941038 1_555
Fe9 O9 1.941038 1_655
Fe9 O6 1.963113 1_555
Fe10 O8 1.938775 1_655
Fe10 O8 1.938775 1_555
Fe10 O11 1.962989 1_555
Fe11 O10 1.947079 1_655
Fe11 O10 1.947079 1_555
Fe11 O7 1.970493 1_555
Fe12 O15 1.987973 1_555
Fe12 O14 2.002907 1_454
Fe12 O14 2.002907 1_554
Fe12 O11 2.003863 1_455
Fe12 O11 2.003863 1_555
Fe13 O12 1.938973 1_555
Fe13 O12 1.938973 1_455
Fe13 O16 1.968947 1_555
Fe14 O13 1.948553 1_455
Fe14 O13 1.948553 1_555
Fe14 O17 1.972836 1_555
Fe15 O15 1.925146 1_555
Fe15 O15 1.925146 1_655
Fe15 O12 1.974187 1_555
Fe16 O16 1.933022 1_655
Fe16 O16 1.933022 1_555
Fe16 O13 1.968820 1_555
Fe17 O17 1.943475 1_555
Fe17 O17 1.943475 1_655
Fe17 O14 1.944343 1_555
F0 Fe2 2.080659 1_655
F0 Fe2 2.080659 1_555
F0 Fe4 2.168012 1_555
F1 Fe3 2.151300 1_555
F1 Fe3 2.151300 1_455
F1 Fe7 2.190260 1_555
F2 Fe4 2.155158 1_455
F2 Fe4 2.155158 1_555
F2 Fe8 2.194771 1_555
F3 Fe5 2.165240 1_455
F3 Fe5 2.165240 1_555
F3 Fe6 2.176134 1_555
F4 Fe6 2.144748 1_554
F4 Fe6 2.144748 1_654
F4 Fe3 2.188462 1_555
F5 Fe8 2.145413 1_655
F5 Fe8 2.145413 1_555
F5 Fe5 2.188955 1_555
F6 Fe7 2.137674 1_555
F6 Fe7 2.137674 1_655
F6 Fe10 2.210226 1_555
F7 Fe10 2.149092 1_455
F7 Fe10 2.149092 1_555
F7 Fe13 2.179845 1_555
F8 Fe9 2.159938 1_455
F8 Fe9 2.159938 1_555
F8 Fe14 2.173205 1_555
F9 Fe11 2.107719 1_555
F9 Fe11 2.107719 1_455
F9 Fe12 2.241071 1_556
F10 Fe13 2.148253 1_555
F10 Fe13 2.148253 1_655
F10 Fe9 2.187323 1_555
F11 Fe14 2.134753 1_655
F11 Fe14 2.134753 1_555
F11 Fe11 2.209373 1_555
F12 Fe1 2.151842 1_545
F12 Fe15 2.165985 1_555
F12 Fe15 2.165985 1_455
F13 Fe2 2.111664 1_545
F13 Fe16 2.170090 1_455
F13 Fe16 2.170090 1_555
F14 Fe17 2.139613 1_455
F14 Fe17 2.139613 1_555
F14 Fe0 2.198622 1_545
F15 Fe0 2.144060 1_544
F15 Fe0 2.144060 1_644
F15 Fe15 2.196122 1_555
F16 Fe1 2.157534 1_645
F16 Fe1 2.157534 1_545
F16 Fe16 2.167174 1_555
F17 Fe2 2.093213 1_645
F17 Fe2 2.093213 1_545
F17 Fe17 2.195919 1_555
