# generated using pymatgen
data_Dy2Cu2O5
_symmetry_space_group_name_H-M   'P 1'
_cell_length_a   6.26829500
_cell_length_b   7.19793800
_cell_length_c   11.21290700
_cell_angle_alpha   90.00000000
_cell_angle_beta   90.00000000
_cell_angle_gamma   90.00000000
_symmetry_Int_Tables_number   1
_chemical_formula_structural   Dy2Cu2O5
_chemical_formula_sum   'Dy8 Cu8 O20'
_cell_volume   505.91289462
_cell_formula_units_Z   4
loop_
 _symmetry_equiv_pos_site_id
 _symmetry_equiv_pos_as_xyz
  1  'x, y, z'
loop_
 _atom_site_type_symbol
 _atom_site_label
 _atom_site_symmetry_multiplicity
 _atom_site_fract_x
 _atom_site_fract_y
 _atom_site_fract_z
 _atom_site_occupancy
  Dy  Dy0  1  0.24994100  0.88056400  0.52273700  1
  Dy  Dy1  1  0.24994100  0.88056400  0.97726300  1
  Dy  Dy2  1  0.25005900  0.38056400  0.02273700  1
  Dy  Dy3  1  0.25005900  0.38056400  0.47726300  1
  Dy  Dy4  1  0.74994100  0.61943600  0.52273700  1
  Dy  Dy5  1  0.74994100  0.61943600  0.97726300  1
  Dy  Dy6  1  0.75005900  0.11943600  0.02273700  1
  Dy  Dy7  1  0.75005900  0.11943600  0.47726300  1
  Cu  Cu0  1  0.07216900  0.14887600  0.25000000  1
  Cu  Cu1  1  0.08660000  0.62782100  0.25000000  1
  Cu  Cu2  1  0.41340000  0.12782100  0.75000000  1
  Cu  Cu3  1  0.42783100  0.64887600  0.75000000  1
  Cu  Cu4  1  0.57216900  0.35112400  0.25000000  1
  Cu  Cu5  1  0.58660000  0.87217900  0.25000000  1
  Cu  Cu6  1  0.91340000  0.37217900  0.75000000  1
  Cu  Cu7  1  0.92783100  0.85112400  0.75000000  1
  O  O0  1  0.06912800  0.64379000  0.08552700  1
  O  O1  1  0.06912800  0.64379000  0.41447300  1
  O  O2  1  0.09750800  0.11288500  0.08797600  1
  O  O3  1  0.09750800  0.11288500  0.41202400  1
  O  O4  1  0.25365500  0.38089100  0.25000000  1
  O  O5  1  0.24634500  0.88089100  0.75000000  1
  O  O6  1  0.40249200  0.61288500  0.91202400  1
  O  O7  1  0.40249200  0.61288500  0.58797600  1
  O  O8  1  0.43087200  0.14379000  0.91447300  1
  O  O9  1  0.43087200  0.14379000  0.58552700  1
  O  O10  1  0.56912800  0.85621000  0.08552700  1
  O  O11  1  0.56912800  0.85621000  0.41447300  1
  O  O12  1  0.59750800  0.38711500  0.08797600  1
  O  O13  1  0.59750800  0.38711500  0.41202400  1
  O  O14  1  0.75365500  0.11910900  0.25000000  1
  O  O15  1  0.74634500  0.61910900  0.75000000  1
  O  O16  1  0.90249200  0.88711500  0.58797600  1
  O  O17  1  0.90249200  0.88711500  0.91202400  1
  O  O18  1  0.93087200  0.35621000  0.58552700  1
  O  O19  1  0.93087200  0.35621000  0.91447300  1
loop_
_geom_bond_atom_site_label_1
_geom_bond_atom_site_label_2
_geom_bond_distance
_geom_bond_site_symmetry_2
Dy0 O7 2.271964 1_555
Dy0 O3 2.291384 1_565
Dy0 O16 2.297966 1_455
Dy0 O9 2.317709 1_565
Dy0 O11 2.346795 1_555
Dy0 O1 2.379673 1_555
Dy0 O5 2.548380 1_555
Dy1 O6 2.271964 1_555
Dy1 O2 2.291384 1_566
Dy1 O17 2.297966 1_455
Dy1 O8 2.317709 1_565
Dy1 O10 2.346795 1_556
Dy1 O0 2.379673 1_556
Dy1 O5 2.548380 1_555
Dy2 O2 2.271964 1_555
Dy2 O6 2.291384 1_554
Dy2 O12 2.297966 1_555
Dy2 O0 2.317709 1_555
Dy2 O19 2.346795 1_454
Dy2 O8 2.379673 1_554
Dy2 O4 2.548380 1_555
Dy3 O3 2.271964 1_555
Dy3 O7 2.291384 1_555
Dy3 O13 2.297966 1_555
Dy3 O1 2.317709 1_555
Dy3 O18 2.346795 1_455
Dy3 O9 2.379673 1_555
Dy3 O4 2.548380 1_555
Dy4 O16 2.271964 1_555
Dy4 O13 2.291384 1_555
Dy4 O7 2.297966 1_555
Dy4 O18 2.317709 1_555
Dy4 O1 2.346795 1_655
Dy4 O11 2.379673 1_555
Dy4 O15 2.548380 1_555
Dy5 O17 2.271964 1_555
Dy5 O12 2.291384 1_556
Dy5 O6 2.297966 1_555
Dy5 O19 2.317709 1_555
Dy5 O0 2.346795 1_656
Dy5 O10 2.379673 1_556
Dy5 O15 2.548380 1_555
Dy6 O12 2.271964 1_555
Dy6 O17 2.291384 1_544
Dy6 O2 2.297966 1_655
Dy6 O10 2.317709 1_545
Dy6 O8 2.346795 1_554
Dy6 O19 2.379673 1_554
Dy6 O14 2.548380 1_555
Dy7 O13 2.271964 1_555
Dy7 O16 2.291384 1_545
Dy7 O3 2.297966 1_655
Dy7 O11 2.317709 1_545
Dy7 O9 2.346795 1_555
Dy7 O18 2.379673 1_555
Dy7 O14 2.548380 1_555
Cu0 O3 1.841998 1_555
Cu0 O2 1.841998 1_555
Cu0 O14 2.008004 1_455
Cu0 O4 2.020681 1_555
Cu1 O0 1.851042 1_555
Cu1 O1 1.851042 1_555
Cu1 O4 2.062917 1_555
Cu2 O8 1.851042 1_555
Cu2 O9 1.851042 1_555
Cu2 O5 2.062917 1_545
Cu3 O6 1.841998 1_555
Cu3 O7 1.841998 1_555
Cu3 O15 2.008004 1_555
Cu3 O5 2.020681 1_555
Cu4 O13 1.841998 1_555
Cu4 O12 1.841998 1_555
Cu4 O4 2.008004 1_555
Cu4 O14 2.020681 1_555
Cu5 O10 1.851042 1_555
Cu5 O11 1.851042 1_555
Cu5 O14 2.062917 1_565
Cu6 O19 1.851042 1_555
Cu6 O18 1.851042 1_555
Cu6 O15 2.062917 1_555
Cu7 O16 1.841998 1_555
Cu7 O17 1.841998 1_555
Cu7 O5 2.008004 1_655
Cu7 O15 2.020681 1_555
