# generated using pymatgen
data_CoAgO2
_symmetry_space_group_name_H-M   'P 1'
_cell_length_a   6.49316482
_cell_length_b   6.49316482
_cell_length_c   6.49316472
_cell_angle_alpha   26.98102735
_cell_angle_beta   26.98102735
_cell_angle_gamma   26.98103010
_symmetry_Int_Tables_number   1
_chemical_formula_structural   CoAgO2
_chemical_formula_sum   'Co1 Ag1 O2'
_cell_volume   49.70197123
_cell_formula_units_Z   1
loop_
 _symmetry_equiv_pos_site_id
 _symmetry_equiv_pos_as_xyz
  1  'x, y, z'
loop_
 _atom_site_type_symbol
 _atom_site_label
 _atom_site_symmetry_multiplicity
 _atom_site_fract_x
 _atom_site_fract_y
 _atom_site_fract_z
 _atom_site_occupancy
  Co  Co0  1  0.50000000  0.50000000  0.50000000  1
  Ag  Ag0  1  0.00000000  0.00000000  0.00000000  1
  O  O0  1  0.88799400  0.88799400  0.88799400  1
  O  O1  1  0.11200600  0.11200600  0.11200600  1
loop_
_geom_bond_atom_site_label_1
_geom_bond_atom_site_label_2
_geom_bond_distance
_geom_bond_site_symmetry_2
Co0 O1 2.027501 1_556
Co0 O0 2.027501 1_554
Co0 O0 2.027501 1_545
Co0 O0 2.027501 1_455
Co0 O1 2.027501 1_655
Co0 O1 2.027501 1_565
Ag0 O1 2.101171 1_555
Ag0 O0 2.101171 1_444
