# generated using pymatgen
data_Ti2Cr3O12
_symmetry_space_group_name_H-M   'P 1'
_cell_length_a   9.14817300
_cell_length_b   9.17829700
_cell_length_c   12.79563700
_cell_angle_alpha   90.00000000
_cell_angle_beta   90.00000000
_cell_angle_gamma   90.00000000
_symmetry_Int_Tables_number   1
_chemical_formula_structural   Ti2Cr3O12
_chemical_formula_sum   'Ti8 Cr12 O48'
_cell_volume   1074.38116689
_cell_formula_units_Z   4
loop_
 _symmetry_equiv_pos_site_id
 _symmetry_equiv_pos_as_xyz
  1  'x, y, z'
loop_
 _atom_site_type_symbol
 _atom_site_label
 _atom_site_symmetry_multiplicity
 _atom_site_fract_x
 _atom_site_fract_y
 _atom_site_fract_z
 _atom_site_occupancy
  Ti  Ti0  1  0.76533600  0.47160400  0.61915500  1
  Ti  Ti1  1  0.23466400  0.97160400  0.61915500  1
  Ti  Ti2  1  0.73466400  0.97160400  0.88084500  1
  Ti  Ti3  1  0.26533600  0.47160400  0.88084500  1
  Ti  Ti4  1  0.73466400  0.52839600  0.11915500  1
  Ti  Ti5  1  0.26533600  0.02839600  0.11915500  1
  Ti  Ti6  1  0.76533600  0.02839600  0.38084500  1
  Ti  Ti7  1  0.23466400  0.52839600  0.38084500  1
  Cr  Cr0  1  0.96479300  0.75000000  0.50000000  1
  Cr  Cr1  1  0.03520700  0.25000000  0.50000000  1
  Cr  Cr2  1  0.60930700  0.10356200  0.64252500  1
  Cr  Cr3  1  0.39069300  0.60356200  0.64252500  1
  Cr  Cr4  1  0.89069300  0.60356200  0.85747500  1
  Cr  Cr5  1  0.10930700  0.10356200  0.85747500  1
  Cr  Cr6  1  0.53520700  0.25000000  0.00000000  1
  Cr  Cr7  1  0.46479300  0.75000000  0.00000000  1
  Cr  Cr8  1  0.89069300  0.89643800  0.14252500  1
  Cr  Cr9  1  0.10930700  0.39643800  0.14252500  1
  Cr  Cr10  1  0.60930700  0.39643800  0.35747500  1
  Cr  Cr11  1  0.39069300  0.89643800  0.35747500  1
  O  O0  1  0.66535600  0.05522700  0.52410100  1
  O  O1  1  0.33464400  0.55522700  0.52410100  1
  O  O2  1  0.08033900  0.85792400  0.58068000  1
  O  O3  1  0.91966100  0.35792400  0.58068000  1
  O  O4  1  0.84946800  0.64260700  0.58051500  1
  O  O5  1  0.15053200  0.14260700  0.58051500  1
  O  O6  1  0.57000700  0.58231600  0.65280400  1
  O  O7  1  0.42999300  0.08231600  0.65280400  1
  O  O8  1  0.65086500  0.27689600  0.66259000  1
  O  O9  1  0.34913500  0.77689600  0.66259000  1
  O  O10  1  0.69104600  0.99448100  0.73206900  1
  O  O11  1  0.30895400  0.49448100  0.73206900  1
  O  O12  1  0.80895400  0.49448100  0.76793100  1
  O  O13  1  0.19104600  0.99448100  0.76793100  1
  O  O14  1  0.15086500  0.27689600  0.83741000  1
  O  O15  1  0.84913500  0.77689600  0.83741000  1
  O  O16  1  0.92999300  0.08231600  0.84719600  1
  O  O17  1  0.07000700  0.58231600  0.84719600  1
  O  O18  1  0.65053200  0.14260700  0.91948500  1
  O  O19  1  0.34946800  0.64260700  0.91948500  1
  O  O20  1  0.58033900  0.85792400  0.91932000  1
  O  O21  1  0.41966100  0.35792400  0.91932000  1
  O  O22  1  0.16535600  0.05522700  0.97589900  1
  O  O23  1  0.83464400  0.55522700  0.97589900  1
  O  O24  1  0.83464400  0.94477300  0.02410100  1
  O  O25  1  0.16535600  0.44477300  0.02410100  1
  O  O26  1  0.58033900  0.64207600  0.08068000  1
  O  O27  1  0.41966100  0.14207600  0.08068000  1
  O  O28  1  0.65053200  0.35739300  0.08051500  1
  O  O29  1  0.34946800  0.85739300  0.08051500  1
  O  O30  1  0.92999300  0.41768400  0.15280400  1
  O  O31  1  0.07000700  0.91768400  0.15280400  1
  O  O32  1  0.84913500  0.72310400  0.16259000  1
  O  O33  1  0.15086500  0.22310400  0.16259000  1
  O  O34  1  0.80895400  0.00551900  0.23206900  1
  O  O35  1  0.19104600  0.50551900  0.23206900  1
  O  O36  1  0.69104600  0.50551900  0.26793100  1
  O  O37  1  0.30895400  0.00551900  0.26793100  1
  O  O38  1  0.65086500  0.22310400  0.33741000  1
  O  O39  1  0.34913500  0.72310400  0.33741000  1
  O  O40  1  0.57000700  0.91768400  0.34719600  1
  O  O41  1  0.42999300  0.41768400  0.34719600  1
  O  O42  1  0.84946800  0.85739300  0.41948500  1
  O  O43  1  0.15053200  0.35739300  0.41948500  1
  O  O44  1  0.91966100  0.14207600  0.41932000  1
  O  O45  1  0.08033900  0.64207600  0.41932000  1
  O  O46  1  0.66535600  0.44477300  0.47589900  1
  O  O47  1  0.33464400  0.94477300  0.47589900  1
loop_
_geom_bond_atom_site_label_1
_geom_bond_atom_site_label_2
_geom_bond_distance
_geom_bond_site_symmetry_2
Cr0 O42 1.773703 1_555
Cr0 O4 1.773703 1_555
Cr0 O2 1.778842 1_655
Cr0 O45 1.778842 1_655
Cr1 O43 1.773703 1_555
Cr1 O5 1.773703 1_555
Cr1 O3 1.778842 1_455
Cr1 O44 1.778842 1_455
Cr2 O8 1.655733 1_555
Cr2 O7 1.657173 1_555
Cr2 O0 1.660086 1_555
Cr2 O10 1.695376 1_545
Cr3 O9 1.655733 1_555
Cr3 O6 1.657173 1_555
Cr3 O1 1.660086 1_555
Cr3 O11 1.695376 1_555
Cr4 O15 1.655733 1_555
Cr4 O17 1.657173 1_655
Cr4 O23 1.660086 1_555
Cr4 O12 1.695376 1_555
Cr5 O14 1.655733 1_555
Cr5 O16 1.657173 1_455
Cr5 O22 1.660086 1_555
Cr5 O13 1.695376 1_545
Cr6 O28 1.773703 1_555
Cr6 O18 1.773703 1_554
Cr6 O21 1.778842 1_554
Cr6 O27 1.778842 1_555
Cr7 O29 1.773703 1_555
Cr7 O19 1.773703 1_554
Cr7 O20 1.778842 1_554
Cr7 O26 1.778842 1_555
Cr8 O32 1.655733 1_555
Cr8 O31 1.657173 1_655
Cr8 O24 1.660086 1_555
Cr8 O34 1.695376 1_565
Cr9 O33 1.655733 1_555
Cr9 O30 1.657173 1_455
Cr9 O25 1.660086 1_555
Cr9 O35 1.695376 1_555
Cr10 O38 1.655733 1_555
Cr10 O41 1.657173 1_555
Cr10 O46 1.660086 1_555
Cr10 O36 1.695376 1_555
Cr11 O39 1.655733 1_555
Cr11 O40 1.657173 1_555
Cr11 O47 1.660086 1_555
Cr11 O37 1.695376 1_565
O0 Ti6 2.063318 1_555
O1 Ti7 2.063318 1_555
O2 Ti1 1.823235 1_555
O3 Ti0 1.823235 1_555
O4 Ti0 1.816646 1_555
O5 Ti1 1.816646 1_545
O6 Ti0 2.100229 1_555
O7 Ti1 2.100229 1_545
O8 Ti0 2.144575 1_555
O9 Ti1 2.144575 1_555
O10 Ti2 1.956354 1_555
O11 Ti3 1.956354 1_555
O12 Ti0 1.956354 1_555
O13 Ti1 1.956354 1_555
O14 Ti3 2.144575 1_555
O15 Ti2 2.144575 1_555
O16 Ti2 2.100229 1_545
O17 Ti3 2.100229 1_555
O18 Ti2 1.816646 1_545
O19 Ti3 1.816646 1_555
O20 Ti2 1.823235 1_555
O21 Ti3 1.823235 1_555
O22 Ti5 2.063318 1_556
O23 Ti4 2.063318 1_556
O24 Ti2 2.063318 1_554
O25 Ti3 2.063318 1_554
O26 Ti4 1.823235 1_555
O27 Ti5 1.823235 1_555
O28 Ti4 1.816646 1_555
O29 Ti5 1.816646 1_565
O30 Ti4 2.100229 1_555
O31 Ti5 2.100229 1_565
O32 Ti4 2.144575 1_555
O33 Ti5 2.144575 1_555
O34 Ti6 1.956354 1_555
O35 Ti7 1.956354 1_555
O36 Ti4 1.956354 1_555
O37 Ti5 1.956354 1_555
O38 Ti6 2.144575 1_555
O39 Ti7 2.144575 1_555
O40 Ti6 2.100229 1_565
O41 Ti7 2.100229 1_555
O42 Ti6 1.816646 1_565
O43 Ti7 1.816646 1_555
O44 Ti6 1.823235 1_555
O45 Ti7 1.823235 1_555
O46 Ti0 2.063318 1_555
O47 Ti1 2.063318 1_555
