# generated using pymatgen
data_MnZnO3
_symmetry_space_group_name_H-M   'P 1'
_cell_length_a   5.18824800
_cell_length_b   7.40550700
_cell_length_c   5.07781700
_cell_angle_alpha   90.00000000
_cell_angle_beta   90.00000000
_cell_angle_gamma   90.00000000
_symmetry_Int_Tables_number   1
_chemical_formula_structural   MnZnO3
_chemical_formula_sum   'Mn4 Zn4 O12'
_cell_volume   195.09788859
_cell_formula_units_Z   4
loop_
 _symmetry_equiv_pos_site_id
 _symmetry_equiv_pos_as_xyz
  1  'x, y, z'
loop_
 _atom_site_type_symbol
 _atom_site_label
 _atom_site_symmetry_multiplicity
 _atom_site_fract_x
 _atom_site_fract_y
 _atom_site_fract_z
 _atom_site_occupancy
  Mn  Mn0  1  0.00000000  0.00000000  0.50000000  1
  Mn  Mn1  1  0.00000000  0.50000000  0.50000000  1
  Mn  Mn2  1  0.50000000  0.00000000  0.00000000  1
  Mn  Mn3  1  0.50000000  0.50000000  0.00000000  1
  Zn  Zn0  1  0.04814800  0.25000000  0.99116400  1
  Zn  Zn1  1  0.45185200  0.75000000  0.49116400  1
  Zn  Zn2  1  0.54814800  0.25000000  0.50883600  1
  Zn  Zn3  1  0.95185200  0.75000000  0.00883600  1
  O  O0  1  0.06207000  0.75000000  0.62007000  1
  O  O1  1  0.18949200  0.56443000  0.18481800  1
  O  O2  1  0.18949200  0.93557000  0.18481800  1
  O  O3  1  0.31050800  0.06443000  0.68481800  1
  O  O4  1  0.31050800  0.43557000  0.68481800  1
  O  O5  1  0.43793000  0.25000000  0.12007000  1
  O  O6  1  0.56207000  0.75000000  0.87993000  1
  O  O7  1  0.68949200  0.93557000  0.31518200  1
  O  O8  1  0.68949200  0.56443000  0.31518200  1
  O  O9  1  0.81050800  0.06443000  0.81518200  1
  O  O10  1  0.81050800  0.43557000  0.81518200  1
  O  O11  1  0.93793000  0.25000000  0.37993000  1
loop_
_geom_bond_atom_site_label_1
_geom_bond_atom_site_label_2
_geom_bond_distance
_geom_bond_site_symmetry_2
Mn0 O7 1.924496 1_445
Mn0 O3 1.924496 1_555
Mn0 O9 1.937938 1_455
Mn0 O2 1.937938 1_545
Mn0 O11 1.975608 1_455
Mn0 O0 1.975608 1_545
Mn1 O8 1.924496 1_455
Mn1 O4 1.924496 1_555
Mn1 O1 1.937938 1_555
Mn1 O10 1.937938 1_455
Mn1 O0 1.975608 1_555
Mn1 O11 1.975608 1_455
Mn2 O2 1.924496 1_545
Mn2 O9 1.924496 1_554
Mn2 O3 1.937938 1_554
Mn2 O7 1.937938 1_545
Mn2 O6 1.975608 1_544
Mn2 O5 1.975608 1_555
Mn3 O1 1.924496 1_555
Mn3 O10 1.924496 1_554
Mn3 O4 1.937938 1_554
Mn3 O8 1.937938 1_555
Mn3 O5 1.975608 1_555
Mn3 O6 1.975608 1_554
O0 Zn3 2.055238 1_456
O0 Zn1 2.125580 1_555
O1 Zn3 2.051144 1_455
O2 Zn3 2.051144 1_455
O3 Zn2 2.051144 1_555
O4 Zn2 2.051144 1_555
O5 Zn2 2.055238 1_555
O5 Zn0 2.125580 1_554
O6 Zn1 2.055238 1_555
O6 Zn3 2.125580 1_556
O7 Zn1 2.051144 1_555
O8 Zn1 2.051144 1_555
O9 Zn0 2.051144 1_655
O10 Zn0 2.051144 1_655
O11 Zn0 2.055238 1_654
O11 Zn2 2.125580 1_555
