# generated using pymatgen
data_LiFe2P5O16
_symmetry_space_group_name_H-M   'P 1'
_cell_length_a   9.44866300
_cell_length_b   7.55536600
_cell_length_c   10.35461576
_cell_angle_alpha   68.32154861
_cell_angle_beta   90.00000000
_cell_angle_gamma   90.00000000
_symmetry_Int_Tables_number   1
_chemical_formula_structural   LiFe2P5O16
_chemical_formula_sum   'Li2 Fe4 P10 O32'
_cell_volume   686.91421427
_cell_formula_units_Z   2
loop_
 _symmetry_equiv_pos_site_id
 _symmetry_equiv_pos_as_xyz
  1  'x, y, z'
loop_
 _atom_site_type_symbol
 _atom_site_label
 _atom_site_symmetry_multiplicity
 _atom_site_fract_x
 _atom_site_fract_y
 _atom_site_fract_z
 _atom_site_occupancy
  Li  Li0  1  0.79996000  0.99834700  0.75270400  1
  Li  Li1  1  0.20004000  0.99834700  0.25270400  1
  Fe  Fe0  1  0.14073200  0.37823100  0.46600700  1
  Fe  Fe1  1  0.36946400  0.93421800  0.85868800  1
  Fe  Fe2  1  0.63053600  0.93421800  0.35868800  1
  Fe  Fe3  1  0.85926800  0.37823100  0.96600700  1
  P  P0  1  0.86150400  0.61977100  0.36985800  1
  P  P1  1  0.29492000  0.57314300  0.12644700  1
  P  P2  1  0.87423900  0.28202400  0.30032400  1
  P  P3  1  0.41662200  0.12353800  0.52438500  1
  P  P4  1  0.58337800  0.12353800  0.02438500  1
  P  P5  1  0.13849600  0.61977100  0.86985800  1
  P  P6  1  0.54176000  0.51887900  0.98741700  1
  P  P7  1  0.70508000  0.57314300  0.62644700  1
  P  P8  1  0.45824000  0.51887900  0.48741700  1
  P  P9  1  0.12576100  0.28202400  0.80032400  1
  O  O0  1  0.29755600  0.78826800  0.06724400  1
  O  O1  1  0.81977400  0.49812400  0.27973200  1
  O  O2  1  0.06524700  0.29682500  0.65980200  1
  O  O3  1  0.23167900  0.47384400  0.26667300  1
  O  O4  1  0.49432400  0.33239400  0.45542200  1
  O  O5  1  0.45225900  0.48655700  0.12890300  1
  O  O6  1  0.69790000  0.52098200  0.01871700  1
  O  O7  1  0.21367300  0.49911500  0.01757500  1
  O  O8  1  0.53420200  0.01138500  0.93822900  1
  O  O9  1  0.98886800  0.23184900  0.41258600  1
  O  O10  1  0.25688500  0.15109700  0.50603500  1
  O  O11  1  0.46472700  0.04642400  0.67538500  1
  O  O12  1  0.93475300  0.29682500  0.15980200  1
  O  O13  1  0.74437100  0.15703600  0.34786700  1
  O  O14  1  0.46579800  0.01138500  0.43822900  1
  O  O15  1  0.20030100  0.81562500  0.80288900  1
  O  O16  1  0.74311500  0.15109700  0.00603500  1
  O  O17  1  0.48043700  0.68829300  0.87318500  1
  O  O18  1  0.53527300  0.04642400  0.17538500  1
  O  O19  1  0.70244400  0.78826800  0.56724400  1
  O  O20  1  0.97950400  0.61837800  0.89336600  1
  O  O21  1  0.79969900  0.81562500  0.30288900  1
  O  O22  1  0.18022600  0.49812400  0.77973200  1
  O  O23  1  0.51956300  0.68829300  0.37318500  1
  O  O24  1  0.76832100  0.47384400  0.76667300  1
  O  O25  1  0.50567600  0.33239400  0.95542200  1
  O  O26  1  0.02049600  0.61837800  0.39336600  1
  O  O27  1  0.54774100  0.48655700  0.62890300  1
  O  O28  1  0.30210000  0.52098200  0.51871700  1
  O  O29  1  0.78632700  0.49911500  0.51757500  1
  O  O30  1  0.01113200  0.23184900  0.91258600  1
  O  O31  1  0.25562900  0.15703600  0.84786700  1
loop_
_geom_bond_atom_site_label_1
_geom_bond_atom_site_label_2
_geom_bond_distance
_geom_bond_site_symmetry_2
Fe0 O10 1.948262 1_555
Fe0 O2 2.000475 1_555
Fe0 O9 2.009998 1_455
Fe0 O26 2.034747 1_555
Fe0 O28 2.054451 1_555
Fe0 O3 2.102126 1_555
Fe1 O8 1.948303 1_565
Fe1 O31 1.965748 1_565
Fe1 O11 1.985608 1_565
Fe1 O15 2.018392 1_555
Fe1 O17 2.090044 1_555
Fe1 O0 2.140515 1_556
Fe2 O14 1.948303 1_565
Fe2 O13 1.965748 1_565
Fe2 O18 1.985608 1_565
Fe2 O21 2.018392 1_555
Fe2 O23 2.090044 1_555
Fe2 O19 2.140515 1_555
Fe3 O16 1.948262 1_556
Fe3 O12 2.000475 1_556
Fe3 O30 2.009998 1_655
Fe3 O20 2.034747 1_555
Fe3 O6 2.054451 1_556
Fe3 O24 2.102126 1_555
O0 P1 1.510648 1_555
O1 P0 1.582644 1_555
O1 P2 1.648896 1_555
O2 P9 1.528527 1_555
O3 P1 1.491102 1_555
O4 P8 1.598760 1_555
O4 P3 1.645140 1_555
O5 P1 1.620625 1_555
O5 P6 1.629966 1_554
O6 P6 1.511836 1_554
O7 P1 1.624453 1_555
O7 P5 1.626337 1_554
O8 P4 1.512699 1_556
O9 P2 1.530515 1_555
O10 P3 1.525850 1_555
O11 P3 1.522404 1_555
O12 P2 1.528527 1_555
O13 P2 1.515380 1_555
O14 P3 1.512699 1_555
O15 P5 1.501150 1_555
O16 P4 1.525850 1_555
O17 P6 1.501544 1_555
O18 P4 1.522404 1_555
O19 P7 1.510648 1_555
O20 P5 1.521269 1_655
O21 P0 1.501150 1_555
O22 P5 1.582644 1_555
O22 P9 1.648896 1_555
O23 P8 1.501544 1_555
O24 P7 1.491102 1_555
O25 P6 1.598760 1_555
O25 P4 1.645140 1_556
O26 P0 1.521269 1_455
O27 P7 1.620625 1_555
O27 P8 1.629966 1_555
O28 P8 1.511836 1_555
O29 P7 1.624453 1_555
O29 P0 1.626337 1_555
O30 P9 1.530515 1_555
O31 P9 1.515380 1_555
