# generated using pymatgen
data_Li3Sn3(PO4)4
_symmetry_space_group_name_H-M   'P 1'
_cell_length_a   8.63413600
_cell_length_b   9.23073282
_cell_length_c   13.40109839
_cell_angle_alpha   92.56704310
_cell_angle_beta   90.76337497
_cell_angle_gamma   90.97658656
_symmetry_Int_Tables_number   1
_chemical_formula_structural   Li3Sn3(PO4)4
_chemical_formula_sum   'Li9 Sn9 P12 O48'
_cell_volume   1066.72665558
_cell_formula_units_Z   3
loop_
 _symmetry_equiv_pos_site_id
 _symmetry_equiv_pos_as_xyz
  1  'x, y, z'
loop_
 _atom_site_type_symbol
 _atom_site_label
 _atom_site_symmetry_multiplicity
 _atom_site_fract_x
 _atom_site_fract_y
 _atom_site_fract_z
 _atom_site_occupancy
  Li  Li0  1  0.14288400  0.23585900  0.84057000  1
  Li  Li1  1  0.85656900  0.10248100  0.48796400  1
  Li  Li2  1  0.38470100  0.73801500  0.84063000  1
  Li  Li3  1  0.38073800  0.40591200  0.50284100  1
  Li  Li4  1  0.35903600  0.05242400  0.17382400  1
  Li  Li5  1  0.62519500  0.92564800  0.83206000  1
  Li  Li6  1  0.62302300  0.59554500  0.49325700  1
  Li  Li7  1  0.12184300  0.57518100  0.17840700  1
  Li  Li8  1  0.87683100  0.76103500  0.15850800  1
  Sn  Sn0  1  0.48185500  0.34404400  0.83766000  1
  Sn  Sn1  1  0.51146900  0.99315800  0.49575700  1
  Sn  Sn2  1  0.87062300  0.44945300  0.80854500  1
  Sn  Sn3  1  0.00387700  0.82730600  0.83735600  1
  Sn  Sn4  1  0.00242200  0.50083200  0.49580400  1
  Sn  Sn5  1  0.00807700  0.16600500  0.17187400  1
  Sn  Sn6  1  0.62455200  0.28303000  0.12281500  1
  Sn  Sn7  1  0.12462100  0.88155000  0.52592300  1
  Sn  Sn8  1  0.49881500  0.67140900  0.16743900  1
  P  P0  1  0.82760300  0.13617700  0.93703600  1
  P  P1  1  0.30283900  0.01617600  0.73251500  1
  P  P2  1  0.69981600  0.66256300  0.95809900  1
  P  P3  1  0.70200900  0.31141100  0.59677400  1
  P  P4  1  0.19879000  0.53188700  0.71594600  1
  P  P5  1  0.18440600  0.18893200  0.39707900  1
  P  P6  1  0.80067100  0.80358300  0.61542600  1
  P  P7  1  0.81223800  0.48621000  0.27801500  1
  P  P8  1  0.30861000  0.67241200  0.37984600  1
  P  P9  1  0.28052300  0.35578500  0.06396400  1
  P  P10  1  0.69343200  0.98327600  0.26761100  1
  P  P11  1  0.18977200  0.85156300  0.06166600  1
  O  O0  1  0.12800500  0.98077600  0.75893800  1
  O  O1  1  0.65337100  0.14358100  0.91703800  1
  O  O2  1  0.92737500  0.24611300  0.88196400  1
  O  O3  1  0.25953500  0.33449000  0.95136800  1
  O  O4  1  0.32564500  0.17761300  0.76295500  1
  O  O5  1  0.67739400  0.49674500  0.94374200  1
  O  O6  1  0.66565900  0.15003200  0.56499100  1
  O  O7  1  0.70213900  0.31884500  0.71272300  1
  O  O8  1  0.11477700  0.40050000  0.75795500  1
  O  O9  1  0.70276500  0.01938400  0.38146500  1
  O  O10  1  0.07311500  0.08356600  0.44838900  1
  O  O11  1  0.36812400  0.54635600  0.75055500  1
  O  O12  1  0.87393300  0.69707400  0.93225700  1
  O  O13  1  0.35403300  0.18008300  0.43307100  1
  O  O14  1  0.87537800  0.33593800  0.56107100  1
  O  O15  1  0.58547200  0.75078900  0.90132100  1
  O  O16  1  0.18928600  0.82889100  0.94426700  1
  O  O17  1  0.58918400  0.41436100  0.55228400  1
  O  O18  1  0.18792700  0.51571000  0.59780000  1
  O  O19  1  0.58139700  0.08355700  0.21355500  1
  O  O20  1  0.11629200  0.67558100  0.75011900  1
  O  O21  1  0.17701500  0.15277200  0.28042600  1
  O  O22  1  0.13164300  0.34754600  0.41609300  1
  O  O23  1  0.14983600  0.01435100  0.09131400  1
  O  O24  1  0.87952400  0.98085600  0.91110500  1
  O  O25  1  0.87939000  0.65754600  0.58049500  1
  O  O26  1  0.81230500  0.81925500  0.73256700  1
  O  O27  1  0.85120900  0.32020000  0.25158500  1
  O  O28  1  0.41755500  0.91799800  0.77977600  1
  O  O29  1  0.81707500  0.51184600  0.39488800  1
  O  O30  1  0.42158500  0.58096300  0.43438100  1
  O  O31  1  0.85392000  0.16286700  0.05408800  1
  O  O32  1  0.37529100  0.23346200  0.10877600  1
  O  O33  1  0.13399200  0.63993700  0.40505900  1
  O  O34  1  0.63025100  0.79566200  0.57724600  1
  O  O35  1  0.11913000  0.35513000  0.11899200  1
  O  O36  1  0.63662300  0.50661300  0.24513700  1
  O  O37  1  0.88350400  0.93446300  0.57084600  1
  O  O38  1  0.31490000  0.00365400  0.61429300  1
  O  O39  1  0.91917500  0.58839200  0.22775000  1
  O  O40  1  0.31767700  0.64137200  0.26307700  1
  O  O41  1  0.33685900  0.83955900  0.39952400  1
  O  O42  1  0.36503900  0.50609200  0.08767200  1
  O  O43  1  0.63631100  0.82202400  0.25347800  1
  O  O44  1  0.68456100  0.70003400  0.07488500  1
  O  O45  1  0.08153400  0.74713800  0.10947000  1
  O  O46  1  0.36346600  0.83693200  0.10070200  1
  O  O47  1  0.86199300  0.99449200  0.22333600  1
loop_
_geom_bond_atom_site_label_1
_geom_bond_atom_site_label_2
_geom_bond_distance
_geom_bond_site_symmetry_2
Li0 O8 1.936602 1_555
Li0 O2 1.951362 1_455
Li0 O3 1.963615 1_555
Li0 O4 1.970666 1_555
Li0 O0 2.551982 1_545
Li1 O10 1.958760 1_655
Li1 O37 1.962871 1_545
Li1 O6 2.001160 1_555
Li1 O9 2.050725 1_555
Li1 O14 2.329133 1_555
Li2 O28 1.901882 1_555
Li2 O15 1.904532 1_555
Li2 O11 2.098322 1_555
Li2 O16 2.342153 1_555
Li3 O17 1.908671 1_555
Li3 O30 1.923287 1_555
Li3 O13 2.253016 1_555
Li3 O18 2.327328 1_555
Li3 O22 2.470847 1_555
Li4 O32 1.923008 1_555
Li4 O19 1.998080 1_555
Li4 O23 2.121097 1_555
Li4 O46 2.178853 1_545
Li4 O21 2.315098 1_555
Li5 O28 1.915150 1_555
Li5 O15 1.925666 1_555
Li5 O1 2.274562 1_565
Li5 O26 2.312218 1_555
Li5 O24 2.460760 1_555
Li6 O30 1.900408 1_555
Li6 O17 1.901636 1_555
Li6 O34 2.119186 1_555
Li6 O29 2.270166 1_555
Li6 O25 2.534137 1_555
Li7 O39 1.882824 1_455
Li7 O45 1.906750 1_555
Li7 O40 2.090777 1_555
Li7 O35 2.147891 1_555
Li7 O42 2.517652 1_555
Li8 O45 1.898227 1_655
Li8 O39 1.917710 1_555
Li8 O44 2.047150 1_555
Li8 O47 2.293420 1_555
Li8 O43 2.509067 1_555
O0 P1 1.587031 1_565
O0 Sn3 2.090806 1_555
O1 P0 1.527725 1_555
O1 Sn0 2.641292 1_555
O2 P0 1.539739 1_555
O2 Sn2 2.217009 1_555
O3 P9 1.520927 1_556
O3 Sn0 2.469540 1_555
O4 P1 1.535977 1_555
O4 Sn0 2.221966 1_555
O5 P2 1.542669 1_555
O5 Sn2 2.508208 1_555
O5 Sn0 2.556095 1_555
O6 P3 1.556480 1_555
O6 Sn1 2.123934 1_545
O7 P3 1.552270 1_555
O7 Sn2 2.229441 1_555
O7 Sn0 2.557317 1_555
O8 P4 1.534940 1_555
O8 Sn2 2.269547 1_455
O9 P10 1.547840 1_545
O9 Sn1 2.284633 1_545
O10 P5 1.545237 1_555
O10 Sn7 2.223556 1_545
O11 P4 1.529795 1_555
O11 Sn0 2.457968 1_555
O12 P2 1.577626 1_555
O12 Sn3 2.109580 1_655
O13 P5 1.540488 1_555
O13 Sn1 2.389565 1_545
O14 P3 1.593142 1_555
O14 Sn4 2.091149 1_655
O15 P2 1.509889 1_555
O16 P11 1.577755 1_556
O16 Sn3 2.133503 1_555
O17 P3 1.508093 1_555
O18 P4 1.585017 1_555
O18 Sn4 2.090425 1_555
O19 P10 1.545725 1_545
O19 Sn6 2.279715 1_555
O20 P4 1.569369 1_555
O20 Sn3 2.049440 1_555
O21 P5 1.584045 1_555
O21 Sn5 2.055282 1_555
O22 P5 1.551945 1_555
O22 Sn4 2.082819 1_555
O23 P11 1.581946 1_545
O23 Sn5 2.140446 1_555
O24 P0 1.535815 1_565
O24 Sn3 2.023164 1_655
O25 P6 1.575261 1_555
O25 Sn4 2.108695 1_655
O26 P6 1.571721 1_555
O26 Sn3 2.153608 1_655
O27 P7 1.599698 1_555
O27 Sn5 2.229234 1_655
O27 Sn6 2.599906 1_555
O28 P1 1.506242 1_565
O29 P7 1.573381 1_555
O29 Sn4 2.088174 1_655
O30 P8 1.504163 1_555
O31 P0 1.589620 1_554
O31 Sn5 2.050020 1_655
O31 Sn6 2.456117 1_555
O32 P9 1.544095 1_555
O32 Sn6 2.196462 1_555
O33 P8 1.576183 1_555
O33 Sn4 2.131915 1_555
O33 Sn7 2.700027 1_555
O34 P6 1.550858 1_555
O34 Sn1 2.404171 1_555
O35 P9 1.585293 1_555
O35 Sn5 2.131001 1_555
O36 P7 1.589994 1_555
O36 Sn8 2.232601 1_555
O36 Sn6 2.577301 1_555
O37 P6 1.540956 1_555
O37 Sn7 2.230862 1_655
O38 P1 1.588279 1_555
O38 Sn7 2.266585 1_545
O38 Sn1 2.340281 1_545
O39 P7 1.496562 1_555
O40 P8 1.581389 1_555
O40 Sn8 2.058149 1_555
O41 P8 1.567977 1_555
O41 Sn1 2.378614 1_555
O41 Sn7 2.534881 1_555
O42 P9 1.574249 1_555
O42 Sn8 2.136906 1_555
O43 P10 1.562657 1_555
O43 Sn8 2.106030 1_555
O44 P2 1.595291 1_554
O44 Sn8 2.061110 1_555
O45 P11 1.501156 1_555
O46 P11 1.591641 1_555
O46 Sn8 2.157645 1_555
O47 P10 1.582487 1_555
O47 Sn5 2.150795 1_665
