# generated using pymatgen
data_LiCuPO4
_symmetry_space_group_name_H-M   'P 1'
_cell_length_a   9.98333193
_cell_length_b   9.98333193
_cell_length_c   16.38568839
_cell_angle_alpha   82.19299143
_cell_angle_beta   82.19299143
_cell_angle_gamma   59.13709857
_symmetry_Int_Tables_number   1
_chemical_formula_structural   LiCuPO4
_chemical_formula_sum   'Li16 Cu16 P16 O64'
_cell_volume   1384.65609438
_cell_formula_units_Z   16
loop_
 _symmetry_equiv_pos_site_id
 _symmetry_equiv_pos_as_xyz
  1  'x, y, z'
loop_
 _atom_site_type_symbol
 _atom_site_label
 _atom_site_symmetry_multiplicity
 _atom_site_fract_x
 _atom_site_fract_y
 _atom_site_fract_z
 _atom_site_occupancy
  Li  Li0  1  0.27014400  0.88264200  0.12730100  1
  Li  Li1  1  0.77090400  0.44452100  0.12610100  1
  Li  Li2  1  0.88264200  0.27014400  0.62730100  1
  Li  Li3  1  0.44452100  0.77090400  0.62610100  1
  Li  Li4  1  0.32481500  0.00346700  0.37726300  1
  Li  Li5  1  0.88268500  0.50890600  0.37877000  1
  Li  Li6  1  0.00346700  0.32481500  0.87726300  1
  Li  Li7  1  0.50890600  0.88268500  0.87877000  1
  Li  Li8  1  0.27282100  0.38008400  0.12632700  1
  Li  Li9  1  0.77048900  0.94311900  0.12806400  1
  Li  Li10  1  0.38008400  0.27282100  0.62632700  1
  Li  Li11  1  0.94311900  0.77048900  0.62806400  1
  Li  Li12  1  0.82651900  0.00536700  0.37863900  1
  Li  Li13  1  0.38213000  0.50535800  0.37874600  1
  Li  Li14  1  0.00536700  0.82651900  0.87863900  1
  Li  Li15  1  0.50535800  0.38213000  0.87874600  1
  Cu  Cu0  1  0.81509900  0.19633100  0.00206600  1
  Cu  Cu1  1  0.19633100  0.81509900  0.50206600  1
  Cu  Cu2  1  0.57932600  0.69970900  0.25202300  1
  Cu  Cu3  1  0.07627800  0.25352900  0.24883700  1
  Cu  Cu4  1  0.31398400  0.14196900  0.00040400  1
  Cu  Cu5  1  0.69970900  0.57932600  0.75202300  1
  Cu  Cu6  1  0.81484100  0.69840500  0.00258100  1
  Cu  Cu7  1  0.25352900  0.07627800  0.74883700  1
  Cu  Cu8  1  0.14196900  0.31398400  0.50040400  1
  Cu  Cu9  1  0.69840500  0.81484100  0.50258100  1
  Cu  Cu10  1  0.57256700  0.20150000  0.25191800  1
  Cu  Cu11  1  0.08230600  0.75288100  0.25027900  1
  Cu  Cu12  1  0.31583500  0.64031400  0.00142700  1
  Cu  Cu13  1  0.20150000  0.57256700  0.75191800  1
  Cu  Cu14  1  0.75288100  0.08230600  0.75027900  1
  Cu  Cu15  1  0.64031400  0.31583500  0.50142700  1
  P  P0  1  0.91401000  0.10051400  0.19159800  1
  P  P1  1  0.10051400  0.91401000  0.69159800  1
  P  P2  1  0.98335400  0.16627400  0.44031800  1
  P  P3  1  0.54167100  0.66460200  0.44077100  1
  P  P4  1  0.16627400  0.98335400  0.94031800  1
  P  P5  1  0.66460200  0.54167100  0.94077100  1
  P  P6  1  0.41615800  0.04437700  0.18991400  1
  P  P7  1  0.91701500  0.60046600  0.19194100  1
  P  P8  1  0.04437700  0.41615800  0.68991400  1
  P  P9  1  0.60046600  0.91701500  0.69194100  1
  P  P10  1  0.48263400  0.16581700  0.43948000  1
  P  P11  1  0.04240100  0.66338500  0.44175400  1
  P  P12  1  0.16581700  0.48263400  0.93948000  1
  P  P13  1  0.66338500  0.04240100  0.94175400  1
  P  P14  1  0.41738200  0.54668700  0.19025100  1
  P  P15  1  0.54668700  0.41738200  0.69025100  1
  O  O0  1  0.33873800  0.66232000  0.11541700  1
  O  O1  1  0.07758400  0.95375100  0.20322800  1
  O  O2  1  0.57780800  0.52960400  0.20044900  1
  O  O3  1  0.74328300  0.42127700  0.01441000  1
  O  O4  1  0.66232000  0.33873800  0.61541700  1
  O  O5  1  0.55677700  0.50689800  0.42610500  1
  O  O6  1  0.23527100  0.98966900  0.01805000  1
  O  O7  1  0.92997000  0.24908500  0.18197000  1
  O  O8  1  0.95375100  0.07758400  0.70322800  1
  O  O9  1  0.13257400  0.00329700  0.42741700  1
  O  O10  1  0.52960400  0.57780800  0.70044900  1
  O  O11  1  0.42127700  0.74328300  0.51441000  1
  O  O12  1  0.50689800  0.55677700  0.92610500  1
  O  O13  1  0.48064500  0.77697200  0.36169300  1
  O  O14  1  0.97933300  0.27888700  0.36444100  1
  O  O15  1  0.44218700  0.88102700  0.17759700  1
  O  O16  1  0.98966900  0.23527100  0.51805000  1
  O  O17  1  0.24908500  0.92997000  0.68197000  1
  O  O18  1  0.00329700  0.13257400  0.92741700  1
  O  O19  1  0.70347900  0.63593200  0.45839900  1
  O  O20  1  0.84231300  0.59847600  0.11536500  1
  O  O21  1  0.29977600  0.11369200  0.26691200  1
  O  O22  1  0.80526300  0.60481300  0.26906400  1
  O  O23  1  0.77697200  0.48064500  0.86169300  1
  O  O24  1  0.27888700  0.97933300  0.86444100  1
  O  O25  1  0.88102700  0.44218700  0.67759700  1
  O  O26  1  0.34273600  0.15896500  0.11402000  1
  O  O27  1  0.07932500  0.45046400  0.20147400  1
  O  O28  1  0.33854500  0.14357300  0.44942300  1
  O  O29  1  0.63593200  0.70347900  0.95839900  1
  O  O30  1  0.59847600  0.84231300  0.61536500  1
  O  O31  1  0.11369200  0.29977600  0.76691200  1
  O  O32  1  0.60481300  0.80526300  0.76906400  1
  O  O33  1  0.57537300  0.02844800  0.20247900  1
  O  O34  1  0.74095100  0.92312300  0.01600900  1
  O  O35  1  0.15896500  0.34273600  0.61402000  1
  O  O36  1  0.05807200  0.50630500  0.42630300  1
  O  O37  1  0.23903300  0.48585400  0.01629200  1
  O  O38  1  0.93712800  0.74662300  0.18221400  1
  O  O39  1  0.45046400  0.07932500  0.70147400  1
  O  O40  1  0.14357300  0.33854500  0.94942300  1
  O  O41  1  0.63384600  0.00413700  0.42744600  1
  O  O42  1  0.02844800  0.57537300  0.70247900  1
  O  O43  1  0.92312300  0.74095100  0.51600900  1
  O  O44  1  0.50630500  0.05807200  0.92630300  1
  O  O45  1  0.47732300  0.27796800  0.36239700  1
  O  O46  1  0.97936100  0.77761900  0.36382400  1
  O  O47  1  0.48585400  0.23903300  0.51629200  1
  O  O48  1  0.44075500  0.38445800  0.17729500  1
  O  O49  1  0.74662300  0.93712800  0.68221400  1
  O  O50  1  0.00413700  0.63384600  0.92744600  1
  O  O51  1  0.20494400  0.63429100  0.45912200  1
  O  O52  1  0.84482100  0.09442300  0.11382800  1
  O  O53  1  0.79929000  0.10400300  0.26678000  1
  O  O54  1  0.30672400  0.61448800  0.26935300  1
  O  O55  1  0.27796800  0.47732300  0.86239700  1
  O  O56  1  0.77761900  0.97936100  0.86382400  1
  O  O57  1  0.38445800  0.44075500  0.67729500  1
  O  O58  1  0.63429100  0.20494400  0.95912200  1
  O  O59  1  0.83723700  0.14742900  0.44995800  1
  O  O60  1  0.09442300  0.84482100  0.61382800  1
  O  O61  1  0.10400300  0.79929000  0.76678000  1
  O  O62  1  0.61448800  0.30672400  0.76935300  1
  O  O63  1  0.14742900  0.83723700  0.94995800  1
loop_
_geom_bond_atom_site_label_1
_geom_bond_atom_site_label_2
_geom_bond_distance
_geom_bond_site_symmetry_2
Li0 O6 1.932754 1_555
Li0 O0 1.969682 1_555
Li0 O1 1.984290 1_555
Li0 O15 1.995498 1_555
Li1 O3 1.948693 1_555
Li1 O2 1.971026 1_555
Li1 O7 1.974205 1_555
Li1 O20 1.979429 1_555
Li2 O16 1.932754 1_555
Li2 O4 1.969682 1_555
Li2 O8 1.984290 1_555
Li2 O25 1.995498 1_555
Li3 O11 1.948693 1_555
Li3 O10 1.971026 1_555
Li3 O17 1.974205 1_555
Li3 O30 1.979429 1_555
Li4 O21 1.960336 1_555
Li4 O9 1.983229 1_555
Li4 O13 2.009486 1_545
Li4 O28 2.015765 1_555
Li5 O22 1.973871 1_555
Li5 O36 1.997865 1_655
Li5 O19 1.999757 1_555
Li5 O14 2.017685 1_555
Li6 O31 1.960336 1_555
Li6 O18 1.983229 1_555
Li6 O23 2.009486 1_455
Li6 O40 2.015765 1_555
Li7 O32 1.973871 1_555
Li7 O44 1.997865 1_565
Li7 O29 1.999757 1_555
Li7 O24 2.017685 1_555
Li8 O37 1.939628 1_555
Li8 O26 1.975551 1_555
Li8 O27 1.984381 1_555
Li8 O48 1.993883 1_555
Li9 O34 1.950676 1_555
Li9 O52 1.973334 1_565
Li9 O33 1.985267 1_565
Li9 O38 1.995745 1_555
Li10 O47 1.939628 1_555
Li10 O35 1.975551 1_555
Li10 O39 1.984381 1_555
Li10 O57 1.993883 1_555
Li11 O43 1.950676 1_555
Li11 O60 1.973334 1_655
Li11 O42 1.985267 1_655
Li11 O49 1.995745 1_555
Li12 O53 1.942530 1_555
Li12 O41 1.985774 1_555
Li12 O59 2.007106 1_555
Li12 O46 2.011646 1_545
Li13 O54 1.990288 1_555
Li13 O45 2.002736 1_555
Li13 O51 2.002998 1_555
Li13 O5 2.010161 1_555
Li14 O61 1.942530 1_555
Li14 O50 1.985774 1_555
Li14 O63 2.007106 1_555
Li14 O56 2.011646 1_455
Li15 O62 1.990288 1_555
Li15 O55 2.002736 1_555
Li15 O58 2.002998 1_555
Li15 O12 2.010161 1_555
Cu0 O18 1.947193 1_654
Cu0 O52 1.951538 1_555
Cu0 O58 1.982472 1_554
Cu0 O3 2.007551 1_555
Cu1 O9 1.947193 1_565
Cu1 O60 1.951538 1_555
Cu1 O51 1.982472 1_555
Cu1 O11 2.007551 1_555
Cu2 O13 1.977567 1_555
Cu2 O15 1.987351 1_555
Cu2 O22 1.992505 1_555
Cu2 O2 2.004516 1_555
Cu3 O7 1.962240 1_455
Cu3 O21 1.971428 1_555
Cu3 O14 1.992440 1_455
Cu3 O27 2.027082 1_555
Cu4 O44 1.963480 1_554
Cu4 O26 1.964175 1_555
Cu4 O40 1.989668 1_554
Cu4 O6 2.014346 1_545
Cu5 O23 1.977567 1_555
Cu5 O25 1.987351 1_555
Cu5 O32 1.992505 1_555
Cu5 O10 2.004516 1_555
Cu6 O50 1.958651 1_654
Cu6 O20 1.960063 1_555
Cu6 O29 1.991320 1_554
Cu6 O34 2.004416 1_555
Cu7 O17 1.962240 1_545
Cu7 O31 1.971428 1_555
Cu7 O24 1.992440 1_545
Cu7 O39 2.027082 1_555
Cu8 O36 1.963480 1_555
Cu8 O35 1.964175 1_555
Cu8 O28 1.989668 1_555
Cu8 O16 2.014346 1_455
Cu9 O41 1.958651 1_565
Cu9 O30 1.960063 1_555
Cu9 O19 1.991320 1_555
Cu9 O43 2.004416 1_555
Cu10 O45 1.981685 1_555
Cu10 O48 1.981759 1_555
Cu10 O53 1.988701 1_555
Cu10 O33 1.991522 1_555
Cu11 O38 1.974691 1_455
Cu11 O54 1.980712 1_555
Cu11 O46 1.980831 1_455
Cu11 O1 2.027537 1_555
Cu12 O12 1.965988 1_554
Cu12 O0 1.966794 1_555
Cu12 O63 1.986576 1_554
Cu12 O37 2.021218 1_555
Cu13 O55 1.981685 1_555
Cu13 O57 1.981759 1_555
Cu13 O61 1.988701 1_555
Cu13 O42 1.991522 1_555
Cu14 O49 1.974691 1_545
Cu14 O62 1.980712 1_555
Cu14 O56 1.980831 1_545
Cu14 O8 2.027537 1_555
Cu15 O5 1.965988 1_555
Cu15 O4 1.966794 1_555
Cu15 O59 1.986576 1_555
Cu15 O47 2.021218 1_555
O0 P14 1.549111 1_555
O1 P0 1.550386 1_465
O2 P14 1.551391 1_555
O3 P5 1.553206 1_554
O4 P15 1.549111 1_555
O5 P3 1.551968 1_555
O6 P4 1.550955 1_554
O7 P0 1.556382 1_555
O8 P1 1.550386 1_645
O9 P2 1.559593 1_455
O10 P15 1.551391 1_555
O11 P3 1.553206 1_555
O12 P5 1.551968 1_555
O13 P3 1.557876 1_555
O14 P2 1.548825 1_555
O15 P6 1.551801 1_565
O16 P2 1.550955 1_555
O17 P1 1.556382 1_555
O18 P4 1.559593 1_545
O19 P3 1.550727 1_555
O20 P7 1.551505 1_555
O21 P6 1.560342 1_555
O22 P7 1.557481 1_555
O23 P5 1.557876 1_555
O24 P4 1.548825 1_555
O25 P8 1.551801 1_655
O26 P6 1.547023 1_555
O27 P7 1.551858 1_455
O28 P10 1.548983 1_555
O29 P5 1.550727 1_555
O30 P9 1.551505 1_555
O31 P8 1.560342 1_555
O32 P9 1.557481 1_555
O33 P6 1.553980 1_555
O34 P13 1.553811 1_564
O35 P8 1.547023 1_555
O36 P11 1.546983 1_555
O37 P12 1.550631 1_554
O38 P7 1.556764 1_555
O39 P9 1.551858 1_545
O40 P12 1.548983 1_555
O41 P10 1.558452 1_555
O42 P8 1.553980 1_555
O43 P11 1.553811 1_655
O44 P13 1.546983 1_555
O45 P10 1.557182 1_555
O46 P11 1.553566 1_655
O47 P10 1.550631 1_555
O48 P14 1.553961 1_555
O49 P9 1.556764 1_555
O50 P12 1.558452 1_555
O51 P11 1.554996 1_555
O52 P0 1.551764 1_555
O53 P0 1.554968 1_555
O54 P14 1.562285 1_555
O55 P12 1.557182 1_555
O56 P13 1.553566 1_565
O57 P15 1.553961 1_555
O58 P13 1.554996 1_555
O59 P2 1.548918 1_555
O60 P1 1.551764 1_555
O61 P1 1.554968 1_555
O62 P15 1.562285 1_555
O63 P4 1.548918 1_555
