# generated using pymatgen
data_CSN2
_symmetry_space_group_name_H-M   'P 1'
_cell_length_a   5.16801100
_cell_length_b   6.23680300
_cell_length_c   7.97782600
_cell_angle_alpha   90.00000000
_cell_angle_beta   90.00000000
_cell_angle_gamma   90.00000000
_symmetry_Int_Tables_number   1
_chemical_formula_structural   CSN2
_chemical_formula_sum   'C4 S4 N8'
_cell_volume   257.14022266
_cell_formula_units_Z   4
loop_
 _symmetry_equiv_pos_site_id
 _symmetry_equiv_pos_as_xyz
  1  'x, y, z'
loop_
 _atom_site_type_symbol
 _atom_site_label
 _atom_site_symmetry_multiplicity
 _atom_site_fract_x
 _atom_site_fract_y
 _atom_site_fract_z
 _atom_site_occupancy
  C  C0  1  0.98072300  0.56005000  0.00000000  1
  C  C1  1  0.01927700  0.06005000  0.00000000  1
  C  C2  1  0.51958600  0.41718000  0.50000000  1
  C  C3  1  0.48041400  0.91718000  0.50000000  1
  S  S0  1  0.78278400  0.32158000  0.00000000  1
  S  S1  1  0.21721600  0.82158000  0.00000000  1
  S  S2  1  0.71934100  0.65627500  0.50000000  1
  S  S3  1  0.28065900  0.15627500  0.50000000  1
  N  N0  1  0.05858200  0.65760500  0.14250300  1
  N  N1  1  0.05858200  0.65760500  0.85749700  1
  N  N2  1  0.94141800  0.15760500  0.85749700  1
  N  N3  1  0.94141800  0.15760500  0.14250300  1
  N  N4  1  0.44028600  0.32004600  0.35755300  1
  N  N5  1  0.44028600  0.32004600  0.64244700  1
  N  N6  1  0.55971400  0.82004600  0.64244700  1
  N  N7  1  0.55971400  0.82004600  0.35755300  1
loop_
_geom_bond_atom_site_label_1
_geom_bond_atom_site_label_2
_geom_bond_distance
_geom_bond_site_symmetry_2
C0 N0 1.350761 1_655
C0 N1 1.350761 1_654
C0 S0 1.805121 1_555
C1 N3 1.350761 1_455
C1 N2 1.350761 1_454
C1 S1 1.805121 1_545
C2 N5 1.351444 1_555
C2 N4 1.351444 1_555
C2 S2 1.813659 1_555
C3 N7 1.351444 1_555
C3 N6 1.351444 1_555
C3 S3 1.813659 1_565
N0 S1 1.735063 1_555
N1 S1 1.735063 1_556
N2 S0 1.735063 1_556
N3 S0 1.735063 1_555
N4 S3 1.736452 1_555
N5 S3 1.736452 1_555
N6 S2 1.736452 1_555
N7 S2 1.736452 1_555
