# generated using pymatgen
data_Li5(FeO2)4
_symmetry_space_group_name_H-M   'P 1'
_cell_length_a   6.00873523
_cell_length_b   6.00873523
_cell_length_c   9.91845139
_cell_angle_alpha   89.83584827
_cell_angle_beta   89.83584827
_cell_angle_gamma   119.70698243
_symmetry_Int_Tables_number   1
_chemical_formula_structural   Li5(FeO2)4
_chemical_formula_sum   'Li10 Fe8 O16'
_cell_volume   311.03433036
_cell_formula_units_Z   2
loop_
 _symmetry_equiv_pos_site_id
 _symmetry_equiv_pos_as_xyz
  1  'x, y, z'
loop_
 _atom_site_type_symbol
 _atom_site_label
 _atom_site_symmetry_multiplicity
 _atom_site_fract_x
 _atom_site_fract_y
 _atom_site_fract_z
 _atom_site_occupancy
  Li  Li0  1  0.81034200  0.20332100  0.95665900  1
  Li  Li1  1  0.39506000  0.19773800  0.96031800  1
  Li  Li2  1  0.66265800  0.33031800  0.74007000  1
  Li  Li3  1  0.80530300  0.61026400  0.95703400  1
  Li  Li4  1  0.19773800  0.39506000  0.46031800  1
  Li  Li5  1  0.61026400  0.80530300  0.45703400  1
  Li  Li6  1  0.99951000  0.99669700  0.52601200  1
  Li  Li7  1  0.33031800  0.66265800  0.24007000  1
  Li  Li8  1  0.99669700  0.99951000  0.02601200  1
  Li  Li9  1  0.20332100  0.81034200  0.45665900  1
  Fe  Fe0  1  0.66329900  0.32453500  0.48497400  1
  Fe  Fe1  1  0.32453500  0.66329900  0.98497400  1
  Fe  Fe2  1  0.83041000  0.16539500  0.22682500  1
  Fe  Fe3  1  0.33620700  0.16664300  0.22595300  1
  Fe  Fe4  1  0.82804400  0.65576000  0.22799000  1
  Fe  Fe5  1  0.16664300  0.33620700  0.72595300  1
  Fe  Fe6  1  0.65576000  0.82804400  0.72799000  1
  Fe  Fe7  1  0.16539500  0.83041000  0.72682500  1
  O  O0  1  0.82771700  0.15611500  0.60254000  1
  O  O1  1  0.51645900  0.01718800  0.34954200  1
  O  O2  1  0.68191000  0.33785000  0.10709400  1
  O  O3  1  0.33180300  0.15219700  0.59822000  1
  O  O4  1  0.98323000  0.48659400  0.35068200  1
  O  O5  1  0.52085700  0.49734500  0.35655700  1
  O  O6  1  0.15219700  0.33180300  0.09822000  1
  O  O7  1  0.83414100  0.66445700  0.60678100  1
  O  O8  1  0.49734500  0.52085700  0.85655700  1
  O  O9  1  0.66445700  0.83414100  0.10678100  1
  O  O10  1  0.33785000  0.68191000  0.60709400  1
  O  O11  1  0.98841700  0.97840300  0.83710600  1
  O  O12  1  0.01718800  0.51645900  0.84954100  1
  O  O13  1  0.48659400  0.98323000  0.85068200  1
  O  O14  1  0.15611500  0.82771700  0.10254000  1
  O  O15  1  0.97840300  0.98841700  0.33710600  1
loop_
_geom_bond_atom_site_label_1
_geom_bond_atom_site_label_2
_geom_bond_distance
_geom_bond_site_symmetry_2
Li0 O12 1.969007 1_655
Li0 O2 2.023332 1_556
Li0 O13 2.026803 1_545
Li0 O6 2.288624 1_656
Li0 O11 2.410940 1_545
Li0 O9 2.439804 1_546
Li1 O13 1.963041 1_545
Li1 O8 2.002170 1_555
Li1 O2 2.093349 1_556
Li1 O14 2.408550 1_546
Li1 O6 2.410248 1_556
Li1 O11 2.456688 1_445
Li2 O13 2.113253 1_545
Li2 O12 2.150971 1_655
Li2 O8 2.181864 1_555
Li2 O7 2.183365 1_555
Li2 O0 2.229220 1_555
Li2 O3 2.234496 1_555
Li3 O8 1.932420 1_555
Li3 O12 1.944804 1_655
Li3 O2 2.054538 1_556
Li3 O11 2.254735 1_555
Li3 O14 2.351990 1_656
Li3 O9 2.421663 1_556
Li4 O4 1.963041 1_455
Li4 O5 2.002170 1_555
Li4 O10 2.093349 1_555
Li4 O0 2.408550 1_455
Li4 O3 2.410248 1_555
Li4 O15 2.456688 1_445
Li5 O5 1.932420 1_555
Li5 O1 1.944798 1_565
Li5 O10 2.054538 1_555
Li5 O15 2.254735 1_555
Li5 O0 2.351990 1_565
Li5 O7 2.421663 1_555
Li6 O15 1.877441 1_555
Li6 O3 1.880317 1_665
Li6 O0 1.881217 1_565
Li6 O7 1.906488 1_555
Li7 O4 2.113253 1_455
Li7 O1 2.150976 1_565
Li7 O5 2.181864 1_555
Li7 O9 2.183365 1_555
Li7 O14 2.229220 1_555
Li7 O6 2.234496 1_555
Li8 O11 1.877441 1_554
Li8 O6 1.880317 1_665
Li8 O14 1.881217 1_655
Li8 O9 1.906488 1_555
Li9 O1 1.969002 1_565
Li9 O10 2.023332 1_555
Li9 O4 2.026803 1_455
Li9 O3 2.288624 1_565
Li9 O15 2.410940 1_455
Li9 O7 2.439804 1_455
Fe0 O3 2.058563 1_555
Fe0 O5 2.076679 1_555
Fe0 O0 2.085820 1_555
Fe0 O1 2.097486 1_555
Fe0 O4 2.130836 1_555
Fe0 O7 2.151355 1_555
Fe1 O6 2.058563 1_556
Fe1 O8 2.076679 1_555
Fe1 O14 2.085820 1_556
Fe1 O12 2.097492 1_555
Fe1 O13 2.130836 1_555
Fe1 O9 2.151355 1_556
Fe2 O15 2.013508 1_545
Fe2 O1 2.036863 1_555
Fe2 O2 2.048340 1_555
Fe2 O4 2.083451 1_555
Fe2 O9 2.104035 1_545
Fe2 O6 2.104229 1_655
Fe3 O1 2.108905 1_555
Fe3 O2 2.150363 1_555
Fe3 O14 2.157403 1_545
Fe3 O15 2.163848 1_445
Fe3 O5 2.166899 1_555
Fe3 O6 2.213773 1_555
Fe4 O5 2.043852 1_555
Fe4 O15 2.052087 1_555
Fe4 O2 2.052942 1_555
Fe4 O4 2.079048 1_555
Fe4 O14 2.112253 1_655
Fe4 O9 2.145682 1_555
Fe5 O12 2.108899 1_555
Fe5 O10 2.150363 1_555
Fe5 O0 2.157403 1_455
Fe5 O11 2.163848 1_445
Fe5 O8 2.166899 1_555
Fe5 O3 2.213773 1_555
Fe6 O8 2.043852 1_555
Fe6 O11 2.052087 1_555
Fe6 O10 2.052942 1_555
Fe6 O13 2.079048 1_555
Fe6 O0 2.112253 1_565
Fe6 O7 2.145682 1_555
Fe7 O11 2.013508 1_455
Fe7 O12 2.036857 1_555
Fe7 O10 2.048340 1_555
Fe7 O13 2.083451 1_555
Fe7 O7 2.104035 1_455
Fe7 O3 2.104229 1_565
