# generated using pymatgen
data_Co2C2O7
_symmetry_space_group_name_H-M   'P 1'
_cell_length_a   4.88938651
_cell_length_b   4.88938651
_cell_length_c   15.93355707
_cell_angle_alpha   89.15926169
_cell_angle_beta   89.15926169
_cell_angle_gamma   119.89167332
_symmetry_Int_Tables_number   1
_chemical_formula_structural   Co2C2O7
_chemical_formula_sum   'Co4 C4 O14'
_cell_volume   330.09478620
_cell_formula_units_Z   2
loop_
 _symmetry_equiv_pos_site_id
 _symmetry_equiv_pos_as_xyz
  1  'x, y, z'
loop_
 _atom_site_type_symbol
 _atom_site_label
 _atom_site_symmetry_multiplicity
 _atom_site_fract_x
 _atom_site_fract_y
 _atom_site_fract_z
 _atom_site_occupancy
  Co  Co0  1  0.34226800  0.67100700  0.86213500  1
  Co  Co1  1  0.32899300  0.65773200  0.63786500  1
  Co  Co2  1  0.65773200  0.32899300  0.13786500  1
  Co  Co3  1  0.67100700  0.34226800  0.36213500  1
  C  C0  1  0.66852000  0.33541900  0.90291500  1
  C  C1  1  0.66458100  0.33148000  0.59708500  1
  C  C2  1  0.33541900  0.66852000  0.40291500  1
  C  C3  1  0.33148000  0.66458100  0.09708500  1
  O  O0  1  0.06360100  0.65597600  0.40267200  1
  O  O1  1  0.41073900  0.34871700  0.90681600  1
  O  O2  1  0.34402400  0.93639900  0.09732800  1
  O  O3  1  0.40613100  0.06326300  0.59977400  1
  O  O4  1  0.06326300  0.40613100  0.09977400  1
  O  O5  1  0.65128300  0.58926100  0.59318400  1
  O  O6  1  0.33351500  0.66648500  0.75000000  1
  O  O7  1  0.66648500  0.33351500  0.25000000  1
  O  O8  1  0.93673700  0.59386900  0.90022600  1
  O  O9  1  0.34871700  0.41073900  0.40681600  1
  O  O10  1  0.65597600  0.06360100  0.90267200  1
  O  O11  1  0.59386900  0.93673700  0.40022600  1
  O  O12  1  0.93639900  0.34402400  0.59732800  1
  O  O13  1  0.58926100  0.65128300  0.09318400  1
loop_
_geom_bond_atom_site_label_1
_geom_bond_atom_site_label_2
_geom_bond_distance
_geom_bond_site_symmetry_2
Co0 O6 1.788047 1_555
Co0 O10 1.893497 1_565
Co0 O1 1.897882 1_555
Co0 O8 1.911723 1_455
Co1 O6 1.788047 1_555
Co1 O12 1.893497 1_455
Co1 O5 1.897882 1_555
Co1 O3 1.911723 1_565
Co2 O7 1.788047 1_555
Co2 O2 1.893497 1_545
Co2 O13 1.897882 1_555
Co2 O4 1.911723 1_655
Co3 O7 1.788047 1_555
Co3 O0 1.893497 1_655
Co3 O9 1.897882 1_555
Co3 O11 1.911723 1_545
C0 O8 1.289766 1_555
C0 O1 1.294672 1_555
C0 O10 1.299612 1_555
C1 O3 1.289766 1_555
C1 O5 1.294672 1_555
C1 O12 1.299612 1_555
C2 O11 1.289766 1_555
C2 O9 1.294672 1_555
C2 O0 1.299612 1_555
C3 O4 1.289766 1_555
C3 O13 1.294672 1_555
C3 O2 1.299612 1_555
