# generated using pymatgen
data_W5O14
_symmetry_space_group_name_H-M   'P 1'
_cell_length_a   27.87306600
_cell_length_b   27.87306600
_cell_length_c   3.70585100
_cell_angle_alpha   90.00000000
_cell_angle_beta   90.00000000
_cell_angle_gamma   90.00000000
_symmetry_Int_Tables_number   1
_chemical_formula_structural   W5O14
_chemical_formula_sum   'W40 O112'
_cell_volume   2879.10457808
_cell_formula_units_Z   8
loop_
 _symmetry_equiv_pos_site_id
 _symmetry_equiv_pos_as_xyz
  1  'x, y, z'
loop_
 _atom_site_type_symbol
 _atom_site_label
 _atom_site_symmetry_multiplicity
 _atom_site_fract_x
 _atom_site_fract_y
 _atom_site_fract_z
 _atom_site_occupancy
  W  W0  1  0.17420500  0.23315300  0.90813400  1
  W  W1  1  0.26684700  0.32579500  0.90813400  1
  W  W2  1  0.57802200  0.39701300  0.05681600  1
  W  W3  1  0.56678900  0.78838300  0.78875100  1
  W  W4  1  0.06678900  0.71161700  0.21124900  1
  W  W5  1  0.07802200  0.10298700  0.94318400  1
  W  W6  1  0.73315300  0.67420500  0.90813400  1
  W  W7  1  0.10298700  0.92197800  0.05681600  1
  W  W8  1  0.63545600  0.86454400  0.54807800  1
  W  W9  1  0.89701300  0.07802200  0.05681600  1
  W  W10  1  0.13545600  0.63545600  0.45192200  1
  W  W11  1  0.36308800  0.95845000  0.73800600  1
  W  W12  1  0.60298700  0.57802200  0.94318400  1
  W  W13  1  0.54155000  0.13691200  0.73800600  1
  W  W14  1  0.71161700  0.93321100  0.78875100  1
  W  W15  1  0.76684700  0.17420500  0.09186600  1
  W  W16  1  0.93321100  0.28838300  0.21124900  1
  W  W17  1  0.21161700  0.56678900  0.21124900  1
  W  W18  1  0.13691200  0.45845000  0.26199400  1
  W  W19  1  0.92197800  0.89701300  0.94318400  1
  W  W20  1  0.45845000  0.86308800  0.73800600  1
  W  W21  1  0.28838300  0.06678900  0.78875100  1
  W  W22  1  0.23315300  0.82579500  0.09186600  1
  W  W23  1  0.70417400  0.79582600  0.81803300  1
  W  W24  1  0.29582600  0.20417400  0.81803300  1
  W  W25  1  0.78838300  0.43321100  0.21124900  1
  W  W26  1  0.32579500  0.73315300  0.09186600  1
  W  W27  1  0.79582600  0.29582600  0.18196700  1
  W  W28  1  0.82579500  0.76684700  0.90813400  1
  W  W29  1  0.39701300  0.42197800  0.94318400  1
  W  W30  1  0.43321100  0.21161700  0.78875100  1
  W  W31  1  0.63691200  0.04155000  0.73800600  1
  W  W32  1  0.42197800  0.60298700  0.05681600  1
  W  W33  1  0.04155000  0.36308800  0.26199400  1
  W  W34  1  0.67420500  0.26684700  0.09186600  1
  W  W35  1  0.95845000  0.63691200  0.26199400  1
  W  W36  1  0.86308800  0.54155000  0.26199400  1
  W  W37  1  0.20417400  0.70417400  0.18196700  1
  W  W38  1  0.86454400  0.36454400  0.45192200  1
  W  W39  1  0.36454400  0.13545600  0.54807800  1
  O  O0  1  0.58615800  0.72955000  0.78400800  1
  O  O1  1  0.90811000  0.49926500  0.26690700  1
  O  O2  1  0.09189000  0.50073500  0.26690700  1
  O  O3  1  0.62821900  0.57613200  0.44594200  1
  O  O4  1  0.88697300  0.38697300  0.02393100  1
  O  O5  1  0.63828800  0.25489800  0.56304700  1
  O  O6  1  0.75489800  0.13828800  0.56304700  1
  O  O7  1  0.06355500  0.87330300  0.06029700  1
  O  O8  1  0.63986000  0.31777200  0.97965900  1
  O  O9  1  0.89936300  0.60063700  0.25880100  1
  O  O10  1  0.43644500  0.37330300  0.93970300  1
  O  O11  1  0.62669700  0.43644500  0.06029700  1
  O  O12  1  0.31610100  0.18389900  0.29555500  1
  O  O13  1  0.85950100  0.71211100  0.68791600  1
  O  O14  1  0.65191900  0.05197900  0.23981100  1
  O  O15  1  0.91384200  0.22955000  0.21599200  1
  O  O16  1  0.72513600  0.29782100  0.33061500  1
  O  O17  1  0.50073500  0.90811000  0.73309300  1
  O  O18  1  0.97168500  0.93393400  0.93486600  1
  O  O19  1  0.20217900  0.77486400  0.33061500  1
  O  O20  1  0.13828800  0.24510200  0.43695300  1
  O  O21  1  0.49926500  0.09189000  0.73309300  1
  O  O22  1  0.18222800  0.86014000  0.97965900  1
  O  O23  1  0.93393400  0.02831500  0.06513400  1
  O  O24  1  0.64049900  0.21211100  0.31208400  1
  O  O25  1  0.28788900  0.85950100  0.31208400  1
  O  O26  1  0.27045000  0.58615800  0.21599200  1
  O  O27  1  0.56355500  0.62669700  0.93970300  1
  O  O28  1  0.00089400  0.69513000  0.24869200  1
  O  O29  1  0.31777200  0.36014000  0.02034100  1
  O  O30  1  0.36014000  0.68222800  0.97965900  1
  O  O31  1  0.52831500  0.43393400  0.06513400  1
  O  O32  1  0.70217900  0.72513600  0.66938500  1
  O  O33  1  0.77045000  0.91384200  0.78400800  1
  O  O34  1  0.59189000  0.99926500  0.73309300  1
  O  O35  1  0.30728700  0.07808000  0.28116400  1
  O  O36  1  0.07613200  0.12821900  0.44594200  1
  O  O37  1  0.37178100  0.42386800  0.44594200  1
  O  O38  1  0.41384200  0.27045000  0.78400800  1
  O  O39  1  0.22440100  0.27559900  0.13154700  1
  O  O40  1  0.77559900  0.72440100  0.13154700  1
  O  O41  1  0.14049900  0.28788900  0.68791600  1
  O  O42  1  0.06606600  0.97168500  0.06513400  1
  O  O43  1  0.12821900  0.92386800  0.55405800  1
  O  O44  1  0.50089400  0.80487000  0.75130800  1
  O  O45  1  0.86171200  0.75489800  0.43695300  1
  O  O46  1  0.93644500  0.12669700  0.06029700  1
  O  O47  1  0.87178100  0.07613200  0.55405800  1
  O  O48  1  0.24510200  0.86171200  0.56304700  1
  O  O49  1  0.07808000  0.69271300  0.71883600  1
  O  O50  1  0.68222800  0.63986000  0.02034100  1
  O  O51  1  0.79782100  0.22513600  0.33061500  1
  O  O52  1  0.22513600  0.20217900  0.66938500  1
  O  O53  1  0.08615800  0.77045000  0.21599200  1
  O  O54  1  0.92386800  0.87178100  0.44594200  1
  O  O55  1  0.61302700  0.88697300  0.97606900  1
  O  O56  1  0.02831500  0.06606600  0.93486600  1
  O  O57  1  0.13986000  0.18222800  0.02034100  1
  O  O58  1  0.55197900  0.15191900  0.23981100  1
  O  O59  1  0.47168500  0.56606600  0.06513400  1
  O  O60  1  0.78788900  0.64049900  0.68791600  1
  O  O61  1  0.11302700  0.61302700  0.02393100  1
  O  O62  1  0.39936300  0.89936300  0.74119900  1
  O  O63  1  0.69271300  0.92192000  0.28116400  1
  O  O64  1  0.21211100  0.35950100  0.68791600  1
  O  O65  1  0.87330300  0.93644500  0.93970300  1
  O  O66  1  0.25489800  0.36171200  0.43695300  1
  O  O67  1  0.99910600  0.30487000  0.24869200  1
  O  O68  1  0.81610100  0.31610100  0.70444500  1
  O  O69  1  0.15191900  0.44802100  0.76018900  1
  O  O70  1  0.86014000  0.81777200  0.02034100  1
  O  O71  1  0.44802100  0.84808100  0.23981100  1
  O  O72  1  0.81777200  0.13986000  0.97965900  1
  O  O73  1  0.35950100  0.78788900  0.31208400  1
  O  O74  1  0.18389900  0.68389900  0.70444500  1
  O  O75  1  0.34808100  0.94802100  0.23981100  1
  O  O76  1  0.12669700  0.06355500  0.93970300  1
  O  O77  1  0.29782100  0.27486400  0.66938500  1
  O  O78  1  0.60063700  0.10063700  0.74119900  1
  O  O79  1  0.69513000  0.99910600  0.75130800  1
  O  O80  1  0.80728700  0.42192000  0.71883600  1
  O  O81  1  0.10063700  0.39936300  0.25880100  1
  O  O82  1  0.57808000  0.80728700  0.28116400  1
  O  O83  1  0.74510200  0.63828800  0.43695300  1
  O  O84  1  0.49910600  0.19513000  0.75130800  1
  O  O85  1  0.38697300  0.11302700  0.97606900  1
  O  O86  1  0.05197900  0.34808100  0.76018900  1
  O  O87  1  0.40811000  0.00073500  0.73309300  1
  O  O88  1  0.77486400  0.79782100  0.66938500  1
  O  O89  1  0.72955000  0.41384200  0.21599200  1
  O  O90  1  0.94802100  0.65191900  0.76018900  1
  O  O91  1  0.27486400  0.70217900  0.33061500  1
  O  O92  1  0.42386800  0.62821900  0.55405800  1
  O  O93  1  0.99926500  0.40811000  0.26690700  1
  O  O94  1  0.30487000  0.00089400  0.75130800  1
  O  O95  1  0.71211100  0.14049900  0.31208400  1
  O  O96  1  0.68389900  0.81610100  0.29555500  1
  O  O97  1  0.27559900  0.77559900  0.86845300  1
  O  O98  1  0.36171200  0.74510200  0.56304700  1
  O  O99  1  0.19271300  0.57808000  0.71883600  1
  O  O100  1  0.43393400  0.47168500  0.93486600  1
  O  O101  1  0.84808100  0.55197900  0.76018900  1
  O  O102  1  0.57613200  0.37178100  0.55405800  1
  O  O103  1  0.00073500  0.59189000  0.26690700  1
  O  O104  1  0.37330300  0.56355500  0.06029700  1
  O  O105  1  0.92192000  0.30728700  0.71883600  1
  O  O106  1  0.72440100  0.22440100  0.86845300  1
  O  O107  1  0.80487000  0.49910600  0.24869200  1
  O  O108  1  0.42192000  0.19271300  0.28116400  1
  O  O109  1  0.19513000  0.50089400  0.24869200  1
  O  O110  1  0.22955000  0.08615800  0.78400800  1
  O  O111  1  0.56606600  0.52831500  0.93486600  1
loop_
_geom_bond_atom_site_label_1
_geom_bond_atom_site_label_2
_geom_bond_distance
_geom_bond_site_symmetry_2
O0 W3 1.726528 1_555
O1 W36 1.721696 1_555
O2 W18 1.721696 1_555
O3 W12 1.973058 1_555
O3 W12 1.992162 1_554
O4 W38 1.815842 1_555
O4 W38 2.296765 1_554
O5 W34 2.040127 1_555
O5 W34 2.225687 1_556
O6 O95 1.513626 1_555
O6 W15 2.040127 1_555
O6 W15 2.225687 1_556
O7 W7 1.746099 1_555
O8 W34 1.761854 1_556
O9 W36 1.932576 1_555
O9 W35 1.932576 1_555
O10 W29 1.746099 1_555
O11 W2 1.746099 1_555
O12 W24 1.941729 1_554
O12 W24 2.094685 1_555
O12 W39 2.126528 1_555
O13 O45 1.513626 1_555
O13 W28 1.968830 1_555
O14 W31 1.915217 1_555
O14 W31 1.928117 1_554
O15 W16 1.726528 1_555
O16 W34 1.882404 1_555
O16 W27 2.046659 1_555
O17 W20 1.721696 1_555
O18 W19 1.726144 1_555
O19 W22 1.882404 1_555
O19 W37 2.046659 1_555
O20 O41 1.513626 1_555
O20 W0 2.040127 1_555
O20 W0 2.225687 1_554
O21 W13 1.721696 1_555
O22 W22 1.761854 1_556
O23 W9 1.726144 1_555
O24 O5 1.513626 1_555
O24 W34 1.968830 1_555
O25 O48 1.513626 1_555
O25 W22 1.968830 1_555
O26 W17 1.726528 1_555
O27 W12 1.746099 1_555
O28 W4 1.898390 1_555
O28 W35 2.008787 1_455
O29 W1 1.761854 1_554
O30 W26 1.761854 1_556
O31 W2 1.726144 1_555
O32 W6 1.882404 1_555
O32 W23 2.046659 1_555
O33 W14 1.726528 1_555
O34 W31 1.721696 1_565
O35 W21 1.925256 1_554
O35 W21 1.978636 1_555
O35 W39 2.466369 1_555
O36 W5 1.973058 1_555
O36 W5 1.992162 1_554
O37 W29 1.973058 1_555
O37 W29 1.992162 1_554
O38 W30 1.726528 1_555
O39 W0 2.010654 1_554
O39 W1 2.010654 1_554
O40 W6 2.010654 1_554
O40 W28 2.010654 1_554
O41 W0 1.968830 1_555
O42 W7 1.726144 1_555
O43 W7 1.973058 1_555
O43 W7 1.992162 1_556
O44 W3 1.898390 1_555
O44 W20 2.008787 1_555
O45 W28 2.040127 1_555
O45 W28 2.225687 1_554
O46 W9 1.746099 1_555
O47 W9 1.973058 1_555
O47 W9 1.992162 1_556
O48 W22 2.040127 1_555
O48 W22 2.225687 1_556
O49 W4 1.925256 1_556
O49 W4 1.978636 1_555
O49 W10 2.466369 1_555
O50 W6 1.761854 1_554
O51 W15 1.882404 1_555
O51 W27 2.046659 1_555
O52 W0 1.882404 1_555
O52 W24 2.046659 1_555
O53 W4 1.726528 1_555
O54 W19 1.973058 1_555
O54 W19 1.992162 1_554
O55 W8 1.815842 1_555
O55 W8 2.296765 1_556
O56 W5 1.726144 1_555
O57 W0 1.761854 1_554
O58 W13 1.915217 1_555
O58 W13 1.928117 1_554
O59 W32 1.726144 1_555
O60 O83 1.513626 1_555
O60 W6 1.968830 1_555
O61 W10 1.815842 1_555
O61 W10 2.296765 1_554
O62 W20 1.932576 1_555
O62 W11 1.932576 1_555
O63 W14 1.925256 1_554
O63 W14 1.978636 1_555
O63 W8 2.466369 1_555
O64 O66 1.513626 1_555
O64 W1 1.968830 1_555
O65 W19 1.746099 1_555
O66 W1 2.040127 1_555
O66 W1 2.225687 1_554
O67 W16 1.898390 1_555
O67 W33 2.008787 1_655
O68 W27 1.941729 1_556
O68 W27 2.094685 1_555
O68 W38 2.126528 1_555
O69 W18 1.915217 1_555
O69 W18 1.928117 1_556
O70 W28 1.761854 1_554
O71 W20 1.915217 1_555
O71 W20 1.928117 1_554
O72 W15 1.761854 1_556
O73 O98 1.513626 1_555
O73 W26 1.968830 1_555
O74 W37 1.941729 1_556
O74 W37 2.094685 1_555
O74 W10 2.126528 1_555
O75 W11 1.915217 1_555
O75 W11 1.928117 1_554
O76 W5 1.746099 1_555
O77 W1 1.882404 1_555
O77 W24 2.046659 1_555
O78 W31 1.932576 1_555
O78 W13 1.932576 1_555
O79 W14 1.898390 1_555
O79 W31 2.008787 1_565
O80 W25 1.925256 1_556
O80 W25 1.978636 1_555
O80 W38 2.466369 1_555
O81 W33 1.932576 1_555
O81 W18 1.932576 1_555
O82 W3 1.925256 1_554
O82 W3 1.978636 1_555
O82 W8 2.466369 1_555
O83 W6 2.040127 1_555
O83 W6 2.225687 1_554
O84 W30 1.898390 1_555
O84 W13 2.008787 1_555
O85 W39 1.815842 1_555
O85 W39 2.296765 1_556
O86 W33 1.915217 1_555
O86 W33 1.928117 1_556
O87 W11 1.721696 1_545
O88 W28 1.882404 1_555
O88 W23 2.046659 1_555
O89 W25 1.726528 1_555
O90 W35 1.915217 1_555
O90 W35 1.928117 1_556
O91 W26 1.882404 1_555
O91 W37 2.046659 1_555
O92 W32 1.973058 1_555
O92 W32 1.992162 1_556
O93 W33 1.721696 1_655
O94 W21 1.898390 1_555
O94 W11 2.008787 1_545
O95 W15 1.968830 1_555
O96 W23 1.941729 1_554
O96 W23 2.094685 1_555
O96 W8 2.126528 1_555
O97 W26 2.010654 1_556
O97 W22 2.010654 1_556
O98 W26 2.040127 1_555
O98 W26 2.225687 1_556
O99 W17 1.925256 1_556
O99 W17 1.978636 1_555
O99 W10 2.466369 1_555
O100 W29 1.726144 1_555
O101 W36 1.915217 1_555
O101 W36 1.928117 1_556
O102 W2 1.973058 1_555
O102 W2 1.992162 1_556
O103 W35 1.721696 1_455
O104 W32 1.746099 1_555
O105 W16 1.925256 1_556
O105 W16 1.978636 1_555
O105 W38 2.466369 1_555
O106 W15 2.010654 1_556
O106 W34 2.010654 1_556
O107 W25 1.898390 1_555
O107 W36 2.008787 1_555
O108 W30 1.925256 1_554
O108 W30 1.978636 1_555
O108 W39 2.466369 1_555
O109 W17 1.898390 1_555
O109 W18 2.008787 1_555
O110 W21 1.726528 1_555
O111 W12 1.726144 1_555
