# generated using pymatgen
data_K3H2S2NO7
_symmetry_space_group_name_H-M   'P 1'
_cell_length_a   8.21978700
_cell_length_b   8.05423325
_cell_length_c   6.81867965
_cell_angle_alpha   103.24889828
_cell_angle_beta   90.89203182
_cell_angle_gamma   97.63847782
_symmetry_Int_Tables_number   1
_chemical_formula_structural   K3H2S2NO7
_chemical_formula_sum   'K6 H4 S4 N2 O14'
_cell_volume   435.01404203
_cell_formula_units_Z   2
loop_
 _symmetry_equiv_pos_site_id
 _symmetry_equiv_pos_as_xyz
  1  'x, y, z'
loop_
 _atom_site_type_symbol
 _atom_site_label
 _atom_site_symmetry_multiplicity
 _atom_site_fract_x
 _atom_site_fract_y
 _atom_site_fract_z
 _atom_site_occupancy
  K  K0  1  0.05544200  0.68691700  0.75913800  1
  K  K1  1  0.94455800  0.31308300  0.24086200  1
  K  K2  1  0.34440300  0.19876700  0.06376400  1
  K  K3  1  0.65559700  0.80123300  0.93623600  1
  K  K4  1  0.67391600  0.66841300  0.42343300  1
  K  K5  1  0.32608400  0.33158700  0.57656700  1
  H  H0  1  0.45479600  0.90028700  0.66025700  1
  H  H1  1  0.54520400  0.09971300  0.33974300  1
  H  H2  1  0.31651100  0.78071300  0.51941500  1
  H  H3  1  0.68348900  0.21928700  0.48058500  1
  S  S0  1  0.06214700  0.84920100  0.27718500  1
  S  S1  1  0.93785300  0.15079900  0.72281500  1
  S  S2  1  0.30672800  0.68060500  0.14597600  1
  S  S3  1  0.69327200  0.31939500  0.85402400  1
  N  N0  1  0.12722100  0.75115200  0.12269300  1
  N  N1  1  0.87277900  0.24884800  0.87730700  1
  O  O0  1  0.18582800  0.04090800  0.33774400  1
  O  O1  1  0.81417200  0.95909200  0.66225600  1
  O  O2  1  0.89291500  0.88640700  0.20926700  1
  O  O3  1  0.10708500  0.11359300  0.79073300  1
  O  O4  1  0.04233700  0.70467200  0.41144600  1
  O  O5  1  0.95766300  0.29532800  0.58855400  1
  O  O6  1  0.45753500  0.85463700  0.19776700  1
  O  O7  1  0.54246500  0.14536300  0.80223300  1
  O  O8  1  0.30631100  0.52106200  0.26798700  1
  O  O9  1  0.69368900  0.47893800  0.73201300  1
  O  O10  1  0.31787000  0.60014300  0.98034700  1
  O  O11  1  0.68213000  0.39985700  0.01965300  1
  O  O12  1  0.40154000  0.76386400  0.61144800  1
  O  O13  1  0.59846000  0.23613600  0.38855200  1
loop_
_geom_bond_atom_site_label_1
_geom_bond_atom_site_label_2
_geom_bond_distance
_geom_bond_site_symmetry_2
K0 O4 2.409210 1_555
K0 N0 2.458961 1_556
K0 O5 3.092213 1_455
K0 O9 3.193556 1_455
K1 O5 2.409210 1_555
K1 N1 2.458961 1_554
K1 O4 3.092213 1_655
K1 O8 3.193556 1_655
K2 O7 2.437335 1_554
K2 O3 2.586038 1_554
K2 O8 2.710779 1_555
K2 O0 2.744015 1_555
K3 O6 2.437335 1_556
K3 O2 2.586038 1_556
K3 O9 2.710779 1_555
K3 O1 2.744015 1_555
K4 O1 2.634135 1_555
K4 O12 2.709672 1_555
K4 O9 2.882655 1_555
K4 O2 2.978695 1_555
K4 O4 3.007717 1_655
K4 O6 3.076151 1_555
K4 O11 3.094910 1_555
K4 O8 3.167426 1_555
K5 O0 2.634135 1_555
K5 O13 2.709672 1_555
K5 O8 2.882655 1_555
K5 O3 2.978695 1_555
K5 O5 3.007717 1_455
K5 O7 3.076151 1_555
K5 O10 3.094910 1_555
K5 O9 3.167426 1_555
H0 O12 1.099860 1_555
H1 O13 1.099860 1_555
H2 O12 0.975351 1_555
H3 O13 0.975351 1_555
N0 S0 1.329660 1_555
N0 S2 1.667969 1_555
N1 S1 1.329660 1_555
N1 S3 1.667969 1_555
O0 S0 1.692787 1_545
O1 S1 1.692787 1_565
O2 S0 1.547147 1_655
O3 S1 1.547147 1_455
O4 S0 1.631688 1_555
O5 S1 1.631688 1_555
O6 S2 1.709864 1_555
O7 S3 1.709864 1_555
O8 S2 1.682947 1_555
O9 S3 1.682947 1_555
O10 S2 1.177867 1_556
O11 S3 1.177867 1_554
