# generated using pymatgen
data_Li4Mn3CuNi2(PO4)6
_symmetry_space_group_name_H-M   'P 1'
_cell_length_a   8.36537000
_cell_length_b   8.36482952
_cell_length_c   8.58698550
_cell_angle_alpha   64.30259642
_cell_angle_beta   63.10263577
_cell_angle_gamma   64.08973908
_symmetry_Int_Tables_number   1
_chemical_formula_structural   Li4Mn3CuNi2(PO4)6
_chemical_formula_sum   'Li4 Mn3 Cu1 Ni2 P6 O24'
_cell_volume   460.68351328
_cell_formula_units_Z   1
loop_
 _symmetry_equiv_pos_site_id
 _symmetry_equiv_pos_as_xyz
  1  'x, y, z'
loop_
 _atom_site_type_symbol
 _atom_site_label
 _atom_site_symmetry_multiplicity
 _atom_site_fract_x
 _atom_site_fract_y
 _atom_site_fract_z
 _atom_site_occupancy
  Li  Li0  1  0.85361600  0.25602600  0.63542400  1
  Li  Li1  1  0.15155300  0.75976300  0.34325800  1
  Li  Li2  1  0.77025600  0.34840700  0.14323400  1
  Li  Li3  1  0.33903100  0.14736300  0.77170800  1
  Mn  Mn0  1  0.85371900  0.85669700  0.85570800  1
  Mn  Mn1  1  0.64526900  0.64456400  0.64319400  1
  Mn  Mn2  1  0.34968300  0.34504300  0.34602700  1
  Cu  Cu0  1  0.15509700  0.14897200  0.16094700  1
  Ni  Ni0  1  0.99985900  0.99381900  0.00794100  1
  Ni  Ni1  1  0.49867900  0.50342000  0.49564600  1
  P  P0  1  0.25225300  0.92945100  0.56405300  1
  P  P1  1  0.94284400  0.56091200  0.24520300  1
  P  P2  1  0.55602900  0.25007400  0.94188500  1
  P  P3  1  0.45563700  0.75056800  0.04431800  1
  P  P4  1  0.03990800  0.45023500  0.74660200  1
  P  P5  1  0.75389100  0.05925700  0.45267600  1
  O  O0  1  0.68949400  0.89402300  0.50532400  1
  O  O1  1  0.49737700  0.67373000  0.89463600  1
  O  O2  1  0.08902500  0.92225800  0.75507700  1
  O  O3  1  0.88998900  0.47638400  0.67096300  1
  O  O4  1  0.19261200  0.94695900  0.41227200  1
  O  O5  1  0.41289200  0.73798500  0.58206000  1
  O  O6  1  0.92206500  0.75588600  0.10313900  1
  O  O7  1  0.75189600  0.55665700  0.40887100  1
  O  O8  1  0.60977400  0.83024000  0.00090700  1
  O  O9  1  0.57773600  0.39231400  0.74575100  1
  O  O10  1  0.25729400  0.90523800  0.06014900  1
  O  O11  1  0.98186300  0.61213700  0.81717600  1
  O  O12  1  0.97599800  0.40209100  0.17614300  1
  O  O13  1  0.75864900  0.09982900  0.91692300  1
  O  O14  1  0.43643900  0.60719200  0.23988300  1
  O  O15  1  0.39283100  0.18633400  0.97700900  1
  O  O16  1  0.23985500  0.43829800  0.59946800  1
  O  O17  1  0.05553200  0.25591000  0.89394800  1
  O  O18  1  0.60043700  0.25409100  0.42229000  1
  O  O19  1  0.81763600  0.04871600  0.59883600  1
  O  O20  1  0.09875500  0.52847400  0.31216700  1
  O  O21  1  0.91252500  0.06441400  0.25758400  1
  O  O22  1  0.53382200  0.31462100  0.09301700  1
  O  O23  1  0.31117700  0.09164300  0.53558100  1
loop_
_geom_bond_atom_site_label_1
_geom_bond_atom_site_label_2
_geom_bond_distance
_geom_bond_site_symmetry_2
Li0 O9 2.045099 1_555
Li0 O19 2.051985 1_555
Li0 O13 2.147531 1_555
Li0 O3 2.155296 1_555
Li0 O7 2.493509 1_555
Li1 O4 2.092860 1_555
Li1 O14 2.122886 1_555
Li1 O10 2.145400 1_555
Li1 O20 2.304517 1_555
Li1 O21 2.507091 1_465
Li2 O12 2.114064 1_555
Li2 O21 2.141841 1_555
Li2 O18 2.154647 1_555
Li2 O22 2.354484 1_555
Li2 O17 2.465079 1_654
Li3 O17 2.059838 1_555
Li3 O15 2.182010 1_555
Li3 O16 2.241106 1_555
Li3 O23 2.392641 1_555
Li3 O10 2.455961 1_546
Mn0 O8 1.902951 1_556
Mn0 O11 1.947595 1_555
Mn0 O2 1.978778 1_655
Mn0 O13 2.044585 1_565
Mn0 O19 2.154656 1_565
Mn0 O6 2.162459 1_556
Mn1 O3 1.964878 1_555
Mn1 O5 1.976121 1_555
Mn1 O1 2.007017 1_555
Mn1 O0 2.007151 1_555
Mn1 O7 2.114483 1_555
Mn1 O9 2.127681 1_555
Mn2 O20 2.048328 1_555
Mn2 O22 2.065580 1_555
Mn2 O23 2.091956 1_555
Mn2 O18 2.196345 1_555
Mn2 O14 2.285814 1_555
Mn2 O16 2.285977 1_555
Cu0 O15 1.954603 1_554
Cu0 O12 2.008760 1_455
Cu0 O21 2.127987 1_455
Cu0 O4 2.144324 1_545
Cu0 O10 2.230328 1_545
Cu0 O17 2.459371 1_554
Ni0 O6 2.071846 1_555
Ni0 O10 2.139782 1_655
Ni0 O17 2.144806 1_664
Ni0 O13 2.175060 1_564
Ni0 O21 2.186685 1_565
Ni0 O2 2.213818 1_654
Ni1 O7 2.085434 1_555
Ni1 O5 2.113227 1_555
Ni1 O18 2.138631 1_555
Ni1 O16 2.154654 1_555
Ni1 O14 2.198716 1_555
Ni1 O9 2.220466 1_555
O0 P5 1.514393 1_565
O1 P3 1.517010 1_556
O2 P0 1.586955 1_555
O3 P4 1.554547 1_655
O4 P0 1.525787 1_555
O5 P0 1.577068 1_555
O6 P1 1.548215 1_555
O7 P1 1.582118 1_555
O8 P3 1.531775 1_555
O9 P2 1.568255 1_555
O10 P3 1.586749 1_555
O11 P4 1.519190 1_655
O12 P1 1.551113 1_555
O13 P2 1.594259 1_555
O14 P3 1.569049 1_555
O15 P2 1.537256 1_555
O16 P4 1.566950 1_555
O17 P4 1.562220 1_555
O18 P5 1.574160 1_555
O19 P5 1.528340 1_555
O20 P1 1.529485 1_455
O21 P5 1.595386 1_555
O22 P2 1.520564 1_554
O23 P0 1.526807 1_545
