# generated using pymatgen
data_Li5MnO3F
_symmetry_space_group_name_H-M   'P 1'
_cell_length_a   6.35478700
_cell_length_b   7.03464000
_cell_length_c   9.51022400
_cell_angle_alpha   90.00000000
_cell_angle_beta   90.00000000
_cell_angle_gamma   90.00000000
_symmetry_Int_Tables_number   1
_chemical_formula_structural   Li5MnO3F
_chemical_formula_sum   'Li20 Mn4 O12 F4'
_cell_volume   425.14161881
_cell_formula_units_Z   4
loop_
 _symmetry_equiv_pos_site_id
 _symmetry_equiv_pos_as_xyz
  1  'x, y, z'
loop_
 _atom_site_type_symbol
 _atom_site_label
 _atom_site_symmetry_multiplicity
 _atom_site_fract_x
 _atom_site_fract_y
 _atom_site_fract_z
 _atom_site_occupancy
  Li  Li0  1  0.00056200  0.92530800  0.38292300  1
  Li  Li1  1  0.50673500  0.95956000  0.37602400  1
  Li  Li2  1  0.99326500  0.95956000  0.87602400  1
  Li  Li3  1  0.49943800  0.92530800  0.88292300  1
  Li  Li4  1  0.24390200  0.75000000  0.10674200  1
  Li  Li5  1  0.25609800  0.75000000  0.60674200  1
  Li  Li6  1  0.00056200  0.57469200  0.38292300  1
  Li  Li7  1  0.50673500  0.54044000  0.37602400  1
  Li  Li8  1  0.99326500  0.54044000  0.87602400  1
  Li  Li9  1  0.49943800  0.57469200  0.88292300  1
  Li  Li10  1  0.00673500  0.45956000  0.12397600  1
  Li  Li11  1  0.99943800  0.42530800  0.61707700  1
  Li  Li12  1  0.50056200  0.42530800  0.11707700  1
  Li  Li13  1  0.49326500  0.45956000  0.62397600  1
  Li  Li14  1  0.74390200  0.25000000  0.39325800  1
  Li  Li15  1  0.75609800  0.25000000  0.89325800  1
  Li  Li16  1  0.99943800  0.07469200  0.61707700  1
  Li  Li17  1  0.00673500  0.04044000  0.12397600  1
  Li  Li18  1  0.49326500  0.04044000  0.62397600  1
  Li  Li19  1  0.50056200  0.07469200  0.11707700  1
  Mn  Mn0  1  0.75631000  0.75000000  0.09716500  1
  Mn  Mn1  1  0.74369000  0.75000000  0.59716500  1
  Mn  Mn2  1  0.25631000  0.25000000  0.40283500  1
  Mn  Mn3  1  0.24369000  0.25000000  0.90283500  1
  O  O0  1  0.74553200  0.00474900  0.99888100  1
  O  O1  1  0.75446800  0.00474900  0.49888100  1
  O  O2  1  0.00140100  0.75000000  0.22893800  1
  O  O3  1  0.49859900  0.75000000  0.72893800  1
  O  O4  1  0.74553200  0.49525100  0.99888100  1
  O  O5  1  0.75446800  0.49525100  0.49888100  1
  O  O6  1  0.25446800  0.50474900  0.00111900  1
  O  O7  1  0.24553200  0.50474900  0.50111900  1
  O  O8  1  0.99859900  0.25000000  0.77106200  1
  O  O9  1  0.50140100  0.25000000  0.27106200  1
  O  O10  1  0.24553200  0.99525100  0.50111900  1
  O  O11  1  0.25446800  0.99525100  0.00111900  1
  F  F0  1  0.00950400  0.75000000  0.74176800  1
  F  F1  1  0.49049600  0.75000000  0.24176800  1
  F  F2  1  0.99049600  0.25000000  0.25823200  1
  F  F3  1  0.50950400  0.25000000  0.75823200  1
loop_
_geom_bond_atom_site_label_1
_geom_bond_atom_site_label_2
_geom_bond_distance
_geom_bond_site_symmetry_2
Li0 O2 1.914534 1_555
Li0 O10 1.982180 1_555
Li0 O1 1.993525 1_465
Li1 O1 1.986101 1_565
Li1 O10 2.057574 1_555
Li1 O9 2.274203 1_565
Li2 O0 1.986101 1_565
Li2 O11 2.057574 1_656
Li2 O8 2.274203 1_565
Li3 O3 1.914534 1_555
Li3 O11 1.982180 1_556
Li3 O0 1.993525 1_565
Li4 O2 1.930107 1_555
Li4 O11 1.997504 1_555
Li4 O6 1.997504 1_555
Li5 O3 1.930107 1_555
Li5 O10 1.997504 1_555
Li5 O7 1.997504 1_555
Li6 O2 1.914534 1_555
Li6 O7 1.982180 1_555
Li6 O5 1.993525 1_455
Li7 O5 1.986101 1_555
Li7 O7 2.057574 1_555
Li7 O9 2.274203 1_555
Li8 O4 1.986101 1_555
Li8 O6 2.057574 1_656
Li8 O8 2.274203 1_555
Li9 O3 1.914534 1_555
Li9 O6 1.982180 1_556
Li9 O4 1.993525 1_555
Li10 O6 1.986101 1_555
Li10 O4 2.057574 1_454
Li10 O2 2.274203 1_555
Li11 O8 1.914534 1_555
Li11 O5 1.982180 1_555
Li11 O7 1.993525 1_655
Li12 O9 1.914534 1_555
Li12 O4 1.982180 1_554
Li12 O6 1.993525 1_555
Li13 O7 1.986101 1_555
Li13 O5 2.057574 1_555
Li13 O3 2.274203 1_555
Li14 O9 1.930107 1_555
Li14 O1 1.997504 1_555
Li14 O5 1.997504 1_555
Li15 O8 1.930107 1_555
Li15 O4 1.997504 1_555
Li15 O0 1.997504 1_555
Li16 O8 1.914534 1_555
Li16 O1 1.982180 1_555
Li16 O10 1.993525 1_645
Li17 O11 1.986101 1_545
Li17 O0 2.057574 1_454
Li17 O2 2.274203 1_545
Li18 O10 1.986101 1_545
Li18 O1 2.057574 1_555
Li18 O3 2.274203 1_545
Li19 O9 1.914534 1_555
Li19 O0 1.982180 1_554
Li19 O11 1.993525 1_545
Mn0 O2 1.999074 1_655
Mn0 O0 2.022342 1_564
Mn0 O4 2.022342 1_554
Mn1 O3 1.999074 1_555
Mn1 O1 2.022342 1_565
Mn1 O5 2.022342 1_555
Mn2 O9 1.999074 1_555
Mn2 O10 2.022342 1_545
Mn2 O7 2.022342 1_555
Mn3 O8 1.999074 1_455
Mn3 O6 2.022342 1_556
Mn3 O11 2.022342 1_546
F0 Li8 1.952968 1_455
F0 Li2 1.952968 1_455
F0 Li5 2.025990 1_555
F0 Mn1 2.178201 1_455
F1 Li7 1.952968 1_555
F1 Li1 1.952968 1_555
F1 Li4 2.025990 1_555
F1 Mn0 2.178201 1_555
F2 Li17 1.952968 1_655
F2 Li10 1.952968 1_655
F2 Li14 2.025990 1_555
F2 Mn2 2.178201 1_655
F3 Li18 1.952968 1_555
F3 Li13 1.952968 1_555
F3 Li15 2.025990 1_555
F3 Mn3 2.178201 1_555
