# generated using pymatgen
data_Li2Mn3CrO8
_symmetry_space_group_name_H-M   'P 1'
_cell_length_a   5.91737332
_cell_length_b   5.91737332
_cell_length_c   5.91737298
_cell_angle_alpha   60.18455552
_cell_angle_beta   60.18455552
_cell_angle_gamma   60.18455013
_symmetry_Int_Tables_number   1
_chemical_formula_structural   Li2Mn3CrO8
_chemical_formula_sum   'Li2 Mn3 Cr1 O8'
_cell_volume   147.12388785
_cell_formula_units_Z   1
loop_
 _symmetry_equiv_pos_site_id
 _symmetry_equiv_pos_as_xyz
  1  'x, y, z'
loop_
 _atom_site_type_symbol
 _atom_site_label
 _atom_site_symmetry_multiplicity
 _atom_site_fract_x
 _atom_site_fract_y
 _atom_site_fract_z
 _atom_site_occupancy
  Li  Li0  1  0.12195000  0.12195000  0.12195000  1
  Li  Li1  1  0.87805000  0.87805000  0.87805000  1
  Mn  Mn0  1  0.00000000  0.50000000  0.50000000  1
  Mn  Mn1  1  0.50000000  0.50000000  0.00000000  1
  Mn  Mn2  1  0.50000000  0.00000000  0.50000000  1
  Cr  Cr0  1  0.50000000  0.50000000  0.50000000  1
  O  O0  1  0.25993000  0.25993000  0.25993000  1
  O  O1  1  0.70805600  0.26001000  0.26001000  1
  O  O2  1  0.26001000  0.26001000  0.70805600  1
  O  O3  1  0.26001000  0.70805600  0.26001000  1
  O  O4  1  0.73999000  0.29194400  0.73999000  1
  O  O5  1  0.73999000  0.73999000  0.29194400  1
  O  O6  1  0.74007000  0.74007000  0.74007000  1
  O  O7  1  0.29194400  0.73999000  0.73999000  1
loop_
_geom_bond_atom_site_label_1
_geom_bond_atom_site_label_2
_geom_bond_distance
_geom_bond_site_symmetry_2
Li0 O0 1.997163 1_555
Li0 O2 2.004385 1_554
Li0 O1 2.004385 1_455
Li0 O3 2.004385 1_545
Li1 O6 1.997163 1_555
Li1 O5 2.004385 1_556
Li1 O4 2.004385 1_565
Li1 O7 2.004385 1_655
Mn0 O5 1.967723 1_455
Mn0 O2 1.967723 1_555
Mn0 O4 1.967724 1_455
Mn0 O3 1.967724 1_555
Mn0 O6 2.015704 1_455
Mn0 O0 2.015704 1_555
Mn1 O7 1.967723 1_554
Mn1 O4 1.967723 1_554
Mn1 O3 1.967723 1_555
Mn1 O1 1.967723 1_555
Mn1 O6 2.015704 1_554
Mn1 O0 2.015704 1_555
Mn2 O5 1.967723 1_545
Mn2 O2 1.967723 1_555
Mn2 O7 1.967724 1_545
Mn2 O1 1.967724 1_555
Mn2 O6 2.015704 1_545
Mn2 O0 2.015704 1_555
Cr0 O1 2.019257 1_555
Cr0 O3 2.019257 1_555
Cr0 O7 2.019257 1_555
Cr0 O4 2.019257 1_555
Cr0 O2 2.019257 1_555
Cr0 O5 2.019257 1_555
