# generated using pymatgen
data_Li(CoO2)3
_symmetry_space_group_name_H-M   'P 1'
_cell_length_a   4.78388460
_cell_length_b   4.81506207
_cell_length_c   10.07008332
_cell_angle_alpha   76.74675308
_cell_angle_beta   76.24471594
_cell_angle_gamma   60.22827928
_symmetry_Int_Tables_number   1
_chemical_formula_structural   Li(CoO2)3
_chemical_formula_sum   'Li2 Co6 O12'
_cell_volume   193.86224353
_cell_formula_units_Z   2
loop_
 _symmetry_equiv_pos_site_id
 _symmetry_equiv_pos_as_xyz
  1  'x, y, z'
loop_
 _atom_site_type_symbol
 _atom_site_label
 _atom_site_symmetry_multiplicity
 _atom_site_fract_x
 _atom_site_fract_y
 _atom_site_fract_z
 _atom_site_occupancy
  Li  Li0  1  0.08437193  0.75375927  0.75410549  1
  Li  Li1  1  0.90629509  0.25444295  0.25410865  1
  Co  Co0  1  -0.00028037  0.33365403  0.99376996  1
  Co  Co1  1  0.17292613  0.83375514  0.49375751  1
  Co  Co2  1  0.33461111  0.66440133  0.00405342  1
  Co  Co3  1  0.49703623  0.16444552  0.50406786  1
  Co  Co4  1  0.66342879  -0.00044074  0.00373223  1
  Co  Co5  1  0.83344371  0.49961184  0.50372424  1
  O  O0  1  0.03607371  0.01762138  0.90098703  1
  O  O1  1  0.13338926  0.47719558  0.60065181  1
  O  O2  1  0.19443136  0.20414152  0.40011484  1
  O  O3  1  0.28881005  0.97734439  0.10056710  1
  O  O4  1  0.36721880  0.36840063  0.90201426  1
  O  O5  1  0.46150163  0.79996561  0.60149311  1
  O  O6  1  0.54549889  0.51774392  0.40102419  1
  O  O7  1  0.63705776  0.29999738  0.10149020  1
  O  O8  1  0.70175954  0.70401770  0.90003472  1
  O  O9  1  0.86243825  0.86865174  0.40198024  1
  O  O10  1  0.80835100  0.12740931  0.59918256  1
  O  O11  1  0.96510913  0.62735349  0.09917159  1
loop_
_geom_bond_atom_site_label_1
_geom_bond_atom_site_label_2
_geom_bond_distance
_geom_bond_site_symmetry_2
Li0 O0 2.064691 1_565
Li0 O8 2.135879 1_455
Li0 O5 2.142328 1_555
Li0 O1 2.162721 1_555
Li0 O4 2.165685 1_555
Li0 O10 2.178946 1_465
Li1 O6 2.061010 1_555
Li1 O7 2.138990 1_555
Li1 O2 2.142288 1_655
Li1 O9 2.163853 1_545
Li1 O3 2.166830 1_645
Li1 O11 2.178540 1_555
Co0 O4 1.849673 1_555
Co0 O8 1.856512 1_455
Co0 O7 1.875255 1_456
Co0 O3 1.875547 1_546
Co0 O11 1.877772 1_456
Co0 O0 1.879004 1_555
Co1 O9 1.849966 1_455
Co1 O2 1.856184 1_565
Co1 O5 1.875517 1_555
Co1 O1 1.876267 1_555
Co1 O10 1.878010 1_465
Co1 O6 1.879043 1_555
Co2 O4 1.867091 1_554
Co2 O0 1.868911 1_564
Co2 O7 1.870682 1_555
Co2 O11 1.871771 1_455
Co2 O3 1.872300 1_555
Co2 O8 1.893336 1_554
Co3 O9 1.866900 1_545
Co3 O6 1.868771 1_555
Co3 O5 1.870541 1_545
Co3 O10 1.871761 1_555
Co3 O1 1.872267 1_555
Co3 O2 1.892644 1_555
Co4 O8 1.865554 1_544
Co4 O3 1.866965 1_545
Co4 O7 1.868267 1_555
Co4 O0 1.868590 1_654
Co4 O11 1.876084 1_545
Co4 O4 1.888978 1_554
Co5 O2 1.865150 1_655
Co5 O1 1.867415 1_655
Co5 O5 1.868459 1_555
Co5 O6 1.868507 1_555
Co5 O10 1.875959 1_555
Co5 O9 1.889168 1_555
