# generated using pymatgen
data_Hf2N2O
_symmetry_space_group_name_H-M   'P 1'
_cell_length_a   3.27643200
_cell_length_b   8.12129600
_cell_length_c   13.75681956
_cell_angle_alpha   80.49288505
_cell_angle_beta   90.00000000
_cell_angle_gamma   90.00000000
_symmetry_Int_Tables_number   1
_chemical_formula_structural   Hf2N2O
_chemical_formula_sum   'Hf12 N12 O6'
_cell_volume   361.02577119
_cell_formula_units_Z   6
loop_
 _symmetry_equiv_pos_site_id
 _symmetry_equiv_pos_as_xyz
  1  'x, y, z'
loop_
 _atom_site_type_symbol
 _atom_site_label
 _atom_site_symmetry_multiplicity
 _atom_site_fract_x
 _atom_site_fract_y
 _atom_site_fract_z
 _atom_site_occupancy
  Hf  Hf0  1  0.50000000  0.82248400  0.00772900  1
  Hf  Hf1  1  0.50000000  0.45296600  0.12008000  1
  Hf  Hf2  1  0.00000000  0.81044100  0.22321800  1
  Hf  Hf3  1  0.00000000  0.17001400  0.28339200  1
  Hf  Hf4  1  0.50000000  0.50076300  0.39066300  1
  Hf  Hf5  1  0.50000000  0.85493600  0.43790000  1
  Hf  Hf6  1  0.00000000  0.11996800  0.56970900  1
  Hf  Hf7  1  0.00000000  0.50481800  0.61601800  1
  Hf  Hf8  1  0.50000000  0.82677100  0.71916100  1
  Hf  Hf9  1  0.50000000  0.18478100  0.78239400  1
  Hf  Hf10  1  0.00000000  0.55533500  0.87944700  1
  Hf  Hf11  1  0.00000000  0.19468700  0.98285900  1
  N  N0  1  0.50000000  0.67565900  0.18057200  1
  N  N1  1  0.50000000  0.33675500  0.28462800  1
  N  N2  1  0.50000000  0.98228900  0.26622600  1
  N  N3  1  0.00000000  0.69111900  0.37135600  1
  N  N4  1  0.50000000  0.61773300  0.53505800  1
  N  N5  1  0.50000000  0.96644200  0.56811200  1
  N  N6  1  0.00000000  0.02504600  0.72740400  1
  N  N7  1  0.00000000  0.66373200  0.71634100  1
  N  N8  1  0.00000000  0.33423600  0.80986100  1
  N  N9  1  0.50000000  0.06504600  0.92872400  1
  N  N10  1  0.50000000  0.73007500  0.87402400  1
  N  N11  1  0.50000000  0.38691100  0.97355500  1
  O  O0  1  0.00000000  0.62238600  0.03360800  1
  O  O1  1  0.00000000  0.28064000  0.13038100  1
  O  O2  1  0.00000000  0.94004800  0.07091200  1
  O  O3  1  0.00000000  0.02592500  0.42371400  1
  O  O4  1  0.00000000  0.35928200  0.46561600  1
  O  O5  1  0.50000000  0.29871400  0.62733900  1
loop_
_geom_bond_atom_site_label_1
_geom_bond_atom_site_label_2
_geom_bond_distance
_geom_bond_site_symmetry_2
Hf0 N9 2.086761 1_564
Hf0 N10 2.098202 1_554
Hf0 O2 2.150579 1_655
Hf0 O2 2.150579 1_555
Hf0 O0 2.293509 1_555
Hf0 O0 2.293509 1_655
Hf0 N0 2.477706 1_555
Hf1 N0 2.112006 1_555
Hf1 O1 2.144050 1_555
Hf1 O1 2.144050 1_655
Hf1 N11 2.169818 1_554
Hf1 N1 2.304155 1_555
Hf1 O0 2.334801 1_555
Hf1 O0 2.334801 1_655
Hf2 N0 2.106711 1_555
Hf2 N0 2.106711 1_455
Hf2 N3 2.107073 1_555
Hf2 O2 2.183905 1_555
Hf2 N2 2.292238 1_455
Hf2 N2 2.292238 1_555
Hf3 O3 2.085550 1_555
Hf3 N1 2.127293 1_555
Hf3 N1 2.127293 1_455
Hf3 O1 2.147846 1_555
Hf3 N2 2.276568 1_545
Hf3 N2 2.276568 1_445
Hf4 N1 2.131609 1_555
Hf4 O4 2.162359 1_655
Hf4 O4 2.162359 1_555
Hf4 N3 2.237986 1_655
Hf4 N3 2.237986 1_555
Hf4 N4 2.339145 1_555
Hf5 O3 2.135572 1_565
Hf5 O3 2.135572 1_665
Hf5 N5 2.136514 1_555
Hf5 N4 2.155668 1_555
Hf5 N3 2.386226 1_555
Hf5 N3 2.386226 1_655
Hf5 N2 2.416690 1_555
Hf6 N5 2.061036 1_445
Hf6 N5 2.061036 1_545
Hf6 N6 2.179000 1_555
Hf6 O4 2.215527 1_555
Hf6 O3 2.263585 1_555
Hf6 O5 2.408269 1_455
Hf6 O5 2.408269 1_555
Hf7 N7 2.039303 1_555
Hf7 N4 2.104217 1_455
Hf7 N4 2.104217 1_555
Hf7 O5 2.328863 1_455
Hf7 O5 2.328863 1_555
Hf7 O4 2.546726 1_555
Hf7 N8 2.794623 1_555
Hf8 N7 2.110790 1_655
Hf8 N7 2.110790 1_555
Hf8 N10 2.145397 1_555
Hf8 N5 2.196799 1_555
Hf8 N6 2.312971 1_565
Hf8 N6 2.312971 1_665
Hf9 N9 2.085964 1_555
Hf9 N8 2.109803 1_655
Hf9 N8 2.109803 1_555
Hf9 O5 2.180395 1_555
Hf9 N6 2.294140 1_655
Hf9 N6 2.294140 1_555
Hf10 N10 2.160609 1_555
Hf10 N10 2.160609 1_455
Hf10 N8 2.169892 1_555
Hf10 N7 2.270943 1_555
Hf10 O0 2.275008 1_556
Hf10 N11 2.376083 1_555
Hf10 N11 2.376083 1_455
Hf11 N9 2.146132 1_455
Hf11 N9 2.146132 1_555
Hf11 O2 2.217302 1_546
Hf11 N11 2.251929 1_455
Hf11 N11 2.251929 1_555
Hf11 O1 2.252521 1_556
Hf11 N8 2.461170 1_555
