# generated using pymatgen
data_V2Bi4O11
_symmetry_space_group_name_H-M   'P 1'
_cell_length_a   11.32979700
_cell_length_b   5.71642800
_cell_length_c   8.13828635
_cell_angle_alpha   70.81875513
_cell_angle_beta   90.00000000
_cell_angle_gamma   90.00000000
_symmetry_Int_Tables_number   1
_chemical_formula_structural   V2Bi4O11
_chemical_formula_sum   'V4 Bi8 O22'
_cell_volume   497.82238867
_cell_formula_units_Z   2
loop_
 _symmetry_equiv_pos_site_id
 _symmetry_equiv_pos_as_xyz
  1  'x, y, z'
loop_
 _atom_site_type_symbol
 _atom_site_label
 _atom_site_symmetry_multiplicity
 _atom_site_fract_x
 _atom_site_fract_y
 _atom_site_fract_z
 _atom_site_occupancy
  V  V0  1  0.75885700  0.08079700  0.00301900  1
  V  V1  1  0.51230000  0.50973900  0.97713300  1
  V  V2  1  0.25885700  0.91920300  0.99698100  1
  V  V3  1  0.01230000  0.49026100  0.02286700  1
  Bi  Bi0  1  0.75242500  0.74307600  0.65496300  1
  Bi  Bi1  1  0.74653900  0.40120000  0.33094900  1
  Bi  Bi2  1  0.49724300  0.79949000  0.34637700  1
  Bi  Bi3  1  0.50611600  0.15197500  0.66251200  1
  Bi  Bi4  1  0.25242500  0.25692400  0.34503700  1
  Bi  Bi5  1  0.24653900  0.59880000  0.66905100  1
  Bi  Bi6  1  0.00611600  0.84802500  0.33748800  1
  Bi  Bi7  1  0.99724300  0.20051000  0.65362300  1
  O  O0  1  0.91059800  0.65555700  0.09349000  1
  O  O1  1  0.87780200  0.50959900  0.49862600  1
  O  O2  1  0.88750900  0.02969100  0.47706100  1
  O  O3  1  0.88389700  0.21728600  0.05335000  1
  O  O4  1  0.71080400  0.84213800  0.18467600  1
  O  O5  1  0.78782400  0.03600500  0.80501700  1
  O  O6  1  0.64361200  0.30222800  0.96319000  1
  O  O7  1  0.63717200  0.04103800  0.48822700  1
  O  O8  1  0.62738500  0.52602900  0.51258400  1
  O  O9  1  0.58300300  0.75715500  0.81634000  1
  O  O10  1  0.52021600  0.46090800  0.20006500  1
  O  O11  1  0.41059800  0.34444300  0.90651000  1
  O  O12  1  0.38750900  0.97030900  0.52293900  1
  O  O13  1  0.37780200  0.49040100  0.50137400  1
  O  O14  1  0.38389700  0.78271400  0.94665000  1
  O  O15  1  0.21080400  0.15786200  0.81532400  1
  O  O16  1  0.28782400  0.96399500  0.19498300  1
  O  O17  1  0.14361200  0.69777200  0.03681000  1
  O  O18  1  0.12738500  0.47397100  0.48741600  1
  O  O19  1  0.13717200  0.95896200  0.51177300  1
  O  O20  1  0.02021600  0.53909200  0.79993400  1
  O  O21  1  0.08300300  0.24284500  0.18366000  1
loop_
_geom_bond_atom_site_label_1
_geom_bond_atom_site_label_2
_geom_bond_distance
_geom_bond_site_symmetry_2
Bi0 O7 2.220088 1_565
Bi0 O9 2.342076 1_555
Bi0 O2 2.358849 1_565
Bi0 O5 2.408285 1_565
Bi0 O8 2.415314 1_555
Bi0 O1 2.556119 1_555
Bi1 O1 2.239079 1_555
Bi1 O8 2.282512 1_555
Bi1 O7 2.383457 1_555
Bi1 O4 2.441859 1_555
Bi1 O2 2.610669 1_555
Bi1 O0 2.730805 1_555
Bi1 O10 2.754501 1_555
Bi2 O8 2.248986 1_555
Bi2 O13 2.253829 1_555
Bi2 O12 2.342206 1_555
Bi2 O10 2.597320 1_555
Bi2 O7 2.607700 1_565
Bi2 O16 2.696403 1_555
Bi2 O4 2.726696 1_555
Bi3 O12 2.224767 1_545
Bi3 O7 2.282494 1_555
Bi3 O9 2.358662 1_545
Bi3 O13 2.430786 1_555
Bi3 O8 2.496846 1_555
Bi3 O11 2.785750 1_555
Bi4 O19 2.220088 1_545
Bi4 O21 2.342076 1_555
Bi4 O12 2.358849 1_545
Bi4 O16 2.408285 1_545
Bi4 O18 2.415314 1_555
Bi4 O13 2.556119 1_555
Bi5 O13 2.239079 1_555
Bi5 O18 2.282512 1_555
Bi5 O19 2.383457 1_555
Bi5 O15 2.441859 1_555
Bi5 O12 2.610669 1_555
Bi5 O11 2.730805 1_555
Bi5 O20 2.754498 1_555
Bi6 O2 2.224767 1_465
Bi6 O19 2.282494 1_555
Bi6 O21 2.358662 1_565
Bi6 O1 2.430786 1_455
Bi6 O18 2.496846 1_555
Bi6 O0 2.785750 1_455
Bi7 O18 2.248986 1_655
Bi7 O1 2.253829 1_555
Bi7 O2 2.342206 1_555
Bi7 O20 2.597314 1_655
Bi7 O19 2.607700 1_645
Bi7 O5 2.696403 1_555
Bi7 O15 2.726696 1_655
O0 V3 1.705215 1_655
O3 V0 1.730179 1_555
O3 V3 2.087709 1_655
O4 V0 1.737213 1_565
O5 V0 1.743845 1_556
O6 V0 1.772724 1_556
O6 V1 1.929200 1_555
O9 V1 1.771507 1_555
O10 V1 1.744936 1_554
O11 V1 1.705215 1_555
O14 V2 1.730179 1_555
O14 V1 2.087709 1_555
O15 V2 1.737213 1_545
O16 V2 1.743845 1_554
O17 V2 1.772724 1_554
O17 V3 1.929200 1_555
O20 V3 1.744944 1_556
O21 V3 1.771507 1_555
