# generated using pymatgen
data_Li3Mn4(BO3)4
_symmetry_space_group_name_H-M   'P 1'
_cell_length_a   5.27323200
_cell_length_b   8.26842184
_cell_length_c   11.79579932
_cell_angle_alpha   102.03139617
_cell_angle_beta   89.95155810
_cell_angle_gamma   91.04865363
_symmetry_Int_Tables_number   1
_chemical_formula_structural   Li3Mn4(BO3)4
_chemical_formula_sum   'Li6 Mn8 B8 O24'
_cell_volume   502.92806936
_cell_formula_units_Z   2
loop_
 _symmetry_equiv_pos_site_id
 _symmetry_equiv_pos_as_xyz
  1  'x, y, z'
loop_
 _atom_site_type_symbol
 _atom_site_label
 _atom_site_symmetry_multiplicity
 _atom_site_fract_x
 _atom_site_fract_y
 _atom_site_fract_z
 _atom_site_occupancy
  Li  Li0  1  0.33827200  0.72680000  0.03082800  1
  Li  Li1  1  0.84198900  0.21942400  0.26925600  1
  Li  Li2  1  0.34606800  0.72706900  0.52009300  1
  Li  Li3  1  0.65393200  0.27293100  0.47990700  1
  Li  Li4  1  0.15801100  0.78057600  0.73074400  1
  Li  Li5  1  0.66172800  0.27320000  0.96917200  1
  Mn  Mn0  1  0.17812900  0.42705600  0.09180800  1
  Mn  Mn1  1  0.31738100  0.07489200  0.16319700  1
  Mn  Mn2  1  0.68340500  0.91059100  0.32932900  1
  Mn  Mn3  1  0.83134700  0.57684300  0.40697700  1
  Mn  Mn4  1  0.16865300  0.42315700  0.59302300  1
  Mn  Mn5  1  0.31659500  0.08940900  0.67067100  1
  Mn  Mn6  1  0.68261900  0.92510800  0.83680300  1
  Mn  Mn7  1  0.82187100  0.57294400  0.90819200  1
  B  B0  1  0.82822200  0.91004100  0.07548600  1
  B  B1  1  0.67706500  0.58639400  0.16387800  1
  B  B2  1  0.33141800  0.40292100  0.33418700  1
  B  B3  1  0.17680400  0.10370100  0.41610200  1
  B  B4  1  0.82319600  0.89629900  0.58389800  1
  B  B5  1  0.66858200  0.59707900  0.66581300  1
  B  B6  1  0.32293500  0.41360600  0.83612200  1
  B  B7  1  0.17177800  0.08995900  0.92451400  1
  O  O0  1  0.08484100  0.89070200  0.07524900  1
  O  O1  1  0.32233400  0.18265000  0.01544600  1
  O  O2  1  0.80110100  0.47735000  0.07444100  1
  O  O3  1  0.42424700  0.61379300  0.15552800  1
  O  O4  1  0.81522700  0.67310800  0.25793500  1
  O  O5  1  0.31771500  0.01413000  0.32508800  1
  O  O6  1  0.70521900  0.01310100  0.16740800  1
  O  O7  1  0.18205100  0.31450600  0.24212200  1
  O  O8  1  0.58719900  0.37499100  0.33754100  1
  O  O9  1  0.21136000  0.51091500  0.42426500  1
  O  O10  1  0.68611900  0.81236100  0.48640800  1
  O  O11  1  0.91812300  0.11974700  0.40898100  1
  O  O12  1  0.08187700  0.88025300  0.59101900  1
  O  O13  1  0.31388100  0.18763900  0.51359200  1
  O  O14  1  0.78864000  0.48908500  0.57573500  1
  O  O15  1  0.41280100  0.62500900  0.66245900  1
  O  O16  1  0.81794900  0.68549400  0.75787800  1
  O  O17  1  0.29478100  0.98689900  0.83259200  1
  O  O18  1  0.68228500  0.98587000  0.67491200  1
  O  O19  1  0.18477300  0.32689200  0.74206500  1
  O  O20  1  0.57575300  0.38620700  0.84447200  1
  O  O21  1  0.19889900  0.52265000  0.92555900  1
  O  O22  1  0.67766600  0.81735000  0.98455400  1
  O  O23  1  0.91515900  0.10929800  0.92475100  1
loop_
_geom_bond_atom_site_label_1
_geom_bond_atom_site_label_2
_geom_bond_distance
_geom_bond_site_symmetry_2
Li0 O0 1.914729 1_555
Li0 O3 1.957525 1_555
Li0 O21 2.003419 1_554
Li0 O22 2.044802 1_554
Li1 O8 1.933392 1_555
Li1 O6 1.993937 1_555
Li1 O7 1.997125 1_655
Li1 O11 2.033821 1_555
Li2 O12 1.966185 1_555
Li2 O10 1.984946 1_555
Li2 O9 2.022189 1_555
Li2 O15 2.063672 1_555
Li3 O11 1.966185 1_555
Li3 O13 1.984946 1_555
Li3 O14 2.022189 1_555
Li3 O8 2.063672 1_555
Li4 O15 1.933392 1_555
Li4 O17 1.993937 1_555
Li4 O16 1.997125 1_455
Li4 O12 2.033821 1_555
Li5 O23 1.914729 1_555
Li5 O20 1.957525 1_555
Li5 O2 2.003419 1_556
Li5 O1 2.044802 1_556
Mn0 O3 2.019358 1_555
Mn0 O2 2.057700 1_455
Mn0 O7 2.167698 1_555
Mn0 O1 2.183956 1_555
Mn0 O21 2.263866 1_554
Mn1 O0 2.043141 1_545
Mn1 O5 2.073434 1_555
Mn1 O1 2.116243 1_555
Mn1 O6 2.120183 1_555
Mn1 O7 2.140778 1_555
Mn2 O4 2.099465 1_555
Mn2 O5 2.128959 1_565
Mn2 O11 2.156789 1_565
Mn2 O10 2.172760 1_555
Mn2 O6 2.247370 1_565
Mn3 O4 2.077907 1_555
Mn3 O9 2.107454 1_655
Mn3 O8 2.113567 1_555
Mn3 O10 2.132907 1_555
Mn3 O14 2.266123 1_555
Mn4 O19 2.077907 1_555
Mn4 O14 2.107454 1_455
Mn4 O15 2.113567 1_555
Mn4 O13 2.132907 1_555
Mn4 O9 2.266123 1_555
Mn5 O19 2.099465 1_555
Mn5 O18 2.128959 1_545
Mn5 O12 2.156789 1_545
Mn5 O13 2.172760 1_555
Mn5 O17 2.247370 1_545
Mn6 O23 2.043141 1_565
Mn6 O18 2.073434 1_555
Mn6 O22 2.116243 1_555
Mn6 O17 2.120183 1_555
Mn6 O16 2.140778 1_555
Mn7 O20 2.019358 1_555
Mn7 O21 2.057700 1_655
Mn7 O16 2.167698 1_555
Mn7 O22 2.183956 1_555
Mn7 O2 2.263866 1_556
B0 O0 1.365462 1_655
B0 O6 1.398712 1_565
B0 O22 1.415855 1_554
B1 O3 1.363430 1_555
B1 O4 1.387957 1_555
B1 O2 1.406267 1_555
B2 O8 1.374569 1_555
B2 O9 1.396838 1_555
B2 O7 1.408393 1_555
B3 O11 1.377262 1_455
B3 O5 1.393031 1_555
B3 O13 1.406032 1_555
B4 O12 1.377262 1_655
B4 O18 1.393031 1_555
B4 O10 1.406032 1_555
B5 O15 1.374569 1_555
B5 O14 1.396838 1_555
B5 O16 1.408393 1_555
B6 O20 1.363430 1_555
B6 O19 1.387957 1_555
B6 O21 1.406267 1_555
B7 O23 1.365462 1_455
B7 O17 1.398712 1_545
B7 O1 1.415855 1_556
