# generated using pymatgen
data_Li3V(SO4)3
_symmetry_space_group_name_H-M   'P 1'
_cell_length_a   8.13329405
_cell_length_b   8.13329405
_cell_length_c   8.13329353
_cell_angle_alpha   106.93746298
_cell_angle_beta   106.93746298
_cell_angle_gamma   106.93746213
_symmetry_Int_Tables_number   1
_chemical_formula_structural   Li3V(SO4)3
_chemical_formula_sum   'Li6 V2 S6 O24'
_cell_volume   448.83139885
_cell_formula_units_Z   2
loop_
 _symmetry_equiv_pos_site_id
 _symmetry_equiv_pos_as_xyz
  1  'x, y, z'
loop_
 _atom_site_type_symbol
 _atom_site_label
 _atom_site_symmetry_multiplicity
 _atom_site_fract_x
 _atom_site_fract_y
 _atom_site_fract_z
 _atom_site_occupancy
  Li  Li0  1  0.84790600  0.22767900  0.40212100  1
  Li  Li1  1  0.59787900  0.15209400  0.77232100  1
  Li  Li2  1  0.77232100  0.59787900  0.15209400  1
  Li  Li3  1  0.22767900  0.40212100  0.84790600  1
  Li  Li4  1  0.40212100  0.84790600  0.22767900  1
  Li  Li5  1  0.15209400  0.77232100  0.59787900  1
  V  V0  1  0.00000000  0.00000000  0.00000000  1
  V  V1  1  0.50000000  0.50000000  0.50000000  1
  S  S0  1  0.90671000  0.54356900  0.76449800  1
  S  S1  1  0.45643100  0.23550200  0.09329000  1
  S  S2  1  0.23550200  0.09329000  0.45643100  1
  S  S3  1  0.76449800  0.90671000  0.54356900  1
  S  S4  1  0.54356900  0.76449800  0.90671000  1
  S  S5  1  0.09329000  0.45643100  0.23550200  1
  O  O0  1  0.87217600  0.02101300  0.75385000  1
  O  O1  1  0.97898700  0.24615000  0.12782400  1
  O  O2  1  0.70922300  0.03232200  0.46183200  1
  O  O3  1  0.96767800  0.53816800  0.29077700  1
  O  O4  1  0.53931000  0.13042200  0.18356100  1
  O  O5  1  0.81643900  0.46069000  0.86957800  1
  O  O6  1  0.76286100  0.51398100  0.57988000  1
  O  O7  1  0.53816800  0.29077700  0.96767800  1
  O  O8  1  0.42012000  0.23713900  0.48601900  1
  O  O9  1  0.24615000  0.12782400  0.97898700  1
  O  O10  1  0.48601900  0.42012000  0.23713900  1
  O  O11  1  0.86957800  0.81643900  0.46069000  1
  O  O12  1  0.13042200  0.18356100  0.53931000  1
  O  O13  1  0.51398100  0.57988000  0.76286100  1
  O  O14  1  0.75385000  0.87217600  0.02101300  1
  O  O15  1  0.57988000  0.76286100  0.51398100  1
  O  O16  1  0.46183200  0.70922300  0.03232200  1
  O  O17  1  0.23713900  0.48601900  0.42012000  1
  O  O18  1  0.18356100  0.53931000  0.13042200  1
  O  O19  1  0.46069000  0.86957800  0.81643900  1
  O  O20  1  0.03232200  0.46183200  0.70922300  1
  O  O21  1  0.29077700  0.96767800  0.53816800  1
  O  O22  1  0.02101300  0.75385000  0.87217600  1
  O  O23  1  0.12782400  0.97898700  0.24615000  1
loop_
_geom_bond_atom_site_label_1
_geom_bond_atom_site_label_2
_geom_bond_distance
_geom_bond_site_symmetry_2
Li0 O2 1.938364 1_555
Li0 O20 2.344478 1_655
Li0 O4 2.347243 1_555
Li0 O12 2.423512 1_655
Li1 O7 1.938364 1_555
Li1 O21 2.344478 1_545
Li1 O5 2.347243 1_555
Li1 O19 2.423512 1_545
Li2 O3 1.938364 1_555
Li2 O7 2.344478 1_554
Li2 O11 2.347243 1_555
Li2 O5 2.423512 1_554
Li3 O20 1.938364 1_555
Li3 O16 2.344478 1_556
Li3 O12 2.347243 1_555
Li3 O18 2.423512 1_556
Li4 O16 1.938364 1_555
Li4 O2 2.344478 1_565
Li4 O18 2.347243 1_555
Li4 O4 2.423512 1_565
Li5 O21 1.938364 1_555
Li5 O3 2.344478 1_455
Li5 O19 2.347243 1_555
Li5 O11 2.423512 1_455
O0 S3 1.510892 1_545
O0 V0 2.051404 1_656
O1 S5 1.510892 1_655
O1 V0 2.051404 1_655
O2 S3 1.475468 1_545
O3 S5 1.475468 1_655
O4 S1 1.461768 1_555
O5 S0 1.461768 1_555
O6 S0 1.511032 1_555
O6 V1 2.002938 1_555
O7 S1 1.475468 1_556
O8 S2 1.511032 1_555
O8 V1 2.002938 1_555
O9 S1 1.510892 1_556
O9 V0 2.051404 1_556
O10 S1 1.511032 1_555
O10 V1 2.002938 1_555
O11 S3 1.461768 1_555
O12 S2 1.461768 1_555
O13 S4 1.511032 1_555
O13 V1 2.002938 1_555
O14 S4 1.510892 1_554
O14 V0 2.051404 1_665
O15 S3 1.511032 1_555
O15 V1 2.002938 1_555
O16 S4 1.475468 1_554
O17 S5 1.511032 1_555
O17 V1 2.002938 1_555
O18 S5 1.461768 1_555
O19 S4 1.461768 1_555
O20 S0 1.475468 1_455
O21 S2 1.475468 1_565
O22 S0 1.510892 1_455
O22 V0 2.051404 1_566
O23 S2 1.510892 1_565
O23 V0 2.051404 1_565
