# generated using pymatgen
data_Ho2Mn2O7
_symmetry_space_group_name_H-M   'P 1'
_cell_length_a   6.97556731
_cell_length_b   6.97556731
_cell_length_c   6.97556731
_cell_angle_alpha   60.00000000
_cell_angle_beta   60.00000000
_cell_angle_gamma   60.00000000
_symmetry_Int_Tables_number   1
_chemical_formula_structural   Ho2Mn2O7
_chemical_formula_sum   'Ho4 Mn4 O14'
_cell_volume   240.00683179
_cell_formula_units_Z   2
loop_
 _symmetry_equiv_pos_site_id
 _symmetry_equiv_pos_as_xyz
  1  'x, y, z'
loop_
 _atom_site_type_symbol
 _atom_site_label
 _atom_site_symmetry_multiplicity
 _atom_site_fract_x
 _atom_site_fract_y
 _atom_site_fract_z
 _atom_site_occupancy
  Ho  Ho0  1  0.62500000  0.62500000  0.62500000  1
  Ho  Ho1  1  0.12500000  0.62500000  0.62500000  1
  Ho  Ho2  1  0.62500000  0.12500000  0.62500000  1
  Ho  Ho3  1  0.62500000  0.62500000  0.12500000  1
  Mn  Mn0  1  0.12500000  0.62500000  0.12500000  1
  Mn  Mn1  1  0.12500000  0.12500000  0.62500000  1
  Mn  Mn2  1  0.62500000  0.12500000  0.12500000  1
  Mn  Mn3  1  0.12500000  0.12500000  0.12500000  1
  O  O0  1  0.75000000  0.75000000  0.75000000  1
  O  O1  1  0.20355948  0.79644052  0.79644052  1
  O  O2  1  0.20355948  0.79644052  0.20355948  1
  O  O3  1  0.79644052  0.79644052  0.20355948  1
  O  O4  1  0.79644052  0.20355948  0.79644052  1
  O  O5  1  0.20355948  0.20355948  0.79644052  1
  O  O6  1  0.45355948  0.04644052  0.04644052  1
  O  O7  1  0.79644052  0.20355948  0.20355948  1
  O  O8  1  0.04644052  0.45355948  0.04644052  1
  O  O9  1  0.04644052  0.04644052  0.45355948  1
  O  O10  1  0.45355948  0.45355948  0.04644052  1
  O  O11  1  0.45355948  0.04644052  0.45355948  1
  O  O12  1  0.04644052  0.45355948  0.45355948  1
  O  O13  1  0.50000000  0.50000000  0.50000000  1
loop_
_geom_bond_atom_site_label_1
_geom_bond_atom_site_label_2
_geom_bond_distance
_geom_bond_site_symmetry_2
Ho0 O0 2.135823 1_555
Ho0 O13 2.135823 1_555
Ho0 O10 2.429298 1_556
Ho0 O4 2.429298 1_555
Ho0 O1 2.429298 1_555
Ho0 O3 2.429298 1_555
Ho0 O11 2.429298 1_565
Ho0 O12 2.429298 1_655
Ho1 O0 2.135823 1_455
Ho1 O13 2.135823 1_555
Ho1 O1 2.429298 1_555
Ho1 O8 2.429298 1_556
Ho1 O5 2.429298 1_555
Ho1 O2 2.429298 1_555
Ho1 O12 2.429298 1_555
Ho1 O9 2.429298 1_565
Ho2 O13 2.135823 1_555
Ho2 O0 2.135823 1_545
Ho2 O5 2.429298 1_555
Ho2 O7 2.429298 1_555
Ho2 O4 2.429298 1_555
Ho2 O11 2.429298 1_555
Ho2 O9 2.429298 1_655
Ho2 O6 2.429298 1_556
Ho3 O0 2.135823 1_554
Ho3 O13 2.135823 1_555
Ho3 O2 2.429298 1_555
Ho3 O7 2.429298 1_555
Ho3 O6 2.429298 1_565
Ho3 O10 2.429298 1_555
Ho3 O3 2.429298 1_555
Ho3 O8 2.429298 1_655
Mn0 O1 1.908340 1_554
Mn0 O8 1.908340 1_555
Mn0 O10 1.908340 1_555
Mn0 O3 1.908340 1_455
Mn0 O2 1.908340 1_555
Mn0 O12 1.908340 1_555
Mn1 O4 1.908340 1_455
Mn1 O11 1.908340 1_555
Mn1 O5 1.908340 1_555
Mn1 O1 1.908340 1_545
Mn1 O9 1.908340 1_555
Mn1 O12 1.908340 1_555
Mn2 O4 1.908340 1_554
Mn2 O7 1.908340 1_555
Mn2 O3 1.908340 1_545
Mn2 O10 1.908340 1_555
Mn2 O11 1.908340 1_555
Mn2 O6 1.908340 1_555
Mn3 O8 1.908340 1_555
Mn3 O5 1.908340 1_554
Mn3 O9 1.908340 1_555
Mn3 O2 1.908340 1_545
Mn3 O7 1.908340 1_455
Mn3 O6 1.908340 1_555
