# generated using pymatgen
data_LiSbP2O7
_symmetry_space_group_name_H-M   'P 1'
_cell_length_a   10.25891400
_cell_length_b   6.90735800
_cell_length_c   8.71579436
_cell_angle_alpha   67.32487882
_cell_angle_beta   90.00000000
_cell_angle_gamma   90.00000000
_symmetry_Int_Tables_number   1
_chemical_formula_structural   LiSbP2O7
_chemical_formula_sum   'Li4 Sb4 P8 O28'
_cell_volume   569.88007371
_cell_formula_units_Z   4
loop_
 _symmetry_equiv_pos_site_id
 _symmetry_equiv_pos_as_xyz
  1  'x, y, z'
loop_
 _atom_site_type_symbol
 _atom_site_label
 _atom_site_symmetry_multiplicity
 _atom_site_fract_x
 _atom_site_fract_y
 _atom_site_fract_z
 _atom_site_occupancy
  Li  Li0  1  0.08470400  0.74919900  0.74277300  1
  Li  Li1  1  0.41529600  0.74919900  0.24277300  1
  Li  Li2  1  0.58470400  0.25080100  0.75722700  1
  Li  Li3  1  0.91529600  0.25080100  0.25722700  1
  Sb  Sb0  1  0.71036900  0.62017600  0.88234400  1
  Sb  Sb1  1  0.78963100  0.62017600  0.38234400  1
  Sb  Sb2  1  0.21036900  0.37982400  0.61765600  1
  Sb  Sb3  1  0.28963100  0.37982400  0.11765600  1
  P  P0  1  0.33420200  0.96916900  0.79732400  1
  P  P1  1  0.16579800  0.96916900  0.29732400  1
  P  P2  1  0.40290500  0.65142500  0.67066600  1
  P  P3  1  0.09709500  0.65142500  0.17066600  1
  P  P4  1  0.90290500  0.34857500  0.82933400  1
  P  P5  1  0.59709500  0.34857500  0.32933400  1
  P  P6  1  0.83420200  0.03083100  0.70267600  1
  P  P7  1  0.66579800  0.03083100  0.20267600  1
  O  O0  1  0.18694800  0.01815100  0.75511500  1
  O  O1  1  0.37229100  0.80924800  0.96432100  1
  O  O2  1  0.89432700  0.80855800  0.75504300  1
  O  O3  1  0.38844600  0.88902400  0.65265100  1
  O  O4  1  0.31305200  0.01815100  0.25511500  1
  O  O5  1  0.12770900  0.80924800  0.46432100  1
  O  O6  1  0.10776500  0.62749100  0.00593200  1
  O  O7  1  0.60567300  0.80855800  0.25504300  1
  O  O8  1  0.11155400  0.88902400  0.15265100  1
  O  O9  1  0.27665800  0.53521200  0.77115200  1
  O  O10  1  0.39223500  0.62749100  0.50593200  1
  O  O11  1  0.52811200  0.56167000  0.76902800  1
  O  O12  1  0.02811200  0.43833000  0.73097200  1
  O  O13  1  0.77665800  0.46478800  0.72884800  1
  O  O14  1  0.22334200  0.53521200  0.27115200  1
  O  O15  1  0.97188800  0.56167000  0.26902800  1
  O  O16  1  0.47188800  0.43833000  0.23097200  1
  O  O17  1  0.60776500  0.37250900  0.49406800  1
  O  O18  1  0.72334200  0.46478800  0.22884800  1
  O  O19  1  0.88844600  0.11097600  0.84734900  1
  O  O20  1  0.39432700  0.19144200  0.74495700  1
  O  O21  1  0.89223500  0.37250900  0.99406800  1
  O  O22  1  0.87229100  0.19075200  0.53567900  1
  O  O23  1  0.68694800  0.98184900  0.74488500  1
  O  O24  1  0.61155400  0.11097600  0.34734900  1
  O  O25  1  0.10567300  0.19144200  0.24495700  1
  O  O26  1  0.62770900  0.19075200  0.03567900  1
  O  O27  1  0.81305200  0.98184900  0.24488500  1
loop_
_geom_bond_atom_site_label_1
_geom_bond_atom_site_label_2
_geom_bond_distance
_geom_bond_site_symmetry_2
Li0 O2 2.006939 1_455
Li0 O6 2.129981 1_556
Li0 O0 2.171887 1_565
Li0 O12 2.264675 1_555
Li0 O5 2.341056 1_555
Li0 O9 2.417010 1_555
Li1 O7 2.006939 1_555
Li1 O10 2.129981 1_555
Li1 O4 2.171887 1_565
Li1 O16 2.264675 1_555
Li1 O1 2.341056 1_554
Li1 O14 2.417010 1_555
Li2 O20 2.006939 1_555
Li2 O17 2.129981 1_555
Li2 O23 2.171887 1_545
Li2 O11 2.264675 1_555
Li2 O26 2.341056 1_556
Li2 O13 2.417010 1_555
Li3 O25 2.006939 1_655
Li3 O21 2.129981 1_554
Li3 O27 2.171887 1_545
Li3 O15 2.264675 1_555
Li3 O22 2.341056 1_555
Li3 O18 2.417010 1_555
O0 P0 1.560755 1_545
O0 Sb2 2.329479 1_555
O1 P0 1.500592 1_555
O2 P6 1.551032 1_565
O2 Sb0 2.317898 1_555
O3 P2 1.594193 1_555
O3 P0 1.656595 1_555
O4 P1 1.560755 1_545
O4 Sb3 2.329479 1_555
O5 P1 1.500592 1_555
O6 P3 1.511228 1_555
O6 Sb3 2.464027 1_555
O7 P7 1.551032 1_565
O7 Sb1 2.317898 1_555
O8 P3 1.594193 1_555
O8 P1 1.656595 1_555
O9 P2 1.595870 1_555
O9 Sb2 2.124011 1_555
O10 P2 1.511228 1_555
O10 Sb2 2.464027 1_555
O11 P2 1.536049 1_555
O11 Sb0 2.223168 1_555
O12 P4 1.536049 1_455
O12 Sb2 2.223168 1_555
O13 P4 1.595870 1_555
O13 Sb0 2.124011 1_555
O14 P3 1.595870 1_555
O14 Sb3 2.124011 1_555
O15 P3 1.536049 1_655
O15 Sb1 2.223168 1_555
O16 P5 1.536049 1_555
O16 Sb3 2.223168 1_555
O17 P5 1.511228 1_555
O17 Sb1 2.464027 1_555
O18 P5 1.595870 1_555
O18 Sb1 2.124011 1_555
O19 P4 1.594193 1_555
O19 P6 1.656595 1_555
O20 P0 1.551032 1_545
O20 Sb2 2.317898 1_555
O21 P4 1.511228 1_555
O21 Sb0 2.464027 1_555
O22 P6 1.500592 1_555
O23 P6 1.560755 1_565
O23 Sb0 2.329479 1_555
O24 P5 1.594193 1_555
O24 P7 1.656595 1_555
O25 P1 1.551032 1_545
O25 Sb3 2.317898 1_555
O26 P7 1.500592 1_555
O27 P7 1.560755 1_565
O27 Sb1 2.329479 1_555
