# generated using pymatgen
data_RbLi2Fe2(BO3)3
_symmetry_space_group_name_H-M   'P 1'
_cell_length_a   5.08282100
_cell_length_b   6.44630400
_cell_length_c   13.05877996
_cell_angle_alpha   88.60904730
_cell_angle_beta   90.00000000
_cell_angle_gamma   90.00000000
_symmetry_Int_Tables_number   1
_chemical_formula_structural   RbLi2Fe2(BO3)3
_chemical_formula_sum   'Rb2 Li4 Fe4 B6 O18'
_cell_volume   427.75019093
_cell_formula_units_Z   2
loop_
 _symmetry_equiv_pos_site_id
 _symmetry_equiv_pos_as_xyz
  1  'x, y, z'
loop_
 _atom_site_type_symbol
 _atom_site_label
 _atom_site_symmetry_multiplicity
 _atom_site_fract_x
 _atom_site_fract_y
 _atom_site_fract_z
 _atom_site_occupancy
  Rb  Rb0  1  0.79170800  0.00000000  0.75000000  1
  Rb  Rb1  1  0.20829200  0.00000000  0.25000000  1
  Li  Li0  1  0.82767000  0.50257600  0.86538900  1
  Li  Li1  1  0.82767000  0.49742400  0.63461100  1
  Li  Li2  1  0.17233000  0.50257600  0.36538900  1
  Li  Li3  1  0.17233000  0.49742400  0.13461100  1
  Fe  Fe0  1  0.31567500  0.76571200  0.56331900  1
  Fe  Fe1  1  0.68432500  0.76571200  0.06331900  1
  Fe  Fe2  1  0.31567500  0.23428800  0.93668100  1
  Fe  Fe3  1  0.68432500  0.23428800  0.43668100  1
  B  B0  1  0.18218800  0.80340000  0.95766200  1
  B  B1  1  0.81781200  0.80340000  0.45766200  1
  B  B2  1  0.33276700  0.50000000  0.75000000  1
  B  B3  1  0.66723300  0.50000000  0.25000000  1
  B  B4  1  0.18218800  0.19660000  0.54233800  1
  B  B5  1  0.81781200  0.19660000  0.04233800  1
  O  O0  1  0.29683100  0.95397200  0.89496300  1
  O  O1  1  0.70316900  0.95397200  0.39496300  1
  O  O2  1  0.91483200  0.75742500  0.94737200  1
  O  O3  1  0.08516800  0.75742500  0.44737200  1
  O  O4  1  0.67409100  0.69962800  0.53306700  1
  O  O5  1  0.32590900  0.69962800  0.03306700  1
  O  O6  1  0.18160200  0.59747300  0.67200900  1
  O  O7  1  0.81839800  0.59747300  0.17200900  1
  O  O8  1  0.59823600  0.50000000  0.75000000  1
  O  O9  1  0.40176400  0.50000000  0.25000000  1
  O  O10  1  0.18160200  0.40252700  0.82799100  1
  O  O11  1  0.81839800  0.40252700  0.32799100  1
  O  O12  1  0.67409100  0.30037200  0.96693300  1
  O  O13  1  0.32590900  0.30037200  0.46693300  1
  O  O14  1  0.91483200  0.24257500  0.55262800  1
  O  O15  1  0.08516800  0.24257500  0.05262800  1
  O  O16  1  0.29683100  0.04602800  0.60503700  1
  O  O17  1  0.70316900  0.04602800  0.10503700  1
loop_
_geom_bond_atom_site_label_1
_geom_bond_atom_site_label_2
_geom_bond_distance
_geom_bond_site_symmetry_2
Li0 O8 1.905784 1_555
Li0 O10 1.976375 1_655
Li0 O12 1.995710 1_555
Li0 O2 2.031440 1_555
Li1 O8 1.905784 1_555
Li1 O6 1.976375 1_655
Li1 O4 1.995710 1_555
Li1 O14 2.031440 1_555
Li2 O9 1.905784 1_555
Li2 O11 1.976375 1_455
Li2 O13 1.995710 1_555
Li2 O3 2.031440 1_555
Li3 O9 1.905784 1_555
Li3 O7 1.976375 1_455
Li3 O5 1.995710 1_555
Li3 O15 2.031440 1_555
Fe0 O6 1.892203 1_555
Fe0 O16 1.902371 1_565
Fe0 O4 1.914298 1_555
Fe0 O3 1.916264 1_555
Fe1 O7 1.892203 1_555
Fe1 O17 1.902371 1_565
Fe1 O5 1.914298 1_555
Fe1 O2 1.916264 1_554
Fe2 O10 1.892203 1_555
Fe2 O0 1.902371 1_545
Fe2 O12 1.914298 1_555
Fe2 O15 1.916264 1_556
Fe3 O11 1.892203 1_555
Fe3 O1 1.902371 1_545
Fe3 O13 1.914298 1_555
Fe3 O14 1.916264 1_555
B0 O0 1.383288 1_555
B0 O5 1.385200 1_556
B0 O2 1.398033 1_455
B1 O1 1.383288 1_555
B1 O4 1.385200 1_555
B1 O3 1.398033 1_655
B2 O8 1.349331 1_555
B2 O10 1.411160 1_555
B2 O6 1.411160 1_555
B3 O9 1.349331 1_555
B3 O7 1.411160 1_555
B3 O11 1.411160 1_555
B4 O16 1.383288 1_555
B4 O13 1.385200 1_555
B4 O14 1.398033 1_455
B5 O17 1.383288 1_555
B5 O12 1.385200 1_554
B5 O15 1.398033 1_655
O0 Rb0 3.157762 1_565
O0 Rb0 3.199401 1_465
O1 Rb1 3.157762 1_565
O1 Rb1 3.199401 1_665
O2 Rb0 3.047024 1_565
O3 Rb1 3.047024 1_565
O4 Rb0 3.521097 1_565
O5 Rb1 3.521097 1_565
O6 Rb0 3.438895 1_465
O7 Rb1 3.438895 1_665
O8 Rb0 3.369830 1_555
O8 Rb0 3.369830 1_565
O9 Rb1 3.369830 1_555
O9 Rb1 3.369830 1_565
O10 Rb0 3.438895 1_455
O11 Rb1 3.438895 1_655
O12 Rb0 3.521097 1_555
O13 Rb1 3.521097 1_555
O14 Rb0 3.047024 1_555
O15 Rb1 3.047024 1_555
O16 Rb0 3.157762 1_555
O16 Rb0 3.199401 1_455
O17 Rb1 3.157762 1_555
O17 Rb1 3.199401 1_655
