# generated using pymatgen
data_Li2Fe3TeO8
_symmetry_space_group_name_H-M   'P 1'
_cell_length_a   6.18443358
_cell_length_b   6.18605002
_cell_length_c   6.19058133
_cell_angle_alpha   58.46894311
_cell_angle_beta   58.49321569
_cell_angle_gamma   58.55173451
_symmetry_Int_Tables_number   1
_chemical_formula_structural   Li2Fe3TeO8
_chemical_formula_sum   'Li2 Fe3 Te1 O8'
_cell_volume   161.73848199
_cell_formula_units_Z   1
loop_
 _symmetry_equiv_pos_site_id
 _symmetry_equiv_pos_as_xyz
  1  'x, y, z'
loop_
 _atom_site_type_symbol
 _atom_site_label
 _atom_site_symmetry_multiplicity
 _atom_site_fract_x
 _atom_site_fract_y
 _atom_site_fract_z
 _atom_site_occupancy
  Li  Li0  1  0.13718500  0.13717200  0.13711100  1
  Li  Li1  1  0.86281400  0.86283400  0.86288800  1
  Fe  Fe0  1  0.00000600  0.49998600  0.50000600  1
  Fe  Fe1  1  0.49999700  0.99998800  0.50000200  1
  Fe  Fe2  1  0.49999800  0.49999700  0.99999400  1
  Te  Te0  1  0.49999900  0.50000300  0.49999800  1
  O  O0  1  0.26827500  0.26810200  0.26764900  1
  O  O1  1  0.26901900  0.26894700  0.71863900  1
  O  O2  1  0.26898300  0.71870700  0.26876100  1
  O  O3  1  0.71873100  0.26889100  0.26873800  1
  O  O4  1  0.28127100  0.73111600  0.73126100  1
  O  O5  1  0.73101800  0.28129800  0.73123700  1
  O  O6  1  0.73098100  0.73105800  0.28136200  1
  O  O7  1  0.73172400  0.73190100  0.73235300  1
loop_
_geom_bond_atom_site_label_1
_geom_bond_atom_site_label_2
_geom_bond_distance
_geom_bond_site_symmetry_2
Li0 O0 2.005193 1_555
Li0 O3 2.077310 1_455
Li0 O2 2.077428 1_545
Li0 O1 2.077865 1_554
Li1 O7 2.005193 1_555
Li1 O4 2.077325 1_655
Li1 O5 2.077423 1_565
Li1 O6 2.077875 1_556
Fe0 O0 2.014879 1_555
Fe0 O7 2.014970 1_455
Fe0 O5 2.116709 1_455
Fe0 O2 2.116793 1_555
Fe0 O1 2.119339 1_555
Fe0 O6 2.119429 1_455
Fe1 O7 2.013120 1_555
Fe1 O0 2.013121 1_565
Fe1 O4 2.116322 1_555
Fe1 O3 2.116502 1_565
Fe1 O6 2.120071 1_555
Fe1 O1 2.120198 1_565
Fe2 O0 2.008529 1_556
Fe2 O7 2.008571 1_555
Fe2 O4 2.118454 1_555
Fe2 O3 2.118538 1_556
Fe2 O5 2.119551 1_555
Fe2 O2 2.119648 1_556
O1 Te0 2.000426 1_555
O2 Te0 2.003952 1_555
O3 Te0 2.005496 1_555
O4 Te0 2.005516 1_555
O5 Te0 2.003974 1_555
O6 Te0 2.000433 1_555
