# generated using pymatgen
data_Li3Fe3CoO8
_symmetry_space_group_name_H-M   'P 1'
_cell_length_a   5.91604642
_cell_length_b   5.91604642
_cell_length_c   5.04062021
_cell_angle_alpha   73.96329913
_cell_angle_beta   73.96329913
_cell_angle_gamma   59.31406730
_symmetry_Int_Tables_number   1
_chemical_formula_structural   Li3Fe3CoO8
_chemical_formula_sum   'Li3 Fe3 Co1 O8'
_cell_volume   143.84674366
_cell_formula_units_Z   1
loop_
 _symmetry_equiv_pos_site_id
 _symmetry_equiv_pos_as_xyz
  1  'x, y, z'
loop_
 _atom_site_type_symbol
 _atom_site_label
 _atom_site_symmetry_multiplicity
 _atom_site_fract_x
 _atom_site_fract_y
 _atom_site_fract_z
 _atom_site_occupancy
  Li  Li0  1  0.75233700  0.75233700  0.49197700  1
  Li  Li1  1  0.01063600  0.48857200  0.99689900  1
  Li  Li2  1  0.48857200  0.01063600  0.99689900  1
  Fe  Fe0  1  0.75654300  0.24529500  0.50021000  1
  Fe  Fe1  1  0.24529500  0.75654300  0.50021000  1
  Fe  Fe2  1  0.49830300  0.49830300  0.00509900  1
  Co  Co0  1  0.00126500  0.00126500  0.99570800  1
  O  O0  1  0.84797900  0.36476500  0.77837800  1
  O  O1  1  0.36476500  0.84797900  0.77837800  1
  O  O2  1  0.61047000  0.61047000  0.25070200  1
  O  O3  1  0.10991600  0.10991600  0.24224200  1
  O  O4  1  0.88645800  0.88645800  0.74434800  1
  O  O5  1  0.39187200  0.39187200  0.76343700  1
  O  O6  1  0.65228000  0.13603600  0.22187600  1
  O  O7  1  0.13603600  0.65228000  0.22187600  1
loop_
_geom_bond_atom_site_label_1
_geom_bond_atom_site_label_2
_geom_bond_distance
_geom_bond_site_symmetry_2
Li0 O4 2.152998 1_555
Li0 O7 2.173270 1_655
Li0 O6 2.173270 1_565
Li0 O2 2.175956 1_555
Li0 O0 2.227080 1_555
Li0 O1 2.227080 1_555
Li1 O5 2.094655 1_555
Li1 O3 2.102467 1_556
Li1 O0 2.103925 1_455
Li1 O7 2.139949 1_556
Li1 O4 2.190260 1_455
Li1 O2 2.203442 1_456
Li2 O5 2.094655 1_555
Li2 O3 2.102467 1_556
Li2 O1 2.103925 1_545
Li2 O6 2.139949 1_556
Li2 O4 2.190260 1_545
Li2 O2 2.203442 1_546
Fe0 O4 2.006401 1_545
Fe0 O3 2.016750 1_655
Fe0 O0 2.028546 1_555
Fe0 O6 2.037828 1_555
Fe0 O2 2.046851 1_555
Fe0 O5 2.076420 1_555
Fe1 O4 2.006401 1_455
Fe1 O3 2.016750 1_565
Fe1 O1 2.028546 1_555
Fe1 O7 2.037828 1_555
Fe1 O2 2.046851 1_555
Fe1 O5 2.076420 1_555
Fe2 O5 1.878548 1_554
Fe2 O0 1.932412 1_554
Fe2 O1 1.932412 1_554
Fe2 O2 1.941788 1_555
Fe2 O7 1.969886 1_555
Fe2 O6 1.969886 1_555
Co0 O3 1.917023 1_556
Co0 O6 1.928626 1_456
Co0 O7 1.928626 1_546
Co0 O0 1.975815 1_455
Co0 O1 1.975815 1_545
Co0 O4 1.987392 1_445
