# generated using pymatgen
data_CrFe5(PO4)6
_symmetry_space_group_name_H-M   'P 1'
_cell_length_a   8.43030158
_cell_length_b   8.43030158
_cell_length_c   8.43030146
_cell_angle_alpha   61.60475211
_cell_angle_beta   61.60475211
_cell_angle_gamma   61.60475105
_symmetry_Int_Tables_number   1
_chemical_formula_structural   CrFe5(PO4)6
_chemical_formula_sum   'Cr1 Fe5 P6 O24'
_cell_volume   438.90691372
_cell_formula_units_Z   1
loop_
 _symmetry_equiv_pos_site_id
 _symmetry_equiv_pos_as_xyz
  1  'x, y, z'
loop_
 _atom_site_type_symbol
 _atom_site_label
 _atom_site_symmetry_multiplicity
 _atom_site_fract_x
 _atom_site_fract_y
 _atom_site_fract_z
 _atom_site_occupancy
  Cr  Cr0  1  0.14223500  0.14223500  0.14223500  1
  Fe  Fe0  1  0.99815400  0.99815400  0.99815400  1
  Fe  Fe1  1  0.64640700  0.64640700  0.64640700  1
  Fe  Fe2  1  0.50050500  0.50050500  0.50050500  1
  Fe  Fe3  1  0.85370700  0.85370700  0.85370700  1
  Fe  Fe4  1  0.35398100  0.35398100  0.35398100  1
  P  P0  1  0.95378400  0.25069000  0.54427400  1
  P  P1  1  0.54427400  0.95378400  0.25069000  1
  P  P2  1  0.25069000  0.54427400  0.95378400  1
  P  P3  1  0.75096300  0.45259000  0.04832800  1
  P  P4  1  0.45259000  0.04832800  0.75096300  1
  P  P5  1  0.04832800  0.75096300  0.45259000  1
  O  O0  1  0.50420600  0.10700600  0.32462500  1
  O  O1  1  0.32462500  0.50420600  0.10700600  1
  O  O2  1  0.10700600  0.32462500  0.50420600  1
  O  O3  1  0.94044900  0.09422600  0.74809400  1
  O  O4  1  0.99438300  0.17945400  0.39046500  1
  O  O5  1  0.74971900  0.40559000  0.56104900  1
  O  O6  1  0.74809400  0.94044900  0.09422600  1
  O  O7  1  0.56104900  0.74971900  0.40559000  1
  O  O8  1  0.82436300  0.60678000  0.00546700  1
  O  O9  1  0.40559000  0.56104900  0.74971900  1
  O  O10  1  0.90634800  0.24892600  0.06238900  1
  O  O11  1  0.60678000  0.00546700  0.82436300  1
  O  O12  1  0.39046500  0.99438300  0.17945400  1
  O  O13  1  0.09422600  0.74809400  0.94044900  1
  O  O14  1  0.59583700  0.43808900  0.25112900  1
  O  O15  1  0.17945400  0.39046500  0.99438300  1
  O  O16  1  0.43808900  0.25112900  0.59583700  1
  O  O17  1  0.24892600  0.06238900  0.90634800  1
  O  O18  1  0.25112900  0.59583700  0.43808900  1
  O  O19  1  0.00546700  0.82436300  0.60678000  1
  O  O20  1  0.06238900  0.90634800  0.24892600  1
  O  O21  1  0.89275700  0.68024200  0.49279200  1
  O  O22  1  0.68024200  0.49279200  0.89275700  1
  O  O23  1  0.49279200  0.89275700  0.68024200  1
loop_
_geom_bond_atom_site_label_1
_geom_bond_atom_site_label_2
_geom_bond_distance
_geom_bond_site_symmetry_2
Cr0 O4 1.950120 1_455
Cr0 O12 1.950120 1_545
Cr0 O15 1.950120 1_554
Cr0 O17 2.052497 1_554
Cr0 O10 2.052497 1_455
Cr0 O20 2.052497 1_545
Fe0 O3 2.076868 1_565
Fe0 O13 2.076868 1_655
Fe0 O6 2.076868 1_556
Fe0 O20 2.120289 1_656
Fe0 O10 2.120289 1_566
Fe0 O17 2.120289 1_665
Fe1 O22 1.930195 1_555
Fe1 O23 1.930195 1_555
Fe1 O21 1.930196 1_555
Fe1 O7 2.123577 1_555
Fe1 O5 2.123577 1_555
Fe1 O9 2.123577 1_555
Fe2 O9 2.085024 1_555
Fe2 O5 2.085024 1_555
Fe2 O7 2.085024 1_555
Fe2 O14 2.094145 1_555
Fe2 O18 2.094145 1_555
Fe2 O16 2.094145 1_555
Fe3 O19 1.920183 1_655
Fe3 O11 1.920183 1_565
Fe3 O8 1.920183 1_556
Fe3 O6 2.124330 1_556
Fe3 O13 2.124330 1_655
Fe3 O3 2.124330 1_565
Fe4 O1 1.919438 1_555
Fe4 O0 1.919438 1_555
Fe4 O2 1.919438 1_555
Fe4 O16 2.126169 1_555
Fe4 O18 2.126169 1_555
Fe4 O14 2.126169 1_555
O0 P1 1.523686 1_545
O1 P2 1.523686 1_554
O2 P0 1.523686 1_455
O3 P0 1.583229 1_555
O4 P0 1.510676 1_555
O5 P0 1.578730 1_555
O6 P1 1.583229 1_555
O7 P1 1.578730 1_555
O8 P3 1.519457 1_555
O9 P2 1.578730 1_555
O10 P3 1.578892 1_555
O11 P4 1.519457 1_555
O12 P1 1.510676 1_555
O13 P2 1.583229 1_555
O14 P3 1.573187 1_555
O15 P2 1.510676 1_555
O16 P4 1.573187 1_555
O17 P4 1.578892 1_555
O18 P5 1.573187 1_555
O19 P5 1.519457 1_555
O20 P5 1.578892 1_555
O21 P5 1.522868 1_655
O22 P3 1.522868 1_556
O23 P4 1.522868 1_565
