# generated using pymatgen
data_Li2V3(CO3)6
_symmetry_space_group_name_H-M   'P 1'
_cell_length_a   4.80714000
_cell_length_b   6.08332471
_cell_length_c   12.18673051
_cell_angle_alpha   100.89506297
_cell_angle_beta   90.02526580
_cell_angle_gamma   113.24108138
_symmetry_Int_Tables_number   1
_chemical_formula_structural   Li2V3(CO3)6
_chemical_formula_sum   'Li2 V3 C6 O18'
_cell_volume   320.44592349
_cell_formula_units_Z   1
loop_
 _symmetry_equiv_pos_site_id
 _symmetry_equiv_pos_as_xyz
  1  'x, y, z'
loop_
 _atom_site_type_symbol
 _atom_site_label
 _atom_site_symmetry_multiplicity
 _atom_site_fract_x
 _atom_site_fract_y
 _atom_site_fract_z
 _atom_site_occupancy
  Li  Li0  1  0.92838200  0.35358700  0.77153100  1
  Li  Li1  1  0.07161800  0.64641300  0.22846900  1
  V  V0  1  0.33839500  0.16846400  0.16232000  1
  V  V1  1  0.00000000  0.50000000  0.50000000  1
  V  V2  1  0.66160500  0.83153600  0.83768000  1
  C  C0  1  0.53539400  0.57800800  0.36616600  1
  C  C1  1  0.20840100  0.91483800  0.69863300  1
  C  C2  1  0.46460600  0.42199200  0.63383400  1
  C  C3  1  0.87833100  0.24935900  0.03270200  1
  C  C4  1  0.12166900  0.75064100  0.96729800  1
  C  C5  1  0.79159900  0.08516200  0.30136700  1
  O  O0  1  0.48519400  0.94227200  0.71616900  1
  O  O1  1  0.51480600  0.05772800  0.28383100  1
  O  O2  1  0.57709200  0.34422800  0.54765800  1
  O  O3  1  0.61650600  0.50454400  0.73126300  1
  O  O4  1  0.38349400  0.49545600  0.26873700  1
  O  O5  1  0.06642100  0.79758400  0.59864400  1
  O  O6  1  0.42290800  0.65577200  0.45234200  1
  O  O7  1  0.07135900  0.00353600  0.77208400  1
  O  O8  1  0.14901200  0.25936500  0.04579200  1
  O  O9  1  0.18602100  0.41078300  0.62552100  1
  O  O10  1  0.23196000  0.65656000  0.88232700  1
  O  O11  1  0.92864100  0.99646400  0.22791600  1
  O  O12  1  0.27714600  0.84145600  0.06338100  1
  O  O13  1  0.93357900  0.20241600  0.40135600  1
  O  O14  1  0.72285400  0.15854400  0.93661900  1
  O  O15  1  0.76804000  0.34344000  0.11767300  1
  O  O16  1  0.81397900  0.58921700  0.37447900  1
  O  O17  1  0.85098800  0.74063500  0.95420800  1
loop_
_geom_bond_atom_site_label_1
_geom_bond_atom_site_label_2
_geom_bond_distance
_geom_bond_site_symmetry_2
Li0 O10 2.069926 1_655
Li0 O3 2.141983 1_555
Li0 O9 2.171881 1_655
Li0 O7 2.483466 1_655
Li0 O0 2.531485 1_545
Li0 O14 2.531917 1_555
Li1 O15 2.069926 1_455
Li1 O4 2.141983 1_555
Li1 O16 2.171881 1_455
Li1 O11 2.483466 1_455
Li1 O1 2.531485 1_565
Li1 O12 2.531917 1_555
C0 O6 1.278158 1_555
C0 O4 1.295995 1_555
C0 O16 1.316648 1_555
C1 O7 1.274700 1_565
C1 O0 1.286464 1_555
C1 O5 1.321342 1_555
C2 O2 1.278158 1_555
C2 O3 1.295995 1_555
C2 O9 1.316648 1_555
C3 O8 1.286824 1_655
C3 O14 1.289858 1_554
C3 O15 1.302641 1_555
C4 O17 1.286824 1_455
C4 O12 1.289858 1_556
C4 O10 1.302641 1_555
C5 O11 1.274700 1_545
C5 O1 1.286464 1_555
C5 O13 1.321342 1_555
O0 V2 2.047589 1_555
O1 V0 2.047589 1_555
O2 V1 2.014201 1_655
O3 V2 2.090456 1_555
O4 V0 2.090456 1_555
O5 V1 1.882847 1_555
O6 V1 2.014201 1_555
O7 V2 2.074796 1_445
O8 V0 1.960686 1_555
O9 V1 2.032196 1_555
O10 V2 2.044433 1_555
O11 V0 2.074796 1_665
O12 V0 2.031879 1_565
O13 V1 1.882847 1_655
O14 V2 2.031879 1_545
O15 V0 2.044433 1_555
O16 V1 2.032196 1_655
O17 V2 1.960686 1_555
