# generated using pymatgen
data_Sr3W2O9
_symmetry_space_group_name_H-M   'P 1'
_cell_length_a   7.34782108
_cell_length_b   7.34782108
_cell_length_c   7.34782058
_cell_angle_alpha   84.88825458
_cell_angle_beta   84.88825458
_cell_angle_gamma   84.88825923
_symmetry_Int_Tables_number   1
_chemical_formula_structural   Sr3W2O9
_chemical_formula_sum   'Sr6 W4 O18'
_cell_volume   392.24378127
_cell_formula_units_Z   2
loop_
 _symmetry_equiv_pos_site_id
 _symmetry_equiv_pos_as_xyz
  1  'x, y, z'
loop_
 _atom_site_type_symbol
 _atom_site_label
 _atom_site_symmetry_multiplicity
 _atom_site_fract_x
 _atom_site_fract_y
 _atom_site_fract_z
 _atom_site_occupancy
  Sr  Sr0  1  0.92337200  0.25000000  0.57662800  1
  Sr  Sr1  1  0.42337200  0.07662800  0.75000000  1
  Sr  Sr2  1  0.75000000  0.42337200  0.07662800  1
  Sr  Sr3  1  0.25000000  0.57662800  0.92337200  1
  Sr  Sr4  1  0.57662800  0.92337200  0.25000000  1
  Sr  Sr5  1  0.07662800  0.75000000  0.42337200  1
  W  W0  1  0.85654000  0.85654000  0.85654000  1
  W  W1  1  0.35654000  0.35654000  0.35654000  1
  W  W2  1  0.14346000  0.14346000  0.14346000  1
  W  W3  1  0.64346000  0.64346000  0.64346000  1
  O  O0  1  0.91958400  0.08415900  0.25720600  1
  O  O1  1  0.74279400  0.08041600  0.91584100  1
  O  O2  1  0.90127100  0.59872900  0.75000000  1
  O  O3  1  0.58041600  0.24279400  0.41584100  1
  O  O4  1  0.25000000  0.09872900  0.40127100  1
  O  O5  1  0.40127100  0.25000000  0.09872900  1
  O  O6  1  0.58415900  0.41958400  0.75720600  1
  O  O7  1  0.75720600  0.58415900  0.41958400  1
  O  O8  1  0.91584100  0.74279400  0.08041600  1
  O  O9  1  0.08415900  0.25720600  0.91958400  1
  O  O10  1  0.24279400  0.41584100  0.58041600  1
  O  O11  1  0.75000000  0.90127100  0.59872900  1
  O  O12  1  0.41584100  0.58041600  0.24279400  1
  O  O13  1  0.59872900  0.75000000  0.90127100  1
  O  O14  1  0.41958400  0.75720600  0.58415900  1
  O  O15  1  0.09872900  0.40127100  0.25000000  1
  O  O16  1  0.25720600  0.91958400  0.08415900  1
  O  O17  1  0.08041600  0.91584100  0.74279400  1
loop_
_geom_bond_atom_site_label_1
_geom_bond_atom_site_label_2
_geom_bond_distance
_geom_bond_site_symmetry_2
O0 W2 1.847231 1_655
O0 Sr0 2.742571 1_555
O0 Sr5 2.839535 1_645
O0 Sr4 2.883459 1_545
O0 Sr2 2.945765 1_555
O1 W0 1.847231 1_545
O1 Sr1 2.742571 1_555
O1 Sr4 2.839535 1_546
O1 Sr2 2.883459 1_556
O1 Sr0 2.945765 1_555
O2 W3 2.101637 1_555
O2 W0 2.101637 1_555
O2 Sr2 2.807932 1_556
O2 Sr5 2.807932 1_655
O2 Sr3 2.947161 1_655
O2 Sr0 2.947161 1_555
O3 W1 1.847231 1_555
O3 Sr4 2.742571 1_545
O3 Sr1 2.839535 1_555
O3 Sr0 2.883459 1_555
O3 Sr2 2.945765 1_555
O4 W2 2.101637 1_555
O4 W1 2.101637 1_555
O4 Sr0 2.807932 1_455
O4 Sr4 2.807932 1_545
O4 Sr1 2.947161 1_555
O4 Sr5 2.947161 1_545
O5 W1 2.101637 1_555
O5 W2 2.101637 1_555
O5 Sr3 2.807932 1_554
O5 Sr4 2.807932 1_545
O5 Sr1 2.947161 1_554
O5 Sr2 2.947161 1_555
O6 W3 1.847231 1_555
O6 Sr2 2.742571 1_556
O6 Sr3 2.839535 1_555
O6 Sr1 2.883459 1_555
O6 Sr0 2.945765 1_555
O7 W3 1.847231 1_555
O7 Sr5 2.742571 1_655
O7 Sr0 2.839535 1_555
O7 Sr2 2.883459 1_555
O7 Sr4 2.945765 1_555
O8 W0 1.847231 1_554
O8 Sr2 2.742571 1_555
O8 Sr3 2.839535 1_654
O8 Sr5 2.883459 1_655
O8 Sr4 2.945765 1_555
O9 W2 1.847231 1_556
O9 Sr3 2.742571 1_555
O9 Sr2 2.839535 1_456
O9 Sr0 2.883459 1_455
O9 Sr1 2.945765 1_555
O10 W1 1.847231 1_555
O10 Sr0 2.742571 1_455
O10 Sr5 2.839535 1_555
O10 Sr3 2.883459 1_555
O10 Sr1 2.945765 1_555
O11 W0 2.101637 1_555
O11 W3 2.101637 1_555
O11 Sr5 2.807932 1_655
O11 Sr1 2.807932 1_565
O11 Sr4 2.947161 1_555
O11 Sr0 2.947161 1_565
O12 W1 1.847231 1_555
O12 Sr3 2.742571 1_554
O12 Sr2 2.839535 1_555
O12 Sr4 2.883459 1_555
O12 Sr5 2.945765 1_555
O13 W3 2.101637 1_555
O13 W0 2.101637 1_555
O13 Sr2 2.807932 1_556
O13 Sr1 2.807932 1_565
O13 Sr4 2.947161 1_556
O13 Sr3 2.947161 1_555
O14 W3 1.847231 1_555
O14 Sr1 2.742571 1_565
O14 Sr4 2.839535 1_555
O14 Sr5 2.883459 1_555
O14 Sr3 2.945765 1_555
O15 W2 2.101637 1_555
O15 W1 2.101637 1_555
O15 Sr3 2.807932 1_554
O15 Sr0 2.807932 1_455
O15 Sr2 2.947161 1_455
O15 Sr5 2.947161 1_555
O16 W2 1.847231 1_565
O16 Sr4 2.742571 1_555
O16 Sr1 2.839535 1_564
O16 Sr3 2.883459 1_554
O16 Sr5 2.945765 1_555
O17 W0 1.847231 1_455
O17 Sr5 2.742571 1_555
O17 Sr0 2.839535 1_465
O17 Sr1 2.883459 1_565
O17 Sr3 2.945765 1_555
