# generated using pymatgen
data_Ba2YI7
_symmetry_space_group_name_H-M   'P 1'
_cell_length_a   17.86761700
_cell_length_b   7.89479600
_cell_length_c   12.12767650
_cell_angle_alpha   89.42557164
_cell_angle_beta   90.00000000
_cell_angle_gamma   90.00000000
_symmetry_Int_Tables_number   1
_chemical_formula_structural   Ba2YI7
_chemical_formula_sum   'Ba8 Y4 I28'
_cell_volume   1710.65851704
_cell_formula_units_Z   4
loop_
 _symmetry_equiv_pos_site_id
 _symmetry_equiv_pos_as_xyz
  1  'x, y, z'
loop_
 _atom_site_type_symbol
 _atom_site_label
 _atom_site_symmetry_multiplicity
 _atom_site_fract_x
 _atom_site_fract_y
 _atom_site_fract_z
 _atom_site_occupancy
  Ba  Ba0  1  0.22087900  0.73095200  0.04782500  1
  Ba  Ba1  1  0.55967500  0.72971100  0.17575000  1
  Ba  Ba2  1  0.05967500  0.27028900  0.32425000  1
  Ba  Ba3  1  0.72087900  0.26904800  0.45217500  1
  Ba  Ba4  1  0.27912100  0.73095200  0.54782500  1
  Ba  Ba5  1  0.94032500  0.72971100  0.67575000  1
  Ba  Ba6  1  0.44032500  0.27028900  0.82425000  1
  Ba  Ba7  1  0.77912100  0.26904800  0.95217500  1
  Y  Y0  1  0.87239200  0.78366800  0.21898600  1
  Y  Y1  1  0.37239200  0.21633200  0.28101400  1
  Y  Y2  1  0.62760800  0.78366800  0.71898600  1
  Y  Y3  1  0.12760800  0.21633200  0.78101400  1
  I  I0  1  0.14016000  0.29642800  0.02909800  1
  I  I1  1  0.39665100  0.99806600  0.06831600  1
  I  I2  1  0.39478800  0.48998900  0.08259600  1
  I  I3  1  0.93020800  0.13244200  0.12103800  1
  I  I4  1  0.74067900  0.50729500  0.19947900  1
  I  I5  1  0.72496300  0.99979200  0.20734200  1
  I  I6  1  0.04127900  0.70112100  0.21368400  1
  I  I7  1  0.54127900  0.29887900  0.28631600  1
  I  I8  1  0.22496300  0.00020800  0.29265800  1
  I  I9  1  0.24067900  0.49270500  0.30052100  1
  I  I10  1  0.43020800  0.86755800  0.37896200  1
  I  I11  1  0.89478800  0.51001100  0.41740400  1
  I  I12  1  0.89665100  0.00193400  0.43168400  1
  I  I13  1  0.64016000  0.70357200  0.47090200  1
  I  I14  1  0.35984000  0.29642800  0.52909800  1
  I  I15  1  0.10334900  0.99806600  0.56831600  1
  I  I16  1  0.10521200  0.48998900  0.58259600  1
  I  I17  1  0.56979200  0.13244200  0.62103800  1
  I  I18  1  0.75932100  0.50729500  0.69947900  1
  I  I19  1  0.77503700  0.99979200  0.70734200  1
  I  I20  1  0.45872100  0.70112100  0.71368400  1
  I  I21  1  0.95872100  0.29887900  0.78631600  1
  I  I22  1  0.27503700  0.00020800  0.79265800  1
  I  I23  1  0.25932100  0.49270500  0.80052100  1
  I  I24  1  0.06979200  0.86755800  0.87896200  1
  I  I25  1  0.60521200  0.51001100  0.91740400  1
  I  I26  1  0.60334900  0.00193400  0.93168400  1
  I  I27  1  0.85984000  0.70357200  0.97090200  1
loop_
_geom_bond_atom_site_label_1
_geom_bond_atom_site_label_2
_geom_bond_distance
_geom_bond_site_symmetry_2
Ba0 I24 3.549709 1_554
Ba0 I9 3.597120 1_555
Ba0 I23 3.621887 1_554
Ba0 I2 3.665549 1_555
Ba0 I8 3.669748 1_565
Ba0 I0 3.730347 1_555
Ba0 I1 3.792477 1_555
Ba0 I6 3.793398 1_555
Ba0 I22 3.860004 1_564
Ba1 I10 3.558515 1_555
Ba1 I7 3.658371 1_555
Ba1 I5 3.664914 1_555
Ba1 I2 3.685198 1_555
Ba1 I25 3.687270 1_554
Ba1 I4 3.689910 1_555
Ba1 I26 3.723109 1_564
Ba1 I1 3.823017 1_555
Ba1 I13 3.861180 1_555
Ba2 I3 3.558515 1_455
Ba2 I6 3.658371 1_555
Ba2 I8 3.664914 1_555
Ba2 I11 3.685198 1_455
Ba2 I16 3.687270 1_555
Ba2 I9 3.689910 1_555
Ba2 I15 3.723109 1_545
Ba2 I12 3.823017 1_455
Ba2 I0 3.861180 1_555
Ba3 I17 3.549709 1_555
Ba3 I4 3.597120 1_555
Ba3 I18 3.621887 1_555
Ba3 I11 3.665549 1_555
Ba3 I5 3.669748 1_545
Ba3 I13 3.730347 1_555
Ba3 I12 3.792477 1_555
Ba3 I7 3.793398 1_555
Ba3 I19 3.860004 1_545
Ba4 I10 3.549709 1_555
Ba4 I23 3.597120 1_555
Ba4 I9 3.621887 1_555
Ba4 I16 3.665549 1_555
Ba4 I22 3.669748 1_565
Ba4 I14 3.730347 1_555
Ba4 I15 3.792477 1_555
Ba4 I20 3.793398 1_555
Ba4 I8 3.860004 1_565
Ba5 I24 3.558515 1_655
Ba5 I21 3.658371 1_555
Ba5 I19 3.664914 1_555
Ba5 I16 3.685198 1_655
Ba5 I11 3.687270 1_555
Ba5 I18 3.689910 1_555
Ba5 I12 3.723109 1_565
Ba5 I15 3.823017 1_655
Ba5 I27 3.861180 1_555
Ba6 I17 3.558515 1_555
Ba6 I20 3.658371 1_555
Ba6 I22 3.664914 1_555
Ba6 I25 3.685198 1_555
Ba6 I2 3.687270 1_556
Ba6 I23 3.689910 1_555
Ba6 I1 3.723109 1_546
Ba6 I26 3.823017 1_555
Ba6 I14 3.861180 1_555
Ba7 I3 3.549709 1_556
Ba7 I18 3.597120 1_555
Ba7 I4 3.621887 1_556
Ba7 I25 3.665549 1_555
Ba7 I19 3.669748 1_545
Ba7 I27 3.730347 1_555
Ba7 I26 3.792477 1_555
Ba7 I21 3.793398 1_555
Ba7 I5 3.860004 1_546
I0 Y3 3.088766 1_554
I1 Y1 3.146473 1_565
I2 Y1 3.242533 1_555
I3 Y0 3.161392 1_545
I4 Y0 3.219553 1_555
I5 Y0 3.140932 1_555
I6 Y0 3.087983 1_455
I7 Y1 3.087983 1_555
I8 Y1 3.140932 1_555
I9 Y1 3.219553 1_555
I10 Y1 3.161392 1_565
I11 Y0 3.242533 1_555
I12 Y0 3.146473 1_545
I13 Y2 3.088766 1_555
I14 Y1 3.088766 1_555
I15 Y3 3.146473 1_565
I16 Y3 3.242533 1_555
I17 Y2 3.161392 1_545
I18 Y2 3.219553 1_555
I19 Y2 3.140932 1_555
I20 Y2 3.087983 1_555
I21 Y3 3.087983 1_655
I22 Y3 3.140932 1_555
I23 Y3 3.219553 1_555
I24 Y3 3.161392 1_565
I25 Y2 3.242533 1_555
I26 Y2 3.146473 1_545
I27 Y0 3.088766 1_556
