# generated using pymatgen
data_Li5VP2(O4F)2
_symmetry_space_group_name_H-M   'P 1'
_cell_length_a   10.09538846
_cell_length_b   10.09538846
_cell_length_c   6.57593300
_cell_angle_alpha   90.00000000
_cell_angle_beta   90.00000000
_cell_angle_gamma   120.00000301
_symmetry_Int_Tables_number   1
_chemical_formula_structural   Li5VP2(O4F)2
_chemical_formula_sum   'Li15 V3 P6 O24 F6'
_cell_volume   580.40890597
_cell_formula_units_Z   3
loop_
 _symmetry_equiv_pos_site_id
 _symmetry_equiv_pos_as_xyz
  1  'x, y, z'
loop_
 _atom_site_type_symbol
 _atom_site_label
 _atom_site_symmetry_multiplicity
 _atom_site_fract_x
 _atom_site_fract_y
 _atom_site_fract_z
 _atom_site_occupancy
  Li  Li0  1  0.83370600  0.16739900  0.50284500  1
  Li  Li1  1  0.00000000  0.00000000  0.56102100  1
  Li  Li2  1  0.00000000  0.00000000  0.95903000  1
  Li  Li3  1  0.66666700  0.33333300  0.44862600  1
  Li  Li4  1  0.66666700  0.33333300  0.05148300  1
  Li  Li5  1  0.83260100  0.66630700  0.50284500  1
  Li  Li6  1  0.33369300  0.16629400  0.50284500  1
  Li  Li7  1  0.12993300  0.81462500  0.73757900  1
  Li  Li8  1  0.98616600  0.46724300  0.27143600  1
  Li  Li9  1  0.48107700  0.01383400  0.27143600  1
  Li  Li10  1  0.33333300  0.66666700  0.97837300  1
  Li  Li11  1  0.33333300  0.66666700  0.49168900  1
  Li  Li12  1  0.18537500  0.31530800  0.73757900  1
  Li  Li13  1  0.68469200  0.87006700  0.73757900  1
  Li  Li14  1  0.53275700  0.51892300  0.27143600  1
  V  V0  1  0.83380800  0.16717900  0.00448600  1
  V  V1  1  0.83282100  0.66662900  0.00448600  1
  V  V2  1  0.33337100  0.16619200  0.00448600  1
  P  P0  1  0.70231000  0.85472300  0.26620300  1
  P  P1  1  0.15241300  0.29769000  0.26620300  1
  P  P2  1  0.96498600  0.48012900  0.74379500  1
  P  P3  1  0.14527700  0.84758700  0.26620300  1
  P  P4  1  0.51514300  0.03501400  0.74379500  1
  P  P5  1  0.51987100  0.48485700  0.74379500  1
  O  O0  1  0.68601500  0.07327600  0.76639900  1
  O  O1  1  0.78366400  0.95831200  0.07608700  1
  O  O2  1  0.78134100  0.94480300  0.46065500  1
  O  O3  1  0.98242100  0.26198800  0.24181800  1
  O  O4  1  0.73801200  0.72043300  0.24181800  1
  O  O5  1  0.16346300  0.21865900  0.46065500  1
  O  O6  1  0.17464800  0.21633600  0.07608700  1
  O  O7  1  0.92672400  0.61273900  0.76639900  1
  O  O8  1  0.04168800  0.82535200  0.07608700  1
  O  O9  1  0.05519700  0.83653700  0.46065500  1
  O  O10  1  0.88832300  0.39029000  0.54818900  1
  O  O11  1  0.88331600  0.37576600  0.93284800  1
  O  O12  1  0.27956700  0.01757900  0.24181800  1
  O  O13  1  0.38726100  0.31398500  0.76639900  1
  O  O14  1  0.20839900  0.73724800  0.26315600  1
  O  O15  1  0.13871800  0.54574500  0.74961300  1
  O  O16  1  0.49245000  0.11668400  0.93284800  1
  O  O17  1  0.50196700  0.11167700  0.54818900  1
  O  O18  1  0.40702700  0.86128200  0.74961300  1
  O  O19  1  0.26275200  0.47115100  0.26315600  1
  O  O20  1  0.52884900  0.79160100  0.26315600  1
  O  O21  1  0.45425500  0.59297300  0.74961300  1
  O  O22  1  0.60971000  0.49803300  0.54818900  1
  O  O23  1  0.62423400  0.50755000  0.93284800  1
  F  F0  1  0.69410500  0.17942700  0.22496100  1
  F  F1  1  0.97286700  0.15363200  0.78447700  1
  F  F2  1  0.84636800  0.81923500  0.78447700  1
  F  F3  1  0.82057300  0.51467900  0.22496100  1
  F  F4  1  0.18076500  0.02713300  0.78447700  1
  F  F5  1  0.48532100  0.30589500  0.22496100  1
loop_
_geom_bond_atom_site_label_1
_geom_bond_atom_site_label_2
_geom_bond_distance
_geom_bond_site_symmetry_2
Li0 O10 2.053169 1_555
Li0 O2 2.053861 1_545
Li0 O3 2.163003 1_555
Li0 O0 2.170920 1_555
Li1 O2 2.094963 1_445
Li1 O5 2.094965 1_555
Li1 O9 2.094972 1_545
Li2 O6 2.149497 1_556
Li2 O1 2.149497 1_446
Li2 O8 2.149497 1_546
Li3 O10 2.116581 1_555
Li3 O17 2.116584 1_555
Li3 O22 2.116591 1_555
Li4 O11 2.153797 1_554
Li4 O16 2.153800 1_554
Li4 O23 2.153806 1_554
Li5 O22 2.053169 1_555
Li5 O9 2.053858 1_655
Li5 O4 2.163003 1_555
Li5 O7 2.170920 1_555
Li6 O17 2.053169 1_555
Li6 O5 2.053852 1_555
Li6 O12 2.163003 1_555
Li6 O13 2.170920 1_555
Li7 O9 2.025155 1_555
Li7 O7 2.053592 1_455
Li7 O8 2.420114 1_556
Li7 O18 2.595340 1_555
Li8 O10 2.030741 1_555
Li8 O3 2.062702 1_555
Li8 O11 2.435057 1_554
Li8 O14 2.520114 1_655
Li9 O17 2.030741 1_555
Li9 O12 2.062702 1_555
Li9 O16 2.435057 1_554
Li9 O20 2.520115 1_545
Li10 O18 2.283606 1_555
Li10 O15 2.283607 1_555
Li10 O21 2.283613 1_555
Li10 O14 2.550342 1_556
Li10 O20 2.550347 1_556
Li10 O19 2.550348 1_556
Li11 O14 2.292520 1_555
Li11 O20 2.292526 1_555
Li11 O19 2.292527 1_555
Li11 O18 2.414255 1_555
Li11 O15 2.414256 1_555
Li11 O21 2.414262 1_555
Li12 O5 2.025159 1_555
Li12 O13 2.053592 1_555
Li12 O6 2.420114 1_556
Li12 O15 2.595340 1_555
Li13 O2 2.025158 1_555
Li13 O0 2.053592 1_565
Li13 O1 2.420114 1_556
Li13 O21 2.595340 1_555
Li14 O22 2.030741 1_555
Li14 O4 2.062702 1_555
Li14 O23 2.435057 1_554
Li14 O19 2.520115 1_555
O0 P4 1.575013 1_555
O0 V0 2.040011 1_556
O1 P0 1.572340 1_555
O1 V0 1.963849 1_565
O2 P0 1.540481 1_555
O3 P1 1.575500 1_655
O3 V0 2.041262 1_555
O4 P0 1.575500 1_555
O4 V1 2.041262 1_555
O5 P1 1.540484 1_555
O6 P1 1.572340 1_555
O6 V2 1.963849 1_555
O7 P2 1.575013 1_555
O7 V1 2.040011 1_556
O8 P3 1.572340 1_555
O8 V1 1.963849 1_455
O9 P3 1.540479 1_555
O10 P2 1.540836 1_555
O11 P2 1.570573 1_555
O11 V0 1.963036 1_556
O12 P3 1.575500 1_545
O12 V2 2.041262 1_555
O13 P5 1.575013 1_555
O13 V2 2.040011 1_556
O14 P3 1.535291 1_555
O15 P2 1.534467 1_455
O16 P4 1.570573 1_555
O16 V2 1.963036 1_556
O17 P4 1.540836 1_555
O18 P4 1.534467 1_565
O19 P1 1.535290 1_555
O20 P0 1.535290 1_555
O21 P5 1.534467 1_555
O22 P5 1.540836 1_555
O23 P5 1.570573 1_555
O23 V1 1.963036 1_556
F0 Li9 1.979378 1_555
F0 Li4 2.054896 1_555
F0 V0 2.069006 1_555
F0 Li3 2.254882 1_555
F0 Li0 2.347610 1_555
F1 Li12 1.964702 1_655
F1 Li2 2.054982 1_655
F1 V0 2.067519 1_556
F1 Li1 2.250472 1_655
F1 Li0 2.370264 1_555
F2 Li13 1.964702 1_555
F2 Li2 2.054982 1_665
F2 V1 2.067519 1_556
F2 Li1 2.250472 1_665
F2 Li5 2.370264 1_555
F3 Li8 1.979384 1_555
F3 Li4 2.054907 1_555
F3 V1 2.068999 1_555
F3 Li3 2.254891 1_555
F3 Li5 2.347603 1_555
F4 Li7 1.964702 1_545
F4 Li2 2.054982 1_555
F4 V2 2.067519 1_556
F4 Li1 2.250472 1_555
F4 Li6 2.370264 1_555
F5 Li14 1.979375 1_555
F5 Li4 2.054913 1_555
F5 V2 2.069002 1_555
F5 Li3 2.254897 1_555
F5 Li6 2.347606 1_555
