# generated using pymatgen
data_LaMgI5
_symmetry_space_group_name_H-M   'P 1'
_cell_length_a   12.29427100
_cell_length_b   10.96242500
_cell_length_c   12.61272624
_cell_angle_alpha   77.86115525
_cell_angle_beta   90.00000000
_cell_angle_gamma   90.00000000
_symmetry_Int_Tables_number   1
_chemical_formula_structural   LaMgI5
_chemical_formula_sum   'La4 Mg4 I20'
_cell_volume   1661.87267674
_cell_formula_units_Z   4
loop_
 _symmetry_equiv_pos_site_id
 _symmetry_equiv_pos_as_xyz
  1  'x, y, z'
loop_
 _atom_site_type_symbol
 _atom_site_label
 _atom_site_symmetry_multiplicity
 _atom_site_fract_x
 _atom_site_fract_y
 _atom_site_fract_z
 _atom_site_occupancy
  La  La0  1  0.26138800  0.51095700  0.75275300  1
  La  La1  1  0.76138800  0.48904300  0.74724700  1
  La  La2  1  0.23861200  0.51095700  0.25275300  1
  La  La3  1  0.73861200  0.48904300  0.24724700  1
  Mg  Mg0  1  0.50417100  0.12457500  0.88519700  1
  Mg  Mg1  1  0.99582900  0.12457500  0.38519700  1
  Mg  Mg2  1  0.00417100  0.87542500  0.61480300  1
  Mg  Mg3  1  0.49582900  0.87542500  0.11480300  1
  I  I0  1  0.30860800  0.21832200  0.79484300  1
  I  I1  1  0.70308000  0.19853300  0.79204000  1
  I  I2  1  0.78310200  0.48116300  0.99999300  1
  I  I3  1  0.01311400  0.44508500  0.73167300  1
  I  I4  1  0.49363600  0.86946900  0.89826400  1
  I  I5  1  0.99363600  0.13053100  0.60173600  1
  I  I6  1  0.51311400  0.55491500  0.76832700  1
  I  I7  1  0.19139200  0.21832200  0.29484300  1
  I  I8  1  0.28310200  0.51883700  0.50000700  1
  I  I9  1  0.79692000  0.19853300  0.29204000  1
  I  I10  1  0.20308000  0.80146700  0.70796000  1
  I  I11  1  0.71689800  0.48116300  0.49999300  1
  I  I12  1  0.80860800  0.78167800  0.70515700  1
  I  I13  1  0.48688600  0.44508500  0.23167300  1
  I  I14  1  0.00636400  0.86946900  0.39826400  1
  I  I15  1  0.50636400  0.13053100  0.10173600  1
  I  I16  1  0.98688600  0.55491500  0.26832700  1
  I  I17  1  0.21689800  0.51883700  0.00000700  1
  I  I18  1  0.29692000  0.80146700  0.20796000  1
  I  I19  1  0.69139200  0.78167800  0.20515700  1
loop_
_geom_bond_atom_site_label_1
_geom_bond_atom_site_label_2
_geom_bond_distance
_geom_bond_site_symmetry_2
I0 Mg0 2.764597 1_555
I0 La0 3.192775 1_555
I1 Mg0 2.759967 1_555
I1 La1 3.196662 1_555
I2 La1 3.181994 1_555
I2 La3 3.185164 1_556
I3 La1 3.144570 1_455
I3 La0 3.160651 1_555
I4 Mg3 2.745751 1_556
I4 Mg0 2.769650 1_565
I5 Mg1 2.745751 1_555
I5 Mg2 2.769650 1_645
I6 La0 3.144570 1_555
I6 La1 3.160651 1_555
I7 Mg1 2.764597 1_455
I7 La2 3.192775 1_555
I8 La0 3.181994 1_555
I8 La2 3.185164 1_555
I9 Mg1 2.759967 1_555
I9 La3 3.196662 1_555
I10 Mg2 2.759967 1_555
I10 La0 3.196662 1_555
I11 La3 3.181994 1_555
I11 La1 3.185164 1_555
I12 Mg2 2.764597 1_655
I12 La1 3.192775 1_555
I13 La3 3.144570 1_555
I13 La2 3.160651 1_555
I14 Mg2 2.745751 1_555
I14 Mg1 2.769650 1_465
I15 Mg0 2.745751 1_554
I15 Mg3 2.769650 1_545
I16 La2 3.144570 1_655
I16 La3 3.160651 1_555
I17 La2 3.181994 1_555
I17 La0 3.185164 1_554
I18 Mg3 2.759967 1_555
I18 La2 3.196662 1_555
I19 Mg3 2.764597 1_555
I19 La3 3.192775 1_555
