# generated using pymatgen
data_Ti3V2Ni(PO4)6
_symmetry_space_group_name_H-M   'P 1'
_cell_length_a   8.53711003
_cell_length_b   8.53711003
_cell_length_c   8.53711000
_cell_angle_alpha   60.93003496
_cell_angle_beta   60.93003496
_cell_angle_gamma   60.93003701
_symmetry_Int_Tables_number   1
_chemical_formula_structural   Ti3V2Ni(PO4)6
_chemical_formula_sum   'Ti3 V2 Ni1 P6 O24'
_cell_volume   449.18564471
_cell_formula_units_Z   1
loop_
 _symmetry_equiv_pos_site_id
 _symmetry_equiv_pos_as_xyz
  1  'x, y, z'
loop_
 _atom_site_type_symbol
 _atom_site_label
 _atom_site_symmetry_multiplicity
 _atom_site_fract_x
 _atom_site_fract_y
 _atom_site_fract_z
 _atom_site_occupancy
  Ti  Ti0  1  0.35470600  0.35470600  0.35470600  1
  Ti  Ti1  1  0.14210600  0.14210600  0.14210600  1
  Ti  Ti2  1  0.64521600  0.64521600  0.64521600  1
  V  V0  1  0.99900700  0.99900700  0.99900700  1
  V  V1  1  0.49853400  0.49853400  0.49853400  1
  Ni  Ni0  1  0.85844300  0.85844300  0.85844300  1
  P  P0  1  0.75167400  0.04486100  0.45943800  1
  P  P1  1  0.04486100  0.45943800  0.75167400  1
  P  P2  1  0.45943800  0.75167400  0.04486100  1
  P  P3  1  0.54269100  0.25049200  0.95516300  1
  P  P4  1  0.95516300  0.54269100  0.25049200  1
  P  P5  1  0.25049200  0.95516300  0.54269100  1
  O  O0  1  0.88089000  0.50578100  0.68480600  1
  O  O1  1  0.50578100  0.68480600  0.88089000  1
  O  O2  1  0.68480600  0.88089000  0.50578100  1
  O  O3  1  0.91030800  0.05686800  0.25987200  1
  O  O4  1  0.81479700  0.01433800  0.61004600  1
  O  O5  1  0.58808400  0.24043400  0.43159300  1
  O  O6  1  0.05686800  0.25987200  0.91030800  1
  O  O7  1  0.24043400  0.43159300  0.58808400  1
  O  O8  1  0.38020700  0.18416200  0.00165100  1
  O  O9  1  0.43159300  0.58808400  0.24043400  1
  O  O10  1  0.73570200  0.09652600  0.94789800  1
  O  O11  1  0.00165100  0.38020700  0.18416200  1
  O  O12  1  0.01433800  0.61004600  0.81479700  1
  O  O13  1  0.25987200  0.91030800  0.05686800  1
  O  O14  1  0.55428800  0.41318700  0.76006000  1
  O  O15  1  0.61004600  0.81479700  0.01433800  1
  O  O16  1  0.76006000  0.55428800  0.41318700  1
  O  O17  1  0.94789800  0.73570200  0.09652600  1
  O  O18  1  0.41318700  0.76006000  0.55428800  1
  O  O19  1  0.18416200  0.00165100  0.38020700  1
  O  O20  1  0.09652600  0.94789800  0.73570200  1
  O  O21  1  0.32820400  0.11304400  0.48491500  1
  O  O22  1  0.48491500  0.32820400  0.11304400  1
  O  O23  1  0.11304400  0.48491500  0.32820400  1
loop_
_geom_bond_atom_site_label_1
_geom_bond_atom_site_label_2
_geom_bond_distance
_geom_bond_site_symmetry_2
Ni0 O15 1.987562 1_556
Ni0 O4 1.987562 1_565
Ni0 O12 1.987562 1_655
Ni0 O20 2.115075 1_655
Ni0 O17 2.115075 1_556
Ni0 O10 2.115075 1_565
O0 P1 1.568707 1_655
O0 Ti2 1.876634 1_555
O1 P2 1.568706 1_556
O1 Ti2 1.876634 1_555
O2 P0 1.568706 1_565
O2 Ti2 1.876634 1_555
O3 P0 1.571713 1_555
O3 Ti1 2.052160 1_655
O3 V0 2.200876 1_544
O4 P0 1.490888 1_555
O5 P0 1.570232 1_555
O5 Ti0 2.027788 1_555
O5 V1 2.219979 1_555
O6 P1 1.571713 1_555
O6 Ti1 2.052160 1_556
O6 V0 2.200876 1_445
O7 P1 1.570232 1_555
O7 Ti0 2.027788 1_555
O7 V1 2.219979 1_555
O8 P3 1.553152 1_554
O8 Ti1 1.902859 1_555
O9 P2 1.570232 1_555
O9 Ti0 2.027788 1_555
O9 V1 2.219979 1_555
O10 P3 1.523776 1_555
O10 V0 2.172077 1_545
O11 P4 1.553152 1_455
O11 Ti1 1.902859 1_555
O12 P1 1.490888 1_555
O13 P2 1.571713 1_555
O13 Ti1 2.052160 1_565
O13 V0 2.200876 1_454
O14 P3 1.561577 1_555
O14 Ti2 2.086873 1_555
O14 V1 2.203893 1_555
O15 P2 1.490888 1_555
O16 P4 1.561577 1_555
O16 Ti2 2.086873 1_555
O16 V1 2.203893 1_555
O17 P4 1.523776 1_555
O17 V0 2.172077 1_554
O18 P5 1.561577 1_555
O18 Ti2 2.086873 1_555
O18 V1 2.203893 1_555
O19 P5 1.553152 1_545
O19 Ti1 1.902859 1_555
O20 P5 1.523776 1_555
O20 V0 2.172077 1_455
O21 P5 1.550824 1_545
O21 Ti0 1.877190 1_555
O22 P3 1.550824 1_554
O22 Ti0 1.877190 1_555
O23 P4 1.550824 1_455
O23 Ti0 1.877190 1_555
