# generated using pymatgen
data_MnOF
_symmetry_space_group_name_H-M   'P 1'
_cell_length_a   4.57069800
_cell_length_b   7.65846221
_cell_length_c   7.70059117
_cell_angle_alpha   94.85010279
_cell_angle_beta   90.28558756
_cell_angle_gamma   90.18333873
_symmetry_Int_Tables_number   1
_chemical_formula_structural   MnOF
_chemical_formula_sum   'Mn8 O8 F8'
_cell_volume   268.58517538
_cell_formula_units_Z   8
loop_
 _symmetry_equiv_pos_site_id
 _symmetry_equiv_pos_as_xyz
  1  'x, y, z'
loop_
 _atom_site_type_symbol
 _atom_site_label
 _atom_site_symmetry_multiplicity
 _atom_site_fract_x
 _atom_site_fract_y
 _atom_site_fract_z
 _atom_site_occupancy
  Mn  Mn0  1  0.48936800  0.95002200  0.31562500  1
  Mn  Mn1  1  0.48570900  0.05222100  0.71807300  1
  Mn  Mn2  1  0.51688100  0.46211500  0.80912200  1
  Mn  Mn3  1  0.51990800  0.55971400  0.20955600  1
  Mn  Mn4  1  0.99763100  0.18504800  0.03892000  1
  Mn  Mn5  1  0.04471800  0.29946200  0.43166000  1
  Mn  Mn6  1  0.03573600  0.70387500  0.53810200  1
  Mn  Mn7  1  0.99875300  0.78556800  0.93922300  1
  O  O0  1  0.20227300  0.00378900  0.90001400  1
  O  O1  1  0.22418800  0.14177000  0.25643200  1
  O  O2  1  0.22910000  0.64712200  0.75668100  1
  O  O3  1  0.24944200  0.51127100  0.39080600  1
  O  O4  1  0.27365300  0.92305800  0.52799600  1
  O  O5  1  0.71451200  0.23199200  0.85579300  1
  O  O6  1  0.73122100  0.74432300  0.35539600  1
  O  O7  1  0.72737000  0.60167900  0.98783300  1
  F  F0  1  0.27160800  0.28759900  0.66682700  1
  F  F1  1  0.26095100  0.41397800  0.03552200  1
  F  F2  1  0.24075500  0.76838300  0.15685400  1
  F  F3  1  0.74508200  0.12076000  0.49787800  1
  F  F4  1  0.78960900  0.47537800  0.57786300  1
  F  F5  1  0.75677000  0.83836200  0.72160700  1
  F  F6  1  0.73385000  0.96300700  0.09742600  1
  F  F7  1  0.76091000  0.32950500  0.21478900  1
loop_
_geom_bond_atom_site_label_1
_geom_bond_atom_site_label_2
_geom_bond_distance
_geom_bond_site_symmetry_2
Mn0 O4 1.939363 1_555
Mn0 O6 1.971504 1_555
Mn0 O1 1.988066 1_565
Mn1 O4 1.948140 1_545
Mn1 O5 1.961304 1_555
Mn1 O0 1.970214 1_555
Mn2 O7 1.921820 1_555
Mn2 O2 2.001037 1_555
Mn2 O5 2.040884 1_555
Mn3 O3 1.927634 1_555
Mn3 O6 1.976096 1_555
Mn3 O7 2.006153 1_554
Mn4 O0 1.926982 1_654
Mn4 O5 1.965443 1_554
Mn4 O1 2.016550 1_655
Mn5 O3 1.919737 1_555
Mn5 O1 1.921970 1_555
Mn6 O2 1.978507 1_555
Mn6 O4 2.004386 1_555
Mn6 O6 2.017330 1_455
Mn6 O3 2.038085 1_555
Mn7 O7 1.935112 1_555
Mn7 O0 1.956451 1_665
Mn7 O2 1.994617 1_655
F0 Mn2 1.993563 1_555
F0 Mn5 2.091141 1_555
F0 Mn1 2.119100 1_555
F1 Mn3 2.040954 1_555
F1 Mn4 2.125486 1_455
F1 Mn2 2.161026 1_554
F2 Mn7 2.017217 1_454
F2 Mn0 2.099907 1_555
F2 Mn3 2.112845 1_555
F3 Mn5 2.030188 1_655
F3 Mn0 2.170046 1_545
F3 Mn1 2.173177 1_555
F4 Mn5 2.051555 1_655
F4 Mn6 2.122033 1_655
F4 Mn2 2.188033 1_555
F5 Mn1 2.058734 1_565
F5 Mn7 2.072185 1_555
F5 Mn6 2.112753 1_655
F6 Mn0 2.031780 1_555
F6 Mn7 2.131219 1_554
F6 Mn4 2.161046 1_565
F7 Mn4 1.999412 1_555
F7 Mn3 2.085034 1_555
F7 Mn5 2.137750 1_655
