# generated using pymatgen
data_Li2Co3SbO8
_symmetry_space_group_name_H-M   'P 1'
_cell_length_a   5.76430426
_cell_length_b   5.76430426
_cell_length_c   9.38812400
_cell_angle_alpha   90.00000000
_cell_angle_beta   90.00000000
_cell_angle_gamma   120.00000299
_symmetry_Int_Tables_number   1
_chemical_formula_structural   Li2Co3SbO8
_chemical_formula_sum   'Li4 Co6 Sb2 O16'
_cell_volume   270.14891557
_cell_formula_units_Z   2
loop_
 _symmetry_equiv_pos_site_id
 _symmetry_equiv_pos_as_xyz
  1  'x, y, z'
loop_
 _atom_site_type_symbol
 _atom_site_label
 _atom_site_symmetry_multiplicity
 _atom_site_fract_x
 _atom_site_fract_y
 _atom_site_fract_z
 _atom_site_occupancy
  Li  Li0  1  0.33333300  0.66666700  0.89727000  1
  Li  Li1  1  0.00000000  0.00000000  0.99483200  1
  Li  Li2  1  0.00000000  0.00000000  0.49483200  1
  Li  Li3  1  0.66666700  0.33333300  0.39727000  1
  Co  Co0  1  0.17024700  0.82975300  0.21513100  1
  Co  Co1  1  0.17024700  0.34049400  0.21513100  1
  Co  Co2  1  0.65950600  0.82975300  0.21513100  1
  Co  Co3  1  0.34049400  0.17024700  0.71513100  1
  Co  Co4  1  0.82975300  0.65950600  0.71513100  1
  Co  Co5  1  0.82975300  0.17024700  0.71513100  1
  Sb  Sb0  1  0.33333300  0.66666700  0.49051600  1
  Sb  Sb1  1  0.66666700  0.33333300  0.99051600  1
  O  O0  1  0.16125000  0.83875000  0.59918600  1
  O  O1  1  0.03446200  0.51723100  0.33623600  1
  O  O2  1  0.33333300  0.66666700  0.11253700  1
  O  O3  1  0.00000000  0.00000000  0.30707000  1
  O  O4  1  0.00000000  0.00000000  0.80707000  1
  O  O5  1  0.16125000  0.32250000  0.59918600  1
  O  O6  1  0.48276900  0.96553800  0.33623600  1
  O  O7  1  0.48276900  0.51723100  0.33623600  1
  O  O8  1  0.32250000  0.16125000  0.09918600  1
  O  O9  1  0.67750000  0.83875000  0.59918600  1
  O  O10  1  0.51723100  0.48276900  0.83623600  1
  O  O11  1  0.51723100  0.03446200  0.83623600  1
  O  O12  1  0.66666700  0.33333300  0.61253700  1
  O  O13  1  0.83875000  0.67750000  0.09918600  1
  O  O14  1  0.96553800  0.48276900  0.83623600  1
  O  O15  1  0.83875000  0.16125000  0.09918600  1
loop_
_geom_bond_atom_site_label_1
_geom_bond_atom_site_label_2
_geom_bond_distance
_geom_bond_site_symmetry_2
Li0 O11 1.923378 1_565
Li0 O14 1.923378 1_455
Li0 O10 1.923383 1_555
Li0 O2 2.020953 1_556
Li1 O4 1.762733 1_555
Li1 O13 1.884587 1_446
Li1 O8 1.884587 1_556
Li1 O15 1.884587 1_456
Li2 O3 1.762733 1_555
Li2 O5 1.884587 1_555
Li2 O9 1.884587 1_445
Li2 O0 1.884587 1_545
Li3 O1 1.923378 1_655
Li3 O6 1.923378 1_545
Li3 O7 1.923383 1_555
Li3 O12 2.020953 1_555
Co0 O2 1.891804 1_555
Co0 O3 1.906352 1_565
Co0 O6 1.934053 1_555
Co0 O1 1.934053 1_555
Co0 O8 1.982273 1_565
Co0 O13 1.982273 1_455
Co1 O2 1.891809 1_555
Co1 O3 1.906352 1_555
Co1 O7 1.934053 1_555
Co1 O1 1.934053 1_555
Co1 O15 1.982273 1_455
Co1 O8 1.982273 1_555
Co2 O2 1.891809 1_555
Co2 O3 1.906352 1_665
Co2 O7 1.934053 1_555
Co2 O6 1.934053 1_555
Co2 O15 1.982273 1_565
Co2 O13 1.982273 1_555
Co3 O12 1.891809 1_555
Co3 O4 1.906352 1_555
Co3 O10 1.934053 1_555
Co3 O11 1.934053 1_555
Co3 O0 1.982273 1_545
Co3 O5 1.982273 1_555
Co4 O12 1.891809 1_555
Co4 O4 1.906352 1_665
Co4 O10 1.934053 1_555
Co4 O14 1.934053 1_555
Co4 O0 1.982273 1_655
Co4 O9 1.982273 1_555
Co5 O12 1.891804 1_555
Co5 O4 1.906352 1_655
Co5 O11 1.934053 1_555
Co5 O14 1.934053 1_555
Co5 O5 1.982273 1_655
Co5 O9 1.982273 1_545
O0 Sb0 1.998162 1_555
O1 Sb0 2.079387 1_555
O5 Sb0 1.998166 1_555
O6 Sb0 2.079387 1_555
O7 Sb0 2.079390 1_555
O8 Sb1 1.998166 1_554
O9 Sb0 1.998166 1_555
O10 Sb1 2.079390 1_555
O11 Sb1 2.079387 1_555
O13 Sb1 1.998166 1_554
O14 Sb1 2.079387 1_555
O15 Sb1 1.998162 1_554
