# generated using pymatgen
data_Fe5O7F3
_symmetry_space_group_name_H-M   'P 1'
_cell_length_a   4.66686700
_cell_length_b   4.67708600
_cell_length_c   15.23342962
_cell_angle_alpha   90.09953096
_cell_angle_beta   90.01374338
_cell_angle_gamma   91.57366513
_symmetry_Int_Tables_number   1
_chemical_formula_structural   Fe5O7F3
_chemical_formula_sum   'Fe10 O14 F6'
_cell_volume   332.37929959
_cell_formula_units_Z   2
loop_
 _symmetry_equiv_pos_site_id
 _symmetry_equiv_pos_as_xyz
  1  'x, y, z'
loop_
 _atom_site_type_symbol
 _atom_site_label
 _atom_site_symmetry_multiplicity
 _atom_site_fract_x
 _atom_site_fract_y
 _atom_site_fract_z
 _atom_site_occupancy
  Fe  Fe0  1  0.00111400  0.00513800  0.99947900  1
  Fe  Fe1  1  0.98067200  0.96874700  0.79542100  1
  Fe  Fe2  1  0.01456300  0.03602700  0.60604800  1
  Fe  Fe3  1  0.98158700  0.01138800  0.40003900  1
  Fe  Fe4  1  0.98565300  0.01470000  0.19924400  1
  Fe  Fe5  1  0.47765700  0.53587300  0.90692100  1
  Fe  Fe6  1  0.51388800  0.46987800  0.49369000  1
  Fe  Fe7  1  0.49833400  0.50253800  0.70081700  1
  Fe  Fe8  1  0.51639300  0.48304400  0.29815900  1
  Fe  Fe9  1  0.52123900  0.47912500  0.10053000  1
  O  O0  1  0.79730900  0.20195500  0.70347800  1
  O  O1  1  0.82212700  0.19204300  0.50190500  1
  O  O2  1  0.80913800  0.18538800  0.29802100  1
  O  O3  1  0.81790700  0.18506900  0.09649800  1
  O  O4  1  0.30260700  0.30791200  0.00291000  1
  O  O5  1  0.32440600  0.31986500  0.60045000  1
  O  O6  1  0.30792700  0.29778600  0.39438700  1
  O  O7  1  0.31135200  0.30353300  0.19883800  1
  O  O8  1  0.69776300  0.69930300  0.00412800  1
  O  O9  1  0.66858400  0.68696900  0.80154600  1
  O  O10  1  0.69671000  0.68735700  0.39622900  1
  O  O11  1  0.69737300  0.68762700  0.19908600  1
  O  O12  1  0.17264700  0.82005800  0.90212100  1
  O  O13  1  0.19772700  0.80320100  0.69920300  1
  F  F0  1  0.78699900  0.20207800  0.89935700  1
  F  F1  1  0.28208800  0.30368900  0.80526100  1
  F  F2  1  0.70938200  0.70379300  0.59687900  1
  F  F3  1  0.20736700  0.80373100  0.49958600  1
  F  F4  1  0.20336900  0.80156500  0.10179500  1
  F  F5  1  0.19611800  0.80061900  0.29797500  1
loop_
_geom_bond_atom_site_label_1
_geom_bond_atom_site_label_2
_geom_bond_distance
_geom_bond_site_symmetry_2
Fe0 O12 1.903655 1_545
Fe0 O3 1.912937 1_456
Fe0 O4 1.969281 1_556
Fe0 O8 1.986073 1_446
Fe1 O9 1.939574 1_555
Fe1 O13 1.952898 1_655
Fe1 O0 1.984861 1_565
Fe1 O12 1.991406 1_655
Fe2 O5 1.937923 1_555
Fe2 O0 1.967999 1_455
Fe2 O1 1.973618 1_455
Fe2 O13 1.996538 1_545
Fe3 O1 1.925161 1_555
Fe3 O2 1.940344 1_555
Fe3 O10 1.989143 1_545
Fe3 O6 2.002397 1_655
Fe4 O2 1.900689 1_555
Fe4 O3 1.932761 1_555
Fe4 O7 2.005641 1_655
Fe4 O11 2.009251 1_545
Fe5 O8 1.945351 1_556
Fe5 O9 1.959624 1_555
Fe5 O4 1.974956 1_556
Fe5 O12 1.975448 1_555
Fe6 O6 1.952602 1_555
Fe6 O1 1.968937 1_555
Fe6 O5 1.972242 1_555
Fe6 O10 1.981164 1_555
Fe7 O5 1.919174 1_555
Fe7 O9 1.920174 1_555
Fe7 O0 2.008176 1_555
Fe7 O13 2.013615 1_555
Fe8 O10 1.950239 1_555
Fe8 O6 1.950609 1_555
Fe8 O7 1.964815 1_555
Fe8 O11 1.966703 1_555
Fe8 O2 1.977141 1_555
Fe9 O11 1.957291 1_555
Fe9 O7 1.958933 1_555
Fe9 O4 1.960612 1_555
Fe9 O8 1.963407 1_555
Fe9 O3 1.979013 1_555
F0 Fe0 2.056179 1_655
F0 Fe1 2.136258 1_545
F0 Fe5 2.158235 1_555
F1 Fe1 2.081663 1_445
F1 Fe5 2.085566 1_555
F1 Fe7 2.090263 1_555
F2 Fe7 2.077994 1_555
F2 Fe2 2.083297 1_665
F2 Fe6 2.106835 1_555
F3 Fe3 2.100880 1_465
F3 Fe6 2.148206 1_555
F3 Fe2 2.160667 1_565
F4 Fe0 2.068963 1_564
F4 Fe4 2.069051 1_465
F4 Fe9 2.144320 1_555
F5 Fe4 2.070721 1_465
F5 Fe3 2.107400 1_465
F5 Fe8 2.135935 1_555
