# generated using pymatgen
data_Na6CuO4
_symmetry_space_group_name_H-M   'P 1'
_cell_length_a   7.69572973
_cell_length_b   7.69572973
_cell_length_c   5.85500275
_cell_angle_alpha   89.02906660
_cell_angle_beta   89.02906660
_cell_angle_gamma   120.41239355
_symmetry_Int_Tables_number   1
_chemical_formula_structural   Na6CuO4
_chemical_formula_sum   'Na12 Cu2 O8'
_cell_volume   298.87175937
_cell_formula_units_Z   2
loop_
 _symmetry_equiv_pos_site_id
 _symmetry_equiv_pos_as_xyz
  1  'x, y, z'
loop_
 _atom_site_type_symbol
 _atom_site_label
 _atom_site_symmetry_multiplicity
 _atom_site_fract_x
 _atom_site_fract_y
 _atom_site_fract_z
 _atom_site_occupancy
  Na  Na0  1  0.28484900  0.14328700  0.53644500  1
  Na  Na1  1  0.14328700  0.28484900  0.03644500  1
  Na  Na2  1  0.93084800  0.46737800  0.87006400  1
  Na  Na3  1  0.46737800  0.93084800  0.37006400  1
  Na  Na4  1  0.46710900  0.54083100  0.36899100  1
  Na  Na5  1  0.54083100  0.46710900  0.86899100  1
  Na  Na6  1  0.14384800  0.86064300  0.03588300  1
  Na  Na7  1  0.86064300  0.14384800  0.53588300  1
  Na  Na8  1  0.54024300  0.07677200  0.87629900  1
  Na  Na9  1  0.07677200  0.54024300  0.37629900  1
  Na  Na10  1  0.86075300  0.71879300  0.53515300  1
  Na  Na11  1  0.71879300  0.86075300  0.03515300  1
  Cu  Cu0  1  0.67186200  0.33975800  0.26358000  1
  Cu  Cu1  1  0.33975800  0.67186200  0.76358000  1
  O  O0  1  0.80816300  0.62796400  0.15166100  1
  O  O1  1  0.62796400  0.80816300  0.65166100  1
  O  O2  1  0.68023300  0.34186800  0.59935600  1
  O  O3  1  0.34186800  0.68023300  0.09935600  1
  O  O4  1  0.18312000  0.80776500  0.65100100  1
  O  O5  1  0.80776500  0.18312000  0.15100100  1
  O  O6  1  0.19104500  0.38036200  0.64052100  1
  O  O7  1  0.38036200  0.19104500  0.14052100  1
loop_
_geom_bond_atom_site_label_1
_geom_bond_atom_site_label_2
_geom_bond_distance
_geom_bond_site_symmetry_2
Na0 O6 2.361640 1_555
Na0 O4 2.367878 1_545
Na0 O7 2.385160 1_555
Na0 O2 2.660595 1_555
Na1 O7 2.361640 1_555
Na1 O5 2.367878 1_455
Na1 O6 2.385160 1_554
Na1 O3 2.660595 1_555
Na2 O2 2.331166 1_555
Na2 O5 2.472997 1_556
Na2 O0 2.516881 1_556
Na2 O4 2.632300 1_655
Na2 O6 2.749768 1_655
Na3 O3 2.331166 1_555
Na3 O4 2.472997 1_555
Na3 O1 2.516881 1_555
Na3 O5 2.632300 1_565
Na3 O7 2.749768 1_565
Na4 O3 2.369221 1_555
Na4 O6 2.393498 1_555
Na4 O1 2.471936 1_555
Na4 O0 2.652109 1_555
Na4 O7 2.795371 1_555
Na5 O2 2.369221 1_555
Na5 O7 2.393498 1_556
Na5 O0 2.471936 1_556
Na5 O1 2.652109 1_555
Na5 O6 2.795371 1_555
Na6 O4 2.338300 1_554
Na6 O0 2.357051 1_455
Na6 O7 2.357642 1_565
Na6 O3 2.555744 1_555
Na7 O5 2.338300 1_555
Na7 O1 2.357051 1_545
Na7 O6 2.357642 1_655
Na7 O2 2.555744 1_555
Na8 O2 2.356994 1_555
Na8 O7 2.399504 1_556
Na8 O5 2.438480 1_556
Na8 O1 2.816664 1_545
Na8 O4 2.834457 1_545
Na9 O3 2.356994 1_555
Na9 O6 2.399504 1_555
Na9 O4 2.438480 1_555
Na9 O0 2.816664 1_455
Na9 O5 2.834457 1_455
Na10 O1 2.317261 1_555
Na10 O4 2.331630 1_655
Na10 O0 2.343405 1_555
Na10 O2 2.520091 1_555
Na11 O0 2.317261 1_555
Na11 O5 2.331630 1_565
Na11 O1 2.343405 1_554
Na11 O3 2.520091 1_555
Cu0 O2 1.968188 1_555
Cu0 O0 2.005245 1_555
Cu0 O5 2.064319 1_555
Cu0 O7 2.084407 1_555
Cu1 O3 1.968188 1_556
Cu1 O1 2.005245 1_555
Cu1 O4 2.064319 1_555
Cu1 O6 2.084407 1_555
