# generated using pymatgen
data_Ca2CeO4
_symmetry_space_group_name_H-M   'P 1'
_cell_length_a   6.04634700
_cell_length_b   6.12014100
_cell_length_c   11.94470300
_cell_angle_alpha   90.00000000
_cell_angle_beta   90.00000000
_cell_angle_gamma   90.00000000
_symmetry_Int_Tables_number   1
_chemical_formula_structural   Ca2CeO4
_chemical_formula_sum   'Ca8 Ce4 O16'
_cell_volume   442.00771647
_cell_formula_units_Z   4
loop_
 _symmetry_equiv_pos_site_id
 _symmetry_equiv_pos_as_xyz
  1  'x, y, z'
loop_
 _atom_site_type_symbol
 _atom_site_label
 _atom_site_symmetry_multiplicity
 _atom_site_fract_x
 _atom_site_fract_y
 _atom_site_fract_z
 _atom_site_occupancy
  Ca  Ca0  1  0.02606000  0.05146700  0.34202400  1
  Ca  Ca1  1  0.02606000  0.44853300  0.84202400  1
  Ca  Ca2  1  0.47394000  0.55146700  0.34202400  1
  Ca  Ca3  1  0.47394000  0.94853300  0.84202400  1
  Ca  Ca4  1  0.52606000  0.05146700  0.15797600  1
  Ca  Ca5  1  0.52606000  0.44853300  0.65797600  1
  Ca  Ca6  1  0.97394000  0.55146700  0.15797600  1
  Ca  Ca7  1  0.97394000  0.94853300  0.65797600  1
  Ce  Ce0  1  0.00000000  0.00000000  0.00000000  1
  Ce  Ce1  1  0.00000000  0.50000000  0.50000000  1
  Ce  Ce2  1  0.50000000  0.50000000  0.00000000  1
  Ce  Ce3  1  0.50000000  0.00000000  0.50000000  1
  O  O0  1  0.11115400  0.43377500  0.32533300  1
  O  O1  1  0.11115400  0.06622500  0.82533300  1
  O  O2  1  0.17607200  0.32329000  0.03772300  1
  O  O3  1  0.17607200  0.17671000  0.53772300  1
  O  O4  1  0.32392800  0.82329000  0.03772300  1
  O  O5  1  0.32392800  0.67671000  0.53772300  1
  O  O6  1  0.38884600  0.56622500  0.82533300  1
  O  O7  1  0.38884600  0.93377500  0.32533300  1
  O  O8  1  0.61115400  0.43377500  0.17466700  1
  O  O9  1  0.61115400  0.06622500  0.67466700  1
  O  O10  1  0.67607200  0.32329000  0.46227700  1
  O  O11  1  0.67607200  0.17671000  0.96227700  1
  O  O12  1  0.82392800  0.82329000  0.46227700  1
  O  O13  1  0.82392800  0.67671000  0.96227700  1
  O  O14  1  0.88884600  0.93377500  0.17466700  1
  O  O15  1  0.88884600  0.56622500  0.67466700  1
loop_
_geom_bond_atom_site_label_1
_geom_bond_atom_site_label_2
_geom_bond_distance
_geom_bond_site_symmetry_2
Ca0 O14 2.281063 1_445
Ca0 O7 2.317357 1_545
Ca0 O12 2.346705 1_445
Ca0 O0 2.403962 1_555
Ca0 O3 2.621915 1_555
Ca0 O10 3.051039 1_455
Ca1 O15 2.281063 1_455
Ca1 O6 2.317357 1_555
Ca1 O13 2.346705 1_455
Ca1 O1 2.403962 1_555
Ca1 O2 2.621915 1_556
Ca1 O11 3.051039 1_455
Ca2 O8 2.281063 1_555
Ca2 O0 2.317357 1_555
Ca2 O10 2.346705 1_555
Ca2 O7 2.403962 1_555
Ca2 O5 2.621915 1_555
Ca2 O12 3.051039 1_555
Ca3 O9 2.281063 1_565
Ca3 O1 2.317357 1_565
Ca3 O11 2.346705 1_565
Ca3 O6 2.403962 1_555
Ca3 O4 2.621915 1_556
Ca3 O13 3.051039 1_555
Ca4 O7 2.281063 1_545
Ca4 O14 2.317357 1_545
Ca4 O4 2.346705 1_545
Ca4 O8 2.403962 1_555
Ca4 O11 2.621915 1_554
Ca4 O2 3.051039 1_555
Ca5 O6 2.281063 1_555
Ca5 O15 2.317357 1_555
Ca5 O5 2.346705 1_555
Ca5 O9 2.403962 1_555
Ca5 O10 2.621915 1_555
Ca5 O3 3.051039 1_555
Ca6 O0 2.281063 1_655
Ca6 O8 2.317357 1_555
Ca6 O2 2.346705 1_655
Ca6 O14 2.403962 1_555
Ca6 O13 2.621915 1_554
Ca6 O4 3.051039 1_655
Ca7 O1 2.281063 1_665
Ca7 O9 2.317357 1_565
Ca7 O3 2.346705 1_665
Ca7 O15 2.403962 1_555
Ca7 O12 2.621915 1_555
Ca7 O5 3.051039 1_655
Ce0 O1 2.229080 1_554
Ce0 O14 2.229080 1_445
Ce0 O4 2.282256 1_545
Ce0 O11 2.282256 1_454
Ce0 O13 2.291543 1_444
Ce0 O2 2.291543 1_555
Ce1 O0 2.229080 1_555
Ce1 O15 2.229080 1_455
Ce1 O5 2.282256 1_555
Ce1 O10 2.282256 1_455
Ce1 O12 2.291543 1_455
Ce1 O3 2.291543 1_555
Ce2 O6 2.229080 1_554
Ce2 O8 2.229080 1_555
Ce2 O13 2.282256 1_554
Ce2 O2 2.282256 1_555
Ce2 O4 2.291543 1_555
Ce2 O11 2.291543 1_554
Ce3 O7 2.229080 1_545
Ce3 O9 2.229080 1_555
Ce3 O3 2.282256 1_555
Ce3 O12 2.282256 1_545
Ce3 O5 2.291543 1_545
Ce3 O10 2.291543 1_555
