# generated using pymatgen
data_Hf2N2O
_symmetry_space_group_name_H-M   'P 1'
_cell_length_a   7.04210958
_cell_length_b   7.04210958
_cell_length_c   8.17680185
_cell_angle_alpha   79.83057686
_cell_angle_beta   79.83057686
_cell_angle_gamma   26.74351156
_symmetry_Int_Tables_number   1
_chemical_formula_structural   Hf2N2O
_chemical_formula_sum   'Hf6 N6 O3'
_cell_volume   179.44313027
_cell_formula_units_Z   3
loop_
 _symmetry_equiv_pos_site_id
 _symmetry_equiv_pos_as_xyz
  1  'x, y, z'
loop_
 _atom_site_type_symbol
 _atom_site_label
 _atom_site_symmetry_multiplicity
 _atom_site_fract_x
 _atom_site_fract_y
 _atom_site_fract_z
 _atom_site_occupancy
  Hf  Hf0  1  0.96974200  0.96974200  0.80893100  1
  Hf  Hf1  1  0.37079600  0.37079600  0.47464700  1
  Hf  Hf2  1  0.30385700  0.30385700  0.13227600  1
  Hf  Hf3  1  0.69614300  0.69614300  0.86772400  1
  Hf  Hf4  1  0.62920400  0.62920400  0.52535300  1
  Hf  Hf5  1  0.03025800  0.03025800  0.19106900  1
  N  N0  1  0.46484200  0.46484200  0.65664900  1
  N  N1  1  0.82822900  0.82822900  0.96433100  1
  N  N2  1  0.87338000  0.87338000  0.28545200  1
  N  N3  1  0.12662000  0.12662000  0.71454800  1
  N  N4  1  0.17177100  0.17177100  0.03566900  1
  N  N5  1  0.53515800  0.53515800  0.34335100  1
  O  O0  1  0.79017100  0.79017100  0.61741300  1
  O  O1  1  0.20982900  0.20982900  0.38258700  1
  O  O2  1  0.50000000  0.50000000  0.00000000  1
loop_
_geom_bond_atom_site_label_1
_geom_bond_atom_site_label_2
_geom_bond_distance
_geom_bond_site_symmetry_2
Hf0 N0 2.058572 1_565
Hf0 N0 2.058572 1_655
Hf0 N1 2.116670 1_555
Hf0 N3 2.148084 1_665
Hf0 O2 2.345269 1_656
Hf0 O2 2.345269 1_566
Hf1 N0 2.138090 1_555
Hf1 O0 2.183469 1_455
Hf1 O0 2.183469 1_545
Hf1 N2 2.242099 1_545
Hf1 N2 2.242099 1_455
Hf1 N5 2.312398 1_555
Hf1 O1 2.456437 1_555
Hf2 N4 2.102056 1_555
Hf2 N1 2.117378 1_454
Hf2 N1 2.117378 1_544
Hf2 O1 2.211791 1_555
Hf2 N2 2.358326 1_545
Hf2 N2 2.358326 1_455
Hf2 O2 2.708893 1_555
Hf3 N1 2.102056 1_555
Hf3 N4 2.117378 1_566
Hf3 N4 2.117378 1_656
Hf3 O0 2.211791 1_555
Hf3 N3 2.358326 1_655
Hf3 N3 2.358326 1_565
Hf3 O2 2.708893 1_556
Hf4 N5 2.138090 1_555
Hf4 O1 2.183469 1_565
Hf4 O1 2.183469 1_655
Hf4 N3 2.242099 1_565
Hf4 N3 2.242099 1_655
Hf4 N0 2.312398 1_555
Hf4 O0 2.456437 1_555
Hf5 N5 2.058572 1_545
Hf5 N5 2.058572 1_455
Hf5 N4 2.116670 1_555
Hf5 N2 2.148084 1_445
Hf5 O2 2.345269 1_455
Hf5 O2 2.345269 1_545
