# generated using pymatgen
data_MnOF
_symmetry_space_group_name_H-M   'P 1'
_cell_length_a   4.63671700
_cell_length_b   5.65178129
_cell_length_c   10.31061626
_cell_angle_alpha   90.03623531
_cell_angle_beta   91.03329112
_cell_angle_gamma   91.84761288
_symmetry_Int_Tables_number   1
_chemical_formula_structural   MnOF
_chemical_formula_sum   'Mn8 O8 F8'
_cell_volume   270.01243731
_cell_formula_units_Z   8
loop_
 _symmetry_equiv_pos_site_id
 _symmetry_equiv_pos_as_xyz
  1  'x, y, z'
loop_
 _atom_site_type_symbol
 _atom_site_label
 _atom_site_symmetry_multiplicity
 _atom_site_fract_x
 _atom_site_fract_y
 _atom_site_fract_z
 _atom_site_occupancy
  Mn  Mn0  1  0.02469900  0.15101100  0.37455200  1
  Mn  Mn1  1  0.95417000  0.86050100  0.62733400  1
  Mn  Mn2  1  0.97755100  0.17637500  0.87592300  1
  Mn  Mn3  1  0.02636100  0.84310800  0.13478500  1
  Mn  Mn4  1  0.52934400  0.34334000  0.11669300  1
  Mn  Mn5  1  0.46010300  0.35708200  0.62132800  1
  Mn  Mn6  1  0.47944400  0.61981600  0.87478700  1
  Mn  Mn7  1  0.51487900  0.65114300  0.37261000  1
  O  O0  1  0.80176000  0.11731300  0.04344100  1
  O  O1  1  0.81423300  0.88408700  0.29345100  1
  O  O2  1  0.68124800  0.38984800  0.78216300  1
  O  O3  1  0.70590600  0.62253500  0.54305200  1
  O  O4  1  0.28226000  0.37119300  0.96238600  1
  O  O5  1  0.26698800  0.39148500  0.45342700  1
  O  O6  1  0.31852000  0.61379700  0.20435500  1
  O  O7  1  0.17444600  0.12322400  0.71016100  1
  F  F0  1  0.74547500  0.11005900  0.53363800  1
  F  F1  1  0.72147000  0.88384300  0.80146200  1
  F  F2  1  0.77374500  0.37742200  0.28048800  1
  F  F3  1  0.77318300  0.61042200  0.03085900  1
  F  F4  1  0.20476100  0.63127700  0.71158800  1
  F  F5  1  0.24220300  0.86070800  0.96448300  1
  F  F6  1  0.28736400  0.10922000  0.21914800  1
  F  F7  1  0.23988200  0.90119100  0.46788600  1
loop_
_geom_bond_atom_site_label_1
_geom_bond_atom_site_label_2
_geom_bond_distance
_geom_bond_site_symmetry_2
Mn0 O5 1.907308 1_555
Mn0 O1 1.949734 1_445
Mn1 O3 1.936934 1_555
Mn1 O7 1.961228 1_665
Mn2 O0 1.947571 1_556
Mn2 O4 1.963737 1_655
Mn2 O7 1.979412 1_655
Mn2 O2 2.082832 1_555
Mn3 O1 1.941552 1_455
Mn3 O6 2.026975 1_555
Mn3 O0 2.108034 1_465
Mn4 O4 1.953152 1_554
Mn4 O0 1.983690 1_555
Mn4 O6 2.058030 1_555
Mn5 O2 1.939520 1_555
Mn5 O5 1.947371 1_555
Mn5 O3 2.031163 1_555
Mn5 O7 2.067020 1_555
Mn6 O4 1.890692 1_555
Mn6 O2 1.893666 1_555
Mn7 O6 1.952753 1_555
Mn7 O3 1.962766 1_555
Mn7 O5 2.023965 1_555
Mn7 O1 2.061657 1_555
F0 Mn1 1.978641 1_545
F0 Mn0 2.116134 1_655
F0 Mn5 2.162896 1_555
F1 Mn6 1.995419 1_555
F1 Mn1 2.117464 1_555
F1 Mn2 2.138154 1_565
F2 Mn0 1.997227 1_655
F2 Mn4 2.022354 1_555
F2 Mn7 2.212491 1_555
F3 Mn3 2.027077 1_655
F3 Mn4 2.065865 1_555
F3 Mn6 2.091187 1_554
F4 Mn1 1.960913 1_455
F4 Mn6 2.094255 1_555
F4 Mn5 2.196721 1_555
F5 Mn6 2.012611 1_555
F5 Mn3 2.037627 1_556
F5 Mn2 2.371781 1_465
F6 Mn4 2.018520 1_555
F6 Mn0 2.048153 1_555
F6 Mn3 2.079961 1_545
F7 Mn0 1.993249 1_565
F7 Mn1 2.137764 1_455
F7 Mn7 2.178911 1_555
