# generated using pymatgen
data_LiCu(PO3)3
_symmetry_space_group_name_H-M   'P 1'
_cell_length_a   6.28042100
_cell_length_b   6.89349090
_cell_length_c   7.68205051
_cell_angle_alpha   80.88621256
_cell_angle_beta   88.94293607
_cell_angle_gamma   84.07170153
_symmetry_Int_Tables_number   1
_chemical_formula_structural   LiCu(PO3)3
_chemical_formula_sum   'Li2 Cu2 P6 O18'
_cell_volume   326.63123376
_cell_formula_units_Z   2
loop_
 _symmetry_equiv_pos_site_id
 _symmetry_equiv_pos_as_xyz
  1  'x, y, z'
loop_
 _atom_site_type_symbol
 _atom_site_label
 _atom_site_symmetry_multiplicity
 _atom_site_fract_x
 _atom_site_fract_y
 _atom_site_fract_z
 _atom_site_occupancy
  Li  Li0  1  0.11717100  0.57208000  0.17717400  1
  Li  Li1  1  0.88282900  0.42792000  0.82282600  1
  Cu  Cu0  1  0.19327800  0.12654000  0.13868800  1
  Cu  Cu1  1  0.80672200  0.87346000  0.86131200  1
  P  P0  1  0.15845100  0.22400200  0.54281500  1
  P  P1  1  0.30291600  0.85906700  0.77042700  1
  P  P2  1  0.37641400  0.41719700  0.79470700  1
  P  P3  1  0.62358600  0.58280300  0.20529300  1
  P  P4  1  0.69708400  0.14093300  0.22957300  1
  P  P5  1  0.84154900  0.77599800  0.45718500  1
  O  O0  1  0.04371100  0.73426000  0.36049100  1
  O  O1  1  0.15869200  0.27671200  0.34268300  1
  O  O2  1  0.11182200  0.87867300  0.89525400  1
  O  O3  1  0.19004100  0.37197800  0.91992500  1
  O  O4  1  0.24613900  0.99076300  0.58166700  1
  O  O5  1  0.35228200  0.32626500  0.61524900  1
  O  O6  1  0.33736000  0.64994100  0.71023100  1
  O  O7  1  0.40218800  0.63336400  0.13956200  1
  O  O8  1  0.49703100  0.07447800  0.16169400  1
  O  O9  1  0.50296900  0.92552200  0.83830600  1
  O  O10  1  0.59781200  0.36663600  0.86043800  1
  O  O11  1  0.66264000  0.35005900  0.28976900  1
  O  O12  1  0.64771800  0.67373500  0.38475100  1
  O  O13  1  0.75386100  0.00923700  0.41833300  1
  O  O14  1  0.80995900  0.62802200  0.08007500  1
  O  O15  1  0.88817800  0.12132700  0.10474600  1
  O  O16  1  0.84130800  0.72328800  0.65731700  1
  O  O17  1  0.95628900  0.26574000  0.63950900  1
loop_
_geom_bond_atom_site_label_1
_geom_bond_atom_site_label_2
_geom_bond_distance
_geom_bond_site_symmetry_2
Li0 O7 1.888018 1_555
Li0 O0 1.952986 1_555
Li0 O14 2.058167 1_455
Li0 O1 2.216482 1_555
Li0 O3 2.591786 1_554
Li1 O10 1.888018 1_555
Li1 O17 1.952986 1_555
Li1 O3 2.058167 1_655
Li1 O16 2.216482 1_555
Li1 O14 2.591786 1_556
Cu0 O8 1.910566 1_555
Cu0 O15 1.943338 1_455
Cu0 O1 2.007376 1_555
Cu0 O3 2.186474 1_554
Cu1 O9 1.910566 1_555
Cu1 O2 1.943338 1_655
Cu1 O16 2.007376 1_555
Cu1 O14 2.186474 1_556
O0 P5 1.484600 1_455
O1 P0 1.522748 1_555
O2 P1 1.530770 1_555
O3 P2 1.526888 1_555
O4 P1 1.609097 1_555
O4 P0 1.627460 1_565
O5 P0 1.617104 1_555
O5 P2 1.617882 1_555
O6 P1 1.575419 1_555
O6 P2 1.627943 1_555
O7 P3 1.476452 1_555
O8 P4 1.509668 1_555
O9 P1 1.509668 1_555
O10 P2 1.476452 1_555
O11 P4 1.575419 1_555
O11 P3 1.627943 1_555
O12 P5 1.617104 1_555
O12 P3 1.617882 1_555
O13 P4 1.609097 1_555
O13 P5 1.627460 1_545
O14 P3 1.526888 1_555
O15 P4 1.530770 1_555
O16 P5 1.522748 1_555
O17 P0 1.484600 1_655
