# generated using pymatgen
data_NaCu3O4
_symmetry_space_group_name_H-M   'P 1'
_cell_length_a   6.04176400
_cell_length_b   6.04176400
_cell_length_c   8.79674800
_cell_angle_alpha   90.00000000
_cell_angle_beta   90.00000000
_cell_angle_gamma   90.00000000
_symmetry_Int_Tables_number   1
_chemical_formula_structural   NaCu3O4
_chemical_formula_sum   'Na4 Cu12 O16'
_cell_volume   321.10692017
_cell_formula_units_Z   4
loop_
 _symmetry_equiv_pos_site_id
 _symmetry_equiv_pos_as_xyz
  1  'x, y, z'
loop_
 _atom_site_type_symbol
 _atom_site_label
 _atom_site_symmetry_multiplicity
 _atom_site_fract_x
 _atom_site_fract_y
 _atom_site_fract_z
 _atom_site_occupancy
  Na  Na0  1  0.24857300  0.50000000  0.75000000  1
  Na  Na1  1  0.50000000  0.24857300  0.00000000  1
  Na  Na2  1  0.50000000  0.75142700  0.50000000  1
  Na  Na3  1  0.75142700  0.50000000  0.25000000  1
  Cu  Cu0  1  0.00000000  0.24577800  0.00000000  1
  Cu  Cu1  1  0.00000000  0.75060300  0.00000000  1
  Cu  Cu2  1  0.00000000  0.24939700  0.50000000  1
  Cu  Cu3  1  0.00000000  0.75422200  0.50000000  1
  Cu  Cu4  1  0.24781300  0.50000000  0.25000000  1
  Cu  Cu5  1  0.24577800  0.00000000  0.75000000  1
  Cu  Cu6  1  0.24939700  0.00000000  0.25000000  1
  Cu  Cu7  1  0.50000000  0.24781300  0.50000000  1
  Cu  Cu8  1  0.50000000  0.75218700  0.00000000  1
  Cu  Cu9  1  0.75060300  0.00000000  0.75000000  1
  Cu  Cu10  1  0.75422200  0.00000000  0.25000000  1
  Cu  Cu11  1  0.75218700  0.50000000  0.75000000  1
  O  O0  1  0.97351800  0.22866500  0.78241900  1
  O  O1  1  0.97351800  0.77133500  0.71758100  1
  O  O2  1  0.22856300  0.52463800  0.02282200  1
  O  O3  1  0.22856300  0.47536200  0.47717800  1
  O  O4  1  0.22866500  0.97351800  0.96758100  1
  O  O5  1  0.22866500  0.02648200  0.53241900  1
  O  O6  1  0.52463800  0.22856300  0.72717800  1
  O  O7  1  0.52463800  0.77143700  0.77282200  1
  O  O8  1  0.47536200  0.22856300  0.27282200  1
  O  O9  1  0.47536200  0.77143700  0.22717800  1
  O  O10  1  0.77133500  0.02648200  0.46758100  1
  O  O11  1  0.77133500  0.97351800  0.03241900  1
  O  O12  1  0.77143700  0.52463800  0.97717800  1
  O  O13  1  0.77143700  0.47536200  0.52282200  1
  O  O14  1  0.02648200  0.22866500  0.21758100  1
  O  O15  1  0.02648200  0.77133500  0.28241900  1
loop_
_geom_bond_atom_site_label_1
_geom_bond_atom_site_label_2
_geom_bond_distance
_geom_bond_site_symmetry_2
Na0 O6 2.347706 1_555
Na0 O7 2.347706 1_555
Na0 O0 2.351682 1_455
Na0 O1 2.351682 1_455
Na0 O2 2.407596 1_556
Na0 O3 2.407596 1_555
Na1 O12 2.347706 1_554
Na1 O2 2.347706 1_555
Na1 O11 2.351682 1_545
Na1 O4 2.351682 1_544
Na1 O8 2.407596 1_555
Na1 O6 2.407596 1_554
Na2 O13 2.347706 1_555
Na2 O3 2.347706 1_555
Na2 O5 2.351682 1_565
Na2 O10 2.351682 1_565
Na2 O7 2.407596 1_555
Na2 O9 2.407596 1_555
Na3 O8 2.347706 1_555
Na3 O9 2.347706 1_555
Na3 O14 2.351682 1_655
Na3 O15 2.351682 1_655
Na3 O12 2.407596 1_554
Na3 O13 2.407596 1_555
Cu0 O14 1.923462 1_555
Cu0 O0 1.923462 1_454
Cu0 O11 2.166974 1_445
Cu0 O4 2.166974 1_544
Cu0 O2 2.187653 1_555
Cu0 O12 2.187653 1_454
Cu1 O11 1.950346 1_455
Cu1 O4 1.950346 1_554
Cu1 O12 1.952204 1_454
Cu1 O2 1.952204 1_555
Cu1 O1 2.492665 1_454
Cu1 O15 2.492665 1_555
Cu2 O5 1.950346 1_555
Cu2 O10 1.950346 1_455
Cu2 O13 1.952204 1_455
Cu2 O3 1.952204 1_555
Cu2 O14 2.492665 1_555
Cu2 O0 2.492665 1_455
Cu3 O15 1.923462 1_555
Cu3 O1 1.923462 1_455
Cu3 O5 2.166974 1_565
Cu3 O10 2.166974 1_465
Cu3 O13 2.187653 1_455
Cu3 O3 2.187653 1_555
Cu4 O3 2.007336 1_555
Cu4 O2 2.007336 1_555
Cu4 O14 2.134702 1_555
Cu4 O15 2.134702 1_555
Cu4 O8 2.149380 1_555
Cu4 O9 2.149380 1_555
Cu5 O5 1.923462 1_555
Cu5 O4 1.923462 1_545
Cu5 O0 2.166974 1_455
Cu5 O1 2.166974 1_445
Cu5 O6 2.187653 1_555
Cu5 O7 2.187653 1_545
Cu6 O15 1.950346 1_545
Cu6 O14 1.950346 1_555
Cu6 O8 1.952204 1_555
Cu6 O9 1.952204 1_545
Cu6 O4 2.492665 1_544
Cu6 O5 2.492665 1_555
Cu7 O6 2.007336 1_555
Cu7 O8 2.007336 1_555
Cu7 O5 2.134702 1_555
Cu7 O10 2.134702 1_555
Cu7 O13 2.149380 1_555
Cu7 O3 2.149380 1_555
Cu8 O7 2.007336 1_554
Cu8 O9 2.007336 1_555
Cu8 O4 2.134702 1_554
Cu8 O11 2.134702 1_555
Cu8 O12 2.149380 1_554
Cu8 O2 2.149380 1_555
Cu9 O1 1.950346 1_545
Cu9 O0 1.950346 1_555
Cu9 O6 1.952204 1_555
Cu9 O7 1.952204 1_545
Cu9 O11 2.492665 1_546
Cu9 O10 2.492665 1_555
Cu10 O11 1.923462 1_545
Cu10 O10 1.923462 1_555
Cu10 O15 2.166974 1_645
Cu10 O14 2.166974 1_655
Cu10 O8 2.187653 1_555
Cu10 O9 2.187653 1_545
Cu11 O12 2.007336 1_555
Cu11 O13 2.007336 1_555
Cu11 O1 2.134702 1_555
Cu11 O0 2.134702 1_555
Cu11 O7 2.149380 1_555
Cu11 O6 2.149380 1_555
