# generated using pymatgen
data_RbUP2H8O11
_symmetry_space_group_name_H-M   'P 1'
_cell_length_a   10.73810200
_cell_length_b   9.10678900
_cell_length_c   13.65511956
_cell_angle_alpha   68.50085716
_cell_angle_beta   90.00000000
_cell_angle_gamma   90.00000000
_symmetry_Int_Tables_number   1
_chemical_formula_structural   RbUP2H8O11
_chemical_formula_sum   'Rb4 U4 P8 H32 O44'
_cell_volume   1242.42095467
_cell_formula_units_Z   4
loop_
 _symmetry_equiv_pos_site_id
 _symmetry_equiv_pos_as_xyz
  1  'x, y, z'
loop_
 _atom_site_type_symbol
 _atom_site_label
 _atom_site_symmetry_multiplicity
 _atom_site_fract_x
 _atom_site_fract_y
 _atom_site_fract_z
 _atom_site_occupancy
  Rb  Rb0  1  0.54846100  0.29181800  0.82121700  1
  Rb  Rb1  1  0.95153900  0.29181800  0.32121700  1
  Rb  Rb2  1  0.45153900  0.70818200  0.17878300  1
  Rb  Rb3  1  0.04846100  0.70818200  0.67878300  1
  U  U0  1  0.69797600  0.04611800  0.65118800  1
  U  U1  1  0.80202400  0.04611800  0.15118800  1
  U  U2  1  0.30202400  0.95388200  0.34881200  1
  U  U3  1  0.19797600  0.95388200  0.84881200  1
  P  P0  1  0.87093400  0.04387700  0.88580700  1
  P  P1  1  0.62906600  0.04387700  0.38580700  1
  P  P2  1  0.12906600  0.95612300  0.11419300  1
  P  P3  1  0.37093400  0.95612300  0.61419300  1
  P  P4  1  0.52311600  0.78933500  0.89222100  1
  P  P5  1  0.97688400  0.78933500  0.39222100  1
  P  P6  1  0.47688400  0.21066500  0.10777900  1
  P  P7  1  0.02311600  0.21066500  0.60777900  1
  H  H0  1  0.83526800  0.52050700  0.86596100  1
  H  H1  1  0.66473200  0.52050700  0.36596100  1
  H  H2  1  0.16473200  0.47949300  0.13403900  1
  H  H3  1  0.33526800  0.47949300  0.63403900  1
  H  H4  1  0.85547300  0.41753000  0.98551700  1
  H  H5  1  0.64452700  0.41753000  0.48551700  1
  H  H6  1  0.14452700  0.58247000  0.01448300  1
  H  H7  1  0.35547300  0.58247000  0.51448300  1
  H  H8  1  0.76002000  0.57142700  0.68614400  1
  H  H9  1  0.73998000  0.57142700  0.18614400  1
  H  H10  1  0.23998000  0.42857300  0.31385600  1
  H  H11  1  0.26002000  0.42857300  0.81385600  1
  H  H12  1  0.82567800  0.40686600  0.72400100  1
  H  H13  1  0.67432200  0.40686600  0.22400100  1
  H  H14  1  0.17432200  0.59313400  0.27599900  1
  H  H15  1  0.32567800  0.59313400  0.77599900  1
  H  H16  1  0.61418500  0.60997700  0.55394200  1
  H  H17  1  0.88581500  0.60997700  0.05394200  1
  H  H18  1  0.38581500  0.39002300  0.44605800  1
  H  H19  1  0.11418500  0.39002300  0.94605800  1
  H  H20  1  0.56612300  0.71096500  0.61931600  1
  H  H21  1  0.93387700  0.71096500  0.11931600  1
  H  H22  1  0.43387700  0.28903500  0.38068400  1
  H  H23  1  0.06612300  0.28903500  0.88068400  1
  H  H24  1  0.85580000  0.87920500  0.91809000  1
  H  H25  1  0.64420000  0.87920500  0.41809000  1
  H  H26  1  0.14420000  0.12079500  0.08191000  1
  H  H27  1  0.35580000  0.12079500  0.58191000  1
  H  H28  1  0.51442700  0.67944400  0.84190400  1
  H  H29  1  0.98557300  0.67944400  0.34190400  1
  H  H30  1  0.48557300  0.32055600  0.15809600  1
  H  H31  1  0.01442700  0.32055600  0.65809600  1
  O  O0  1  0.78069600  0.86128300  0.68382500  1
  O  O1  1  0.71930400  0.86128300  0.18382500  1
  O  O2  1  0.21930400  0.13871700  0.31617500  1
  O  O3  1  0.28069600  0.13871700  0.81617500  1
  O  O4  1  0.61407800  0.23136400  0.62231700  1
  O  O5  1  0.88592200  0.23136400  0.12231700  1
  O  O6  1  0.38592200  0.76863600  0.37768300  1
  O  O7  1  0.11407800  0.76863600  0.87768300  1
  O  O8  1  0.59002200  0.93732100  0.81682600  1
  O  O9  1  0.90997800  0.93732100  0.31682600  1
  O  O10  1  0.40997800  0.06267900  0.18317400  1
  O  O11  1  0.09002200  0.06267900  0.68317400  1
  O  O12  1  0.80241500  0.12284500  0.78006200  1
  O  O13  1  0.69758500  0.12284500  0.28006200  1
  O  O14  1  0.19758500  0.87715500  0.21993800  1
  O  O15  1  0.30241500  0.87715500  0.71993800  1
  O  O16  1  0.68623300  0.09844400  0.46980700  1
  O  O17  1  0.81376700  0.09844400  0.96980700  1
  O  O18  1  0.31376700  0.90155600  0.53019300  1
  O  O19  1  0.18623300  0.90155600  0.03019300  1
  O  O20  1  0.88971100  0.17117600  0.58358400  1
  O  O21  1  0.61028900  0.17117600  0.08358400  1
  O  O22  1  0.11028900  0.82882400  0.41641600  1
  O  O23  1  0.38971100  0.82882400  0.91641600  1
  O  O24  1  0.59156300  0.71694300  0.99703400  1
  O  O25  1  0.90843700  0.71694300  0.49703400  1
  O  O26  1  0.40843700  0.28305700  0.00296600  1
  O  O27  1  0.09156300  0.28305700  0.50296600  1
  O  O28  1  0.51219900  0.91853200  0.62723000  1
  O  O29  1  0.98780100  0.91853200  0.12723000  1
  O  O30  1  0.48780100  0.08146800  0.37277000  1
  O  O31  1  0.01219900  0.08146800  0.87277000  1
  O  O32  1  0.83686200  0.52467800  0.93732100  1
  O  O33  1  0.66313800  0.52467800  0.43732100  1
  O  O34  1  0.16313800  0.47532200  0.06267900  1
  O  O35  1  0.33686200  0.47532200  0.56267900  1
  O  O36  1  0.82656000  0.50793100  0.73350100  1
  O  O37  1  0.67344000  0.50793100  0.23350100  1
  O  O38  1  0.17344000  0.49206900  0.26649900  1
  O  O39  1  0.32656000  0.49206900  0.76649900  1
  O  O40  1  0.60568300  0.61076000  0.62543900  1
  O  O41  1  0.89431700  0.61076000  0.12543900  1
  O  O42  1  0.39431700  0.38924000  0.37456100  1
  O  O43  1  0.10568300  0.38924000  0.87456100  1
loop_
_geom_bond_atom_site_label_1
_geom_bond_atom_site_label_2
_geom_bond_distance
_geom_bond_site_symmetry_2
H0 O32 0.989130 1_555
H1 O33 0.989130 1_555
H2 O34 0.989130 1_555
H3 O35 0.989130 1_555
H4 O32 0.976984 1_555
H5 O33 0.976984 1_555
H6 O34 0.976984 1_555
H7 O35 0.976984 1_555
H8 O36 0.994480 1_555
H9 O37 0.994480 1_555
H10 O38 0.994480 1_555
H11 O39 0.994480 1_555
H12 O36 0.975462 1_555
H13 O37 0.975462 1_555
H14 O38 0.975462 1_555
H15 O39 0.975462 1_555
H16 O40 0.983184 1_555
H17 O41 0.983184 1_555
H18 O42 0.983184 1_555
H19 O43 0.983184 1_555
H20 O40 0.981968 1_555
H21 O41 0.981968 1_555
H22 O42 0.981968 1_555
H23 O43 0.981968 1_555
H24 P0 1.408930 1_565
H25 P1 1.408930 1_565
H26 P2 1.408930 1_545
H27 P3 1.408930 1_545
H28 P4 1.409360 1_555
H29 P5 1.409360 1_555
H30 P6 1.409360 1_555
H31 P7 1.409360 1_555
O0 U0 1.808620 1_565
O0 Rb3 3.207232 1_655
O1 U1 1.808620 1_565
O1 Rb2 3.207232 1_555
O2 U2 1.808620 1_545
O2 Rb1 3.207232 1_455
O3 U3 1.808620 1_545
O3 Rb0 3.207232 1_555
O4 U0 1.823602 1_555
O4 Rb0 3.045034 1_555
O5 U1 1.823602 1_555
O5 Rb1 3.045034 1_555
O6 U2 1.823602 1_555
O6 Rb2 3.045034 1_555
O7 U3 1.823602 1_555
O7 Rb3 3.045034 1_555
O8 P4 1.541214 1_555
O8 U0 2.408039 1_565
O8 Rb0 3.281274 1_565
O9 P5 1.541214 1_555
O9 U1 2.408039 1_565
O9 Rb1 3.281274 1_565
O10 P6 1.541214 1_555
O10 U2 2.408039 1_545
O10 Rb2 3.281274 1_545
O11 P7 1.541214 1_555
O11 U3 2.408039 1_545
O11 Rb3 3.281274 1_545
O12 P0 1.543505 1_555
O12 U0 2.396683 1_555
O12 Rb0 3.279333 1_555
O13 P1 1.543505 1_555
O13 U1 2.396683 1_555
O13 Rb1 3.279333 1_555
O14 P2 1.543505 1_555
O14 U2 2.396683 1_555
O14 Rb2 3.279333 1_555
O15 P3 1.543505 1_555
O15 U3 2.396683 1_555
O15 Rb3 3.279333 1_555
O16 P1 1.535330 1_555
O16 U0 2.347834 1_555
O17 P0 1.535330 1_555
O17 U1 2.347834 1_556
O18 P3 1.535330 1_555
O18 U2 2.347834 1_555
O19 P2 1.535330 1_555
O19 U3 2.347834 1_554
O20 P7 1.541969 1_655
O20 U0 2.370141 1_555
O20 Rb1 3.405608 1_555
O21 P6 1.541969 1_555
O21 U1 2.370141 1_555
O21 Rb0 3.405608 1_554
O22 P5 1.541969 1_455
O22 U2 2.370141 1_555
O22 Rb3 3.405608 1_555
O23 P4 1.541969 1_555
O23 U3 2.370141 1_555
O23 Rb2 3.405608 1_556
O24 P4 1.526979 1_555
O24 Rb2 2.877737 1_556
O25 P5 1.526979 1_555
O25 Rb3 2.877737 1_655
O26 P6 1.526979 1_555
O26 Rb0 2.877737 1_554
O27 P7 1.526979 1_555
O27 Rb1 2.877737 1_455
O28 P3 1.550888 1_555
O28 U0 2.390658 1_565
O29 P2 1.550888 1_655
O29 U1 2.390658 1_565
O30 P1 1.550888 1_555
O30 U2 2.390658 1_545
O31 P0 1.550888 1_455
O31 U3 2.390658 1_545
O36 Rb3 2.926248 1_655
O37 Rb2 2.926248 1_555
O38 Rb1 2.926248 1_455
O39 Rb0 2.926248 1_555
O40 Rb0 3.204580 1_555
O41 Rb1 3.204580 1_555
O42 Rb2 3.204580 1_555
O43 Rb3 3.204580 1_555
