# generated using pymatgen
data_Li5Mn(CO3)4
_symmetry_space_group_name_H-M   'P 1'
_cell_length_a   9.59703200
_cell_length_b   8.39933600
_cell_length_c   11.14218168
_cell_angle_alpha   88.72568885
_cell_angle_beta   90.00000000
_cell_angle_gamma   90.00000000
_symmetry_Int_Tables_number   1
_chemical_formula_structural   Li5Mn(CO3)4
_chemical_formula_sum   'Li20 Mn4 C16 O48'
_cell_volume   897.93460818
_cell_formula_units_Z   4
loop_
 _symmetry_equiv_pos_site_id
 _symmetry_equiv_pos_as_xyz
  1  'x, y, z'
loop_
 _atom_site_type_symbol
 _atom_site_label
 _atom_site_symmetry_multiplicity
 _atom_site_fract_x
 _atom_site_fract_y
 _atom_site_fract_z
 _atom_site_occupancy
  Li  Li0  1  0.36330700  0.43686400  0.06896600  1
  Li  Li1  1  0.13669300  0.93686400  0.06896600  1
  Li  Li2  1  0.86603300  0.42556000  0.12248700  1
  Li  Li3  1  0.63396700  0.92556000  0.12248700  1
  Li  Li4  1  0.10766200  0.30231700  0.21760400  1
  Li  Li5  1  0.39233800  0.80231700  0.21760400  1
  Li  Li6  1  0.33162000  0.47574200  0.34166000  1
  Li  Li7  1  0.16838000  0.97574200  0.34166000  1
  Li  Li8  1  0.90202900  0.43876000  0.39845300  1
  Li  Li9  1  0.59797100  0.93876000  0.39845300  1
  Li  Li10  1  0.40202900  0.06124000  0.60154700  1
  Li  Li11  1  0.09797100  0.56124000  0.60154700  1
  Li  Li12  1  0.83162000  0.02425800  0.65834000  1
  Li  Li13  1  0.66838000  0.52425800  0.65834000  1
  Li  Li14  1  0.60766200  0.19768300  0.78239600  1
  Li  Li15  1  0.89233800  0.69768300  0.78239600  1
  Li  Li16  1  0.36603300  0.07444000  0.87751300  1
  Li  Li17  1  0.13396700  0.57444000  0.87751300  1
  Li  Li18  1  0.86330700  0.06313600  0.93103400  1
  Li  Li19  1  0.63669300  0.56313600  0.93103400  1
  Mn  Mn0  1  0.60584600  0.27313700  0.27077700  1
  Mn  Mn1  1  0.89415400  0.77313700  0.27077700  1
  Mn  Mn2  1  0.10584600  0.22686300  0.72922300  1
  Mn  Mn3  1  0.39415400  0.72686300  0.72922300  1
  C  C0  1  0.61277900  0.24430300  0.02081400  1
  C  C1  1  0.88722100  0.74430300  0.02081400  1
  C  C2  1  0.36208700  0.13624700  0.20432100  1
  C  C3  1  0.13791300  0.63624800  0.20432100  1
  C  C4  1  0.86849700  0.12062900  0.28630900  1
  C  C5  1  0.63150300  0.62062900  0.28630900  1
  C  C6  1  0.15365700  0.26371800  0.48595300  1
  C  C7  1  0.34634300  0.76371800  0.48595300  1
  C  C8  1  0.65365700  0.23628200  0.51404700  1
  C  C9  1  0.84634300  0.73628200  0.51404700  1
  C  C10  1  0.36849700  0.37937100  0.71369100  1
  C  C11  1  0.13150300  0.87937100  0.71369100  1
  C  C12  1  0.86208700  0.36375300  0.79567900  1
  C  C13  1  0.63791300  0.86375300  0.79567900  1
  C  C14  1  0.11277900  0.25569700  0.97918600  1
  C  C15  1  0.38722100  0.75569700  0.97918600  1
  O  O0  1  0.17708500  0.38336000  0.00460700  1
  O  O1  1  0.32291500  0.88336000  0.00460700  1
  O  O2  1  0.00346300  0.20595700  0.03402400  1
  O  O3  1  0.49653700  0.70595700  0.03402400  1
  O  O4  1  0.66420800  0.33668900  0.10882400  1
  O  O5  1  0.83579200  0.83668900  0.10882400  1
  O  O6  1  0.23261600  0.09846900  0.19591000  1
  O  O7  1  0.26738400  0.59846900  0.19591000  1
  O  O8  1  0.46278200  0.03532800  0.20239700  1
  O  O9  1  0.03721800  0.53532800  0.20239700  1
  O  O10  1  0.39469100  0.28710000  0.21803200  1
  O  O11  1  0.10530900  0.78710000  0.21803200  1
  O  O12  1  0.90697300  0.26607600  0.28026600  1
  O  O13  1  0.73659800  0.08401200  0.27183800  1
  O  O14  1  0.59302700  0.76607600  0.28026600  1
  O  O15  1  0.76340200  0.58401200  0.27183800  1
  O  O16  1  0.95583400  0.00652900  0.30614600  1
  O  O17  1  0.54416600  0.50652900  0.30614600  1
  O  O18  1  0.16116000  0.35218000  0.39194100  1
  O  O19  1  0.33884000  0.85218000  0.39194100  1
  O  O20  1  0.56057700  0.18777500  0.43115800  1
  O  O21  1  0.93942300  0.68777500  0.43115800  1
  O  O22  1  0.72357700  0.36256400  0.49326000  1
  O  O23  1  0.77642300  0.86256400  0.49326000  1
  O  O24  1  0.22357700  0.13743600  0.50674000  1
  O  O25  1  0.27642300  0.63743600  0.50674000  1
  O  O26  1  0.06057700  0.31222500  0.56884200  1
  O  O27  1  0.43942300  0.81222500  0.56884200  1
  O  O28  1  0.66116000  0.14782000  0.60805900  1
  O  O29  1  0.83884000  0.64782000  0.60805900  1
  O  O30  1  0.45583400  0.49347100  0.69385400  1
  O  O31  1  0.04416600  0.99347100  0.69385400  1
  O  O32  1  0.23659800  0.41598800  0.72816200  1
  O  O33  1  0.40697300  0.23392400  0.71973400  1
  O  O34  1  0.26340200  0.91598800  0.72816200  1
  O  O35  1  0.09302700  0.73392400  0.71973400  1
  O  O36  1  0.89469100  0.21290000  0.78196800  1
  O  O37  1  0.60530900  0.71290000  0.78196800  1
  O  O38  1  0.96278200  0.46467200  0.79760300  1
  O  O39  1  0.53721800  0.96467200  0.79760300  1
  O  O40  1  0.73261600  0.40153100  0.80409000  1
  O  O41  1  0.76738400  0.90153100  0.80409000  1
  O  O42  1  0.16420800  0.16331100  0.89117600  1
  O  O43  1  0.33579200  0.66331100  0.89117600  1
  O  O44  1  0.50346300  0.29404300  0.96597600  1
  O  O45  1  0.99653700  0.79404300  0.96597600  1
  O  O46  1  0.67708500  0.11664000  0.99539300  1
  O  O47  1  0.82291500  0.61664000  0.99539300  1
loop_
_geom_bond_atom_site_label_1
_geom_bond_atom_site_label_2
_geom_bond_distance
_geom_bond_site_symmetry_2
Li0 O0 1.981043 1_555
Li0 O10 2.082980 1_555
Li0 O44 2.150895 1_554
Li0 O7 2.185393 1_555
Li1 O1 1.981043 1_555
Li1 O11 2.082980 1_555
Li1 O45 2.150895 1_454
Li1 O6 2.185393 1_565
Li2 O4 2.082569 1_555
Li2 O9 2.092447 1_655
Li2 O47 2.156698 1_554
Li2 O12 2.221401 1_555
Li2 O15 2.368360 1_555
Li2 O2 2.488818 1_655
Li3 O5 2.082569 1_555
Li3 O8 2.092447 1_565
Li3 O46 2.156698 1_564
Li3 O14 2.221401 1_555
Li3 O13 2.368360 1_565
Li3 O3 2.488818 1_555
Li4 O18 2.061184 1_555
Li4 O12 2.068871 1_455
Li4 O9 2.073981 1_555
Li4 O6 2.108666 1_555
Li4 O2 2.431604 1_555
Li4 O0 2.543172 1_555
Li5 O19 2.061184 1_555
Li5 O14 2.068871 1_555
Li5 O8 2.073981 1_565
Li5 O7 2.108666 1_555
Li5 O3 2.431604 1_555
Li5 O1 2.543172 1_555
Li6 O7 2.001368 1_555
Li6 O18 2.010303 1_555
Li6 O17 2.092780 1_555
Li6 O10 2.207139 1_555
Li6 O25 2.370534 1_555
Li7 O6 2.001368 1_565
Li7 O19 2.010303 1_555
Li7 O16 2.092780 1_465
Li7 O11 2.207139 1_555
Li7 O24 2.370534 1_565
Li8 O12 1.981181 1_555
Li8 O22 2.104387 1_555
Li8 O21 2.161043 1_555
Li8 O15 2.274235 1_555
Li9 O14 1.981181 1_555
Li9 O23 2.104387 1_555
Li9 O20 2.161043 1_565
Li9 O13 2.274235 1_565
Li10 O33 1.981181 1_555
Li10 O24 2.104387 1_555
Li10 O27 2.161043 1_545
Li10 O34 2.274235 1_545
Li11 O35 1.981181 1_555
Li11 O25 2.104387 1_555
Li11 O26 2.161043 1_555
Li11 O32 2.274235 1_555
Li12 O41 2.001368 1_545
Li12 O28 2.010303 1_555
Li12 O31 2.092780 1_645
Li12 O36 2.207139 1_555
Li12 O23 2.370534 1_545
Li13 O40 2.001368 1_555
Li13 O29 2.010303 1_555
Li13 O30 2.092780 1_555
Li13 O37 2.207139 1_555
Li13 O22 2.370534 1_555
Li14 O28 2.061184 1_555
Li14 O33 2.068871 1_555
Li14 O39 2.073981 1_545
Li14 O40 2.108666 1_555
Li14 O44 2.431604 1_555
Li14 O46 2.543172 1_555
Li15 O29 2.061184 1_555
Li15 O35 2.068871 1_655
Li15 O38 2.073981 1_555
Li15 O41 2.108666 1_555
Li15 O45 2.431604 1_555
Li15 O47 2.543172 1_555
Li16 O42 2.082569 1_555
Li16 O39 2.092447 1_545
Li16 O1 2.156698 1_546
Li16 O33 2.221401 1_555
Li16 O34 2.368360 1_545
Li16 O44 2.488818 1_555
Li17 O43 2.082569 1_555
Li17 O38 2.092447 1_455
Li17 O0 2.156698 1_556
Li17 O35 2.221401 1_555
Li17 O32 2.368360 1_555
Li17 O45 2.488818 1_455
Li18 O46 1.981043 1_555
Li18 O36 2.082980 1_555
Li18 O2 2.150895 1_656
Li18 O41 2.185393 1_545
Li19 O47 1.981043 1_555
Li19 O37 2.082980 1_555
Li19 O3 2.150895 1_556
Li19 O40 2.185393 1_555
Mn0 O4 1.952451 1_555
Mn0 O20 1.959381 1_555
Mn0 O13 2.024183 1_555
Mn0 O17 2.093559 1_555
Mn0 O10 2.112491 1_555
Mn1 O5 1.952451 1_555
Mn1 O21 1.959381 1_555
Mn1 O15 2.024183 1_555
Mn1 O16 2.093559 1_565
Mn1 O11 2.112491 1_655
Mn2 O42 1.952451 1_555
Mn2 O26 1.959381 1_555
Mn2 O32 2.024183 1_555
Mn2 O31 2.093559 1_545
Mn2 O36 2.112491 1_455
Mn3 O43 1.952451 1_555
Mn3 O27 1.959381 1_555
Mn3 O34 2.024183 1_555
Mn3 O30 2.093559 1_555
Mn3 O37 2.112491 1_555
C0 O46 1.274520 1_554
C0 O44 1.279515 1_554
C0 O4 1.356916 1_555
C1 O47 1.274520 1_554
C1 O45 1.279515 1_554
C1 O5 1.356916 1_555
C2 O8 1.285947 1_555
C2 O6 1.286348 1_555
C2 O10 1.317312 1_555
C3 O9 1.285953 1_555
C3 O7 1.286350 1_555
C3 O11 1.317303 1_555
C4 O12 1.276587 1_555
C4 O16 1.288578 1_555
C4 O13 1.313447 1_555
C5 O14 1.276587 1_555
C5 O17 1.288578 1_555
C5 O15 1.313447 1_555
C6 O24 1.272024 1_555
C6 O18 1.272754 1_555
C6 O26 1.354132 1_555
C7 O25 1.272024 1_555
C7 O19 1.272754 1_555
C7 O27 1.354132 1_555
C8 O22 1.272024 1_555
C8 O28 1.272754 1_555
C8 O20 1.354132 1_555
C9 O23 1.272024 1_555
C9 O29 1.272754 1_555
C9 O21 1.354132 1_555
C10 O33 1.276587 1_555
C10 O30 1.288578 1_555
C10 O32 1.313447 1_555
C11 O35 1.276587 1_555
C11 O31 1.288578 1_555
C11 O34 1.313447 1_555
C12 O38 1.285947 1_555
C12 O40 1.286348 1_555
C12 O36 1.317312 1_555
C13 O39 1.285947 1_555
C13 O41 1.286348 1_555
C13 O37 1.317312 1_555
C14 O0 1.274520 1_556
C14 O2 1.279515 1_556
C14 O42 1.356916 1_555
C15 O1 1.274520 1_556
C15 O3 1.279515 1_556
C15 O43 1.356916 1_555
