# generated using pymatgen
data_Li5Mn2(PO4)3
_symmetry_space_group_name_H-M   'P 1'
_cell_length_a   8.92232000
_cell_length_b   8.89919500
_cell_length_c   12.58011908
_cell_angle_alpha   89.48252315
_cell_angle_beta   90.00000000
_cell_angle_gamma   90.00000000
_symmetry_Int_Tables_number   1
_chemical_formula_structural   Li5Mn2(PO4)3
_chemical_formula_sum   'Li20 Mn8 P12 O48'
_cell_volume   998.83915222
_cell_formula_units_Z   4
loop_
 _symmetry_equiv_pos_site_id
 _symmetry_equiv_pos_as_xyz
  1  'x, y, z'
loop_
 _atom_site_type_symbol
 _atom_site_label
 _atom_site_symmetry_multiplicity
 _atom_site_fract_x
 _atom_site_fract_y
 _atom_site_fract_z
 _atom_site_occupancy
  Li  Li0  1  0.51946700  0.20061500  0.09233000  1
  Li  Li1  1  0.09577600  0.17681400  0.44697300  1
  Li  Li2  1  0.72763900  0.12047700  0.49649100  1
  Li  Li3  1  0.64529300  0.15485700  0.73365000  1
  Li  Li4  1  0.77007800  0.04247700  0.93245600  1
  Li  Li5  1  0.27007800  0.95752300  0.06754400  1
  Li  Li6  1  0.14529300  0.84514300  0.26635000  1
  Li  Li7  1  0.22763900  0.87952300  0.50350900  1
  Li  Li8  1  0.59577600  0.82318600  0.55302700  1
  Li  Li9  1  0.01946700  0.79938500  0.90767000  1
  Li  Li10  1  0.98325300  0.70447400  0.58789400  1
  Li  Li11  1  0.40675400  0.67218000  0.94476400  1
  Li  Li12  1  0.77667000  0.63660700  0.00614400  1
  Li  Li13  1  0.68255800  0.59589400  0.23957000  1
  Li  Li14  1  0.73474600  0.54703300  0.44607300  1
  Li  Li15  1  0.23474600  0.45296700  0.55392700  1
  Li  Li16  1  0.18255800  0.40410600  0.76043000  1
  Li  Li17  1  0.27667000  0.36339300  0.99385600  1
  Li  Li18  1  0.90675400  0.32782000  0.05523600  1
  Li  Li19  1  0.48325300  0.29552600  0.41210600  1
  Mn  Mn0  1  0.53531800  0.99199700  0.35066600  1
  Mn  Mn1  1  0.03531800  0.00800300  0.64933400  1
  Mn  Mn2  1  0.43980100  0.99441000  0.85738300  1
  Mn  Mn3  1  0.93980100  0.00559000  0.14261700  1
  Mn  Mn4  1  0.04583700  0.49967700  0.34912800  1
  Mn  Mn5  1  0.54583700  0.50032300  0.65087200  1
  Mn  Mn6  1  0.93392300  0.49850600  0.85240100  1
  Mn  Mn7  1  0.43392300  0.50149400  0.14759900  1
  P  P0  1  0.24771800  0.19687800  0.24247900  1
  P  P1  1  0.39312200  0.14642800  0.59517300  1
  P  P2  1  0.10168500  0.15031300  0.90697200  1
  P  P3  1  0.89312200  0.85357200  0.40482700  1
  P  P4  1  0.60168500  0.84968700  0.09302800  1
  P  P5  1  0.74771800  0.80312200  0.75752100  1
  P  P6  1  0.24347000  0.69809600  0.74062900  1
  P  P7  1  0.40334500  0.65015900  0.40285000  1
  P  P8  1  0.11081600  0.64898900  0.09286200  1
  P  P9  1  0.90334500  0.34984100  0.59715000  1
  P  P10  1  0.61081600  0.35101100  0.90713800  1
  P  P11  1  0.74347000  0.30190400  0.25937100  1
  O  O0  1  0.85874600  0.21857000  0.19059700  1
  O  O1  1  0.86984800  0.17772600  0.60794000  1
  O  O2  1  0.68315200  0.20831300  0.35534000  1
  O  O3  1  0.59599700  0.18115300  0.93967600  1
  O  O4  1  0.37912000  0.16350900  0.31962900  1
  O  O5  1  0.23418200  0.09237800  0.56117800  1
  O  O6  1  0.41966500  0.12621000  0.71513400  1
  O  O7  1  0.97252400  0.12485700  0.98899800  1
  O  O8  1  0.25548500  0.09446500  0.94942200  1
  O  O9  1  0.18256400  0.04527900  0.20039200  1
  O  O10  1  0.06129100  0.06810600  0.80457600  1
  O  O11  1  0.51695700  0.05890600  0.53286800  1
  O  O12  1  0.01695700  0.94109400  0.46713200  1
  O  O13  1  0.56129100  0.93189400  0.19542400  1
  O  O14  1  0.68256400  0.95472100  0.79960800  1
  O  O15  1  0.75548500  0.90553500  0.05057800  1
  O  O16  1  0.91966500  0.87379000  0.28486600  1
  O  O17  1  0.47252400  0.87514300  0.01100200  1
  O  O18  1  0.73418200  0.90762200  0.43882200  1
  O  O19  1  0.87912000  0.83649100  0.68037100  1
  O  O20  1  0.18315200  0.79168700  0.64466000  1
  O  O21  1  0.36984800  0.82227400  0.39206000  1
  O  O22  1  0.09599700  0.81884700  0.06032400  1
  O  O23  1  0.35874600  0.78143000  0.80940300  1
  O  O24  1  0.62956000  0.71704900  0.69253900  1
  O  O25  1  0.90785100  0.68386900  0.43800800  1
  O  O26  1  0.61732000  0.67512500  0.10788700  1
  O  O27  1  0.80769000  0.71193800  0.85585100  1
  O  O28  1  0.11444300  0.65023000  0.81674700  1
  O  O29  1  0.26283800  0.58914400  0.04841200  1
  O  O30  1  0.52512000  0.62508100  0.49077900  1
  O  O31  1  0.11513700  0.63544300  0.21557900  1
  O  O32  1  0.25320500  0.57391700  0.43211100  1
  O  O33  1  0.31047500  0.54889700  0.69392100  1
  O  O34  1  0.47183800  0.58498600  0.30012200  1
  O  O35  1  0.97968600  0.56171500  0.04115000  1
  O  O36  1  0.47968600  0.43828500  0.95885000  1
  O  O37  1  0.97183800  0.41501400  0.69987800  1
  O  O38  1  0.81047500  0.45110300  0.30607900  1
  O  O39  1  0.75320500  0.42608300  0.56788900  1
  O  O40  1  0.02512000  0.37491900  0.50922100  1
  O  O41  1  0.61513700  0.36455700  0.78442100  1
  O  O42  1  0.76283800  0.41085600  0.95158800  1
  O  O43  1  0.61444300  0.34977000  0.18325300  1
  O  O44  1  0.40785100  0.31613100  0.56199200  1
  O  O45  1  0.30769000  0.28806200  0.14414900  1
  O  O46  1  0.11732000  0.32487500  0.89211300  1
  O  O47  1  0.12956000  0.28295100  0.30746100  1
loop_
_geom_bond_atom_site_label_1
_geom_bond_atom_site_label_2
_geom_bond_distance
_geom_bond_site_symmetry_2
Li0 O43 1.953390 1_555
Li0 O3 2.047001 1_554
Li0 O45 2.147114 1_555
Li1 O47 2.008322 1_555
Li1 O5 2.033285 1_555
Li1 O40 2.035600 1_555
Li1 O12 2.224789 1_545
Li2 O1 1.961663 1_555
Li2 O2 1.973977 1_555
Li2 O11 2.009643 1_555
Li2 O18 2.035361 1_545
Li3 O14 1.986084 1_545
Li3 O41 1.996103 1_555
Li3 O6 2.042791 1_555
Li3 O1 2.559453 1_555
Li4 O15 1.917699 1_546
Li4 O3 1.986388 1_555
Li4 O14 2.009034 1_545
Li4 O7 2.077380 1_555
Li5 O8 1.917699 1_564
Li5 O22 1.986388 1_555
Li5 O9 2.009034 1_565
Li5 O17 2.077380 1_555
Li6 O9 1.986084 1_565
Li6 O31 1.996103 1_555
Li6 O16 2.042791 1_455
Li6 O21 2.559453 1_555
Li7 O21 1.961663 1_555
Li7 O20 1.973977 1_555
Li7 O12 2.009643 1_555
Li7 O5 2.035361 1_565
Li8 O24 2.008322 1_555
Li8 O18 2.033285 1_555
Li8 O30 2.035600 1_555
Li8 O11 2.224789 1_565
Li9 O28 1.953390 1_555
Li9 O22 2.047001 1_556
Li9 O27 2.147114 1_455
Li10 O19 1.903057 1_555
Li10 O25 2.011940 1_555
Li10 O20 2.074476 1_655
Li10 O12 2.602826 1_655
Li11 O29 1.969171 1_556
Li11 O23 1.999635 1_555
Li11 O17 2.080454 1_556
Li11 O36 2.186487 1_555
Li12 O26 1.945534 1_555
Li12 O35 1.978358 1_555
Li12 O27 2.019377 1_554
Li12 O42 2.132431 1_554
Li12 O15 2.469811 1_555
Li13 O26 1.886571 1_555
Li13 O38 1.908789 1_555
Li13 O34 2.030559 1_555
Li13 O43 2.386788 1_555
Li14 O39 1.871980 1_555
Li14 O25 1.968859 1_555
Li14 O30 2.074605 1_555
Li14 O38 2.077046 1_555
Li15 O32 1.871980 1_555
Li15 O44 1.968859 1_555
Li15 O40 2.074605 1_555
Li15 O33 2.077046 1_555
Li16 O46 1.886571 1_555
Li16 O33 1.908789 1_555
Li16 O37 2.030559 1_455
Li16 O28 2.386788 1_555
Li17 O46 1.945534 1_555
Li17 O36 1.978358 1_555
Li17 O45 2.019377 1_556
Li17 O29 2.132431 1_556
Li17 O8 2.469811 1_555
Li18 O42 1.969171 1_554
Li18 O0 1.999635 1_555
Li18 O7 2.080454 1_554
Li18 O35 2.186487 1_555
Li19 O4 1.903057 1_555
Li19 O44 2.011940 1_555
Li19 O2 2.074476 1_555
Li19 O11 2.602826 1_555
Mn0 O13 2.042724 1_555
Mn0 O4 2.100855 1_565
Mn0 O21 2.172085 1_555
Mn0 O18 2.219665 1_555
Mn0 O2 2.334758 1_565
Mn0 O11 2.379046 1_565
Mn1 O10 2.042724 1_555
Mn1 O19 2.100855 1_445
Mn1 O1 2.172085 1_455
Mn1 O5 2.219665 1_555
Mn1 O20 2.334758 1_545
Mn1 O12 2.379046 1_545
Mn2 O23 2.121405 1_555
Mn2 O6 2.138325 1_565
Mn2 O8 2.203761 1_565
Mn2 O17 2.215728 1_556
Mn2 O14 2.312844 1_555
Mn2 O3 2.409735 1_565
Mn3 O0 2.121405 1_555
Mn3 O16 2.138325 1_545
Mn3 O15 2.203761 1_545
Mn3 O7 2.215728 1_554
Mn3 O9 2.312844 1_655
Mn3 O22 2.409735 1_645
Mn4 O47 2.137959 1_555
Mn4 O31 2.151285 1_555
Mn4 O38 2.212300 1_455
Mn4 O32 2.227556 1_555
Mn4 O40 2.298385 1_555
Mn4 O25 2.342198 1_455
Mn5 O24 2.137959 1_555
Mn5 O41 2.151285 1_555
Mn5 O33 2.212300 1_555
Mn5 O39 2.227556 1_555
Mn5 O30 2.298385 1_555
Mn5 O44 2.342198 1_555
Mn6 O37 2.091384 1_555
Mn6 O42 2.116113 1_555
Mn6 O28 2.146522 1_655
Mn6 O27 2.208964 1_555
Mn6 O46 2.302341 1_655
Mn6 O35 2.479000 1_556
Mn7 O34 2.091384 1_555
Mn7 O29 2.116113 1_555
Mn7 O43 2.146522 1_555
Mn7 O45 2.208964 1_555
Mn7 O26 2.302341 1_555
Mn7 O36 2.479000 1_554
O0 P11 1.538826 1_555
O1 P9 1.565264 1_555
O2 P11 1.556517 1_555
O3 P10 1.568053 1_555
O4 P0 1.549033 1_555
O5 P1 1.558531 1_555
O6 P1 1.536557 1_555
O7 P2 1.562040 1_655
O8 P2 1.552572 1_555
O9 P0 1.565651 1_555
O10 P2 1.530183 1_555
O11 P1 1.566147 1_555
O12 P3 1.566147 1_455
O13 P4 1.530183 1_555
O14 P5 1.565651 1_555
O15 P4 1.552572 1_555
O16 P3 1.536557 1_555
O17 P4 1.562040 1_555
O18 P3 1.558531 1_555
O19 P5 1.549033 1_555
O20 P6 1.556517 1_555
O21 P7 1.565264 1_555
O22 P8 1.568053 1_555
O23 P6 1.538826 1_555
O24 P5 1.541993 1_555
O25 P3 1.568722 1_555
O26 P4 1.569203 1_555
O27 P5 1.567431 1_555
O28 P6 1.554457 1_555
O29 P8 1.562528 1_555
O30 P7 1.565071 1_555
O31 P8 1.547888 1_555
O32 P7 1.544624 1_555
O33 P6 1.574704 1_555
O34 P7 1.547096 1_555
O35 P8 1.550616 1_655
O36 P10 1.550616 1_555
O37 P9 1.547096 1_555
O38 P11 1.574704 1_555
O39 P9 1.544624 1_555
O40 P9 1.565071 1_455
O41 P10 1.547888 1_555
O42 P10 1.562528 1_555
O43 P11 1.554457 1_555
O44 P1 1.568722 1_555
O45 P0 1.567431 1_555
O46 P2 1.569203 1_555
O47 P0 1.541993 1_555
