# generated using pymatgen
data_CdP2(HO2)4
_symmetry_space_group_name_H-M   'P 1'
_cell_length_a   11.66178599
_cell_length_b   11.66178599
_cell_length_c   11.66178585
_cell_angle_alpha   89.40689488
_cell_angle_beta   89.40689488
_cell_angle_gamma   89.40689171
_symmetry_Int_Tables_number   1
_chemical_formula_structural   CdP2(HO2)4
_chemical_formula_sum   'Cd6 P12 H24 O48'
_cell_volume   1585.71766171
_cell_formula_units_Z   6
loop_
 _symmetry_equiv_pos_site_id
 _symmetry_equiv_pos_as_xyz
  1  'x, y, z'
loop_
 _atom_site_type_symbol
 _atom_site_label
 _atom_site_symmetry_multiplicity
 _atom_site_fract_x
 _atom_site_fract_y
 _atom_site_fract_z
 _atom_site_occupancy
  Cd  Cd0  1  0.63274100  0.39323400  0.85422400  1
  Cd  Cd1  1  0.85422400  0.63274100  0.39323400  1
  Cd  Cd2  1  0.39323400  0.85422400  0.63274100  1
  Cd  Cd3  1  0.36725900  0.60676600  0.14577600  1
  Cd  Cd4  1  0.14577600  0.36725900  0.60676600  1
  Cd  Cd5  1  0.60676600  0.14577600  0.36725900  1
  P  P0  1  0.36620600  0.01762300  0.27874000  1
  P  P1  1  0.27874000  0.36620600  0.01762300  1
  P  P2  1  0.01762300  0.27874000  0.36620600  1
  P  P3  1  0.63379400  0.98237700  0.72126000  1
  P  P4  1  0.72126000  0.63379400  0.98237700  1
  P  P5  1  0.98237700  0.72126000  0.63379400  1
  P  P6  1  0.20785300  0.12392600  0.45852700  1
  P  P7  1  0.45852700  0.20785300  0.12392600  1
  P  P8  1  0.12392600  0.45852700  0.20785300  1
  P  P9  1  0.79214700  0.87607400  0.54147300  1
  P  P10  1  0.54147300  0.79214700  0.87607400  1
  P  P11  1  0.87607400  0.54147300  0.79214700  1
  H  H0  1  0.78037400  0.31299700  0.55931600  1
  H  H1  1  0.55931600  0.78037400  0.31299700  1
  H  H2  1  0.31299700  0.55931600  0.78037400  1
  H  H3  1  0.21962600  0.68700300  0.44068400  1
  H  H4  1  0.44068400  0.21962600  0.68700300  1
  H  H5  1  0.68700300  0.44068400  0.21962600  1
  H  H6  1  0.66308000  0.42597000  0.27799400  1
  H  H7  1  0.27799400  0.66308000  0.42597000  1
  H  H8  1  0.42597000  0.27799400  0.66308000  1
  H  H9  1  0.33692000  0.57403000  0.72200600  1
  H  H10  1  0.72200600  0.33692000  0.57403000  1
  H  H11  1  0.57403000  0.72200600  0.33692000  1
  H  H12  1  0.51736900  0.22748200  0.94470200  1
  H  H13  1  0.94470200  0.51736900  0.22748200  1
  H  H14  1  0.22748200  0.94470200  0.51736900  1
  H  H15  1  0.48263100  0.77251800  0.05529800  1
  H  H16  1  0.05529800  0.48263100  0.77251800  1
  H  H17  1  0.77251800  0.05529800  0.48263100  1
  H  H18  1  0.87845100  0.92388900  0.21671800  1
  H  H19  1  0.21671800  0.87845100  0.92388900  1
  H  H20  1  0.92388900  0.21671800  0.87845100  1
  H  H21  1  0.12154900  0.07611100  0.78328200  1
  H  H22  1  0.78328300  0.12154900  0.07611100  1
  H  H23  1  0.07611100  0.78328200  0.12154900  1
  O  O0  1  0.87436200  0.28559000  0.35507800  1
  O  O1  1  0.35507800  0.87436200  0.28559000  1
  O  O2  1  0.28559000  0.35507800  0.87436200  1
  O  O3  1  0.12563800  0.71441000  0.64492200  1
  O  O4  1  0.64492200  0.12563800  0.71441000  1
  O  O5  1  0.71441000  0.64492200  0.12563800  1
  O  O6  1  0.99338100  0.68037800  0.50906800  1
  O  O7  1  0.50906800  0.99338100  0.68037800  1
  O  O8  1  0.68037800  0.50906800  0.99338100  1
  O  O9  1  0.00661900  0.31962200  0.49093200  1
  O  O10  1  0.49093200  0.00661900  0.31962200  1
  O  O11  1  0.31962200  0.49093200  0.00661900  1
  O  O12  1  0.20301400  0.55293900  0.23738700  1
  O  O13  1  0.23738700  0.20301400  0.55293900  1
  O  O14  1  0.55293900  0.23738700  0.20301400  1
  O  O15  1  0.79698600  0.44706100  0.76261300  1
  O  O16  1  0.76261300  0.79698600  0.44706100  1
  O  O17  1  0.44706100  0.76261300  0.79698600  1
  O  O18  1  0.00039000  0.49477800  0.16608100  1
  O  O19  1  0.16608100  0.00039000  0.49477800  1
  O  O20  1  0.49477800  0.16608100  0.00039000  1
  O  O21  1  0.99961000  0.50522200  0.83391900  1
  O  O22  1  0.83391900  0.99961000  0.50522200  1
  O  O23  1  0.50522200  0.83391900  0.99961000  1
  O  O24  1  0.38001400  0.31875200  0.10925400  1
  O  O25  1  0.10925400  0.38001400  0.31875200  1
  O  O26  1  0.31875200  0.10925400  0.38001400  1
  O  O27  1  0.61998600  0.68124800  0.89074600  1
  O  O28  1  0.89074600  0.61998600  0.68124800  1
  O  O29  1  0.68124800  0.89074600  0.61998600  1
  O  O30  1  0.38000600  0.10575500  0.16512600  1
  O  O31  1  0.16512600  0.38000600  0.10575500  1
  O  O32  1  0.10575500  0.16512600  0.38000600  1
  O  O33  1  0.61999400  0.89424500  0.83487400  1
  O  O34  1  0.83487400  0.61999400  0.89424500  1
  O  O35  1  0.89424500  0.83487400  0.61999400  1
  O  O36  1  0.23540700  0.87054900  0.24495100  1
  O  O37  1  0.24495100  0.23540700  0.87054900  1
  O  O38  1  0.87054900  0.24495100  0.23540700  1
  O  O39  1  0.76459300  0.12945100  0.75504900  1
  O  O40  1  0.75504900  0.76459300  0.12945100  1
  O  O41  1  0.12945100  0.75504900  0.76459300  1
  O  O42  1  0.22945100  0.22956100  0.99466000  1
  O  O43  1  0.99466000  0.22945100  0.22956100  1
  O  O44  1  0.22956100  0.99466000  0.22945100  1
  O  O45  1  0.77054900  0.77043900  0.00534000  1
  O  O46  1  0.00534000  0.77054900  0.77043900  1
  O  O47  1  0.77043900  0.00534000  0.77054900  1
loop_
_geom_bond_atom_site_label_1
_geom_bond_atom_site_label_2
_geom_bond_distance
_geom_bond_site_symmetry_2
Cd0 O8 2.201474 1_555
Cd0 O15 2.274370 1_555
Cd1 O6 2.201474 1_555
Cd1 O16 2.274370 1_555
Cd2 O7 2.201474 1_555
Cd2 O17 2.274370 1_555
Cd3 O11 2.201474 1_555
Cd3 O12 2.274370 1_555
Cd4 O9 2.201474 1_555
Cd4 O13 2.274370 1_555
Cd5 O10 2.201474 1_555
Cd5 O14 2.274370 1_555
H0 H10 0.751822 1_555
H1 H11 0.751822 1_555
H2 H9 0.751822 1_555
H3 H7 0.751822 1_555
H4 H8 0.751822 1_555
H5 H6 0.751822 1_555
H12 O20 0.997302 1_556
H13 O18 0.997302 1_655
H14 O19 0.997302 1_565
H15 O23 0.997302 1_554
H16 O21 0.997302 1_455
H17 O22 0.997302 1_545
O0 O38 1.479740 1_555
O0 P2 1.678065 1_655
O1 O36 1.479740 1_555
O1 P0 1.678065 1_565
O2 O37 1.479740 1_555
O2 P1 1.678065 1_556
O3 O41 1.479740 1_555
O3 P5 1.678065 1_455
O4 P3 1.678065 1_545
O5 P4 1.678065 1_554
O6 P5 1.539039 1_555
O7 P3 1.539039 1_555
O8 P4 1.539039 1_555
O9 P2 1.539039 1_555
O10 P0 1.539039 1_555
O11 P1 1.539039 1_555
O12 P8 1.488944 1_555
O13 P6 1.488944 1_555
O14 P7 1.488944 1_555
O15 P11 1.488944 1_555
O16 P9 1.488944 1_555
O17 P10 1.488944 1_555
O18 P8 1.577704 1_555
O19 P6 1.577704 1_555
O20 P7 1.577704 1_555
O21 P11 1.577704 1_555
O22 P9 1.577704 1_555
O23 P10 1.577704 1_555
O24 P7 1.585662 1_555
O24 P1 1.686213 1_555
O25 P8 1.585662 1_555
O25 P2 1.686213 1_555
O26 P6 1.585662 1_555
O26 P0 1.686213 1_555
O27 P10 1.585662 1_555
O27 P4 1.686213 1_555
O28 P11 1.585662 1_555
O28 P5 1.686213 1_555
O29 P9 1.585662 1_555
O29 P3 1.686213 1_555
O30 P7 1.577530 1_555
O30 P0 1.675862 1_555
O31 P8 1.577530 1_555
O31 P1 1.675862 1_555
O32 P6 1.577530 1_555
O32 P2 1.675862 1_555
O33 P10 1.577530 1_555
O33 P3 1.675862 1_555
O34 P11 1.577530 1_555
O34 P4 1.675862 1_555
O35 P9 1.577530 1_555
O35 P5 1.675862 1_555
O36 O44 1.457723 1_555
O37 O42 1.457723 1_555
O38 O43 1.457723 1_555
O39 O47 1.457723 1_555
O39 O4 1.479740 1_555
O40 O45 1.457723 1_555
O40 O5 1.479740 1_555
O41 O46 1.457723 1_555
O42 P1 1.724068 1_556
O43 P2 1.724068 1_655
O44 P0 1.724068 1_565
O45 P4 1.724068 1_554
O46 P5 1.724068 1_455
O47 P3 1.724068 1_545
