# generated using pymatgen
data_Li2MnSnO4
_symmetry_space_group_name_H-M   'P 1'
_cell_length_a   6.04275300
_cell_length_b   10.38908802
_cell_length_c   6.04275340
_cell_angle_alpha   73.09371872
_cell_angle_beta   89.99910098
_cell_angle_gamma   106.90628059
_symmetry_Int_Tables_number   1
_chemical_formula_structural   Li2MnSnO4
_chemical_formula_sum   'Li8 Mn4 Sn4 O16'
_cell_volume   345.78887856
_cell_formula_units_Z   4
loop_
 _symmetry_equiv_pos_site_id
 _symmetry_equiv_pos_as_xyz
  1  'x, y, z'
loop_
 _atom_site_type_symbol
 _atom_site_label
 _atom_site_symmetry_multiplicity
 _atom_site_fract_x
 _atom_site_fract_y
 _atom_site_fract_z
 _atom_site_occupancy
  Li  Li0  1  0.37500000  0.25000000  0.12500000  1
  Li  Li1  1  0.12500000  0.75000000  0.87500000  1
  Li  Li2  1  0.87500000  0.25000000  0.62500000  1
  Li  Li3  1  0.62500000  0.75000000  0.37500000  1
  Li  Li4  1  0.50000000  0.99999900  0.00000000  1
  Li  Li5  1  0.25000000  0.49999900  0.75000000  1
  Li  Li6  1  0.00000000  0.99999900  0.50000000  1
  Li  Li7  1  0.75000000  0.49999900  0.25000000  1
  Mn  Mn0  1  0.50000000  0.99999900  0.50000200  1
  Mn  Mn1  1  0.25000000  0.50000200  0.24999900  1
  Mn  Mn2  1  0.75000000  0.50000200  0.75000100  1
  Mn  Mn3  1  0.00000100  0.00000500  0.99999700  1
  Sn  Sn0  1  0.37500000  0.25000000  0.62500200  1
  Sn  Sn1  1  0.12499800  0.75000000  0.37500000  1
  Sn  Sn2  1  0.87500000  0.25000000  0.12499800  1
  Sn  Sn3  1  0.62500200  0.75000000  0.87500000  1
  O  O0  1  0.48303600  0.46607900  0.51696200  1
  O  O1  1  0.23303800  0.96607900  0.26696400  1
  O  O2  1  0.98303800  0.46607900  0.01696400  1
  O  O3  1  0.73303600  0.96607900  0.76696200  1
  O  O4  1  0.26696400  0.03392100  0.73303600  1
  O  O5  1  0.01696400  0.53392100  0.48303600  1
  O  O6  1  0.76696200  0.03392100  0.23303800  1
  O  O7  1  0.51696200  0.53392100  0.98303800  1
  O  O8  1  0.62792400  0.25585600  0.87207600  1
  O  O9  1  0.37792500  0.75585700  0.62207500  1
  O  O10  1  0.12792500  0.25585700  0.37207500  1
  O  O11  1  0.87792400  0.75585600  0.12207600  1
  O  O12  1  0.12207500  0.24414300  0.87792500  1
  O  O13  1  0.87207500  0.74414300  0.62792500  1
  O  O14  1  0.62207500  0.24414300  0.37792500  1
  O  O15  1  0.37207500  0.74414300  0.12792500  1
loop_
_geom_bond_atom_site_label_1
_geom_bond_atom_site_label_2
_geom_bond_distance
_geom_bond_site_symmetry_2
Li0 O8 2.137105 1_554
Li0 O10 2.137168 1_555
Li0 O12 2.137172 1_554
Li0 O14 2.137172 1_555
Li1 O9 2.137110 1_555
Li1 O11 2.137172 1_456
Li1 O13 2.137172 1_455
Li1 O15 2.137172 1_556
Li2 O10 2.137110 1_655
Li2 O8 2.137172 1_555
Li2 O14 2.137172 1_555
Li2 O12 2.137172 1_655
Li3 O11 2.137105 1_555
Li3 O9 2.137168 1_555
Li3 O15 2.137172 1_555
Li3 O13 2.137172 1_555
Li4 O3 2.160401 1_554
Li4 O1 2.160463 1_555
Li4 O6 2.160468 1_565
Li4 O4 2.160468 1_564
Li4 O15 2.422908 1_555
Li4 O8 2.422917 1_564
Li5 O0 2.160401 1_555
Li5 O2 2.160463 1_456
Li5 O7 2.160468 1_555
Li5 O5 2.160468 1_555
Li5 O12 2.422908 1_555
Li5 O9 2.422927 1_555
Li6 O1 2.160401 1_555
Li6 O3 2.160463 1_455
Li6 O4 2.160468 1_565
Li6 O6 2.160468 1_465
Li6 O13 2.422908 1_455
Li6 O10 2.422927 1_565
Li7 O2 2.160401 1_555
Li7 O0 2.160463 1_555
Li7 O5 2.160468 1_655
Li7 O7 2.160468 1_554
Li7 O14 2.422908 1_555
Li7 O11 2.422917 1_555
Mn0 O4 2.160396 1_565
Mn0 O3 2.160448 1_555
Mn0 O6 2.160457 1_565
Mn0 O1 2.160465 1_555
Mn0 O9 2.311979 1_555
Mn0 O14 2.311998 1_565
Mn1 O5 2.160392 1_555
Mn1 O7 2.160453 1_554
Mn1 O2 2.160457 1_455
Mn1 O0 2.160465 1_555
Mn1 O15 2.311969 1_555
Mn1 O10 2.312007 1_555
Mn2 O7 2.160400 1_555
Mn2 O2 2.160474 1_556
Mn2 O5 2.160478 1_655
Mn2 O0 2.160482 1_555
Mn2 O13 2.311969 1_555
Mn2 O8 2.312016 1_555
Mn3 O6 2.160404 1_456
Mn3 O4 2.160465 1_555
Mn3 O3 2.160474 1_445
Mn3 O1 2.160490 1_546
Mn3 O12 2.311941 1_555
Mn3 O11 2.312045 1_446
O0 Sn0 2.046227 1_555
O1 Sn1 2.046227 1_555
O2 Sn2 2.046227 1_555
O3 Sn3 2.046227 1_555
O4 Sn0 2.046227 1_555
O5 Sn1 2.046227 1_555
O6 Sn2 2.046227 1_555
O7 Sn3 2.046227 1_555
O8 Sn0 2.137164 1_555
O8 Sn2 2.137164 1_556
O9 Sn1 2.137181 1_555
O9 Sn3 2.137181 1_555
O10 Sn2 2.137181 1_455
O10 Sn0 2.137181 1_555
O11 Sn3 2.137164 1_554
O11 Sn1 2.137164 1_655
O12 Sn0 2.137101 1_555
O12 Sn2 2.137159 1_456
O13 Sn1 2.137101 1_655
O13 Sn3 2.137159 1_555
O14 Sn2 2.137119 1_555
O14 Sn0 2.137177 1_555
O15 Sn3 2.137119 1_554
O15 Sn1 2.137177 1_555
