# generated using pymatgen
data_Li2Co3BiO8
_symmetry_space_group_name_H-M   'P 1'
_cell_length_a   6.08145441
_cell_length_b   6.08145441
_cell_length_c   6.08145455
_cell_angle_alpha   56.91512098
_cell_angle_beta   56.91512098
_cell_angle_gamma   56.91512655
_symmetry_Int_Tables_number   1
_chemical_formula_structural   Li2Co3BiO8
_chemical_formula_sum   'Li2 Co3 Bi1 O8'
_cell_volume   147.72306464
_cell_formula_units_Z   1
loop_
 _symmetry_equiv_pos_site_id
 _symmetry_equiv_pos_as_xyz
  1  'x, y, z'
loop_
 _atom_site_type_symbol
 _atom_site_label
 _atom_site_symmetry_multiplicity
 _atom_site_fract_x
 _atom_site_fract_y
 _atom_site_fract_z
 _atom_site_occupancy
  Li  Li0  1  0.11921400  0.11921400  0.11921400  1
  Li  Li1  1  0.88078600  0.88078600  0.88078600  1
  Co  Co0  1  0.00000000  0.50000000  0.50000000  1
  Co  Co1  1  0.50000000  0.00000000  0.50000000  1
  Co  Co2  1  0.50000000  0.50000000  0.00000000  1
  Bi  Bi0  1  0.50000000  0.50000000  0.50000000  1
  O  O0  1  0.24619700  0.71428800  0.24619700  1
  O  O1  1  0.71428800  0.24619700  0.24619700  1
  O  O2  1  0.73341000  0.73341000  0.73341000  1
  O  O3  1  0.24619700  0.24619700  0.71428800  1
  O  O4  1  0.75380300  0.75380300  0.28571200  1
  O  O5  1  0.26659000  0.26659000  0.26659000  1
  O  O6  1  0.28571200  0.75380300  0.75380300  1
  O  O7  1  0.75380300  0.28571200  0.75380300  1
loop_
_geom_bond_atom_site_label_1
_geom_bond_atom_site_label_2
_geom_bond_distance
_geom_bond_site_symmetry_2
Li0 O3 1.937922 1_554
Li0 O1 1.937922 1_455
Li0 O0 1.937922 1_545
Li0 O5 2.245179 1_555
Li1 O4 1.937922 1_556
Li1 O7 1.937922 1_565
Li1 O6 1.937922 1_655
Li1 O2 2.245179 1_555
Co0 O7 1.932233 1_455
Co0 O0 1.932233 1_555
Co0 O4 1.932234 1_455
Co0 O3 1.932234 1_555
Co0 O5 1.957821 1_555
Co0 O2 1.957821 1_455
Co1 O6 1.932233 1_545
Co1 O1 1.932233 1_555
Co1 O4 1.932234 1_545
Co1 O3 1.932234 1_555
Co1 O5 1.957821 1_555
Co1 O2 1.957821 1_545
Co2 O1 1.932234 1_555
Co2 O7 1.932234 1_554
Co2 O0 1.932234 1_555
Co2 O6 1.932234 1_554
Co2 O5 1.957821 1_555
Co2 O2 1.957821 1_554
Bi0 O3 2.161467 1_555
Bi0 O4 2.161467 1_555
Bi0 O1 2.161467 1_555
Bi0 O0 2.161467 1_555
Bi0 O7 2.161467 1_555
Bi0 O6 2.161467 1_555
