# generated using pymatgen
data_Na2Ge2O5
_symmetry_space_group_name_H-M   'P 1'
_cell_length_a   5.08702700
_cell_length_b   6.61246200
_cell_length_c   16.30858000
_cell_angle_alpha   90.00000000
_cell_angle_beta   90.00000000
_cell_angle_gamma   90.00000000
_symmetry_Int_Tables_number   1
_chemical_formula_structural   Na2Ge2O5
_chemical_formula_sum   'Na8 Ge8 O20'
_cell_volume   548.58430760
_cell_formula_units_Z   4
loop_
 _symmetry_equiv_pos_site_id
 _symmetry_equiv_pos_as_xyz
  1  'x, y, z'
loop_
 _atom_site_type_symbol
 _atom_site_label
 _atom_site_symmetry_multiplicity
 _atom_site_fract_x
 _atom_site_fract_y
 _atom_site_fract_z
 _atom_site_occupancy
  Na  Na0  1  0.77772500  0.09992200  0.05610700  1
  Na  Na1  1  0.22227500  0.09992200  0.55610700  1
  Na  Na2  1  0.27772500  0.40007800  0.05610700  1
  Na  Na3  1  0.72227500  0.40007800  0.55610700  1
  Na  Na4  1  0.27772500  0.59992200  0.44389300  1
  Na  Na5  1  0.72227500  0.59992200  0.94389300  1
  Na  Na6  1  0.77772500  0.90007800  0.44389300  1
  Na  Na7  1  0.22227500  0.90007800  0.94389300  1
  Ge  Ge0  1  0.30480900  0.10010000  0.34532500  1
  Ge  Ge1  1  0.69519100  0.10010000  0.84532500  1
  Ge  Ge2  1  0.19519100  0.39990000  0.84532500  1
  Ge  Ge3  1  0.80480900  0.39990000  0.34532500  1
  Ge  Ge4  1  0.19519100  0.60010000  0.65467500  1
  Ge  Ge5  1  0.80480900  0.60010000  0.15467500  1
  Ge  Ge6  1  0.30480900  0.89990000  0.15467500  1
  Ge  Ge7  1  0.69519100  0.89990000  0.65467500  1
  O  O0  1  0.20332100  0.00000000  0.25000000  1
  O  O1  1  0.79667900  0.00000000  0.75000000  1
  O  O2  1  0.23611800  0.05562300  0.07238900  1
  O  O3  1  0.76388200  0.05562300  0.57238900  1
  O  O4  1  0.65208900  0.15415800  0.35178300  1
  O  O5  1  0.34791100  0.15415800  0.85178300  1
  O  O6  1  0.15208900  0.34584200  0.35178300  1
  O  O7  1  0.84791100  0.34584200  0.85178300  1
  O  O8  1  0.73611800  0.44437700  0.07238900  1
  O  O9  1  0.26388200  0.44437700  0.57238900  1
  O  O10  1  0.70332100  0.50000000  0.25000000  1
  O  O11  1  0.29667900  0.50000000  0.75000000  1
  O  O12  1  0.73611800  0.55562300  0.42761100  1
  O  O13  1  0.26388200  0.55562300  0.92761100  1
  O  O14  1  0.15208900  0.65415800  0.14821700  1
  O  O15  1  0.84791100  0.65415800  0.64821700  1
  O  O16  1  0.65208900  0.84584200  0.14821700  1
  O  O17  1  0.34791100  0.84584200  0.64821700  1
  O  O18  1  0.23611800  0.94437700  0.42761100  1
  O  O19  1  0.76388200  0.94437700  0.92761100  1
loop_
_geom_bond_atom_site_label_1
_geom_bond_atom_site_label_2
_geom_bond_distance
_geom_bond_site_symmetry_2
Na0 O8 2.302869 1_555
Na0 O19 2.335451 1_544
Na0 O16 2.342592 1_545
Na0 O2 2.365137 1_655
Na0 O2 2.783392 1_555
Na1 O9 2.302869 1_555
Na1 O18 2.335451 1_545
Na1 O17 2.342592 1_545
Na1 O3 2.365137 1_455
Na1 O3 2.783392 1_555
Na2 O2 2.302869 1_555
Na2 O13 2.335451 1_554
Na2 O14 2.342592 1_555
Na2 O8 2.365137 1_555
Na2 O8 2.783392 1_455
Na3 O3 2.302869 1_555
Na3 O12 2.335451 1_555
Na3 O15 2.342592 1_555
Na3 O9 2.365137 1_555
Na3 O9 2.783392 1_655
Na4 O18 2.302869 1_555
Na4 O9 2.335451 1_555
Na4 O6 2.342592 1_555
Na4 O12 2.365137 1_555
Na4 O12 2.783392 1_455
Na5 O19 2.302869 1_555
Na5 O8 2.335451 1_556
Na5 O7 2.342592 1_555
Na5 O13 2.365137 1_555
Na5 O13 2.783392 1_655
Na6 O12 2.302869 1_555
Na6 O3 2.335451 1_565
Na6 O4 2.342592 1_565
Na6 O18 2.365137 1_655
Na6 O18 2.783392 1_555
Na7 O13 2.302869 1_555
Na7 O2 2.335451 1_566
Na7 O5 2.342592 1_565
Na7 O19 2.365137 1_455
Na7 O19 2.783392 1_555
Ge0 O18 1.727220 1_545
Ge0 O0 1.766773 1_555
Ge0 O6 1.804202 1_555
Ge0 O4 1.805498 1_555
Ge1 O19 1.727220 1_545
Ge1 O1 1.766773 1_555
Ge1 O7 1.804202 1_555
Ge1 O5 1.805498 1_555
Ge2 O13 1.727220 1_555
Ge2 O11 1.766773 1_555
Ge2 O5 1.804202 1_555
Ge2 O7 1.805498 1_455
Ge3 O12 1.727220 1_555
Ge3 O10 1.766773 1_555
Ge3 O4 1.804202 1_555
Ge3 O6 1.805498 1_655
Ge4 O9 1.727220 1_555
Ge4 O11 1.766773 1_555
Ge4 O17 1.804202 1_555
Ge4 O15 1.805498 1_455
Ge5 O8 1.727220 1_555
Ge5 O10 1.766773 1_555
Ge5 O16 1.804202 1_555
Ge5 O14 1.805498 1_655
Ge6 O2 1.727220 1_565
Ge6 O0 1.766773 1_565
Ge6 O14 1.804202 1_555
Ge6 O16 1.805498 1_555
Ge7 O3 1.727220 1_565
Ge7 O1 1.766773 1_565
Ge7 O15 1.804202 1_555
Ge7 O17 1.805498 1_555
