# generated using pymatgen
data_Li4TiV8O18
_symmetry_space_group_name_H-M   'P 1'
_cell_length_a   2.96818200
_cell_length_b   9.11028242
_cell_length_c   25.10500683
_cell_angle_alpha   89.27307248
_cell_angle_beta   89.62916225
_cell_angle_gamma   89.87289651
_symmetry_Int_Tables_number   1
_chemical_formula_structural   Li4TiV8O18
_chemical_formula_sum   'Li8 Ti2 V16 O36'
_cell_volume   678.79349050
_cell_formula_units_Z   2
loop_
 _symmetry_equiv_pos_site_id
 _symmetry_equiv_pos_as_xyz
  1  'x, y, z'
loop_
 _atom_site_type_symbol
 _atom_site_label
 _atom_site_symmetry_multiplicity
 _atom_site_fract_x
 _atom_site_fract_y
 _atom_site_fract_z
 _atom_site_occupancy
  Li  Li0  1  0.00108500  0.18367900  0.00885300  1
  Li  Li1  1  0.99916500  0.16275300  0.79192100  1
  Li  Li2  1  0.00393400  0.32598200  0.30099800  1
  Li  Li3  1  0.99708500  0.31247500  0.51064800  1
  Li  Li4  1  0.99985500  0.69791400  0.48136900  1
  Li  Li5  1  0.99604400  0.70186400  0.68770200  1
  Li  Li6  1  0.00032000  0.80333300  0.19072300  1
  Li  Li7  1  0.01562200  0.81046600  0.98489700  1
  Ti  Ti0  1  0.99793900  0.48524900  0.60307600  1
  Ti  Ti1  1  0.98269500  0.01237400  0.10171000  1
  V  V0  1  0.99910100  0.00393900  0.50060700  1
  V  V1  1  0.99587700  0.99090400  0.89550400  1
  V  V2  1  0.99161800  0.00691800  0.68832000  1
  V  V3  1  0.50065900  0.16108100  0.41517600  1
  V  V4  1  0.48570800  0.15281100  0.19507400  1
  V  V5  1  0.49341100  0.34484200  0.69782400  1
  V  V6  1  0.50864300  0.34234400  0.91575900  1
  V  V7  1  0.00152000  0.49062900  0.19064500  1
  V  V8  1  0.99681900  0.51215600  0.39745300  1
  V  V9  1  0.00293700  0.49892800  0.00374600  1
  V  V10  1  0.99896000  0.51304900  0.81015300  1
  V  V11  1  0.49973800  0.66182700  0.08470100  1
  V  V12  1  0.50055800  0.65483700  0.30485000  1
  V  V13  1  0.50762900  0.84351200  0.80527700  1
  V  V14  1  0.49656000  0.84125000  0.58434700  1
  V  V15  1  0.00516300  0.99509900  0.31241100  1
  O  O0  1  0.99601500  0.99265100  0.57652900  1
  O  O1  1  0.00139100  0.01121700  0.42501700  1
  O  O2  1  0.49514700  0.07267500  0.05787600  1
  O  O3  1  0.49227700  0.04436800  0.84082600  1
  O  O4  1  0.50347800  0.12280500  0.33756900  1
  O  O5  1  0.01690500  0.10368800  0.24384600  1
  O  O6  1  0.49793300  0.15223200  0.49770600  1
  O  O7  1  0.49227400  0.13822700  0.71608500  1
  O  O8  1  0.98164200  0.19532500  0.14484600  1
  O  O9  1  0.01112100  0.20128500  0.92096300  1
  O  O10  1  0.99914200  0.31203700  0.41778200  1
  O  O11  1  0.99727100  0.30310700  0.64760500  1
  O  O12  1  0.50436100  0.36164300  0.21674300  1
  O  O13  1  0.50401000  0.34936100  0.99638100  1
  O  O14  1  0.99224200  0.37902400  0.74774600  1
  O  O15  1  0.50119000  0.38800700  0.84408900  1
  O  O16  1  0.50058800  0.46265600  0.33987100  1
  O  O17  1  0.49948000  0.42958400  0.56043200  1
  O  O18  1  0.00620900  0.48551900  0.92654500  1
  O  O19  1  0.00039200  0.50518200  0.07685500  1
  O  O20  1  0.49431200  0.56947500  0.44245400  1
  O  O21  1  0.49201300  0.53357500  0.66182100  1
  O  O22  1  0.50126200  0.62379800  0.16253300  1
  O  O23  1  0.00273600  0.60850400  0.25731100  1
  O  O24  1  0.50237900  0.64484800  0.00284400  1
  O  O25  1  0.49705500  0.63379600  0.78393600  1
  O  O26  1  0.99827100  0.69044500  0.35721800  1
  O  O27  1  0.99713900  0.68933700  0.58528500  1
  O  O28  1  0.99952500  0.81024600  0.08019600  1
  O  O29  1  0.01703500  0.80164300  0.85579800  1
  O  O30  1  0.50565200  0.85779300  0.28942700  1
  O  O31  1  0.49995800  0.85463900  0.50287700  1
  O  O32  1  0.98173500  0.89579400  0.75605200  1
  O  O33  1  0.49336800  0.87404000  0.66326500  1
  O  O34  1  0.50111300  0.95713000  0.15747300  1
  O  O35  1  0.54473500  0.93412700  0.94245000  1
loop_
_geom_bond_atom_site_label_1
_geom_bond_atom_site_label_2
_geom_bond_distance
_geom_bond_site_symmetry_2
Li0 O13 2.130093 1_454
Li0 O13 2.143987 1_554
Li0 O2 2.161732 1_555
Li0 O2 2.178014 1_455
Li0 O9 2.210284 1_554
Li1 O3 2.189868 1_655
Li1 O3 2.209959 1_555
Li1 O14 2.248788 1_555
Li1 O7 2.406268 1_655
Li1 O7 2.446965 1_555
Li1 O32 2.604854 1_545
Li2 O16 2.175663 1_555
Li2 O16 2.176827 1_455
Li2 O5 2.496815 1_555
Li2 O4 2.535174 1_455
Li2 O4 2.535739 1_555
Li2 O12 2.594232 1_555
Li2 O12 2.607586 1_455
Li3 O6 2.107822 1_655
Li3 O6 2.111795 1_555
Li3 O17 2.210149 1_555
Li3 O17 2.233614 1_655
Li3 O10 2.331424 1_555
Li4 O20 2.116699 1_655
Li4 O31 2.128756 1_555
Li4 O31 2.138450 1_655
Li4 O20 2.151982 1_555
Li5 O21 2.223237 1_655
Li5 O33 2.233816 1_655
Li5 O33 2.244995 1_555
Li5 O21 2.249214 1_555
Li5 O32 2.478566 1_555
Li5 O27 2.575138 1_555
Li6 O34 2.198326 1_455
Li6 O34 2.198406 1_555
Li6 O22 2.322043 1_555
Li6 O22 2.328951 1_455
Li6 O23 2.422778 1_555
Li7 O35 2.083292 1_455
Li7 O24 2.132713 1_556
Li7 O24 2.187320 1_456
Li7 O35 2.197038 1_555
Li7 O28 2.392625 1_456
O0 V0 1.907455 1_565
O0 V14 2.033753 1_655
O0 V14 2.034004 1_555
O1 V0 1.897973 1_455
O1 V3 2.029003 1_555
O1 V3 2.030089 1_455
O2 Ti1 1.899665 1_555
O2 Ti1 1.947585 1_455
O3 V13 2.046330 1_545
O3 V1 2.062155 1_445
O3 V1 2.088598 1_545
O4 V3 1.983595 1_555
O4 V15 1.992154 1_645
O4 V15 1.994636 1_545
O5 V4 1.898036 1_555
O5 V15 1.974591 1_545
O5 V4 2.047777 1_455
O6 V0 2.006916 1_455
O6 V0 2.008307 1_555
O6 V3 2.072426 1_555
O7 V5 1.931690 1_555
O7 V2 2.028196 1_555
O7 V2 2.041487 1_455
O8 V4 1.968001 1_555
O8 V4 1.997003 1_655
O8 Ti1 1.999121 1_555
O9 V6 1.962378 1_555
O9 V6 1.970454 1_455
O9 V1 2.028761 1_445
O10 V8 1.886991 1_555
O10 V3 2.024190 1_555
O10 V3 2.025697 1_655
O11 V5 1.985292 1_655
O11 V5 1.988957 1_555
O11 Ti0 1.988999 1_555
O12 V4 1.986378 1_555
O12 V7 1.990814 1_655
O12 V7 2.005767 1_555
O13 V9 2.024028 1_556
O13 V9 2.025545 1_656
O13 V6 2.025792 1_555
O14 V5 1.965774 1_655
O14 V5 1.973810 1_555
O14 V10 1.998735 1_555
O15 V6 1.841853 1_555
O15 V10 2.042796 1_555
O15 V10 2.056706 1_455
O16 V12 1.949185 1_555
O16 V8 2.123584 1_555
O16 V8 2.124744 1_455
O17 Ti0 1.899798 1_455
O17 Ti0 1.905227 1_555
O18 V9 1.943484 1_556
O18 V6 1.994620 1_455
O18 V6 1.998454 1_555
O19 V9 1.836975 1_555
O19 V11 2.068232 1_455
O19 V11 2.071816 1_555
O20 V8 1.939946 1_555
O20 V8 1.941520 1_455
O21 V5 1.932338 1_555
O21 Ti0 2.137010 1_455
O21 Ti0 2.146804 1_555
O22 V11 1.980149 1_555
O22 V7 2.035416 1_555
O22 V7 2.039266 1_655
O23 V12 1.952244 1_455
O23 V12 1.955580 1_555
O23 V7 2.000006 1_555
O24 V9 1.991506 1_655
O24 V9 1.993214 1_555
O24 V11 2.062753 1_555
O25 V10 1.950720 1_455
O25 V10 1.962059 1_555
O25 V13 1.991174 1_555
O26 V8 1.901814 1_555
O26 V12 2.009899 1_655
O26 V12 2.013500 1_555
O27 Ti0 1.906676 1_555
O27 V14 2.028315 1_555
O27 V14 2.030069 1_655
O28 Ti1 1.926034 1_565
O28 V11 2.008696 1_655
O28 V11 2.011111 1_555
O29 V13 1.959815 1_555
O29 V1 2.003210 1_455
O29 V13 2.012541 1_455
O30 V12 1.884352 1_555
O30 V15 2.025709 1_555
O30 V15 2.033107 1_655
O31 V0 2.013340 1_465
O31 V0 2.013495 1_565
O31 V14 2.047355 1_555
O32 V13 1.923508 1_555
O32 V2 1.967985 1_565
O32 V13 2.048744 1_655
O33 V14 2.007334 1_555
O33 V2 2.019471 1_465
O33 V2 2.021765 1_565
O34 V4 2.028055 1_565
O34 Ti1 2.053233 1_565
O34 Ti1 2.141834 1_465
O35 V1 1.848483 1_555
O35 V1 2.077559 1_455
