# generated using pymatgen
data_Li8Sb7S19
_symmetry_space_group_name_H-M   'P 1'
_cell_length_a   8.25164844
_cell_length_b   8.25164844
_cell_length_c   22.40933081
_cell_angle_alpha   85.96615074
_cell_angle_beta   85.96615074
_cell_angle_gamma   77.39723145
_symmetry_Int_Tables_number   1
_chemical_formula_structural   Li8Sb7S19
_chemical_formula_sum   'Li16 Sb14 S38'
_cell_volume   1483.02000991
_cell_formula_units_Z   2
loop_
 _symmetry_equiv_pos_site_id
 _symmetry_equiv_pos_as_xyz
  1  'x, y, z'
loop_
 _atom_site_type_symbol
 _atom_site_label
 _atom_site_symmetry_multiplicity
 _atom_site_fract_x
 _atom_site_fract_y
 _atom_site_fract_z
 _atom_site_occupancy
  Li  Li0  1  0.23395700  0.99413000  0.99472800  1
  Li  Li1  1  0.99413000  0.23395700  0.49472800  1
  Li  Li2  1  0.44643200  0.24566400  0.09727700  1
  Li  Li3  1  0.24566400  0.44643200  0.59727700  1
  Li  Li4  1  0.38566900  0.39003900  0.43710300  1
  Li  Li5  1  0.39003900  0.38566900  0.93710300  1
  Li  Li6  1  0.13913600  0.70189300  0.36103000  1
  Li  Li7  1  0.70189300  0.13913600  0.86103000  1
  Li  Li8  1  0.29810700  0.86086400  0.13897000  1
  Li  Li9  1  0.86086400  0.29810700  0.63897000  1
  Li  Li10  1  0.60996100  0.61433100  0.06289700  1
  Li  Li11  1  0.61433100  0.60996100  0.56289700  1
  Li  Li12  1  0.75433600  0.55356800  0.40272300  1
  Li  Li13  1  0.55356800  0.75433600  0.90272300  1
  Li  Li14  1  0.00587000  0.76604300  0.50527200  1
  Li  Li15  1  0.76604300  0.00587000  0.00527200  1
  Sb  Sb0  1  0.12285700  0.29870700  0.33775000  1
  Sb  Sb1  1  0.29870700  0.12285700  0.83775000  1
  Sb  Sb2  1  0.10714600  0.60549200  0.06783100  1
  Sb  Sb3  1  0.60549200  0.10714600  0.56783100  1
  Sb  Sb4  1  0.76021600  0.10258100  0.38728300  1
  Sb  Sb5  1  0.10258100  0.76021600  0.88728300  1
  Sb  Sb6  1  0.45779600  0.54220400  0.25000000  1
  Sb  Sb7  1  0.54220400  0.45779600  0.75000000  1
  Sb  Sb8  1  0.89741900  0.23978400  0.11271700  1
  Sb  Sb9  1  0.23978400  0.89741900  0.61271700  1
  Sb  Sb10  1  0.39450800  0.89285400  0.43216900  1
  Sb  Sb11  1  0.89285400  0.39450800  0.93216900  1
  Sb  Sb12  1  0.70129300  0.87714300  0.16225000  1
  Sb  Sb13  1  0.87714300  0.70129300  0.66225000  1
  S  S0  1  0.06145100  0.99079500  0.41659400  1
  S  S1  1  0.99079500  0.06145100  0.91659400  1
  S  S2  1  0.08799900  0.15747900  0.21112300  1
  S  S3  1  0.15630200  0.31054300  0.03765000  1
  S  S4  1  0.15747900  0.08799900  0.71112300  1
  S  S5  1  0.31054300  0.15630200  0.53765000  1
  S  S6  1  0.07359800  0.46413200  0.42732300  1
  S  S7  1  0.46413200  0.07359800  0.92732300  1
  S  S8  1  0.46466900  0.15382200  0.35746400  1
  S  S9  1  0.15382200  0.46466900  0.85746400  1
  S  S10  1  0.15595700  0.54819700  0.26789300  1
  S  S11  1  0.54819700  0.15595700  0.76789300  1
  S  S12  1  0.65002600  0.18406400  0.17898400  1
  S  S13  1  0.18406400  0.65002600  0.67898400  1
  S  S14  1  0.36548800  0.54755400  0.12739600  1
  S  S15  1  0.54755400  0.36548800  0.62739600  1
  S  S16  1  0.68602600  0.29691200  0.47450400  1
  S  S17  1  0.06835300  0.93164700  0.25000000  1
  S  S18  1  0.70308800  0.31397400  0.02549600  1
  S  S19  1  0.29691200  0.68602600  0.97450400  1
  S  S20  1  0.93164700  0.06835300  0.75000000  1
  S  S21  1  0.31397400  0.70308800  0.52549600  1
  S  S22  1  0.45244600  0.63451200  0.37260400  1
  S  S23  1  0.63451200  0.45244600  0.87260400  1
  S  S24  1  0.81593600  0.34997400  0.32101600  1
  S  S25  1  0.34997400  0.81593600  0.82101600  1
  S  S26  1  0.45180300  0.84404300  0.23210700  1
  S  S27  1  0.84404300  0.45180300  0.73210700  1
  S  S28  1  0.84617800  0.53533100  0.14253600  1
  S  S29  1  0.53533100  0.84617800  0.64253600  1
  S  S30  1  0.53586800  0.92640200  0.07267700  1
  S  S31  1  0.92640200  0.53586800  0.57267700  1
  S  S32  1  0.68945700  0.84369800  0.46235000  1
  S  S33  1  0.84252100  0.91200100  0.28887700  1
  S  S34  1  0.84369800  0.68945700  0.96235000  1
  S  S35  1  0.91200100  0.84252100  0.78887700  1
  S  S36  1  0.00920500  0.93854900  0.08340600  1
  S  S37  1  0.93854900  0.00920500  0.58340600  1
loop_
_geom_bond_atom_site_label_1
_geom_bond_atom_site_label_2
_geom_bond_distance
_geom_bond_site_symmetry_2
Li0 S7 2.513871 1_565
Li0 S19 2.547848 1_555
Li0 S1 2.696549 1_465
Li0 S36 2.706151 1_556
Li0 S3 2.772948 1_566
Li1 S6 2.513871 1_655
Li1 S16 2.547848 1_555
Li1 S0 2.696549 1_645
Li1 S37 2.706151 1_555
Li1 S5 2.772948 1_655
Li2 S12 2.522394 1_555
Li2 S14 2.560128 1_555
Li2 S30 2.662230 1_545
Li2 S18 2.702685 1_555
Li2 S3 2.755656 1_555
Li3 S13 2.522394 1_555
Li3 S15 2.560128 1_555
Li3 S31 2.662230 1_455
Li3 S21 2.702685 1_555
Li3 S5 2.755656 1_555
Li4 S22 2.534770 1_555
Li4 S6 2.535052 1_555
Li4 S16 2.608864 1_555
Li4 S8 2.679646 1_555
Li4 S5 2.982437 1_555
Li5 S23 2.534770 1_555
Li5 S7 2.535052 1_555
Li5 S19 2.608864 1_555
Li5 S9 2.679646 1_555
Li5 S3 2.982437 1_556
Li6 S10 2.497737 1_555
Li6 S6 2.507679 1_555
Li6 S22 2.550899 1_555
Li6 S0 2.698675 1_555
Li6 S17 3.030456 1_555
Li7 S11 2.497737 1_555
Li7 S7 2.507679 1_555
Li7 S23 2.550899 1_555
Li7 S1 2.698675 1_555
Li7 S20 3.030456 1_555
Li8 S26 2.497737 1_555
Li8 S30 2.507679 1_555
Li8 S14 2.550899 1_555
Li8 S36 2.698675 1_555
Li8 S17 3.030456 1_555
Li9 S27 2.497737 1_555
Li9 S31 2.507679 1_555
Li9 S15 2.550899 1_555
Li9 S37 2.698675 1_555
Li9 S20 3.030456 1_555
Li10 S14 2.534770 1_555
Li10 S30 2.535052 1_555
Li10 S18 2.608864 1_555
Li10 S28 2.679646 1_555
Li10 S34 2.982437 1_554
Li11 S15 2.534770 1_555
Li11 S31 2.535052 1_555
Li11 S21 2.608864 1_555
Li11 S29 2.679646 1_555
Li11 S32 2.982437 1_555
Li12 S24 2.522394 1_555
Li12 S22 2.560128 1_555
Li12 S6 2.662230 1_655
Li12 S16 2.702685 1_555
Li12 S32 2.755656 1_555
Li13 S25 2.522394 1_555
Li13 S23 2.560128 1_555
Li13 S7 2.662230 1_565
Li13 S19 2.702685 1_555
Li13 S34 2.755656 1_555
Li14 S31 2.513871 1_455
Li14 S21 2.547848 1_555
Li14 S37 2.696549 1_465
Li14 S0 2.706151 1_555
Li14 S32 2.772948 1_455
Li15 S30 2.513871 1_545
Li15 S18 2.547848 1_555
Li15 S36 2.696549 1_645
Li15 S1 2.706151 1_554
Li15 S34 2.772948 1_544
S0 Sb4 2.569988 1_465
S0 Sb10 2.730198 1_555
S0 Sb0 3.104562 1_565
S1 Sb5 2.569988 1_645
S1 Sb11 2.730198 1_555
S1 Sb1 3.104562 1_655
S2 Sb8 2.758334 1_455
S3 Sb2 2.511496 1_555
S3 Sb8 2.763085 1_455
S4 Sb9 2.758334 1_545
S5 Sb3 2.511496 1_555
S5 Sb9 2.763085 1_545
S6 Sb0 2.467030 1_555
S7 Sb1 2.467030 1_555
S8 Sb4 2.512439 1_555
S8 Sb10 2.770458 1_545
S8 Sb0 2.865184 1_555
S9 Sb5 2.512439 1_555
S9 Sb11 2.770458 1_455
S9 Sb1 2.865184 1_555
S10 Sb6 2.484993 1_555
S10 Sb0 2.548586 1_555
S11 Sb7 2.484993 1_555
S11 Sb1 2.548586 1_555
S12 Sb12 2.525358 1_545
S12 Sb8 2.543808 1_555
S13 Sb13 2.525358 1_455
S13 Sb9 2.543808 1_555
S14 Sb2 2.533860 1_555
S14 Sb6 2.897141 1_555
S15 Sb3 2.533860 1_555
S15 Sb7 2.897141 1_555
S16 Sb4 2.571129 1_555
S16 Sb3 2.658071 1_555
S17 S2 2.035046 1_565
S17 S33 2.035046 1_455
S18 Sb8 2.571129 1_555
S18 Sb11 2.658071 1_554
S19 Sb5 2.571129 1_555
S19 Sb2 2.658071 1_556
S20 S4 2.035046 1_655
S20 S35 2.035046 1_545
S21 Sb9 2.571129 1_555
S21 Sb10 2.658071 1_555
S22 Sb10 2.533860 1_555
S22 Sb6 2.897141 1_555
S23 Sb11 2.533860 1_555
S23 Sb7 2.897141 1_555
S24 Sb0 2.525358 1_655
S24 Sb4 2.543808 1_555
S25 Sb1 2.525358 1_565
S25 Sb5 2.543808 1_555
S26 Sb6 2.484993 1_555
S26 Sb12 2.548586 1_555
S27 Sb7 2.484993 1_555
S27 Sb13 2.548586 1_555
S28 Sb8 2.512439 1_555
S28 Sb2 2.770458 1_655
S28 Sb12 2.865184 1_555
S29 Sb9 2.512439 1_555
S29 Sb3 2.770458 1_565
S29 Sb13 2.865184 1_555
S30 Sb12 2.467030 1_555
S31 Sb13 2.467030 1_555
S32 Sb10 2.511496 1_555
S32 Sb4 2.763085 1_565
S33 Sb4 2.758334 1_565
S34 Sb11 2.511496 1_555
S34 Sb5 2.763085 1_655
S35 Sb5 2.758334 1_655
S36 Sb8 2.569988 1_465
S36 Sb2 2.730198 1_555
S36 Sb12 3.104562 1_455
S37 Sb9 2.569988 1_645
S37 Sb3 2.730198 1_555
S37 Sb13 3.104562 1_545
