# generated using pymatgen
data_Al8SiO14
_symmetry_space_group_name_H-M   'P 1'
_cell_length_a   5.94973500
_cell_length_b   7.72251500
_cell_length_c   23.31123100
_cell_angle_alpha   90.00000000
_cell_angle_beta   90.00000000
_cell_angle_gamma   90.00000000
_symmetry_Int_Tables_number   1
_chemical_formula_structural   Al8SiO14
_chemical_formula_sum   'Al32 Si4 O56'
_cell_volume   1071.07921419
_cell_formula_units_Z   4
loop_
 _symmetry_equiv_pos_site_id
 _symmetry_equiv_pos_as_xyz
  1  'x, y, z'
loop_
 _atom_site_type_symbol
 _atom_site_label
 _atom_site_symmetry_multiplicity
 _atom_site_fract_x
 _atom_site_fract_y
 _atom_site_fract_z
 _atom_site_occupancy
  Al  Al0  1  0.00000000  0.00000000  0.50000000  1
  Al  Al1  1  0.50000000  0.00000000  0.50000000  1
  Al  Al2  1  0.25000000  0.22488000  0.59043500  1
  Al  Al3  1  0.75000000  0.22644100  0.58849500  1
  Al  Al4  1  0.25000000  0.84591800  0.61414500  1
  Al  Al5  1  0.50157800  0.50231400  0.67119700  1
  Al  Al6  1  0.99842200  0.50231400  0.67119700  1
  Al  Al7  1  0.25000000  0.16939300  0.71582300  1
  Al  Al8  1  0.75000000  0.17387100  0.71696400  1
  Al  Al9  1  0.25000000  0.67387100  0.78303600  1
  Al  Al10  1  0.75000000  0.66939300  0.78417700  1
  Al  Al11  1  0.00157800  0.00231400  0.82880300  1
  Al  Al12  1  0.49842200  0.00231400  0.82880300  1
  Al  Al13  1  0.75000000  0.34591800  0.88585500  1
  Al  Al14  1  0.25000000  0.72644100  0.91150500  1
  Al  Al15  1  0.75000000  0.72488000  0.90956500  1
  Al  Al16  1  0.50000000  0.50000000  0.00000000  1
  Al  Al17  1  0.00000000  0.50000000  0.00000000  1
  Al  Al18  1  0.25000000  0.27512000  0.09043500  1
  Al  Al19  1  0.75000000  0.27355900  0.08849500  1
  Al  Al20  1  0.25000000  0.65408200  0.11414500  1
  Al  Al21  1  0.99842200  0.99768600  0.17119700  1
  Al  Al22  1  0.50157800  0.99768600  0.17119700  1
  Al  Al23  1  0.25000000  0.33060700  0.21582300  1
  Al  Al24  1  0.75000000  0.32612900  0.21696400  1
  Al  Al25  1  0.25000000  0.82612900  0.28303600  1
  Al  Al26  1  0.75000000  0.83060700  0.28417700  1
  Al  Al27  1  0.49842200  0.49768600  0.32880300  1
  Al  Al28  1  0.00157800  0.49768600  0.32880300  1
  Al  Al29  1  0.75000000  0.15408200  0.38585500  1
  Al  Al30  1  0.25000000  0.77355900  0.41150500  1
  Al  Al31  1  0.75000000  0.77512000  0.40956500  1
  Si  Si0  1  0.75000000  0.84949300  0.61522300  1
  Si  Si1  1  0.25000000  0.34949300  0.88477700  1
  Si  Si2  1  0.75000000  0.65050700  0.11522300  1
  Si  Si3  1  0.25000000  0.15050700  0.38477700  1
  O  O0  1  0.00082500  0.19147600  0.55105000  1
  O  O1  1  0.49917500  0.19147600  0.55105000  1
  O  O2  1  0.25000000  0.90746500  0.54134400  1
  O  O3  1  0.75000000  0.90049400  0.54662800  1
  O  O4  1  0.25000000  0.42886800  0.62377600  1
  O  O5  1  0.75000000  0.42230700  0.62485800  1
  O  O6  1  0.51594200  0.74348700  0.63105400  1
  O  O7  1  0.98405800  0.74348700  0.63105400  1
  O  O8  1  0.25000000  0.05491500  0.64781300  1
  O  O9  1  0.75000000  0.04582100  0.64763200  1
  O  O10  1  0.00108200  0.28864200  0.71059500  1
  O  O11  1  0.49891800  0.28864200  0.71059500  1
  O  O12  1  0.25000000  0.58363400  0.71478500  1
  O  O13  1  0.75000000  0.57393300  0.71702600  1
  O  O14  1  0.25000000  0.07393300  0.78297400  1
  O  O15  1  0.75000000  0.08363400  0.78521500  1
  O  O16  1  0.99891800  0.78864200  0.78940500  1
  O  O17  1  0.50108200  0.78864200  0.78940500  1
  O  O18  1  0.25000000  0.54582100  0.85236800  1
  O  O19  1  0.75000000  0.55491500  0.85218700  1
  O  O20  1  0.01594200  0.24348700  0.86894600  1
  O  O21  1  0.48405800  0.24348700  0.86894600  1
  O  O22  1  0.25000000  0.92230700  0.87514200  1
  O  O23  1  0.75000000  0.92886800  0.87622400  1
  O  O24  1  0.75000000  0.40746500  0.95865600  1
  O  O25  1  0.25000000  0.40049400  0.95337200  1
  O  O26  1  0.99917500  0.69147600  0.94895000  1
  O  O27  1  0.50082500  0.69147600  0.94895000  1
  O  O28  1  0.00082500  0.30852400  0.05105000  1
  O  O29  1  0.49917500  0.30852400  0.05105000  1
  O  O30  1  0.25000000  0.59253500  0.04134400  1
  O  O31  1  0.75000000  0.59950600  0.04662800  1
  O  O32  1  0.25000000  0.07113200  0.12377600  1
  O  O33  1  0.75000000  0.07769300  0.12485800  1
  O  O34  1  0.98405800  0.75651300  0.13105400  1
  O  O35  1  0.51594200  0.75651300  0.13105400  1
  O  O36  1  0.25000000  0.44508500  0.14781300  1
  O  O37  1  0.75000000  0.45417900  0.14763200  1
  O  O38  1  0.00108200  0.21135800  0.21059500  1
  O  O39  1  0.49891800  0.21135800  0.21059500  1
  O  O40  1  0.25000000  0.91636600  0.21478500  1
  O  O41  1  0.75000000  0.92606700  0.21702600  1
  O  O42  1  0.75000000  0.41636600  0.28521500  1
  O  O43  1  0.25000000  0.42606700  0.28297400  1
  O  O44  1  0.99891800  0.71135800  0.28940500  1
  O  O45  1  0.50108200  0.71135800  0.28940500  1
  O  O46  1  0.25000000  0.95417900  0.35236800  1
  O  O47  1  0.75000000  0.94508500  0.35218700  1
  O  O48  1  0.01594200  0.25651300  0.36894600  1
  O  O49  1  0.48405800  0.25651300  0.36894600  1
  O  O50  1  0.25000000  0.57769300  0.37514200  1
  O  O51  1  0.75000000  0.57113200  0.37622400  1
  O  O52  1  0.25000000  0.09950600  0.45337200  1
  O  O53  1  0.75000000  0.09253500  0.45865600  1
  O  O54  1  0.99917500  0.80852400  0.44895000  1
  O  O55  1  0.50082500  0.80852400  0.44895000  1
loop_
_geom_bond_atom_site_label_1
_geom_bond_atom_site_label_2
_geom_bond_distance
_geom_bond_site_symmetry_2
Al0 O54 1.898078 1_445
Al0 O0 1.898078 1_555
Al0 O53 1.911017 1_455
Al0 O2 1.911017 1_545
Al0 O3 1.996103 1_445
Al0 O52 1.996103 1_555
Al1 O55 1.898078 1_545
Al1 O1 1.898078 1_555
Al1 O53 1.911017 1_555
Al1 O2 1.911017 1_545
Al1 O52 1.996103 1_555
Al1 O3 1.996103 1_545
Al2 O4 1.756600 1_555
Al2 O1 1.762770 1_555
Al2 O0 1.762770 1_555
Al2 O8 1.873993 1_555
Al3 O5 1.733906 1_555
Al3 O1 1.749837 1_555
Al3 O0 1.749837 1_655
Al3 O9 1.961122 1_555
Al4 O2 1.762382 1_555
Al4 O8 1.794691 1_565
Al4 O6 1.812378 1_555
Al4 O7 1.812378 1_455
Al5 O11 1.888523 1_555
Al5 O13 1.905740 1_555
Al5 O12 1.915018 1_555
Al5 O5 1.932158 1_555
Al5 O4 1.945297 1_555
Al5 O6 2.086087 1_555
Al6 O10 1.888523 1_655
Al6 O13 1.905740 1_555
Al6 O12 1.915018 1_655
Al6 O5 1.932158 1_555
Al6 O4 1.945297 1_655
Al6 O7 2.086087 1_555
Al7 O14 1.730272 1_555
Al7 O11 1.748217 1_555
Al7 O10 1.748217 1_555
Al7 O8 1.815225 1_555
Al8 O15 1.736933 1_555
Al8 O11 1.743347 1_555
Al8 O10 1.743347 1_655
Al8 O9 1.894732 1_555
Al9 O12 1.736933 1_555
Al9 O17 1.743347 1_555
Al9 O16 1.743347 1_455
Al9 O18 1.894732 1_555
Al10 O13 1.730272 1_555
Al10 O17 1.748217 1_555
Al10 O16 1.748217 1_555
Al10 O19 1.815225 1_555
Al11 O16 1.888523 1_445
Al11 O14 1.905740 1_555
Al11 O15 1.915018 1_455
Al11 O22 1.932158 1_545
Al11 O23 1.945297 1_445
Al11 O20 2.086087 1_555
Al12 O17 1.888523 1_545
Al12 O14 1.905740 1_555
Al12 O15 1.915018 1_555
Al12 O22 1.932158 1_545
Al12 O23 1.945297 1_545
Al12 O21 2.086087 1_555
Al13 O24 1.762382 1_555
Al13 O19 1.794691 1_555
Al13 O20 1.812378 1_655
Al13 O21 1.812378 1_555
Al14 O22 1.733906 1_555
Al14 O26 1.749837 1_455
Al14 O27 1.749837 1_555
Al14 O18 1.961122 1_555
Al15 O23 1.756600 1_555
Al15 O26 1.762770 1_555
Al15 O27 1.762770 1_555
Al15 O19 1.873993 1_555
Al16 O29 1.898078 1_555
Al16 O27 1.898078 1_554
Al16 O30 1.911017 1_555
Al16 O24 1.911017 1_554
Al16 O25 1.996103 1_554
Al16 O31 1.996103 1_555
Al17 O28 1.898078 1_555
Al17 O26 1.898078 1_454
Al17 O30 1.911017 1_555
Al17 O24 1.911017 1_454
Al17 O31 1.996103 1_455
Al17 O25 1.996103 1_554
Al18 O32 1.756600 1_555
Al18 O29 1.762770 1_555
Al18 O28 1.762770 1_555
Al18 O36 1.873993 1_555
Al19 O33 1.733906 1_555
Al19 O29 1.749837 1_555
Al19 O28 1.749837 1_655
Al19 O37 1.961122 1_555
Al20 O30 1.762382 1_555
Al20 O36 1.794691 1_555
Al20 O34 1.812378 1_455
Al20 O35 1.812378 1_555
Al21 O38 1.888523 1_665
Al21 O41 1.905740 1_555
Al21 O40 1.915018 1_655
Al21 O33 1.932158 1_565
Al21 O32 1.945297 1_665
Al21 O34 2.086087 1_555
Al22 O39 1.888523 1_565
Al22 O41 1.905740 1_555
Al22 O40 1.915018 1_555
Al22 O33 1.932158 1_565
Al22 O32 1.945297 1_565
Al22 O35 2.086087 1_555
Al23 O43 1.730272 1_555
Al23 O39 1.748217 1_555
Al23 O38 1.748217 1_555
Al23 O36 1.815225 1_555
Al24 O42 1.736933 1_555
Al24 O39 1.743347 1_555
Al24 O38 1.743347 1_655
Al24 O37 1.894732 1_555
Al25 O40 1.736933 1_555
Al25 O44 1.743347 1_455
Al25 O45 1.743347 1_555
Al25 O46 1.894732 1_555
Al26 O41 1.730272 1_555
Al26 O44 1.748217 1_555
Al26 O45 1.748217 1_555
Al26 O47 1.815225 1_555
Al27 O45 1.888523 1_555
Al27 O43 1.905740 1_555
Al27 O42 1.915018 1_555
Al27 O50 1.932158 1_555
Al27 O51 1.945297 1_555
Al27 O49 2.086087 1_555
Al28 O44 1.888523 1_455
Al28 O43 1.905740 1_555
Al28 O42 1.915018 1_455
Al28 O50 1.932158 1_555
Al28 O51 1.945297 1_455
Al28 O48 2.086087 1_555
Al29 O53 1.762382 1_555
Al29 O47 1.794691 1_545
Al29 O48 1.812378 1_655
Al29 O49 1.812378 1_555
Al30 O50 1.733906 1_555
Al30 O54 1.749837 1_455
Al30 O55 1.749837 1_555
Al30 O46 1.961122 1_555
Al31 O51 1.756600 1_555
Al31 O55 1.762770 1_555
Al31 O54 1.762770 1_555
Al31 O47 1.873993 1_555
O3 Si0 1.646825 1_555
O6 Si0 1.656997 1_555
O7 Si0 1.656997 1_555
O9 Si0 1.693951 1_545
O18 Si1 1.693951 1_555
O20 Si1 1.656997 1_555
O21 Si1 1.656997 1_555
O25 Si1 1.646825 1_555
O31 Si2 1.646825 1_555
O34 Si2 1.656997 1_555
O35 Si2 1.656997 1_555
O37 Si2 1.693951 1_555
O46 Si3 1.693951 1_565
O48 Si3 1.656997 1_555
O49 Si3 1.656997 1_555
O52 Si3 1.646825 1_555
