# generated using pymatgen
data_Na9Cu2O7
_symmetry_space_group_name_H-M   'P 1'
_cell_length_a   9.90268900
_cell_length_b   9.90268900
_cell_length_c   9.90268900
_cell_angle_alpha   90.00000000
_cell_angle_beta   90.00000000
_cell_angle_gamma   90.00000000
_symmetry_Int_Tables_number   1
_chemical_formula_structural   Na9Cu2O7
_chemical_formula_sum   'Na36 Cu8 O28'
_cell_volume   971.08986144
_cell_formula_units_Z   4
loop_
 _symmetry_equiv_pos_site_id
 _symmetry_equiv_pos_as_xyz
  1  'x, y, z'
loop_
 _atom_site_type_symbol
 _atom_site_label
 _atom_site_symmetry_multiplicity
 _atom_site_fract_x
 _atom_site_fract_y
 _atom_site_fract_z
 _atom_site_occupancy
  Na  Na0  1  0.01103100  0.29147500  0.83568900  1
  Na  Na1  1  0.03814800  0.78426700  0.17020300  1
  Na  Na2  1  0.06963600  0.06963600  0.06963600  1
  Na  Na3  1  0.10366900  0.60366900  0.89633100  1
  Na  Na4  1  0.16431100  0.51103100  0.20852500  1
  Na  Na5  1  0.17020300  0.03814800  0.78426700  1
  Na  Na6  1  0.20852500  0.16431100  0.51103100  1
  Na  Na7  1  0.21573300  0.67020300  0.46185200  1
  Na  Na8  1  0.23485000  0.23485000  0.23485000  1
  Na  Na9  1  0.26515000  0.76515000  0.73485000  1
  Na  Na10  1  0.28426700  0.32979700  0.96185200  1
  Na  Na11  1  0.29147500  0.83568900  0.01103100  1
  Na  Na12  1  0.32979700  0.96185200  0.28426700  1
  Na  Na13  1  0.33568900  0.48896900  0.70852500  1
  Na  Na14  1  0.39633100  0.39633100  0.39633100  1
  Na  Na15  1  0.43036400  0.93036400  0.56963600  1
  Na  Na16  1  0.46185200  0.21573300  0.67020300  1
  Na  Na17  1  0.48896900  0.70852500  0.33568900  1
  Na  Na18  1  0.51103100  0.20852500  0.16431100  1
  Na  Na19  1  0.53814800  0.71573300  0.82979700  1
  Na  Na20  1  0.56963600  0.43036400  0.93036400  1
  Na  Na21  1  0.60366900  0.89633100  0.10366900  1
  Na  Na22  1  0.66431100  0.98896900  0.79147500  1
  Na  Na23  1  0.67020300  0.46185200  0.21573300  1
  Na  Na24  1  0.70852500  0.33568900  0.48896900  1
  Na  Na25  1  0.71573300  0.82979700  0.53814800  1
  Na  Na26  1  0.73485000  0.26515000  0.76515000  1
  Na  Na27  1  0.76515000  0.73485000  0.26515000  1
  Na  Na28  1  0.78426700  0.17020300  0.03814800  1
  Na  Na29  1  0.79147500  0.66431100  0.98896900  1
  Na  Na30  1  0.82979700  0.53814800  0.71573300  1
  Na  Na31  1  0.83568900  0.01103100  0.29147500  1
  Na  Na32  1  0.89633100  0.10366900  0.60366900  1
  Na  Na33  1  0.93036400  0.56963600  0.43036400  1
  Na  Na34  1  0.96185200  0.28426700  0.32979700  1
  Na  Na35  1  0.98896900  0.79147500  0.66431100  1
  Cu  Cu0  1  0.06788900  0.93211100  0.43211100  1
  Cu  Cu1  1  0.09745200  0.40254800  0.59745200  1
  Cu  Cu2  1  0.40254800  0.59745200  0.09745200  1
  Cu  Cu3  1  0.43211100  0.06788900  0.93211100  1
  Cu  Cu4  1  0.56788900  0.56788900  0.56788900  1
  Cu  Cu5  1  0.59745200  0.09745200  0.40254800  1
  Cu  Cu6  1  0.90254800  0.90254800  0.90254800  1
  Cu  Cu7  1  0.93211100  0.43211100  0.06788900  1
  O  O0  1  0.07571500  0.31313400  0.07602000  1
  O  O1  1  0.08531200  0.83732300  0.91021300  1
  O  O2  1  0.07602000  0.07571500  0.31313400  1
  O  O3  1  0.08978700  0.58531200  0.66267700  1
  O  O4  1  0.16267700  0.41021300  0.41468800  1
  O  O5  1  0.18686600  0.92398000  0.57571500  1
  O  O6  1  0.22030800  0.27969200  0.72030800  1
  O  O7  1  0.27969200  0.72030800  0.22030800  1
  O  O8  1  0.31313400  0.07602000  0.07571500  1
  O  O9  1  0.33732300  0.58978700  0.91468800  1
  O  O10  1  0.41021300  0.41468800  0.16267700  1
  O  O11  1  0.42398000  0.92428500  0.81313400  1
  O  O12  1  0.41468800  0.16267700  0.41021300  1
  O  O13  1  0.42428500  0.68686600  0.57602000  1
  O  O14  1  0.57571500  0.18686600  0.92398000  1
  O  O15  1  0.58531200  0.66267700  0.08978700  1
  O  O16  1  0.57602000  0.42428500  0.68686600  1
  O  O17  1  0.58978700  0.91468800  0.33732300  1
  O  O18  1  0.66267700  0.08978700  0.58531200  1
  O  O19  1  0.68686600  0.57602000  0.42428500  1
  O  O20  1  0.72030800  0.22030800  0.27969200  1
  O  O21  1  0.77969200  0.77969200  0.77969200  1
  O  O22  1  0.81313400  0.42398000  0.92428500  1
  O  O23  1  0.83732300  0.91021300  0.08531200  1
  O  O24  1  0.91021300  0.08531200  0.83732300  1
  O  O25  1  0.92398000  0.57571500  0.18686600  1
  O  O26  1  0.91468800  0.33732300  0.58978700  1
  O  O27  1  0.92428500  0.81313400  0.42398000  1
loop_
_geom_bond_atom_site_label_1
_geom_bond_atom_site_label_2
_geom_bond_distance
_geom_bond_site_symmetry_2
Na0 O24 2.272664 1_455
Na0 O6 2.369382 1_555
Na0 O0 2.473931 1_556
Na0 O22 2.516336 1_455
Na0 O26 2.654434 1_455
Na1 O25 2.360206 1_455
Na1 O23 2.493425 1_455
Na1 O7 2.523627 1_555
Na1 O1 2.668847 1_554
Na1 O27 2.769229 1_455
Na2 O8 2.412865 1_555
Na2 O2 2.412865 1_555
Na2 O0 2.412865 1_555
Na2 O23 2.794432 1_445
Na2 O1 2.794432 1_544
Na2 O24 2.794432 1_454
Na3 O9 2.325000 1_555
Na3 O3 2.325000 1_555
Na3 O1 2.325000 1_555
Na4 O4 2.272664 1_555
Na4 O7 2.369382 1_555
Na4 O25 2.473931 1_455
Na4 O0 2.516336 1_555
Na4 O10 2.654434 1_555
Na5 O5 2.360206 1_545
Na5 O1 2.493425 1_545
Na5 O6 2.523627 1_555
Na5 O24 2.668847 1_455
Na5 O11 2.769229 1_545
Na6 O12 2.272664 1_555
Na6 O6 2.369382 1_555
Na6 O5 2.473931 1_545
Na6 O2 2.516336 1_555
Na6 O4 2.654434 1_555
Na7 O13 2.360206 1_555
Na7 O3 2.493425 1_555
Na7 O7 2.523627 1_555
Na7 O4 2.668847 1_555
Na7 O5 2.769229 1_555
Na8 O0 2.357574 1_555
Na8 O8 2.357574 1_555
Na8 O2 2.357574 1_555
Na8 O12 2.588049 1_555
Na8 O4 2.588049 1_555
Na8 O10 2.588049 1_555
Na9 O13 2.357574 1_555
Na9 O11 2.357574 1_555
Na9 O5 2.357574 1_555
Na9 O9 2.588049 1_555
Na9 O3 2.588049 1_555
Na9 O1 2.588049 1_555
Na10 O0 2.360206 1_556
Na10 O10 2.493425 1_556
Na10 O6 2.523627 1_555
Na10 O9 2.668847 1_555
Na10 O8 2.769229 1_556
Na11 O1 2.272664 1_554
Na11 O7 2.369382 1_555
Na11 O8 2.473931 1_565
Na11 O11 2.516336 1_554
Na11 O9 2.654434 1_554
Na12 O8 2.360206 1_565
Na12 O12 2.493425 1_565
Na12 O7 2.523627 1_555
Na12 O17 2.668847 1_555
Na12 O2 2.769229 1_565
Na13 O9 2.272664 1_555
Na13 O6 2.369382 1_555
Na13 O16 2.473931 1_555
Na13 O13 2.516336 1_555
Na13 O3 2.654434 1_555
Na14 O4 2.325000 1_555
Na14 O10 2.325000 1_555
Na14 O12 2.325000 1_555
Na15 O11 2.412865 1_555
Na15 O13 2.412865 1_555
Na15 O5 2.412865 1_555
Na15 O18 2.794432 1_565
Na15 O17 2.794432 1_555
Na15 O12 2.794432 1_565
Na16 O16 2.360206 1_555
Na16 O18 2.493425 1_555
Na16 O6 2.523627 1_555
Na16 O12 2.668847 1_555
Na16 O14 2.769229 1_555
Na17 O17 2.272664 1_555
Na17 O7 2.369382 1_555
Na17 O13 2.473931 1_555
Na17 O19 2.516336 1_555
Na17 O15 2.654434 1_555
Na18 O10 2.272664 1_555
Na18 O20 2.369382 1_555
Na18 O14 2.473931 1_554
Na18 O8 2.516336 1_555
Na18 O12 2.654434 1_555
Na19 O11 2.360206 1_555
Na19 O9 2.493425 1_555
Na19 O21 2.523627 1_555
Na19 O15 2.668847 1_556
Na19 O13 2.769229 1_555
Na20 O22 2.412865 1_555
Na20 O16 2.412865 1_555
Na20 O14 2.412865 1_555
Na20 O9 2.794432 1_555
Na20 O15 2.794432 1_556
Na20 O10 2.794432 1_556
Na21 O17 2.325000 1_555
Na21 O23 2.325000 1_555
Na21 O15 2.325000 1_555
Na22 O18 2.272664 1_565
Na22 O21 2.369382 1_555
Na22 O11 2.473931 1_555
Na22 O14 2.516336 1_565
Na22 O24 2.654434 1_565
Na23 O19 2.360206 1_555
Na23 O15 2.493425 1_555
Na23 O20 2.523627 1_555
Na23 O10 2.668847 1_555
Na23 O25 2.769229 1_555
Na24 O26 2.272664 1_555
Na24 O20 2.369382 1_555
Na24 O19 2.473931 1_555
Na24 O16 2.516336 1_555
Na24 O18 2.654434 1_555
Na25 O27 2.360206 1_555
Na25 O17 2.493425 1_555
Na25 O21 2.523627 1_555
Na25 O18 2.668847 1_565
Na25 O19 2.769229 1_555
Na26 O16 2.357574 1_555
Na26 O14 2.357574 1_555
Na26 O22 2.357574 1_555
Na26 O18 2.588049 1_555
Na26 O24 2.588049 1_555
Na26 O26 2.588049 1_555
Na27 O19 2.357574 1_555
Na27 O25 2.357574 1_555
Na27 O27 2.357574 1_555
Na27 O17 2.588049 1_555
Na27 O15 2.588049 1_555
Na27 O23 2.588049 1_555
Na28 O14 2.360206 1_554
Na28 O24 2.493425 1_554
Na28 O20 2.523627 1_555
Na28 O23 2.668847 1_545
Na28 O22 2.769229 1_554
Na29 O15 2.272664 1_556
Na29 O21 2.369382 1_555
Na29 O22 2.473931 1_555
Na29 O25 2.516336 1_556
Na29 O23 2.654434 1_556
Na30 O22 2.360206 1_555
Na30 O26 2.493425 1_555
Na30 O21 2.523627 1_555
Na30 O3 2.668847 1_655
Na30 O16 2.769229 1_555
Na31 O23 2.272664 1_545
Na31 O20 2.369382 1_555
Na31 O2 2.473931 1_655
Na31 O27 2.516336 1_545
Na31 O17 2.654434 1_545
Na32 O26 2.325000 1_555
Na32 O24 2.325000 1_555
Na32 O18 2.325000 1_555
Na33 O19 2.412865 1_555
Na33 O27 2.412865 1_555
Na33 O25 2.412865 1_555
Na33 O26 2.794432 1_555
Na33 O3 2.794432 1_655
Na33 O4 2.794432 1_655
Na34 O2 2.360206 1_655
Na34 O4 2.493425 1_655
Na34 O20 2.523627 1_555
Na34 O26 2.668847 1_555
Na34 O0 2.769229 1_655
Na35 O3 2.272664 1_655
Na35 O21 2.369382 1_555
Na35 O27 2.473931 1_555
Na35 O5 2.516336 1_655
Na35 O1 2.654434 1_655
Cu0 O5 1.848483 1_555
Cu0 O2 1.848483 1_565
Cu0 O27 1.848483 1_455
Cu1 O4 1.923156 1_555
Cu1 O26 1.923156 1_455
Cu1 O3 1.923156 1_555
Cu1 O6 2.107221 1_555
Cu2 O10 1.923156 1_555
Cu2 O15 1.923156 1_555
Cu2 O9 1.923156 1_554
Cu2 O7 2.107221 1_555
Cu3 O14 1.848483 1_555
Cu3 O8 1.848483 1_556
Cu3 O11 1.848483 1_545
Cu4 O19 1.848483 1_555
Cu4 O13 1.848483 1_555
Cu4 O16 1.848483 1_555
Cu5 O12 1.923156 1_555
Cu5 O18 1.923156 1_555
Cu5 O17 1.923156 1_545
Cu5 O20 2.107221 1_555
Cu6 O23 1.923156 1_556
Cu6 O1 1.923156 1_655
Cu6 O24 1.923156 1_565
Cu6 O21 2.107221 1_555
Cu7 O0 1.848483 1_655
Cu7 O25 1.848483 1_555
Cu7 O22 1.848483 1_554
