# generated using pymatgen
data_Mn6OF11
_symmetry_space_group_name_H-M   'P 1'
_cell_length_a   16.24890000
_cell_length_b   4.94820700
_cell_length_c   7.54458580
_cell_angle_alpha   50.87882742
_cell_angle_beta   90.00000000
_cell_angle_gamma   90.00000000
_symmetry_Int_Tables_number   1
_chemical_formula_structural   Mn6OF11
_chemical_formula_sum   'Mn12 O2 F22'
_cell_volume   470.61357154
_cell_formula_units_Z   2
loop_
 _symmetry_equiv_pos_site_id
 _symmetry_equiv_pos_as_xyz
  1  'x, y, z'
loop_
 _atom_site_type_symbol
 _atom_site_label
 _atom_site_symmetry_multiplicity
 _atom_site_fract_x
 _atom_site_fract_y
 _atom_site_fract_z
 _atom_site_occupancy
  Mn  Mn0  1  0.83139700  0.82918600  0.16605100  1
  Mn  Mn1  1  0.65463000  0.14107000  0.83518200  1
  Mn  Mn2  1  0.49819200  0.84575700  0.16023300  1
  Mn  Mn3  1  0.17029800  0.81433400  0.17495100  1
  Mn  Mn4  1  0.00066200  0.17517200  0.82956700  1
  Mn  Mn5  1  0.33493100  0.17657900  0.83004300  1
  Mn  Mn6  1  0.99933800  0.17517200  0.32956700  1
  Mn  Mn7  1  0.34537000  0.14107000  0.33518200  1
  Mn  Mn8  1  0.66506900  0.17657900  0.33004300  1
  Mn  Mn9  1  0.50180800  0.84575700  0.66023300  1
  Mn  Mn10  1  0.82970200  0.81433400  0.67495100  1
  Mn  Mn11  1  0.16860300  0.82918600  0.66605100  1
  O  O0  1  0.54608300  0.89041300  0.88959200  1
  O  O1  1  0.45391700  0.89041300  0.38959200  1
  F  F0  1  0.72199400  0.66208500  0.10116500  1
  F  F1  1  0.05795800  0.66694800  0.10473500  1
  F  F2  1  0.38963700  0.66896300  0.12074600  1
  F  F3  1  0.89153700  0.87065100  0.89413600  1
  F  F4  1  0.22643900  0.88345500  0.88994300  1
  F  F5  1  0.55738800  0.35667000  0.39371300  1
  F  F6  1  0.72235600  0.12800600  0.60695700  1
  F  F7  1  0.88842200  0.33316600  0.39670600  1
  F  F8  1  0.06048000  0.13055900  0.60227100  1
  F  F9  1  0.23236900  0.32495900  0.38744300  1
  F  F10  1  0.39306700  0.10202800  0.61656400  1
  F  F11  1  0.61036300  0.66896300  0.62074600  1
  F  F12  1  0.77356100  0.88345500  0.38994300  1
  F  F13  1  0.94204200  0.66694800  0.60473500  1
  F  F14  1  0.27800600  0.66208500  0.60116500  1
  F  F15  1  0.10846300  0.87065100  0.39413600  1
  F  F16  1  0.60693300  0.10202800  0.11656400  1
  F  F17  1  0.93952000  0.13055900  0.10227100  1
  F  F18  1  0.76763100  0.32495900  0.88744300  1
  F  F19  1  0.44261200  0.35667000  0.89371300  1
  F  F20  1  0.27764400  0.12800600  0.10695700  1
  F  F21  1  0.11157800  0.33316600  0.89670600  1
loop_
_geom_bond_atom_site_label_1
_geom_bond_atom_site_label_2
_geom_bond_distance
_geom_bond_site_symmetry_2
Mn1 O0 2.043341 1_545
Mn2 O1 2.010785 1_555
Mn2 O0 2.062588 1_554
Mn7 O1 2.043341 1_545
Mn9 O0 2.010785 1_555
Mn9 O1 2.062588 1_555
F0 Mn8 2.091371 1_555
F0 Mn0 2.143424 1_555
F0 Mn1 2.200137 1_564
F1 Mn6 2.120664 1_455
F1 Mn3 2.152240 1_555
F1 Mn4 2.216441 1_564
F2 Mn2 2.072263 1_555
F2 Mn7 2.150601 1_555
F2 Mn5 2.226579 1_564
F3 Mn10 2.098403 1_555
F3 Mn0 2.162050 1_556
F3 Mn4 2.173855 1_665
F4 Mn11 2.093082 1_555
F4 Mn5 2.142093 1_565
F4 Mn3 2.155160 1_556
F5 Mn2 2.122588 1_555
F5 Mn8 2.150927 1_555
F5 Mn9 2.198912 1_545
F6 Mn1 2.078580 1_555
F6 Mn8 2.157627 1_555
F6 Mn10 2.170225 1_545
F7 Mn0 2.126290 1_555
F7 Mn6 2.148406 1_555
F7 Mn10 2.259910 1_545
F8 Mn4 2.100455 1_555
F8 Mn11 2.153249 1_545
F8 Mn6 2.166947 1_455
F9 Mn3 2.133601 1_555
F9 Mn7 2.192619 1_555
F9 Mn11 2.236701 1_545
F10 Mn9 2.076385 1_545
F10 Mn5 2.090998 1_555
F10 Mn7 2.151091 1_555
F11 Mn9 2.072263 1_555
F11 Mn1 2.150601 1_555
F11 Mn8 2.226579 1_565
F12 Mn0 2.093082 1_555
F12 Mn8 2.142093 1_565
F12 Mn10 2.155160 1_555
F13 Mn4 2.120664 1_655
F13 Mn10 2.152240 1_555
F13 Mn6 2.216441 1_565
F14 Mn5 2.091371 1_555
F14 Mn11 2.143424 1_555
F14 Mn7 2.200137 1_565
F15 Mn3 2.098403 1_555
F15 Mn11 2.162050 1_555
F15 Mn6 2.173855 1_465
F16 Mn2 2.076385 1_545
F16 Mn8 2.090998 1_555
F16 Mn1 2.151091 1_554
F17 Mn6 2.100455 1_555
F17 Mn0 2.153249 1_545
F17 Mn4 2.166947 1_654
F18 Mn10 2.133601 1_555
F18 Mn1 2.192619 1_555
F18 Mn0 2.236701 1_546
F19 Mn9 2.122588 1_555
F19 Mn5 2.150927 1_555
F19 Mn2 2.198912 1_546
F20 Mn7 2.078580 1_555
F20 Mn5 2.157627 1_554
F20 Mn3 2.170225 1_545
F21 Mn11 2.126290 1_555
F21 Mn4 2.148406 1_555
F21 Mn3 2.259910 1_546
