# generated using pymatgen
data_Li3BiS3
_symmetry_space_group_name_H-M   'P 1'
_cell_length_a   8.13921300
_cell_length_b   8.13921300
_cell_length_c   8.13921300
_cell_angle_alpha   90.00000000
_cell_angle_beta   90.00000000
_cell_angle_gamma   90.00000000
_symmetry_Int_Tables_number   1
_chemical_formula_structural   Li3BiS3
_chemical_formula_sum   'Li12 Bi4 S12'
_cell_volume   539.19672021
_cell_formula_units_Z   4
loop_
 _symmetry_equiv_pos_site_id
 _symmetry_equiv_pos_as_xyz
  1  'x, y, z'
loop_
 _atom_site_type_symbol
 _atom_site_label
 _atom_site_symmetry_multiplicity
 _atom_site_fract_x
 _atom_site_fract_y
 _atom_site_fract_z
 _atom_site_occupancy
  Li  Li0  1  0.03075500  0.96924500  0.46924500  1
  Li  Li1  1  0.17928100  0.67928100  0.82071900  1
  Li  Li2  1  0.20407700  0.29592300  0.70407700  1
  Li  Li3  1  0.29592300  0.70407700  0.20407700  1
  Li  Li4  1  0.32071900  0.32071900  0.32071900  1
  Li  Li5  1  0.46924500  0.03075500  0.96924500  1
  Li  Li6  1  0.53075500  0.53075500  0.53075500  1
  Li  Li7  1  0.67928100  0.82071900  0.17928100  1
  Li  Li8  1  0.70407700  0.20407700  0.29592300  1
  Li  Li9  1  0.79592300  0.79592300  0.79592300  1
  Li  Li10  1  0.82071900  0.17928100  0.67928100  1
  Li  Li11  1  0.96924500  0.46924500  0.03075500  1
  Bi  Bi0  1  0.07551500  0.07551500  0.07551500  1
  Bi  Bi1  1  0.42448500  0.92448500  0.57551500  1
  Bi  Bi2  1  0.57551500  0.42448500  0.92448500  1
  Bi  Bi3  1  0.92448500  0.57551500  0.42448500  1
  S  S0  1  0.99415200  0.74860800  0.12299600  1
  S  S1  1  0.12299600  0.99415200  0.74860800  1
  S  S2  1  0.25139200  0.62299600  0.50584800  1
  S  S3  1  0.24860800  0.37700400  0.00584800  1
  S  S4  1  0.37700400  0.00584800  0.24860800  1
  S  S5  1  0.50584800  0.25139200  0.62299600  1
  S  S6  1  0.49415200  0.75139200  0.87700400  1
  S  S7  1  0.62299600  0.50584800  0.25139200  1
  S  S8  1  0.75139200  0.87700400  0.49415200  1
  S  S9  1  0.74860800  0.12299600  0.99415200  1
  S  S10  1  0.87700400  0.49415200  0.75139200  1
  S  S11  1  0.00584800  0.24860800  0.37700400  1
loop_
_geom_bond_atom_site_label_1
_geom_bond_atom_site_label_2
_geom_bond_distance
_geom_bond_site_symmetry_2
Li0 S11 2.403101 1_565
Li0 S1 2.403101 1_555
Li0 S8 2.403101 1_455
Li1 S2 2.668765 1_555
Li1 S6 2.668765 1_555
Li1 S1 2.668765 1_555
Li1 S10 2.939714 1_455
Li1 S0 2.939714 1_456
Li1 S3 2.939714 1_556
Li2 S5 2.568987 1_555
Li2 S1 2.568987 1_545
Li2 S3 2.568987 1_556
Li3 S0 2.568987 1_455
Li3 S2 2.568987 1_555
Li3 S4 2.568987 1_565
Li4 S3 2.668765 1_555
Li4 S11 2.668765 1_555
Li4 S4 2.668765 1_555
Li4 S2 2.939714 1_555
Li4 S5 2.939714 1_555
Li4 S7 2.939714 1_555
Li5 S4 2.403101 1_556
Li5 S9 2.403101 1_555
Li5 S6 2.403101 1_545
Li6 S5 2.403101 1_555
Li6 S2 2.403101 1_555
Li6 S7 2.403101 1_555
Li7 S8 2.668765 1_555
Li7 S0 2.668765 1_555
Li7 S7 2.668765 1_555
Li7 S4 2.939714 1_565
Li7 S6 2.939714 1_554
Li7 S9 2.939714 1_564
Li8 S7 2.568987 1_555
Li8 S9 2.568987 1_554
Li8 S11 2.568987 1_655
Li9 S6 2.568987 1_555
Li9 S8 2.568987 1_555
Li9 S10 2.568987 1_555
Li10 S9 2.668765 1_555
Li10 S10 2.668765 1_555
Li10 S5 2.668765 1_555
Li10 S8 2.939714 1_545
Li10 S11 2.939714 1_655
Li10 S1 2.939714 1_645
Li11 S3 2.403101 1_655
Li11 S10 2.403101 1_554
Li11 S0 2.403101 1_555
Bi0 S9 2.769038 1_454
Bi0 S1 2.769038 1_544
Bi0 S0 2.769038 1_445
Bi0 S3 2.885811 1_555
Bi0 S11 2.885811 1_555
Bi0 S4 2.885811 1_555
Bi1 S8 2.769038 1_555
Bi1 S4 2.769038 1_565
Bi1 S5 2.769038 1_565
Bi1 S2 2.885811 1_555
Bi1 S6 2.885811 1_555
Bi1 S1 2.885811 1_555
Bi2 S6 2.769038 1_555
Bi2 S3 2.769038 1_556
Bi2 S7 2.769038 1_556
Bi2 S10 2.885811 1_555
Bi2 S5 2.885811 1_555
Bi2 S9 2.885811 1_555
Bi3 S10 2.769038 1_555
Bi3 S11 2.769038 1_655
Bi3 S2 2.769038 1_655
Bi3 S7 2.885811 1_555
Bi3 S8 2.885811 1_555
Bi3 S0 2.885811 1_555
