# generated using pymatgen
data_Na3CrPCO7
_symmetry_space_group_name_H-M   'P 1'
_cell_length_a   8.51870296
_cell_length_b   8.51879899
_cell_length_c   9.16144766
_cell_angle_alpha   89.07019980
_cell_angle_beta   89.06861944
_cell_angle_gamma   103.12202999
_symmetry_Int_Tables_number   1
_chemical_formula_structural   Na3CrPCO7
_chemical_formula_sum   'Na12 Cr4 P4 C4 O28'
_cell_volume   647.25743346
_cell_formula_units_Z   4
loop_
 _symmetry_equiv_pos_site_id
 _symmetry_equiv_pos_as_xyz
  1  'x, y, z'
loop_
 _atom_site_type_symbol
 _atom_site_label
 _atom_site_symmetry_multiplicity
 _atom_site_fract_x
 _atom_site_fract_y
 _atom_site_fract_z
 _atom_site_occupancy
  Na  Na0  1  0.51625200  0.26622700  0.08649700  1
  Na  Na1  1  0.01635800  0.76628200  0.08652600  1
  Na  Na2  1  0.48379100  0.73376600  0.91350300  1
  Na  Na3  1  0.98368100  0.23362900  0.91347900  1
  Na  Na4  1  0.12476300  0.12247500  0.26273100  1
  Na  Na5  1  0.62472600  0.62234700  0.26271400  1
  Na  Na6  1  0.37250400  0.87474800  0.26272300  1
  Na  Na7  1  0.87243900  0.37463100  0.26265100  1
  Na  Na8  1  0.62745800  0.12517100  0.73736100  1
  Na  Na9  1  0.12757500  0.62521900  0.73733500  1
  Na  Na10  1  0.87526200  0.87755100  0.73735000  1
  Na  Na11  1  0.37520200  0.37745000  0.73727900  1
  Cr  Cr0  1  0.25929200  0.50924400  0.35556500  1
  Cr  Cr1  1  0.74070200  0.49072600  0.64446400  1
  Cr  Cr2  1  0.75916300  0.00909900  0.35551900  1
  Cr  Cr3  1  0.24051600  0.99068500  0.64435100  1
  P  P0  1  0.46951300  0.21952500  0.41764300  1
  P  P1  1  0.96947500  0.71943400  0.41762500  1
  P  P2  1  0.53050500  0.78057900  0.58240200  1
  P  P3  1  0.03048200  0.28053500  0.58238200  1
  C  C0  1  0.73391700  0.98389300  0.05396100  1
  C  C1  1  0.23390200  0.48389700  0.05390900  1
  C  C2  1  0.26611500  0.01615800  0.94602700  1
  C  C3  1  0.76611900  0.51613000  0.94608400  1
  O  O0  1  0.24823000  0.99820800  0.08650600  1
  O  O1  1  0.74820300  0.49818000  0.08654500  1
  O  O2  1  0.75180500  0.00182200  0.91345700  1
  O  O3  1  0.25195000  0.50193100  0.91346600  1
  O  O4  1  0.83313300  0.08305500  0.13750700  1
  O  O5  1  0.33302300  0.58303100  0.13757100  1
  O  O6  1  0.16688500  0.91701200  0.86246200  1
  O  O7  1  0.66693700  0.41696300  0.86250500  1
  O  O8  1  0.62162100  0.87161100  0.11268100  1
  O  O9  1  0.12153500  0.37152700  0.11256500  1
  O  O10  1  0.37845100  0.12847900  0.88730700  1
  O  O11  1  0.87844300  0.62846000  0.88736200  1
  O  O12  1  0.32177400  0.07172800  0.43594500  1
  O  O13  1  0.82174200  0.57165400  0.43601000  1
  O  O14  1  0.67827600  0.92835100  0.56398600  1
  O  O15  1  0.17823300  0.42832100  0.56404300  1
  O  O16  1  0.47086200  0.72087500  0.43111500  1
  O  O17  1  0.97085100  0.22085500  0.43109500  1
  O  O18  1  0.52922200  0.27923600  0.56890500  1
  O  O19  1  0.02917800  0.77917900  0.56887800  1
  O  O20  1  0.41624200  0.35257700  0.32387900  1
  O  O21  1  0.91630800  0.85254800  0.32383300  1
  O  O22  1  0.60260100  0.16629000  0.32384100  1
  O  O23  1  0.10262800  0.66630400  0.32383000  1
  O  O24  1  0.39737300  0.83384500  0.67615000  1
  O  O25  1  0.89733600  0.33364600  0.67617500  1
  O  O26  1  0.58377000  0.64747600  0.67614600  1
  O  O27  1  0.08367500  0.14743400  0.67615300  1
loop_
_geom_bond_atom_site_label_1
_geom_bond_atom_site_label_2
_geom_bond_distance
_geom_bond_site_symmetry_2
Na0 O10 2.366183 1_554
Na0 O1 2.456821 1_555
Na0 O22 2.504038 1_555
Na0 O20 2.504549 1_555
Na0 O7 2.566734 1_554
Na0 O0 2.838841 1_545
Na1 O11 2.366629 1_454
Na1 O0 2.456244 1_555
Na1 O23 2.503598 1_555
Na1 O21 2.503811 1_455
Na1 O6 2.566729 1_554
Na1 O1 2.839983 1_455
Na2 O8 2.366521 1_556
Na2 O3 2.455611 1_555
Na2 O26 2.504049 1_555
Na2 O24 2.504811 1_555
Na2 O5 2.567540 1_556
Na2 O2 2.838986 1_565
Na3 O9 2.366118 1_656
Na3 O2 2.455645 1_555
Na3 O27 2.503542 1_655
Na3 O25 2.503974 1_555
Na3 O4 2.566041 1_556
Na3 O3 2.841647 1_655
Na4 O17 2.296900 1_455
Na4 O0 2.310678 1_545
Na4 O12 2.432174 1_555
Na4 O9 2.515490 1_555
Na4 O21 2.612676 1_445
Na4 O4 2.706856 1_455
Na4 O20 2.862252 1_555
Na5 O16 2.297501 1_555
Na5 O1 2.309878 1_555
Na5 O13 2.432553 1_555
Na5 O8 2.516131 1_555
Na5 O20 2.611937 1_555
Na5 O5 2.707155 1_555
Na5 O21 2.863235 1_555
Na6 O16 2.296808 1_555
Na6 O0 2.310668 1_555
Na6 O12 2.431954 1_565
Na6 O8 2.515132 1_555
Na6 O23 2.612313 1_555
Na6 O5 2.707190 1_555
Na6 O22 2.862561 1_565
Na7 O17 2.296828 1_555
Na7 O1 2.310188 1_555
Na7 O13 2.432964 1_555
Na7 O9 2.515138 1_655
Na7 O22 2.611805 1_555
Na7 O4 2.706196 1_555
Na7 O23 2.863867 1_655
Na8 O18 2.297726 1_555
Na8 O2 2.309732 1_555
Na8 O14 2.432114 1_545
Na8 O10 2.514186 1_555
Na8 O25 2.612588 1_555
Na8 O7 2.707732 1_555
Na8 O24 2.861383 1_545
Na9 O19 2.297850 1_555
Na9 O3 2.309808 1_555
Na9 O15 2.431662 1_555
Na9 O11 2.515353 1_455
Na9 O24 2.612708 1_555
Na9 O6 2.707782 1_555
Na9 O25 2.863428 1_455
Na10 O19 2.297549 1_655
Na10 O2 2.309895 1_565
Na10 O14 2.433071 1_555
Na10 O11 2.514931 1_555
Na10 O27 2.612399 1_665
Na10 O6 2.706323 1_655
Na10 O26 2.862332 1_555
Na11 O18 2.296839 1_555
Na11 O3 2.310476 1_555
Na11 O15 2.432384 1_555
Na11 O10 2.514276 1_555
Na11 O26 2.613797 1_555
Na11 O7 2.707605 1_555
Na11 O27 2.862140 1_555
Cr0 O15 2.073221 1_555
Cr0 O20 2.112634 1_555
Cr0 O23 2.113412 1_555
Cr0 O5 2.125417 1_555
Cr0 O16 2.362905 1_555
Cr1 O13 2.072991 1_555
Cr1 O26 2.113061 1_555
Cr1 O25 2.113315 1_555
Cr1 O7 2.125835 1_555
Cr1 O18 2.361761 1_555
Cr2 O14 2.072413 1_545
Cr2 O21 2.113152 1_545
Cr2 O22 2.113529 1_555
Cr2 O4 2.126312 1_555
Cr2 O17 2.364211 1_555
Cr3 O12 2.073280 1_565
Cr3 O27 2.112605 1_565
Cr3 O24 2.113321 1_555
Cr3 O6 2.126025 1_555
Cr3 O19 2.360873 1_555
C0 O8 1.292490 1_555
C0 O2 1.296209 1_564
C0 O4 1.315908 1_565
C1 O9 1.293026 1_555
C1 O3 1.295826 1_554
C1 O5 1.316019 1_555
C2 O10 1.292871 1_555
C2 O0 1.295994 1_546
C2 O6 1.316004 1_545
C3 O11 1.292863 1_555
C3 O1 1.295851 1_556
C3 O7 1.315965 1_555
O12 P0 1.569737 1_555
O13 P1 1.569677 1_555
O14 P2 1.569858 1_555
O15 P3 1.569769 1_555
O16 P2 1.538273 1_555
O17 P3 1.538190 1_655
O18 P0 1.538232 1_555
O19 P1 1.538221 1_455
O20 P0 1.563058 1_555
O21 P1 1.563200 1_555
O22 P0 1.563313 1_555
O23 P1 1.563297 1_455
O24 P2 1.563460 1_555
O25 P3 1.563165 1_655
O26 P2 1.563275 1_555
O27 P3 1.563111 1_555
