# generated using pymatgen
data_LiMnVP2(HO5)2
_symmetry_space_group_name_H-M   'P 1'
_cell_length_a   5.23822100
_cell_length_b   7.34975582
_cell_length_c   14.44064466
_cell_angle_alpha   91.90748453
_cell_angle_beta   92.85417245
_cell_angle_gamma   103.75023057
_symmetry_Int_Tables_number   1
_chemical_formula_structural   LiMnVP2(HO5)2
_chemical_formula_sum   'Li3 Mn3 V3 P6 H6 O30'
_cell_volume   538.77292536
_cell_formula_units_Z   3
loop_
 _symmetry_equiv_pos_site_id
 _symmetry_equiv_pos_as_xyz
  1  'x, y, z'
loop_
 _atom_site_type_symbol
 _atom_site_label
 _atom_site_symmetry_multiplicity
 _atom_site_fract_x
 _atom_site_fract_y
 _atom_site_fract_z
 _atom_site_occupancy
  Li  Li0  1  0.25919100  0.03533600  0.18552900  1
  Li  Li1  1  0.40668000  0.63064900  0.48040600  1
  Li  Li2  1  0.74172400  0.96279600  0.81401500  1
  Mn  Mn0  1  0.99975400  0.99971500  0.99974100  1
  Mn  Mn1  1  0.33302300  0.33301700  0.33293200  1
  Mn  Mn2  1  0.66414800  0.66331200  0.66659700  1
  V  V0  1  0.66477400  0.65998600  0.16604900  1
  V  V1  1  0.00223100  0.00559400  0.49998600  1
  V  V2  1  0.33533900  0.33855600  0.83321800  1
  P  P0  1  0.59511800  0.26543400  0.04145100  1
  P  P1  1  0.74105900  0.05888800  0.29105900  1
  P  P2  1  0.92507200  0.60651900  0.37517400  1
  P  P3  1  0.07092200  0.39928900  0.62447700  1
  P  P4  1  0.25923700  0.93972300  0.70808700  1
  P  P5  1  0.40411600  0.73315900  0.95817600  1
  H  H0  1  0.10238500  0.74702300  0.09472700  1
  H  H1  1  0.21483800  0.56447900  0.23105900  1
  H  H2  1  0.45152700  0.10243500  0.43588700  1
  H  H3  1  0.56250000  0.91647800  0.57206300  1
  H  H4  1  0.78386600  0.43268600  0.76883100  1
  H  H5  1  0.89686200  0.25224500  0.90500000  1
  O  O0  1  0.77108600  0.12892700  0.05898200  1
  O  O1  1  0.32144100  0.18484700  0.07405100  1
  O  O2  1  0.40563300  0.68845400  0.06351600  1
  O  O3  1  0.72593100  0.45227500  0.09974800  1
  O  O4  1  0.02009200  0.12880300  0.26213700  1
  O  O5  1  0.97713200  0.82530700  0.10886000  1
  O  O6  1  0.56920700  0.20009600  0.27288900  1
  O  O7  1  0.36769700  0.50661600  0.22945200  1
  O  O8  1  0.73532100  0.01620400  0.39712600  1
  O  O9  1  0.59332600  0.88011700  0.23054100  1
  O  O10  1  0.93051400  0.64915200  0.26946700  1
  O  O11  1  0.29763200  0.15922800  0.43673900  1
  O  O12  1  0.09719100  0.46567000  0.39346900  1
  O  O13  1  0.64609900  0.53657000  0.40447800  1
  O  O14  1  0.07285200  0.78559600  0.43602800  1
  O  O15  1  0.93709400  0.21201800  0.56680000  1
  O  O16  1  0.34346200  0.47889200  0.59079700  1
  O  O17  1  0.89979000  0.53911400  0.60825700  1
  O  O18  1  0.68744600  0.83742100  0.55814800  1
  O  O19  1  0.07471700  0.35350300  0.72966000  1
  O  O20  1  0.40504200  0.11762600  0.76943900  1
  O  O21  1  0.26799200  0.98194600  0.60225800  1
  O  O22  1  0.63024500  0.48936600  0.77042100  1
  O  O23  1  0.43325400  0.79949100  0.72697200  1
  O  O24  1  0.02141900  0.17369200  0.89055900  1
  O  O25  1  0.97856900  0.87028900  0.73594800  1
  O  O26  1  0.27366600  0.54650500  0.90005500  1
  O  O27  1  0.59365800  0.31044300  0.93630500  1
  O  O28  1  0.67824700  0.81417200  0.92581900  1
  O  O29  1  0.22853800  0.87004300  0.94084700  1
loop_
_geom_bond_atom_site_label_1
_geom_bond_atom_site_label_2
_geom_bond_distance
_geom_bond_site_symmetry_2
Li0 O4 1.939275 1_555
Li0 O1 1.976119 1_555
Li0 O5 2.104933 1_445
Li0 O6 2.110560 1_555
Li0 O9 2.381746 1_545
Li1 O13 1.936973 1_555
Li1 O16 1.972382 1_555
Li1 O18 2.095799 1_555
Li1 O12 2.106199 1_555
Li1 O14 2.376782 1_555
Li2 O25 1.939489 1_555
Li2 O28 1.977037 1_555
Li2 O23 2.099240 1_555
Li2 O24 2.101432 1_665
Li2 O20 2.389438 1_565
Mn0 O0 1.912384 1_566
Mn0 O29 1.912676 1_655
Mn0 O24 2.053490 1_665
Mn0 O5 2.054516 1_556
Mn0 O28 2.113703 1_555
Mn0 O1 2.115456 1_666
Mn1 O6 1.965154 1_555
Mn1 O12 1.965758 1_555
Mn1 O7 1.984367 1_555
Mn1 O11 1.988863 1_555
Mn1 O4 2.132200 1_555
Mn1 O13 2.134748 1_555
Mn2 O17 1.911702 1_555
Mn2 O23 1.961405 1_555
Mn2 O22 1.989986 1_555
Mn2 O18 2.045290 1_555
Mn2 O16 2.119647 1_555
Mn2 O25 2.138454 1_555
H0 O5 0.994056 1_455
H1 O7 0.992778 1_555
H2 O11 0.992396 1_555
H3 O18 0.996227 1_555
H4 O22 0.991048 1_555
H5 O24 0.993541 1_655
O0 P0 1.534153 1_555
O1 P0 1.519774 1_555
O2 P5 1.566944 1_554
O2 V0 2.008532 1_555
O3 P0 1.575528 1_555
O3 V0 1.874997 1_555
O4 P1 1.514233 1_455
O5 V0 2.022829 1_555
O6 P1 1.547599 1_555
O7 V0 1.976681 1_555
O8 P1 1.573990 1_555
O8 V1 2.004966 1_655
O9 P1 1.569022 1_565
O9 V0 1.961450 1_555
O10 P2 1.568776 1_555
O10 V0 2.006965 1_555
O11 V1 1.970370 1_555
O12 P2 1.546771 1_455
O13 P2 1.515838 1_555
O14 P2 1.573118 1_455
O14 V1 1.955326 1_565
O15 P3 1.576851 1_655
O15 V1 1.878974 1_655
O16 P3 1.519206 1_555
O17 P3 1.532195 1_655
O18 V1 2.047015 1_665
O19 P3 1.566821 1_555
O19 V2 1.997773 1_555
O20 P4 1.568019 1_545
O20 V2 1.958063 1_555
O21 P4 1.570257 1_555
O21 V1 2.019086 1_565
O22 V2 1.956969 1_555
O23 P4 1.551816 1_555
O24 V2 2.028073 1_555
O25 P4 1.516476 1_655
O26 P5 1.572886 1_555
O26 V2 1.881333 1_555
O27 P0 1.564749 1_556
O27 V2 2.010597 1_555
O28 P5 1.521094 1_555
O29 P5 1.534395 1_555
