# generated using pymatgen
data_LiV(PO3)4
_symmetry_space_group_name_H-M   'P 1'
_cell_length_a   10.43586336
_cell_length_b   10.43586336
_cell_length_c   5.07085679
_cell_angle_alpha   77.71708778
_cell_angle_beta   77.71708778
_cell_angle_gamma   67.97878643
_symmetry_Int_Tables_number   1
_chemical_formula_structural   LiV(PO3)4
_chemical_formula_sum   'Li2 V2 P8 O24'
_cell_volume   494.82480054
_cell_formula_units_Z   2
loop_
 _symmetry_equiv_pos_site_id
 _symmetry_equiv_pos_as_xyz
  1  'x, y, z'
loop_
 _atom_site_type_symbol
 _atom_site_label
 _atom_site_symmetry_multiplicity
 _atom_site_fract_x
 _atom_site_fract_y
 _atom_site_fract_z
 _atom_site_occupancy
  Li  Li0  1  0.50000000  0.00000000  0.00000000  1
  Li  Li1  1  0.00000000  0.50000000  0.00000000  1
  V  V0  1  0.35326600  0.35326600  0.68022700  1
  V  V1  1  0.64673400  0.64673400  0.31977300  1
  P  P0  1  0.40885300  0.76312600  0.84672100  1
  P  P1  1  0.76312600  0.40885300  0.84672100  1
  P  P2  1  0.93158800  0.69354500  0.43813300  1
  P  P3  1  0.69354500  0.93158800  0.43813300  1
  P  P4  1  0.06841200  0.30645500  0.56186700  1
  P  P5  1  0.30645500  0.06841200  0.56186700  1
  P  P6  1  0.23687400  0.59114700  0.15327900  1
  P  P7  1  0.59114700  0.23687400  0.15327900  1
  O  O0  1  0.72732700  0.27267300  0.00000000  1
  O  O1  1  0.27267300  0.72732700  0.00000000  1
  O  O2  1  0.65961900  0.95368500  0.72626700  1
  O  O3  1  0.95368500  0.65961900  0.72626700  1
  O  O4  1  0.25772600  0.49406300  0.95501700  1
  O  O5  1  0.49406300  0.25772600  0.95501700  1
  O  O6  1  0.46610600  0.69068300  0.59908000  1
  O  O7  1  0.69068300  0.46610600  0.59908000  1
  O  O8  1  0.33279800  0.92755000  0.77654700  1
  O  O9  1  0.92755000  0.33279800  0.77654700  1
  O  O10  1  0.86041800  0.86041800  0.35122900  1
  O  O11  1  0.15015800  0.37870700  0.65706700  1
  O  O12  1  0.37870700  0.15015800  0.65706700  1
  O  O13  1  0.62129300  0.84984200  0.34293300  1
  O  O14  1  0.84984200  0.62129300  0.34293300  1
  O  O15  1  0.13958200  0.13958200  0.64877100  1
  O  O16  1  0.66720200  0.07245000  0.22345300  1
  O  O17  1  0.07245000  0.66720200  0.22345300  1
  O  O18  1  0.30931700  0.53389400  0.40092000  1
  O  O19  1  0.53389400  0.30931700  0.40092000  1
  O  O20  1  0.50593700  0.74227400  0.04498300  1
  O  O21  1  0.74227400  0.50593700  0.04498300  1
  O  O22  1  0.04631500  0.34038100  0.27373300  1
  O  O23  1  0.34038100  0.04631500  0.27373300  1
loop_
_geom_bond_atom_site_label_1
_geom_bond_atom_site_label_2
_geom_bond_distance
_geom_bond_site_symmetry_2
Li0 O23 1.906043 1_555
Li0 O2 1.906043 1_544
Li0 O13 2.317646 1_545
Li0 O12 2.317646 1_554
Li1 O22 1.906043 1_555
Li1 O3 1.906043 1_454
Li1 O14 2.317646 1_455
Li1 O11 2.317646 1_554
O0 P1 1.602497 1_554
O0 P7 1.602497 1_555
O1 P0 1.602497 1_554
O1 P6 1.602497 1_555
O2 P3 1.474901 1_555
O3 P2 1.474901 1_555
O4 P6 1.503181 1_556
O4 V0 2.067869 1_555
O5 P7 1.503181 1_556
O5 V0 2.067869 1_555
O6 P0 1.500470 1_555
O6 V1 2.064393 1_555
O7 P1 1.500470 1_555
O7 V1 2.064393 1_555
O8 P0 1.593736 1_555
O8 P5 1.601561 1_565
O9 P1 1.593736 1_555
O9 P4 1.601561 1_655
O10 P3 1.619052 1_555
O10 P2 1.619052 1_555
O11 P4 1.530294 1_555
O11 V0 2.060984 1_555
O12 P5 1.530294 1_555
O12 V0 2.060984 1_555
O13 P3 1.530294 1_555
O13 V1 2.060984 1_555
O14 P2 1.530294 1_555
O14 V1 2.060984 1_555
O15 P4 1.619052 1_555
O15 P5 1.619052 1_555
O16 P7 1.593736 1_555
O16 P3 1.601561 1_545
O17 P6 1.593736 1_555
O17 P2 1.601561 1_455
O18 P6 1.500470 1_555
O18 V0 2.064393 1_555
O19 P7 1.500470 1_555
O19 V0 2.064393 1_555
O20 P0 1.503181 1_554
O20 V1 2.067869 1_555
O21 P1 1.503181 1_554
O21 V1 2.067869 1_555
O22 P4 1.474901 1_555
O23 P5 1.474901 1_555
