# generated using pymatgen
data_V3O5F
_symmetry_space_group_name_H-M   'P 1'
_cell_length_a   4.65595379
_cell_length_b   4.65595379
_cell_length_c   8.98578782
_cell_angle_alpha   89.81693443
_cell_angle_beta   89.81693443
_cell_angle_gamma   87.44550420
_symmetry_Int_Tables_number   1
_chemical_formula_structural   V3O5F
_chemical_formula_sum   'V6 O10 F2'
_cell_volume   194.59758941
_cell_formula_units_Z   2
loop_
 _symmetry_equiv_pos_site_id
 _symmetry_equiv_pos_as_xyz
  1  'x, y, z'
loop_
 _atom_site_type_symbol
 _atom_site_label
 _atom_site_symmetry_multiplicity
 _atom_site_fract_x
 _atom_site_fract_y
 _atom_site_fract_z
 _atom_site_occupancy
  V  V0  1  0.99049200  0.99049200  0.84891900  1
  V  V1  1  0.00950800  0.00950800  0.15108100  1
  V  V2  1  0.00000000  0.00000000  0.50000000  1
  V  V3  1  0.50000000  0.50000000  0.00000000  1
  V  V4  1  0.53994600  0.53994600  0.66715500  1
  V  V5  1  0.46005400  0.46005400  0.33284500  1
  O  O0  1  0.79446100  0.79446100  0.99761000  1
  O  O1  1  0.80609400  0.80609400  0.67181300  1
  O  O2  1  0.69935900  0.30760200  0.83347200  1
  O  O3  1  0.69239800  0.30064100  0.16652800  1
  O  O4  1  0.69232800  0.30767200  0.50000000  1
  O  O5  1  0.30760200  0.69935900  0.83347200  1
  O  O6  1  0.30064100  0.69239800  0.16652800  1
  O  O7  1  0.30767200  0.69232800  0.50000000  1
  O  O8  1  0.20553900  0.20553900  0.00239000  1
  O  O9  1  0.19390600  0.19390600  0.32818700  1
  F  F0  1  0.80130600  0.80130600  0.32774600  1
  F  F1  1  0.19869400  0.19869400  0.67225400  1
loop_
_geom_bond_atom_site_label_1
_geom_bond_atom_site_label_2
_geom_bond_distance
_geom_bond_site_symmetry_2
O0 V0 1.873482 1_555
O0 V3 1.981640 1_556
O0 V1 2.003449 1_666
O1 V4 1.791756 1_555
O1 V2 2.017065 1_665
O1 V0 2.022387 1_555
O2 V3 1.956721 1_556
O2 V0 1.964192 1_545
O2 V4 1.969728 1_555
O3 V3 1.956721 1_555
O3 V1 1.964192 1_655
O3 V5 1.969728 1_555
O4 V4 1.965745 1_555
O4 V5 1.965745 1_555
O4 V2 1.980210 1_655
O5 V3 1.956721 1_556
O5 V0 1.964192 1_455
O5 V4 1.969728 1_555
O6 V3 1.956721 1_555
O6 V1 1.964192 1_565
O6 V5 1.969728 1_555
O7 V4 1.965745 1_555
O7 V5 1.965745 1_555
O7 V2 1.980210 1_565
O8 V1 1.873482 1_555
O8 V3 1.981640 1_555
O8 V0 2.003449 1_444
O9 V5 1.791756 1_555
O9 V2 2.017065 1_555
O9 V1 2.022387 1_555
F0 V2 2.049890 1_665
F0 V1 2.112714 1_665
F0 V5 2.296760 1_555
F1 V2 2.049890 1_555
F1 V0 2.112714 1_445
F1 V4 2.296760 1_555
