# generated using pymatgen
data_FeOF
_symmetry_space_group_name_H-M   'P 1'
_cell_length_a   4.77401800
_cell_length_b   4.77720100
_cell_length_c   9.21509200
_cell_angle_alpha   90.00000000
_cell_angle_beta   90.00000000
_cell_angle_gamma   90.00000000
_symmetry_Int_Tables_number   1
_chemical_formula_structural   FeOF
_chemical_formula_sum   'Fe6 O6 F6'
_cell_volume   210.16347563
_cell_formula_units_Z   6
loop_
 _symmetry_equiv_pos_site_id
 _symmetry_equiv_pos_as_xyz
  1  'x, y, z'
loop_
 _atom_site_type_symbol
 _atom_site_label
 _atom_site_symmetry_multiplicity
 _atom_site_fract_x
 _atom_site_fract_y
 _atom_site_fract_z
 _atom_site_occupancy
  Fe  Fe0  1  0.97256500  0.72005300  0.66753200  1
  Fe  Fe1  1  0.97256500  0.72005300  0.33246800  1
  Fe  Fe2  1  0.05627900  0.77046500  0.00000000  1
  Fe  Fe3  1  0.55627900  0.22953500  0.50000000  1
  Fe  Fe4  1  0.47256500  0.27994700  0.83246800  1
  Fe  Fe5  1  0.47256500  0.27994700  0.16753200  1
  O  O0  1  0.19063100  0.57158200  0.16972600  1
  O  O1  1  0.19063100  0.57158200  0.83027400  1
  O  O2  1  0.31570200  0.08075100  0.00000000  1
  O  O3  1  0.69063100  0.42841800  0.66972600  1
  O  O4  1  0.69063100  0.42841800  0.33027400  1
  O  O5  1  0.81570200  0.91924900  0.50000000  1
  F  F0  1  0.19751800  0.52989500  0.50000000  1
  F  F1  1  0.30203400  0.04683700  0.66409900  1
  F  F2  1  0.30203400  0.04683700  0.33590100  1
  F  F3  1  0.69751800  0.47010500  0.00000000  1
  F  F4  1  0.80203400  0.95316300  0.83590100  1
  F  F5  1  0.80203400  0.95316300  0.16409900  1
loop_
_geom_bond_atom_site_label_1
_geom_bond_atom_site_label_2
_geom_bond_distance
_geom_bond_site_symmetry_2
Fe0 O3 1.937270 1_555
Fe0 O1 1.958547 1_655
Fe0 O5 1.962073 1_555
Fe1 O4 1.937270 1_555
Fe1 O0 1.958547 1_655
Fe1 O5 1.962073 1_555
Fe2 O2 1.931597 1_565
Fe2 O0 1.939153 1_555
Fe2 O1 1.939153 1_554
Fe3 O5 1.931597 1_545
Fe3 O4 1.939153 1_555
Fe3 O3 1.939153 1_555
Fe4 O1 1.937270 1_555
Fe4 O3 1.958547 1_555
Fe4 O2 1.962073 1_556
Fe5 O0 1.937270 1_555
Fe5 O4 1.958547 1_555
Fe5 O2 1.962073 1_555
F0 Fe0 2.088527 1_455
F0 Fe1 2.088527 1_455
F0 Fe3 2.234352 1_555
F1 Fe4 2.076099 1_555
F1 Fe3 2.126430 1_555
F1 Fe0 2.216317 1_445
F2 Fe5 2.076099 1_555
F2 Fe3 2.126430 1_555
F2 Fe1 2.216317 1_445
F3 Fe5 2.088527 1_555
F3 Fe4 2.088527 1_554
F3 Fe2 2.234352 1_655
F4 Fe0 2.076099 1_555
F4 Fe2 2.126430 1_656
F4 Fe4 2.216317 1_565
F5 Fe1 2.076099 1_555
F5 Fe2 2.126430 1_655
F5 Fe5 2.216317 1_565
