# generated using pymatgen
data_Li2VFe3O8
_symmetry_space_group_name_H-M   'P 1'
_cell_length_a   5.98205891
_cell_length_b   5.98205891
_cell_length_c   5.98205938
_cell_angle_alpha   60.29197677
_cell_angle_beta   60.29197677
_cell_angle_gamma   60.29198061
_symmetry_Int_Tables_number   1
_chemical_formula_structural   Li2VFe3O8
_chemical_formula_sum   'Li2 V1 Fe3 O8'
_cell_volume   152.36923545
_cell_formula_units_Z   1
loop_
 _symmetry_equiv_pos_site_id
 _symmetry_equiv_pos_as_xyz
  1  'x, y, z'
loop_
 _atom_site_type_symbol
 _atom_site_label
 _atom_site_symmetry_multiplicity
 _atom_site_fract_x
 _atom_site_fract_y
 _atom_site_fract_z
 _atom_site_occupancy
  Li  Li0  1  0.12976100  0.12976100  0.12976100  1
  Li  Li1  1  0.87023900  0.87023900  0.87023900  1
  V  V0  1  0.50000000  0.50000000  0.50000000  1
  Fe  Fe0  1  0.50000000  0.00000000  0.50000000  1
  Fe  Fe1  1  0.00000000  0.50000000  0.50000000  1
  Fe  Fe2  1  0.50000000  0.50000000  0.00000000  1
  O  O0  1  0.26447200  0.26447200  0.26447200  1
  O  O1  1  0.27234600  0.27234600  0.71464600  1
  O  O2  1  0.71464600  0.27234600  0.27234600  1
  O  O3  1  0.27234600  0.71464600  0.27234600  1
  O  O4  1  0.72765400  0.28535400  0.72765400  1
  O  O5  1  0.28535400  0.72765400  0.72765400  1
  O  O6  1  0.72765400  0.72765400  0.28535400  1
  O  O7  1  0.73552800  0.73552800  0.73552800  1
loop_
_geom_bond_atom_site_label_1
_geom_bond_atom_site_label_2
_geom_bond_distance
_geom_bond_site_symmetry_2
Li0 O0 1.969552 1_555
Li0 O3 2.035661 1_545
Li0 O2 2.035661 1_455
Li0 O1 2.035661 1_554
Li1 O7 1.969552 1_555
Li1 O5 2.035661 1_655
Li1 O4 2.035661 1_565
Li1 O6 2.035661 1_556
Fe0 O7 2.005512 1_545
Fe0 O0 2.005512 1_555
Fe0 O2 2.073343 1_555
Fe0 O5 2.073343 1_545
Fe0 O1 2.073344 1_555
Fe0 O6 2.073344 1_545
Fe1 O7 2.005512 1_455
Fe1 O0 2.005512 1_555
Fe1 O3 2.073343 1_555
Fe1 O4 2.073343 1_455
Fe1 O1 2.073344 1_555
Fe1 O6 2.073344 1_455
Fe2 O7 2.005511 1_554
Fe2 O0 2.005511 1_555
Fe2 O3 2.073344 1_555
Fe2 O2 2.073344 1_555
Fe2 O5 2.073344 1_554
Fe2 O4 2.073344 1_554
O1 V0 1.931266 1_555
O2 V0 1.931266 1_555
O3 V0 1.931266 1_555
O4 V0 1.931266 1_555
O5 V0 1.931266 1_555
O6 V0 1.931266 1_555
