# generated using pymatgen
data_K3TbSi3(HO5)2
_symmetry_space_group_name_H-M   'P 1'
_cell_length_a   5.88982397
_cell_length_b   13.21035859
_cell_length_c   13.48040118
_cell_angle_alpha   90.00000000
_cell_angle_beta   90.00000000
_cell_angle_gamma   90.00000000
_symmetry_Int_Tables_number   1
_chemical_formula_structural   K3TbSi3(HO5)2
_chemical_formula_sum   'K12 Tb4 Si12 H8 O40'
_cell_volume   1048.86535087
_cell_formula_units_Z   4
loop_
 _symmetry_equiv_pos_site_id
 _symmetry_equiv_pos_as_xyz
  1  'x, y, z'
loop_
 _atom_site_type_symbol
 _atom_site_label
 _atom_site_symmetry_multiplicity
 _atom_site_fract_x
 _atom_site_fract_y
 _atom_site_fract_z
 _atom_site_occupancy
  K  K0  1  0.42361129  0.12831076  0.75000000  1
  K  K1  1  0.08646073  0.13812179  0.51643802  1
  K  K2  1  0.08646073  0.13812179  0.98356198  1
  K  K3  1  0.58646073  0.36187821  0.48356198  1
  K  K4  1  0.58646073  0.36187821  0.01643802  1
  K  K5  1  0.92361129  0.37168924  0.25000000  1
  K  K6  1  0.07638871  0.62831076  0.75000000  1
  K  K7  1  0.41353927  0.63812179  0.51643802  1
  K  K8  1  0.41353927  0.63812179  0.98356198  1
  K  K9  1  0.91353927  0.86187821  0.01643802  1
  K  K10  1  0.91353927  0.86187821  0.48356198  1
  K  K11  1  0.57638871  0.87168924  0.25000000  1
  Tb  Tb0  1  0.08368354  0.04023578  0.25000000  1
  Tb  Tb1  1  0.58368354  0.45976422  0.75000000  1
  Tb  Tb2  1  0.41631646  0.54023578  0.25000000  1
  Tb  Tb3  1  0.91631646  0.95976422  0.75000000  1
  Si  Si0  1  0.58688616  0.09804858  0.10165650  1
  Si  Si1  1  0.58688616  0.09804858  0.39834350  1
  Si  Si2  1  0.91888107  0.24864996  0.75000000  1
  Si  Si3  1  0.41888107  0.25135004  0.25000000  1
  Si  Si4  1  0.08688616  0.40195142  0.60165650  1
  Si  Si5  1  0.08688616  0.40195142  0.89834350  1
  Si  Si6  1  0.91311384  0.59804858  0.10165650  1
  Si  Si7  1  0.91311384  0.59804858  0.39834350  1
  Si  Si8  1  0.58111893  0.74864996  0.75000000  1
  Si  Si9  1  0.08111893  0.75135004  0.25000000  1
  Si  Si10  1  0.41311384  0.90195142  0.60165650  1
  Si  Si11  1  0.41311384  0.90195142  0.89834350  1
  H  H0  1  0.61150571  0.07127076  0.56327104  1
  H  H1  1  0.61150571  0.07127076  0.93672896  1
  H  H2  1  0.11150571  0.42872924  0.06327104  1
  H  H3  1  0.11150571  0.42872924  0.43672896  1
  H  H4  1  0.88849429  0.57127076  0.93672896  1
  H  H5  1  0.88849429  0.57127076  0.56327104  1
  H  H6  1  0.38849429  0.92872924  0.06327104  1
  H  H7  1  0.38849429  0.92872924  0.43672896  1
  O  O0  1  0.36640617  0.03042736  0.12914357  1
  O  O1  1  0.36640617  0.03042736  0.37085643  1
  O  O2  1  0.82180907  0.04237588  0.12768002  1
  O  O3  1  0.82180907  0.04237588  0.37231998  1
  O  O4  1  0.93174105  0.12800355  0.75000000  1
  O  O5  1  0.58435898  0.13067078  0.51798957  1
  O  O6  1  0.58435898  0.13067078  0.98201043  1
  O  O7  1  0.16899945  0.20454579  0.25000000  1
  O  O8  1  0.56753166  0.21093219  0.15309851  1
  O  O9  1  0.56753166  0.21093219  0.34690149  1
  O  O10  1  0.06753166  0.28906781  0.65309851  1
  O  O11  1  0.06753166  0.28906781  0.84690149  1
  O  O12  1  0.66899945  0.29545421  0.75000000  1
  O  O13  1  0.08435898  0.36932922  0.48201043  1
  O  O14  1  0.08435898  0.36932922  0.01798957  1
  O  O15  1  0.43174105  0.37199645  0.25000000  1
  O  O16  1  0.32180907  0.45762412  0.62768002  1
  O  O17  1  0.32180907  0.45762412  0.87231998  1
  O  O18  1  0.86640617  0.46957264  0.62914357  1
  O  O19  1  0.86640617  0.46957264  0.87085643  1
  O  O20  1  0.13359383  0.53042736  0.12914357  1
  O  O21  1  0.13359383  0.53042736  0.37085643  1
  O  O22  1  0.67819093  0.54237588  0.12768002  1
  O  O23  1  0.67819093  0.54237588  0.37231998  1
  O  O24  1  0.56825895  0.62800355  0.75000000  1
  O  O25  1  0.91564102  0.63067078  0.98201043  1
  O  O26  1  0.91564102  0.63067078  0.51798957  1
  O  O27  1  0.33100055  0.70454579  0.25000000  1
  O  O28  1  0.93246834  0.71093219  0.15309851  1
  O  O29  1  0.93246834  0.71093219  0.34690149  1
  O  O30  1  0.43246834  0.78906781  0.65309851  1
  O  O31  1  0.43246834  0.78906781  0.84690149  1
  O  O32  1  0.83100055  0.79545421  0.75000000  1
  O  O33  1  0.41564102  0.86932922  0.01798957  1
  O  O34  1  0.41564102  0.86932922  0.48201043  1
  O  O35  1  0.06825895  0.87199645  0.25000000  1
  O  O36  1  0.17819093  0.95762412  0.62768002  1
  O  O37  1  0.17819093  0.95762412  0.87231998  1
  O  O38  1  0.63359383  0.96957264  0.62914357  1
  O  O39  1  0.63359383  0.96957264  0.87085643  1
loop_
_geom_bond_atom_site_label_1
_geom_bond_atom_site_label_2
_geom_bond_distance
_geom_bond_site_symmetry_2
K0 O12 2.638986 1_555
K0 O4 2.897032 1_455
K0 O39 2.929369 1_545
K0 O38 2.929369 1_545
K0 O4 2.992798 1_555
K0 O37 3.145255 1_545
K0 O36 3.145255 1_545
K0 O10 3.258022 1_555
K0 O11 3.258022 1_555
K1 O10 2.717078 1_555
K1 O3 2.793541 1_455
K1 O36 2.868136 1_545
K1 O1 2.931563 1_555
K1 O5 2.934259 1_555
K1 O5 2.959002 1_455
K1 O13 3.089416 1_555
K1 O4 3.280456 1_455
K2 O11 2.717078 1_555
K2 O2 2.793541 1_456
K2 O37 2.868136 1_545
K2 O0 2.931563 1_556
K2 O6 2.934259 1_555
K2 O6 2.959002 1_455
K2 O14 3.089416 1_556
K2 O4 3.280456 1_455
K3 O9 2.717078 1_555
K3 O16 2.793541 1_555
K3 O23 2.868136 1_555
K3 O18 2.931563 1_555
K3 O13 2.934259 1_655
K3 O13 2.959002 1_555
K3 O5 3.089416 1_555
K3 O15 3.280456 1_555
K4 O8 2.717078 1_555
K4 O17 2.793541 1_554
K4 O22 2.868136 1_555
K4 O19 2.931563 1_554
K4 O14 2.934259 1_655
K4 O14 2.959002 1_555
K4 O6 3.089416 1_554
K4 O15 3.280456 1_555
K5 O7 2.638986 1_655
K5 O15 2.897032 1_555
K5 O20 2.929369 1_655
K5 O21 2.929369 1_655
K5 O15 2.992798 1_655
K5 O22 3.145255 1_555
K5 O23 3.145255 1_555
K5 O8 3.258022 1_555
K5 O9 3.258022 1_555
K6 O32 2.638986 1_455
K6 O24 2.897032 1_555
K6 O19 2.929369 1_455
K6 O18 2.929369 1_455
K6 O24 2.992798 1_455
K6 O17 3.145255 1_555
K6 O16 3.145255 1_555
K6 O31 3.258022 1_555
K6 O30 3.258022 1_555
K7 O30 2.717078 1_555
K7 O23 2.793541 1_555
K7 O16 2.868136 1_555
K7 O21 2.931563 1_555
K7 O26 2.934259 1_455
K7 O26 2.959002 1_555
K7 O34 3.089416 1_555
K7 O24 3.280456 1_555
K8 O31 2.717078 1_555
K8 O22 2.793541 1_556
K8 O17 2.868136 1_555
K8 O20 2.931563 1_556
K8 O25 2.934259 1_455
K8 O25 2.959002 1_555
K8 O33 3.089416 1_556
K8 O24 3.280456 1_555
K9 O28 2.717078 1_555
K9 O37 2.793541 1_654
K9 O2 2.868136 1_565
K9 O39 2.931563 1_554
K9 O33 2.934259 1_555
K9 O33 2.959002 1_655
K9 O25 3.089416 1_554
K9 O35 3.280456 1_655
K10 O29 2.717078 1_555
K10 O36 2.793541 1_655
K10 O3 2.868136 1_565
K10 O38 2.931563 1_555
K10 O34 2.934259 1_555
K10 O34 2.959002 1_655
K10 O26 3.089416 1_555
K10 O35 3.280456 1_655
K11 O27 2.638986 1_555
K11 O35 2.897032 1_655
K11 O0 2.929369 1_565
K11 O1 2.929369 1_565
K11 O35 2.992798 1_555
K11 O3 3.145255 1_565
K11 O2 3.145255 1_565
K11 O28 3.258022 1_555
K11 O29 3.258022 1_555
H0 O5 1.006933 1_555
H0 O38 1.615660 1_545
H0 K0 2.851087 1_555
H0 K1 3.000657 1_655
H1 O6 1.006933 1_555
H1 O39 1.615660 1_545
H1 K0 2.851087 1_555
H1 K2 3.000657 1_655
H2 O14 1.006933 1_555
H2 O20 1.615660 1_555
H2 K5 2.851087 1_455
H2 K4 3.000657 1_555
H3 O13 1.006933 1_555
H3 O21 1.615660 1_555
H3 K5 2.851087 1_455
H3 K3 3.000657 1_555
H4 O25 1.006933 1_555
H4 O19 1.615660 1_555
H4 K6 2.851087 1_655
H4 K8 3.000657 1_555
H5 O26 1.006933 1_555
H5 O18 1.615660 1_555
H5 K6 2.851087 1_655
H5 K7 3.000657 1_555
H6 O33 1.006933 1_555
H6 O0 1.615660 1_565
H6 K11 2.851087 1_555
H6 K9 3.000657 1_455
H7 O34 1.006933 1_555
H7 O1 1.615660 1_565
H7 K11 2.851087 1_555
H7 K10 3.000657 1_455
O0 Si0 1.619140 1_555
O0 Tb0 2.333218 1_555
O1 Si1 1.619140 1_555
O1 Tb0 2.333218 1_555
O2 Si0 1.605759 1_555
O2 Tb0 2.258036 1_655
O3 Si1 1.605759 1_555
O3 Tb0 2.258036 1_655
O4 Si2 1.595581 1_555
O4 Tb3 2.224358 1_545
O5 Si1 1.669525 1_555
O6 Si0 1.669525 1_556
O7 Si3 1.596361 1_555
O7 Tb0 2.227999 1_555
O8 Si0 1.648531 1_555
O8 Si3 1.660715 1_555
O9 Si1 1.648531 1_555
O9 Si3 1.660715 1_555
O10 Si4 1.648531 1_555
O10 Si2 1.660715 1_455
O11 Si5 1.648531 1_555
O11 Si2 1.660715 1_455
O12 Si2 1.596361 1_555
O12 Tb1 2.227999 1_555
O13 Si4 1.669525 1_555
O14 Si5 1.669525 1_554
O15 Si3 1.595581 1_555
O15 Tb2 2.224358 1_555
O16 Si4 1.605759 1_555
O16 Tb1 2.258036 1_555
O17 Si5 1.605759 1_555
O17 Tb1 2.258036 1_555
O18 Si4 1.619140 1_655
O18 Tb1 2.333218 1_555
O19 Si5 1.619140 1_655
O19 Tb1 2.333218 1_555
O20 Si6 1.619140 1_455
O20 Tb2 2.333218 1_555
O21 Si7 1.619140 1_455
O21 Tb2 2.333218 1_555
O22 Si6 1.605759 1_555
O22 Tb2 2.258036 1_555
O23 Si7 1.605759 1_555
O23 Tb2 2.258036 1_555
O24 Si8 1.595581 1_555
O24 Tb1 2.224358 1_555
O25 Si6 1.669525 1_556
O26 Si7 1.669525 1_555
O27 Si9 1.596361 1_555
O27 Tb2 2.227999 1_555
O28 Si6 1.648531 1_555
O28 Si9 1.660715 1_655
O29 Si7 1.648531 1_555
O29 Si9 1.660715 1_655
O30 Si10 1.648531 1_555
O30 Si8 1.660715 1_555
O31 Si11 1.648531 1_555
O31 Si8 1.660715 1_555
O32 Si8 1.596361 1_555
O32 Tb3 2.227999 1_555
O33 Si11 1.669525 1_554
O34 Si10 1.669525 1_555
O35 Si9 1.595581 1_555
O35 Tb0 2.224358 1_565
O36 Si10 1.605759 1_555
O36 Tb3 2.258036 1_455
O37 Si11 1.605759 1_555
O37 Tb3 2.258036 1_455
O38 Si10 1.619140 1_555
O38 Tb3 2.333218 1_555
O39 Si11 1.619140 1_555
O39 Tb3 2.333218 1_555
