# generated using pymatgen
data_BaTm2O4
_symmetry_space_group_name_H-M   'P 1'
_cell_length_a   3.39759416
_cell_length_b   10.33508958
_cell_length_c   11.96030399
_cell_angle_alpha   90.00000000
_cell_angle_beta   90.00000000
_cell_angle_gamma   90.00000000
_symmetry_Int_Tables_number   1
_chemical_formula_structural   BaTm2O4
_chemical_formula_sum   'Ba4 Tm8 O16'
_cell_volume   419.97937684
_cell_formula_units_Z   4
loop_
 _symmetry_equiv_pos_site_id
 _symmetry_equiv_pos_as_xyz
  1  'x, y, z'
loop_
 _atom_site_type_symbol
 _atom_site_label
 _atom_site_symmetry_multiplicity
 _atom_site_fract_x
 _atom_site_fract_y
 _atom_site_fract_z
 _atom_site_occupancy
  Ba  Ba0  1  0.75000000  0.24672096  0.35001336  1
  Ba  Ba1  1  0.25000000  0.25327904  0.85001336  1
  Ba  Ba2  1  0.75000000  0.74672096  0.14998664  1
  Ba  Ba3  1  0.25000000  0.75327904  0.64998664  1
  Tm  Tm0  1  0.75000000  0.07778861  0.60799015  1
  Tm  Tm1  1  0.75000000  0.07259299  0.11031499  1
  Tm  Tm2  1  0.25000000  0.42740701  0.61031499  1
  Tm  Tm3  1  0.25000000  0.42221139  0.10799015  1
  Tm  Tm4  1  0.75000000  0.57778861  0.89200985  1
  Tm  Tm5  1  0.75000000  0.57259299  0.38968501  1
  Tm  Tm6  1  0.25000000  0.92740701  0.88968501  1
  Tm  Tm7  1  0.25000000  0.92221139  0.39200985  1
  O  O0  1  0.25000000  0.01904857  0.71735123  1
  O  O1  1  0.75000000  0.06876333  0.92639947  1
  O  O2  1  0.25000000  0.11290212  0.48289539  1
  O  O3  1  0.25000000  0.20940754  0.15371436  1
  O  O4  1  0.75000000  0.29059246  0.65371436  1
  O  O5  1  0.75000000  0.38709788  0.98289539  1
  O  O6  1  0.25000000  0.43123667  0.42639947  1
  O  O7  1  0.75000000  0.48095143  0.21735123  1
  O  O8  1  0.25000000  0.51904857  0.78264877  1
  O  O9  1  0.75000000  0.56876333  0.57360053  1
  O  O10  1  0.25000000  0.61290212  0.01710461  1
  O  O11  1  0.25000000  0.70940754  0.34628564  1
  O  O12  1  0.75000000  0.79059246  0.84628564  1
  O  O13  1  0.75000000  0.88709788  0.51710461  1
  O  O14  1  0.25000000  0.93123667  0.07360053  1
  O  O15  1  0.75000000  0.98095143  0.28264877  1
loop_
_geom_bond_atom_site_label_1
_geom_bond_atom_site_label_2
_geom_bond_distance
_geom_bond_site_symmetry_2
Ba0 O2 2.706397 1_655
Ba0 O2 2.706397 1_555
Ba0 O6 2.712411 1_655
Ba0 O6 2.712411 1_555
Ba0 O15 2.862481 1_545
Ba0 O7 2.894441 1_555
Ba0 O3 2.923486 1_555
Ba0 O3 2.923486 1_655
Ba1 O5 2.706397 1_455
Ba1 O5 2.706397 1_555
Ba1 O1 2.712411 1_455
Ba1 O1 2.712411 1_555
Ba1 O8 2.862481 1_555
Ba1 O0 2.894441 1_555
Ba1 O4 2.923486 1_555
Ba1 O4 2.923486 1_455
Ba2 O10 2.706397 1_555
Ba2 O10 2.706397 1_655
Ba2 O14 2.712411 1_555
Ba2 O14 2.712411 1_655
Ba2 O7 2.862481 1_555
Ba2 O15 2.894441 1_555
Ba2 O11 2.923486 1_655
Ba2 O11 2.923486 1_555
Ba3 O13 2.706397 1_555
Ba3 O13 2.706397 1_455
Ba3 O9 2.712411 1_455
Ba3 O9 2.712411 1_555
Ba3 O0 2.862481 1_565
Ba3 O8 2.894441 1_555
Ba3 O12 2.923486 1_555
Ba3 O12 2.923486 1_455
O0 Tm0 2.228296 1_555
O0 Tm0 2.228296 1_455
O0 Tm6 2.268357 1_545
O1 Tm1 2.200042 1_556
O1 Tm6 2.283211 1_545
O1 Tm6 2.283211 1_645
O2 Tm7 2.250708 1_545
O2 Tm0 2.292627 1_455
O2 Tm0 2.292627 1_555
O3 Tm3 2.266318 1_555
O3 Tm1 2.270400 1_455
O3 Tm1 2.270400 1_555
O4 Tm0 2.266318 1_555
O4 Tm2 2.270400 1_555
O4 Tm2 2.270400 1_655
O5 Tm4 2.250708 1_555
O5 Tm3 2.292627 1_556
O5 Tm3 2.292627 1_656
O6 Tm2 2.200042 1_555
O6 Tm5 2.283211 1_455
O6 Tm5 2.283211 1_555
O7 Tm3 2.228296 1_555
O7 Tm3 2.228296 1_655
O7 Tm5 2.268357 1_555
O8 Tm4 2.228296 1_455
O8 Tm4 2.228296 1_555
O8 Tm2 2.268357 1_555
O9 Tm5 2.200042 1_555
O9 Tm2 2.283211 1_655
O9 Tm2 2.283211 1_555
O10 Tm3 2.250708 1_555
O10 Tm4 2.292627 1_454
O10 Tm4 2.292627 1_554
O11 Tm7 2.266318 1_555
O11 Tm5 2.270400 1_455
O11 Tm5 2.270400 1_555
O12 Tm4 2.266318 1_555
O12 Tm6 2.270400 1_655
O12 Tm6 2.270400 1_555
O13 Tm0 2.250708 1_565
O13 Tm7 2.292627 1_555
O13 Tm7 2.292627 1_655
O14 Tm6 2.200042 1_554
O14 Tm1 2.283211 1_565
O14 Tm1 2.283211 1_465
O15 Tm7 2.228296 1_655
O15 Tm7 2.228296 1_555
O15 Tm1 2.268357 1_565
