# generated using pymatgen
data_Li4Nb2Fe3Ni3O16
_symmetry_space_group_name_H-M   'P 1'
_cell_length_a   5.94534197
_cell_length_b   5.94534197
_cell_length_c   9.69886555
_cell_angle_alpha   88.78518326
_cell_angle_beta   88.78518326
_cell_angle_gamma   59.19897349
_symmetry_Int_Tables_number   1
_chemical_formula_structural   Li4Nb2Fe3Ni3O16
_chemical_formula_sum   'Li4 Nb2 Fe3 Ni3 O16'
_cell_volume   294.38367952
_cell_formula_units_Z   1
loop_
 _symmetry_equiv_pos_site_id
 _symmetry_equiv_pos_as_xyz
  1  'x, y, z'
loop_
 _atom_site_type_symbol
 _atom_site_label
 _atom_site_symmetry_multiplicity
 _atom_site_fract_x
 _atom_site_fract_y
 _atom_site_fract_z
 _atom_site_occupancy
  Li  Li0  1  0.66146200  0.66146200  0.10167600  1
  Li  Li1  1  0.99794300  0.99794300  0.01004700  1
  Li  Li2  1  0.99939400  0.99939400  0.50836100  1
  Li  Li3  1  0.33666000  0.33666000  0.59453500  1
  Nb  Nb0  1  0.67047500  0.67047500  0.50400200  1
  Nb  Nb1  1  0.32766100  0.32766100  0.00704900  1
  Fe  Fe0  1  0.34233900  0.83286600  0.78122600  1
  Fe  Fe1  1  0.83286600  0.34233900  0.78122600  1
  Fe  Fe2  1  0.17070600  0.17070600  0.28211300  1
  Ni  Ni0  1  0.83043800  0.83043800  0.78782700  1
  Ni  Ni1  1  0.16650500  0.66083200  0.28574700  1
  Ni  Ni2  1  0.66083200  0.16650500  0.28574700  1
  O  O0  1  0.33918900  0.84153000  0.40975500  1
  O  O1  1  0.51991600  0.51991600  0.65540800  1
  O  O2  1  0.66240800  0.66240800  0.89055100  1
  O  O3  1  0.00091300  0.00091300  0.69666400  1
  O  O4  1  0.99681700  0.99681700  0.19883100  1
  O  O5  1  0.84153000  0.33918900  0.40975500  1
  O  O6  1  0.51620800  0.96738100  0.65432200  1
  O  O7  1  0.96738100  0.51620800  0.65432200  1
  O  O8  1  0.16639700  0.16639700  0.90559600  1
  O  O9  1  0.84106300  0.84106300  0.40361600  1
  O  O10  1  0.02976600  0.47765900  0.15481700  1
  O  O11  1  0.47765900  0.02976600  0.15481700  1
  O  O12  1  0.33790500  0.33790500  0.38561400  1
  O  O13  1  0.17072800  0.66737800  0.91209300  1
  O  O14  1  0.47637800  0.47637800  0.16435000  1
  O  O15  1  0.66737800  0.17072800  0.91209300  1
loop_
_geom_bond_atom_site_label_1
_geom_bond_atom_site_label_2
_geom_bond_distance
_geom_bond_site_symmetry_2
Li0 O11 1.956523 1_565
Li0 O10 1.956523 1_655
Li0 O14 1.993624 1_555
Li0 O2 2.047458 1_554
Li1 O4 1.830744 1_555
Li1 O13 1.946930 1_654
Li1 O15 1.946930 1_564
Li1 O8 1.993374 1_664
Li2 O3 1.826776 1_665
Li2 O9 1.947525 1_555
Li2 O5 1.972578 1_565
Li2 O0 1.972578 1_655
Li3 O6 1.966733 1_545
Li3 O7 1.966733 1_455
Li3 O1 1.998226 1_555
Li3 O12 2.026024 1_555
Nb0 O0 1.932545 1_555
Nb0 O5 1.932545 1_555
Nb0 O9 1.993703 1_555
Nb0 O1 2.113762 1_555
Nb0 O7 2.115919 1_555
Nb0 O6 2.115919 1_555
Nb1 O15 1.955938 1_554
Nb1 O13 1.955938 1_554
Nb1 O8 1.956555 1_554
Nb1 O10 2.077279 1_555
Nb1 O11 2.077279 1_555
Nb1 O14 2.192286 1_555
Fe0 O3 1.936543 1_565
Fe0 O2 1.958940 1_555
Fe0 O6 1.993493 1_555
Fe0 O1 2.023730 1_555
Fe0 O8 2.098808 1_565
Fe0 O13 2.130780 1_555
Fe1 O3 1.936543 1_655
Fe1 O2 1.958940 1_555
Fe1 O7 1.993493 1_555
Fe1 O1 2.023730 1_555
Fe1 O8 2.098808 1_655
Fe1 O15 2.130780 1_555
Fe2 O10 1.984721 1_555
Fe2 O11 1.984721 1_555
Fe2 O4 1.988831 1_445
Fe2 O12 2.020047 1_555
Fe2 O5 2.075641 1_455
Fe2 O0 2.075641 1_545
Ni0 O3 1.952509 1_665
Ni0 O2 1.981481 1_555
Ni0 O6 2.080827 1_555
Ni0 O7 2.080827 1_555
Ni0 O13 2.128555 1_655
Ni0 O15 2.128555 1_565
Ni1 O4 1.902480 1_455
Ni1 O12 1.903164 1_555
Ni1 O14 1.968935 1_555
Ni1 O9 2.008397 1_455
Ni1 O10 2.113896 1_555
Ni1 O0 2.211666 1_555
Ni2 O4 1.902480 1_545
Ni2 O12 1.903164 1_555
Ni2 O14 1.968935 1_555
Ni2 O9 2.008397 1_545
Ni2 O11 2.113896 1_555
Ni2 O5 2.211666 1_555
