# generated using pymatgen
data_LiMn2(CoO4)2
_symmetry_space_group_name_H-M   'P 1'
_cell_length_a   5.68365781
_cell_length_b   5.68365781
_cell_length_c   5.63893633
_cell_angle_alpha   61.27548230
_cell_angle_beta   61.27548230
_cell_angle_gamma   61.65860877
_symmetry_Int_Tables_number   1
_chemical_formula_structural   LiMn2(CoO4)2
_chemical_formula_sum   'Li1 Mn2 Co2 O8'
_cell_volume   132.86266789
_cell_formula_units_Z   1
loop_
 _symmetry_equiv_pos_site_id
 _symmetry_equiv_pos_as_xyz
  1  'x, y, z'
loop_
 _atom_site_type_symbol
 _atom_site_label
 _atom_site_symmetry_multiplicity
 _atom_site_fract_x
 _atom_site_fract_y
 _atom_site_fract_z
 _atom_site_occupancy
  Li  Li0  1  0.50000000  0.50000000  0.50000000  1
  Mn  Mn0  1  0.00000000  0.50000000  0.00000000  1
  Mn  Mn1  1  0.50000000  0.00000000  0.00000000  1
  Co  Co0  1  0.00000000  0.00000000  0.50000000  1
  Co  Co1  1  0.00000000  0.00000000  0.00000000  1
  O  O0  1  0.76414000  0.20911200  0.75792000  1
  O  O1  1  0.23384000  0.23384000  0.24403200  1
  O  O2  1  0.20911200  0.76414000  0.75792000  1
  O  O3  1  0.24005200  0.24005200  0.78721500  1
  O  O4  1  0.75994800  0.75994800  0.21278500  1
  O  O5  1  0.79088800  0.23586000  0.24208000  1
  O  O6  1  0.76616000  0.76616000  0.75596800  1
  O  O7  1  0.23586000  0.79088800  0.24208000  1
loop_
_geom_bond_atom_site_label_1
_geom_bond_atom_site_label_2
_geom_bond_distance
_geom_bond_site_symmetry_2
Li0 O4 2.112179 1_555
Li0 O3 2.112179 1_555
Li0 O2 2.129179 1_555
Li0 O5 2.129179 1_555
Li0 O7 2.129179 1_555
Li0 O0 2.129179 1_555
Mn0 O5 1.922148 1_455
Mn0 O2 1.922148 1_554
Mn0 O4 1.923701 1_455
Mn0 O3 1.923701 1_554
Mn0 O1 1.948479 1_555
Mn0 O6 1.948479 1_454
Mn1 O7 1.922148 1_545
Mn1 O0 1.922148 1_554
Mn1 O4 1.923701 1_545
Mn1 O3 1.923701 1_554
Mn1 O1 1.948479 1_555
Mn1 O6 1.948479 1_544
Co0 O7 1.897277 1_545
Co0 O5 1.897277 1_455
Co0 O0 1.897277 1_455
Co0 O2 1.897277 1_545
Co0 O1 1.898811 1_555
Co0 O6 1.898811 1_445
Co1 O0 1.939027 1_454
Co1 O2 1.939027 1_544
Co1 O5 1.939027 1_455
Co1 O7 1.939027 1_545
Co1 O3 1.945001 1_554
Co1 O4 1.945001 1_445
