# generated using pymatgen
data_LiMnVP2(HO5)2
_symmetry_space_group_name_H-M   'P 1'
_cell_length_a   5.33892587
_cell_length_b   10.45463694
_cell_length_c   7.41128847
_cell_angle_alpha   110.39989183
_cell_angle_beta   111.86957199
_cell_angle_gamma   84.95893669
_symmetry_Int_Tables_number   1
_chemical_formula_structural   LiMnVP2(HO5)2
_chemical_formula_sum   'Li2 Mn2 V2 P4 H4 O20'
_cell_volume   359.40570126
_cell_formula_units_Z   2
loop_
 _symmetry_equiv_pos_site_id
 _symmetry_equiv_pos_as_xyz
  1  'x, y, z'
loop_
 _atom_site_type_symbol
 _atom_site_label
 _atom_site_symmetry_multiplicity
 _atom_site_fract_x
 _atom_site_fract_y
 _atom_site_fract_z
 _atom_site_occupancy
  Li  Li0  1  0.58978900  0.03256300  0.18464000  1
  Li  Li1  1  0.41021100  0.46743700  0.31536000  1
  Mn  Mn0  1  0.99452600  0.99740000  0.99154500  1
  Mn  Mn1  1  0.00547400  0.50260000  0.50845500  1
  V  V0  1  0.00000000  0.75000000  0.25000000  1
  V  V1  1  0.00000000  0.25000000  0.75000000  1
  P  P0  1  0.64591100  0.27567400  0.05093900  1
  P  P1  1  0.64659800  0.77718500  0.54530300  1
  P  P2  1  0.35408900  0.22432600  0.44906100  1
  P  P3  1  0.35340200  0.72281500  0.95469700  1
  H  H0  1  0.93863300  0.49606800  0.15360800  1
  H  H1  1  0.96662000  0.99274100  0.65285500  1
  H  H2  1  0.06136700  0.00393200  0.34639200  1
  H  H3  1  0.03338000  0.50725900  0.84714500  1
  O  O0  1  0.95155900  0.93563800  0.21272200  1
  O  O1  1  0.65698200  0.68571800  0.04332900  1
  O  O2  1  0.81497800  0.83479800  0.45408900  1
  O  O3  1  0.97337200  0.42924600  0.71422100  1
  O  O4  1  0.74677100  0.35972000  0.28552200  1
  O  O5  1  0.75396100  0.84900600  0.78085100  1
  O  O6  1  0.65790900  0.62283300  0.48736000  1
  O  O7  1  0.34209100  0.87716700  0.01264000  1
  O  O8  1  0.65504400  0.18307100  0.52706500  1
  O  O9  1  0.81010100  0.32624500  0.95040900  1
  O  O10  1  0.18502200  0.66520200  0.04591100  1
  O  O11  1  0.34301800  0.81428200  0.45667100  1
  O  O12  1  0.66392500  0.12357400  0.01525100  1
  O  O13  1  0.33607500  0.37642600  0.48474900  1
  O  O14  1  0.25322900  0.14028000  0.21447800  1
  O  O15  1  0.24603900  0.65099400  0.71914900  1
  O  O16  1  0.04844100  0.56436200  0.28727800  1
  O  O17  1  0.18989900  0.17375500  0.54959100  1
  O  O18  1  0.34495600  0.31692900  0.97293500  1
  O  O19  1  0.02662800  0.07075400  0.78577900  1
loop_
_geom_bond_atom_site_label_1
_geom_bond_atom_site_label_2
_geom_bond_distance
_geom_bond_site_symmetry_2
Li0 O7 1.921226 1_545
Li0 O12 1.976635 1_555
Li0 O0 2.074674 1_545
Li0 O14 2.076689 1_555
Li0 O8 2.385702 1_555
Li1 O6 1.921226 1_555
Li1 O13 1.976635 1_555
Li1 O16 2.074674 1_555
Li1 O4 2.076689 1_555
Li1 O18 2.385702 1_554
Mn0 O5 1.913628 1_555
Mn0 O14 1.952121 1_666
Mn0 O19 1.994044 1_665
Mn0 O0 2.049536 1_556
Mn0 O12 2.132277 1_566
Mn0 O7 2.135128 1_656
Mn1 O15 1.913628 1_555
Mn1 O4 1.952121 1_455
Mn1 O3 1.994044 1_455
Mn1 O16 2.049536 1_555
Mn1 O13 2.132277 1_555
Mn1 O6 2.135128 1_455
H0 O16 0.991300 1_655
H1 O19 0.994481 1_665
H2 O0 0.991300 1_445
H3 O3 0.994481 1_455
O0 V0 2.035239 1_655
O1 P3 1.575703 1_554
O1 V0 1.886930 1_655
O2 P1 1.568340 1_555
O2 V0 2.018407 1_655
O3 V1 1.968181 1_655
O4 P0 1.550922 1_555
O5 P1 1.535003 1_555
O6 P1 1.520251 1_555
O7 P3 1.520251 1_554
O8 P2 1.569072 1_555
O8 V1 1.940333 1_655
O9 P0 1.563868 1_556
O9 V1 2.005950 1_655
O10 P3 1.568340 1_554
O10 V0 2.018407 1_555
O11 P1 1.575703 1_555
O11 V0 1.886930 1_555
O12 P0 1.518767 1_555
O13 P2 1.518767 1_555
O14 P2 1.550922 1_555
O15 P3 1.535003 1_555
O16 V0 2.035239 1_555
O17 P2 1.563868 1_555
O17 V1 2.005950 1_555
O18 P0 1.569072 1_556
O18 V1 1.940333 1_555
O19 V1 1.968181 1_555
