# generated using pymatgen
data_Li2V2OF6
_symmetry_space_group_name_H-M   'P 1'
_cell_length_a   5.48294108
_cell_length_b   8.76891012
_cell_length_c   6.59695278
_cell_angle_alpha   107.74380723
_cell_angle_beta   94.25579887
_cell_angle_gamma   75.30544364
_symmetry_Int_Tables_number   1
_chemical_formula_structural   Li2V2OF6
_chemical_formula_sum   'Li4 V4 O2 F12'
_cell_volume   292.20668244
_cell_formula_units_Z   2
loop_
 _symmetry_equiv_pos_site_id
 _symmetry_equiv_pos_as_xyz
  1  'x, y, z'
loop_
 _atom_site_type_symbol
 _atom_site_label
 _atom_site_symmetry_multiplicity
 _atom_site_fract_x
 _atom_site_fract_y
 _atom_site_fract_z
 _atom_site_occupancy
  Li  Li0  1  0.11863200  0.26277100  0.57813600  1
  Li  Li1  1  0.88091600  0.73721900  0.42200600  1
  Li  Li2  1  0.56145000  0.37395600  0.76961100  1
  Li  Li3  1  0.43822900  0.62598800  0.23023600  1
  V  V0  1  0.67274400  0.81633700  0.99853100  1
  V  V1  1  0.22460700  0.69568500  0.78334600  1
  V  V2  1  0.32737400  0.18381200  0.00175900  1
  V  V3  1  0.77578200  0.30421100  0.21643900  1
  O  O0  1  0.45213900  0.37468800  0.10675000  1
  O  O1  1  0.54824800  0.62536000  0.89333800  1
  F  F0  1  0.40445200  0.15223800  0.71160100  1
  F  F1  1  0.59524000  0.84795400  0.28869700  1
  F  F2  1  0.95129400  0.26982900  0.93775600  1
  F  F3  1  0.04890000  0.73011200  0.06196500  1
  F  F4  1  0.69030400  0.06895300  0.08677400  1
  F  F5  1  0.30973400  0.93112200  0.91335700  1
  F  F6  1  0.15819200  0.19907200  0.26748700  1
  F  F7  1  0.84201500  0.80090100  0.73270700  1
  F  F8  1  0.75628700  0.29275700  0.50499700  1
  F  F9  1  0.24355100  0.70712900  0.49453400  1
  F  F10  1  0.20930300  0.46254800  0.68042500  1
  F  F11  1  0.79060700  0.53735900  0.31955000  1
loop_
_geom_bond_atom_site_label_1
_geom_bond_atom_site_label_2
_geom_bond_distance
_geom_bond_site_symmetry_2
Li2 O1 2.088657 1_555
Li2 O0 2.343720 1_556
Li3 O0 2.086909 1_555
Li3 O1 2.343770 1_554
O0 V2 1.884984 1_555
O0 V3 1.892110 1_555
O1 V0 1.885020 1_555
O1 V1 1.892652 1_555
F0 V2 1.912311 1_556
F0 Li0 1.927521 1_555
F0 Li2 2.239227 1_555
F1 V0 1.912886 1_554
F1 Li1 1.927214 1_555
F1 Li3 2.240894 1_555
F2 V3 2.043142 1_556
F2 V2 2.067602 1_656
F2 Li2 2.430698 1_555
F3 V1 2.043205 1_554
F3 V0 2.067387 1_454
F3 Li3 2.428993 1_555
F4 V2 2.109649 1_555
F4 V3 2.136016 1_555
F4 V0 2.137523 1_544
F5 V0 2.110152 1_555
F5 V1 2.136798 1_555
F5 V2 2.138226 1_566
F6 Li0 1.966117 1_555
F6 V2 1.996687 1_555
F6 V3 2.112680 1_455
F7 Li1 1.966043 1_555
F7 V0 1.997011 1_555
F7 V1 2.113117 1_655
F8 V3 1.948693 1_555
F8 Li2 1.956721 1_555
F8 Li0 1.979650 1_655
F9 V1 1.949909 1_555
F9 Li3 1.954579 1_555
F9 Li1 1.980279 1_455
F10 Li0 1.855510 1_555
F10 V1 1.969761 1_555
F10 Li2 2.006658 1_555
F11 Li1 1.855275 1_555
F11 V3 1.969150 1_555
F11 Li3 2.008087 1_555
