# generated using pymatgen
data_Na2Cr(HO)8
_symmetry_space_group_name_H-M   'P 1'
_cell_length_a   11.21704300
_cell_length_b   6.23941500
_cell_length_c   12.27485770
_cell_angle_alpha   75.05785503
_cell_angle_beta   90.00000000
_cell_angle_gamma   90.00000000
_symmetry_Int_Tables_number   1
_chemical_formula_structural   Na2Cr(HO)8
_chemical_formula_sum   'Na8 Cr4 H32 O32'
_cell_volume   830.04142850
_cell_formula_units_Z   4
loop_
 _symmetry_equiv_pos_site_id
 _symmetry_equiv_pos_as_xyz
  1  'x, y, z'
loop_
 _atom_site_type_symbol
 _atom_site_label
 _atom_site_symmetry_multiplicity
 _atom_site_fract_x
 _atom_site_fract_y
 _atom_site_fract_z
 _atom_site_occupancy
  Na  Na0  1  0.07336300  0.75037200  0.99699900  1
  Na  Na1  1  0.57336300  0.24962800  0.50300100  1
  Na  Na2  1  0.92663700  0.24962800  0.00300100  1
  Na  Na3  1  0.42663700  0.75037200  0.49699900  1
  Na  Na4  1  0.17947200  0.52410500  0.61238400  1
  Na  Na5  1  0.67947200  0.47589500  0.88761600  1
  Na  Na6  1  0.82052800  0.47589500  0.38761600  1
  Na  Na7  1  0.32052800  0.52410500  0.11238400  1
  Cr  Cr0  1  0.89968000  0.73658900  0.73969700  1
  Cr  Cr1  1  0.39968000  0.26341100  0.76030300  1
  Cr  Cr2  1  0.10032000  0.26341100  0.26030300  1
  Cr  Cr3  1  0.60032000  0.73658900  0.23969700  1
  H  H0  1  0.97154200  0.86031500  0.38407000  1
  H  H1  1  0.47154200  0.13968500  0.11593000  1
  H  H2  1  0.02845800  0.13968500  0.61593000  1
  H  H3  1  0.52845800  0.86031500  0.88407000  1
  H  H4  1  0.93572600  0.74765700  0.51053400  1
  H  H5  1  0.43572600  0.25234300  0.98946600  1
  H  H6  1  0.06427400  0.25234300  0.48946600  1
  H  H7  1  0.56427400  0.74765700  0.01053400  1
  H  H8  1  0.19150600  0.77331700  0.37587200  1
  H  H9  1  0.69150600  0.22668300  0.12412800  1
  H  H10  1  0.80849400  0.22668300  0.62412800  1
  H  H11  1  0.30849400  0.77331700  0.87587200  1
  H  H12  1  0.24238500  0.53902200  0.37538700  1
  H  H13  1  0.74238500  0.46097800  0.12461300  1
  H  H14  1  0.75761500  0.46097800  0.62461300  1
  H  H15  1  0.25761500  0.53902200  0.87538700  1
  H  H16  1  0.29014000  0.98449000  0.09351500  1
  H  H17  1  0.79014000  0.01551000  0.40648500  1
  H  H18  1  0.70986000  0.01551000  0.90648500  1
  H  H19  1  0.20986000  0.98449000  0.59351500  1
  H  H20  1  0.18095100  0.90547000  0.17318200  1
  H  H21  1  0.68095100  0.09453000  0.32681800  1
  H  H22  1  0.81904900  0.09453000  0.82681800  1
  H  H23  1  0.31904900  0.90547000  0.67318200  1
  H  H24  1  0.87087700  0.80643500  0.15267000  1
  H  H25  1  0.37087700  0.19356500  0.34733000  1
  H  H26  1  0.12912300  0.19356500  0.84733000  1
  H  H27  1  0.62912300  0.80643500  0.65267000  1
  H  H28  1  0.99108100  0.91181900  0.18104400  1
  H  H29  1  0.49108100  0.08818100  0.31895600  1
  H  H30  1  0.00891900  0.08818100  0.81895600  1
  H  H31  1  0.50891900  0.91181900  0.68104400  1
  O  O0  1  0.92902700  0.62341900  0.87425000  1
  O  O1  1  0.42902700  0.37658100  0.62575000  1
  O  O2  1  0.07097300  0.37658100  0.12575000  1
  O  O3  1  0.57097300  0.62341900  0.37425000  1
  O  O4  1  0.76223300  0.66253200  0.71083800  1
  O  O5  1  0.26223300  0.33746800  0.78916200  1
  O  O6  1  0.23776700  0.33746800  0.28916200  1
  O  O7  1  0.73776700  0.66253200  0.21083800  1
  O  O8  1  0.99469000  0.65265800  0.65651900  1
  O  O9  1  0.49469000  0.34734200  0.84348100  1
  O  O10  1  0.00531000  0.34734200  0.34348100  1
  O  O11  1  0.50531000  0.65265800  0.15651900  1
  O  O12  1  0.90900000  0.01743800  0.71450700  1
  O  O13  1  0.40900000  0.98256200  0.78549300  1
  O  O14  1  0.09100000  0.98256200  0.28549300  1
  O  O15  1  0.59100000  0.01743800  0.21450700  1
  O  O16  1  0.90353500  0.79427900  0.43299700  1
  O  O17  1  0.40353500  0.20572100  0.06700300  1
  O  O18  1  0.09646500  0.20572100  0.56700300  1
  O  O19  1  0.59646500  0.79427900  0.93299700  1
  O  O20  1  0.24157900  0.65086100  0.41965800  1
  O  O21  1  0.74157900  0.34913900  0.08034200  1
  O  O22  1  0.75842100  0.34913900  0.58034200  1
  O  O23  1  0.25842100  0.65086100  0.91965800  1
  O  O24  1  0.22811100  0.86830100  0.11258200  1
  O  O25  1  0.72811100  0.13169900  0.38741800  1
  O  O26  1  0.77188900  0.13169900  0.88741800  1
  O  O27  1  0.27188900  0.86830100  0.61258200  1
  O  O28  1  0.94368800  0.88421400  0.11822900  1
  O  O29  1  0.44368800  0.11578600  0.38177100  1
  O  O30  1  0.05631200  0.11578600  0.88177100  1
  O  O31  1  0.55631200  0.88421400  0.61822900  1
loop_
_geom_bond_atom_site_label_1
_geom_bond_atom_site_label_2
_geom_bond_distance
_geom_bond_site_symmetry_2
Na0 O30 2.360593 1_565
Na0 O28 2.380837 1_456
Na0 O23 2.428929 1_555
Na0 O2 2.457022 1_556
Na0 O24 2.470973 1_556
Na0 O0 2.476767 1_455
Na1 O31 2.360593 1_545
Na1 O29 2.380837 1_555
Na1 O22 2.428929 1_555
Na1 O3 2.457022 1_555
Na1 O25 2.470973 1_555
Na1 O1 2.476767 1_555
Na2 O28 2.360593 1_545
Na2 O30 2.380837 1_654
Na2 O21 2.428929 1_555
Na2 O0 2.457022 1_554
Na2 O26 2.470973 1_554
Na2 O2 2.476767 1_655
Na3 O29 2.360593 1_565
Na3 O31 2.380837 1_555
Na3 O20 2.428929 1_555
Na3 O1 2.457022 1_555
Na3 O27 2.470973 1_555
Na3 O3 2.476767 1_555
Na4 O8 2.336034 1_455
Na4 O5 2.371364 1_555
Na4 O27 2.385254 1_555
Na4 O18 2.386250 1_555
Na4 O20 2.396341 1_555
Na5 O9 2.336034 1_555
Na5 O4 2.371364 1_555
Na5 O26 2.385254 1_555
Na5 O19 2.386250 1_555
Na5 O21 2.396341 1_556
Na6 O10 2.336034 1_655
Na6 O7 2.371364 1_555
Na6 O25 2.385254 1_555
Na6 O16 2.386250 1_555
Na6 O22 2.396341 1_555
Na7 O11 2.336034 1_555
Na7 O6 2.371364 1_555
Na7 O24 2.385254 1_555
Na7 O17 2.386250 1_555
Na7 O23 2.396341 1_554
Cr0 O8 1.651722 1_555
Cr0 O0 1.653298 1_555
Cr0 O4 1.673439 1_555
Cr0 O12 1.702291 1_565
Cr1 O9 1.651722 1_555
Cr1 O1 1.653298 1_555
Cr1 O5 1.673439 1_555
Cr1 O13 1.702291 1_545
Cr2 O10 1.651722 1_555
Cr2 O2 1.653298 1_555
Cr2 O6 1.673439 1_555
Cr2 O14 1.702291 1_545
Cr3 O11 1.651722 1_555
Cr3 O3 1.653298 1_555
Cr3 O7 1.673439 1_555
Cr3 O15 1.702291 1_565
H0 O16 0.992354 1_555
H1 O17 0.992354 1_555
H2 O18 0.992354 1_555
H3 O19 0.992354 1_555
H4 O16 0.988974 1_555
H5 O17 0.988974 1_556
H6 O18 0.988974 1_555
H7 O19 0.988974 1_554
H8 O20 0.988106 1_555
H9 O21 0.988106 1_555
H10 O22 0.988106 1_555
H11 O23 0.988106 1_555
H12 O20 0.988876 1_555
H13 O21 0.988876 1_555
H14 O22 0.988876 1_555
H15 O23 0.988876 1_555
H16 O24 0.988406 1_555
H17 O25 0.988406 1_555
H18 O26 0.988406 1_555
H19 O27 0.988406 1_555
H20 O24 0.987878 1_555
H21 O25 0.987878 1_555
H22 O26 0.987878 1_555
H23 O27 0.987878 1_555
H24 O28 0.987661 1_555
H25 O29 0.987661 1_555
H26 O30 0.987661 1_555
H27 O31 0.987661 1_555
H28 O28 0.987558 1_555
H29 O29 0.987558 1_555
H30 O30 0.987558 1_555
H31 O31 0.987558 1_555
