# generated using pymatgen
data_Na3NiBPO7
_symmetry_space_group_name_H-M   'P 1'
_cell_length_a   6.75227700
_cell_length_b   5.16161200
_cell_length_c   8.88775191
_cell_angle_alpha   88.34624978
_cell_angle_beta   90.00000000
_cell_angle_gamma   90.00000000
_symmetry_Int_Tables_number   1
_chemical_formula_structural   Na3NiBPO7
_chemical_formula_sum   'Na6 Ni2 B2 P2 O14'
_cell_volume   309.63254300
_cell_formula_units_Z   2
loop_
 _symmetry_equiv_pos_site_id
 _symmetry_equiv_pos_as_xyz
  1  'x, y, z'
loop_
 _atom_site_type_symbol
 _atom_site_label
 _atom_site_symmetry_multiplicity
 _atom_site_fract_x
 _atom_site_fract_y
 _atom_site_fract_z
 _atom_site_occupancy
  Na  Na0  1  0.75000000  0.23510000  0.91580400  1
  Na  Na1  1  0.99303000  0.74687100  0.73194700  1
  Na  Na2  1  0.50697000  0.74687100  0.73194700  1
  Na  Na3  1  0.49303000  0.25312900  0.26805300  1
  Na  Na4  1  0.00697000  0.25312900  0.26805300  1
  Na  Na5  1  0.25000000  0.76490000  0.08419600  1
  Ni  Ni0  1  0.25000000  0.21803200  0.65709600  1
  Ni  Ni1  1  0.75000000  0.78196800  0.34290400  1
  B  B0  1  0.25000000  0.26722000  0.93084300  1
  B  B1  1  0.75000000  0.73278000  0.06915700  1
  P  P0  1  0.75000000  0.28257500  0.58107900  1
  P  P1  1  0.25000000  0.71742500  0.41892100  1
  O  O0  1  0.75000000  0.70616600  0.91939500  1
  O  O1  1  0.25000000  0.03127400  0.86018500  1
  O  O2  1  0.25000000  0.47200100  0.82566900  1
  O  O3  1  0.93401400  0.21923800  0.68014900  1
  O  O4  1  0.56598600  0.21923800  0.68014900  1
  O  O5  1  0.75000000  0.58057600  0.53927100  1
  O  O6  1  0.25000000  0.86831200  0.56645000  1
  O  O7  1  0.75000000  0.13168800  0.43355000  1
  O  O8  1  0.25000000  0.41942400  0.46072900  1
  O  O9  1  0.43401400  0.78076200  0.31985100  1
  O  O10  1  0.06598600  0.78076200  0.31985100  1
  O  O11  1  0.75000000  0.52799900  0.17433100  1
  O  O12  1  0.75000000  0.96872600  0.13981500  1
  O  O13  1  0.25000000  0.29383400  0.08060500  1
loop_
_geom_bond_atom_site_label_1
_geom_bond_atom_site_label_2
_geom_bond_distance
_geom_bond_site_symmetry_2
Na0 O12 2.386693 1_546
Na0 O0 2.432590 1_555
Na0 O4 2.438674 1_555
Na0 O3 2.438674 1_555
Na0 O0 2.729417 1_545
Na0 O11 2.786695 1_556
Na1 O0 2.343580 1_555
Na1 O6 2.348174 1_655
Na1 O2 2.376813 1_655
Na1 O3 2.500129 1_565
Na1 O5 2.539097 1_555
Na1 O1 2.561492 1_665
Na1 O3 2.803607 1_555
Na2 O0 2.343580 1_555
Na2 O6 2.348174 1_555
Na2 O2 2.376813 1_555
Na2 O4 2.500129 1_565
Na2 O5 2.539097 1_555
Na2 O1 2.561492 1_565
Na2 O4 2.803607 1_555
Na3 O13 2.343580 1_555
Na3 O7 2.348174 1_555
Na3 O11 2.376813 1_555
Na3 O9 2.500129 1_545
Na3 O8 2.539097 1_555
Na3 O12 2.561492 1_545
Na3 O9 2.803607 1_555
Na4 O13 2.343580 1_555
Na4 O7 2.348174 1_455
Na4 O11 2.376813 1_455
Na4 O10 2.500129 1_545
Na4 O8 2.539097 1_555
Na4 O12 2.561492 1_445
Na4 O10 2.803607 1_555
Na5 O1 2.386693 1_564
Na5 O13 2.432590 1_555
Na5 O9 2.438674 1_555
Na5 O10 2.438674 1_555
Na5 O13 2.729417 1_565
Na5 O2 2.786695 1_554
Ni0 O6 1.997861 1_545
Ni0 O8 2.005442 1_555
Ni0 O2 2.019034 1_555
Ni0 O1 2.021597 1_555
Ni0 O4 2.143466 1_555
Ni0 O3 2.143466 1_455
Ni1 O7 1.997861 1_565
Ni1 O5 2.005442 1_555
Ni1 O11 2.019034 1_555
Ni1 O12 2.021597 1_555
Ni1 O9 2.143466 1_555
Ni1 O10 2.143466 1_655
B0 O13 1.342055 1_556
B0 O1 1.386255 1_555
B0 O2 1.390682 1_555
B1 O0 1.342055 1_554
B1 O12 1.386255 1_555
B1 O11 1.390682 1_555
O3 P0 1.552224 1_555
O4 P0 1.552224 1_555
O5 P0 1.571953 1_555
O6 P1 1.544264 1_555
O7 P0 1.544264 1_555
O8 P1 1.571953 1_555
O9 P1 1.552224 1_555
O10 P1 1.552224 1_555
