# generated using pymatgen
data_Li2CrP2O7
_symmetry_space_group_name_H-M   'P 1'
_cell_length_a   6.49193800
_cell_length_b   9.22550973
_cell_length_c   10.80281360
_cell_angle_alpha   112.67759829
_cell_angle_beta   89.95372449
_cell_angle_gamma   106.36424840
_symmetry_Int_Tables_number   1
_chemical_formula_structural   Li2CrP2O7
_chemical_formula_sum   'Li8 Cr4 P8 O28'
_cell_volume   568.52900635
_cell_formula_units_Z   4
loop_
 _symmetry_equiv_pos_site_id
 _symmetry_equiv_pos_as_xyz
  1  'x, y, z'
loop_
 _atom_site_type_symbol
 _atom_site_label
 _atom_site_symmetry_multiplicity
 _atom_site_fract_x
 _atom_site_fract_y
 _atom_site_fract_z
 _atom_site_occupancy
  Li  Li0  1  0.03386800  0.18333200  0.50538000  1
  Li  Li1  1  0.63067800  0.07681800  0.62333600  1
  Li  Li2  1  0.59129300  0.50943100  0.96980000  1
  Li  Li3  1  0.15290900  0.10184100  0.12333200  1
  Li  Li4  1  0.16087300  0.48950500  0.04312800  1
  Li  Li5  1  0.87496900  0.89562300  0.88839300  1
  Li  Li6  1  0.36051500  0.92543500  0.37697700  1
  Li  Li7  1  0.95258100  0.83491000  0.50418900  1
  Cr  Cr0  1  0.35891200  0.50794700  0.73563700  1
  Cr  Cr1  1  0.72635900  0.09653400  0.21991800  1
  Cr  Cr2  1  0.28046700  0.89484500  0.77569800  1
  Cr  Cr3  1  0.62831500  0.48167100  0.25278200  1
  P  P0  1  0.08443700  0.18399400  0.79072900  1
  P  P1  1  0.70476600  0.18731000  0.93587200  1
  P  P2  1  0.55752800  0.28320000  0.46210000  1
  P  P3  1  0.12589100  0.44296900  0.29896000  1
  P  P4  1  0.86392300  0.54787500  0.69770300  1
  P  P5  1  0.43955700  0.71265600  0.53188400  1
  P  P6  1  0.30319500  0.80325900  0.06295500  1
  P  P7  1  0.92061900  0.80575300  0.20527400  1
  O  O0  1  0.11374200  0.06269600  0.84956200  1
  O  O1  1  0.56501000  0.07962800  0.79850300  1
  O  O2  1  0.29187300  0.32275000  0.81013400  1
  O  O3  1  0.96039900  0.09436000  0.64774500  1
  O  O4  1  0.02801900  0.45806500  0.69679000  1
  O  O5  1  0.93633400  0.28234100  0.89574400  1
  O  O6  1  0.64172000  0.14524400  0.46892100  1
  O  O7  1  0.03581300  0.26239800  0.28240700  1
  O  O8  1  0.34474000  0.28306600  0.51885000  1
  O  O9  1  0.37407500  0.65503400  0.97645900  1
  O  O10  1  0.55810200  0.27488400  0.31430500  1
  O  O11  1  0.68832200  0.53329100  0.79227400  1
  O  O12  1  0.75797200  0.08078400  0.00236600  1
  O  O13  1  0.25757700  0.53774700  0.44859100  1
  O  O14  1  0.73648400  0.45948000  0.54543200  1
  O  O15  1  0.24963100  0.90592800  0.99320400  1
  O  O16  1  0.29294100  0.45663800  0.19848100  1
  O  O17  1  0.43778900  0.71544500  0.67794400  1
  O  O18  1  0.62733600  0.32882000  0.02511400  1
  O  O19  1  0.64960300  0.70971600  0.47268600  1
  O  O20  1  0.96590200  0.72967600  0.72052000  1
  O  O21  1  0.35889000  0.85359900  0.52914300  1
  O  O22  1  0.07766700  0.70933300  0.10735900  1
  O  O23  1  0.95642500  0.52501000  0.29391600  1
  O  O24  1  0.03638700  0.89434200  0.34985800  1
  O  O25  1  0.71024000  0.66774600  0.17958700  1
  O  O26  1  0.44467000  0.91403800  0.19920000  1
  O  O27  1  0.89953100  0.92884000  0.14561500  1
loop_
_geom_bond_atom_site_label_1
_geom_bond_atom_site_label_2
_geom_bond_distance
_geom_bond_site_symmetry_2
Li0 O8 1.947210 1_555
Li0 O3 2.004519 1_455
Li0 O6 2.480027 1_455
Li0 O24 2.549813 1_545
Li0 O4 2.591134 1_555
Li1 O1 1.931398 1_555
Li1 O6 1.993121 1_555
Li1 O3 2.109595 1_555
Li1 O21 2.174642 1_545
Li2 O18 2.043473 1_556
Li2 O11 2.090106 1_555
Li2 O25 2.163453 1_556
Li2 O9 2.188787 1_555
Li2 O2 2.355425 1_555
Li3 O27 2.031564 1_445
Li3 O15 2.077501 1_544
Li3 O7 2.096332 1_555
Li4 O16 2.045667 1_555
Li4 O5 2.097630 1_454
Li4 O22 2.101841 1_555
Li4 O9 2.102827 1_554
Li5 O0 2.026253 1_665
Li5 O12 2.029437 1_566
Li5 O20 2.085130 1_555
Li6 O26 1.967940 1_555
Li6 O21 1.994372 1_555
Li6 O24 2.047420 1_555
Li6 O6 2.189802 1_565
Li7 O19 1.932989 1_555
Li7 O24 1.977757 1_655
Li7 O3 2.281694 1_565
Li7 O21 2.601745 1_655
Cr0 O4 2.073135 1_555
Cr0 O2 2.096868 1_555
Cr0 O11 2.147625 1_555
Cr0 O17 2.163838 1_555
Cr0 O9 2.412914 1_555
Cr0 O8 2.437929 1_555
Cr1 O26 2.050379 1_545
Cr1 O7 2.075223 1_655
Cr1 O27 2.079090 1_545
Cr1 O10 2.158088 1_555
Cr1 O12 2.310683 1_555
Cr1 O6 2.635196 1_555
Cr2 O0 2.048507 1_565
Cr2 O1 2.069180 1_565
Cr2 O20 2.096586 1_455
Cr2 O17 2.121449 1_555
Cr2 O15 2.323151 1_555
Cr2 O21 2.612208 1_555
Cr3 O23 2.068611 1_555
Cr3 O25 2.094384 1_555
Cr3 O16 2.179915 1_555
Cr3 O10 2.185420 1_555
Cr3 O18 2.314766 1_555
Cr3 O19 2.464045 1_555
O0 P0 1.536536 1_555
O1 P1 1.539407 1_555
O2 P0 1.522582 1_555
O3 P0 1.536228 1_655
O4 P4 1.520687 1_455
O5 P0 1.652495 1_655
O5 P1 1.663088 1_555
O6 P2 1.545420 1_555
O7 P3 1.539668 1_555
O8 P2 1.510755 1_555
O9 P6 1.524261 1_556
O10 P2 1.568674 1_555
O11 P4 1.542432 1_555
O12 P1 1.528766 1_554
O13 P3 1.612276 1_555
O13 P5 1.617740 1_555
O14 P2 1.616495 1_555
O14 P4 1.625738 1_555
O15 P6 1.523868 1_556
O16 P3 1.548158 1_555
O17 P5 1.568204 1_555
O18 P1 1.511604 1_554
O19 P5 1.508370 1_555
O20 P4 1.538792 1_555
O21 P5 1.542477 1_555
O22 P6 1.651990 1_555
O22 P7 1.653284 1_455
O23 P3 1.512376 1_655
O24 P7 1.530958 1_455
O25 P7 1.520421 1_555
O26 P6 1.538731 1_555
O27 P7 1.541301 1_555
