# generated using pymatgen
data_Cs2HgC2SI4O
_symmetry_space_group_name_H-M   'P 1'
_cell_length_a   8.59705200
_cell_length_b   9.98899174
_cell_length_c   11.73326229
_cell_angle_alpha   81.95537752
_cell_angle_beta   73.48831921
_cell_angle_gamma   76.36303469
_symmetry_Int_Tables_number   1
_chemical_formula_structural   Cs2HgC2SI4O
_chemical_formula_sum   'Cs4 Hg2 C4 S2 I8 O2'
_cell_volume   935.93772260
_cell_formula_units_Z   2
loop_
 _symmetry_equiv_pos_site_id
 _symmetry_equiv_pos_as_xyz
  1  'x, y, z'
loop_
 _atom_site_type_symbol
 _atom_site_label
 _atom_site_symmetry_multiplicity
 _atom_site_fract_x
 _atom_site_fract_y
 _atom_site_fract_z
 _atom_site_occupancy
  Cs  Cs0  1  0.83018600  0.32546800  0.08394700  1
  Cs  Cs1  1  0.16981400  0.67453200  0.91605300  1
  Cs  Cs2  1  0.26372100  0.71692500  0.38917000  1
  Cs  Cs3  1  0.73627900  0.28307500  0.61083000  1
  Hg  Hg0  1  0.28037400  0.28510400  0.23293000  1
  Hg  Hg1  1  0.71962600  0.71489600  0.76707000  1
  C  C0  1  0.29259400  0.03513200  0.77206400  1
  C  C1  1  0.70740600  0.96486800  0.22793600  1
  C  C2  1  0.45008800  0.99260900  0.74242400  1
  C  C3  1  0.54991200  0.00739100  0.25757600  1
  S  S0  1  0.10152200  0.11326700  0.77832300  1
  S  S1  1  0.89847800  0.88673300  0.22167700  1
  I  I0  1  0.05349000  0.10769300  0.33340300  1
  I  I1  1  0.94651000  0.89230700  0.66659700  1
  I  I2  1  0.98215400  0.54275600  0.27388400  1
  I  I3  1  0.01784600  0.45724400  0.72611600  1
  I  I4  1  0.41456700  0.30525000  0.98635300  1
  I  I5  1  0.58543300  0.69475000  0.01364700  1
  I  I6  1  0.47215800  0.33046700  0.37762200  1
  I  I7  1  0.52784200  0.66953300  0.62237800  1
  O  O0  1  0.99524600  0.11795600  0.90239700  1
  O  O1  1  0.00475400  0.88204400  0.09760300  1
loop_
_geom_bond_atom_site_label_1
_geom_bond_atom_site_label_2
_geom_bond_distance
_geom_bond_site_symmetry_2
Cs0 O0 2.996427 1_554
Cs0 I5 3.897404 1_555
Cs0 I6 3.911110 1_555
Cs0 I2 3.966166 1_555
Cs0 I0 4.053051 1_655
Cs0 I4 4.104848 1_554
Cs0 I3 4.191348 1_654
Cs1 O1 2.996427 1_556
Cs1 I4 3.897404 1_555
Cs1 I7 3.911110 1_555
Cs1 I3 3.966166 1_555
Cs1 I1 4.053051 1_455
Cs1 I5 4.104848 1_556
Cs1 I2 4.191348 1_456
Cs2 I6 3.857209 1_555
Cs2 I2 3.901513 1_455
Cs2 I1 3.924200 1_455
Cs2 I7 3.940760 1_555
Cs2 I0 3.944847 1_565
Cs2 S1 4.081932 1_455
Cs2 I5 4.491069 1_555
Cs3 I7 3.857209 1_555
Cs3 I3 3.901513 1_655
Cs3 I0 3.924200 1_655
Cs3 I6 3.940760 1_555
Cs3 I1 3.944847 1_545
Cs3 S0 4.081932 1_655
Cs3 I4 4.491069 1_555
Hg0 I4 2.791246 1_554
Hg0 I6 2.822182 1_555
Hg0 I0 2.841308 1_555
Hg0 I2 3.156316 1_455
Hg1 I5 2.791246 1_556
Hg1 I7 2.822182 1_555
Hg1 I1 2.841308 1_555
Hg1 I3 3.156316 1_655
C0 C2 1.279507 1_545
C0 S0 1.629662 1_555
C1 C3 1.279507 1_565
C1 S1 1.629662 1_555
O0 S0 1.482953 1_655
O1 S1 1.482953 1_455
