# generated using pymatgen
data_Mg4Cu11O15
_symmetry_space_group_name_H-M   'P 1'
_cell_length_a   4.03951400
_cell_length_b   9.44412900
_cell_length_c   16.24109000
_cell_angle_alpha   90.00000000
_cell_angle_beta   90.00000000
_cell_angle_gamma   90.00000000
_symmetry_Int_Tables_number   1
_chemical_formula_structural   Mg4Cu11O15
_chemical_formula_sum   'Mg8 Cu22 O30'
_cell_volume   619.59257009
_cell_formula_units_Z   2
loop_
 _symmetry_equiv_pos_site_id
 _symmetry_equiv_pos_as_xyz
  1  'x, y, z'
loop_
 _atom_site_type_symbol
 _atom_site_label
 _atom_site_symmetry_multiplicity
 _atom_site_fract_x
 _atom_site_fract_y
 _atom_site_fract_z
 _atom_site_occupancy
  Mg  Mg0  1  0.00000000  0.00000000  0.07408200  1
  Mg  Mg1  1  0.00000000  0.00000000  0.27341100  1
  Mg  Mg2  1  0.00000000  0.00000000  0.47356400  1
  Mg  Mg3  1  0.00000000  0.00000000  0.67354700  1
  Mg  Mg4  1  0.00000000  0.00000000  0.87366300  1
  Mg  Mg5  1  0.50000000  0.50000000  0.12571800  1
  Mg  Mg6  1  0.50000000  0.50000000  0.32685800  1
  Mg  Mg7  1  0.50000000  0.50000000  0.72706300  1
  Cu  Cu0  1  0.00000000  0.33412200  0.03605900  1
  Cu  Cu1  1  0.00000000  0.33553200  0.23457300  1
  Cu  Cu2  1  0.00000000  0.33528400  0.43510700  1
  Cu  Cu3  1  0.00000000  0.33425000  0.63608900  1
  Cu  Cu4  1  0.00000000  0.33515000  0.83540700  1
  Cu  Cu5  1  0.00000000  0.66587800  0.03605900  1
  Cu  Cu6  1  0.00000000  0.66446800  0.23457300  1
  Cu  Cu7  1  0.00000000  0.66471600  0.43510700  1
  Cu  Cu8  1  0.00000000  0.66575000  0.63608900  1
  Cu  Cu9  1  0.00000000  0.66485000  0.83540700  1
  Cu  Cu10  1  0.50000000  0.83495400  0.16467000  1
  Cu  Cu11  1  0.50000000  0.83549900  0.36283000  1
  Cu  Cu12  1  0.50000000  0.83583100  0.56491100  1
  Cu  Cu13  1  0.50000000  0.16504600  0.16467000  1
  Cu  Cu14  1  0.50000000  0.83506100  0.76256100  1
  Cu  Cu15  1  0.50000000  0.83605100  0.96515200  1
  Cu  Cu16  1  0.50000000  0.16450100  0.36283000  1
  Cu  Cu17  1  0.50000000  0.16416900  0.56491100  1
  Cu  Cu18  1  0.50000000  0.50000000  0.52888000  1
  Cu  Cu19  1  0.50000000  0.16394900  0.96515200  1
  Cu  Cu20  1  0.50000000  0.16493900  0.76256100  1
  Cu  Cu21  1  0.50000000  0.50000000  0.92873800  1
  O  O0  1  0.00000000  0.84516900  0.37692600  1
  O  O1  1  0.00000000  0.84538800  0.57689800  1
  O  O2  1  0.00000000  0.84567400  0.17672800  1
  O  O3  1  0.00000000  0.15483100  0.37692600  1
  O  O4  1  0.00000000  0.15432600  0.17672800  1
  O  O5  1  0.00000000  0.15461200  0.57689800  1
  O  O6  1  0.00000000  0.50000000  0.10414800  1
  O  O7  1  0.00000000  0.84518700  0.77721200  1
  O  O8  1  0.00000000  0.50000000  0.30374400  1
  O  O9  1  0.00000000  0.50000000  0.50306500  1
  O  O10  1  0.00000000  0.84577000  0.97723900  1
  O  O11  1  0.00000000  0.15481300  0.77721200  1
  O  O12  1  0.00000000  0.50000000  0.70423900  1
  O  O13  1  0.00000000  0.15423000  0.97723900  1
  O  O14  1  0.00000000  0.50000000  0.90323600  1
  O  O15  1  0.50000000  0.00000000  0.09562500  1
  O  O16  1  0.50000000  0.00000000  0.29373600  1
  O  O17  1  0.50000000  0.00000000  0.49533100  1
  O  O18  1  0.50000000  0.34168500  0.02572800  1
  O  O19  1  0.50000000  0.34590800  0.22307300  1
  O  O20  1  0.50000000  0.65831500  0.02572800  1
  O  O21  1  0.50000000  0.65409200  0.22307300  1
  O  O22  1  0.50000000  0.00000000  0.69409900  1
  O  O23  1  0.50000000  0.00000000  0.89556000  1
  O  O24  1  0.50000000  0.34211600  0.42163700  1
  O  O25  1  0.50000000  0.34148400  0.62586300  1
  O  O26  1  0.50000000  0.65788400  0.42163700  1
  O  O27  1  0.50000000  0.65851600  0.62586300  1
  O  O28  1  0.50000000  0.34214000  0.82218400  1
  O  O29  1  0.50000000  0.65786000  0.82218400  1
loop_
_geom_bond_atom_site_label_1
_geom_bond_atom_site_label_2
_geom_bond_distance
_geom_bond_site_symmetry_2
Mg0 O15 2.049838 1_455
Mg0 O15 2.049838 1_555
Mg0 O10 2.143689 1_544
Mg0 O13 2.143689 1_554
Mg0 O2 2.214362 1_545
Mg0 O4 2.214362 1_555
Mg1 O16 2.046554 1_555
Mg1 O16 2.046554 1_455
Mg1 O2 2.142400 1_545
Mg1 O4 2.142400 1_555
Mg1 O3 2.228133 1_555
Mg1 O0 2.228133 1_545
Mg2 O17 2.050462 1_455
Mg2 O17 2.050462 1_555
Mg2 O3 2.145113 1_555
Mg2 O0 2.145113 1_545
Mg2 O1 2.224558 1_545
Mg2 O5 2.224558 1_555
Mg3 O22 2.047152 1_455
Mg3 O22 2.047152 1_555
Mg3 O1 2.143834 1_545
Mg3 O5 2.143834 1_555
Mg3 O11 2.229861 1_555
Mg3 O7 2.229861 1_545
Mg4 O23 2.050827 1_455
Mg4 O23 2.050827 1_555
Mg4 O11 2.142775 1_555
Mg4 O7 2.142775 1_545
Mg4 O13 2.225162 1_555
Mg4 O10 2.225162 1_545
Mg5 O6 2.049913 1_655
Mg5 O6 2.049913 1_555
Mg5 O21 2.148915 1_555
Mg5 O19 2.148915 1_555
Mg5 O18 2.207412 1_555
Mg5 O20 2.207412 1_555
Mg6 O8 2.054347 1_555
Mg6 O8 2.054347 1_655
Mg6 O26 2.143082 1_555
Mg6 O24 2.143082 1_555
Mg6 O21 2.226877 1_555
Mg6 O19 2.226877 1_555
Mg7 O12 2.053491 1_555
Mg7 O12 2.053491 1_655
Mg7 O28 2.146917 1_555
Mg7 O29 2.146917 1_555
Mg7 O25 2.223187 1_555
Mg7 O27 2.223187 1_555
Cu0 O6 1.917559 1_555
Cu0 O13 1.949087 1_554
Cu0 O18 2.027972 1_455
Cu0 O18 2.027972 1_555
Cu1 O8 1.916941 1_555
Cu1 O4 1.952244 1_555
Cu1 O19 2.030740 1_455
Cu1 O19 2.030740 1_555
Cu2 O9 1.907372 1_555
Cu2 O3 1.948653 1_555
Cu2 O24 2.032595 1_555
Cu2 O24 2.032595 1_455
Cu3 O12 1.917143 1_555
Cu3 O5 1.949960 1_555
Cu3 O25 2.027725 1_555
Cu3 O25 2.027725 1_455
Cu4 O14 1.907194 1_555
Cu4 O11 1.947806 1_555
Cu4 O28 2.032215 1_455
Cu4 O28 2.032215 1_555
Cu5 O6 1.917559 1_555
Cu5 O10 1.949087 1_554
Cu5 O20 2.027972 1_555
Cu5 O20 2.027972 1_455
Cu6 O8 1.916941 1_555
Cu6 O2 1.952244 1_555
Cu6 O21 2.030740 1_455
Cu6 O21 2.030740 1_555
Cu7 O9 1.907372 1_555
Cu7 O0 1.948653 1_555
Cu7 O26 2.032595 1_455
Cu7 O26 2.032595 1_555
Cu8 O12 1.917143 1_555
Cu8 O1 1.949960 1_555
Cu8 O27 2.027725 1_455
Cu8 O27 2.027725 1_555
Cu9 O14 1.907194 1_555
Cu9 O7 1.947806 1_555
Cu9 O29 2.032215 1_455
Cu9 O29 2.032215 1_555
Cu10 O15 1.920171 1_565
Cu10 O21 1.953780 1_555
Cu10 O2 2.031753 1_555
Cu10 O2 2.031753 1_655
Cu11 O16 1.916461 1_565
Cu11 O26 1.930267 1_555
Cu11 O0 2.034741 1_555
Cu11 O0 2.034741 1_655
Cu12 O17 1.918559 1_565
Cu12 O27 1.945300 1_555
Cu12 O1 2.031124 1_555
Cu12 O1 2.031124 1_655
Cu13 O15 1.920171 1_555
Cu13 O19 1.953780 1_555
Cu13 O4 2.031753 1_555
Cu13 O4 2.031753 1_655
Cu14 O22 1.913834 1_565
Cu14 O29 1.933474 1_555
Cu14 O7 2.035972 1_655
Cu14 O7 2.035972 1_555
Cu15 O23 1.916995 1_565
Cu15 O20 1.945629 1_556
Cu15 O10 2.031349 1_655
Cu15 O10 2.031349 1_555
Cu16 O16 1.916461 1_555
Cu16 O24 1.930267 1_555
Cu16 O3 2.034741 1_655
Cu16 O3 2.034741 1_555
Cu17 O17 1.918559 1_555
Cu17 O25 1.945300 1_555
Cu17 O5 2.031124 1_555
Cu17 O5 2.031124 1_655
Cu18 O9 2.062814 1_655
Cu18 O9 2.062814 1_555
Cu18 O27 2.173043 1_555
Cu18 O25 2.173043 1_555
Cu18 O26 2.292810 1_555
Cu18 O24 2.292810 1_555
Cu19 O23 1.916995 1_555
Cu19 O18 1.945629 1_556
Cu19 O13 2.031349 1_655
Cu19 O13 2.031349 1_555
Cu20 O22 1.913834 1_555
Cu20 O28 1.933474 1_555
Cu20 O11 2.035972 1_655
Cu20 O11 2.035972 1_555
Cu21 O14 2.061787 1_655
Cu21 O14 2.061787 1_555
Cu21 O20 2.171818 1_556
Cu21 O18 2.171818 1_556
Cu21 O29 2.284173 1_555
Cu21 O28 2.284173 1_555
