# generated using pymatgen
data_LiVOF3
_symmetry_space_group_name_H-M   'P 1'
_cell_length_a   5.54710100
_cell_length_b   5.54710100
_cell_length_c   9.75686200
_cell_angle_alpha   90.00000000
_cell_angle_beta   90.00000000
_cell_angle_gamma   90.00000000
_symmetry_Int_Tables_number   1
_chemical_formula_structural   LiVOF3
_chemical_formula_sum   'Li4 V4 O4 F12'
_cell_volume   300.22185867
_cell_formula_units_Z   4
loop_
 _symmetry_equiv_pos_site_id
 _symmetry_equiv_pos_as_xyz
  1  'x, y, z'
loop_
 _atom_site_type_symbol
 _atom_site_label
 _atom_site_symmetry_multiplicity
 _atom_site_fract_x
 _atom_site_fract_y
 _atom_site_fract_z
 _atom_site_occupancy
  Li  Li0  1  0.09345000  0.85272300  0.75272400  1
  Li  Li1  1  0.14727700  0.09345000  0.00272400  1
  Li  Li2  1  0.85272300  0.90655000  0.50272400  1
  Li  Li3  1  0.90655000  0.14727700  0.25272400  1
  V  V0  1  0.13718700  0.41560600  0.50305400  1
  V  V1  1  0.41560600  0.86281300  0.25305400  1
  V  V2  1  0.58439400  0.13718700  0.75305400  1
  V  V3  1  0.86281300  0.58439400  0.00305400  1
  O  O0  1  0.07904400  0.66794900  0.58452300  1
  O  O1  1  0.33205100  0.07904400  0.83452300  1
  O  O2  1  0.66794900  0.92095600  0.33452300  1
  O  O3  1  0.92095600  0.33205100  0.08452300  1
  F  F0  1  0.03900600  0.81871800  0.12019200  1
  F  F1  1  0.12816000  0.60196900  0.88322600  1
  F  F2  1  0.18128200  0.03900600  0.37019200  1
  F  F3  1  0.31497800  0.55967700  0.34400700  1
  F  F4  1  0.39803100  0.12816000  0.13322600  1
  F  F5  1  0.44032300  0.31497800  0.59400700  1
  F  F6  1  0.55967700  0.68502200  0.09400700  1
  F  F7  1  0.60196900  0.87184000  0.63322600  1
  F  F8  1  0.68502200  0.44032300  0.84400700  1
  F  F9  1  0.81871800  0.96099400  0.87019200  1
  F  F10  1  0.87184000  0.39803100  0.38322600  1
  F  F11  1  0.96099400  0.18128200  0.62019200  1
loop_
_geom_bond_atom_site_label_1
_geom_bond_atom_site_label_2
_geom_bond_distance
_geom_bond_site_symmetry_2
Li0 O0 1.936539 1_555
Li0 O1 1.991187 1_565
Li1 O1 1.936539 1_554
Li1 O3 1.991187 1_455
Li2 O2 1.936539 1_555
Li2 O0 1.991187 1_655
Li3 O3 1.936539 1_555
Li3 O2 1.991187 1_545
O0 V0 1.641713 1_555
O1 V2 1.641713 1_555
O2 V1 1.641713 1_555
O3 V3 1.641713 1_555
F0 V3 1.987708 1_455
F0 Li1 1.999192 1_565
F0 Li3 2.352369 1_465
F0 V1 2.470697 1_555
F1 V3 1.882263 1_456
F1 Li0 1.895548 1_555
F2 V1 1.987708 1_545
F2 Li3 1.999192 1_455
F2 Li2 2.352369 1_445
F2 V0 2.470697 1_555
F3 V1 1.981569 1_555
F3 V0 2.004845 1_555
F4 V1 1.882263 1_545
F4 Li1 1.895548 1_555
F5 V0 1.981569 1_555
F5 V2 2.004845 1_555
F6 V3 1.981569 1_555
F6 V1 2.004845 1_555
F7 V2 1.882263 1_565
F7 Li2 1.895548 1_555
F8 V2 1.981569 1_555
F8 V3 2.004845 1_556
F9 V2 1.987708 1_565
F9 Li0 1.999192 1_655
F9 Li1 2.352369 1_666
F9 V3 2.470697 1_556
F10 V0 1.882263 1_655
F10 Li3 1.895548 1_555
F11 V0 1.987708 1_655
F11 Li2 1.999192 1_545
F11 Li0 2.352369 1_645
F11 V2 2.470697 1_555
