# generated using pymatgen
data_MgSO3
_symmetry_space_group_name_H-M   'P 1'
_cell_length_a   11.99190000
_cell_length_b   5.34505200
_cell_length_c   8.09343528
_cell_angle_alpha   80.11213058
_cell_angle_beta   90.00000000
_cell_angle_gamma   90.00000000
_symmetry_Int_Tables_number   1
_chemical_formula_structural   MgSO3
_chemical_formula_sum   'Mg8 S8 O24'
_cell_volume   511.06165748
_cell_formula_units_Z   8
loop_
 _symmetry_equiv_pos_site_id
 _symmetry_equiv_pos_as_xyz
  1  'x, y, z'
loop_
 _atom_site_type_symbol
 _atom_site_label
 _atom_site_symmetry_multiplicity
 _atom_site_fract_x
 _atom_site_fract_y
 _atom_site_fract_z
 _atom_site_occupancy
  Mg  Mg0  1  0.42128000  0.33133600  0.88192200  1
  Mg  Mg1  1  0.75623600  0.12051900  0.84620300  1
  Mg  Mg2  1  0.25623600  0.87948100  0.65379700  1
  Mg  Mg3  1  0.92128000  0.66866400  0.61807800  1
  Mg  Mg4  1  0.07872000  0.33133600  0.38192200  1
  Mg  Mg5  1  0.74376400  0.12051900  0.34620300  1
  Mg  Mg6  1  0.24376400  0.87948100  0.15379700  1
  Mg  Mg7  1  0.57872000  0.66866400  0.11807800  1
  S  S0  1  0.17388000  0.47538500  0.98448000  1
  S  S1  1  0.52141500  0.91166100  0.74284300  1
  S  S2  1  0.02141500  0.08833900  0.75715700  1
  S  S3  1  0.67388000  0.52461500  0.51552000  1
  S  S4  1  0.32612000  0.47538500  0.48448000  1
  S  S5  1  0.97858500  0.91166100  0.24284300  1
  S  S6  1  0.47858500  0.08833900  0.25715700  1
  S  S7  1  0.82612000  0.52461500  0.01552000  1
  O  O0  1  0.26144700  0.25594100  0.99856800  1
  O  O1  1  0.24218700  0.72101700  0.91862200  1
  O  O2  1  0.51765400  0.66181300  0.87184900  1
  O  O3  1  0.84393500  0.47487900  0.83366400  1
  O  O4  1  0.90214700  0.97344400  0.76043200  1
  O  O5  1  0.58172900  0.09771400  0.84284300  1
  O  O6  1  0.08172900  0.90228600  0.65715700  1
  O  O7  1  0.40214700  0.02655600  0.73956800  1
  O  O8  1  0.34393500  0.52512100  0.66633600  1
  O  O9  1  0.01765400  0.33818700  0.62815100  1
  O  O10  1  0.74218700  0.27898300  0.58137800  1
  O  O11  1  0.76144700  0.74405900  0.50143200  1
  O  O12  1  0.23855300  0.25594100  0.49856800  1
  O  O13  1  0.25781300  0.72101700  0.41862200  1
  O  O14  1  0.98234600  0.66181300  0.37184900  1
  O  O15  1  0.65606500  0.47487900  0.33366400  1
  O  O16  1  0.59785300  0.97344400  0.26043200  1
  O  O17  1  0.91827100  0.09771400  0.34284300  1
  O  O18  1  0.41827100  0.90228600  0.15715700  1
  O  O19  1  0.09785300  0.02655600  0.23956800  1
  O  O20  1  0.15606500  0.52512100  0.16633600  1
  O  O21  1  0.48234600  0.33818700  0.12815100  1
  O  O22  1  0.75781300  0.27898300  0.08137800  1
  O  O23  1  0.73855300  0.74405900  0.00143200  1
loop_
_geom_bond_atom_site_label_1
_geom_bond_atom_site_label_2
_geom_bond_distance
_geom_bond_site_symmetry_2
Mg0 O8 2.087316 1_555
Mg0 O2 2.100732 1_555
Mg0 O21 2.129335 1_556
Mg0 O0 2.144002 1_555
Mg0 O7 2.162986 1_555
Mg0 O5 2.344589 1_555
Mg1 O4 2.085408 1_545
Mg1 O5 2.096665 1_555
Mg1 O3 2.153560 1_555
Mg1 O10 2.171688 1_555
Mg1 O23 2.191819 1_546
Mg1 O22 2.212301 1_556
Mg2 O7 2.085408 1_565
Mg2 O6 2.096665 1_555
Mg2 O8 2.153560 1_555
Mg2 O1 2.171688 1_555
Mg2 O12 2.191819 1_565
Mg2 O13 2.212301 1_555
Mg3 O3 2.087316 1_555
Mg3 O9 2.100732 1_655
Mg3 O14 2.129335 1_555
Mg3 O11 2.144002 1_555
Mg3 O4 2.162986 1_555
Mg3 O6 2.344589 1_655
Mg4 O20 2.087316 1_555
Mg4 O14 2.100732 1_455
Mg4 O9 2.129335 1_555
Mg4 O12 2.144002 1_555
Mg4 O19 2.162986 1_555
Mg4 O17 2.344589 1_455
Mg5 O16 2.085408 1_545
Mg5 O17 2.096665 1_555
Mg5 O15 2.153560 1_555
Mg5 O22 2.171688 1_555
Mg5 O11 2.191819 1_545
Mg5 O10 2.212301 1_555
Mg6 O19 2.085408 1_565
Mg6 O18 2.096665 1_555
Mg6 O20 2.153560 1_555
Mg6 O13 2.171688 1_555
Mg6 O0 2.191819 1_564
Mg6 O1 2.212301 1_554
Mg7 O15 2.087316 1_555
Mg7 O21 2.100732 1_555
Mg7 O2 2.129335 1_554
Mg7 O23 2.144002 1_555
Mg7 O16 2.162986 1_555
Mg7 O18 2.344589 1_555
O0 S0 1.563827 1_555
O1 S0 1.561566 1_555
O2 S1 1.548139 1_555
O3 S7 1.554672 1_556
O4 S2 1.554950 1_665
O5 S1 1.563186 1_545
O6 S2 1.563186 1_565
O7 S1 1.554950 1_545
O8 S4 1.554672 1_555
O9 S2 1.548139 1_555
O10 S3 1.561566 1_555
O11 S3 1.563827 1_555
O12 S4 1.563827 1_555
O13 S4 1.561566 1_555
O14 S5 1.548139 1_555
O15 S3 1.554672 1_555
O16 S6 1.554950 1_565
O17 S5 1.563186 1_545
O18 S6 1.563186 1_565
O19 S5 1.554950 1_445
O20 S0 1.554672 1_554
O21 S6 1.548139 1_555
O22 S7 1.561566 1_555
O23 S7 1.563827 1_555
