# generated using pymatgen
data_ZnNi9O10
_symmetry_space_group_name_H-M   'P 1'
_cell_length_a   5.19347400
_cell_length_b   5.99482744
_cell_length_c   6.71378981
_cell_angle_alpha   102.91345663
_cell_angle_beta   97.48037993
_cell_angle_gamma   106.77088247
_symmetry_Int_Tables_number   1
_chemical_formula_structural   ZnNi9O10
_chemical_formula_sum   'Zn1 Ni9 O10'
_cell_volume   190.78341190
_cell_formula_units_Z   1
loop_
 _symmetry_equiv_pos_site_id
 _symmetry_equiv_pos_as_xyz
  1  'x, y, z'
loop_
 _atom_site_type_symbol
 _atom_site_label
 _atom_site_symmetry_multiplicity
 _atom_site_fract_x
 _atom_site_fract_y
 _atom_site_fract_z
 _atom_site_occupancy
  Zn  Zn0  1  0.00000000  0.00000000  0.00000000  1
  Ni  Ni0  1  0.00000000  0.50000000  0.00000000  1
  Ni  Ni1  1  0.40027800  0.79946600  0.79939800  1
  Ni  Ni2  1  0.40024200  0.30019900  0.79908700  1
  Ni  Ni3  1  0.20033300  0.40068400  0.40124300  1
  Ni  Ni4  1  0.79966700  0.59931600  0.59875700  1
  Ni  Ni5  1  0.79946700  0.10017200  0.59970200  1
  Ni  Ni6  1  0.20053300  0.89982800  0.40029800  1
  Ni  Ni7  1  0.59975800  0.69980100  0.20091300  1
  Ni  Ni8  1  0.59972200  0.20053400  0.20060200  1
  O  O0  1  0.69615700  0.15153200  0.89929000  1
  O  O1  1  0.09920600  0.45032200  0.70047400  1
  O  O2  1  0.69659400  0.64597700  0.89845400  1
  O  O3  1  0.10059200  0.94893300  0.69617500  1
  O  O4  1  0.50006100  0.25002400  0.49893200  1
  O  O5  1  0.49993900  0.74997600  0.50106800  1
  O  O6  1  0.30340600  0.35402300  0.10154600  1
  O  O7  1  0.90079400  0.54967800  0.29952600  1
  O  O8  1  0.89940800  0.05106700  0.30382500  1
  O  O9  1  0.30384300  0.84846800  0.10071000  1
loop_
_geom_bond_atom_site_label_1
_geom_bond_atom_site_label_2
_geom_bond_distance
_geom_bond_site_symmetry_2
Ni0 O1 2.118662 1_554
Ni0 O7 2.118662 1_455
Ni0 O2 2.120437 1_454
Ni0 O6 2.120437 1_555
Ni0 O0 2.121256 1_454
Ni0 O9 2.121256 1_555
Ni1 O5 2.112006 1_555
Ni1 O2 2.116927 1_555
Ni1 O1 2.118135 1_555
Ni1 O0 2.119662 1_565
Ni1 O3 2.122984 1_555
Ni1 O9 2.124272 1_556
Ni2 O2 2.093836 1_555
Ni2 O0 2.097123 1_555
Ni2 O1 2.121635 1_555
Ni2 O4 2.123967 1_555
Ni2 O3 2.124170 1_545
Ni2 O6 2.132430 1_556
Ni3 O5 2.115625 1_555
Ni3 O4 2.116428 1_555
Ni3 O7 2.117092 1_455
Ni3 O8 2.119882 1_455
Ni3 O1 2.120867 1_555
Ni3 O6 2.128063 1_555
Ni4 O4 2.115625 1_555
Ni4 O5 2.116428 1_555
Ni4 O1 2.117092 1_655
Ni4 O3 2.119882 1_655
Ni4 O7 2.120867 1_555
Ni4 O2 2.128063 1_555
Ni5 O8 2.096983 1_555
Ni5 O4 2.118130 1_555
Ni5 O5 2.119315 1_545
Ni5 O1 2.119550 1_655
Ni5 O3 2.122323 1_645
Ni5 O0 2.127865 1_555
Ni6 O3 2.096983 1_555
Ni6 O5 2.118130 1_555
Ni6 O4 2.119315 1_565
Ni6 O7 2.119550 1_455
Ni6 O8 2.122323 1_465
Ni6 O9 2.127865 1_555
Ni7 O6 2.093836 1_555
Ni7 O9 2.097123 1_555
Ni7 O7 2.121635 1_555
Ni7 O5 2.123967 1_555
Ni7 O8 2.124170 1_565
Ni7 O2 2.132430 1_554
Ni8 O4 2.112006 1_555
Ni8 O6 2.116927 1_555
Ni8 O7 2.118135 1_555
Ni8 O9 2.119662 1_545
Ni8 O8 2.122984 1_555
Ni8 O0 2.124272 1_554
O0 Zn0 2.143928 1_656
O2 Zn0 2.143734 1_666
O3 Zn0 2.148988 1_566
O6 Zn0 2.143734 1_555
O8 Zn0 2.148988 1_655
O9 Zn0 2.143928 1_565
