# generated using pymatgen
data_K2TeH6(O3F)2
_symmetry_space_group_name_H-M   'P 1'
_cell_length_a   8.31273200
_cell_length_b   10.03538600
_cell_length_c   11.16602400
_cell_angle_alpha   90.00000000
_cell_angle_beta   90.00000000
_cell_angle_gamma   90.00000000
_symmetry_Int_Tables_number   1
_chemical_formula_structural   K2TeH6(O3F)2
_chemical_formula_sum   'K8 Te4 H24 O24 F8'
_cell_volume   931.48618453
_cell_formula_units_Z   4
loop_
 _symmetry_equiv_pos_site_id
 _symmetry_equiv_pos_as_xyz
  1  'x, y, z'
loop_
 _atom_site_type_symbol
 _atom_site_label
 _atom_site_symmetry_multiplicity
 _atom_site_fract_x
 _atom_site_fract_y
 _atom_site_fract_z
 _atom_site_occupancy
  K  K0  1  0.21309800  0.76138500  0.74411700  1
  K  K1  1  0.28690200  0.26138500  0.25588300  1
  K  K2  1  0.71309800  0.23861500  0.75588300  1
  K  K3  1  0.78690200  0.73861500  0.24411700  1
  K  K4  1  0.78690200  0.23861500  0.25588300  1
  K  K5  1  0.71309800  0.73861500  0.74411700  1
  K  K6  1  0.28690200  0.76138500  0.24411700  1
  K  K7  1  0.21309800  0.26138500  0.75588300  1
  Te  Te0  1  0.00000000  0.50000000  0.50000000  1
  Te  Te1  1  0.50000000  0.00000000  0.50000000  1
  Te  Te2  1  0.50000000  0.50000000  0.00000000  1
  Te  Te3  1  0.00000000  0.00000000  0.00000000  1
  H  H0  1  0.04035500  0.72852300  0.43552000  1
  H  H1  1  0.45964500  0.22852300  0.56448000  1
  H  H2  1  0.54035500  0.27147700  0.06448000  1
  H  H3  1  0.95964500  0.77147700  0.93552000  1
  H  H4  1  0.95964500  0.27147700  0.56448000  1
  H  H5  1  0.54035500  0.77147700  0.43552000  1
  H  H6  1  0.45964500  0.72852300  0.93552000  1
  H  H7  1  0.04035500  0.22852300  0.06448000  1
  H  H8  1  0.76221600  0.61437100  0.00396400  1
  H  H9  1  0.73778400  0.11437100  0.99603600  1
  H  H10  1  0.26221600  0.38562900  0.49603600  1
  H  H11  1  0.23778400  0.88562900  0.50396400  1
  H  H12  1  0.23778400  0.38562900  0.99603600  1
  H  H13  1  0.26221600  0.88562900  0.00396400  1
  H  H14  1  0.73778400  0.61437100  0.50396400  1
  H  H15  1  0.76221600  0.11437100  0.49603600  1
  H  H16  1  0.34811300  0.55396300  0.49140400  1
  H  H17  1  0.15188700  0.05396300  0.50859600  1
  H  H18  1  0.84811300  0.44603700  0.00859600  1
  H  H19  1  0.65188700  0.94603700  0.99140400  1
  H  H20  1  0.65188700  0.44603700  0.50859600  1
  H  H21  1  0.84811300  0.94603700  0.49140400  1
  H  H22  1  0.15188700  0.55396300  0.99140400  1
  H  H23  1  0.34811300  0.05396300  0.00859600  1
  O  O0  1  0.97961900  0.62418700  0.62218400  1
  O  O1  1  0.52038100  0.12418700  0.37781600  1
  O  O2  1  0.47961900  0.37581300  0.87781600  1
  O  O3  1  0.02038100  0.87581300  0.12218400  1
  O  O4  1  0.02038100  0.37581300  0.37781600  1
  O  O5  1  0.47961900  0.87581300  0.62218400  1
  O  O6  1  0.52038100  0.62418700  0.12218400  1
  O  O7  1  0.97961900  0.12418700  0.87781600  1
  O  O8  1  0.24281000  0.46633800  0.54226200  1
  O  O9  1  0.25719000  0.96633800  0.45773800  1
  O  O10  1  0.74281000  0.53366200  0.95773800  1
  O  O11  1  0.75719000  0.03366200  0.04226200  1
  O  O12  1  0.75719000  0.53366200  0.45773800  1
  O  O13  1  0.74281000  0.03366200  0.54226200  1
  O  O14  1  0.25719000  0.46633800  0.04226200  1
  O  O15  1  0.24281000  0.96633800  0.95773800  1
  O  O16  1  0.06361500  0.64746000  0.38792400  1
  O  O17  1  0.43638500  0.14746000  0.61207600  1
  O  O18  1  0.56361500  0.35254000  0.11207600  1
  O  O19  1  0.93638500  0.85254000  0.88792400  1
  O  O20  1  0.93638500  0.35254000  0.61207600  1
  O  O21  1  0.56361500  0.85254000  0.38792400  1
  O  O22  1  0.43638500  0.64746000  0.88792400  1
  O  O23  1  0.06361500  0.14746000  0.11207600  1
  F  F0  1  0.57441200  0.87929800  0.94864800  1
  F  F1  1  0.92558800  0.37929800  0.05135200  1
  F  F2  1  0.07441200  0.12070200  0.55135200  1
  F  F3  1  0.42558800  0.62070200  0.44864800  1
  F  F4  1  0.42558800  0.12070200  0.05135200  1
  F  F5  1  0.07441200  0.62070200  0.94864800  1
  F  F6  1  0.92558800  0.87929800  0.44864800  1
  F  F7  1  0.57441200  0.37929800  0.55135200  1
loop_
_geom_bond_atom_site_label_1
_geom_bond_atom_site_label_2
_geom_bond_distance
_geom_bond_site_symmetry_2
K0 O22 2.707533 1_555
K0 O0 2.741581 1_455
K0 O5 2.842689 1_555
K0 O19 2.950655 1_455
K0 O15 3.159272 1_555
K1 O23 2.707533 1_555
K1 O1 2.741581 1_555
K1 O4 2.842689 1_555
K1 O18 2.950655 1_555
K1 O14 3.159272 1_555
K2 O20 2.707533 1_555
K2 O2 2.741581 1_555
K2 O7 2.842689 1_555
K2 O17 2.950655 1_555
K2 O13 3.159272 1_555
K3 O21 2.707533 1_555
K3 O3 2.741581 1_655
K3 O6 2.842689 1_555
K3 O16 2.950655 1_655
K3 O12 3.159272 1_555
K4 O18 2.707533 1_555
K4 O4 2.741581 1_655
K4 O1 2.842689 1_555
K4 O23 2.950655 1_655
K4 O11 3.159272 1_555
K5 O19 2.707533 1_555
K5 O5 2.741581 1_555
K5 O0 2.842689 1_555
K5 O22 2.950655 1_555
K5 O10 3.159272 1_555
K6 O16 2.707533 1_555
K6 O6 2.741581 1_555
K6 O3 2.842689 1_555
K6 O21 2.950655 1_555
K6 O9 3.159272 1_555
K7 O17 2.707533 1_555
K7 O7 2.741581 1_455
K7 O2 2.842689 1_555
K7 O20 2.950655 1_455
K7 O8 3.159272 1_555
H0 O16 0.990764 1_555
H1 O17 0.990764 1_555
H2 O18 0.990764 1_555
H3 O19 0.990764 1_555
H4 O20 0.990764 1_555
H5 O21 0.990764 1_555
H6 O22 0.990764 1_555
H7 O23 0.990764 1_555
H8 O10 0.973888 1_554
H8 K3 2.964362 1_555
H9 O11 0.973888 1_556
H9 K2 2.964362 1_555
H10 O8 0.973888 1_555
H10 K1 2.964362 1_555
H11 O9 0.973888 1_555
H11 K0 2.964362 1_555
H12 O14 0.973888 1_556
H12 K7 2.964362 1_555
H13 O15 0.973888 1_554
H13 K6 2.964362 1_555
H14 O12 0.973888 1_555
H14 K5 2.964362 1_555
H15 O13 0.973888 1_555
H15 K4 2.964362 1_555
H16 O8 1.364549 1_555
H17 O9 1.364549 1_545
H18 O10 1.364549 1_554
H19 O11 1.364549 1_566
H20 O12 1.364549 1_555
H21 O13 1.364549 1_565
H22 O14 1.364549 1_556
H23 O15 1.364549 1_544
O0 Te0 1.855591 1_655
O1 Te1 1.855591 1_555
O2 Te2 1.855591 1_556
O3 Te3 1.855591 1_565
O4 Te0 1.855591 1_555
O5 Te1 1.855591 1_565
O6 Te2 1.855591 1_555
O7 Te3 1.855591 1_656
O8 Te0 2.100191 1_555
O9 Te1 2.100191 1_565
O10 Te2 2.100191 1_556
O11 Te3 2.100191 1_655
O12 Te0 2.100191 1_655
O13 Te1 2.100191 1_555
O14 Te2 2.100191 1_555
O15 Te3 2.100191 1_566
O16 Te0 2.008884 1_555
O17 Te1 2.008884 1_555
O18 Te2 2.008884 1_555
O19 Te3 2.008884 1_666
O20 Te0 2.008884 1_655
O21 Te1 2.008884 1_565
O22 Te2 2.008884 1_556
O23 Te3 2.008884 1_555
F0 H19 1.044636 1_555
F0 K5 2.921989 1_555
F1 H18 1.044636 1_555
F1 K4 2.921989 1_555
F2 H17 1.044636 1_555
F2 K7 2.921989 1_555
F3 H16 1.044636 1_555
F3 K6 2.921989 1_555
F4 H23 1.044636 1_555
F4 K1 2.921989 1_555
F5 H22 1.044636 1_555
F5 K0 2.921989 1_555
F6 H21 1.044636 1_555
F6 K3 2.921989 1_555
F7 H20 1.044636 1_555
F7 K2 2.921989 1_555
