# generated using pymatgen
data_Li4Ti3V2Ni3O16
_symmetry_space_group_name_H-M   'P 1'
_cell_length_a   5.92573954
_cell_length_b   5.92573954
_cell_length_c   9.57950931
_cell_angle_alpha   89.92364414
_cell_angle_beta   89.92364414
_cell_angle_gamma   59.68667854
_symmetry_Int_Tables_number   1
_chemical_formula_structural   Li4Ti3V2Ni3O16
_chemical_formula_sum   'Li4 Ti3 V2 Ni3 O16'
_cell_volume   290.38799231
_cell_formula_units_Z   1
loop_
 _symmetry_equiv_pos_site_id
 _symmetry_equiv_pos_as_xyz
  1  'x, y, z'
loop_
 _atom_site_type_symbol
 _atom_site_label
 _atom_site_symmetry_multiplicity
 _atom_site_fract_x
 _atom_site_fract_y
 _atom_site_fract_z
 _atom_site_occupancy
  Li  Li0  1  0.66753100  0.66753100  0.09727700  1
  Li  Li1  1  0.99390200  0.99390200  0.01503700  1
  Li  Li2  1  0.99851300  0.99851300  0.50404700  1
  Li  Li3  1  0.33610600  0.33610600  0.59466800  1
  Ti  Ti0  1  0.34924900  0.84639600  0.77754300  1
  Ti  Ti1  1  0.84639600  0.34924900  0.77754300  1
  Ti  Ti2  1  0.18197900  0.18197900  0.26359300  1
  V  V0  1  0.66589600  0.66589600  0.49759500  1
  V  V1  1  0.35548100  0.35548100  0.01352200  1
  Ni  Ni0  1  0.82918100  0.82918100  0.79177300  1
  Ni  Ni1  1  0.16750500  0.65803800  0.29190800  1
  Ni  Ni2  1  0.65803800  0.16750500  0.29190800  1
  O  O0  1  0.35508100  0.82250000  0.41416100  1
  O  O1  1  0.51987400  0.51987400  0.66298000  1
  O  O2  1  0.65465600  0.65465600  0.89588200  1
  O  O3  1  0.00101900  0.00101900  0.69599700  1
  O  O4  1  0.00598600  0.00598600  0.20583400  1
  O  O5  1  0.82250000  0.35508100  0.41416100  1
  O  O6  1  0.50947100  0.96215200  0.65623700  1
  O  O7  1  0.96215200  0.50947100  0.65623700  1
  O  O8  1  0.16459500  0.16459500  0.89899900  1
  O  O9  1  0.82205500  0.82205500  0.41733000  1
  O  O10  1  0.03542500  0.47428700  0.14759000  1
  O  O11  1  0.47428700  0.03542500  0.14759000  1
  O  O12  1  0.32070100  0.32070100  0.39457600  1
  O  O13  1  0.17553300  0.64844200  0.91164400  1
  O  O14  1  0.47817200  0.47817200  0.14487600  1
  O  O15  1  0.64844200  0.17553300  0.91164400  1
loop_
_geom_bond_atom_site_label_1
_geom_bond_atom_site_label_2
_geom_bond_distance
_geom_bond_site_symmetry_2
Li0 O2 1.934003 1_554
Li0 O10 1.943579 1_655
Li0 O11 1.943579 1_565
Li0 O14 1.998591 1_555
Li1 O4 1.832149 1_665
Li1 O15 2.026941 1_564
Li1 O13 2.026941 1_654
Li1 O8 2.075716 1_664
Li2 O3 1.839007 1_665
Li2 O9 1.996286 1_555
Li2 O5 2.016598 1_565
Li2 O0 2.016598 1_655
Li3 O12 1.923556 1_555
Li3 O1 2.000189 1_555
Li3 O6 2.003450 1_545
Li3 O7 2.003450 1_455
Ni0 O3 1.989274 1_665
Ni0 O2 2.051315 1_555
Ni0 O7 2.095889 1_555
Ni0 O6 2.095889 1_555
Ni0 O15 2.112360 1_565
Ni0 O13 2.112360 1_655
Ni1 O4 1.962817 1_565
Ni1 O12 1.988112 1_555
Ni1 O14 2.127275 1_555
Ni1 O9 2.136998 1_455
Ni1 O10 2.139313 1_555
Ni1 O0 2.157960 1_555
Ni2 O4 1.962817 1_655
Ni2 O12 1.988112 1_555
Ni2 O14 2.127275 1_555
Ni2 O9 2.136998 1_545
Ni2 O11 2.139313 1_555
Ni2 O5 2.157960 1_555
O0 V0 1.780123 1_555
O0 Ti2 2.336730 1_565
O1 Ti0 1.999588 1_555
O1 Ti1 1.999588 1_555
O1 V0 2.180819 1_555
O2 Ti1 1.943616 1_555
O2 Ti0 1.943616 1_555
O3 Ti0 1.949786 1_545
O3 Ti1 1.949786 1_455
O4 Ti2 1.892711 1_555
O5 V0 1.780123 1_555
O5 Ti2 2.336730 1_655
O6 Ti0 1.837022 1_555
O6 V0 2.147403 1_555
O7 Ti1 1.837022 1_555
O7 V0 2.147403 1_555
O8 Ti1 2.006513 1_455
O8 Ti0 2.006513 1_545
O8 V1 2.249605 1_556
O9 V0 1.778868 1_555
O10 Ti2 1.862347 1_555
O10 V1 2.095264 1_555
O11 Ti2 1.862347 1_555
O11 V1 2.095264 1_555
O12 Ti2 1.900920 1_555
O13 V1 1.798011 1_556
O13 Ti0 2.301582 1_555
O14 V1 1.782961 1_555
O15 V1 1.798011 1_556
O15 Ti1 2.301582 1_555
