# generated using pymatgen
data_Sn2P2O7
_symmetry_space_group_name_H-M   'P 1'
_cell_length_a   11.92741779
_cell_length_b   11.92741779
_cell_length_c   9.65681602
_cell_angle_alpha   76.95164849
_cell_angle_beta   76.95164849
_cell_angle_gamma   48.48237876
_symmetry_Int_Tables_number   1
_chemical_formula_structural   Sn2P2O7
_chemical_formula_sum   'Sn12 P12 O42'
_cell_volume   996.61212165
_cell_formula_units_Z   6
loop_
 _symmetry_equiv_pos_site_id
 _symmetry_equiv_pos_as_xyz
  1  'x, y, z'
loop_
 _atom_site_type_symbol
 _atom_site_label
 _atom_site_symmetry_multiplicity
 _atom_site_fract_x
 _atom_site_fract_y
 _atom_site_fract_z
 _atom_site_occupancy
  Sn  Sn0  1  0.81024000  0.18639000  0.00892600  1
  Sn  Sn1  1  0.51925500  0.15354400  0.16411900  1
  Sn  Sn2  1  0.13305000  0.52166400  0.17565800  1
  Sn  Sn3  1  0.48091900  0.86591500  0.32209800  1
  Sn  Sn4  1  0.85022400  0.47788900  0.33688600  1
  Sn  Sn5  1  0.80719600  0.19402100  0.49033300  1
  Sn  Sn6  1  0.18639000  0.81024000  0.50892600  1
  Sn  Sn7  1  0.15354400  0.51925500  0.66411900  1
  Sn  Sn8  1  0.52166400  0.13305000  0.67565800  1
  Sn  Sn9  1  0.86591500  0.48091900  0.82209800  1
  Sn  Sn10  1  0.47788900  0.85022400  0.83688600  1
  Sn  Sn11  1  0.19402100  0.80719600  0.99033300  1
  P  P0  1  0.77899500  0.74405900  0.02766300  1
  P  P1  1  0.54860800  0.58004700  0.14988800  1
  P  P2  1  0.08869400  0.11127600  0.18084200  1
  P  P3  1  0.88584300  0.90970000  0.32310700  1
  P  P4  1  0.41456400  0.45184700  0.35447800  1
  P  P5  1  0.25241200  0.22055000  0.47133400  1
  P  P6  1  0.74405900  0.77899500  0.52766300  1
  P  P7  1  0.58004700  0.54860800  0.64988800  1
  P  P8  1  0.11127600  0.08869400  0.68084200  1
  P  P9  1  0.90970000  0.88584300  0.82310700  1
  P  P10  1  0.45184700  0.41456400  0.85447800  1
  P  P11  1  0.22055000  0.25241200  0.97133400  1
  O  O0  1  0.44807100  0.71560700  0.04140000  1
  O  O1  1  0.67247000  0.43163800  0.08723200  1
  O  O2  1  0.04757900  0.04909800  0.09530000  1
  O  O3  1  0.11028700  0.21779500  0.05977200  1
  O  O4  1  0.27254700  0.28169000  0.08234000  1
  O  O5  1  0.64077000  0.87602100  0.11013500  1
  O  O6  1  0.88814700  0.59995900  0.12473100  1
  O  O7  1  0.42241800  0.57577600  0.25291600  1
  O  O8  1  0.60890300  0.61881600  0.24100700  1
  O  O9  1  0.23537500  0.98866100  0.24729700  1
  O  O10  1  0.95050000  0.21902100  0.28499100  1
  O  O11  1  0.78023000  0.04673400  0.21725900  1
  O  O12  1  0.00821700  0.76277400  0.25701800  1
  O  O13  1  0.37278300  0.39569000  0.26112500  1
  O  O14  1  0.39763100  0.11112100  0.37539700  1
  O  O15  1  0.12159300  0.35679300  0.38653000  1
  O  O16  1  0.71427600  0.72955900  0.41542800  1
  O  O17  1  0.71560700  0.44807100  0.54140000  1
  O  O18  1  0.77765300  0.88965100  0.44330000  1
  O  O19  1  0.94727000  0.95143600  0.40872100  1
  O  O20  1  0.43163800  0.67247000  0.58723200  1
  O  O21  1  0.56428900  0.32377100  0.41505000  1
  O  O22  1  0.04909800  0.04757900  0.59530000  1
  O  O23  1  0.21779500  0.11028700  0.55977200  1
  O  O24  1  0.28146700  0.55157700  0.46414300  1
  O  O25  1  0.28169000  0.27254700  0.58234000  1
  O  O26  1  0.87602100  0.64077000  0.61013500  1
  O  O27  1  0.59995900  0.88814700  0.62473100  1
  O  O28  1  0.57577600  0.42241800  0.75291600  1
  O  O29  1  0.61881600  0.60890300  0.74100700  1
  O  O30  1  0.98866100  0.23537500  0.74729700  1
  O  O31  1  0.21902100  0.95050000  0.78499100  1
  O  O32  1  0.04673400  0.78023000  0.71725900  1
  O  O33  1  0.76277400  0.00821700  0.75701800  1
  O  O34  1  0.39569000  0.37278300  0.76112500  1
  O  O35  1  0.11112100  0.39763100  0.87539700  1
  O  O36  1  0.35679300  0.12159300  0.88653000  1
  O  O37  1  0.72955900  0.71427600  0.91542800  1
  O  O38  1  0.88965100  0.77765300  0.94330000  1
  O  O39  1  0.95143600  0.94727000  0.90872100  1
  O  O40  1  0.32377100  0.56428900  0.91505000  1
  O  O41  1  0.55157700  0.28146700  0.96414300  1
loop_
_geom_bond_atom_site_label_1
_geom_bond_atom_site_label_2
_geom_bond_distance
_geom_bond_site_symmetry_2
O0 P1 1.543321 1_555
O0 Sn10 2.369174 1_554
O0 Sn11 2.581006 1_554
O1 P1 1.514985 1_555
O1 Sn0 2.427776 1_555
O2 P2 1.553887 1_555
O2 Sn0 2.386403 1_455
O2 Sn11 2.498645 1_544
O3 P2 1.635390 1_555
O3 P11 1.637973 1_554
O4 P11 1.553074 1_554
O4 Sn2 2.438694 1_555
O4 Sn1 2.482028 1_555
O5 P0 1.537129 1_555
O5 Sn3 2.504095 1_555
O5 Sn1 2.721629 1_565
O6 P0 1.544284 1_555
O6 Sn4 2.372660 1_555
O6 Sn2 2.543918 1_655
O7 P4 1.625755 1_555
O7 P1 1.631084 1_555
O8 P1 1.554225 1_555
O8 Sn4 2.460516 1_555
O8 Sn3 2.483499 1_555
O9 P2 1.517466 1_565
O9 Sn3 2.456821 1_555
O10 P2 1.551397 1_655
O10 Sn5 2.412625 1_555
O10 Sn4 2.597583 1_555
O11 P3 1.549388 1_545
O11 Sn0 2.429469 1_555
O11 Sn1 2.597024 1_555
O12 P3 1.517313 1_455
O12 Sn2 2.433116 1_555
O13 P4 1.558106 1_555
O13 Sn2 2.434120 1_555
O13 Sn1 2.462678 1_555
O14 P5 1.544785 1_555
O14 Sn1 2.386135 1_555
O14 Sn3 2.530346 1_545
O15 P5 1.536444 1_555
O15 Sn2 2.540643 1_555
O15 Sn4 2.642493 1_455
O16 P6 1.545533 1_555
O16 Sn3 2.382040 1_555
O16 Sn4 2.497039 1_555
O17 P7 1.543321 1_555
O17 Sn4 2.369174 1_555
O17 Sn5 2.581006 1_555
O18 P6 1.623084 1_555
O18 P3 1.636158 1_555
O19 P3 1.552742 1_555
O19 Sn5 2.410567 1_565
O19 Sn6 2.459611 1_655
O20 P7 1.514985 1_555
O20 Sn6 2.427776 1_555
O21 P4 1.522024 1_555
O21 Sn5 2.411757 1_555
O22 P8 1.553887 1_555
O22 Sn6 2.386403 1_545
O22 Sn5 2.498645 1_455
O23 P8 1.635390 1_555
O23 P5 1.637973 1_555
O24 P4 1.537178 1_555
O24 Sn7 2.306313 1_555
O24 Sn6 2.595035 1_555
O25 P5 1.553074 1_555
O25 Sn8 2.438694 1_555
O25 Sn7 2.482028 1_555
O26 P6 1.537129 1_555
O26 Sn9 2.504095 1_555
O26 Sn7 2.721629 1_655
O27 P6 1.544284 1_555
O27 Sn10 2.372660 1_555
O27 Sn8 2.543918 1_565
O28 P10 1.625755 1_555
O28 P7 1.631084 1_555
O29 P7 1.554225 1_555
O29 Sn10 2.460516 1_555
O29 Sn9 2.483499 1_555
O30 P8 1.517466 1_655
O30 Sn9 2.456821 1_555
O31 P8 1.551397 1_565
O31 Sn11 2.412625 1_555
O31 Sn10 2.597583 1_555
O32 P9 1.549388 1_455
O32 Sn6 2.429469 1_555
O32 Sn7 2.597024 1_555
O33 P9 1.517313 1_545
O33 Sn8 2.433116 1_555
O34 P10 1.558106 1_555
O34 Sn8 2.434120 1_555
O34 Sn7 2.462678 1_555
O35 P11 1.544785 1_555
O35 Sn7 2.386135 1_555
O35 Sn9 2.530346 1_455
O36 P11 1.536444 1_555
O36 Sn8 2.540643 1_555
O36 Sn10 2.642493 1_545
O37 P0 1.545533 1_556
O37 Sn9 2.382040 1_555
O37 Sn10 2.497039 1_555
O38 P0 1.623084 1_556
O38 P9 1.636158 1_555
O39 P9 1.552742 1_555
O39 Sn11 2.410567 1_655
O39 Sn0 2.459611 1_566
O40 P10 1.522024 1_555
O40 Sn11 2.411757 1_555
O41 P10 1.537178 1_555
O41 Sn1 2.306313 1_556
O41 Sn0 2.595035 1_556
