# generated using pymatgen
data_Zn2Hg2H2Se2O11
_symmetry_space_group_name_H-M   'P 1'
_cell_length_a   6.30183500
_cell_length_b   11.63805900
_cell_length_c   13.69536300
_cell_angle_alpha   90.00000000
_cell_angle_beta   90.00000000
_cell_angle_gamma   90.00000000
_symmetry_Int_Tables_number   1
_chemical_formula_structural   Zn2Hg2H2Se2O11
_chemical_formula_sum   'Zn8 Hg8 H8 Se8 O44'
_cell_volume   1004.43336447
_cell_formula_units_Z   4
loop_
 _symmetry_equiv_pos_site_id
 _symmetry_equiv_pos_as_xyz
  1  'x, y, z'
loop_
 _atom_site_type_symbol
 _atom_site_label
 _atom_site_symmetry_multiplicity
 _atom_site_fract_x
 _atom_site_fract_y
 _atom_site_fract_z
 _atom_site_occupancy
  Zn  Zn0  1  0.02026000  0.16941800  0.13079400  1
  Zn  Zn1  1  0.02026000  0.16941800  0.36920600  1
  Zn  Zn2  1  0.02026000  0.33058200  0.63079400  1
  Zn  Zn3  1  0.02026000  0.33058200  0.86920600  1
  Zn  Zn4  1  0.97974000  0.66941800  0.13079400  1
  Zn  Zn5  1  0.97974000  0.66941800  0.36920600  1
  Zn  Zn6  1  0.97974000  0.83058200  0.86920600  1
  Zn  Zn7  1  0.97974000  0.83058200  0.63079400  1
  Hg  Hg0  1  0.20627700  0.42017200  0.25000000  1
  Hg  Hg1  1  0.20627700  0.07982800  0.75000000  1
  Hg  Hg2  1  0.47597600  0.67081000  0.25000000  1
  Hg  Hg3  1  0.47597600  0.82919000  0.75000000  1
  Hg  Hg4  1  0.52402400  0.17081000  0.25000000  1
  Hg  Hg5  1  0.52402400  0.32919000  0.75000000  1
  Hg  Hg6  1  0.79372300  0.57982800  0.75000000  1
  Hg  Hg7  1  0.79372300  0.92017200  0.25000000  1
  H  H0  1  0.28361600  0.30826800  0.02755400  1
  H  H1  1  0.28361600  0.30826800  0.47244600  1
  H  H2  1  0.28361600  0.19173200  0.52755400  1
  H  H3  1  0.28361600  0.19173200  0.97244600  1
  H  H4  1  0.71638400  0.69173200  0.52755400  1
  H  H5  1  0.71638400  0.80826800  0.02755400  1
  H  H6  1  0.71638400  0.80826800  0.47244600  1
  H  H7  1  0.71638400  0.69173200  0.97244600  1
  Se  Se0  1  0.27440900  0.91193300  0.07595900  1
  Se  Se1  1  0.27440900  0.58806700  0.92404100  1
  Se  Se2  1  0.27440900  0.58806700  0.57595900  1
  Se  Se3  1  0.27440900  0.91193300  0.42404100  1
  Se  Se4  1  0.72559100  0.41193300  0.42404100  1
  Se  Se5  1  0.72559100  0.41193300  0.07595900  1
  Se  Se6  1  0.72559100  0.08806700  0.57595900  1
  Se  Se7  1  0.72559100  0.08806700  0.92404100  1
  O  O0  1  0.10128900  0.83434900  0.14244100  1
  O  O1  1  0.10128900  0.83434900  0.35755900  1
  O  O2  1  0.10128900  0.66565100  0.64244100  1
  O  O3  1  0.10128900  0.66565100  0.85755900  1
  O  O4  1  0.16823000  0.60215600  0.25000000  1
  O  O5  1  0.16823000  0.89784400  0.75000000  1
  O  O6  1  0.18329400  0.25000000  0.00000000  1
  O  O7  1  0.18329400  0.25000000  0.50000000  1
  O  O8  1  0.22004500  0.59579200  0.04353400  1
  O  O9  1  0.22004500  0.59579200  0.45646600  1
  O  O10  1  0.22004500  0.90420800  0.54353400  1
  O  O11  1  0.22004500  0.90420800  0.95646600  1
  O  O12  1  0.21586900  0.23511200  0.25000000  1
  O  O13  1  0.21586900  0.26488800  0.75000000  1
  O  O14  1  0.25737700  0.04770500  0.11714400  1
  O  O15  1  0.25737700  0.04770500  0.38285600  1
  O  O16  1  0.25737700  0.45229500  0.61714400  1
  O  O17  1  0.25737700  0.45229500  0.88285600  1
  O  O18  1  0.48125100  0.13537000  0.60042100  1
  O  O19  1  0.48125100  0.36463000  0.10042100  1
  O  O20  1  0.48125100  0.13537000  0.89957900  1
  O  O21  1  0.48125100  0.36463000  0.39957900  1
  O  O22  1  0.51874900  0.63537000  0.60042100  1
  O  O23  1  0.51874900  0.86463000  0.10042100  1
  O  O24  1  0.51874900  0.86463000  0.39957900  1
  O  O25  1  0.51874900  0.63537000  0.89957900  1
  O  O26  1  0.74262300  0.54770500  0.11714400  1
  O  O27  1  0.74262300  0.54770500  0.38285600  1
  O  O28  1  0.74262300  0.95229500  0.61714400  1
  O  O29  1  0.74262300  0.95229500  0.88285600  1
  O  O30  1  0.78413100  0.73511200  0.25000000  1
  O  O31  1  0.78413100  0.76488800  0.75000000  1
  O  O32  1  0.77995500  0.09579200  0.45646600  1
  O  O33  1  0.77995500  0.40420800  0.54353400  1
  O  O34  1  0.77995500  0.09579200  0.04353400  1
  O  O35  1  0.77995500  0.40420800  0.95646600  1
  O  O36  1  0.81670600  0.75000000  0.50000000  1
  O  O37  1  0.81670600  0.75000000  0.00000000  1
  O  O38  1  0.83177000  0.10215600  0.25000000  1
  O  O39  1  0.83177000  0.39784400  0.75000000  1
  O  O40  1  0.89871100  0.33434900  0.14244100  1
  O  O41  1  0.89871100  0.33434900  0.35755900  1
  O  O42  1  0.89871100  0.16565100  0.64244100  1
  O  O43  1  0.89871100  0.16565100  0.85755900  1
loop_
_geom_bond_atom_site_label_1
_geom_bond_atom_site_label_2
_geom_bond_distance
_geom_bond_site_symmetry_2
Hg0 O4 2.131469 1_555
Hg0 O12 2.154587 1_555
Hg1 O5 2.131469 1_545
Hg1 O13 2.154587 1_555
Hg2 O30 2.081146 1_555
Hg2 O4 2.097507 1_555
Hg3 O31 2.081146 1_555
Hg3 O5 2.097507 1_555
Hg4 O12 2.081146 1_555
Hg4 O38 2.097507 1_555
Hg5 O13 2.081146 1_555
Hg5 O39 2.097507 1_555
Hg6 O39 2.131469 1_555
Hg6 O31 2.154587 1_555
Hg7 O38 2.131469 1_565
Hg7 O30 2.154587 1_555
H0 O6 1.000975 1_555
H1 O7 1.000975 1_555
H2 O7 1.000975 1_555
H3 O6 1.000975 1_556
H4 O36 1.000975 1_555
H5 O37 1.000975 1_555
H6 O36 1.000975 1_555
H7 O37 1.000975 1_556
O0 Se0 1.683598 1_555
O0 Zn4 2.072815 1_455
O1 Se3 1.683598 1_555
O1 Zn5 2.072815 1_455
O2 Se2 1.683598 1_555
O2 Zn7 2.072815 1_455
O3 Se1 1.683598 1_555
O3 Zn6 2.072815 1_455
O4 Zn5 2.165411 1_455
O4 Zn4 2.165411 1_455
O5 Zn6 2.165411 1_455
O5 Zn7 2.165411 1_455
O6 Zn0 2.267980 1_555
O6 Zn3 2.267980 1_554
O7 Zn2 2.267980 1_555
O7 Zn1 2.267980 1_555
O8 Se1 1.674391 1_554
O8 Zn4 2.110846 1_455
O9 Se2 1.674391 1_555
O9 Zn5 2.110846 1_455
O10 Se3 1.674391 1_555
O10 Zn7 2.110846 1_455
O11 Se0 1.674391 1_556
O11 Zn6 2.110846 1_455
O12 Zn1 2.183886 1_555
O12 Zn0 2.183886 1_555
O13 Zn3 2.183886 1_555
O13 Zn2 2.183886 1_555
O14 Se0 1.681206 1_545
O14 Zn0 2.067433 1_555
O15 Se3 1.681206 1_545
O15 Zn1 2.067433 1_555
O16 Se2 1.681206 1_555
O16 Zn2 2.067433 1_555
O17 Se1 1.681206 1_555
O17 Zn3 2.067433 1_555
O18 Se6 1.669208 1_555
O19 Se5 1.669208 1_555
O20 Se7 1.669208 1_555
O21 Se4 1.669208 1_555
O22 Se2 1.669208 1_555
O23 Se0 1.669208 1_555
O24 Se3 1.669208 1_555
O25 Se1 1.669208 1_555
O26 Se5 1.681206 1_555
O26 Zn4 2.067433 1_555
O27 Se4 1.681206 1_555
O27 Zn5 2.067433 1_555
O28 Se6 1.681206 1_565
O28 Zn7 2.067433 1_555
O29 Se7 1.681206 1_565
O29 Zn6 2.067433 1_555
O30 Zn5 2.183886 1_555
O30 Zn4 2.183886 1_555
O31 Zn6 2.183886 1_555
O31 Zn7 2.183886 1_555
O32 Se6 1.674391 1_555
O32 Zn1 2.110846 1_655
O33 Se4 1.674391 1_555
O33 Zn2 2.110846 1_655
O34 Se7 1.674391 1_554
O34 Zn0 2.110846 1_655
O35 Se5 1.674391 1_556
O35 Zn3 2.110846 1_655
O36 Zn7 2.267980 1_555
O36 Zn5 2.267980 1_555
O37 Zn4 2.267980 1_555
O37 Zn6 2.267980 1_554
O38 Zn1 2.165411 1_655
O38 Zn0 2.165411 1_655
O39 Zn3 2.165411 1_655
O39 Zn2 2.165411 1_655
O40 Se5 1.683598 1_555
O40 Zn0 2.072815 1_655
O41 Se4 1.683598 1_555
O41 Zn1 2.072815 1_655
O42 Se6 1.683598 1_555
O42 Zn2 2.072815 1_655
O43 Se7 1.683598 1_555
O43 Zn3 2.072815 1_655
