# generated using pymatgen
data_Rb2PH3SeO8
_symmetry_space_group_name_H-M   'P 1'
_cell_length_a   7.80396900
_cell_length_b   7.74502900
_cell_length_c   9.97892432
_cell_angle_alpha   51.23092166
_cell_angle_beta   90.00000000
_cell_angle_gamma   90.00000000
_symmetry_Int_Tables_number   1
_chemical_formula_structural   Rb2PH3SeO8
_chemical_formula_sum   'Rb4 P2 H6 Se2 O16'
_cell_volume   470.25832216
_cell_formula_units_Z   2
loop_
 _symmetry_equiv_pos_site_id
 _symmetry_equiv_pos_as_xyz
  1  'x, y, z'
loop_
 _atom_site_type_symbol
 _atom_site_label
 _atom_site_symmetry_multiplicity
 _atom_site_fract_x
 _atom_site_fract_y
 _atom_site_fract_z
 _atom_site_occupancy
  Rb  Rb0  1  0.56427200  0.37744300  0.54511100  1
  Rb  Rb1  1  0.93468000  0.58508200  0.11767400  1
  Rb  Rb2  1  0.43572800  0.37744300  0.04511100  1
  Rb  Rb3  1  0.06532000  0.58508200  0.61767400  1
  P  P0  1  0.05751100  0.14114700  0.58185700  1
  P  P1  1  0.94248900  0.14114700  0.08185700  1
  H  H0  1  0.23792700  0.01223700  0.80837000  1
  H  H1  1  0.85073700  0.88376100  0.70921200  1
  H  H2  1  0.27268400  0.11478600  0.44583500  1
  H  H3  1  0.76207300  0.01223700  0.30837000  1
  H  H4  1  0.14926300  0.88376100  0.20921200  1
  H  H5  1  0.72731600  0.11478600  0.94583500  1
  Se  Se0  1  0.43677700  0.84703200  0.07745300  1
  Se  Se1  1  0.56322300  0.84703200  0.57745300  1
  O  O0  1  0.57611700  0.64134200  0.15970200  1
  O  O1  1  0.92707300  0.32072100  0.50834600  1
  O  O2  1  0.20572100  0.15639900  0.68075000  1
  O  O3  1  0.28103600  0.81963600  0.97398700  1
  O  O4  1  0.14488400  0.15645400  0.43081000  1
  O  O5  1  0.98225700  0.89771500  0.71417000  1
  O  O6  1  0.46848800  0.09535100  0.43855500  1
  O  O7  1  0.65696400  0.83407200  0.73539000  1
  O  O8  1  0.79427900  0.15639900  0.18075000  1
  O  O9  1  0.71896400  0.81963600  0.47398700  1
  O  O10  1  0.42388300  0.64134200  0.65970200  1
  O  O11  1  0.07292700  0.32072100  0.00834600  1
  O  O12  1  0.01774300  0.89771500  0.21417000  1
  O  O13  1  0.34303600  0.83407200  0.23539000  1
  O  O14  1  0.85511600  0.15645400  0.93081000  1
  O  O15  1  0.53151200  0.09535100  0.93855500  1
loop_
_geom_bond_atom_site_label_1
_geom_bond_atom_site_label_2
_geom_bond_distance
_geom_bond_site_symmetry_2
H0 O2 1.072794 1_555
H0 O3 1.407919 1_545
H1 O5 1.036473 1_555
H1 O7 1.541812 1_555
H2 O4 1.029918 1_555
H2 O6 1.541610 1_555
H3 O8 1.072794 1_555
H3 O9 1.407919 1_545
H4 O12 1.036473 1_555
H4 O13 1.541812 1_555
H5 O14 1.029918 1_555
H5 O15 1.541610 1_555
O0 Se0 1.660264 1_555
O0 Rb1 2.902520 1_555
O0 Rb0 3.022080 1_555
O0 Rb2 3.100399 1_555
O1 P0 1.493629 1_655
O1 Rb0 2.923291 1_555
O1 Rb3 3.056774 1_655
O1 Rb1 3.065520 1_555
O2 P0 1.572131 1_555
O2 Rb0 3.112944 1_555
O2 Rb3 3.162748 1_555
O3 Se0 1.691919 1_556
O3 Rb1 3.065922 1_456
O3 Rb2 3.262848 1_556
O4 P0 1.589687 1_555
O4 Rb1 3.237978 1_455
O5 P0 1.589120 1_665
O5 Rb1 3.162854 1_556
O5 Rb3 3.182822 1_655
O6 Se1 1.681701 1_545
O6 Rb0 3.061406 1_555
O6 Rb2 3.083948 1_555
O7 Se1 1.682567 1_555
O7 Rb2 3.369235 1_556
O7 Rb0 3.439762 1_565
O8 P1 1.572131 1_555
O8 Rb2 3.112944 1_555
O8 Rb1 3.162748 1_555
O9 Se1 1.691919 1_555
O9 Rb3 3.065922 1_655
O9 Rb0 3.262848 1_555
O10 Se1 1.660264 1_555
O10 Rb3 2.902520 1_555
O10 Rb2 3.022080 1_556
O10 Rb0 3.100399 1_555
O11 P1 1.493629 1_455
O11 Rb2 2.923291 1_555
O11 Rb1 3.056774 1_455
O11 Rb3 3.065520 1_554
O12 P1 1.589120 1_465
O12 Rb3 3.162854 1_555
O12 Rb1 3.182822 1_455
O13 Se0 1.682567 1_555
O13 Rb0 3.369235 1_555
O13 Rb2 3.439762 1_565
O14 P1 1.589687 1_556
O14 Rb3 3.237978 1_655
O15 Se0 1.681701 1_546
O15 Rb2 3.061406 1_556
O15 Rb0 3.083948 1_555
