# generated using pymatgen
data_K2Li3MnO4
_symmetry_space_group_name_H-M   'P 1'
_cell_length_a   8.97181200
_cell_length_b   5.54791400
_cell_length_c   10.98508234
_cell_angle_alpha   71.86796849
_cell_angle_beta   90.00000000
_cell_angle_gamma   90.00000000
_symmetry_Int_Tables_number   1
_chemical_formula_structural   K2Li3MnO4
_chemical_formula_sum   'K8 Li12 Mn4 O16'
_cell_volume   519.62863788
_cell_formula_units_Z   4
loop_
 _symmetry_equiv_pos_site_id
 _symmetry_equiv_pos_as_xyz
  1  'x, y, z'
loop_
 _atom_site_type_symbol
 _atom_site_label
 _atom_site_symmetry_multiplicity
 _atom_site_fract_x
 _atom_site_fract_y
 _atom_site_fract_z
 _atom_site_occupancy
  K  K0  1  0.22699200  0.71458400  0.89222700  1
  K  K1  1  0.49025900  0.70803100  0.63784500  1
  K  K2  1  0.27300800  0.71458400  0.39222700  1
  K  K3  1  0.99025900  0.29196900  0.86215500  1
  K  K4  1  0.00974100  0.70803100  0.13784500  1
  K  K5  1  0.72699200  0.28541600  0.60777300  1
  K  K6  1  0.50974100  0.29196900  0.36215500  1
  K  K7  1  0.77300800  0.28541600  0.10777300  1
  Li  Li0  1  0.96411500  0.90514800  0.70543800  1
  Li  Li1  1  0.73488600  0.62135400  0.80027200  1
  Li  Li2  1  0.53588500  0.90514800  0.20543800  1
  Li  Li3  1  0.50538600  0.37934800  0.92679100  1
  Li  Li4  1  0.00538600  0.62065200  0.57320900  1
  Li  Li5  1  0.23488600  0.37864600  0.69972800  1
  Li  Li6  1  0.76511400  0.62135400  0.30027200  1
  Li  Li7  1  0.99461400  0.37934800  0.42679100  1
  Li  Li8  1  0.49461400  0.62065200  0.07320900  1
  Li  Li9  1  0.46411500  0.09485200  0.79456200  1
  Li  Li10  1  0.26511400  0.37864600  0.19972800  1
  Li  Li11  1  0.03588500  0.09485200  0.29456200  1
  Mn  Mn0  1  0.70646600  0.91016700  0.94226700  1
  Mn  Mn1  1  0.79353400  0.91016700  0.44226700  1
  Mn  Mn2  1  0.20646600  0.08983300  0.55773300  1
  Mn  Mn3  1  0.29353400  0.08983300  0.05773300  1
  O  O0  1  0.89189100  0.79809800  0.88794200  1
  O  O1  1  0.53796200  0.74742100  0.88220800  1
  O  O2  1  0.80737700  0.74665300  0.62266100  1
  O  O3  1  0.17141100  0.74265900  0.65409500  1
  O  O4  1  0.60810900  0.79809800  0.38794200  1
  O  O5  1  0.96203800  0.74742100  0.38220800  1
  O  O6  1  0.67141100  0.25734100  0.84590500  1
  O  O7  1  0.30737700  0.25334700  0.87733900  1
  O  O8  1  0.69262300  0.74665300  0.12266100  1
  O  O9  1  0.32858900  0.74265900  0.15409500  1
  O  O10  1  0.03796200  0.25257900  0.61779200  1
  O  O11  1  0.39189100  0.20190200  0.61205800  1
  O  O12  1  0.82858900  0.25734100  0.34590500  1
  O  O13  1  0.19262300  0.25334700  0.37733900  1
  O  O14  1  0.46203800  0.25257900  0.11779200  1
  O  O15  1  0.10810900  0.20190200  0.11205800  1
loop_
_geom_bond_atom_site_label_1
_geom_bond_atom_site_label_2
_geom_bond_distance
_geom_bond_site_symmetry_2
K0 O3 2.619590 1_555
K0 O7 2.712073 1_555
K0 O1 2.795840 1_555
K1 O1 2.793164 1_555
K1 O11 2.807735 1_565
K1 O4 2.837250 1_555
K1 O2 2.854157 1_555
K1 O3 2.876352 1_555
K1 O11 3.039546 1_555
K2 O9 2.619590 1_555
K2 O13 2.712073 1_555
K2 O5 2.795840 1_455
K3 O10 2.793164 1_655
K3 O0 2.807735 1_545
K3 O15 2.837250 1_656
K3 O7 2.854157 1_655
K3 O6 2.876352 1_555
K3 O0 3.039546 1_555
K4 O5 2.793164 1_455
K4 O15 2.807735 1_565
K4 O0 2.837250 1_454
K4 O8 2.854157 1_455
K4 O9 2.876352 1_555
K4 O15 3.039546 1_555
K5 O6 2.619590 1_555
K5 O2 2.712073 1_555
K5 O10 2.795840 1_655
K6 O14 2.793164 1_555
K6 O4 2.807735 1_545
K6 O11 2.837250 1_555
K6 O13 2.854157 1_555
K6 O12 2.876352 1_555
K6 O4 3.039546 1_555
K7 O12 2.619590 1_555
K7 O8 2.712073 1_555
K7 O14 2.795840 1_555
Li0 O10 1.981459 1_665
Li0 O0 2.012664 1_555
Li0 O2 2.018707 1_555
Li0 O3 2.214984 1_655
Li1 O2 1.966908 1_555
Li1 O6 2.005974 1_555
Li1 O0 2.112100 1_555
Li1 O1 2.193761 1_555
Li2 O14 1.981459 1_565
Li2 O4 2.012664 1_555
Li2 O8 2.018707 1_555
Li2 O9 2.214984 1_555
Li3 O6 1.959787 1_555
Li3 O1 1.967923 1_555
Li3 O14 2.032168 1_556
Li3 O7 2.043544 1_555
Li4 O3 1.959787 1_555
Li4 O10 1.967923 1_555
Li4 O5 2.032168 1_455
Li4 O2 2.043544 1_455
Li5 O7 1.966908 1_555
Li5 O3 2.005974 1_555
Li5 O11 2.112100 1_555
Li5 O10 2.193761 1_555
Li6 O8 1.966908 1_555
Li6 O12 2.005974 1_555
Li6 O4 2.112100 1_555
Li6 O5 2.193761 1_555
Li7 O12 1.959787 1_555
Li7 O5 1.967923 1_555
Li7 O10 2.032168 1_655
Li7 O13 2.043544 1_655
Li8 O9 1.959787 1_555
Li8 O14 1.967923 1_555
Li8 O1 2.032168 1_554
Li8 O8 2.043544 1_555
Li9 O1 1.981459 1_545
Li9 O11 2.012664 1_555
Li9 O7 2.018707 1_555
Li9 O6 2.214984 1_555
Li10 O13 1.966908 1_555
Li10 O9 2.005974 1_555
Li10 O15 2.112100 1_555
Li10 O14 2.193761 1_555
Li11 O5 1.981459 1_445
Li11 O15 2.012664 1_555
Li11 O13 2.018707 1_555
Li11 O12 2.214984 1_455
Mn0 O8 1.909549 1_556
Mn0 O6 1.913177 1_565
Mn0 O0 1.934218 1_555
Mn0 O1 1.976555 1_555
Mn1 O2 1.909549 1_555
Mn1 O12 1.913177 1_565
Mn1 O4 1.934218 1_555
Mn1 O5 1.976555 1_555
Mn2 O13 1.909549 1_555
Mn2 O3 1.913177 1_545
Mn2 O11 1.934218 1_555
Mn2 O10 1.976555 1_555
Mn3 O7 1.909549 1_554
Mn3 O9 1.913177 1_545
Mn3 O15 1.934218 1_555
Mn3 O14 1.976555 1_555
