# generated using pymatgen
data_Li3H6Rh
_symmetry_space_group_name_H-M   'P 1'
_cell_length_a   4.70820062
_cell_length_b   8.40657547
_cell_length_c   8.45402164
_cell_angle_alpha   90.00000000
_cell_angle_beta   90.00000000
_cell_angle_gamma   90.00000000
_symmetry_Int_Tables_number   1
_chemical_formula_structural   Li3H6Rh
_chemical_formula_sum   'Li12 H24 Rh4'
_cell_volume   334.60885633
_cell_formula_units_Z   4
loop_
 _symmetry_equiv_pos_site_id
 _symmetry_equiv_pos_as_xyz
  1  'x, y, z'
loop_
 _atom_site_type_symbol
 _atom_site_label
 _atom_site_symmetry_multiplicity
 _atom_site_fract_x
 _atom_site_fract_y
 _atom_site_fract_z
 _atom_site_occupancy
  Li  Li0  1  0.25000000  0.54419347  0.87097125  1
  Li  Li1  1  0.25000000  0.04419347  0.62902875  1
  Li  Li2  1  0.75000000  0.45580653  0.12902875  1
  Li  Li3  1  0.75000000  0.95580653  0.37097125  1
  Li  Li4  1  0.25000000  0.89712214  0.98000901  1
  Li  Li5  1  0.25000000  0.39712214  0.51999099  1
  Li  Li6  1  0.75000000  0.10287786  0.01999099  1
  Li  Li7  1  0.75000000  0.60287786  0.48000901  1
  Li  Li8  1  0.25000000  0.72033138  0.25403746  1
  Li  Li9  1  0.25000000  0.22033138  0.24596254  1
  Li  Li10  1  0.75000000  0.27966862  0.74596254  1
  Li  Li11  1  0.75000000  0.77966862  0.75403746  1
  H  H0  1  0.49785643  0.84568852  0.53471203  1
  H  H1  1  0.00214357  0.34568852  0.96528797  1
  H  H2  1  -0.00214357  0.15431148  0.46528797  1
  H  H3  1  0.50214357  0.65431148  0.03471203  1
  H  H4  1  0.50214357  0.15431148  0.46528797  1
  H  H5  1  -0.00214357  0.65431148  0.03471203  1
  H  H6  1  0.00214357  0.84568852  0.53471203  1
  H  H7  1  0.49785643  0.34568852  0.96528797  1
  H  H8  1  0.49371552  0.60725252  0.67908819  1
  H  H9  1  0.00628448  0.10725252  0.82091181  1
  H  H10  1  0.99371552  0.39274748  0.32091181  1
  H  H11  1  0.50628448  0.89274748  0.17908819  1
  H  H12  1  0.50628448  0.39274748  0.32091181  1
  H  H13  1  0.99371552  0.89274748  0.17908819  1
  H  H14  1  0.00628448  0.60725252  0.67908819  1
  H  H15  1  0.49371552  0.10725252  0.82091181  1
  H  H16  1  0.25000000  0.61593880  0.44476064  1
  H  H17  1  0.25000000  0.11593880  0.05523936  1
  H  H18  1  0.75000000  0.38406120  0.55523936  1
  H  H19  1  0.75000000  0.88406120  0.94476064  1
  H  H20  1  0.25000000  0.83045185  0.76702614  1
  H  H21  1  0.25000000  0.33045185  0.73297386  1
  H  H22  1  0.75000000  0.16954815  0.23297386  1
  H  H23  1  0.75000000  0.66954815  0.26702614  1
  Rh  Rh0  1  0.25000000  0.72627652  0.60526300  1
  Rh  Rh1  1  0.25000000  0.22627652  0.89473700  1
  Rh  Rh2  1  0.75000000  0.27372348  0.39473700  1
  Rh  Rh3  1  0.75000000  0.77372348  0.10526300  1
loop_
_geom_bond_atom_site_label_1
_geom_bond_atom_site_label_2
_geom_bond_distance
_geom_bond_site_symmetry_2
H0 Rh0 1.650829 1_555
H0 Li3 2.045105 1_555
H0 Li1 2.186843 1_565
H0 Li11 2.270534 1_555
H1 Rh1 1.650829 1_555
H1 Li2 2.045105 1_456
H1 Li0 2.186843 1_555
H1 Li10 2.270534 1_455
H2 Rh2 1.650829 1_455
H2 Li1 2.045105 1_555
H2 Li3 2.186843 1_445
H2 Li9 2.270534 1_555
H3 Rh3 1.650829 1_555
H3 Li0 2.045105 1_554
H3 Li2 2.186843 1_555
H3 Li8 2.270534 1_555
H4 Rh2 1.650829 1_555
H4 Li1 2.045105 1_555
H4 Li3 2.186843 1_545
H4 Li9 2.270534 1_555
H5 Rh3 1.650829 1_455
H5 Li0 2.045105 1_554
H5 Li2 2.186843 1_455
H5 Li8 2.270534 1_555
H6 Rh0 1.650829 1_555
H6 Li3 2.045105 1_455
H6 Li1 2.186843 1_565
H6 Li11 2.270534 1_455
H7 Rh1 1.650829 1_555
H7 Li2 2.045105 1_556
H7 Li0 2.186843 1_555
H7 Li10 2.270534 1_555
H8 Rh0 1.645406 1_555
H8 Li11 1.989547 1_555
H8 Li0 2.056493 1_555
H8 Li7 2.071204 1_555
H9 Rh1 1.645406 1_555
H9 Li10 1.989547 1_455
H9 Li1 2.056493 1_555
H9 Li6 2.071204 1_456
H10 Rh2 1.645406 1_555
H10 Li9 1.989547 1_655
H10 Li2 2.056493 1_555
H10 Li5 2.071204 1_655
H11 Rh3 1.645406 1_555
H11 Li8 1.989547 1_555
H11 Li3 2.056493 1_555
H11 Li4 2.071204 1_554
H12 Rh2 1.645406 1_555
H12 Li9 1.989547 1_555
H12 Li2 2.056493 1_555
H12 Li5 2.071204 1_555
H13 Rh3 1.645406 1_555
H13 Li8 1.989547 1_655
H13 Li3 2.056493 1_555
H13 Li4 2.071204 1_654
H14 Rh0 1.645406 1_555
H14 Li11 1.989547 1_455
H14 Li0 2.056493 1_555
H14 Li7 2.071204 1_455
H15 Rh1 1.645406 1_555
H15 Li10 1.989547 1_555
H15 Li1 2.056493 1_555
H15 Li6 2.071204 1_556
H16 Rh0 1.643631 1_555
H16 Li8 1.835733 1_555
H16 Li5 1.946343 1_555
H17 Rh1 1.643631 1_554
H17 Li9 1.835733 1_555
H17 Li4 1.946343 1_544
H18 Rh2 1.643631 1_555
H18 Li10 1.835733 1_555
H18 Li7 1.946343 1_555
H19 Rh3 1.643631 1_556
H19 Li11 1.835733 1_555
H19 Li6 1.946343 1_566
H20 Rh0 1.623928 1_555
H20 Li4 1.885775 1_555
H20 Li1 2.142347 1_565
H21 Rh1 1.623928 1_555
H21 Li5 1.885775 1_555
H21 Li0 2.142347 1_555
H22 Rh2 1.623928 1_555
H22 Li6 1.885775 1_555
H22 Li3 2.142347 1_545
H23 Rh3 1.623928 1_555
H23 Li7 1.885775 1_555
H23 Li2 2.142347 1_555
