# generated using pymatgen
data_V3Ni
_symmetry_space_group_name_H-M   'P 1'
_cell_length_a   4.63970220
_cell_length_b   4.63970729
_cell_length_c   4.63970729
_cell_angle_alpha   90.00000000
_cell_angle_beta   90.00000000
_cell_angle_gamma   90.00000000
_symmetry_Int_Tables_number   1
_chemical_formula_structural   V3Ni
_chemical_formula_sum   'V6 Ni2'
_cell_volume   99.87832983
_cell_formula_units_Z   2
loop_
 _symmetry_equiv_pos_site_id
 _symmetry_equiv_pos_as_xyz
  1  'x, y, z'
loop_
 _atom_site_type_symbol
 _atom_site_label
 _atom_site_symmetry_multiplicity
 _atom_site_fract_x
 _atom_site_fract_y
 _atom_site_fract_z
 _atom_site_occupancy
  V  V0  1  0.50000000  0.25000200  -0.00000000  1
  V  V1  1  0.50000000  0.74999800  -0.00000000  1
  V  V2  1  0.25000000  0.00000000  0.50000000  1
  V  V3  1  0.75000000  0.00000000  0.50000000  1
  V  V4  1  0.00000000  0.50000000  0.24999800  1
  V  V5  1  0.00000000  0.50000000  0.75000200  1
  Ni  Ni0  1  0.50000000  0.50000000  0.50000000  1
  Ni  Ni1  1  0.00000000  0.00000000  -0.00000000  1
loop_
_geom_bond_atom_site_label_1
_geom_bond_atom_site_label_2
_geom_bond_distance
_geom_bond_site_symmetry_2
V0 V1 2.319835 1_555
V0 V1 2.319872 1_545
V2 V3 2.319851 1_455
V2 V3 2.319851 1_555
V4 V5 2.319835 1_554
V4 V5 2.319872 1_555
Ni0 V0 2.593671 1_555
Ni0 V0 2.593671 1_556
Ni0 V1 2.593671 1_555
Ni0 V1 2.593671 1_556
Ni0 V3 2.593675 1_555
Ni0 V2 2.593675 1_565
Ni0 V3 2.593675 1_565
Ni0 V2 2.593675 1_555
Ni0 V5 2.593677 1_655
Ni0 V4 2.593677 1_655
Ni0 V4 2.593677 1_555
Ni0 V5 2.593677 1_555
Ni1 V5 2.593671 1_554
Ni1 V4 2.593671 1_545
Ni1 V4 2.593671 1_555
Ni1 V5 2.593671 1_544
Ni1 V3 2.593675 1_455
Ni1 V3 2.593675 1_454
Ni1 V2 2.593675 1_555
Ni1 V2 2.593675 1_554
Ni1 V0 2.593677 1_555
Ni1 V0 2.593677 1_455
Ni1 V1 2.593677 1_445
Ni1 V1 2.593677 1_545
