# generated using pymatgen
data_Li3Cu(TeO3)4
_symmetry_space_group_name_H-M   'P 1'
_cell_length_a   5.30774000
_cell_length_b   5.71546419
_cell_length_c   7.84113142
_cell_angle_alpha   83.94759198
_cell_angle_beta   89.79702349
_cell_angle_gamma   89.90914616
_symmetry_Int_Tables_number   1
_chemical_formula_structural   Li3Cu(TeO3)4
_chemical_formula_sum   'Li3 Cu1 Te4 O12'
_cell_volume   236.54253488
_cell_formula_units_Z   1
loop_
 _symmetry_equiv_pos_site_id
 _symmetry_equiv_pos_as_xyz
  1  'x, y, z'
loop_
 _atom_site_type_symbol
 _atom_site_label
 _atom_site_symmetry_multiplicity
 _atom_site_fract_x
 _atom_site_fract_y
 _atom_site_fract_z
 _atom_site_occupancy
  Li  Li0  1  0.50132900  0.95394200  0.22634400  1
  Li  Li1  1  0.99687600  0.41645400  0.20715800  1
  Li  Li2  1  0.50163000  0.91363600  0.70777300  1
  Cu  Cu0  1  0.99941200  0.49219200  0.74724100  1
  Te  Te0  1  0.00016900  0.99518100  0.00211600  1
  Te  Te1  1  0.49459700  0.48730500  0.49381600  1
  Te  Te2  1  0.00743600  0.01071500  0.50058200  1
  Te  Te3  1  0.49384900  0.51299500  0.01409800  1
  O  O0  1  0.69932500  0.18573500  0.57200100  1
  O  O1  1  0.86764800  0.03158900  0.26435000  1
  O  O2  1  0.65945900  0.83543100  0.95801800  1
  O  O3  1  0.82440200  0.72175900  0.58266200  1
  O  O4  1  0.20021700  0.69645700  0.09648200  1
  O  O5  1  0.63651600  0.53519500  0.25321400  1
  O  O6  1  0.36256300  0.54758400  0.78310300  1
  O  O7  1  0.81309100  0.36460300  0.95784300  1
  O  O8  1  0.16241100  0.32719900  0.43286600  1
  O  O9  1  0.32279300  0.22474400  0.09237200  1
  O  O10  1  0.14013200  0.03290600  0.73455200  1
  O  O11  1  0.31614500  0.85517900  0.44380800  1
loop_
_geom_bond_atom_site_label_1
_geom_bond_atom_site_label_2
_geom_bond_distance
_geom_bond_site_symmetry_2
Li0 O11 1.994803 1_555
Li0 O9 2.014104 1_565
Li0 O1 2.025066 1_565
Li0 O2 2.424084 1_554
Li0 O4 2.468182 1_555
Li0 O5 2.485274 1_555
Li1 O8 1.995902 1_655
Li1 O4 2.045740 1_655
Li1 O5 2.071733 1_555
Li1 O7 2.235547 1_554
Li1 O9 2.279056 1_655
Li1 O1 2.303208 1_555
Li2 O10 2.052686 1_565
Li2 O0 2.073916 1_565
Li2 O2 2.139464 1_555
Li2 O6 2.238764 1_555
Li2 O3 2.304145 1_555
Li2 O11 2.350786 1_555
Cu0 O3 1.974170 1_555
Cu0 O6 1.979684 1_655
Cu0 O7 1.993375 1_555
O0 Te2 2.023647 1_655
O0 Te1 2.074470 1_555
O1 Te2 1.989649 1_655
O1 Te0 2.201267 1_645
O2 Te3 2.047857 1_556
O2 Te0 2.073588 1_656
O3 Te2 1.965210 1_665
O3 Te1 2.357587 1_555
O4 Te3 2.018987 1_555
O4 Te0 2.079272 1_555
O5 Te1 2.020706 1_555
O5 Te3 2.040941 1_555
O6 Te3 1.933475 1_556
O6 Te1 2.430626 1_555
O7 Te3 1.963188 1_556
O7 Te0 2.325037 1_646
O8 Te2 2.007382 1_555
O8 Te1 2.068286 1_555
O9 Te3 1.924267 1_555
O9 Te0 2.316506 1_545
O10 Te2 1.984029 1_555
O10 Te0 2.212254 1_546
O11 Te2 1.935699 1_565
O11 Te1 2.300905 1_555
