# generated using pymatgen
data_LiNbFeO4
_symmetry_space_group_name_H-M   'P 1'
_cell_length_a   6.19795425
_cell_length_b   6.20553841
_cell_length_c   6.23519837
_cell_angle_alpha   119.82555859
_cell_angle_beta   60.22576446
_cell_angle_gamma   89.96997771
_symmetry_Int_Tables_number   1
_chemical_formula_structural   LiNbFeO4
_chemical_formula_sum   'Li2 Nb2 Fe2 O8'
_cell_volume   170.55241993
_cell_formula_units_Z   2
loop_
 _symmetry_equiv_pos_site_id
 _symmetry_equiv_pos_as_xyz
  1  'x, y, z'
loop_
 _atom_site_type_symbol
 _atom_site_label
 _atom_site_symmetry_multiplicity
 _atom_site_fract_x
 _atom_site_fract_y
 _atom_site_fract_z
 _atom_site_occupancy
  Li  Li0  1  0.10719600  0.14274800  0.28549500  1
  Li  Li1  1  0.89280400  0.85725000  0.71450400  1
  Nb  Nb0  1  0.00000200  0.49999700  0.99999600  1
  Nb  Nb1  1  0.50000200  0.49999700  0.99999700  1
  Fe  Fe0  1  0.50000400  0.50000000  0.50001800  1
  Fe  Fe1  1  0.49999100  0.00001400  0.49999800  1
  O  O0  1  0.24468300  0.27558800  0.55163600  1
  O  O1  1  0.70393500  0.27611000  0.55177000  1
  O  O2  1  0.29606300  0.72389100  0.44822800  1
  O  O3  1  0.75531900  0.72440900  0.44836200  1
  O  O4  1  0.24489900  0.28757700  0.01014700  1
  O  O5  1  0.24482100  0.72256900  0.01014800  1
  O  O6  1  0.75510200  0.71242000  0.98985100  1
  O  O7  1  0.75518000  0.27742900  0.98985100  1
loop_
_geom_bond_atom_site_label_1
_geom_bond_atom_site_label_2
_geom_bond_distance
_geom_bond_site_symmetry_2
Li0 O1 2.048930 1_455
Li0 O0 2.050329 1_555
Li0 O4 2.136379 1_555
Li0 O5 2.136390 1_545
Li1 O2 2.048920 1_655
Li1 O3 2.050323 1_555
Li1 O6 2.136379 1_555
Li1 O7 2.136390 1_565
Nb0 O0 1.992273 1_555
Nb0 O3 1.992299 1_456
Nb0 O6 2.054705 1_455
Nb0 O4 2.054706 1_556
Nb0 O7 2.055407 1_455
Nb0 O5 2.055412 1_556
Nb1 O1 1.991499 1_555
Nb1 O2 1.991515 1_556
Nb1 O7 2.055338 1_555
Nb1 O5 2.055347 1_556
Nb1 O6 2.056044 1_555
Nb1 O4 2.056045 1_556
Fe0 O1 2.116887 1_555
Fe0 O2 2.117117 1_555
Fe0 O3 2.118815 1_555
Fe0 O0 2.118828 1_555
Fe0 O5 2.271067 1_556
Fe0 O7 2.271239 1_554
Fe1 O0 2.115531 1_555
Fe1 O3 2.115763 1_545
Fe1 O1 2.120103 1_555
Fe1 O2 2.120159 1_545
Fe1 O4 2.271146 1_556
Fe1 O6 2.271155 1_544
