# generated using pymatgen
data_Ti3Cr3(SbO8)2
_symmetry_space_group_name_H-M   'P 1'
_cell_length_a   5.95903000
_cell_length_b   5.98813031
_cell_length_c   9.33424209
_cell_angle_alpha   90.23082014
_cell_angle_beta   89.93324053
_cell_angle_gamma   119.81083017
_symmetry_Int_Tables_number   1
_chemical_formula_structural   Ti3Cr3(SbO8)2
_chemical_formula_sum   'Ti3 Cr3 Sb2 O16'
_cell_volume   288.99975890
_cell_formula_units_Z   1
loop_
 _symmetry_equiv_pos_site_id
 _symmetry_equiv_pos_as_xyz
  1  'x, y, z'
loop_
 _atom_site_type_symbol
 _atom_site_label
 _atom_site_symmetry_multiplicity
 _atom_site_fract_x
 _atom_site_fract_y
 _atom_site_fract_z
 _atom_site_occupancy
  Ti  Ti0  1  0.33486700  0.16807800  0.78838500  1
  Ti  Ti1  1  0.83009100  0.66502000  0.78756300  1
  Ti  Ti2  1  0.15875300  0.82481700  0.29995600  1
  Cr  Cr0  1  0.82787100  0.17117600  0.79050100  1
  Cr  Cr1  1  0.17068600  0.34064600  0.28964200  1
  Cr  Cr2  1  0.66069300  0.83930300  0.27931600  1
  Sb  Sb0  1  0.66748400  0.32590200  0.50977200  1
  Sb  Sb1  1  0.33400800  0.66267000  0.01096300  1
  O  O0  1  0.33962500  0.16256500  0.39683300  1
  O  O1  1  0.52080700  0.47550100  0.65858300  1
  O  O2  1  0.65901000  0.34215000  0.89620600  1
  O  O3  1  0.00143900  0.99641900  0.69532500  1
  O  O4  1  0.99191600  0.99430200  0.19826700  1
  O  O5  1  0.82978700  0.65591100  0.39698500  1
  O  O6  1  0.51684300  0.04379800  0.66072400  1
  O  O7  1  0.95449600  0.48052200  0.65972000  1
  O  O8  1  0.17424700  0.82643400  0.89376200  1
  O  O9  1  0.83229900  0.16442100  0.39899800  1
  O  O10  1  0.04804800  0.53277500  0.16118400  1
  O  O11  1  0.48281800  0.95712800  0.16081200  1
  O  O12  1  0.34537900  0.68068800  0.39357200  1
  O  O13  1  0.17362100  0.33708900  0.89855600  1
  O  O14  1  0.48431700  0.52760500  0.16134400  1
  O  O15  1  0.66069500  0.82488000  0.89730900  1
loop_
_geom_bond_atom_site_label_1
_geom_bond_atom_site_label_2
_geom_bond_distance
_geom_bond_site_symmetry_2
Cr0 O3 2.005154 1_645
Cr0 O2 2.011995 1_555
Cr0 O6 2.019051 1_555
Cr0 O7 2.029112 1_555
Cr0 O13 2.052038 1_655
Cr0 O15 2.060786 1_545
Cr1 O4 1.988653 1_445
Cr1 O12 2.012420 1_555
Cr1 O14 2.026244 1_555
Cr1 O9 2.027263 1_455
Cr1 O10 2.035824 1_555
Cr1 O0 2.056707 1_555
Cr2 O4 1.873572 1_555
Cr2 O11 1.896702 1_555
Cr2 O12 1.949129 1_555
Cr2 O14 1.958742 1_555
Cr2 O9 2.022281 1_565
Cr2 O5 2.130779 1_555
O0 Ti2 1.972301 1_545
O0 Sb0 1.995380 1_555
O1 Ti1 2.012133 1_555
O1 Ti0 2.017756 1_555
O1 Sb0 2.064350 1_555
O2 Ti0 1.955660 1_555
O2 Ti1 1.964522 1_555
O3 Ti1 1.928466 1_455
O3 Ti0 1.930052 1_565
O4 Ti2 1.983071 1_655
O5 Ti2 1.928208 1_655
O5 Sb0 2.015677 1_555
O6 Ti0 1.985437 1_555
O6 Sb0 2.037966 1_555
O7 Ti1 1.998953 1_555
O7 Sb0 2.040124 1_555
O8 Sb1 2.001028 1_556
O8 Ti0 2.033728 1_565
O8 Ti1 2.036891 1_455
O9 Sb0 1.975500 1_555
O10 Ti2 2.002002 1_555
O10 Sb1 2.039681 1_555
O11 Sb1 2.068871 1_555
O11 Ti2 2.127208 1_555
O12 Ti2 1.925596 1_555
O13 Sb1 1.987094 1_556
O13 Ti0 1.990294 1_555
O14 Sb1 2.039391 1_555
O15 Ti1 1.983722 1_555
O15 Sb1 1.995523 1_556
