# generated using pymatgen
data_Li2VP2O7
_symmetry_space_group_name_H-M   'P 1'
_cell_length_a   9.48387812
_cell_length_b   8.17000824
_cell_length_c   9.48683740
_cell_angle_alpha   71.29524057
_cell_angle_beta   149.06572774
_cell_angle_gamma   119.08536781
_symmetry_Int_Tables_number   1
_chemical_formula_structural   Li2VP2O7
_chemical_formula_sum   'Li4 V2 P4 O14'
_cell_volume   322.54425833
_cell_formula_units_Z   2
loop_
 _symmetry_equiv_pos_site_id
 _symmetry_equiv_pos_as_xyz
  1  'x, y, z'
loop_
 _atom_site_type_symbol
 _atom_site_label
 _atom_site_symmetry_multiplicity
 _atom_site_fract_x
 _atom_site_fract_y
 _atom_site_fract_z
 _atom_site_occupancy
  Li  Li0  1  0.50521300  0.67144400  0.95156100  1
  Li  Li1  1  0.27993600  0.82841400  0.33373600  1
  Li  Li2  1  0.72004600  0.17154100  0.66628900  1
  Li  Li3  1  0.49474500  0.32845300  0.04849300  1
  V  V0  1  0.00009900  0.49999700  0.00001500  1
  V  V1  1  0.50005200  0.00039100  0.99992800  1
  P  P0  1  0.15472900  0.39154700  0.47061700  1
  P  P1  1  0.07900900  0.10839200  0.26311700  1
  P  P2  1  0.92098800  0.89155900  0.73689300  1
  P  P3  1  0.84532900  0.60841100  0.52945000  1
  O  O0  1  0.00452300  0.76425700  0.94479800  1
  O  O1  1  0.18089200  0.73559500  0.74081400  1
  O  O2  1  0.20855300  0.05173900  0.87567300  1
  O  O3  1  0.36766000  0.46263400  0.75777300  1
  O  O4  1  0.17584400  0.55160300  0.34314900  1
  O  O5  1  0.26584900  0.25004800  0.51584600  1
  O  O6  1  0.70494700  0.96269100  0.59515200  1
  O  O7  1  0.29515700  0.03739400  0.40492100  1
  O  O8  1  0.73414600  0.74992100  0.48417400  1
  O  O9  1  0.82413700  0.44835000  0.65687800  1
  O  O10  1  0.63223500  0.53725300  0.24220400  1
  O  O11  1  0.79141300  0.94828600  0.12425400  1
  O  O12  1  0.81909500  0.26440800  0.25911600  1
  O  O13  1  0.99540000  0.23567400  0.05515100  1
loop_
_geom_bond_atom_site_label_1
_geom_bond_atom_site_label_2
_geom_bond_distance
_geom_bond_site_symmetry_2
Li0 O3 1.930179 1_555
Li0 O10 1.975532 1_556
Li0 O11 1.986590 1_556
Li0 O1 2.019460 1_555
Li1 O7 1.929941 1_565
Li1 O6 1.974338 1_555
Li1 O4 1.987021 1_555
Li1 O0 2.021777 1_554
Li2 O6 1.929420 1_545
Li2 O7 1.973716 1_555
Li2 O9 1.987005 1_555
Li2 O13 2.021381 1_556
Li3 O10 1.929970 1_555
Li3 O3 1.975816 1_554
Li3 O2 1.985831 1_554
Li3 O12 2.019559 1_555
O0 P2 1.550586 1_455
O0 V0 2.040031 1_556
O1 P3 1.549975 1_455
O1 V1 2.040793 1_565
O2 P2 1.535968 1_445
O2 V1 2.104296 1_555
O3 P0 1.507841 1_555
O4 P0 1.535908 1_555
O4 V0 2.107542 1_555
O5 P0 1.649768 1_555
O5 P1 1.650873 1_555
O6 P2 1.507945 1_555
O7 P1 1.507669 1_555
O8 P3 1.650074 1_555
O8 P2 1.650697 1_555
O9 P3 1.535979 1_555
O9 V0 2.106374 1_656
O10 P3 1.508075 1_555
O11 P1 1.535684 1_665
O11 V1 2.106732 1_564
O12 P0 1.550031 1_655
O12 V1 2.036444 1_554
O13 P1 1.550682 1_655
O13 V0 2.039865 1_655
