# generated using pymatgen
data_Ba3Y2O6
_symmetry_space_group_name_H-M   'P 1'
_cell_length_a   3.59433100
_cell_length_b   12.52616700
_cell_length_c   18.15577300
_cell_angle_alpha   90.00000000
_cell_angle_beta   90.00000000
_cell_angle_gamma   90.00000000
_symmetry_Int_Tables_number   1
_chemical_formula_structural   Ba3Y2O6
_chemical_formula_sum   'Ba12 Y8 O24'
_cell_volume   817.43082390
_cell_formula_units_Z   4
loop_
 _symmetry_equiv_pos_site_id
 _symmetry_equiv_pos_as_xyz
  1  'x, y, z'
loop_
 _atom_site_type_symbol
 _atom_site_label
 _atom_site_symmetry_multiplicity
 _atom_site_fract_x
 _atom_site_fract_y
 _atom_site_fract_z
 _atom_site_occupancy
  Ba  Ba0  1  0.50000000  0.10440400  0.84581500  1
  Ba  Ba1  1  0.50000000  0.13397600  0.44784100  1
  Ba  Ba2  1  0.50000000  0.15141000  0.23274000  1
  Ba  Ba3  1  0.50000000  0.34859000  0.73274000  1
  Ba  Ba4  1  0.50000000  0.36602400  0.94784100  1
  Ba  Ba5  1  0.50000000  0.39559600  0.34581500  1
  Ba  Ba6  1  0.50000000  0.60440400  0.65418500  1
  Ba  Ba7  1  0.50000000  0.63397600  0.05215900  1
  Ba  Ba8  1  0.50000000  0.65141000  0.26726000  1
  Ba  Ba9  1  0.50000000  0.84859000  0.76726000  1
  Ba  Ba10  1  0.50000000  0.86602400  0.55215900  1
  Ba  Ba11  1  0.50000000  0.89559600  0.15418500  1
  Y  Y0  1  0.00000000  0.11325000  0.63860500  1
  Y  Y1  1  0.00000000  0.12885400  0.04081500  1
  Y  Y2  1  0.00000000  0.37114600  0.54081500  1
  Y  Y3  1  0.00000000  0.38675000  0.13860500  1
  Y  Y4  1  0.00000000  0.61325000  0.86139500  1
  Y  Y5  1  0.00000000  0.62885400  0.45918500  1
  Y  Y6  1  0.00000000  0.87114600  0.95918500  1
  Y  Y7  1  0.00000000  0.88675000  0.36139500  1
  O  O0  1  0.50000000  0.00000000  0.00000000  1
  O  O1  1  0.00000000  0.00000000  0.50000000  1
  O  O2  1  0.50000000  0.98791000  0.33897400  1
  O  O3  1  0.00000000  0.05654900  0.15202600  1
  O  O4  1  0.00000000  0.19407300  0.74190500  1
  O  O5  1  0.50000000  0.24647900  0.58298700  1
  O  O6  1  0.00000000  0.20874100  0.93207700  1
  O  O7  1  0.00000000  0.29125900  0.43207700  1
  O  O8  1  0.50000000  0.25352100  0.08298700  1
  O  O9  1  0.00000000  0.30592700  0.24190500  1
  O  O10  1  0.00000000  0.44345100  0.65202600  1
  O  O11  1  0.50000000  0.51209000  0.83897400  1
  O  O12  1  0.00000000  0.50000000  0.00000000  1
  O  O13  1  0.50000000  0.50000000  0.50000000  1
  O  O14  1  0.50000000  0.48791000  0.16102600  1
  O  O15  1  0.00000000  0.55654900  0.34797400  1
  O  O16  1  0.00000000  0.69407300  0.75809500  1
  O  O17  1  0.50000000  0.74647900  0.91701300  1
  O  O18  1  0.00000000  0.70874100  0.56792300  1
  O  O19  1  0.00000000  0.79125900  0.06792300  1
  O  O20  1  0.50000000  0.75352100  0.41701300  1
  O  O21  1  0.00000000  0.80592700  0.25809500  1
  O  O22  1  0.00000000  0.94345100  0.84797400  1
  O  O23  1  0.50000000  0.01209000  0.66102600  1
loop_
_geom_bond_atom_site_label_1
_geom_bond_atom_site_label_2
_geom_bond_distance
_geom_bond_site_symmetry_2
Ba0 O22 2.701129 1_545
Ba0 O22 2.701129 1_645
Ba0 O6 2.718591 1_555
Ba0 O6 2.718591 1_655
Ba0 O4 2.837346 1_555
Ba0 O4 2.837346 1_655
Ba0 O0 3.089764 1_556
Ba1 O1 2.634950 1_655
Ba1 O1 2.634950 1_555
Ba1 O7 2.682018 1_655
Ba1 O7 2.682018 1_555
Ba1 O2 2.693402 1_545
Ba1 O5 2.829572 1_555
Ba2 O3 2.605609 1_555
Ba2 O3 2.605609 1_655
Ba2 O9 2.646446 1_555
Ba2 O9 2.646446 1_655
Ba2 O2 2.813279 1_545
Ba2 O8 3.004715 1_555
Ba3 O10 2.605609 1_555
Ba3 O10 2.605609 1_655
Ba3 O4 2.646446 1_555
Ba3 O4 2.646446 1_655
Ba3 O11 2.813279 1_555
Ba3 O5 3.004715 1_555
Ba4 O12 2.634950 1_656
Ba4 O12 2.634950 1_556
Ba4 O6 2.682018 1_655
Ba4 O6 2.682018 1_555
Ba4 O11 2.693402 1_555
Ba4 O8 2.829572 1_556
Ba5 O15 2.701129 1_555
Ba5 O15 2.701129 1_655
Ba5 O7 2.718591 1_555
Ba5 O7 2.718591 1_655
Ba5 O9 2.837346 1_555
Ba5 O9 2.837346 1_655
Ba5 O13 3.089764 1_555
Ba6 O10 2.701129 1_555
Ba6 O10 2.701129 1_655
Ba6 O18 2.718591 1_555
Ba6 O18 2.718591 1_655
Ba6 O16 2.837346 1_555
Ba6 O16 2.837346 1_655
Ba6 O13 3.089764 1_555
Ba7 O12 2.634950 1_655
Ba7 O12 2.634950 1_555
Ba7 O19 2.682018 1_655
Ba7 O19 2.682018 1_555
Ba7 O14 2.693402 1_555
Ba7 O17 2.829572 1_554
Ba8 O15 2.605609 1_655
Ba8 O15 2.605609 1_555
Ba8 O21 2.646446 1_555
Ba8 O21 2.646446 1_655
Ba8 O14 2.813279 1_555
Ba8 O20 3.004715 1_555
Ba9 O22 2.605609 1_555
Ba9 O22 2.605609 1_655
Ba9 O16 2.646446 1_555
Ba9 O16 2.646446 1_655
Ba9 O23 2.813279 1_565
Ba9 O17 3.004715 1_555
Ba10 O1 2.634950 1_665
Ba10 O1 2.634950 1_565
Ba10 O18 2.682018 1_555
Ba10 O18 2.682018 1_655
Ba10 O23 2.693402 1_565
Ba10 O20 2.829572 1_555
Ba11 O3 2.701129 1_565
Ba11 O3 2.701129 1_665
Ba11 O19 2.718591 1_655
Ba11 O19 2.718591 1_555
Ba11 O21 2.837346 1_555
Ba11 O21 2.837346 1_655
Ba11 O0 3.089764 1_565
O0 Y1 2.526672 1_555
O0 Y1 2.526672 1_655
O0 Y6 2.526672 1_544
O0 Y6 2.526672 1_644
O1 Y7 2.888783 1_545
O1 Y0 2.888783 1_555
O2 Y7 2.236330 1_555
O2 Y7 2.236330 1_655
O3 Y1 2.212951 1_555
O4 Y0 2.131297 1_555
O5 Y2 2.500928 1_655
O5 Y2 2.500928 1_555
O5 Y0 2.652269 1_655
O5 Y0 2.652269 1_555
O6 Y1 2.213348 1_556
O7 Y2 2.213348 1_555
O8 Y1 2.500928 1_655
O8 Y1 2.500928 1_555
O8 Y3 2.652269 1_555
O8 Y3 2.652269 1_655
O9 Y3 2.131297 1_555
O10 Y2 2.212951 1_555
O11 Y4 2.236330 1_555
O11 Y4 2.236330 1_655
O12 Y4 2.888783 1_554
O12 Y3 2.888783 1_555
O13 Y5 2.526672 1_655
O13 Y5 2.526672 1_555
O13 Y2 2.526672 1_555
O13 Y2 2.526672 1_655
O14 Y3 2.236330 1_655
O14 Y3 2.236330 1_555
O15 Y5 2.212951 1_555
O16 Y4 2.131297 1_555
O17 Y6 2.500928 1_555
O17 Y6 2.500928 1_655
O17 Y4 2.652269 1_655
O17 Y4 2.652269 1_555
O18 Y5 2.213348 1_555
O19 Y6 2.213348 1_554
O20 Y5 2.500928 1_655
O20 Y5 2.500928 1_555
O20 Y7 2.652269 1_655
O20 Y7 2.652269 1_555
O21 Y7 2.131297 1_555
O22 Y6 2.212951 1_555
O23 Y0 2.236330 1_555
O23 Y0 2.236330 1_655
