# generated using pymatgen
data_Li2Co(Si2O5)2
_symmetry_space_group_name_H-M   'P 1'
_cell_length_a   9.98392100
_cell_length_b   6.94435200
_cell_length_c   14.86217615
_cell_angle_alpha   66.33691698
_cell_angle_beta   90.00000000
_cell_angle_gamma   90.00000000
_symmetry_Int_Tables_number   1
_chemical_formula_structural   Li2Co(Si2O5)2
_chemical_formula_sum   'Li8 Co4 Si16 O40'
_cell_volume   943.78586147
_cell_formula_units_Z   4
loop_
 _symmetry_equiv_pos_site_id
 _symmetry_equiv_pos_as_xyz
  1  'x, y, z'
loop_
 _atom_site_type_symbol
 _atom_site_label
 _atom_site_symmetry_multiplicity
 _atom_site_fract_x
 _atom_site_fract_y
 _atom_site_fract_z
 _atom_site_occupancy
  Li  Li0  1  0.85930700  0.97046900  0.41941500  1
  Li  Li1  1  0.09021200  0.54516100  0.76117600  1
  Li  Li2  1  0.59021200  0.45483900  0.73882400  1
  Li  Li3  1  0.35930700  0.02953100  0.08058500  1
  Li  Li4  1  0.64069300  0.97046900  0.91941500  1
  Li  Li5  1  0.40978800  0.54516100  0.26117600  1
  Li  Li6  1  0.90978800  0.45483900  0.23882400  1
  Li  Li7  1  0.14069300  0.02953100  0.58058500  1
  Co  Co0  1  0.86445400  0.78975300  0.66164100  1
  Co  Co1  1  0.36445400  0.21024700  0.83835900  1
  Co  Co2  1  0.63554600  0.78975300  0.16164100  1
  Co  Co3  1  0.13554600  0.21024700  0.33835900  1
  Si  Si0  1  0.72662000  0.64754800  0.86407200  1
  Si  Si1  1  0.44703800  0.66600400  0.83774600  1
  Si  Si2  1  0.02769600  0.08522300  0.16834100  1
  Si  Si3  1  0.26578100  0.78827700  0.45846400  1
  Si  Si4  1  0.76578100  0.21172300  0.04153600  1
  Si  Si5  1  0.52769600  0.91477700  0.33165900  1
  Si  Si6  1  0.77338000  0.64754800  0.36407200  1
  Si  Si7  1  0.05296200  0.66600400  0.33774600  1
  Si  Si8  1  0.94703800  0.33399600  0.66225400  1
  Si  Si9  1  0.22662000  0.35245200  0.63592800  1
  Si  Si10  1  0.47230400  0.08522300  0.66834100  1
  Si  Si11  1  0.23421900  0.78827700  0.95846400  1
  Si  Si12  1  0.73421900  0.21172300  0.54153600  1
  Si  Si13  1  0.97230400  0.91477700  0.83165900  1
  Si  Si14  1  0.55296200  0.33399600  0.16225400  1
  Si  Si15  1  0.27338000  0.35245200  0.13592800  1
  O  O0  1  0.55102500  0.17041300  0.27906800  1
  O  O1  1  0.69612600  0.29815100  0.11854800  1
  O  O2  1  0.17846000  0.97888600  0.46533500  1
  O  O3  1  0.98808900  0.18435300  0.24679400  1
  O  O4  1  0.42163200  0.27966100  0.10528800  1
  O  O5  1  0.71893700  0.66199800  0.75309600  1
  O  O6  1  0.17694500  0.17672200  0.11803200  1
  O  O7  1  0.41917500  0.86023600  0.42071300  1
  O  O8  1  0.77497700  0.41162500  0.93530700  1
  O  O9  1  0.91917500  0.13976400  0.07928700  1
  O  O10  1  0.67694500  0.82327800  0.38196800  1
  O  O11  1  0.97276200  0.56912100  0.65149600  1
  O  O12  1  0.47276200  0.43087900  0.84850400  1
  O  O13  1  0.27497700  0.58837500  0.56469300  1
  O  O14  1  0.92163200  0.72033900  0.39471200  1
  O  O15  1  0.48808900  0.81564700  0.25320600  1
  O  O16  1  0.67846000  0.02111400  0.03466500  1
  O  O17  1  0.19612600  0.70184900  0.38145200  1
  O  O18  1  0.05102500  0.82958700  0.22093200  1
  O  O19  1  0.21893700  0.33800200  0.74690400  1
  O  O20  1  0.78106300  0.66199800  0.25309600  1
  O  O21  1  0.94897500  0.17041300  0.77906800  1
  O  O22  1  0.80387400  0.29815100  0.61854800  1
  O  O23  1  0.32154000  0.97888600  0.96533500  1
  O  O24  1  0.51191100  0.18435300  0.74679400  1
  O  O25  1  0.07836800  0.27966100  0.60528800  1
  O  O26  1  0.72502300  0.41162500  0.43530700  1
  O  O27  1  0.52723800  0.56912100  0.15149600  1
  O  O28  1  0.02723800  0.43087900  0.34850400  1
  O  O29  1  0.32305500  0.17672200  0.61803200  1
  O  O30  1  0.08082500  0.86023600  0.92071300  1
  O  O31  1  0.22502300  0.58837500  0.06469300  1
  O  O32  1  0.58082500  0.13976400  0.57928700  1
  O  O33  1  0.82305500  0.82327800  0.88196800  1
  O  O34  1  0.28106300  0.33800200  0.24690400  1
  O  O35  1  0.57836800  0.72033900  0.89471200  1
  O  O36  1  0.01191100  0.81564700  0.75320600  1
  O  O37  1  0.82154000  0.02111400  0.53466500  1
  O  O38  1  0.30387400  0.70184900  0.88145200  1
  O  O39  1  0.44897500  0.82958700  0.72093200  1
loop_
_geom_bond_atom_site_label_1
_geom_bond_atom_site_label_2
_geom_bond_distance
_geom_bond_site_symmetry_2
Li0 O37 1.919203 1_565
Li0 O14 2.012717 1_555
Li0 O10 2.264082 1_555
Li1 O11 1.960143 1_455
Li1 O36 1.993681 1_555
Li1 O19 2.002785 1_555
Li2 O12 1.960143 1_555
Li2 O24 1.993681 1_555
Li2 O5 2.002785 1_555
Li3 O23 1.919203 1_544
Li3 O4 2.012717 1_555
Li3 O6 2.264082 1_555
Li4 O16 1.919203 1_566
Li4 O35 2.012717 1_555
Li4 O33 2.264082 1_555
Li5 O27 1.960143 1_555
Li5 O15 1.993681 1_555
Li5 O34 2.002785 1_555
Li6 O28 1.960143 1_655
Li6 O3 1.993681 1_555
Li6 O20 2.002785 1_555
Li7 O2 1.919203 1_545
Li7 O25 2.012717 1_555
Li7 O29 2.264082 1_555
Co0 O11 1.930009 1_555
Co0 O5 1.943530 1_555
Co0 O37 1.972912 1_565
Co0 O36 2.061082 1_655
Co1 O12 1.930009 1_555
Co1 O19 1.943530 1_555
Co1 O23 1.972912 1_545
Co1 O24 2.061082 1_555
Co2 O27 1.930009 1_555
Co2 O20 1.943530 1_555
Co2 O16 1.972912 1_565
Co2 O15 2.061082 1_555
Co3 O28 1.930009 1_555
Co3 O34 1.943530 1_555
Co3 O2 1.972912 1_545
Co3 O3 2.061082 1_455
O0 Si5 1.644019 1_545
O0 Si14 1.649787 1_555
O1 Si14 1.629937 1_555
O1 Si4 1.644781 1_555
O2 Si3 1.622048 1_555
O3 Si2 1.622982 1_655
O4 Si14 1.683691 1_555
O4 Si15 1.684774 1_555
O5 Si0 1.613517 1_555
O6 Si15 1.657551 1_555
O6 Si2 1.673857 1_555
O7 Si5 1.633004 1_555
O7 Si3 1.638553 1_555
O8 Si0 1.626580 1_555
O8 Si4 1.633648 1_556
O9 Si2 1.633004 1_655
O9 Si4 1.638553 1_555
O10 Si6 1.657551 1_555
O10 Si5 1.673857 1_555
O11 Si8 1.596236 1_555
O12 Si1 1.596236 1_555
O13 Si9 1.626580 1_555
O13 Si3 1.633648 1_555
O14 Si7 1.683691 1_655
O14 Si6 1.684774 1_555
O15 Si5 1.622982 1_555
O16 Si4 1.622048 1_555
O17 Si7 1.629937 1_555
O17 Si3 1.644781 1_555
O18 Si2 1.644019 1_565
O18 Si7 1.649787 1_555
O19 Si9 1.613517 1_555
O20 Si6 1.613517 1_555
O21 Si13 1.644019 1_545
O21 Si8 1.649787 1_555
O22 Si8 1.629937 1_555
O22 Si12 1.644781 1_555
O23 Si11 1.622048 1_555
O24 Si10 1.622982 1_555
O25 Si8 1.683691 1_455
O25 Si9 1.684774 1_555
O26 Si6 1.626580 1_555
O26 Si12 1.633648 1_555
O27 Si14 1.596236 1_555
O28 Si7 1.596236 1_555
O29 Si9 1.657551 1_555
O29 Si10 1.673857 1_555
O30 Si13 1.633004 1_455
O30 Si11 1.638553 1_555
O31 Si15 1.626580 1_555
O31 Si11 1.633648 1_554
O32 Si10 1.633004 1_555
O32 Si12 1.638553 1_555
O33 Si0 1.657551 1_555
O33 Si13 1.673857 1_555
O34 Si15 1.613517 1_555
O35 Si1 1.683691 1_555
O35 Si0 1.684774 1_555
O36 Si13 1.622982 1_455
O37 Si12 1.622048 1_555
O38 Si1 1.629937 1_555
O38 Si11 1.644781 1_555
O39 Si10 1.644019 1_565
O39 Si1 1.649787 1_555
