# generated using pymatgen
data_Li8Mn3Fe5(BO3)8
_symmetry_space_group_name_H-M   'P 1'
_cell_length_a   5.23097600
_cell_length_b   5.23977028
_cell_length_c   20.86160312
_cell_angle_alpha   90.55504450
_cell_angle_beta   90.84304309
_cell_angle_gamma   119.81708360
_symmetry_Int_Tables_number   1
_chemical_formula_structural   Li8Mn3Fe5(BO3)8
_chemical_formula_sum   'Li8 Mn3 Fe5 B8 O24'
_cell_volume   495.95283580
_cell_formula_units_Z   1
loop_
 _symmetry_equiv_pos_site_id
 _symmetry_equiv_pos_as_xyz
  1  'x, y, z'
loop_
 _atom_site_type_symbol
 _atom_site_label
 _atom_site_symmetry_multiplicity
 _atom_site_fract_x
 _atom_site_fract_y
 _atom_site_fract_z
 _atom_site_occupancy
  Li  Li0  1  0.67781400  0.65278000  0.33332600  1
  Li  Li1  1  0.65205600  0.67575300  0.08475300  1
  Li  Li2  1  0.67868500  0.65171300  0.83330300  1
  Li  Li3  1  0.65116700  0.67576400  0.58407200  1
  Li  Li4  1  0.35069300  0.34006400  0.20805600  1
  Li  Li5  1  0.33685600  0.34634400  0.45815400  1
  Li  Li6  1  0.35222200  0.33968000  0.70816000  1
  Li  Li7  1  0.33708900  0.34587400  0.95851400  1
  Mn  Mn0  1  0.67159600  0.00627300  0.44180800  1
  Mn  Mn1  1  0.66840400  0.00353700  0.94264400  1
  Mn  Mn2  1  0.00213400  0.32575000  0.81633800  1
  Fe  Fe0  1  0.31533600  0.00082800  0.06707400  1
  Fe  Fe1  1  0.31490000  0.99810600  0.56679400  1
  Fe  Fe2  1  0.00366300  0.32067000  0.31602200  1
  Fe  Fe3  1  0.01195500  0.66716400  0.19132800  1
  Fe  Fe4  1  0.00441400  0.66683800  0.69061500  1
  B  B0  1  0.99515300  0.33699100  0.06400400  1
  B  B1  1  0.99612900  0.33730800  0.56363400  1
  B  B2  1  0.66770500  0.00533100  0.18798800  1
  B  B3  1  0.66825800  0.00827800  0.68704500  1
  B  B4  1  0.33726700  0.99727100  0.31235100  1
  B  B5  1  0.34017600  0.99749900  0.81201600  1
  B  B6  1  0.00500000  0.66657500  0.43764400  1
  B  B7  1  0.00358000  0.66587400  0.93870200  1
  O  O0  1  0.92977200  0.25575000  0.20790600  1
  O  O1  1  0.93265500  0.25785600  0.70697900  1
  O  O2  1  0.74040500  0.06918600  0.04979400  1
  O  O3  1  0.97524300  0.58201900  0.08271800  1
  O  O4  1  0.74114900  0.07055800  0.54931400  1
  O  O5  1  0.97575500  0.58268600  0.58249000  1
  O  O6  1  0.41755800  0.03079300  0.17350600  1
  O  O7  1  0.73010700  0.64231800  0.43052500  1
  O  O8  1  0.41910600  0.03313200  0.67269300  1
  O  O9  1  0.72890400  0.64114300  0.93112000  1
  O  O10  1  0.65465800  0.73736800  0.18132200  1
  O  O11  1  0.65532500  0.73983500  0.68075200  1
  O  O12  1  0.35896300  0.27184300  0.30585000  1
  O  O13  1  0.36997900  0.27342700  0.80527600  1
  O  O14  1  0.27009500  0.35860800  0.05756400  1
  O  O15  1  0.58409300  0.97896800  0.33171200  1
  O  O16  1  0.27081100  0.35915200  0.55710100  1
  O  O17  1  0.57800500  0.96666600  0.83324100  1
  O  O18  1  0.03844100  0.42397700  0.42199400  1
  O  O19  1  0.03787300  0.42348000  0.92321200  1
  O  O20  1  0.24664500  0.92956400  0.45932200  1
  O  O21  1  0.24487200  0.92942500  0.96007400  1
  O  O22  1  0.06965700  0.74323800  0.29828600  1
  O  O23  1  0.06888000  0.74794600  0.79670900  1
loop_
_geom_bond_atom_site_label_1
_geom_bond_atom_site_label_2
_geom_bond_distance
_geom_bond_site_symmetry_2
Li0 O12 1.932229 1_555
Li0 O15 1.999145 1_555
Li0 O22 2.011223 1_655
Li0 O7 2.047010 1_555
Li1 O14 1.929202 1_555
Li1 O3 1.982052 1_555
Li1 O2 2.021592 1_565
Li1 O10 2.035973 1_555
Li2 O13 1.909204 1_555
Li2 O17 1.965995 1_555
Li2 O23 2.008220 1_655
Li2 O9 2.058419 1_555
Li3 O16 1.921955 1_555
Li3 O5 1.986628 1_555
Li3 O4 2.024195 1_565
Li3 O11 2.039459 1_555
Li4 O6 1.953548 1_555
Li4 O10 1.982391 1_555
Li4 O0 2.018823 1_455
Li4 O12 2.078156 1_555
Li5 O18 1.942681 1_555
Li5 O7 1.961779 1_555
Li5 O20 1.992219 1_545
Li5 O16 2.103833 1_555
Li6 O8 1.947646 1_555
Li6 O11 1.995232 1_555
Li6 O1 2.015879 1_455
Li6 O13 2.067355 1_555
Li7 O19 1.939684 1_555
Li7 O9 1.954268 1_555
Li7 O21 1.987550 1_545
Li7 O14 2.106875 1_556
Mn0 O7 2.088005 1_545
Mn0 O20 2.091552 1_545
Mn0 O18 2.123132 1_655
Mn0 O4 2.261687 1_555
Mn0 O15 2.324381 1_545
Mn1 O9 2.086776 1_545
Mn1 O21 2.088602 1_545
Mn1 O19 2.133675 1_655
Mn1 O2 2.255732 1_556
Mn1 O17 2.310579 1_545
Mn2 O13 2.089827 1_555
Mn2 O23 2.106444 1_555
Mn2 O17 2.114546 1_445
Mn2 O19 2.266835 1_555
Mn2 O1 2.301032 1_455
Fe0 O14 2.014158 1_555
Fe0 O3 2.058072 1_445
Fe0 O2 2.106273 1_555
Fe0 O21 2.254104 1_544
Fe0 O6 2.261706 1_555
Fe1 O16 2.028030 1_565
Fe1 O5 2.045293 1_455
Fe1 O4 2.105583 1_565
Fe1 O8 2.251378 1_565
Fe1 O20 2.261973 1_555
Fe2 O12 2.012008 1_555
Fe2 O15 2.062630 1_445
Fe2 O22 2.101923 1_555
Fe2 O18 2.254008 1_555
Fe2 O0 2.276181 1_455
Fe3 O0 2.012148 1_455
Fe3 O6 2.070483 1_565
Fe3 O10 2.084663 1_455
Fe3 O22 2.252124 1_555
Fe3 O3 2.291742 1_455
Fe4 O1 2.016869 1_455
Fe4 O11 2.051400 1_455
Fe4 O8 2.103924 1_565
Fe4 O23 2.238366 1_555
Fe4 O5 2.282531 1_455
B0 O3 1.391437 1_555
B0 O14 1.394030 1_655
B0 O2 1.397663 1_555
B1 O16 1.392388 1_655
B1 O5 1.395309 1_555
B1 O4 1.395739 1_555
B2 O10 1.376966 1_545
B2 O0 1.399108 1_555
B2 O6 1.408559 1_555
B3 O11 1.379060 1_545
B3 O8 1.401170 1_555
B3 O1 1.403503 1_555
B4 O12 1.393905 1_565
B4 O22 1.394563 1_555
B4 O15 1.395680 1_555
B5 O13 1.383779 1_565
B5 O17 1.398194 1_555
B5 O23 1.399618 1_555
B6 O7 1.384750 1_455
B6 O20 1.392875 1_555
B6 O18 1.402785 1_555
B7 O9 1.383484 1_455
B7 O21 1.391786 1_555
B7 O19 1.403587 1_555
