# generated using pymatgen
data_YbI2O
_symmetry_space_group_name_H-M   'P 1'
_cell_length_a   6.49385400
_cell_length_b   6.73772300
_cell_length_c   11.31904000
_cell_angle_alpha   90.00000000
_cell_angle_beta   90.00000000
_cell_angle_gamma   90.00000000
_symmetry_Int_Tables_number   1
_chemical_formula_structural   YbI2O
_chemical_formula_sum   'Yb4 I8 O4'
_cell_volume   495.25089299
_cell_formula_units_Z   4
loop_
 _symmetry_equiv_pos_site_id
 _symmetry_equiv_pos_as_xyz
  1  'x, y, z'
loop_
 _atom_site_type_symbol
 _atom_site_label
 _atom_site_symmetry_multiplicity
 _atom_site_fract_x
 _atom_site_fract_y
 _atom_site_fract_z
 _atom_site_occupancy
  Yb  Yb0  1  0.25000000  0.62325300  0.64842800  1
  Yb  Yb1  1  0.25000000  0.12325300  0.85157200  1
  Yb  Yb2  1  0.75000000  0.37674700  0.35157200  1
  Yb  Yb3  1  0.75000000  0.87674700  0.14842800  1
  I  I0  1  0.25000000  0.48735500  0.36513000  1
  I  I1  1  0.25000000  0.98735500  0.13487000  1
  I  I2  1  0.75000000  0.51264500  0.63487000  1
  I  I3  1  0.75000000  0.01264500  0.86513000  1
  I  I4  1  0.75000000  0.85422600  0.44725200  1
  I  I5  1  0.75000000  0.35422600  0.05274800  1
  I  I6  1  0.25000000  0.14577400  0.55274800  1
  I  I7  1  0.25000000  0.64577400  0.94725200  1
  O  O0  1  0.25000000  0.94339300  0.68954300  1
  O  O1  1  0.25000000  0.44339300  0.81045700  1
  O  O2  1  0.75000000  0.05660700  0.31045700  1
  O  O3  1  0.75000000  0.55660700  0.18954300  1
loop_
_geom_bond_atom_site_label_1
_geom_bond_atom_site_label_2
_geom_bond_distance
_geom_bond_site_symmetry_2
I0 Yb0 3.334828 1_555
I0 Yb2 3.334888 1_455
I0 Yb2 3.334888 1_555
I1 Yb1 3.334828 1_564
I1 Yb3 3.334888 1_555
I1 Yb3 3.334888 1_455
I2 Yb2 3.334828 1_555
I2 Yb0 3.334888 1_555
I2 Yb0 3.334888 1_655
I3 Yb3 3.334828 1_546
I3 Yb1 3.334888 1_655
I3 Yb1 3.334888 1_555
I4 O2 2.063220 1_565
I5 O3 2.063220 1_555
I6 O0 2.063220 1_545
I7 O1 2.063220 1_555
O0 Yb1 2.198221 1_565
O0 Yb0 2.206647 1_555
O1 Yb0 2.198221 1_555
O1 Yb1 2.206647 1_555
O2 Yb3 2.198221 1_545
O2 Yb2 2.206647 1_555
O3 Yb2 2.198221 1_555
O3 Yb3 2.206647 1_555
