# generated using pymatgen
data_Li6Mn(BO3)3
_symmetry_space_group_name_H-M   'P 1'
_cell_length_a   16.35957600
_cell_length_b   6.97857900
_cell_length_c   6.98972439
_cell_angle_alpha   74.71123360
_cell_angle_beta   90.00000000
_cell_angle_gamma   90.00000000
_symmetry_Int_Tables_number   1
_chemical_formula_structural   Li6Mn(BO3)3
_chemical_formula_sum   'Li24 Mn4 B12 O36'
_cell_volume   769.75136017
_cell_formula_units_Z   4
loop_
 _symmetry_equiv_pos_site_id
 _symmetry_equiv_pos_as_xyz
  1  'x, y, z'
loop_
 _atom_site_type_symbol
 _atom_site_label
 _atom_site_symmetry_multiplicity
 _atom_site_fract_x
 _atom_site_fract_y
 _atom_site_fract_z
 _atom_site_occupancy
  Li  Li0  1  0.00748800  0.32996600  0.06244600  1
  Li  Li1  1  0.44888300  0.41693200  0.14487100  1
  Li  Li2  1  0.49251200  0.82996600  0.06244600  1
  Li  Li3  1  0.53922400  0.04575300  0.31618000  1
  Li  Li4  1  0.05111700  0.91693200  0.14487100  1
  Li  Li5  1  0.29907900  0.37959900  0.26857100  1
  Li  Li6  1  0.96077600  0.54575300  0.31618000  1
  Li  Li7  1  0.70980800  0.05015700  0.39675700  1
  Li  Li8  1  0.04811100  0.16856300  0.45897400  1
  Li  Li9  1  0.20092100  0.87959900  0.26857100  1
  Li  Li10  1  0.79019200  0.55015700  0.39675700  1
  Li  Li11  1  0.45188900  0.66856300  0.45897400  1
  Li  Li12  1  0.54811100  0.33143700  0.54102600  1
  Li  Li13  1  0.20980800  0.44984300  0.60324300  1
  Li  Li14  1  0.79907900  0.12040100  0.73142900  1
  Li  Li15  1  0.95188900  0.83143700  0.54102600  1
  Li  Li16  1  0.29019200  0.94984300  0.60324300  1
  Li  Li17  1  0.03922400  0.45424700  0.68382000  1
  Li  Li18  1  0.70092100  0.62040100  0.73142900  1
  Li  Li19  1  0.94888300  0.08306800  0.85512900  1
  Li  Li20  1  0.46077600  0.95424700  0.68382000  1
  Li  Li21  1  0.50748800  0.17003400  0.93755400  1
  Li  Li22  1  0.55111700  0.58306800  0.85512900  1
  Li  Li23  1  0.99251200  0.67003400  0.93755400  1
  Mn  Mn0  1  0.80539700  0.32274800  0.05751500  1
  Mn  Mn1  1  0.69460300  0.82274800  0.05751500  1
  Mn  Mn2  1  0.30539700  0.17725200  0.94248500  1
  Mn  Mn3  1  0.19460300  0.67725200  0.94248500  1
  B  B0  1  0.63480400  0.35864500  0.08185800  1
  B  B1  1  0.86519600  0.85864500  0.08185800  1
  B  B2  1  0.13065700  0.50831800  0.27075300  1
  B  B3  1  0.89100000  0.19569100  0.42210700  1
  B  B4  1  0.36934300  0.00831800  0.27075300  1
  B  B5  1  0.60900000  0.69569100  0.42210700  1
  B  B6  1  0.39100000  0.30430900  0.57789300  1
  B  B7  1  0.63065700  0.99168200  0.72924700  1
  B  B8  1  0.10900000  0.80430900  0.57789300  1
  B  B9  1  0.86934300  0.49168200  0.72924700  1
  B  B10  1  0.13480400  0.14135500  0.91814200  1
  B  B11  1  0.36519600  0.64135500  0.91814200  1
  O  O0  1  0.34431800  0.44590500  0.99643400  1
  O  O1  1  0.41178000  0.04065300  0.09260500  1
  O  O2  1  0.55327800  0.30564000  0.11351400  1
  O  O3  1  0.69498200  0.21251400  0.11599300  1
  O  O4  1  0.15568200  0.94590500  0.99643400  1
  O  O5  1  0.08822000  0.54065300  0.09260500  1
  O  O6  1  0.28844700  0.07867400  0.24210700  1
  O  O7  1  0.94672200  0.80564000  0.11351400  1
  O  O8  1  0.80501800  0.71251400  0.11599300  1
  O  O9  1  0.95494600  0.27175900  0.30074600  1
  O  O10  1  0.21155300  0.57867400  0.24210700  1
  O  O11  1  0.54505400  0.77175900  0.30074600  1
  O  O12  1  0.81049300  0.25384700  0.35818800  1
  O  O13  1  0.40367200  0.43475200  0.39442100  1
  O  O14  1  0.60041900  0.07621600  0.54490500  1
  O  O15  1  0.10041900  0.42378400  0.45509500  1
  O  O16  1  0.68950700  0.75384700  0.35818800  1
  O  O17  1  0.90367200  0.06524800  0.60557900  1
  O  O18  1  0.09632800  0.93475200  0.39442100  1
  O  O19  1  0.31049300  0.24615300  0.64181200  1
  O  O20  1  0.89958100  0.57621600  0.54490500  1
  O  O21  1  0.39958100  0.92378400  0.45509500  1
  O  O22  1  0.59632800  0.56524800  0.60557900  1
  O  O23  1  0.18950700  0.74615300  0.64181200  1
  O  O24  1  0.45494600  0.22824100  0.69925400  1
  O  O25  1  0.78844700  0.42132600  0.75789300  1
  O  O26  1  0.04505400  0.72824100  0.69925400  1
  O  O27  1  0.19498200  0.28748600  0.88400700  1
  O  O28  1  0.05327800  0.19436000  0.88648600  1
  O  O29  1  0.71155300  0.92132600  0.75789300  1
  O  O30  1  0.91178000  0.45934700  0.90739500  1
  O  O31  1  0.84431800  0.05409500  0.00356600  1
  O  O32  1  0.30501800  0.78748600  0.88400700  1
  O  O33  1  0.44672200  0.69436000  0.88648600  1
  O  O34  1  0.58822000  0.95934700  0.90739500  1
  O  O35  1  0.65568200  0.55409500  0.00356600  1
loop_
_geom_bond_atom_site_label_1
_geom_bond_atom_site_label_2
_geom_bond_distance
_geom_bond_site_symmetry_2
Li0 O9 1.822480 1_455
Li0 O28 1.892936 1_554
Li0 O30 1.981229 1_454
Li0 O5 2.028305 1_555
Li1 O2 1.912535 1_555
Li1 O13 1.928587 1_555
Li1 O0 1.983182 1_554
Li1 O33 2.273179 1_554
Li2 O11 1.822480 1_555
Li2 O33 1.892936 1_554
Li2 O34 1.981229 1_554
Li2 O1 2.028305 1_565
Li3 O14 1.944891 1_555
Li3 O11 1.945662 1_545
Li3 O2 1.998489 1_555
Li3 O21 2.539759 1_545
Li4 O7 1.912535 1_455
Li4 O18 1.928587 1_555
Li4 O4 1.983182 1_554
Li4 O28 2.273179 1_564
Li5 O10 1.969528 1_555
Li5 O0 1.978862 1_554
Li5 O13 2.007073 1_555
Li5 O6 2.163204 1_555
Li5 O19 2.535147 1_555
Li6 O20 1.944891 1_555
Li6 O9 1.945662 1_555
Li6 O7 1.998489 1_555
Li6 O15 2.539759 1_655
Li7 O3 2.005298 1_555
Li7 O14 2.099330 1_555
Li7 O12 2.145764 1_555
Li7 O16 2.180104 1_545
Li7 O29 2.446239 1_545
Li8 O9 1.909128 1_455
Li8 O18 1.968860 1_545
Li8 O15 1.969721 1_555
Li9 O6 1.969528 1_565
Li9 O4 1.978862 1_554
Li9 O18 2.007073 1_555
Li9 O10 2.163204 1_555
Li9 O23 2.535147 1_555
Li10 O8 2.005298 1_555
Li10 O20 2.099330 1_555
Li10 O16 2.145764 1_555
Li10 O12 2.180104 1_555
Li10 O25 2.446239 1_555
Li11 O11 1.909128 1_555
Li11 O13 1.968860 1_555
Li11 O21 1.969721 1_555
Li12 O24 1.909128 1_555
Li12 O22 1.968860 1_555
Li12 O14 1.969721 1_555
Li13 O27 2.005298 1_555
Li13 O15 2.099330 1_555
Li13 O19 2.145764 1_555
Li13 O23 2.180104 1_555
Li13 O10 2.446239 1_555
Li14 O29 1.969528 1_545
Li14 O31 1.978862 1_556
Li14 O17 2.007073 1_555
Li14 O25 2.163204 1_555
Li14 O12 2.535147 1_555
Li15 O26 1.909128 1_655
Li15 O17 1.968860 1_565
Li15 O20 1.969721 1_555
Li16 O32 2.005298 1_555
Li16 O21 2.099330 1_555
Li16 O23 2.145764 1_555
Li16 O19 2.180104 1_565
Li16 O6 2.446239 1_565
Li17 O15 1.944891 1_555
Li17 O26 1.945662 1_555
Li17 O28 1.998489 1_555
Li17 O20 2.539759 1_455
Li18 O25 1.969528 1_555
Li18 O35 1.978862 1_556
Li18 O22 2.007073 1_555
Li18 O29 2.163204 1_555
Li18 O16 2.535147 1_555
Li19 O28 1.912535 1_655
Li19 O17 1.928587 1_555
Li19 O31 1.983182 1_556
Li19 O7 2.273179 1_546
Li20 O21 1.944891 1_555
Li20 O24 1.945662 1_565
Li20 O33 1.998489 1_555
Li20 O14 2.539759 1_565
Li21 O24 1.822480 1_555
Li21 O2 1.892936 1_556
Li21 O1 1.981229 1_556
Li21 O34 2.028305 1_545
Li22 O33 1.912535 1_555
Li22 O22 1.928587 1_555
Li22 O35 1.983182 1_556
Li22 O2 2.273179 1_556
Li23 O26 1.822480 1_655
Li23 O7 1.892936 1_556
Li23 O5 1.981229 1_656
Li23 O30 2.028305 1_555
Mn0 O3 1.963647 1_555
Mn0 O12 2.030282 1_555
Mn0 O25 2.043610 1_554
Mn0 O31 2.106037 1_555
Mn0 O30 2.123950 1_554
Mn1 O8 1.963647 1_555
Mn1 O16 2.030282 1_555
Mn1 O29 2.043610 1_554
Mn1 O35 2.106037 1_555
Mn1 O34 2.123950 1_554
Mn2 O27 1.963647 1_555
Mn2 O19 2.030282 1_555
Mn2 O6 2.043610 1_556
Mn2 O0 2.106037 1_555
Mn2 O1 2.123950 1_556
Mn3 O32 1.963647 1_555
Mn3 O23 2.030282 1_555
Mn3 O10 2.043610 1_556
Mn3 O4 2.106037 1_555
Mn3 O5 2.123950 1_556
B0 O35 1.372185 1_555
B0 O2 1.386167 1_555
B0 O3 1.392045 1_555
B1 O31 1.372185 1_565
B1 O7 1.386167 1_555
B1 O8 1.392045 1_555
B2 O15 1.360916 1_555
B2 O5 1.391136 1_555
B2 O10 1.407396 1_555
B3 O9 1.363190 1_555
B3 O17 1.378618 1_555
B3 O12 1.415396 1_555
B4 O21 1.360916 1_545
B4 O1 1.391136 1_555
B4 O6 1.407396 1_555
B5 O11 1.363190 1_555
B5 O22 1.378618 1_555
B5 O16 1.415396 1_555
B6 O24 1.363190 1_555
B6 O13 1.378618 1_555
B6 O19 1.415396 1_555
B7 O14 1.360916 1_565
B7 O34 1.391136 1_555
B7 O29 1.407396 1_555
B8 O26 1.363190 1_555
B8 O18 1.378618 1_555
B8 O23 1.415396 1_555
B9 O20 1.360916 1_555
B9 O30 1.391136 1_555
B9 O25 1.407396 1_555
B10 O4 1.372185 1_545
B10 O28 1.386167 1_555
B10 O27 1.392045 1_555
B11 O0 1.372185 1_555
B11 O33 1.386167 1_555
B11 O32 1.392045 1_555
