# generated using pymatgen
data_FePO4F
_symmetry_space_group_name_H-M   'P 1'
_cell_length_a   6.33096600
_cell_length_b   10.85188200
_cell_length_c   12.80399700
_cell_angle_alpha   90.00000000
_cell_angle_beta   90.00000000
_cell_angle_gamma   90.00000000
_symmetry_Int_Tables_number   1
_chemical_formula_structural   FePO4F
_chemical_formula_sum   'Fe8 P8 O32 F8'
_cell_volume   879.67167399
_cell_formula_units_Z   8
loop_
 _symmetry_equiv_pos_site_id
 _symmetry_equiv_pos_as_xyz
  1  'x, y, z'
loop_
 _atom_site_type_symbol
 _atom_site_label
 _atom_site_symmetry_multiplicity
 _atom_site_fract_x
 _atom_site_fract_y
 _atom_site_fract_z
 _atom_site_occupancy
  Fe  Fe0  1  0.75000000  0.75000000  0.86220000  1
  Fe  Fe1  1  0.00000000  0.50000000  0.00000000  1
  Fe  Fe2  1  0.50000000  0.00000000  0.00000000  1
  Fe  Fe3  1  0.25000000  0.25000000  0.13780000  1
  Fe  Fe4  1  0.25000000  0.75000000  0.36220000  1
  Fe  Fe5  1  0.00000000  0.50000000  0.50000000  1
  Fe  Fe6  1  0.50000000  0.00000000  0.50000000  1
  Fe  Fe7  1  0.75000000  0.25000000  0.63780000  1
  P  P0  1  0.58345100  0.00000000  0.75000000  1
  P  P1  1  0.25000000  0.75000000  0.93606100  1
  P  P2  1  0.75000000  0.25000000  0.06393900  1
  P  P3  1  0.08345100  0.50000000  0.25000000  1
  P  P4  1  0.41654900  0.00000000  0.25000000  1
  P  P5  1  0.75000000  0.75000000  0.43606100  1
  P  P6  1  0.25000000  0.25000000  0.56393900  1
  P  P7  1  0.91654900  0.50000000  0.75000000  1
  O  O0  1  0.77144500  0.61536800  0.75747800  1
  O  O1  1  0.72855500  0.88463200  0.75747800  1
  O  O2  1  0.05653100  0.48535400  0.84661900  1
  O  O3  1  0.44346900  0.01464600  0.84661900  1
  O  O4  1  0.05989400  0.77565400  0.86334000  1
  O  O5  1  0.44010600  0.72434600  0.86334000  1
  O  O6  1  0.70785800  0.13700400  0.99262000  1
  O  O7  1  0.79214200  0.36299600  0.99262000  1
  O  O8  1  0.29214200  0.86299600  0.00738000  1
  O  O9  1  0.20785800  0.63700400  0.00738000  1
  O  O10  1  0.94010600  0.22434600  0.13666000  1
  O  O11  1  0.55989400  0.27565400  0.13666000  1
  O  O12  1  0.94346900  0.51464600  0.15338100  1
  O  O13  1  0.55653100  0.98535400  0.15338100  1
  O  O14  1  0.22855500  0.38463200  0.24252200  1
  O  O15  1  0.27144500  0.11536800  0.24252200  1
  O  O16  1  0.22855500  0.61536800  0.25747800  1
  O  O17  1  0.27144500  0.88463200  0.25747800  1
  O  O18  1  0.94346900  0.48535400  0.34661900  1
  O  O19  1  0.55653100  0.01464600  0.34661900  1
  O  O20  1  0.94010600  0.77565400  0.36334000  1
  O  O21  1  0.55989400  0.72434600  0.36334000  1
  O  O22  1  0.29214200  0.13700400  0.49262000  1
  O  O23  1  0.20785800  0.36299600  0.49262000  1
  O  O24  1  0.70785800  0.86299600  0.50738000  1
  O  O25  1  0.79214200  0.63700400  0.50738000  1
  O  O26  1  0.05989400  0.22434600  0.63666000  1
  O  O27  1  0.44010600  0.27565400  0.63666000  1
  O  O28  1  0.05653100  0.51464600  0.65338100  1
  O  O29  1  0.44346900  0.98535400  0.65338100  1
  O  O30  1  0.77144500  0.38463200  0.74252200  1
  O  O31  1  0.72855500  0.11536800  0.74252200  1
  F  F0  1  0.72246400  0.87621600  0.97419900  1
  F  F1  1  0.77753600  0.62378400  0.97419900  1
  F  F2  1  0.27753600  0.12378400  0.02580100  1
  F  F3  1  0.22246400  0.37621600  0.02580100  1
  F  F4  1  0.27753600  0.87621600  0.47419900  1
  F  F5  1  0.22246400  0.62378400  0.47419900  1
  F  F6  1  0.72246400  0.12378400  0.52580100  1
  F  F7  1  0.77753600  0.37621600  0.52580100  1
loop_
_geom_bond_atom_site_label_1
_geom_bond_atom_site_label_2
_geom_bond_distance
_geom_bond_site_symmetry_2
Fe0 O4 1.981636 1_655
Fe0 O5 1.981636 1_555
Fe0 O0 1.987685 1_555
Fe0 O1 1.987685 1_555
Fe1 O9 1.987728 1_555
Fe1 O7 1.987728 1_454
Fe1 O12 2.002552 1_455
Fe1 O2 2.002552 1_554
Fe2 O6 1.987728 1_554
Fe2 O8 1.987728 1_545
Fe2 O3 2.002552 1_554
Fe2 O13 2.002552 1_545
Fe3 O11 1.981636 1_555
Fe3 O10 1.981636 1_455
Fe3 O15 1.987685 1_555
Fe3 O14 1.987685 1_555
Fe4 O20 1.981636 1_455
Fe4 O21 1.981636 1_555
Fe4 O17 1.987685 1_555
Fe4 O16 1.987685 1_555
Fe5 O25 1.987728 1_455
Fe5 O23 1.987728 1_555
Fe5 O28 2.002552 1_555
Fe5 O18 2.002552 1_455
Fe6 O22 1.987728 1_555
Fe6 O24 1.987728 1_545
Fe6 O29 2.002552 1_545
Fe6 O19 2.002552 1_555
Fe7 O26 1.981636 1_655
Fe7 O27 1.981636 1_555
Fe7 O30 1.987685 1_555
Fe7 O31 1.987685 1_555
O0 P7 1.555791 1_555
O1 P0 1.555791 1_565
O2 P7 1.530062 1_455
O3 P0 1.530062 1_555
O4 P1 1.546942 1_555
O5 P1 1.546942 1_555
O6 P2 1.551990 1_556
O7 P2 1.551990 1_556
O8 P1 1.551990 1_554
O9 P1 1.551990 1_554
O10 P2 1.546942 1_555
O11 P2 1.546942 1_555
O12 P3 1.530062 1_655
O13 P4 1.530062 1_565
O14 P3 1.555791 1_555
O15 P4 1.555791 1_555
O16 P3 1.555791 1_555
O17 P4 1.555791 1_565
O18 P3 1.530062 1_655
O19 P4 1.530062 1_555
O20 P5 1.546942 1_555
O21 P5 1.546942 1_555
O22 P6 1.551990 1_555
O23 P6 1.551990 1_555
O24 P5 1.551990 1_555
O25 P5 1.551990 1_555
O26 P6 1.546942 1_555
O27 P6 1.546942 1_555
O28 P7 1.530062 1_455
O29 P0 1.530062 1_565
O30 P7 1.555791 1_555
O31 P0 1.555791 1_555
F0 Fe2 1.974129 1_566
F0 Fe0 1.990697 1_555
F1 Fe1 1.974129 1_656
F1 Fe0 1.990697 1_555
F2 Fe2 1.974129 1_555
F2 Fe3 1.990697 1_555
F3 Fe1 1.974129 1_555
F3 Fe3 1.990697 1_555
F4 Fe6 1.974129 1_565
F4 Fe4 1.990697 1_555
F5 Fe5 1.974129 1_555
F5 Fe4 1.990697 1_555
F6 Fe6 1.974129 1_555
F6 Fe7 1.990697 1_555
F7 Fe5 1.974129 1_655
F7 Fe7 1.990697 1_555
