# generated using pymatgen
data_FeCoO4
_symmetry_space_group_name_H-M   'P 1'
_cell_length_a   5.05554513
_cell_length_b   10.12923171
_cell_length_c   9.70115740
_cell_angle_alpha   16.71669964
_cell_angle_beta   29.36826237
_cell_angle_gamma   33.42001049
_symmetry_Int_Tables_number   1
_chemical_formula_structural   FeCoO4
_chemical_formula_sum   'Fe1 Co1 O4'
_cell_volume   70.07869102
_cell_formula_units_Z   1
loop_
 _symmetry_equiv_pos_site_id
 _symmetry_equiv_pos_as_xyz
  1  'x, y, z'
loop_
 _atom_site_type_symbol
 _atom_site_label
 _atom_site_symmetry_multiplicity
 _atom_site_fract_x
 _atom_site_fract_y
 _atom_site_fract_z
 _atom_site_occupancy
  Fe  Fe0  1  0.50000000  0.00000000  0.50000000  1
  Co  Co0  1  0.50000000  0.50000000  0.50000000  1
  O  O0  1  0.20543400  0.50000000  0.24627100  1
  O  O1  1  0.79456600  0.50000000  0.75372900  1
  O  O2  1  0.25849200  0.00000000  0.21951700  1
  O  O3  1  0.74150800  0.00000000  0.78048300  1
loop_
_geom_bond_atom_site_label_1
_geom_bond_atom_site_label_2
_geom_bond_distance
_geom_bond_site_symmetry_2
Fe0 O0 1.961262 1_555
Fe0 O1 1.961262 1_545
Fe0 O0 1.961263 1_546
Fe0 O1 1.961263 1_554
Fe0 O2 1.980376 1_655
Fe0 O3 1.980376 1_455
Co0 O0 1.864697 1_655
Co0 O1 1.864697 1_455
Co0 O3 1.901605 1_555
Co0 O2 1.901605 1_565
Co0 O2 1.901606 1_556
Co0 O3 1.901606 1_564
