# generated using pymatgen
data_BaAg2GeS4
_symmetry_space_group_name_H-M   'P 1'
_cell_length_a   6.38553858
_cell_length_b   6.38553858
_cell_length_c   6.38553858
_cell_angle_alpha   114.99617801
_cell_angle_beta   114.99617801
_cell_angle_gamma   98.91009139
_symmetry_Int_Tables_number   1
_chemical_formula_structural   BaAg2GeS4
_chemical_formula_sum   'Ba1 Ag2 Ge1 S4'
_cell_volume   195.46732736
_cell_formula_units_Z   1
loop_
 _symmetry_equiv_pos_site_id
 _symmetry_equiv_pos_as_xyz
  1  'x, y, z'
loop_
 _atom_site_type_symbol
 _atom_site_label
 _atom_site_symmetry_multiplicity
 _atom_site_fract_x
 _atom_site_fract_y
 _atom_site_fract_z
 _atom_site_occupancy
  Ba  Ba0  1  0.00000000  0.00000000  0.00000000  1
  Ag  Ag0  1  0.25000000  0.75000000  0.50000000  1
  Ag  Ag1  1  0.75000000  0.25000000  0.50000000  1
  Ge  Ge0  1  0.50000000  0.50000000  0.00000000  1
  S  S0  1  0.15552700  0.15552700  0.62212100  1
  S  S1  1  0.84447300  0.46659400  0.00000000  1
  S  S2  1  0.46659400  0.84447300  0.00000000  1
  S  S3  1  0.53340600  0.53340600  0.37787900  1
loop_
_geom_bond_atom_site_label_1
_geom_bond_atom_site_label_2
_geom_bond_distance
_geom_bond_site_symmetry_2
Ba0 S3 3.283297 1_444
Ba0 S0 3.283297 1_555
Ba0 S2 3.283297 1_545
Ba0 S1 3.283297 1_455
Ba0 S0 3.397037 1_554
Ba0 S2 3.397037 1_445
Ba0 S1 3.397037 1_445
Ba0 S3 3.397037 1_555
Ag0 S1 2.617726 1_455
Ag0 S2 2.617726 1_556
Ag0 S0 2.617726 1_565
Ag0 S3 2.617726 1_555
Ag1 S0 2.617726 1_655
Ag1 S1 2.617726 1_556
Ag1 S2 2.617726 1_545
Ag1 S3 2.617726 1_555
Ge0 S3 2.242609 1_555
Ge0 S2 2.242609 1_555
Ge0 S0 2.242609 1_554
Ge0 S1 2.242609 1_555
