# generated using pymatgen
data_Li5MnO4
_symmetry_space_group_name_H-M   'P 1'
_cell_length_a   5.05062500
_cell_length_b   14.75842800
_cell_length_c   5.15114700
_cell_angle_alpha   89.99744750
_cell_angle_beta   90.00266202
_cell_angle_gamma   89.99931806
_symmetry_Int_Tables_number   1
_chemical_formula_structural   Li5MnO4
_chemical_formula_sum   'Li20 Mn4 O16'
_cell_volume   383.96281605
_cell_formula_units_Z   4
loop_
 _symmetry_equiv_pos_site_id
 _symmetry_equiv_pos_as_xyz
  1  'x, y, z'
loop_
 _atom_site_type_symbol
 _atom_site_label
 _atom_site_symmetry_multiplicity
 _atom_site_fract_x
 _atom_site_fract_y
 _atom_site_fract_z
 _atom_site_occupancy
  Li  Li0  1  0.27287300  0.49999500  0.66646500  1
  Li  Li1  1  0.27290800  0.99999100  0.66641400  1
  Li  Li2  1  0.77287600  0.24997900  0.33352600  1
  Li  Li3  1  0.77299000  0.74999800  0.33362600  1
  Li  Li4  1  0.05978800  0.16331100  0.92278700  1
  Li  Li5  1  0.06012600  0.66335500  0.92290500  1
  Li  Li6  1  0.05957400  0.33658800  0.92275500  1
  Li  Li7  1  0.05989700  0.83658400  0.92290400  1
  Li  Li8  1  0.55990700  0.08662900  0.07704400  1
  Li  Li9  1  0.55987400  0.58664100  0.07707200  1
  Li  Li10  1  0.55964100  0.41340700  0.07716300  1
  Li  Li11  1  0.55971300  0.91341200  0.07714900  1
  Li  Li12  1  0.22814800  0.34411900  0.41486900  1
  Li  Li13  1  0.22812100  0.84408700  0.41499200  1
  Li  Li14  1  0.22848800  0.15578100  0.41476100  1
  Li  Li15  1  0.22854300  0.65583800  0.41483400  1
  Li  Li16  1  0.72847200  0.09420400  0.58515200  1
  Li  Li17  1  0.72852900  0.59418700  0.58517000  1
  Li  Li18  1  0.72812800  0.40582400  0.58505900  1
  Li  Li19  1  0.72821200  0.90587200  0.58503900  1
  Mn  Mn0  1  0.01759100  0.50000900  0.15300300  1
  Mn  Mn1  1  0.51792800  0.75014200  0.84697200  1
  Mn  Mn2  1  0.01761600  0.99988800  0.15288500  1
  Mn  Mn3  1  0.51730900  0.25003700  0.84744600  1
  O  O0  1  0.36494700  0.00006600  0.29747200  1
  O  O1  1  0.36424600  0.50003700  0.29810100  1
  O  O2  1  0.86408600  0.24995300  0.70191400  1
  O  O3  1  0.86534500  0.74999400  0.70241700  1
  O  O4  1  0.37822900  0.25000200  0.19078300  1
  O  O5  1  0.37847300  0.75007700  0.19054200  1
  O  O6  1  0.87844400  0.99991800  0.80937000  1
  O  O7  1  0.87831800  0.49999400  0.80949200  1
  O  O8  1  0.39907100  0.12969700  0.75562100  1
  O  O9  1  0.39938200  0.62971700  0.75536000  1
  O  O10  1  0.39883500  0.37030100  0.75564400  1
  O  O11  1  0.39899400  0.87032800  0.75550400  1
  O  O12  1  0.89888700  0.37969100  0.24434500  1
  O  O13  1  0.89897100  0.87967800  0.24444800  1
  O  O14  1  0.89912600  0.12029500  0.24436200  1
  O  O15  1  0.89924600  0.62037300  0.24462800  1
loop_
_geom_bond_atom_site_label_1
_geom_bond_atom_site_label_2
_geom_bond_distance
_geom_bond_site_symmetry_2
Li0 O1 1.952831 1_555
Li0 O10 2.068653 1_555
Li0 O9 2.069614 1_555
Li0 O7 2.124616 1_455
Li1 O0 1.956521 1_565
Li1 O11 2.068320 1_555
Li1 O8 2.069213 1_565
Li1 O6 2.124058 1_455
Li2 O2 1.952716 1_555
Li2 O14 2.068998 1_555
Li2 O12 2.069004 1_555
Li2 O4 2.124481 1_555
Li3 O3 1.956104 1_555
Li3 O15 2.068012 1_555
Li3 O13 2.068517 1_555
Li3 O5 2.124474 1_555
Li4 O14 1.950754 1_456
Li4 O2 1.976424 1_455
Li4 O8 1.980945 1_555
Li5 O15 1.951697 1_456
Li5 O3 1.972931 1_455
Li5 O9 1.981765 1_555
Li6 O12 1.951333 1_456
Li6 O2 1.975803 1_455
Li6 O10 1.981083 1_555
Li7 O13 1.951591 1_456
Li7 O3 1.971964 1_455
Li7 O11 1.981129 1_555
Li8 O8 1.950635 1_554
Li8 O0 1.972545 1_555
Li8 O14 1.981139 1_555
Li9 O9 1.951215 1_554
Li9 O1 1.976405 1_555
Li9 O15 1.982585 1_555
Li10 O10 1.951229 1_554
Li10 O1 1.975846 1_555
Li10 O12 1.981108 1_555
Li11 O11 1.951491 1_554
Li11 O0 1.972666 1_565
Li11 O13 1.981489 1_555
Li12 O12 1.952555 1_455
Li12 O4 1.958711 1_555
Li12 O10 1.993434 1_555
Li13 O13 1.952200 1_455
Li13 O5 1.959228 1_555
Li13 O11 1.992817 1_555
Li14 O14 1.952391 1_455
Li14 O4 1.958748 1_555
Li14 O8 1.993278 1_555
Li15 O15 1.951581 1_455
Li15 O5 1.960259 1_555
Li15 O9 1.992428 1_555
Li16 O8 1.952808 1_555
Li16 O6 1.960554 1_545
Li16 O14 1.993210 1_555
Li17 O9 1.951215 1_555
Li17 O7 1.959539 1_555
Li17 O15 1.992494 1_555
Li18 O10 1.952720 1_555
Li18 O7 1.960504 1_555
Li18 O12 1.993241 1_555
Li19 O11 1.952203 1_555
Li19 O6 1.958979 1_555
Li19 O13 1.992857 1_555
Mn0 O1 1.903655 1_555
Mn0 O7 1.904133 1_454
Mn0 O12 1.932337 1_455
Mn0 O15 1.932780 1_455
Mn1 O5 1.904816 1_556
Mn1 O3 1.906166 1_555
Mn1 O11 1.931039 1_555
Mn1 O9 1.933904 1_555
Mn2 O6 1.903964 1_454
Mn2 O0 1.905767 1_565
Mn2 O13 1.931057 1_455
Mn2 O14 1.933404 1_465
Mn3 O4 1.903001 1_556
Mn3 O2 1.905165 1_555
Mn3 O10 1.931796 1_555
Mn3 O8 1.932539 1_555
