# generated using pymatgen
data_NaInBP2HO9
_symmetry_space_group_name_H-M   'P 1'
_cell_length_a   17.06768600
_cell_length_b   5.25778300
_cell_length_c   9.23949775
_cell_angle_alpha   58.73373136
_cell_angle_beta   90.00000000
_cell_angle_gamma   90.00000000
_symmetry_Int_Tables_number   1
_chemical_formula_structural   NaInBP2HO9
_chemical_formula_sum   'Na4 In4 B4 P8 H4 O36'
_cell_volume   708.71587513
_cell_formula_units_Z   4
loop_
 _symmetry_equiv_pos_site_id
 _symmetry_equiv_pos_as_xyz
  1  'x, y, z'
loop_
 _atom_site_type_symbol
 _atom_site_label
 _atom_site_symmetry_multiplicity
 _atom_site_fract_x
 _atom_site_fract_y
 _atom_site_fract_z
 _atom_site_occupancy
  Na  Na0  1  0.66116900  0.98321700  0.66127500  1
  Na  Na1  1  0.83883100  0.98321700  0.16127500  1
  Na  Na2  1  0.33883100  0.01678300  0.33872500  1
  Na  Na3  1  0.16116900  0.01678300  0.83872500  1
  In  In0  1  0.65579500  0.48431200  0.19391400  1
  In  In1  1  0.84420500  0.48431200  0.69391400  1
  In  In2  1  0.34420500  0.51568800  0.80608600  1
  In  In3  1  0.15579500  0.51568800  0.30608600  1
  B  B0  1  0.52860000  0.34124900  0.74892100  1
  B  B1  1  0.97140000  0.34124900  0.24892100  1
  B  B2  1  0.47140000  0.65875100  0.25107900  1
  B  B3  1  0.02860000  0.65875100  0.75107900  1
  P  P0  1  0.66996600  0.23173300  0.91833900  1
  P  P1  1  0.83003400  0.23173300  0.41833900  1
  P  P2  1  0.33003400  0.76826700  0.08166100  1
  P  P3  1  0.16996600  0.76826700  0.58166100  1
  P  P4  1  0.58762100  0.74438400  0.42702300  1
  P  P5  1  0.91237900  0.74438400  0.92702300  1
  P  P6  1  0.41237900  0.25561600  0.57297700  1
  P  P7  1  0.08762100  0.25561600  0.07297700  1
  H  H0  1  0.49667200  0.54609900  0.07869900  1
  H  H1  1  0.00332800  0.54609900  0.57869900  1
  H  H2  1  0.50332800  0.45390100  0.92130100  1
  H  H3  1  0.99667200  0.45390100  0.42130100  1
  O  O0  1  0.65131800  0.47410500  0.96234100  1
  O  O1  1  0.84868200  0.47410500  0.46234100  1
  O  O2  1  0.34868200  0.52589500  0.03765900  1
  O  O3  1  0.15131800  0.52589500  0.53765900  1
  O  O4  1  0.59210600  0.14736800  0.85884400  1
  O  O5  1  0.90789400  0.14736800  0.35884400  1
  O  O6  1  0.40789400  0.85263200  0.14115600  1
  O  O7  1  0.09210600  0.85263200  0.64115600  1
  O  O8  1  0.52686100  0.59010500  0.15178500  1
  O  O9  1  0.97313900  0.59010500  0.65178500  1
  O  O10  1  0.47313900  0.40989500  0.84821500  1
  O  O11  1  0.02686100  0.40989500  0.34821500  1
  O  O12  1  0.51190000  0.82860000  0.31315300  1
  O  O13  1  0.98810000  0.82860000  0.81315300  1
  O  O14  1  0.48810000  0.17140000  0.68684700  1
  O  O15  1  0.01190000  0.17140000  0.18684700  1
  O  O16  1  0.56120900  0.63030800  0.61368400  1
  O  O17  1  0.93879100  0.63030800  0.11368400  1
  O  O18  1  0.43879100  0.36969200  0.38631600  1
  O  O19  1  0.06120900  0.36969200  0.88631600  1
  O  O20  1  0.72486700  0.35516400  0.76495100  1
  O  O21  1  0.77513300  0.35516400  0.26495100  1
  O  O22  1  0.27513300  0.64483600  0.23504900  1
  O  O23  1  0.22486700  0.64483600  0.73504900  1
  O  O24  1  0.69961300  0.94093900  0.07346100  1
  O  O25  1  0.80038700  0.94093900  0.57346100  1
  O  O26  1  0.30038700  0.05906100  0.92653900  1
  O  O27  1  0.19961300  0.05906100  0.42653900  1
  O  O28  1  0.63333300  0.50021600  0.42061400  1
  O  O29  1  0.86666700  0.50021600  0.92061400  1
  O  O30  1  0.36666700  0.49978400  0.57938600  1
  O  O31  1  0.13333300  0.49978400  0.07938600  1
  O  O32  1  0.63339300  0.02533700  0.37579300  1
  O  O33  1  0.86660700  0.02533700  0.87579300  1
  O  O34  1  0.36660700  0.97466300  0.62420700  1
  O  O35  1  0.13339300  0.97466300  0.12420700  1
loop_
_geom_bond_atom_site_label_1
_geom_bond_atom_site_label_2
_geom_bond_distance
_geom_bond_site_symmetry_2
Na0 O28 2.506961 1_565
Na0 O25 2.557522 1_555
Na0 O32 2.573897 1_565
Na0 O4 2.664950 1_565
Na0 O0 2.683680 1_555
Na0 O16 2.719184 1_555
Na0 O20 2.805093 1_565
Na1 O29 2.506961 1_564
Na1 O24 2.557522 1_555
Na1 O33 2.573897 1_564
Na1 O5 2.664950 1_565
Na1 O1 2.683680 1_555
Na1 O17 2.719184 1_555
Na1 O21 2.805093 1_565
Na2 O30 2.506961 1_545
Na2 O27 2.557522 1_555
Na2 O34 2.573897 1_545
Na2 O6 2.664950 1_545
Na2 O2 2.683680 1_555
Na2 O18 2.719184 1_555
Na2 O22 2.805093 1_545
Na3 O31 2.506961 1_546
Na3 O26 2.557522 1_555
Na3 O35 2.573897 1_546
Na3 O7 2.664950 1_545
Na3 O3 2.683680 1_555
Na3 O19 2.719184 1_555
Na3 O23 2.805093 1_545
In0 O21 2.139602 1_555
In0 O32 2.141060 1_555
In0 O0 2.169303 1_554
In0 O28 2.173270 1_555
In0 O24 2.188240 1_555
In0 O8 2.253625 1_555
In1 O20 2.139602 1_555
In1 O33 2.141060 1_555
In1 O1 2.169303 1_555
In1 O29 2.173270 1_555
In1 O25 2.188240 1_555
In1 O9 2.253625 1_555
In2 O23 2.139602 1_555
In2 O34 2.141060 1_555
In2 O2 2.169303 1_556
In2 O30 2.173270 1_555
In2 O26 2.188240 1_555
In2 O10 2.253625 1_555
In3 O22 2.139602 1_555
In3 O35 2.141060 1_555
In3 O3 2.169303 1_555
In3 O31 2.173270 1_555
In3 O27 2.188240 1_555
In3 O11 2.253625 1_555
B0 O14 1.461477 1_555
B0 O4 1.473363 1_555
B0 O16 1.486481 1_555
B0 O10 1.487175 1_555
B1 O15 1.461477 1_655
B1 O5 1.473363 1_555
B1 O17 1.486481 1_555
B1 O11 1.487175 1_655
B2 O12 1.461477 1_555
B2 O6 1.473363 1_555
B2 O18 1.486481 1_555
B2 O8 1.487175 1_555
B3 O13 1.461477 1_455
B3 O7 1.473363 1_555
B3 O19 1.486481 1_555
B3 O9 1.487175 1_455
H0 O8 0.968095 1_555
H1 O9 0.968095 1_455
H2 O10 0.968095 1_555
H3 O11 0.968095 1_655
O0 P0 1.558308 1_555
O1 P1 1.558308 1_555
O2 P2 1.558308 1_555
O3 P3 1.558308 1_555
O4 P0 1.586817 1_555
O5 P1 1.586817 1_555
O6 P2 1.586817 1_555
O7 P3 1.586817 1_555
O12 P4 1.577864 1_555
O13 P5 1.577864 1_555
O14 P6 1.577864 1_555
O15 P7 1.577864 1_555
O16 P4 1.569593 1_555
O17 P5 1.569593 1_554
O18 P6 1.569593 1_555
O19 P7 1.569593 1_556
O20 P0 1.533952 1_555
O21 P1 1.533952 1_555
O22 P2 1.533952 1_555
O23 P3 1.533952 1_555
O24 P0 1.540518 1_564
O25 P1 1.540518 1_565
O26 P2 1.540518 1_546
O27 P3 1.540518 1_545
O28 P4 1.529452 1_555
O29 P5 1.529452 1_555
O30 P6 1.529452 1_555
O31 P7 1.529452 1_555
O32 P4 1.513487 1_545
O33 P5 1.513487 1_545
O34 P6 1.513487 1_565
O35 P7 1.513487 1_565
