# generated using pymatgen
data_Yb(Bi3O5)4
_symmetry_space_group_name_H-M   'P 1'
_cell_length_a   8.80088799
_cell_length_b   8.80088799
_cell_length_c   8.80088799
_cell_angle_alpha   109.47122063
_cell_angle_beta   109.47122063
_cell_angle_gamma   109.47122063
_symmetry_Int_Tables_number   1
_chemical_formula_structural   Yb(Bi3O5)4
_chemical_formula_sum   'Yb1 Bi12 O20'
_cell_volume   524.75621348
_cell_formula_units_Z   1
loop_
 _symmetry_equiv_pos_site_id
 _symmetry_equiv_pos_as_xyz
  1  'x, y, z'
loop_
 _atom_site_type_symbol
 _atom_site_label
 _atom_site_symmetry_multiplicity
 _atom_site_fract_x
 _atom_site_fract_y
 _atom_site_fract_z
 _atom_site_occupancy
  Yb  Yb0  1  0.00000000  0.00000000  0.00000000  1
  Bi  Bi0  1  0.85530752  0.17744607  0.68611051  1
  Bi  Bi1  1  0.32213856  0.14469248  0.83080299  1
  Bi  Bi2  1  0.67786144  0.50866343  0.82255393  1
  Bi  Bi3  1  0.82255393  0.67786144  0.50866343  1
  Bi  Bi4  1  0.83080299  0.32213856  0.14469248  1
  Bi  Bi5  1  0.49133657  0.16919701  0.31388949  1
  Bi  Bi6  1  0.50866343  0.82255393  0.67786144  1
  Bi  Bi7  1  0.16919701  0.31388949  0.49133657  1
  Bi  Bi8  1  0.17744607  0.68611051  0.85530752  1
  Bi  Bi9  1  0.68611051  0.85530752  0.17744607  1
  Bi  Bi10  1  0.31388949  0.49133657  0.16919701  1
  Bi  Bi11  1  0.14469248  0.83080299  0.32213856  1
  O  O0  1  0.00000000  0.34288156  0.00000000  1
  O  O1  1  0.61898937  0.23537637  0.88413347  1
  O  O2  1  0.00000000  0.75952241  0.00000000  1
  O  O3  1  0.76462363  0.38361400  0.64875811  1
  O  O4  1  0.73485590  0.11586653  0.35124189  1
  O  O5  1  0.75952241  0.00000000  0.00000000  1
  O  O6  1  0.00000000  0.00000000  0.75952241  1
  O  O7  1  0.38101063  0.26514410  0.61638600  1
  O  O8  1  0.65711844  0.65711844  0.65711844  1
  O  O9  1  0.38361400  0.64875811  0.76462363  1
  O  O10  1  0.11586653  0.35124189  0.73485590  1
  O  O11  1  0.88413347  0.61898937  0.23537637  1
  O  O12  1  0.61638600  0.38101063  0.26514410  1
  O  O13  1  0.34288156  0.00000000  0.00000000  1
  O  O14  1  0.00000000  0.00000000  0.34288156  1
  O  O15  1  0.64875811  0.76462363  0.38361400  1
  O  O16  1  0.24047759  0.24047759  0.24047759  1
  O  O17  1  0.26514410  0.61638600  0.38101063  1
  O  O18  1  0.23537637  0.88413347  0.61898937  1
  O  O19  1  0.35124189  0.73485590  0.11586653  1
loop_
_geom_bond_atom_site_label_1
_geom_bond_atom_site_label_2
_geom_bond_distance
_geom_bond_site_symmetry_2
Bi0 O10 2.085783 1_655
Bi0 O0 2.260577 1_656
Bi0 O3 2.285924 1_555
Bi0 O6 2.434716 1_655
Bi0 O4 2.563689 1_555
Bi1 O18 2.085786 1_545
Bi1 O13 2.260577 1_556
Bi1 O1 2.285919 1_555
Bi1 O6 2.434716 1_555
Bi1 O7 2.563689 1_555
Bi2 O3 2.085773 1_555
Bi2 O8 2.260585 1_555
Bi2 O7 2.285917 1_555
Bi2 O2 2.434718 1_656
Bi2 O1 2.563672 1_555
Bi3 O15 2.085773 1_555
Bi3 O8 2.260585 1_555
Bi3 O12 2.285917 1_555
Bi3 O6 2.434718 1_665
Bi3 O11 2.563672 1_555
Bi4 O1 2.085786 1_554
Bi4 O0 2.260577 1_655
Bi4 O11 2.285919 1_555
Bi4 O5 2.434716 1_555
Bi4 O12 2.563689 1_555
Bi5 O12 2.085780 1_555
Bi5 O13 2.260577 1_555
Bi5 O4 2.285911 1_555
Bi5 O16 2.434724 1_555
Bi5 O3 2.563683 1_555
Bi6 O9 2.085773 1_555
Bi6 O8 2.260585 1_555
Bi6 O17 2.285917 1_555
Bi6 O5 2.434718 1_566
Bi6 O18 2.563672 1_555
Bi7 O7 2.085780 1_555
Bi7 O14 2.260577 1_555
Bi7 O10 2.285911 1_555
Bi7 O16 2.434724 1_555
Bi7 O9 2.563683 1_555
Bi8 O19 2.085783 1_556
Bi8 O13 2.260577 1_566
Bi8 O9 2.285924 1_555
Bi8 O2 2.434716 1_556
Bi8 O10 2.563689 1_555
Bi9 O4 2.085783 1_565
Bi9 O14 2.260577 1_665
Bi9 O15 2.285924 1_555
Bi9 O5 2.434716 1_565
Bi9 O19 2.563689 1_555
Bi10 O17 2.085780 1_555
Bi10 O0 2.260577 1_555
Bi10 O19 2.285911 1_555
Bi10 O16 2.434724 1_555
Bi10 O15 2.563683 1_555
Bi11 O11 2.085786 1_455
Bi11 O14 2.260577 1_565
Bi11 O18 2.285919 1_555
Bi11 O2 2.434716 1_555
Bi11 O17 2.563689 1_555
O2 Yb0 2.116416 1_565
O5 Yb0 2.116416 1_655
O6 Yb0 2.116416 1_556
O16 Yb0 2.116416 1_555
