# generated using pymatgen
data_LiMn3NiO8
_symmetry_space_group_name_H-M   'P 1'
_cell_length_a   5.77226693
_cell_length_b   5.77226693
_cell_length_c   5.96992308
_cell_angle_alpha   62.40288664
_cell_angle_beta   62.40288664
_cell_angle_gamma   60.51781433
_symmetry_Int_Tables_number   1
_chemical_formula_structural   LiMn3NiO8
_chemical_formula_sum   'Li1 Mn3 Ni1 O8'
_cell_volume   146.14510944
_cell_formula_units_Z   1
loop_
 _symmetry_equiv_pos_site_id
 _symmetry_equiv_pos_as_xyz
  1  'x, y, z'
loop_
 _atom_site_type_symbol
 _atom_site_label
 _atom_site_symmetry_multiplicity
 _atom_site_fract_x
 _atom_site_fract_y
 _atom_site_fract_z
 _atom_site_occupancy
  Li  Li0  1  0.00000000  0.00000000  0.00000000  1
  Mn  Mn0  1  0.50000000  0.00000000  0.50000000  1
  Mn  Mn1  1  0.50000000  0.50000000  0.50000000  1
  Mn  Mn2  1  0.00000000  0.50000000  0.50000000  1
  Ni  Ni0  1  0.00000000  0.00000000  0.50000000  1
  O  O0  1  0.71388900  0.23740900  0.29599600  1
  O  O1  1  0.23740900  0.71388900  0.29599600  1
  O  O2  1  0.22417700  0.22417700  0.31308600  1
  O  O3  1  0.73324700  0.73324700  0.30163300  1
  O  O4  1  0.26675300  0.26675300  0.69836700  1
  O  O5  1  0.77582300  0.77582300  0.68691400  1
  O  O6  1  0.76259100  0.28611100  0.70400400  1
  O  O7  1  0.28611100  0.76259100  0.70400400  1
loop_
_geom_bond_atom_site_label_1
_geom_bond_atom_site_label_2
_geom_bond_distance
_geom_bond_site_symmetry_2
Li0 O1 2.245006 1_545
Li0 O0 2.245006 1_455
Li0 O6 2.245006 1_454
Li0 O7 2.245006 1_544
Li0 O3 2.276014 1_445
Li0 O4 2.276014 1_554
Mn0 O7 1.900379 1_545
Mn0 O0 1.900379 1_555
Mn0 O5 1.932559 1_545
Mn0 O2 1.932559 1_555
Mn0 O4 1.938466 1_555
Mn0 O3 1.938466 1_545
Mn1 O6 1.944283 1_555
Mn1 O7 1.944283 1_555
Mn1 O1 1.944283 1_555
Mn1 O0 1.944283 1_555
Mn1 O3 1.964077 1_555
Mn1 O4 1.964077 1_555
Mn2 O6 1.900379 1_455
Mn2 O1 1.900379 1_555
Mn2 O5 1.932559 1_455
Mn2 O2 1.932559 1_555
Mn2 O4 1.938466 1_555
Mn2 O3 1.938466 1_455
Ni0 O5 1.888552 1_445
Ni0 O2 1.888552 1_555
Ni0 O7 2.044069 1_545
Ni0 O6 2.044069 1_455
Ni0 O1 2.044069 1_545
Ni0 O0 2.044069 1_455
