# generated using pymatgen
data_Fe3OF5
_symmetry_space_group_name_H-M   'P 1'
_cell_length_a   5.78886100
_cell_length_b   5.82870712
_cell_length_c   7.50616284
_cell_angle_alpha   73.00626164
_cell_angle_beta   72.57955996
_cell_angle_gamma   71.33211845
_symmetry_Int_Tables_number   1
_chemical_formula_structural   Fe3OF5
_chemical_formula_sum   'Fe6 O2 F10'
_cell_volume   223.46836690
_cell_formula_units_Z   2
loop_
 _symmetry_equiv_pos_site_id
 _symmetry_equiv_pos_as_xyz
  1  'x, y, z'
loop_
 _atom_site_type_symbol
 _atom_site_label
 _atom_site_symmetry_multiplicity
 _atom_site_fract_x
 _atom_site_fract_y
 _atom_site_fract_z
 _atom_site_occupancy
  Fe  Fe0  1  0.65125400  0.66507400  0.84641400  1
  Fe  Fe1  1  0.33817300  0.33981100  0.64933400  1
  Fe  Fe2  1  0.65034100  0.66306600  0.32796500  1
  Fe  Fe3  1  0.33866000  0.36392800  0.16960300  1
  Fe  Fe4  1  0.99679400  0.00274200  0.49543500  1
  Fe  Fe5  1  0.02091500  0.98041200  0.00582000  1
  O  O0  1  0.42264700  0.42249300  0.38122900  1
  O  O1  1  0.30735500  0.67961000  0.00810300  1
  F  F0  1  0.02982900  0.63196300  0.67532700  1
  F  F1  1  0.36193300  0.98766000  0.31642000  1
  F  F2  1  0.88517000  0.89436000  0.31128700  1
  F  F3  1  0.24844000  0.24469500  0.94821500  1
  F  F4  1  0.55904400  0.55040000  0.63748200  1
  F  F5  1  0.77245200  0.76890100  0.03643700  1
  F  F6  1  0.10906300  0.11831200  0.68806300  1
  F  F7  1  0.97740700  0.36895700  0.31795200  1
  F  F8  1  0.62816400  0.03959100  0.67266500  1
  F  F9  1  0.70236000  0.27802700  0.01224900  1
loop_
_geom_bond_atom_site_label_1
_geom_bond_atom_site_label_2
_geom_bond_distance
_geom_bond_site_symmetry_2
Fe0 O1 1.987162 1_556
Fe1 O0 1.875103 1_555
Fe2 O0 2.098429 1_555
Fe3 O1 1.871440 1_555
Fe3 O0 1.939555 1_555
Fe5 O1 1.990516 1_555
F0 Fe1 2.040535 1_555
F0 Fe0 2.162907 1_455
F0 Fe4 2.171346 1_465
F1 Fe2 2.084018 1_555
F1 Fe3 2.128269 1_565
F1 Fe4 2.128531 1_465
F2 Fe4 2.008421 1_565
F2 Fe5 2.151193 1_655
F2 Fe2 2.157259 1_555
F3 Fe1 2.090409 1_555
F3 Fe5 2.205257 1_546
F3 Fe3 2.223588 1_556
F4 Fe1 2.005523 1_555
F4 Fe0 2.129217 1_555
F4 Fe2 2.168728 1_555
F5 Fe2 2.057327 1_555
F5 Fe0 2.066035 1_554
F5 Fe5 2.100730 1_655
F6 Fe1 2.038694 1_555
F6 Fe4 2.092611 1_455
F6 Fe5 2.237971 1_546
F7 Fe3 2.049300 1_655
F7 Fe2 2.107474 1_555
F7 Fe4 2.148876 1_555
F8 Fe1 2.006803 1_555
F8 Fe4 2.131533 1_555
F8 Fe0 2.176575 1_545
F9 Fe3 2.064066 1_555
F9 Fe5 2.088051 1_645
F9 Fe0 2.208669 1_554
