# generated using pymatgen
data_Rb3InO3
_symmetry_space_group_name_H-M   'P 1'
_cell_length_a   6.93298161
_cell_length_b   7.01271818
_cell_length_c   14.69750373
_cell_angle_alpha   61.88426862
_cell_angle_beta   90.00000000
_cell_angle_gamma   90.00000000
_symmetry_Int_Tables_number   1
_chemical_formula_structural   Rb3InO3
_chemical_formula_sum   'Rb12 In4 O12'
_cell_volume   630.25655696
_cell_formula_units_Z   4
loop_
 _symmetry_equiv_pos_site_id
 _symmetry_equiv_pos_as_xyz
  1  'x, y, z'
loop_
 _atom_site_type_symbol
 _atom_site_label
 _atom_site_symmetry_multiplicity
 _atom_site_fract_x
 _atom_site_fract_y
 _atom_site_fract_z
 _atom_site_occupancy
  Rb  Rb0  1  0.54564121  0.78592744  0.89691367  1
  Rb  Rb1  1  0.95810595  0.26577097  0.11733442  1
  Rb  Rb2  1  0.58369352  0.61626152  0.18535006  1
  Rb  Rb3  1  0.08369352  0.38373848  0.31464994  1
  Rb  Rb4  1  0.45810595  0.73422903  0.38266558  1
  Rb  Rb5  1  0.04564121  0.21407256  0.60308633  1
  Rb  Rb6  1  0.95435879  0.78592744  0.39691367  1
  Rb  Rb7  1  0.54189405  0.26577097  0.61733442  1
  Rb  Rb8  1  0.91630648  0.61626152  0.68535006  1
  Rb  Rb9  1  0.41630648  0.38373848  0.81464994  1
  Rb  Rb10  1  0.04189405  0.73422903  0.88266558  1
  Rb  Rb11  1  0.45435879  0.21407256  0.10308633  1
  In  In0  1  0.13081886  0.83320545  0.08533177  1
  In  In1  1  0.63081886  0.16679455  0.41466823  1
  In  In2  1  0.36918114  0.83320545  0.58533177  1
  In  In3  1  0.86918114  0.16679455  0.91466823  1
  O  O0  1  0.26195572  0.58477569  0.07301199  1
  O  O1  1  0.83744965  0.84784974  0.03798647  1
  O  O2  1  0.69763176  0.16432209  0.27953938  1
  O  O3  1  0.19763176  0.83567791  0.22046062  1
  O  O4  1  0.33744965  0.15215026  0.46201353  1
  O  O5  1  0.76195572  0.41522431  0.42698801  1
  O  O6  1  0.23804428  0.58477569  0.57301199  1
  O  O7  1  0.66255035  0.84784974  0.53798647  1
  O  O8  1  0.80236824  0.16432209  0.77953938  1
  O  O9  1  0.30236824  0.83567791  0.72046062  1
  O  O10  1  0.16255035  0.15215026  0.96201353  1
  O  O11  1  0.73804428  0.41522431  0.92698801  1
loop_
_geom_bond_atom_site_label_1
_geom_bond_atom_site_label_2
_geom_bond_distance
_geom_bond_site_symmetry_2
In0 O3 2.047375 1_555
In0 O0 2.047399 1_555
In0 O10 2.124925 1_564
In0 O1 2.136412 1_455
In1 O2 2.047375 1_555
In1 O5 2.047399 1_555
In1 O7 2.124925 1_545
In1 O4 2.136412 1_555
In2 O9 2.047375 1_555
In2 O6 2.047399 1_555
In2 O4 2.124925 1_565
In2 O7 2.136412 1_555
In3 O8 2.047375 1_555
In3 O11 2.047399 1_555
In3 O1 2.124925 1_546
In3 O10 2.136412 1_655
O0 Rb11 2.765832 1_555
O0 Rb2 2.845002 1_555
O0 Rb10 2.913639 1_554
O0 Rb1 2.914294 1_455
O0 Rb0 3.019244 1_554
O0 Rb3 3.377707 1_555
O1 Rb2 2.666158 1_555
O1 Rb0 3.070697 1_554
O1 Rb10 3.093476 1_654
O2 Rb1 2.802181 1_555
O2 Rb2 2.906858 1_555
O2 Rb11 2.973113 1_555
O2 Rb6 2.978409 1_545
O2 Rb4 3.137405 1_545
O2 Rb3 3.247500 1_655
O3 Rb4 2.802181 1_555
O3 Rb3 2.906858 1_555
O3 Rb6 2.973113 1_455
O3 Rb11 2.978409 1_565
O3 Rb1 3.137405 1_465
O3 Rb2 3.247500 1_555
O4 Rb3 2.666158 1_555
O4 Rb5 3.070697 1_555
O4 Rb7 3.093476 1_555
O5 Rb6 2.765832 1_555
O5 Rb3 2.845002 1_655
O5 Rb7 2.913639 1_555
O5 Rb4 2.914294 1_555
O5 Rb5 3.019244 1_655
O5 Rb2 3.377707 1_555
O6 Rb5 2.765832 1_555
O6 Rb8 2.845002 1_455
O6 Rb4 2.913639 1_555
O6 Rb7 2.914294 1_555
O6 Rb6 3.019244 1_455
O6 Rb9 3.377707 1_555
O7 Rb8 2.666158 1_555
O7 Rb6 3.070697 1_555
O7 Rb4 3.093476 1_555
O8 Rb7 2.802181 1_555
O8 Rb8 2.906858 1_555
O8 Rb5 2.973113 1_655
O8 Rb0 2.978409 1_545
O8 Rb10 3.137405 1_645
O8 Rb9 3.247500 1_555
O9 Rb10 2.802181 1_555
O9 Rb9 2.906858 1_555
O9 Rb0 2.973113 1_555
O9 Rb5 2.978409 1_565
O9 Rb7 3.137405 1_565
O9 Rb8 3.247500 1_455
O10 Rb9 2.666158 1_555
O10 Rb11 3.070697 1_556
O10 Rb1 3.093476 1_456
O11 Rb0 2.765832 1_555
O11 Rb9 2.845002 1_555
O11 Rb1 2.913639 1_556
O11 Rb10 2.914294 1_655
O11 Rb11 3.019244 1_556
O11 Rb8 3.377707 1_555
