# generated using pymatgen
data_V6O7F5
_symmetry_space_group_name_H-M   'P 1'
_cell_length_a   4.64541000
_cell_length_b   5.62902182
_cell_length_c   7.81123061
_cell_angle_alpha   87.04639531
_cell_angle_beta   89.13443832
_cell_angle_gamma   89.14426021
_symmetry_Int_Tables_number   1
_chemical_formula_structural   V6O7F5
_chemical_formula_sum   'V6 O7 F5'
_cell_volume   203.94164993
_cell_formula_units_Z   1
loop_
 _symmetry_equiv_pos_site_id
 _symmetry_equiv_pos_as_xyz
  1  'x, y, z'
loop_
 _atom_site_type_symbol
 _atom_site_label
 _atom_site_symmetry_multiplicity
 _atom_site_fract_x
 _atom_site_fract_y
 _atom_site_fract_z
 _atom_site_occupancy
  V  V0  1  0.53296000  0.84393300  0.65270800  1
  V  V1  1  0.50171500  0.49683500  0.00219900  1
  V  V2  1  0.47698100  0.17376300  0.35174600  1
  V  V3  1  0.99970300  0.32212200  0.69375800  1
  V  V4  1  0.98727300  0.66230600  0.31915700  1
  V  V5  1  0.98721400  0.99133000  0.99303700  1
  O  O0  1  0.80713000  0.70088100  0.09146300  1
  O  O1  1  0.79856900  0.04123100  0.76962900  1
  O  O2  1  0.71361400  0.53266700  0.76034300  1
  O  O3  1  0.69910000  0.87699700  0.42427900  1
  O  O4  1  0.28368400  0.14831400  0.56939700  1
  O  O5  1  0.30910900  0.46432100  0.23305900  1
  O  O6  1  0.19781800  0.28493900  0.90472500  1
  F  F0  1  0.80366200  0.36882700  0.44274400  1
  F  F1  1  0.69964200  0.19496600  0.11427700  1
  F  F2  1  0.30516900  0.79546500  0.88666500  1
  F  F3  1  0.19894000  0.96443900  0.22476200  1
  F  F4  1  0.19771600  0.63666400  0.56605200  1
loop_
_geom_bond_atom_site_label_1
_geom_bond_atom_site_label_2
_geom_bond_distance
_geom_bond_site_symmetry_2
O0 V5 1.963635 1_554
O0 V4 1.977499 1_555
O0 V1 1.994852 1_555
O1 V3 1.911826 1_555
O1 V0 1.941508 1_545
O1 V5 1.969909 1_545
O2 V3 1.853904 1_555
O2 V0 2.075254 1_555
O2 V1 2.118766 1_556
O3 V0 1.934561 1_555
O3 V4 1.986839 1_555
O3 V2 2.011194 1_565
O4 V2 1.910461 1_555
O4 V3 1.913591 1_455
O4 V0 2.132758 1_545
O5 V4 1.981571 1_455
O5 V2 1.992529 1_555
O5 V1 2.002017 1_555
O6 V3 1.900248 1_455
O6 V5 2.018650 1_445
O6 V1 2.042485 1_556
F0 V2 2.043697 1_555
F0 V4 2.059470 1_555
F0 V3 2.176374 1_555
F1 V5 2.005822 1_544
F1 V1 2.079316 1_555
F1 V2 2.108976 1_555
F2 V5 2.023923 1_455
F2 V1 2.072808 1_556
F2 V0 2.105405 1_555
F3 V2 2.060367 1_565
F3 V5 2.070677 1_454
F3 V4 2.074067 1_455
F4 V0 2.100537 1_555
F4 V4 2.172534 1_455
F4 V3 2.194315 1_455
