# generated using pymatgen
data_Mo(NCl2)3
_symmetry_space_group_name_H-M   'P 1'
_cell_length_a   8.90224600
_cell_length_b   8.90224600
_cell_length_c   7.38993100
_cell_angle_alpha   90.00000000
_cell_angle_beta   90.00000000
_cell_angle_gamma   90.00000000
_symmetry_Int_Tables_number   1
_chemical_formula_structural   Mo(NCl2)3
_chemical_formula_sum   'Mo2 N6 Cl12'
_cell_volume   585.65191236
_cell_formula_units_Z   2
loop_
 _symmetry_equiv_pos_site_id
 _symmetry_equiv_pos_as_xyz
  1  'x, y, z'
loop_
 _atom_site_type_symbol
 _atom_site_label
 _atom_site_symmetry_multiplicity
 _atom_site_fract_x
 _atom_site_fract_y
 _atom_site_fract_z
 _atom_site_occupancy
  Mo  Mo0  1  0.50000000  0.00000000  0.50000000  1
  Mo  Mo1  1  0.00000000  0.50000000  0.00000000  1
  N  N0  1  0.50000000  0.50000000  0.50000000  1
  N  N1  1  0.50000000  0.50000000  0.00000000  1
  N  N2  1  0.08684100  0.73678800  0.50000000  1
  N  N3  1  0.91315900  0.26321200  0.50000000  1
  N  N4  1  0.26321200  0.08684100  0.00000000  1
  N  N5  1  0.73678800  0.91315900  0.00000000  1
  Cl  Cl0  1  0.74990600  0.92917400  0.50000000  1
  Cl  Cl1  1  0.25009400  0.07082600  0.50000000  1
  Cl  Cl2  1  0.07082600  0.74990600  0.00000000  1
  Cl  Cl3  1  0.92917400  0.25009400  0.00000000  1
  Cl  Cl4  1  0.45053100  0.82271900  0.27869500  1
  Cl  Cl5  1  0.54946900  0.17728100  0.27869500  1
  Cl  Cl6  1  0.17728100  0.45053100  0.77869500  1
  Cl  Cl7  1  0.82271900  0.54946900  0.77869500  1
  Cl  Cl8  1  0.54946900  0.17728100  0.72130500  1
  Cl  Cl9  1  0.45053100  0.82271900  0.72130500  1
  Cl  Cl10  1  0.82271900  0.54946900  0.22130500  1
  Cl  Cl11  1  0.17728100  0.45053100  0.22130500  1
loop_
_geom_bond_atom_site_label_1
_geom_bond_atom_site_label_2
_geom_bond_distance
_geom_bond_site_symmetry_2
Cl0 Mo0 2.312346 1_565
Cl1 Mo0 2.312346 1_555
Cl2 Mo1 2.312346 1_555
Cl3 Mo1 2.312346 1_655
Cl4 Mo0 2.315012 1_565
Cl5 Mo0 2.315012 1_555
Cl6 Mo1 2.315012 1_556
Cl7 Mo1 2.315012 1_656
Cl8 Mo0 2.315012 1_555
Cl9 Mo0 2.315012 1_565
Cl10 Mo1 2.315012 1_655
Cl11 Mo1 2.315012 1_555
