# generated using pymatgen
data_Li4CuF7
_symmetry_space_group_name_H-M   'P 1'
_cell_length_a   5.90244092
_cell_length_b   5.90244092
_cell_length_c   5.90244092
_cell_angle_alpha   60.00000000
_cell_angle_beta   60.00000000
_cell_angle_gamma   60.00000000
_symmetry_Int_Tables_number   1
_chemical_formula_structural   Li4CuF7
_chemical_formula_sum   'Li4 Cu1 F7'
_cell_volume   145.40520343
_cell_formula_units_Z   1
loop_
 _symmetry_equiv_pos_site_id
 _symmetry_equiv_pos_as_xyz
  1  'x, y, z'
loop_
 _atom_site_type_symbol
 _atom_site_label
 _atom_site_symmetry_multiplicity
 _atom_site_fract_x
 _atom_site_fract_y
 _atom_site_fract_z
 _atom_site_occupancy
  Li  Li0  1  0.62713800  0.11858500  0.62713800  1
  Li  Li1  1  0.11858500  0.62713800  0.62713800  1
  Li  Li2  1  0.62713800  0.62713800  0.11858500  1
  Li  Li3  1  0.62713800  0.62713800  0.62713800  1
  Cu  Cu0  1  0.00000000  0.00000000  0.00000000  1
  F  F0  1  0.23326200  0.23326200  0.76673800  1
  F  F1  1  0.76673800  0.23326200  0.23326200  1
  F  F2  1  0.76673800  0.23326200  0.76673800  1
  F  F3  1  0.75000000  0.75000000  0.75000000  1
  F  F4  1  0.76673800  0.76673800  0.23326200  1
  F  F5  1  0.23326200  0.76673800  0.23326200  1
  F  F6  1  0.23326200  0.76673800  0.76673800  1
loop_
_geom_bond_atom_site_label_1
_geom_bond_atom_site_label_2
_geom_bond_distance
_geom_bond_site_symmetry_2
Cu0 F6 1.947111 1_544
Cu0 F4 1.947111 1_445
Cu0 F2 1.947111 1_454
Cu0 F0 1.947111 1_554
Cu0 F5 1.947111 1_545
Cu0 F1 1.947111 1_455
F0 Li0 1.900115 1_555
F0 Li1 1.900115 1_555
F1 Li2 1.900115 1_555
F1 Li0 1.900115 1_555
F2 Li3 1.900115 1_555
F2 Li0 1.900120 1_555
F3 Li2 1.776330 1_556
F3 Li0 1.776330 1_565
F3 Li1 1.776330 1_655
F3 Li3 1.776335 1_555
F4 Li3 1.900115 1_555
F4 Li2 1.900120 1_555
F5 Li2 1.900115 1_555
F5 Li1 1.900115 1_555
F6 Li3 1.900115 1_555
F6 Li1 1.900120 1_555
