# generated using pymatgen
data_Li2V3WO8
_symmetry_space_group_name_H-M   'P 1'
_cell_length_a   6.11881642
_cell_length_b   10.55886699
_cell_length_c   6.03607842
_cell_angle_alpha   105.36620891
_cell_angle_beta   59.61827604
_cell_angle_gamma   90.06656832
_symmetry_Int_Tables_number   1
_chemical_formula_structural   Li2V3WO8
_chemical_formula_sum   'Li4 V6 W2 O16'
_cell_volume   320.23306454
_cell_formula_units_Z   2
loop_
 _symmetry_equiv_pos_site_id
 _symmetry_equiv_pos_as_xyz
  1  'x, y, z'
loop_
 _atom_site_type_symbol
 _atom_site_label
 _atom_site_symmetry_multiplicity
 _atom_site_fract_x
 _atom_site_fract_y
 _atom_site_fract_z
 _atom_site_occupancy
  Li  Li0  1  0.93245200  0.19404200  0.13639700  1
  Li  Li1  1  0.43329300  0.69389100  0.13367100  1
  Li  Li2  1  0.56668800  0.30612400  0.86635700  1
  Li  Li3  1  0.06753500  0.80597100  0.86362000  1
  V  V0  1  0.99993700  0.00008400  0.50026200  1
  V  V1  1  0.50017600  0.99993000  0.49981900  1
  V  V2  1  0.99987000  0.50001700  0.00011700  1
  V  V3  1  0.50011000  0.49994400  0.49985800  1
  V  V4  1  0.99992400  0.49993100  0.49993100  1
  V  V5  1  0.50012300  0.99999200  0.99982600  1
  W  W0  1  0.75005500  0.74946100  0.49635200  1
  W  W1  1  0.24994700  0.25053400  0.50365300  1
  O  O0  1  0.86339800  0.39915700  0.27330600  1
  O  O1  1  0.36206300  0.89938500  0.27537400  1
  O  O2  1  0.63791900  0.10063700  0.72465700  1
  O  O3  1  0.13659700  0.60083500  0.72668300  1
  O  O4  1  0.64241300  0.62777000  0.71696900  1
  O  O5  1  0.13994500  0.12797200  0.72050600  1
  O  O6  1  0.63915600  0.62296700  0.26434500  1
  O  O7  1  0.14573000  0.12255500  0.26311700  1
  O  O8  1  0.09447000  0.62137700  0.25877600  1
  O  O9  1  0.59196900  0.12276200  0.26318600  1
  O  O10  1  0.40803800  0.87724300  0.73683400  1
  O  O11  1  0.90549800  0.37863300  0.74125400  1
  O  O12  1  0.85427500  0.87745500  0.73688600  1
  O  O13  1  0.36080900  0.37704800  0.73568400  1
  O  O14  1  0.86001900  0.87204400  0.27952500  1
  O  O15  1  0.35759000  0.37223700  0.28303400  1
loop_
_geom_bond_atom_site_label_1
_geom_bond_atom_site_label_2
_geom_bond_distance
_geom_bond_site_symmetry_2
Li0 O7 2.043483 1_655
Li0 O9 2.044839 1_555
Li0 O5 2.061674 1_654
Li0 O0 2.062148 1_555
Li1 O6 2.022344 1_555
Li1 O8 2.042981 1_555
Li1 O4 2.065697 1_554
Li1 O1 2.066653 1_555
Li2 O13 2.022420 1_555
Li2 O11 2.042891 1_555
Li2 O15 2.065572 1_556
Li2 O2 2.066583 1_555
Li3 O12 2.043445 1_455
Li3 O10 2.044902 1_555
Li3 O14 2.061743 1_456
Li3 O3 2.062361 1_555
O0 V4 2.020822 1_555
O0 V2 2.021489 1_555
O0 V3 2.025645 1_555
O1 V1 2.017523 1_555
O1 V0 2.020146 1_465
O1 V5 2.030150 1_554
O2 V1 2.018168 1_545
O2 V0 2.019174 1_555
O2 V5 2.028735 1_545
O3 V2 2.022264 1_456
O3 V4 2.022550 1_455
O3 V3 2.027037 1_555
O4 W0 1.968710 1_555
O4 V4 2.120027 1_555
O4 V3 2.123993 1_555
O5 W1 1.961031 1_555
O5 V0 2.126642 1_455
O5 V1 2.131484 1_545
O6 W0 2.042881 1_555
O6 V3 2.045672 1_555
O6 V2 2.109304 1_555
O7 V0 2.050297 1_455
O7 W1 2.058010 1_555
O7 V5 2.081663 1_544
O8 V4 2.057582 1_455
O8 W0 2.061203 1_455
O8 V2 2.065631 1_455
O9 W1 2.050067 1_555
O9 V1 2.050935 1_545
O9 V5 2.081617 1_544
O10 W0 2.050098 1_555
O10 V1 2.051192 1_555
O10 V5 2.080850 1_555
O11 V4 2.057114 1_555
O11 W1 2.061418 1_655
O11 V2 2.065718 1_556
O12 V0 2.049564 1_565
O12 W0 2.058088 1_555
O12 V5 2.080428 1_555
O13 W1 2.042925 1_555
O13 V3 2.045907 1_555
O13 V2 2.110381 1_456
O14 W0 1.961111 1_555
O14 V0 2.128965 1_565
O14 V1 2.129160 1_555
O15 W1 1.968824 1_555
O15 V4 2.120047 1_455
O15 V3 2.123222 1_555
