# generated using pymatgen
data_Mn2O3F
_symmetry_space_group_name_H-M   'P 1'
_cell_length_a   4.58038575
_cell_length_b   4.58038575
_cell_length_c   15.07699200
_cell_angle_alpha   90.00000000
_cell_angle_beta   90.00000000
_cell_angle_gamma   92.49686716
_symmetry_Int_Tables_number   1
_chemical_formula_structural   Mn2O3F
_chemical_formula_sum   'Mn10 O15 F5'
_cell_volume   316.01398361
_cell_formula_units_Z   5
loop_
 _symmetry_equiv_pos_site_id
 _symmetry_equiv_pos_as_xyz
  1  'x, y, z'
loop_
 _atom_site_type_symbol
 _atom_site_label
 _atom_site_symmetry_multiplicity
 _atom_site_fract_x
 _atom_site_fract_y
 _atom_site_fract_z
 _atom_site_occupancy
  Mn  Mn0  1  0.00006100  0.99993900  0.40012500  1
  Mn  Mn1  1  0.00006100  0.99993900  0.59987500  1
  Mn  Mn2  1  0.99927800  0.00072200  0.79993300  1
  Mn  Mn3  1  0.99927800  0.00072200  0.20006700  1
  Mn  Mn4  1  0.98649000  0.01351000  0.00000000  1
  Mn  Mn5  1  0.47550600  0.52449400  0.30026200  1
  Mn  Mn6  1  0.47550600  0.52449400  0.69973800  1
  Mn  Mn7  1  0.52413900  0.47586100  0.50000000  1
  Mn  Mn8  1  0.51860900  0.48139100  0.89947500  1
  Mn  Mn9  1  0.51860900  0.48139100  0.10052500  1
  O  O0  1  0.80882100  0.19117900  0.89917000  1
  O  O1  1  0.81271500  0.18728500  0.50000000  1
  O  O2  1  0.80882100  0.19117900  0.10083000  1
  O  O3  1  0.30358900  0.31334900  0.80030700  1
  O  O4  1  0.30829500  0.30811200  0.59991900  1
  O  O5  1  0.30829500  0.30811200  0.40008100  1
  O  O6  1  0.30358900  0.31334900  0.19969300  1
  O  O7  1  0.31533200  0.29409300  0.00000000  1
  O  O8  1  0.68665100  0.69641100  0.80030700  1
  O  O9  1  0.69188800  0.69170500  0.59991900  1
  O  O10  1  0.69188800  0.69170500  0.40008100  1
  O  O11  1  0.68665100  0.69641100  0.19969300  1
  O  O12  1  0.70590700  0.68466800  0.00000000  1
  O  O13  1  0.18678500  0.81321500  0.70002600  1
  O  O14  1  0.18678500  0.81321500  0.29997400  1
  F  F0  1  0.77923700  0.22076300  0.70045700  1
  F  F1  1  0.77923700  0.22076300  0.29954300  1
  F  F2  1  0.22044600  0.77955400  0.50000000  1
  F  F3  1  0.20876800  0.79123200  0.90548200  1
  F  F4  1  0.20876800  0.79123200  0.09451800  1
loop_
_geom_bond_atom_site_label_1
_geom_bond_atom_site_label_2
_geom_bond_distance
_geom_bond_site_symmetry_2
Mn0 O1 1.950478 1_465
Mn0 O14 1.951084 1_555
Mn0 O10 1.952461 1_455
Mn0 O5 1.952461 1_565
Mn1 O1 1.950478 1_465
Mn1 O13 1.951084 1_555
Mn1 O9 1.952461 1_455
Mn1 O4 1.952461 1_565
Mn2 O13 1.951528 1_645
Mn2 O8 1.954345 1_545
Mn2 O3 1.954345 1_655
Mn2 O0 1.956261 1_555
Mn3 O14 1.951528 1_645
Mn3 O11 1.954345 1_545
Mn3 O6 1.954345 1_655
Mn3 O2 1.956261 1_555
Mn4 O0 1.921787 1_554
Mn4 O2 1.921787 1_555
Mn4 O7 1.936938 1_655
Mn4 O12 1.936938 1_545
Mn5 O14 1.910541 1_555
Mn5 O10 1.941054 1_555
Mn5 O5 1.941054 1_555
Mn5 O11 1.946317 1_555
Mn5 O6 1.946317 1_555
Mn6 O13 1.910541 1_555
Mn6 O9 1.941054 1_555
Mn6 O4 1.941054 1_555
Mn6 O3 1.946317 1_555
Mn6 O8 1.946317 1_555
Mn7 O1 1.909576 1_555
Mn7 O4 1.941928 1_555
Mn7 O9 1.941928 1_555
Mn7 O10 1.941928 1_555
Mn7 O5 1.941928 1_555
Mn8 O0 1.920407 1_555
Mn8 O3 1.931800 1_555
Mn8 O8 1.931800 1_555
Mn8 O7 1.957141 1_556
Mn8 O12 1.957141 1_556
Mn9 O2 1.920407 1_555
Mn9 O6 1.931800 1_555
Mn9 O11 1.931800 1_555
Mn9 O7 1.957141 1_555
Mn9 O12 1.957141 1_555
F0 Mn6 2.009890 1_555
F0 Mn2 2.090339 1_555
F0 Mn1 2.105927 1_645
F1 Mn5 2.009890 1_555
F1 Mn3 2.090339 1_555
F1 Mn0 2.105927 1_645
F2 Mn7 2.009609 1_555
F2 Mn1 2.096243 1_555
F2 Mn0 2.096243 1_555
F3 Mn4 2.047976 1_466
F3 Mn8 2.052291 1_555
F3 Mn2 2.110476 1_465
F4 Mn4 2.047976 1_465
F4 Mn9 2.052291 1_555
F4 Mn3 2.110476 1_465
