# generated using pymatgen
data_SmAsO4
_symmetry_space_group_name_H-M   'P 1'
_cell_length_a   7.11763700
_cell_length_b   6.71668100
_cell_length_c   8.29091827
_cell_angle_alpha   53.86169794
_cell_angle_beta   90.00000000
_cell_angle_gamma   90.00000000
_symmetry_Int_Tables_number   1
_chemical_formula_structural   SmAsO4
_chemical_formula_sum   'Sm4 As4 O16'
_cell_volume   320.10116748
_cell_formula_units_Z   4
loop_
 _symmetry_equiv_pos_site_id
 _symmetry_equiv_pos_as_xyz
  1  'x, y, z'
loop_
 _atom_site_type_symbol
 _atom_site_label
 _atom_site_symmetry_multiplicity
 _atom_site_fract_x
 _atom_site_fract_y
 _atom_site_fract_z
 _atom_site_occupancy
  Sm  Sm0  1  0.85016600  0.81095100  0.78292000  1
  Sm  Sm1  1  0.35016600  0.18904900  0.71708000  1
  Sm  Sm2  1  0.64983400  0.81095100  0.28292000  1
  Sm  Sm3  1  0.14983400  0.18904900  0.21708000  1
  As  As0  1  0.83777400  0.31018100  0.80231900  1
  As  As1  1  0.33777400  0.68981900  0.69768100  1
  As  As2  1  0.66222600  0.31018100  0.30231900  1
  As  As3  1  0.16222600  0.68981900  0.19768100  1
  O  O0  1  0.89367200  0.35193800  0.98267400  1
  O  O1  1  0.28586600  0.38799800  0.88458600  1
  O  O2  1  0.65437800  0.10397100  0.89459300  1
  O  O3  1  0.50532200  0.83097600  0.74755600  1
  O  O4  1  0.78586600  0.61200200  0.61541400  1
  O  O5  1  0.00532200  0.16902400  0.75244400  1
  O  O6  1  0.15437800  0.89602900  0.60540700  1
  O  O7  1  0.39367200  0.64806200  0.51732600  1
  O  O8  1  0.60632800  0.35193800  0.48267400  1
  O  O9  1  0.84562200  0.10397100  0.39459300  1
  O  O10  1  0.99467800  0.83097600  0.24755600  1
  O  O11  1  0.21413400  0.38799800  0.38458600  1
  O  O12  1  0.49467800  0.16902400  0.25244400  1
  O  O13  1  0.34562200  0.89602900  0.10540700  1
  O  O14  1  0.71413400  0.61200200  0.11541400  1
  O  O15  1  0.10632800  0.64806200  0.01732600  1
loop_
_geom_bond_atom_site_label_1
_geom_bond_atom_site_label_2
_geom_bond_distance
_geom_bond_site_symmetry_2
As0 O4 1.715300 1_555
As0 O5 1.718859 1_655
As0 O2 1.719820 1_555
As0 O0 1.722661 1_555
As1 O1 1.715300 1_555
As1 O3 1.718859 1_555
As1 O6 1.719820 1_555
As1 O7 1.722661 1_555
As2 O14 1.715300 1_555
As2 O12 1.718859 1_555
As2 O9 1.719820 1_555
As2 O8 1.722661 1_555
As3 O11 1.715300 1_555
As3 O10 1.718859 1_455
As3 O13 1.719820 1_555
As3 O15 1.722661 1_555
O0 Sm3 2.406323 1_656
O0 Sm0 2.514262 1_555
O1 Sm3 2.444908 1_556
O1 Sm1 2.472378 1_555
O2 Sm1 2.487774 1_555
O2 Sm2 2.601253 1_546
O3 Sm0 2.466169 1_555
O3 Sm1 2.520115 1_565
O4 Sm2 2.444908 1_555
O4 Sm0 2.472378 1_555
O5 Sm1 2.466169 1_555
O5 Sm0 2.520115 1_445
O6 Sm0 2.487774 1_455
O6 Sm3 2.601253 1_565
O7 Sm2 2.406323 1_555
O7 Sm1 2.514262 1_555
O8 Sm1 2.406323 1_555
O8 Sm2 2.514262 1_555
O9 Sm3 2.487774 1_655
O9 Sm0 2.601253 1_545
O10 Sm2 2.466169 1_555
O10 Sm3 2.520115 1_665
O11 Sm1 2.444908 1_555
O11 Sm3 2.472378 1_555
O12 Sm3 2.466169 1_555
O12 Sm2 2.520115 1_545
O13 Sm2 2.487774 1_555
O13 Sm1 2.601253 1_564
O14 Sm0 2.444908 1_554
O14 Sm2 2.472378 1_555
O15 Sm0 2.406323 1_454
O15 Sm3 2.514262 1_555
