# generated using pymatgen
data_Li2MgCu2(SiO3)4
_symmetry_space_group_name_H-M   'P 1'
_cell_length_a   5.26107600
_cell_length_b   5.76830635
_cell_length_c   7.54921656
_cell_angle_alpha   84.53514861
_cell_angle_beta   80.07296439
_cell_angle_gamma   82.90027209
_symmetry_Int_Tables_number   1
_chemical_formula_structural   Li2MgCu2(SiO3)4
_chemical_formula_sum   'Li2 Mg1 Cu2 Si4 O12'
_cell_volume   223.29805921
_cell_formula_units_Z   1
loop_
 _symmetry_equiv_pos_site_id
 _symmetry_equiv_pos_as_xyz
  1  'x, y, z'
loop_
 _atom_site_type_symbol
 _atom_site_label
 _atom_site_symmetry_multiplicity
 _atom_site_fract_x
 _atom_site_fract_y
 _atom_site_fract_z
 _atom_site_occupancy
  Li  Li0  1  0.92678900  0.75720600  0.41032600  1
  Li  Li1  1  0.07321100  0.24279400  0.58967400  1
  Mg  Mg0  1  0.00000000  0.00000000  0.00000000  1
  Cu  Cu0  1  0.49226200  0.83626600  0.18356800  1
  Cu  Cu1  1  0.50773800  0.16373400  0.81643200  1
  Si  Si0  1  0.30128800  0.77665500  0.62746600  1
  Si  Si1  1  0.77894800  0.58979900  0.81384100  1
  Si  Si2  1  0.22105200  0.41020100  0.18615900  1
  Si  Si3  1  0.69871200  0.22334500  0.37253400  1
  O  O0  1  0.22870800  0.99990000  0.75242900  1
  O  O1  1  0.77129200  0.00010000  0.24757100  1
  O  O2  1  0.73230400  0.80072500  0.94704900  1
  O  O3  1  0.27513400  0.86413200  0.42126500  1
  O  O4  1  0.58734600  0.64015300  0.65566800  1
  O  O5  1  0.23595200  0.67596100  0.09621900  1
  O  O6  1  0.07546300  0.58923700  0.68853100  1
  O  O7  1  0.92453700  0.41076300  0.31146900  1
  O  O8  1  0.76404800  0.32403900  0.90378100  1
  O  O9  1  0.41265400  0.35984700  0.34433200  1
  O  O10  1  0.72486600  0.13586800  0.57873500  1
  O  O11  1  0.26769600  0.19927500  0.05295100  1
loop_
_geom_bond_atom_site_label_1
_geom_bond_atom_site_label_2
_geom_bond_distance
_geom_bond_site_symmetry_2
Li0 O1 1.969081 1_565
Li0 O3 2.021687 1_655
Li0 O7 2.200822 1_555
Li0 O6 2.439881 1_655
Li0 O4 2.448462 1_555
Li1 O0 1.969081 1_545
Li1 O10 2.021687 1_455
Li1 O6 2.200822 1_555
Li1 O7 2.439881 1_455
Li1 O9 2.448462 1_555
Mg0 O11 2.036272 1_555
Mg0 O2 2.036272 1_444
Mg0 O1 2.040959 1_455
Mg0 O0 2.040959 1_544
Mg0 O8 2.245234 1_454
Mg0 O5 2.245234 1_545
Cu0 O5 1.959386 1_555
Cu0 O3 1.963036 1_555
Cu0 O1 1.988982 1_565
Cu0 O2 2.013276 1_554
Cu0 O11 2.479845 1_565
Cu1 O8 1.959386 1_555
Cu1 O10 1.963036 1_555
Cu1 O0 1.988982 1_545
Cu1 O11 2.013276 1_556
Cu1 O2 2.479845 1_545
O0 Si0 1.636974 1_555
O1 Si3 1.636974 1_555
O2 Si1 1.620482 1_555
O3 Si0 1.613631 1_555
O4 Si0 1.647989 1_555
O4 Si1 1.674187 1_555
O5 Si2 1.621820 1_555
O6 Si1 1.678986 1_455
O6 Si0 1.681230 1_555
O7 Si2 1.678986 1_655
O7 Si3 1.681230 1_555
O8 Si1 1.621820 1_555
O9 Si3 1.647989 1_555
O9 Si2 1.674187 1_555
O10 Si3 1.613631 1_555
O11 Si2 1.620482 1_555
