# generated using pymatgen
data_SiH18C4N8(O2F3)2
_symmetry_space_group_name_H-M   'P 1'
_cell_length_a   9.34302400
_cell_length_b   9.34302400
_cell_length_c   17.99072800
_cell_angle_alpha   90.00000000
_cell_angle_beta   90.00000000
_cell_angle_gamma   90.00000000
_symmetry_Int_Tables_number   1
_chemical_formula_structural   SiH18C4N8(O2F3)2
_chemical_formula_sum   'Si4 H72 C16 N32 O16 F24'
_cell_volume   1570.44838203
_cell_formula_units_Z   4
loop_
 _symmetry_equiv_pos_site_id
 _symmetry_equiv_pos_as_xyz
  1  'x, y, z'
loop_
 _atom_site_type_symbol
 _atom_site_label
 _atom_site_symmetry_multiplicity
 _atom_site_fract_x
 _atom_site_fract_y
 _atom_site_fract_z
 _atom_site_occupancy
  Si  Si0  1  0.67839300  0.32160700  0.75000000  1
  Si  Si1  1  0.32160700  0.67839300  0.25000000  1
  Si  Si2  1  0.82160700  0.82160700  0.50000000  1
  Si  Si3  1  0.17839300  0.17839300  0.00000000  1
  H  H0  1  0.66444400  0.33555600  0.25000000  1
  H  H1  1  0.33555600  0.66444400  0.75000000  1
  H  H2  1  0.83555600  0.83555600  0.00000000  1
  H  H3  1  0.16444400  0.16444400  0.50000000  1
  H  H4  1  0.91752200  0.08247800  0.25000000  1
  H  H5  1  0.08247800  0.91752200  0.75000000  1
  H  H6  1  0.58247800  0.58247800  0.00000000  1
  H  H7  1  0.41752200  0.41752200  0.50000000  1
  H  H8  1  0.84512400  0.42355900  0.58612700  1
  H  H9  1  0.15487600  0.57644200  0.08612700  1
  H  H10  1  0.92355800  0.65487600  0.33612700  1
  H  H11  1  0.07644100  0.34512400  0.83612700  1
  H  H12  1  0.57644200  0.15487600  0.91387300  1
  H  H13  1  0.42355900  0.84512400  0.41387300  1
  H  H14  1  0.65487600  0.92355800  0.66387300  1
  H  H15  1  0.34512400  0.07644100  0.16387300  1
  H  H16  1  0.92242700  0.47392900  0.50279300  1
  H  H17  1  0.07757300  0.52607100  0.00279300  1
  H  H18  1  0.97392900  0.57757300  0.25279300  1
  H  H19  1  0.02607100  0.42242700  0.75279300  1
  H  H20  1  0.52607100  0.07757300  0.99720700  1
  H  H21  1  0.47392900  0.92242700  0.49720700  1
  H  H22  1  0.57757300  0.97392900  0.74720700  1
  H  H23  1  0.42242700  0.02607100  0.24720700  1
  H  H24  1  0.88891500  0.19997500  0.63625100  1
  H  H25  1  0.11108500  0.80002500  0.13625100  1
  H  H26  1  0.69997500  0.61108500  0.38625100  1
  H  H27  1  0.30002500  0.38891500  0.88625100  1
  H  H28  1  0.80002500  0.11108500  0.86374900  1
  H  H29  1  0.19997500  0.88891500  0.36374900  1
  H  H30  1  0.61108500  0.69997500  0.61374900  1
  H  H31  1  0.38891500  0.30002500  0.11374900  1
  H  H32  1  0.01425900  0.08542900  0.59551700  1
  H  H33  1  0.98574100  0.91457100  0.09551700  1
  H  H34  1  0.58542900  0.48574100  0.34551700  1
  H  H35  1  0.41457100  0.51425900  0.84551700  1
  H  H36  1  0.91457100  0.98574100  0.90448300  1
  H  H37  1  0.08542900  0.01425900  0.40448300  1
  H  H38  1  0.48574100  0.58542900  0.65448300  1
  H  H39  1  0.51425900  0.41457100  0.15448300  1
  H  H40  1  0.70662100  0.09992300  0.43609300  1
  H  H41  1  0.29337900  0.90007700  0.93609300  1
  H  H42  1  0.59992300  0.79337900  0.18609300  1
  H  H43  1  0.40007700  0.20662100  0.68609300  1
  H  H44  1  0.90007700  0.29337900  0.06390700  1
  H  H45  1  0.09992300  0.70662100  0.56390700  1
  H  H46  1  0.79337900  0.59992300  0.81390700  1
  H  H47  1  0.20662100  0.40007700  0.31390700  1
  H  H48  1  0.61472900  0.19710900  0.36685000  1
  H  H49  1  0.38527100  0.80289100  0.86685000  1
  H  H50  1  0.69710900  0.88527100  0.11685000  1
  H  H51  1  0.30289100  0.11472900  0.61685000  1
  H  H52  1  0.80289100  0.38527100  0.13315000  1
  H  H53  1  0.19710900  0.61472900  0.63315000  1
  H  H54  1  0.88527100  0.69710900  0.88315000  1
  H  H55  1  0.11472900  0.30289100  0.38315000  1
  H  H56  1  0.66129200  0.15400700  0.56074500  1
  H  H57  1  0.33870800  0.84599300  0.06074500  1
  H  H58  1  0.65400700  0.83870800  0.31074500  1
  H  H59  1  0.34599300  0.16129200  0.81074500  1
  H  H60  1  0.84599300  0.33870800  0.93925500  1
  H  H61  1  0.15400700  0.66129200  0.43925500  1
  H  H62  1  0.83870800  0.65400700  0.68925500  1
  H  H63  1  0.16129200  0.34599300  0.18925500  1
  H  H64  1  0.54859700  0.29463400  0.58527100  1
  H  H65  1  0.45140300  0.70536600  0.08527100  1
  H  H66  1  0.79463400  0.95140300  0.33527100  1
  H  H67  1  0.20536600  0.04859700  0.83527100  1
  H  H68  1  0.70536600  0.45140300  0.91472900  1
  H  H69  1  0.29463400  0.54859700  0.41472900  1
  H  H70  1  0.95140300  0.79463400  0.66472900  1
  H  H71  1  0.04859700  0.20536600  0.16472900  1
  C  C0  1  0.98557000  0.27739000  0.54191000  1
  C  C1  1  0.01443000  0.72261000  0.04191000  1
  C  C2  1  0.77739000  0.51443000  0.29191000  1
  C  C3  1  0.22261000  0.48557000  0.79191000  1
  C  C4  1  0.72261000  0.01443000  0.95809000  1
  C  C5  1  0.27739000  0.98557000  0.45809000  1
  C  C6  1  0.51443000  0.77739000  0.70809000  1
  C  C7  1  0.48557000  0.22261000  0.20809000  1
  C  C8  1  0.56783400  0.25693300  0.47273400  1
  C  C9  1  0.43216600  0.74306700  0.97273400  1
  C  C10  1  0.75693300  0.93216600  0.22273400  1
  C  C11  1  0.24306700  0.06783400  0.72273400  1
  C  C12  1  0.74306700  0.43216600  0.02726600  1
  C  C13  1  0.25693300  0.56783400  0.52726600  1
  C  C14  1  0.93216600  0.75693300  0.77726600  1
  C  C15  1  0.06783400  0.24306700  0.27726600  1
  N  N0  1  0.90717000  0.39759600  0.54190400  1
  N  N1  1  0.09283000  0.60240400  0.04190400  1
  N  N2  1  0.89759600  0.59283000  0.29190400  1
  N  N3  1  0.10240400  0.40717000  0.79190400  1
  N  N4  1  0.60240400  0.09283000  0.95809600  1
  N  N5  1  0.39759600  0.90717000  0.45809600  1
  N  N6  1  0.59283000  0.89759600  0.70809600  1
  N  N7  1  0.40717000  0.10240400  0.20809600  1
  N  N8  1  0.96633400  0.18314900  0.59680500  1
  N  N9  1  0.03366600  0.81685100  0.09680500  1
  N  N10  1  0.68314900  0.53366600  0.34680500  1
  N  N11  1  0.31685100  0.46633400  0.84680500  1
  N  N12  1  0.81685100  0.03366600  0.90319500  1
  N  N13  1  0.18314900  0.96633400  0.40319500  1
  N  N14  1  0.53366600  0.68314900  0.65319500  1
  N  N15  1  0.46633400  0.31685100  0.15319500  1
  N  N16  1  0.63653900  0.17887000  0.42158400  1
  N  N17  1  0.36346100  0.82113000  0.92158400  1
  N  N18  1  0.67887000  0.86346100  0.17158400  1
  N  N19  1  0.32113000  0.13653900  0.67158400  1
  N  N20  1  0.82113000  0.36346100  0.07841600  1
  N  N21  1  0.17887000  0.63653900  0.57841600  1
  N  N22  1  0.86346100  0.67887000  0.82841600  1
  N  N23  1  0.13653900  0.32113000  0.32841600  1
  N  N24  1  0.59044200  0.23070800  0.54500900  1
  N  N25  1  0.40955800  0.76929200  0.04500900  1
  N  N26  1  0.73070800  0.90955800  0.29500900  1
  N  N27  1  0.26929200  0.09044200  0.79500900  1
  N  N28  1  0.76929200  0.40955800  0.95499100  1
  N  N29  1  0.23070800  0.59044200  0.45499100  1
  N  N30  1  0.90955800  0.73070800  0.70499100  1
  N  N31  1  0.09044200  0.26929200  0.20499100  1
  O  O0  1  0.07761400  0.25733300  0.48891000  1
  O  O1  1  0.92238600  0.74266700  0.98891000  1
  O  O2  1  0.75733300  0.42238600  0.23891000  1
  O  O3  1  0.24266700  0.57761400  0.73891000  1
  O  O4  1  0.74266700  0.92238600  0.01109000  1
  O  O5  1  0.25733300  0.07761400  0.51109000  1
  O  O6  1  0.42238600  0.75733300  0.76109000  1
  O  O7  1  0.57761400  0.24266700  0.26109000  1
  O  O8  1  0.48061100  0.35588500  0.45090100  1
  O  O9  1  0.51938900  0.64411500  0.95090100  1
  O  O10  1  0.85588500  0.01938900  0.20090100  1
  O  O11  1  0.14411500  0.98061100  0.70090100  1
  O  O12  1  0.64411500  0.51938900  0.04909900  1
  O  O13  1  0.35588500  0.48061100  0.54909900  1
  O  O14  1  0.01938900  0.85588500  0.79909900  1
  O  O15  1  0.98061100  0.14411500  0.29909900  1
  F  F0  1  0.53515300  0.36252600  0.69326600  1
  F  F1  1  0.46484700  0.63747400  0.19326600  1
  F  F2  1  0.86252600  0.96484700  0.44326600  1
  F  F3  1  0.13747400  0.03515300  0.94326600  1
  F  F4  1  0.63747400  0.46484700  0.80673400  1
  F  F5  1  0.36252600  0.53515300  0.30673400  1
  F  F6  1  0.96484700  0.86252600  0.55673400  1
  F  F7  1  0.03515300  0.13747400  0.05673400  1
  F  F8  1  0.78949800  0.43163000  0.69792000  1
  F  F9  1  0.21050200  0.56837000  0.19792000  1
  F  F10  1  0.93163000  0.71050200  0.44792000  1
  F  F11  1  0.06837000  0.28949800  0.94792000  1
  F  F12  1  0.56837000  0.21050200  0.80208000  1
  F  F13  1  0.43163000  0.78949800  0.30208000  1
  F  F14  1  0.71050200  0.93163000  0.55208000  1
  F  F15  1  0.28949800  0.06837000  0.05208000  1
  F  F16  1  0.72101500  0.18068900  0.69298900  1
  F  F17  1  0.27898500  0.81931100  0.19298900  1
  F  F18  1  0.68068900  0.77898500  0.44298900  1
  F  F19  1  0.31931100  0.22101500  0.94298900  1
  F  F20  1  0.81931100  0.27898500  0.80701100  1
  F  F21  1  0.18068900  0.72101500  0.30701100  1
  F  F22  1  0.77898500  0.68068900  0.55701100  1
  F  F23  1  0.22101500  0.31931100  0.05701100  1
loop_
_geom_bond_atom_site_label_1
_geom_bond_atom_site_label_2
_geom_bond_distance
_geom_bond_site_symmetry_2
H0 O2 1.204628 1_555
H0 O7 1.204628 1_555
H1 O6 1.204628 1_555
H1 O3 1.204628 1_555
H2 O4 1.204628 1_555
H2 O1 1.204628 1_554
H3 O0 1.204628 1_555
H3 O5 1.204628 1_555
H4 O10 1.208032 1_555
H4 O15 1.208032 1_555
H5 O14 1.208032 1_555
H5 O11 1.208032 1_555
H6 O12 1.208032 1_555
H6 O9 1.208032 1_554
H7 O13 1.208032 1_555
H7 O8 1.208032 1_555
H8 N0 1.013842 1_555
H9 N1 1.013840 1_555
H10 N2 1.013840 1_555
H11 N3 1.013842 1_555
H12 N4 1.013840 1_555
H13 N5 1.013842 1_555
H14 N6 1.013840 1_555
H15 N7 1.013842 1_555
H16 N0 1.011953 1_555
H17 N1 1.011953 1_555
H18 N2 1.011953 1_555
H19 N3 1.011953 1_555
H20 N4 1.011953 1_555
H21 N5 1.011953 1_555
H22 N6 1.011953 1_555
H23 N7 1.011953 1_555
H24 N8 1.025445 1_555
H25 N9 1.025445 1_555
H26 N10 1.025445 1_555
H27 N11 1.025445 1_555
H28 N12 1.025445 1_555
H29 N13 1.025445 1_555
H30 N14 1.025445 1_555
H31 N15 1.025445 1_555
H32 N8 1.017153 1_455
H33 N9 1.017153 1_655
H34 N10 1.017153 1_555
H35 N11 1.017153 1_555
H36 N12 1.017153 1_565
H37 N13 1.017153 1_545
H38 N14 1.017153 1_555
H39 N15 1.017153 1_555
H40 N16 1.020259 1_555
H41 N17 1.020259 1_555
H42 N18 1.020259 1_555
H43 N19 1.020259 1_555
H44 N20 1.020259 1_555
H45 N21 1.020259 1_555
H46 N22 1.020259 1_555
H47 N23 1.020259 1_555
H48 N16 1.019904 1_555
H49 N17 1.019904 1_555
H50 N18 1.019904 1_555
H51 N19 1.019904 1_555
H52 N20 1.019904 1_555
H53 N21 1.019904 1_555
H54 N22 1.019904 1_555
H55 N23 1.019904 1_555
H56 N24 1.015811 1_555
H57 N25 1.015811 1_555
H58 N26 1.015811 1_555
H59 N27 1.015811 1_555
H60 N28 1.015811 1_555
H61 N29 1.015811 1_555
H62 N30 1.015811 1_555
H63 N31 1.015811 1_555
H64 N24 1.016977 1_555
H65 N25 1.016977 1_555
H66 N26 1.016977 1_555
H67 N27 1.016977 1_555
H68 N28 1.016977 1_555
H69 N29 1.016977 1_555
H70 N30 1.016977 1_555
H71 N31 1.016977 1_555
C0 O0 1.297629 1_655
C0 N8 1.335264 1_555
C0 N0 1.340847 1_555
C1 O1 1.297629 1_454
C1 N9 1.335264 1_555
C1 N1 1.340847 1_555
C2 O2 1.297629 1_555
C2 N10 1.335264 1_555
C2 N2 1.340847 1_555
C3 O3 1.297629 1_555
C3 N11 1.335264 1_555
C3 N3 1.340847 1_555
C4 O4 1.297629 1_546
C4 N12 1.335264 1_555
C4 N4 1.340847 1_555
C5 O5 1.297629 1_565
C5 N13 1.335264 1_555
C5 N5 1.340847 1_555
C6 O6 1.297629 1_555
C6 N14 1.335264 1_555
C6 N6 1.340847 1_555
C7 O7 1.297629 1_555
C7 N15 1.335264 1_555
C7 N7 1.340847 1_555
C8 O8 1.293488 1_555
C8 N16 1.338212 1_555
C8 N24 1.339918 1_555
C9 O9 1.293488 1_555
C9 N17 1.338212 1_555
C9 N25 1.339918 1_556
C10 O10 1.293488 1_565
C10 N18 1.338212 1_555
C10 N26 1.339918 1_555
C11 O11 1.293488 1_545
C11 N19 1.338212 1_555
C11 N27 1.339918 1_555
C12 O12 1.293488 1_555
C12 N20 1.338212 1_555
C12 N28 1.339918 1_554
C13 O13 1.293488 1_555
C13 N21 1.338212 1_555
C13 N29 1.339918 1_555
C14 O14 1.293488 1_655
C14 N22 1.338212 1_555
C14 N30 1.339918 1_555
C15 O15 1.293488 1_455
C15 N23 1.338212 1_555
C15 N31 1.339918 1_555
F0 Si0 1.725976 1_555
F1 Si1 1.725976 1_555
F2 Si2 1.725976 1_555
F3 Si3 1.725976 1_556
F4 Si0 1.725976 1_555
F5 Si1 1.725976 1_555
F6 Si2 1.725976 1_555
F7 Si3 1.725976 1_555
F8 Si0 1.735548 1_555
F9 Si1 1.735548 1_555
F10 Si2 1.735548 1_555
F11 Si3 1.735548 1_556
F12 Si0 1.735548 1_555
F13 Si1 1.735548 1_555
F14 Si2 1.735548 1_555
F15 Si3 1.735548 1_555
F16 Si0 1.715812 1_555
F17 Si1 1.715812 1_555
F18 Si2 1.715812 1_555
F19 Si3 1.715812 1_556
F20 Si0 1.715812 1_555
F21 Si1 1.715812 1_555
F22 Si2 1.715812 1_555
F23 Si3 1.715812 1_555
