# generated using pymatgen
data_K6Zr3H8(OF)12
_symmetry_space_group_name_H-M   'P 1'
_cell_length_a   11.04814300
_cell_length_b   13.96767800
_cell_length_c   14.72626800
_cell_angle_alpha   90.00000000
_cell_angle_beta   90.00000000
_cell_angle_gamma   90.00000000
_symmetry_Int_Tables_number   1
_chemical_formula_structural   K6Zr3H8(OF)12
_chemical_formula_sum   'K24 Zr12 H32 O48 F48'
_cell_volume   2272.51208408
_cell_formula_units_Z   4
loop_
 _symmetry_equiv_pos_site_id
 _symmetry_equiv_pos_as_xyz
  1  'x, y, z'
loop_
 _atom_site_type_symbol
 _atom_site_label
 _atom_site_symmetry_multiplicity
 _atom_site_fract_x
 _atom_site_fract_y
 _atom_site_fract_z
 _atom_site_occupancy
  K  K0  1  0.13270100  0.45809400  0.89151100  1
  K  K1  1  0.36729900  0.04190600  0.39151100  1
  K  K2  1  0.86729900  0.95809400  0.10848900  1
  K  K3  1  0.63270100  0.54190600  0.60848900  1
  K  K4  1  0.86729900  0.54190600  0.10848900  1
  K  K5  1  0.63270100  0.95809400  0.60848900  1
  K  K6  1  0.13270100  0.04190600  0.89151100  1
  K  K7  1  0.36729900  0.45809400  0.39151100  1
  K  K8  1  0.43143200  0.89557300  0.82263600  1
  K  K9  1  0.06856800  0.60442700  0.32263600  1
  K  K10  1  0.56856800  0.39557300  0.17736400  1
  K  K11  1  0.93143200  0.10442700  0.67736400  1
  K  K12  1  0.56856800  0.10442700  0.17736400  1
  K  K13  1  0.93143200  0.39557300  0.67736400  1
  K  K14  1  0.43143200  0.60442700  0.82263600  1
  K  K15  1  0.06856800  0.89557300  0.32263600  1
  K  K16  1  0.18954100  0.88032200  0.61162800  1
  K  K17  1  0.31045900  0.61967800  0.11162800  1
  K  K18  1  0.81045900  0.38032200  0.38837200  1
  K  K19  1  0.68954100  0.11967800  0.88837200  1
  K  K20  1  0.81045900  0.11967800  0.38837200  1
  K  K21  1  0.68954100  0.38032200  0.88837200  1
  K  K22  1  0.18954100  0.61967800  0.61162800  1
  K  K23  1  0.31045900  0.88032200  0.11162800  1
  Zr  Zr0  1  0.63097400  0.25000000  0.59625000  1
  Zr  Zr1  1  0.86902600  0.25000000  0.09625000  1
  Zr  Zr2  1  0.36902600  0.75000000  0.40375000  1
  Zr  Zr3  1  0.13097400  0.75000000  0.90375000  1
  Zr  Zr4  1  0.33359300  0.10976800  0.66379500  1
  Zr  Zr5  1  0.16640700  0.39023200  0.16379500  1
  Zr  Zr6  1  0.66640700  0.60976800  0.33620500  1
  Zr  Zr7  1  0.83359300  0.89023200  0.83620500  1
  Zr  Zr8  1  0.66640700  0.89023200  0.33620500  1
  Zr  Zr9  1  0.83359300  0.60976800  0.83620500  1
  Zr  Zr10  1  0.33359300  0.39023200  0.66379500  1
  Zr  Zr11  1  0.16640700  0.10976800  0.16379500  1
  H  H0  1  0.17314400  0.25000000  0.80169300  1
  H  H1  1  0.32685600  0.25000000  0.30169300  1
  H  H2  1  0.82685600  0.75000000  0.19830700  1
  H  H3  1  0.67314400  0.75000000  0.69830700  1
  H  H4  1  0.94756100  0.25000000  0.86547300  1
  H  H5  1  0.55243900  0.25000000  0.36547300  1
  H  H6  1  0.05243900  0.75000000  0.13452700  1
  H  H7  1  0.44756100  0.75000000  0.63452700  1
  H  H8  1  0.41038900  0.06516100  0.99938600  1
  H  H9  1  0.08961100  0.43483900  0.49938600  1
  H  H10  1  0.58961100  0.56516100  0.00061400  1
  H  H11  1  0.91038900  0.93483900  0.50061400  1
  H  H12  1  0.58961100  0.93483900  0.00061400  1
  H  H13  1  0.91038900  0.56516100  0.50061400  1
  H  H14  1  0.41038900  0.43483900  0.99938600  1
  H  H15  1  0.08961100  0.06516100  0.49938600  1
  H  H16  1  0.43736800  0.19383200  0.85346500  1
  H  H17  1  0.06263200  0.30616800  0.35346500  1
  H  H18  1  0.56263200  0.69383200  0.14653500  1
  H  H19  1  0.93736800  0.80616800  0.64653500  1
  H  H20  1  0.56263200  0.80616800  0.14653500  1
  H  H21  1  0.93736800  0.69383200  0.64653500  1
  H  H22  1  0.43736800  0.30616800  0.85346500  1
  H  H23  1  0.06263200  0.19383200  0.35346500  1
  H  H24  1  0.47931100  0.25000000  0.00068100  1
  H  H25  1  0.02068900  0.25000000  0.50068100  1
  H  H26  1  0.52068900  0.75000000  0.99931900  1
  H  H27  1  0.97931100  0.75000000  0.49931900  1
  H  H28  1  0.10851200  0.25000000  0.58429500  1
  H  H29  1  0.39148800  0.25000000  0.08429500  1
  H  H30  1  0.89148800  0.75000000  0.41570500  1
  H  H31  1  0.60851200  0.75000000  0.91570500  1
  O  O0  1  0.48862600  0.13916000  0.57216100  1
  O  O1  1  0.01137400  0.36084000  0.07216100  1
  O  O2  1  0.51137400  0.63916000  0.42783900  1
  O  O3  1  0.98862600  0.86084000  0.92783900  1
  O  O4  1  0.51137400  0.86084000  0.42783900  1
  O  O5  1  0.98862600  0.63916000  0.92783900  1
  O  O6  1  0.48862600  0.36084000  0.57216100  1
  O  O7  1  0.01137400  0.13916000  0.07216100  1
  O  O8  1  0.52632000  0.14112000  0.67084800  1
  O  O9  1  0.97368000  0.35888000  0.17084800  1
  O  O10  1  0.47368000  0.64112000  0.32915200  1
  O  O11  1  0.02632000  0.85888000  0.82915200  1
  O  O12  1  0.47368000  0.85888000  0.32915200  1
  O  O13  1  0.02632000  0.64112000  0.82915200  1
  O  O14  1  0.52632000  0.35888000  0.67084800  1
  O  O15  1  0.97368000  0.14112000  0.17084800  1
  O  O16  1  0.28353700  0.25000000  0.72191000  1
  O  O17  1  0.21646300  0.25000000  0.22191000  1
  O  O18  1  0.71646300  0.75000000  0.27809000  1
  O  O19  1  0.78353700  0.75000000  0.77809000  1
  O  O20  1  0.25843300  0.25000000  0.62170400  1
  O  O21  1  0.24156700  0.25000000  0.12170400  1
  O  O22  1  0.74156700  0.75000000  0.37829600  1
  O  O23  1  0.75843300  0.75000000  0.87829600  1
  O  O24  1  0.00199300  0.25000000  0.81085000  1
  O  O25  1  0.49800700  0.25000000  0.31085000  1
  O  O26  1  0.99800700  0.75000000  0.18915000  1
  O  O27  1  0.50199300  0.75000000  0.68915000  1
  O  O28  1  0.12103500  0.25000000  0.85714400  1
  O  O29  1  0.37896500  0.25000000  0.35714400  1
  O  O30  1  0.87896500  0.75000000  0.14285600  1
  O  O31  1  0.62103500  0.75000000  0.64285600  1
  O  O32  1  0.48538700  0.04017300  0.96931800  1
  O  O33  1  0.01461300  0.45982700  0.46931800  1
  O  O34  1  0.51461300  0.54017300  0.03068200  1
  O  O35  1  0.98538700  0.95982700  0.53068200  1
  O  O36  1  0.51461300  0.95982700  0.03068200  1
  O  O37  1  0.98538700  0.54017300  0.53068200  1
  O  O38  1  0.48538700  0.45982700  0.96931800  1
  O  O39  1  0.01461300  0.04017300  0.46931800  1
  O  O40  1  0.47976400  0.25000000  0.87997800  1
  O  O41  1  0.02023600  0.25000000  0.37997800  1
  O  O42  1  0.52023600  0.75000000  0.12002200  1
  O  O43  1  0.97976400  0.75000000  0.62002200  1
  O  O44  1  0.02153400  0.25000000  0.56805300  1
  O  O45  1  0.47846600  0.25000000  0.06805300  1
  O  O46  1  0.97846600  0.75000000  0.43194700  1
  O  O47  1  0.52153400  0.75000000  0.93194700  1
  F  F0  1  0.36697100  0.09232800  0.80464600  1
  F  F1  1  0.13302900  0.40767200  0.30464600  1
  F  F2  1  0.63302900  0.59232800  0.19535400  1
  F  F3  1  0.86697100  0.90767200  0.69535400  1
  F  F4  1  0.63302900  0.90767200  0.19535400  1
  F  F5  1  0.86697100  0.59232800  0.69535400  1
  F  F6  1  0.36697100  0.40767200  0.80464600  1
  F  F7  1  0.13302900  0.09232800  0.30464600  1
  F  F8  1  0.16653300  0.05800000  0.70871900  1
  F  F9  1  0.33346700  0.44200000  0.20871900  1
  F  F10  1  0.83346700  0.55800000  0.29128100  1
  F  F11  1  0.66653300  0.94200000  0.79128100  1
  F  F12  1  0.83346700  0.94200000  0.29128100  1
  F  F13  1  0.66653300  0.55800000  0.79128100  1
  F  F14  1  0.16653300  0.44200000  0.70871900  1
  F  F15  1  0.33346700  0.05800000  0.20871900  1
  F  F16  1  0.89052500  0.03185000  0.84187200  1
  F  F17  1  0.60947500  0.46815000  0.34187200  1
  F  F18  1  0.10947500  0.53185000  0.15812800  1
  F  F19  1  0.39052500  0.96815000  0.65812800  1
  F  F20  1  0.10947500  0.96815000  0.15812800  1
  F  F21  1  0.39052500  0.53185000  0.65812800  1
  F  F22  1  0.89052500  0.46815000  0.84187200  1
  F  F23  1  0.60947500  0.03185000  0.34187200  1
  F  F24  1  0.24499500  0.07101500  0.54108200  1
  F  F25  1  0.25500500  0.42898500  0.04108200  1
  F  F26  1  0.75500500  0.57101500  0.45891800  1
  F  F27  1  0.74499500  0.92898500  0.95891800  1
  F  F28  1  0.75500500  0.92898500  0.45891800  1
  F  F29  1  0.74499500  0.57101500  0.95891800  1
  F  F30  1  0.24499500  0.42898500  0.54108200  1
  F  F31  1  0.25500500  0.07101500  0.04108200  1
  F  F32  1  0.74871600  0.13743300  0.56968000  1
  F  F33  1  0.75128400  0.36256700  0.06968000  1
  F  F34  1  0.25128400  0.63743300  0.43032000  1
  F  F35  1  0.24871600  0.86256700  0.93032000  1
  F  F36  1  0.25128400  0.86256700  0.43032000  1
  F  F37  1  0.24871600  0.63743300  0.93032000  1
  F  F38  1  0.74871600  0.36256700  0.56968000  1
  F  F39  1  0.75128400  0.13743300  0.06968000  1
  F  F40  1  0.86045600  0.25000000  0.95028200  1
  F  F41  1  0.63954400  0.25000000  0.45028200  1
  F  F42  1  0.13954400  0.75000000  0.04971800  1
  F  F43  1  0.36045600  0.75000000  0.54971800  1
  F  F44  1  0.72820300  0.25000000  0.71944700  1
  F  F45  1  0.77179700  0.25000000  0.21944700  1
  F  F46  1  0.27179700  0.75000000  0.28055300  1
  F  F47  1  0.22820300  0.75000000  0.78055300  1
loop_
_geom_bond_atom_site_label_1
_geom_bond_atom_site_label_2
_geom_bond_distance
_geom_bond_site_symmetry_2
K0 O28 2.953136 1_555
K0 O13 2.959745 1_555
K0 O5 3.035804 1_455
K0 O1 3.274028 1_556
K1 O29 2.953136 1_555
K1 O12 2.959745 1_545
K1 O4 3.035804 1_545
K1 O0 3.274028 1_555
K2 O30 2.953136 1_555
K2 O15 2.959745 1_565
K2 O7 3.035804 1_665
K2 O3 3.274028 1_554
K3 O31 2.953136 1_555
K3 O14 2.959745 1_555
K3 O6 3.035804 1_555
K3 O2 3.274028 1_555
K4 O30 2.953136 1_555
K4 O9 2.959745 1_555
K4 O1 3.035804 1_655
K4 O5 3.274028 1_554
K5 O31 2.953136 1_555
K5 O8 2.959745 1_565
K5 O0 3.035804 1_565
K5 O4 3.274028 1_555
K6 O28 2.953136 1_555
K6 O11 2.959745 1_545
K6 O3 3.035804 1_445
K6 O7 3.274028 1_556
K7 O29 2.953136 1_555
K7 O10 2.959745 1_555
K7 O2 3.035804 1_555
K7 O6 3.274028 1_555
K8 O47 2.777875 1_555
K8 O27 2.933646 1_555
K8 O32 3.016715 1_565
K9 O46 2.777875 1_455
K9 O26 2.933646 1_455
K9 O33 3.016715 1_555
K10 O45 2.777875 1_555
K10 O25 2.933646 1_555
K10 O34 3.016715 1_555
K11 O44 2.777875 1_655
K11 O24 2.933646 1_655
K11 O35 3.016715 1_545
K12 O45 2.777875 1_555
K12 O25 2.933646 1_555
K12 O36 3.016715 1_545
K13 O44 2.777875 1_655
K13 O24 2.933646 1_655
K13 O37 3.016715 1_555
K14 O47 2.777875 1_555
K14 O27 2.933646 1_555
K14 O38 3.016715 1_555
K15 O46 2.777875 1_455
K15 O26 2.933646 1_455
K15 O39 3.016715 1_565
K16 O35 2.782361 1_455
K16 O43 2.949617 1_455
K17 O34 2.782361 1_555
K17 O42 2.949617 1_555
K18 O33 2.782361 1_655
K18 O41 2.949617 1_655
K19 O32 2.782361 1_555
K19 O40 2.949617 1_555
K20 O39 2.782361 1_655
K20 O41 2.949617 1_655
K21 O38 2.782361 1_555
K21 O40 2.949617 1_555
K22 O37 2.782361 1_455
K22 O43 2.949617 1_455
K23 O36 2.782361 1_555
K23 O42 2.949617 1_555
H0 O28 0.999126 1_555
H0 O16 1.693493 1_555
H1 O29 0.999126 1_555
H1 O17 1.693493 1_555
H2 O30 0.999126 1_555
H2 O18 1.693493 1_555
H3 O31 0.999126 1_555
H3 O19 1.693493 1_555
H4 O24 1.004339 1_655
H5 O25 1.004339 1_555
H6 O26 1.004339 1_455
H7 O27 1.004339 1_555
H8 O32 1.002217 1_555
H9 O33 1.002217 1_555
H10 O34 1.002217 1_555
H11 O35 1.002217 1_555
H12 O36 1.002217 1_555
H13 O37 1.002217 1_555
H14 O38 1.002217 1_555
H15 O39 1.002217 1_555
H16 O40 0.993647 1_555
H17 O41 0.993647 1_555
H18 O42 0.993647 1_555
H19 O43 0.993647 1_555
H20 O42 0.993647 1_555
H21 O43 0.993647 1_555
H22 O40 0.993647 1_555
H23 O41 0.993647 1_555
H24 O45 0.992182 1_555
H25 O44 0.992182 1_555
H26 O47 0.992182 1_555
H27 O46 0.992182 1_555
H28 O44 0.990265 1_555
H28 O20 1.745559 1_555
H29 O45 0.990265 1_555
H29 O21 1.745559 1_555
H30 O46 0.990265 1_555
H30 O22 1.745559 1_555
H31 O47 0.990265 1_555
H31 O23 1.745559 1_555
O0 O8 1.512030 1_555
O0 Zr4 2.218844 1_555
O0 Zr0 2.235178 1_555
O1 O9 1.512030 1_455
O1 Zr5 2.218844 1_555
O1 Zr1 2.235178 1_455
O2 Zr6 2.218844 1_555
O2 Zr2 2.235178 1_555
O3 Zr7 2.218844 1_555
O3 Zr3 2.235178 1_655
O4 Zr8 2.218844 1_555
O4 Zr2 2.235178 1_555
O5 Zr9 2.218844 1_555
O5 Zr3 2.235178 1_655
O6 Zr10 2.218844 1_555
O6 Zr0 2.235178 1_555
O7 Zr11 2.218844 1_555
O7 Zr1 2.235178 1_455
O8 Zr4 2.176321 1_555
O8 Zr0 2.203752 1_555
O9 Zr5 2.176321 1_655
O9 Zr1 2.203752 1_555
O10 O2 1.512030 1_555
O10 Zr6 2.176321 1_555
O10 Zr2 2.203752 1_555
O11 O3 1.512030 1_455
O11 Zr7 2.176321 1_455
O11 Zr3 2.203752 1_555
O12 O4 1.512030 1_555
O12 Zr8 2.176321 1_555
O12 Zr2 2.203752 1_555
O13 O5 1.512030 1_455
O13 Zr9 2.176321 1_455
O13 Zr3 2.203752 1_555
O14 O6 1.512030 1_555
O14 Zr10 2.176321 1_555
O14 Zr0 2.203752 1_555
O15 O7 1.512030 1_655
O15 Zr11 2.176321 1_655
O15 Zr1 2.203752 1_555
O16 O20 1.501499 1_555
O16 Zr10 2.207901 1_555
O16 Zr4 2.207901 1_555
O17 O21 1.501499 1_555
O17 Zr5 2.207901 1_555
O17 Zr11 2.207901 1_555
O18 O22 1.501499 1_555
O18 Zr8 2.207901 1_555
O18 Zr6 2.207901 1_555
O19 O23 1.501499 1_555
O19 Zr7 2.207901 1_555
O19 Zr9 2.207901 1_555
O20 Zr10 2.215920 1_555
O20 Zr4 2.215920 1_555
O21 Zr5 2.215920 1_555
O21 Zr11 2.215920 1_555
O22 Zr8 2.215920 1_555
O22 Zr6 2.215920 1_555
O23 Zr7 2.215920 1_555
O23 Zr9 2.215920 1_555
F0 Zr4 2.120772 1_555
F0 K8 2.851322 1_545
F0 K6 2.971764 1_555
F1 Zr5 2.120772 1_555
F1 K9 2.851322 1_555
F1 K7 2.971764 1_555
F2 Zr6 2.120772 1_555
F2 K10 2.851322 1_555
F2 K4 2.971764 1_555
F3 Zr7 2.120772 1_555
F3 K11 2.851322 1_565
F3 K5 2.971764 1_555
F4 Zr8 2.120772 1_555
F4 K12 2.851322 1_565
F4 K2 2.971764 1_555
F5 Zr9 2.120772 1_555
F5 K13 2.851322 1_555
F5 K3 2.971764 1_555
F6 Zr10 2.120772 1_555
F6 K14 2.851322 1_555
F6 K0 2.971764 1_555
F7 Zr11 2.120772 1_555
F7 K15 2.851322 1_545
F7 K1 2.971764 1_555
F8 Zr4 2.089767 1_555
F8 K11 2.716683 1_455
F8 K6 2.726952 1_555
F8 K16 2.875411 1_545
F9 Zr5 2.089767 1_555
F9 K10 2.716683 1_555
F9 K7 2.726952 1_555
F9 K17 2.875411 1_555
F10 Zr6 2.089767 1_555
F10 K9 2.716683 1_655
F10 K4 2.726952 1_555
F10 K18 2.875411 1_555
F11 Zr7 2.089767 1_555
F11 K8 2.716683 1_555
F11 K5 2.726952 1_555
F11 K19 2.875411 1_565
F12 Zr8 2.089767 1_555
F12 K15 2.716683 1_655
F12 K2 2.726952 1_555
F12 K20 2.875411 1_565
F13 Zr9 2.089767 1_555
F13 K14 2.716683 1_555
F13 K3 2.726952 1_555
F13 K21 2.875411 1_555
F14 Zr10 2.089767 1_555
F14 K13 2.716683 1_455
F14 K0 2.726952 1_555
F14 K22 2.875411 1_555
F15 Zr11 2.089767 1_555
F15 K12 2.716683 1_555
F15 K1 2.726952 1_555
F15 K23 2.875411 1_545
F16 Zr7 2.077348 1_545
F16 K19 2.627633 1_555
F16 K11 2.664741 1_555
F16 K6 2.777210 1_655
F17 Zr6 2.077348 1_555
F17 K18 2.627633 1_555
F17 K10 2.664741 1_555
F17 K7 2.777210 1_555
F18 Zr5 2.077348 1_555
F18 K17 2.627633 1_555
F18 K9 2.664741 1_555
F18 K4 2.777210 1_455
F19 Zr4 2.077348 1_565
F19 K16 2.627633 1_555
F19 K8 2.664741 1_555
F19 K5 2.777210 1_555
F20 Zr11 2.077348 1_565
F20 K23 2.627633 1_555
F20 K15 2.664741 1_555
F20 K2 2.777210 1_455
F21 Zr10 2.077348 1_555
F21 K22 2.627633 1_555
F21 K14 2.664741 1_555
F21 K3 2.777210 1_555
F22 Zr9 2.077348 1_555
F22 K21 2.627633 1_555
F22 K13 2.664741 1_555
F22 K0 2.777210 1_655
F23 Zr8 2.077348 1_545
F23 K20 2.627633 1_555
F23 K12 2.664741 1_555
F23 K1 2.777210 1_555
F24 Zr4 2.125266 1_555
F24 K1 2.615853 1_555
F24 K16 2.923878 1_545
F25 Zr5 2.125266 1_555
F25 K0 2.615853 1_554
F25 K17 2.923878 1_555
F26 Zr6 2.125266 1_555
F26 K3 2.615853 1_555
F26 K18 2.923878 1_555
F27 Zr7 2.125266 1_555
F27 K2 2.615853 1_556
F27 K19 2.923878 1_565
F28 Zr8 2.125266 1_555
F28 K5 2.615853 1_555
F28 K20 2.923878 1_565
F29 Zr9 2.125266 1_555
F29 K4 2.615853 1_556
F29 K21 2.923878 1_555
F30 Zr10 2.125266 1_555
F30 K7 2.615853 1_555
F30 K22 2.923878 1_555
F31 Zr11 2.125266 1_555
F31 K6 2.615853 1_554
F31 K23 2.923878 1_545
F32 Zr0 2.077831 1_555
F32 K11 2.608119 1_555
F32 K20 2.766889 1_555
F32 K5 2.871286 1_545
F33 Zr1 2.077831 1_555
F33 K10 2.608119 1_555
F33 K21 2.766889 1_554
F33 K4 2.871286 1_555
F34 Zr2 2.077831 1_555
F34 K9 2.608119 1_555
F34 K22 2.766889 1_555
F34 K7 2.871286 1_555
F35 Zr3 2.077831 1_555
F35 K8 2.608119 1_555
F35 K23 2.766889 1_556
F35 K6 2.871286 1_565
F36 Zr2 2.077831 1_555
F36 K15 2.608119 1_555
F36 K16 2.766889 1_555
F36 K1 2.871286 1_565
F37 Zr3 2.077831 1_555
F37 K14 2.608119 1_555
F37 K17 2.766889 1_556
F37 K0 2.871286 1_555
F38 Zr0 2.077831 1_555
F38 K13 2.608119 1_555
F38 K18 2.766889 1_555
F38 K3 2.871286 1_555
F39 Zr1 2.077831 1_555
F39 K12 2.608119 1_555
F39 K19 2.766889 1_554
F39 K2 2.871286 1_545
F40 H4 1.576679 1_555
F40 Zr1 2.151648 1_556
F40 K21 2.776748 1_555
F40 K19 2.776748 1_555
F41 H5 1.576679 1_555
F41 Zr0 2.151648 1_555
F41 K18 2.776748 1_555
F41 K20 2.776748 1_555
F42 H6 1.576679 1_555
F42 Zr3 2.151648 1_554
F42 K23 2.776748 1_555
F42 K17 2.776748 1_555
F43 H7 1.576679 1_555
F43 Zr2 2.151648 1_555
F43 K16 2.776748 1_555
F43 K22 2.776748 1_555
F44 Zr0 2.108398 1_555
F44 K13 3.091896 1_555
F44 K11 3.091896 1_555
F44 K21 3.111954 1_555
F44 K19 3.111954 1_555
F45 Zr1 2.108398 1_555
F45 K10 3.091896 1_555
F45 K12 3.091896 1_555
F45 K18 3.111954 1_555
F45 K20 3.111954 1_555
F46 Zr2 2.108398 1_555
F46 K15 3.091896 1_555
F46 K9 3.091896 1_555
F46 K23 3.111954 1_555
F46 K17 3.111954 1_555
F47 Zr3 2.108398 1_555
F47 K8 3.091896 1_555
F47 K14 3.091896 1_555
F47 K16 3.111954 1_555
F47 K22 3.111954 1_555
