# generated using pymatgen
data_Li2MnH4(SO5)2
_symmetry_space_group_name_H-M   'P 1'
_cell_length_a   13.07322000
_cell_length_b   5.48463800
_cell_length_c   5.50395375
_cell_angle_alpha   79.21180648
_cell_angle_beta   90.00000000
_cell_angle_gamma   90.00000000
_symmetry_Int_Tables_number   1
_chemical_formula_structural   Li2MnH4(SO5)2
_chemical_formula_sum   'Li4 Mn2 H8 S4 O20'
_cell_volume   387.66882940
_cell_formula_units_Z   2
loop_
 _symmetry_equiv_pos_site_id
 _symmetry_equiv_pos_as_xyz
  1  'x, y, z'
loop_
 _atom_site_type_symbol
 _atom_site_label
 _atom_site_symmetry_multiplicity
 _atom_site_fract_x
 _atom_site_fract_y
 _atom_site_fract_z
 _atom_site_occupancy
  Li  Li0  1  0.11312600  0.27016500  0.40329400  1
  Li  Li1  1  0.38687400  0.77016500  0.40329400  1
  Li  Li2  1  0.61312600  0.22983500  0.59670600  1
  Li  Li3  1  0.88687400  0.72983500  0.59670600  1
  Mn  Mn0  1  0.50000000  0.50000000  0.00000000  1
  Mn  Mn1  1  0.00000000  0.00000000  0.00000000  1
  H  H0  1  0.29333500  0.52203900  0.10810600  1
  H  H1  1  0.20666500  0.02203900  0.10810600  1
  H  H2  1  0.34336900  0.33228700  0.32835100  1
  H  H3  1  0.15663100  0.83228700  0.32835100  1
  H  H4  1  0.84336900  0.16771300  0.67164900  1
  H  H5  1  0.65663100  0.66771300  0.67164900  1
  H  H6  1  0.79333500  0.97796100  0.89189400  1
  H  H7  1  0.70666500  0.47796100  0.89189400  1
  S  S0  1  0.88365500  0.44660100  0.24111600  1
  S  S1  1  0.61634500  0.94660100  0.24111600  1
  S  S2  1  0.38365500  0.05339900  0.75888400  1
  S  S3  1  0.11634500  0.55339900  0.75888400  1
  O  O0  1  0.33005400  0.01741400  0.99774600  1
  O  O1  1  0.16994600  0.51741400  0.99774600  1
  O  O2  1  0.54920300  0.16763400  0.25580300  1
  O  O3  1  0.35612400  0.49330700  0.21225500  1
  O  O4  1  0.95022300  0.21874800  0.27249800  1
  O  O5  1  0.95079700  0.66763400  0.25580300  1
  O  O6  1  0.14387600  0.99330700  0.21225500  1
  O  O7  1  0.54977700  0.71874800  0.27249800  1
  O  O8  1  0.81331400  0.42408600  0.45734300  1
  O  O9  1  0.31331400  0.07591400  0.54265700  1
  O  O10  1  0.68668600  0.92408600  0.45734300  1
  O  O11  1  0.18668600  0.57591400  0.54265700  1
  O  O12  1  0.45022300  0.28125200  0.72750200  1
  O  O13  1  0.85612400  0.00669300  0.78774500  1
  O  O14  1  0.04920300  0.33236600  0.74419700  1
  O  O15  1  0.04977700  0.78125200  0.72750200  1
  O  O16  1  0.64387600  0.50669300  0.78774500  1
  O  O17  1  0.45079700  0.83236600  0.74419700  1
  O  O18  1  0.83005400  0.48258600  0.00225400  1
  O  O19  1  0.66994600  0.98258600  0.00225400  1
loop_
_geom_bond_atom_site_label_1
_geom_bond_atom_site_label_2
_geom_bond_distance
_geom_bond_site_symmetry_2
Li0 O6 2.042215 1_545
Li0 O14 2.138908 1_555
Li0 O11 2.192433 1_555
Li0 O4 2.282379 1_455
Li0 O1 2.497982 1_554
Li1 O3 2.042215 1_555
Li1 O17 2.138908 1_555
Li1 O9 2.192433 1_565
Li1 O7 2.282379 1_555
Li1 O0 2.497982 1_564
Li2 O16 2.042215 1_555
Li2 O2 2.138908 1_555
Li2 O10 2.192433 1_545
Li2 O12 2.282379 1_555
Li2 O19 2.497982 1_546
Li3 O13 2.042215 1_565
Li3 O5 2.138908 1_555
Li3 O8 2.192433 1_555
Li3 O15 2.282379 1_655
Li3 O18 2.497982 1_556
Mn0 O2 2.181333 1_555
Mn0 O17 2.181333 1_554
Mn0 O12 2.187682 1_554
Mn0 O7 2.187682 1_555
Mn0 O16 2.210871 1_554
Mn0 O3 2.210871 1_555
Mn1 O5 2.181333 1_445
Mn1 O14 2.181333 1_554
Mn1 O4 2.187682 1_455
Mn1 O15 2.187682 1_544
Mn1 O13 2.210871 1_454
Mn1 O6 2.210871 1_545
H0 O3 0.996701 1_555
H0 O1 1.725523 1_554
H1 O6 0.996701 1_545
H1 O0 1.725523 1_554
H2 O3 1.002389 1_555
H2 O9 1.703507 1_555
H3 O6 1.002389 1_555
H3 O11 1.703507 1_555
H4 O13 1.002389 1_555
H4 O8 1.703507 1_555
H5 O16 1.002389 1_555
H5 O10 1.703507 1_555
H6 O13 0.996701 1_565
H6 O19 1.725523 1_556
H7 O16 0.996701 1_555
H7 O18 1.725523 1_556
O0 S2 1.470118 1_555
O1 S3 1.470118 1_555
O2 S1 1.511067 1_545
O4 S0 1.506023 1_555
O5 S0 1.511067 1_555
O7 S1 1.506023 1_555
O8 S0 1.490709 1_555
O9 S2 1.490709 1_555
O10 S1 1.490709 1_555
O11 S3 1.490709 1_555
O12 S2 1.506023 1_555
O14 S3 1.511067 1_555
O15 S3 1.506023 1_555
O17 S2 1.511067 1_565
O18 S0 1.470118 1_555
O19 S1 1.470118 1_555
