# generated using pymatgen
data_Rb9Na2Al11Si13O48
_symmetry_space_group_name_H-M   'P 1'
_cell_length_a   12.19473700
_cell_length_b   12.25967722
_cell_length_c   12.57806692
_cell_angle_alpha   90.14989750
_cell_angle_beta   91.29581815
_cell_angle_gamma   90.94578002
_symmetry_Int_Tables_number   1
_chemical_formula_structural   Rb9Na2Al11Si13O48
_chemical_formula_sum   'Rb9 Na2 Al11 Si13 O48'
_cell_volume   1879.72008819
_cell_formula_units_Z   1
loop_
 _symmetry_equiv_pos_site_id
 _symmetry_equiv_pos_as_xyz
  1  'x, y, z'
loop_
 _atom_site_type_symbol
 _atom_site_label
 _atom_site_symmetry_multiplicity
 _atom_site_fract_x
 _atom_site_fract_y
 _atom_site_fract_z
 _atom_site_occupancy
  Rb  Rb0  1  0.45234700  0.50243700  0.02265100  1
  Rb  Rb1  1  0.26435900  0.76152500  0.25145900  1
  Rb  Rb2  1  0.53029300  0.99958800  0.52770400  1
  Rb  Rb3  1  0.99508400  0.49769800  0.57488200  1
  Rb  Rb4  1  0.75735400  0.74344800  0.73457800  1
  Rb  Rb5  1  0.74781900  0.24909900  0.72782300  1
  Rb  Rb6  1  0.33761700  0.79809600  0.67535000  1
  Rb  Rb7  1  0.29032900  0.22338600  0.54064400  1
  Rb  Rb8  1  0.94247700  0.13539300  0.07212600  1
  Na  Na0  1  0.13548000  0.84786500  0.82991400  1
  Na  Na1  1  0.18150000  0.16683400  0.80764700  1
  Al  Al0  1  0.37393500  0.81487100  0.99657800  1
  Al  Al1  1  0.19627700  0.00788200  0.37237900  1
  Al  Al2  1  0.00341700  0.80512600  0.61592700  1
  Al  Al3  1  0.80726600  0.99210300  0.60487100  1
  Al  Al4  1  0.98785600  0.19718300  0.61095300  1
  Al  Al5  1  0.18241200  0.00870400  0.62196400  1
  Al  Al6  1  0.00691200  0.63026600  0.82938100  1
  Al  Al7  1  0.00036200  0.36135900  0.82449800  1
  Al  Al8  1  0.63370900  0.99336500  0.81380500  1
  Al  Al9  1  0.36232000  0.00368500  0.83256100  1
  Al  Al10  1  0.18096000  0.36347100  0.00406300  1
  Si  Si0  1  0.63175100  0.81130300  0.99280800  1
  Si  Si1  1  0.80971700  0.37786600  0.00257800  1
  Si  Si2  1  0.18477900  0.62844400  0.00838300  1
  Si  Si3  1  0.99874400  0.62183800  0.18707100  1
  Si  Si4  1  0.99664900  0.37812900  0.18749200  1
  Si  Si5  1  0.63822800  0.99483100  0.17373500  1
  Si  Si6  1  0.39078600  0.00717100  0.18663000  1
  Si  Si7  1  0.00757100  0.80974300  0.37210800  1
  Si  Si8  1  0.82240400  0.99040100  0.36320100  1
  Si  Si9  1  0.00344800  0.18995100  0.36866700  1
  Si  Si10  1  0.81400400  0.62542800  0.00459500  1
  Si  Si11  1  0.63288200  0.17996600  0.99507400  1
  Si  Si12  1  0.37674000  0.18972600  0.01454500  1
  O  O0  1  0.70871900  0.70413600  0.01210800  1
  O  O1  1  0.75773500  0.50071300  0.99716100  1
  O  O2  1  0.70517800  0.29301800  0.01324900  1
  O  O3  1  0.29788300  0.69768100  0.03675700  1
  O  O4  1  0.21883800  0.50295300  0.99035200  1
  O  O5  1  0.50631400  0.22283800  0.99090300  1
  O  O6  1  0.31170700  0.30289200  0.02175700  1
  O  O7  1  0.88710200  0.63559400  0.11549500  1
  O  O8  1  0.63953600  0.88449200  0.10221500  1
  O  O9  1  0.88416300  0.36984800  0.11188500  1
  O  O10  1  0.37146700  0.90511100  0.10606100  1
  O  O11  1  0.65713300  0.10353100  0.09969200  1
  O  O12  1  0.10933900  0.63689200  0.11686400  1
  O  O13  1  0.37551100  0.12599300  0.12933700  1
  O  O14  1  0.10228600  0.35268700  0.11915900  1
  O  O15  1  0.00039700  0.50025500  0.24388700  1
  O  O16  1  0.52023900  0.00295700  0.23507900  1
  O  O17  1  0.00679100  0.71429600  0.27832600  1
  O  O18  1  0.73993900  0.99037100  0.25721500  1
  O  O19  1  0.98093000  0.28156000  0.27457200  1
  O  O20  1  0.30838700  0.99657000  0.28492200  1
  O  O21  1  0.89561700  0.87990800  0.35356200  1
  O  O22  1  0.90226500  0.09920400  0.35121300  1
  O  O23  1  0.11462900  0.88780200  0.35111900  1
  O  O24  1  0.11944300  0.12840900  0.35031200  1
  O  O25  1  0.01382300  0.74640100  0.48524100  1
  O  O26  1  0.75011800  0.98923200  0.46929200  1
  O  O27  1  0.00002000  0.25546800  0.48054700  1
  O  O28  1  0.25592500  0.00888600  0.50087100  1
  O  O29  1  0.88291000  0.87595100  0.62229000  1
  O  O30  1  0.87216600  0.11650700  0.62026200  1
  O  O31  1  0.12299800  0.88158900  0.64986700  1
  O  O32  1  0.11032900  0.12971600  0.63586000  1
  O  O33  1  0.99591600  0.70058900  0.71038800  1
  O  O34  1  0.97236300  0.30615000  0.69879600  1
  O  O35  1  0.69260200  0.98783400  0.68873000  1
  O  O36  1  0.28468800  0.03223300  0.71958400  1
  O  O37  1  0.02769500  0.49658600  0.80184100  1
  O  O38  1  0.49405400  0.98835000  0.78985100  1
  O  O39  1  0.88477000  0.65336700  0.90187500  1
  O  O40  1  0.67807900  0.88079700  0.89344200  1
  O  O41  1  0.66865900  0.11656700  0.88877000  1
  O  O42  1  0.11782500  0.68462300  0.91038800  1
  O  O43  1  0.87708500  0.34281200  0.90050600  1
  O  O44  1  0.31587900  0.87579800  0.88368400  1
  O  O45  1  0.32809300  0.11186000  0.91964700  1
  O  O46  1  0.10701400  0.30003100  0.89952500  1
  O  O47  1  0.50685500  0.76296100  0.97689600  1
loop_
_geom_bond_atom_site_label_1
_geom_bond_atom_site_label_2
_geom_bond_distance
_geom_bond_site_symmetry_2
Na0 O42 2.254402 1_555
Na0 O31 2.305233 1_555
Na0 O44 2.306718 1_555
Na1 O46 2.216687 1_555
Na1 O32 2.350782 1_555
Na1 O45 2.359102 1_555
Na1 O36 2.378115 1_555
Al0 O44 1.747302 1_555
Al0 O10 1.765276 1_556
Al0 O47 1.773434 1_555
Al0 O3 1.777832 1_556
Al1 O28 1.757191 1_555
Al1 O23 1.779772 1_545
Al1 O20 1.780985 1_545
Al1 O24 1.781687 1_555
Al2 O29 1.722497 1_455
Al2 O33 1.752576 1_455
Al2 O31 1.764122 1_555
Al2 O25 1.800748 1_555
Al3 O30 1.715115 1_565
Al3 O29 1.721199 1_555
Al3 O35 1.770628 1_555
Al3 O26 1.827611 1_555
Al4 O30 1.715910 1_555
Al4 O32 1.741802 1_655
Al4 O34 1.746760 1_555
Al4 O27 1.799074 1_655
Al5 O32 1.747246 1_555
Al5 O31 1.747512 1_545
Al5 O36 1.750274 1_555
Al5 O28 1.784729 1_555
Al6 O37 1.698483 1_555
Al6 O33 1.732879 1_455
Al6 O39 1.790037 1_455
Al6 O42 1.793330 1_555
Al7 O37 1.711512 1_555
Al7 O34 1.742669 1_455
Al7 O46 1.768581 1_555
Al7 O43 1.811232 1_455
Al8 O38 1.722846 1_555
Al8 O35 1.745710 1_555
Al8 O40 1.791098 1_555
Al8 O41 1.818026 1_565
Al9 O38 1.718468 1_545
Al9 O36 1.729383 1_555
Al9 O45 1.778817 1_555
Al9 O44 1.784606 1_545
Al10 O46 1.750672 1_554
Al10 O14 1.758798 1_555
Al10 O4 1.773778 1_554
Al10 O6 1.779664 1_555
O0 Si10 1.623082 1_555
O0 Si0 1.642601 1_554
O1 Si1 1.644631 1_556
O1 Si10 1.667047 1_556
O2 Si1 1.640098 1_555
O2 Si11 1.642974 1_554
O3 Si2 1.639441 1_555
O3 Rb1 2.849929 1_555
O3 Rb0 3.077467 1_555
O4 Si2 1.616908 1_556
O4 Rb0 2.867418 1_556
O5 Si11 1.638459 1_555
O5 Si12 1.658526 1_556
O5 Rb0 3.524421 1_556
O6 Si12 1.612734 1_555
O6 Rb0 2.964241 1_555
O7 Si3 1.626477 1_555
O7 Si10 1.641675 1_555
O8 Si5 1.623069 1_555
O8 Si0 1.640933 1_554
O9 Si1 1.634418 1_555
O9 Si4 1.652951 1_555
O9 Rb8 3.015572 1_555
O10 Si6 1.618913 1_565
O10 Rb1 2.863275 1_555
O11 Si11 1.641684 1_554
O11 Si5 1.643916 1_545
O11 Rb8 3.520154 1_555
O12 Si3 1.636857 1_455
O12 Si2 1.666752 1_555
O12 Rb1 2.919041 1_555
O13 Si6 1.638421 1_555
O13 Si12 1.643763 1_555
O14 Si4 1.599207 1_455
O14 Rb8 3.318551 1_455
O15 Si4 1.654586 1_455
O15 Si3 1.654937 1_455
O16 Si5 1.652299 1_545
O16 Si6 1.680922 1_555
O17 Si3 1.611323 1_455
O17 Si7 1.659123 1_555
O17 Rb1 3.210010 1_555
O18 Si5 1.608602 1_555
O18 Si8 1.651609 1_555
O19 Si4 1.626912 1_555
O19 Si9 1.655276 1_655
O19 Rb8 3.132002 1_555
O20 Si6 1.614867 1_565
O20 Rb1 2.949791 1_555
O21 Si7 1.638195 1_655
O21 Si8 1.640348 1_555
O22 Si8 1.647804 1_545
O22 Si9 1.658185 1_655
O23 Si7 1.632671 1_555
O23 Rb1 2.736542 1_555
O24 Si9 1.634788 1_555
O25 Si7 1.623758 1_555
O25 Rb3 3.259855 1_455
O26 Si8 1.615805 1_555
O26 Rb2 2.800347 1_555
O27 Si9 1.620206 1_555
O27 Rb3 3.197048 1_455
O28 Rb7 2.699781 1_555
O28 Rb2 3.359063 1_545
O29 Rb4 2.646816 1_555
O30 Rb5 2.633398 1_555
O31 Rb6 2.837703 1_555
O32 Rb7 2.759384 1_555
O33 Rb4 2.986933 1_555
O33 Rb3 3.011370 1_555
O34 Rb3 2.835101 1_555
O34 Rb5 2.846729 1_555
O35 Rb2 2.805407 1_555
O35 Rb4 3.162152 1_555
O35 Rb5 3.295473 1_565
O36 Rb6 3.005772 1_545
O37 Rb3 2.873450 1_455
O38 Rb6 3.296230 1_555
O38 Rb2 3.339574 1_555
O39 Si10 1.604476 1_556
O39 Rb4 2.825388 1_555
O40 Si0 1.621338 1_555
O40 Rb4 2.808249 1_555
O41 Si11 1.616924 1_555
O41 Rb5 2.779185 1_555
O42 Si2 1.624121 1_556
O43 Si1 1.601373 1_556
O43 Rb5 2.880076 1_555
O43 Rb8 3.432166 1_556
O44 Rb6 2.805551 1_555
O45 Si12 1.622125 1_556
O47 Si0 1.633048 1_555
O47 Rb0 3.306227 1_556
