# generated using pymatgen
data_Li3MnPCO7
_symmetry_space_group_name_H-M   'P 1'
_cell_length_a   6.58420200
_cell_length_b   8.59484097
_cell_length_c   9.95353397
_cell_angle_alpha   94.54164881
_cell_angle_beta   90.31335864
_cell_angle_gamma   90.42636708
_symmetry_Int_Tables_number   1
_chemical_formula_structural   Li3MnPCO7
_chemical_formula_sum   'Li12 Mn4 P4 C4 O28'
_cell_volume   561.47760074
_cell_formula_units_Z   4
loop_
 _symmetry_equiv_pos_site_id
 _symmetry_equiv_pos_as_xyz
  1  'x, y, z'
loop_
 _atom_site_type_symbol
 _atom_site_label
 _atom_site_symmetry_multiplicity
 _atom_site_fract_x
 _atom_site_fract_y
 _atom_site_fract_z
 _atom_site_occupancy
  Li  Li0  1  0.74345200  0.90130300  0.38786900  1
  Li  Li1  1  0.74628800  0.90917300  0.87701600  1
  Li  Li2  1  0.51632900  0.72428800  0.13020500  1
  Li  Li3  1  0.98336100  0.72613400  0.61155900  1
  Li  Li4  1  0.51875600  0.72524300  0.61130800  1
  Li  Li5  1  0.25466600  0.65502000  0.40082400  1
  Li  Li6  1  0.46375800  0.27920500  0.37860300  1
  Li  Li7  1  0.03586100  0.27913500  0.37805300  1
  Li  Li8  1  0.46897700  0.27427300  0.87548100  1
  Li  Li9  1  0.03046100  0.27337500  0.87553800  1
  Li  Li10  1  0.25218000  0.09520400  0.11962100  1
  Li  Li11  1  0.25083200  0.09508800  0.61655200  1
  Mn  Mn0  1  0.99998300  0.73254600  0.14393400  1
  Mn  Mn1  1  0.25561600  0.65543600  0.87544600  1
  Mn  Mn2  1  0.74949900  0.34164700  0.11225700  1
  Mn  Mn3  1  0.75010700  0.33963300  0.60921700  1
  P  P0  1  0.74835800  0.59181000  0.36263100  1
  P  P1  1  0.75055300  0.58996600  0.86152500  1
  P  P2  1  0.25021400  0.40930800  0.14131700  1
  P  P3  1  0.25016800  0.41069700  0.63831300  1
  C  C0  1  0.24550400  0.96428400  0.35157200  1
  C  C1  1  0.24775100  0.96642400  0.85264900  1
  C  C2  1  0.74866100  0.03542300  0.14886800  1
  C  C3  1  0.75031900  0.03286800  0.64878300  1
  O  O0  1  0.25106400  0.92998500  0.47364100  1
  O  O1  1  0.74806100  0.88927500  0.18153400  1
  O  O2  1  0.24488400  0.93081900  0.97703200  1
  O  O3  1  0.23872700  0.85294200  0.25235800  1
  O  O4  1  0.75066500  0.88759800  0.67772500  1
  O  O5  1  0.24945100  0.85512800  0.75592800  1
  O  O6  1  0.93932900  0.68911500  0.40845900  1
  O  O7  1  0.56258600  0.68757300  0.41239900  1
  O  O8  1  0.93859400  0.68817800  0.91840900  1
  O  O9  1  0.56868800  0.68972100  0.91699900  1
  O  O10  1  0.25141500  0.57701400  0.08927300  1
  O  O11  1  0.74940500  0.57845200  0.20186800  1
  O  O12  1  0.25053900  0.57945800  0.59691400  1
  O  O13  1  0.75104000  0.57714200  0.70445400  1
  O  O14  1  0.25011300  0.42606900  0.29664200  1
  O  O15  1  0.74886400  0.42181500  0.40440600  1
  O  O16  1  0.25066900  0.41877800  0.79671100  1
  O  O17  1  0.74961200  0.42196900  0.90716500  1
  O  O18  1  0.06468200  0.31120100  0.08430800  1
  O  O19  1  0.43381700  0.31269100  0.08437600  1
  O  O20  1  0.43352500  0.31134300  0.58475800  1
  O  O21  1  0.06551700  0.31049900  0.58365300  1
  O  O22  1  0.74790000  0.14581300  0.24445800  1
  O  O23  1  0.24967500  0.10894900  0.31895600  1
  O  O24  1  0.75056400  0.14409700  0.74632200  1
  O  O25  1  0.74956300  0.06678100  0.02459700  1
  O  O26  1  0.24982400  0.11048500  0.82203900  1
  O  O27  1  0.74957300  0.06962600  0.52547200  1
loop_
_geom_bond_atom_site_label_1
_geom_bond_atom_site_label_2
_geom_bond_distance
_geom_bond_site_symmetry_2
Li0 O27 1.911864 1_565
Li0 O1 2.048573 1_555
Li0 O7 2.212214 1_555
Li0 O6 2.263312 1_555
Li1 O25 1.917644 1_566
Li1 O4 1.978013 1_555
Li1 O9 2.274751 1_555
Li1 O8 2.352609 1_555
Li1 O24 2.487062 1_565
Li2 O1 2.108167 1_555
Li2 O11 2.143177 1_555
Li2 O9 2.149494 1_554
Li2 O10 2.165254 1_555
Li2 O3 2.425549 1_555
Li3 O6 2.040185 1_555
Li3 O4 2.145910 1_555
Li3 O12 2.170676 1_655
Li3 O13 2.237956 1_555
Li3 O5 2.460653 1_655
Li4 O7 2.003504 1_555
Li4 O4 2.127652 1_555
Li4 O12 2.155259 1_555
Li4 O13 2.240379 1_555
Li4 O5 2.503058 1_555
Li5 O7 2.045931 1_555
Li5 O6 2.099925 1_455
Li5 O12 2.105482 1_555
Li5 O14 2.150366 1_555
Li5 O3 2.342569 1_555
Li5 O0 2.416760 1_555
Li6 O20 2.059619 1_555
Li6 O23 2.074423 1_555
Li6 O14 2.101089 1_555
Li6 O15 2.236698 1_555
Li6 O22 2.532611 1_555
Li7 O21 2.050907 1_555
Li7 O23 2.090668 1_555
Li7 O14 2.095125 1_555
Li7 O15 2.265475 1_455
Li7 O22 2.524842 1_455
Li8 O26 2.046838 1_555
Li8 O19 2.093693 1_556
Li8 O16 2.095664 1_555
Li8 O17 2.240629 1_555
Li8 O24 2.484172 1_555
Li9 O26 2.061585 1_555
Li9 O18 2.088383 1_556
Li9 O16 2.102463 1_555
Li9 O17 2.264388 1_455
Li9 O24 2.449969 1_455
Li10 O2 1.921844 1_544
Li10 O23 1.978408 1_555
Li10 O19 2.263328 1_555
Li10 O18 2.286207 1_555
Li10 O3 2.554055 1_545
Li11 O0 1.928073 1_545
Li11 O26 2.039165 1_555
Li11 O20 2.250735 1_555
Li11 O21 2.269148 1_555
Li11 O5 2.575108 1_545
Mn0 O3 2.118213 1_655
Mn0 O1 2.160126 1_555
Mn0 O10 2.179723 1_655
Mn0 O11 2.215277 1_555
Mn0 O8 2.280352 1_554
Mn1 O9 2.114074 1_555
Mn1 O16 2.121045 1_555
Mn1 O8 2.149066 1_455
Mn1 O5 2.164827 1_555
Mn1 O10 2.283075 1_556
Mn1 O2 2.500749 1_555
Mn2 O19 2.105760 1_555
Mn2 O18 2.110760 1_655
Mn2 O11 2.156513 1_555
Mn2 O17 2.206141 1_554
Mn2 O22 2.217046 1_555
Mn2 O25 2.452744 1_555
Mn3 O20 2.107323 1_555
Mn3 O21 2.107998 1_655
Mn3 O13 2.181525 1_555
Mn3 O15 2.209704 1_555
Mn3 O24 2.247225 1_555
Mn3 O27 2.402879 1_555
C0 O0 1.273150 1_555
C0 O23 1.309824 1_565
C0 O3 1.319929 1_555
C1 O26 1.298324 1_565
C1 O2 1.298824 1_555
C1 O5 1.302464 1_555
C2 O25 1.286677 1_555
C2 O22 1.289438 1_555
C2 O1 1.322190 1_545
C3 O27 1.291381 1_555
C3 O4 1.303427 1_545
C3 O24 1.307466 1_555
O6 P0 1.551193 1_555
O7 P0 1.541425 1_555
O8 P1 1.570698 1_555
O9 P1 1.556076 1_555
O10 P2 1.569773 1_555
O11 P0 1.595236 1_555
O12 P3 1.538926 1_555
O13 P1 1.558584 1_555
O14 P2 1.541334 1_555
O15 P0 1.550462 1_555
O16 P3 1.572629 1_555
O17 P1 1.547596 1_555
O18 P2 1.557745 1_555
O19 P2 1.555663 1_555
O20 P3 1.555996 1_555
O21 P3 1.555231 1_555
