# generated using pymatgen
data_Li3V3P8O29
_symmetry_space_group_name_H-M   'P 1'
_cell_length_a   9.73660800
_cell_length_b   9.74947606
_cell_length_c   14.38381276
_cell_angle_alpha   89.63138135
_cell_angle_beta   89.54963766
_cell_angle_gamma   60.06894869
_symmetry_Int_Tables_number   1
_chemical_formula_structural   Li3V3P8O29
_chemical_formula_sum   'Li6 V6 P16 O58'
_cell_volume   1183.25866044
_cell_formula_units_Z   2
loop_
 _symmetry_equiv_pos_site_id
 _symmetry_equiv_pos_as_xyz
  1  'x, y, z'
loop_
 _atom_site_type_symbol
 _atom_site_label
 _atom_site_symmetry_multiplicity
 _atom_site_fract_x
 _atom_site_fract_y
 _atom_site_fract_z
 _atom_site_occupancy
  Li  Li0  1  0.77003500  0.90737600  0.94703800  1
  Li  Li1  1  0.31970400  0.77250600  0.94844300  1
  Li  Li2  1  0.32478800  0.90981400  0.43675000  1
  Li  Li3  1  0.22338100  0.67991300  0.54620700  1
  Li  Li4  1  0.98166300  0.05018800  0.00642400  1
  Li  Li5  1  0.91933700  0.07428400  0.48571200  1
  V  V0  1  0.56656700  0.99877800  0.74440300  1
  V  V1  1  0.43651700  0.00290300  0.24905000  1
  V  V2  1  0.56946000  0.43216700  0.24856300  1
  V  V3  1  0.44163300  0.55705500  0.75329500  1
  V  V4  1  0.00000600  0.43549200  0.75234600  1
  V  V5  1  0.99905200  0.56042700  0.25318100  1
  P  P0  1  0.91987900  0.30190000  0.16007600  1
  P  P1  1  0.78134800  0.30593300  0.66129000  1
  P  P2  1  0.92060100  0.77456000  0.65885200  1
  P  P3  1  0.66518500  0.67069100  0.86583600  1
  P  P4  1  0.66148400  0.66755400  0.36780900  1
  P  P5  1  0.78081200  0.90778600  0.15954900  1
  P  P6  1  0.69608900  0.08458900  0.33810900  1
  P  P7  1  0.31237100  0.77764700  0.15915200  1
  P  P8  1  0.69739900  0.21513100  0.84273800  1
  P  P9  1  0.31774500  0.90595400  0.65512600  1
  P  P10  1  0.22201300  0.08348900  0.83389000  1
  P  P11  1  0.33116800  0.33646600  0.63554900  1
  P  P12  1  0.33367100  0.33634200  0.13454700  1
  P  P13  1  0.08306900  0.21691400  0.34312700  1
  P  P14  1  0.22464000  0.68471400  0.33713800  1
  P  P15  1  0.08437100  0.69273800  0.84195900  1
  O  O0  1  0.00762500  0.19049100  0.42572800  1
  O  O1  1  0.91492900  0.34678600  0.67178700  1
  O  O2  1  0.79045600  0.19782100  0.92689600  1
  O  O3  1  0.74312600  0.34488400  0.16946100  1
  O  O4  1  0.92497400  0.45737400  0.17289800  1
  O  O5  1  0.81124300  0.52317500  0.82182500  1
  O  O6  1  0.92141000  0.61623400  0.67284100  1
  O  O7  1  0.99499900  0.79077400  0.92328000  1
  O  O8  1  0.91700800  0.73500700  0.17160700  1
  O  O9  1  0.65970200  0.52314100  0.32051400  1
  O  O10  1  0.61915200  0.46316500  0.67720500  1
  O  O11  1  0.81031100  0.66405000  0.32173300  1
  O  O12  1  0.65616700  0.67846900  0.96891800  1
  O  O13  1  0.65620700  0.66702400  0.47092500  1
  O  O14  1  0.67088500  0.81722400  0.82379200  1
  O  O15  1  0.46724900  0.61870000  0.17046100  1
  O  O16  1  0.51377100  0.67211100  0.82372700  1
  O  O17  1  0.74561300  0.91260300  0.66736600  1
  O  O18  1  0.79745900  0.00501100  0.24364100  1
  O  O19  1  0.79435800  0.00673000  0.42072300  1
  O  O20  1  0.79109100  0.97660000  0.06872000  1
  O  O21  1  0.62056700  0.91098700  0.17529700  1
  O  O22  1  0.51065400  0.81858200  0.32835300  1
  O  O23  1  0.65603500  0.08031800  0.83471100  1
  O  O24  1  0.47671500  0.90431100  0.67389300  1
  O  O25  1  0.34331700  0.73552000  0.66710300  1
  O  O26  1  0.79890000  0.19837300  0.75060700  1
  O  O27  1  0.78934600  0.21968400  0.57615300  1
  O  O28  1  0.22398400  0.77124000  0.42381400  1
  O  O29  1  0.65391400  0.26058000  0.32987800  1
  O  O30  1  0.54109700  0.07774100  0.32816500  1
  O  O31  1  0.34682900  0.91622500  0.17243900  1
  O  O32  1  0.48084300  0.18542600  0.67685000  1
  O  O33  1  0.38268200  0.07945200  0.82247800  1
  O  O34  1  0.20962600  0.99330400  0.91423300  1
  O  O35  1  0.24870100  0.97199400  0.56289700  1
  O  O36  1  0.20034700  0.00849700  0.73779900  1
  O  O37  1  0.26198100  0.08481000  0.33754200  1
  O  O38  1  0.48104600  0.33651600  0.17711600  1
  O  O39  1  0.53960900  0.37795700  0.82894700  1
  O  O40  1  0.33946300  0.18474200  0.18124700  1
  O  O41  1  0.33149800  0.33393000  0.03183200  1
  O  O42  1  0.32774300  0.34996700  0.53292300  1
  O  O43  1  0.18747400  0.33315400  0.68188900  1
  O  O44  1  0.38201000  0.52919000  0.32432500  1
  O  O45  1  0.33129900  0.48417800  0.68176900  1
  O  O46  1  0.08558400  0.25796200  0.83218000  1
  O  O47  1  0.00454400  0.19489200  0.25048300  1
  O  O48  1  0.99595900  0.20738100  0.07593300  1
  O  O49  1  0.07364900  0.38009000  0.33224500  1
  O  O50  1  0.18660700  0.47727400  0.18310200  1
  O  O51  1  0.08105000  0.53618000  0.82904500  1
  O  O52  1  0.26024200  0.65595500  0.84037900  1
  O  O53  1  0.22694800  0.79729500  0.07009700  1
  O  O54  1  0.20024500  0.79548400  0.24749200  1
  O  O55  1  0.08479700  0.65207300  0.33507000  1
  O  O56  1  0.00344600  0.78649500  0.57488200  1
  O  O57  1  0.00692500  0.79500700  0.74882700  1
loop_
_geom_bond_atom_site_label_1
_geom_bond_atom_site_label_2
_geom_bond_distance
_geom_bond_site_symmetry_2
Li0 O7 1.927506 1_555
Li0 O20 1.928681 1_556
Li0 O23 2.193384 1_565
Li0 O14 2.396001 1_555
Li1 O53 1.923228 1_556
Li1 O34 1.927978 1_555
Li1 O52 2.176200 1_555
Li1 O16 2.422845 1_555
Li2 O35 1.937396 1_555
Li2 O28 2.037784 1_555
Li2 O37 2.064543 1_565
Li2 O22 2.205525 1_555
Li3 O56 1.899118 1_555
Li3 O28 1.969009 1_555
Li3 O25 2.314597 1_555
Li3 O45 2.555620 1_555
Li4 O48 1.898018 1_555
Li4 O2 2.045594 1_554
Li4 O34 2.393191 1_644
Li4 O20 2.460622 1_545
Li4 O53 2.598226 1_645
Li5 O27 1.873806 1_555
Li5 O19 1.901044 1_555
Li5 O0 1.927335 1_655
O0 P13 1.479445 1_555
O1 P1 1.547216 1_555
O1 V4 1.876088 1_655
O2 P8 1.475395 1_555
O3 P0 1.559797 1_555
O3 V2 1.850462 1_555
O4 P0 1.553343 1_555
O4 V5 1.901147 1_555
O5 P3 1.564646 1_555
O5 V4 1.876616 1_655
O6 P2 1.551493 1_555
O6 V4 1.908060 1_655
O7 P15 1.485725 1_655
O8 P5 1.548179 1_555
O8 V5 1.882578 1_555
O9 P4 1.575531 1_555
O9 V2 1.852994 1_555
O10 P1 1.574576 1_555
O10 V3 1.851359 1_555
O11 P4 1.573531 1_555
O11 V5 1.871278 1_555
O12 P3 1.484807 1_555
O13 P4 1.483752 1_555
O14 P3 1.573924 1_555
O14 V0 1.914902 1_555
O15 P7 1.539653 1_555
O15 V2 1.935188 1_555
O16 P3 1.591870 1_555
O16 V3 1.894732 1_555
O17 P2 1.561980 1_555
O17 V0 1.868912 1_555
O18 P5 1.599678 1_545
O18 P6 1.628124 1_555
O19 P6 1.478256 1_555
O20 P5 1.490185 1_555
O21 P5 1.559675 1_555
O21 V1 1.876061 1_565
O22 P4 1.578402 1_555
O22 V1 1.934847 1_565
O23 P8 1.560127 1_555
O23 V0 1.949435 1_545
O24 P9 1.565461 1_555
O24 V0 1.863399 1_555
O25 P9 1.561044 1_555
O25 V3 1.951811 1_555
O26 P8 1.606422 1_555
O26 P1 1.608310 1_555
O27 P1 1.469416 1_555
O28 P14 1.507993 1_555
O29 P6 1.556186 1_555
O29 V2 1.860088 1_555
O30 P6 1.551241 1_555
O30 V1 1.906435 1_555
O31 P7 1.559209 1_555
O31 V1 1.858643 1_565
O32 P11 1.583028 1_555
O32 V0 1.851080 1_545
O33 P10 1.552531 1_555
O33 V0 1.913077 1_545
O34 P10 1.487850 1_565
O35 P9 1.482381 1_555
O36 P9 1.604275 1_545
O36 P10 1.631229 1_555
O37 P13 1.568445 1_555
O37 V1 1.941807 1_555
O38 P12 1.565313 1_555
O38 V2 1.869275 1_555
O39 P8 1.576920 1_555
O39 V3 1.863510 1_555
O40 P12 1.594861 1_555
O40 V1 1.818657 1_555
O41 P12 1.478257 1_555
O42 P11 1.480324 1_555
O43 P11 1.559785 1_555
O43 V4 1.876386 1_555
O44 P14 1.536730 1_555
O44 V2 1.916396 1_555
O45 P11 1.590623 1_555
O45 V3 1.872390 1_555
O46 P10 1.550397 1_555
O46 V4 1.886520 1_555
O47 P13 1.609324 1_555
O47 P0 1.612504 1_455
O48 P0 1.477088 1_555
O49 P13 1.554099 1_555
O49 V5 1.903945 1_455
O50 P12 1.568218 1_555
O50 V5 1.874122 1_455
O51 P15 1.555093 1_555
O51 V4 1.898432 1_555
O52 P15 1.564633 1_555
O52 V3 1.974671 1_555
O53 P7 1.491276 1_555
O54 P14 1.617501 1_555
O54 P7 1.621197 1_555
O55 P14 1.545724 1_555
O55 V5 1.912102 1_455
O56 P2 1.483082 1_455
O57 P15 1.614210 1_555
O57 P2 1.615153 1_455
