# generated using pymatgen
data_Sr5Ta4O15
_symmetry_space_group_name_H-M   'P 1'
_cell_length_a   5.67053500
_cell_length_b   5.67053458
_cell_length_c   23.06224154
_cell_angle_alpha   90.00001753
_cell_angle_beta   89.99999065
_cell_angle_gamma   120.00001611
_symmetry_Int_Tables_number   1
_chemical_formula_structural   Sr5Ta4O15
_chemical_formula_sum   'Sr10 Ta8 O30'
_cell_volume   642.21451375
_cell_formula_units_Z   2
loop_
 _symmetry_equiv_pos_site_id
 _symmetry_equiv_pos_as_xyz
  1  'x, y, z'
loop_
 _atom_site_type_symbol
 _atom_site_label
 _atom_site_symmetry_multiplicity
 _atom_site_fract_x
 _atom_site_fract_y
 _atom_site_fract_z
 _atom_site_occupancy
  Sr  Sr0  1  0.33333344  0.66666604  0.63971851  1
  Sr  Sr1  1  0.33333333  0.66666660  0.97180643  1
  Sr  Sr2  1  0.00000086  0.00000078  0.74999249  1
  Sr  Sr3  1  -0.00000061  -0.00000061  0.25001113  1
  Sr  Sr4  1  0.33333329  0.66666653  0.47179394  1
  Sr  Sr5  1  0.33333327  0.66666694  0.13973173  1
  Sr  Sr6  1  0.66666690  0.33333367  0.52819355  1
  Sr  Sr7  1  0.66666626  0.33333293  0.86027060  1
  Sr  Sr8  1  0.66666625  0.33333326  0.02819724  1
  Sr  Sr9  1  0.66666668  0.33333355  0.36027942  1
  Ta  Ta0  1  0.33333334  0.66666706  0.80212165  1
  Ta  Ta1  1  0.00000032  -0.00000014  0.59208957  1
  Ta  Ta2  1  -0.00000041  0.00000001  0.90790990  1
  Ta  Ta3  1  0.00000002  -0.00000008  0.09210384  1
  Ta  Ta4  1  -0.00000025  0.00000001  0.40791444  1
  Ta  Ta5  1  0.33333302  0.66666654  0.30213915  1
  Ta  Ta6  1  0.66666724  0.33333315  0.69786431  1
  Ta  Ta7  1  0.66666663  0.33333310  0.19787700  1
  O  O0  1  0.10115480  0.76912926  0.05597540  1
  O  O1  1  0.12085396  0.79033841  0.84553567  1
  O  O2  1  -0.00000818  0.54066885  0.25000532  1
  O  O3  1  -0.00000943  0.45933143  0.74999217  1
  O  O4  1  0.20966689  0.87914878  0.34554359  1
  O  O5  1  0.23089261  0.89883243  0.55595549  1
  O  O6  1  0.10116742  0.33206019  0.55595564  1
  O  O7  1  0.12085133  0.33051869  0.34554369  1
  O  O8  1  0.20966169  0.33051618  0.84553572  1
  O  O9  1  0.23087090  0.33202515  0.05597542  1
  O  O10  1  0.33204627  0.23087848  0.44403350  1
  O  O11  1  0.66797469  0.89884517  0.05597545  1
  O  O12  1  0.66948401  0.87914613  0.84553581  1
  O  O13  1  0.33051184  0.20966163  0.65444931  1
  O  O14  1  0.45933120  0.45932323  0.25000532  1
  O  O15  1  0.54066898  0.54065900  0.74999221  1
  O  O16  1  0.66948143  0.79033301  0.34554371  1
  O  O17  1  0.33051403  0.12084983  0.15446877  1
  O  O18  1  0.33205610  0.10116218  0.94403680  1
  O  O19  1  0.66794044  0.76910736  0.55595557  1
  O  O20  1  0.76910541  0.66794390  0.94403682  1
  O  O21  1  0.79033583  0.66948580  0.15446882  1
  O  O22  1  0.45934117  0.00001005  0.74999227  1
  O  O23  1  0.54067695  0.00000799  0.25000529  1
  O  O24  1  0.87915080  0.66948814  0.65444916  1
  O  O25  1  0.89883176  0.66795334  0.44403347  1
  O  O26  1  0.76912180  0.10116850  0.44403356  1
  O  O27  1  0.79033826  0.12084890  0.65444948  1
  O  O28  1  0.87915024  0.20966399  0.15446881  1
  O  O29  1  0.89883723  0.23089366  0.94403686  1
loop_
_geom_bond_atom_site_label_1
_geom_bond_atom_site_label_2
_geom_bond_distance
_geom_bond_site_symmetry_2
O0 Ta3 1.867641 1_565
O0 Sr8 2.549303 1_455
O0 Sr5 2.562619 1_555
O0 Sr1 2.569801 1_554
O1 Ta0 1.947028 1_555
O1 Ta2 2.183375 1_565
O1 Sr7 2.605766 1_455
O1 Sr2 2.748276 1_565
O1 Sr7 3.105736 1_565
O2 Ta7 2.043995 1_455
O2 Ta5 2.044133 1_555
O2 Sr3 2.604628 1_565
O2 Sr9 3.033207 1_455
O2 Sr5 3.033240 1_555
O2 Sr3 3.065906 1_555
O3 Ta6 2.043976 1_455
O3 Ta0 2.044075 1_555
O3 Sr2 2.604680 1_555
O3 Sr0 3.033241 1_555
O3 Sr7 3.033284 1_455
O3 Sr2 3.065855 1_565
O4 Ta5 1.946908 1_555
O4 Ta4 2.183335 1_565
O4 Sr9 2.605744 1_565
O4 Sr3 2.748087 1_565
O4 Sr9 3.105762 1_455
O5 Ta1 1.867851 1_565
O5 Sr6 2.549184 1_565
O5 Sr0 2.562634 1_555
O5 Sr4 2.569566 1_555
O6 Ta1 1.867853 1_555
O6 Sr6 2.549183 1_455
O6 Sr0 2.562626 1_555
O6 Sr4 2.569569 1_555
O7 Ta5 1.946907 1_555
O7 Ta4 2.183335 1_555
O7 Sr9 2.605744 1_455
O7 Sr3 2.748091 1_555
O7 Sr9 3.105764 1_555
O8 Ta0 1.947029 1_555
O8 Ta2 2.183375 1_555
O8 Sr7 2.605764 1_555
O8 Sr2 2.748275 1_555
O8 Sr7 3.105739 1_455
O9 Ta3 1.867640 1_555
O9 Sr8 2.549298 1_555
O9 Sr5 2.562622 1_555
O9 Sr1 2.569803 1_554
O10 Ta4 1.867631 1_555
O10 Sr4 2.549213 1_555
O10 Sr9 2.562513 1_555
O10 Sr6 2.569579 1_555
O11 Ta3 1.867640 1_665
O11 Sr8 2.549304 1_565
O11 Sr5 2.562620 1_555
O11 Sr1 2.569802 1_554
O12 Ta0 1.947029 1_555
O12 Ta2 2.183372 1_665
O12 Sr7 2.605761 1_565
O12 Sr2 2.748281 1_665
O12 Sr7 3.105741 1_555
O13 Ta6 1.947061 1_555
O13 Ta1 2.183140 1_555
O13 Sr0 2.605737 1_555
O13 Sr2 2.748263 1_555
O13 Sr0 3.105743 1_545
O14 Ta7 2.043997 1_555
O14 Ta5 2.044134 1_555
O14 Sr3 2.604634 1_555
O14 Sr9 3.033208 1_555
O14 Sr5 3.033241 1_555
O14 Sr3 3.065900 1_665
O15 Ta6 2.043980 1_555
O15 Ta0 2.044078 1_555
O15 Sr2 2.604685 1_665
O15 Sr0 3.033242 1_555
O15 Sr7 3.033282 1_555
O15 Sr2 3.065849 1_555
O16 Ta5 1.946909 1_555
O16 Ta4 2.183333 1_665
O16 Sr9 2.605743 1_555
O16 Sr3 2.748088 1_665
O16 Sr9 3.105764 1_565
O17 Ta7 1.946969 1_555
O17 Ta3 2.183229 1_555
O17 Sr5 2.605750 1_545
O17 Sr3 2.748259 1_555
O17 Sr5 3.105765 1_555
O18 Ta2 1.867767 1_555
O18 Sr1 2.549209 1_545
O18 Sr7 2.562700 1_555
O18 Sr8 2.569561 1_556
O19 Ta1 1.867851 1_665
O19 Sr6 2.549180 1_555
O19 Sr0 2.562631 1_555
O19 Sr4 2.569570 1_555
O20 Ta2 1.867766 1_665
O20 Sr1 2.549205 1_555
O20 Sr7 2.562703 1_555
O20 Sr8 2.569563 1_556
O21 Ta7 1.946970 1_555
O21 Ta3 2.183230 1_665
O21 Sr5 2.605754 1_555
O21 Sr3 2.748254 1_665
O21 Sr5 3.105762 1_655
O22 Ta6 2.043977 1_555
O22 Ta0 2.044074 1_545
O22 Sr2 2.604679 1_555
O22 Sr0 3.033246 1_545
O22 Sr7 3.033278 1_555
O22 Sr2 3.065856 1_655
O23 Ta7 2.043995 1_555
O23 Ta5 2.044135 1_545
O23 Sr3 2.604628 1_655
O23 Sr9 3.033208 1_555
O23 Sr5 3.033238 1_545
O23 Sr3 3.065907 1_555
O24 Ta6 1.947061 1_555
O24 Ta1 2.183139 1_665
O24 Sr0 2.605738 1_655
O24 Sr2 2.748270 1_665
O24 Sr0 3.105742 1_555
O25 Ta4 1.867632 1_665
O25 Sr4 2.549215 1_655
O25 Sr9 2.562510 1_555
O25 Sr6 2.569576 1_555
O26 Ta4 1.867631 1_655
O26 Sr4 2.549216 1_545
O26 Sr9 2.562514 1_555
O26 Sr6 2.569576 1_555
O27 Ta6 1.947059 1_555
O27 Ta1 2.183142 1_655
O27 Sr0 2.605739 1_545
O27 Sr2 2.748260 1_655
O27 Sr0 3.105741 1_655
O28 Ta7 1.946970 1_555
O28 Ta3 2.183229 1_655
O28 Sr5 2.605752 1_655
O28 Sr3 2.748256 1_655
O28 Sr5 3.105762 1_545
O29 Ta2 1.867765 1_655
O29 Sr1 2.549210 1_655
O29 Sr7 2.562702 1_555
O29 Sr8 2.569561 1_556
