# generated using pymatgen
data_Li(CoO2)2
_symmetry_space_group_name_H-M   'P 1'
_cell_length_a   4.80098445
_cell_length_b   5.58748772
_cell_length_c   9.85946244
_cell_angle_alpha   90.00000000
_cell_angle_beta   90.00000000
_cell_angle_gamma   90.00000000
_symmetry_Int_Tables_number   1
_chemical_formula_structural   Li(CoO2)2
_chemical_formula_sum   'Li4 Co8 O16'
_cell_volume   264.48443447
_cell_formula_units_Z   4
loop_
 _symmetry_equiv_pos_site_id
 _symmetry_equiv_pos_as_xyz
  1  'x, y, z'
loop_
 _atom_site_type_symbol
 _atom_site_label
 _atom_site_symmetry_multiplicity
 _atom_site_fract_x
 _atom_site_fract_y
 _atom_site_fract_z
 _atom_site_occupancy
  Li  Li0  1  0.65495139  0.00000000  0.75000000  1
  Li  Li1  1  0.34504861  0.00000000  0.25000000  1
  Li  Li2  1  0.15495139  0.50000000  0.75000000  1
  Li  Li3  1  0.84504861  0.50000000  0.25000000  1
  Co  Co0  1  0.74651311  0.62523822  0.50412580  1
  Co  Co1  1  0.25348689  0.62523822  0.00412580  1
  Co  Co2  1  0.24651311  0.87476178  0.50412580  1
  Co  Co3  1  0.75348689  0.87476178  0.00412580  1
  Co  Co4  1  0.75348689  0.12523822  0.49587420  1
  Co  Co5  1  0.24651311  0.12523822  0.99587420  1
  Co  Co6  1  0.74651311  0.37476178  0.99587420  1
  Co  Co7  1  0.25348689  0.37476178  0.49587420  1
  O  O0  1  0.92303005  0.62580327  0.90328454  1
  O  O1  1  0.40832004  0.62289506  0.60064348  1
  O  O2  1  0.07696995  0.62580327  0.40328454  1
  O  O3  1  0.59167996  0.62289506  0.10064348  1
  O  O4  1  0.90832004  0.87710494  0.60064348  1
  O  O5  1  0.42303005  0.87419673  0.90328454  1
  O  O6  1  0.57696995  0.87419673  0.40328454  1
  O  O7  1  0.09167996  0.87710494  0.10064348  1
  O  O8  1  0.09167996  0.12289506  0.39935652  1
  O  O9  1  0.57696995  0.12580327  0.09671546  1
  O  O10  1  0.90832004  0.12289506  0.89935652  1
  O  O11  1  0.42303005  0.12580327  0.59671546  1
  O  O12  1  0.07696995  0.37419673  0.09671546  1
  O  O13  1  0.40832004  0.37710494  0.89935652  1
  O  O14  1  0.92303005  0.37419673  0.59671546  1
  O  O15  1  0.59167996  0.37710494  0.39935652  1
loop_
_geom_bond_atom_site_label_1
_geom_bond_atom_site_label_2
_geom_bond_distance
_geom_bond_site_symmetry_2
Li0 O11 2.004473 1_555
Li0 O5 2.004473 1_545
Li0 O4 2.029698 1_545
Li0 O10 2.029698 1_555
Li1 O6 2.004473 1_545
Li1 O9 2.004473 1_555
Li1 O7 2.029698 1_545
Li1 O8 2.029698 1_555
Li2 O0 2.004473 1_455
Li2 O14 2.004473 1_455
Li2 O13 2.029698 1_555
Li2 O1 2.029698 1_555
Li3 O12 2.004473 1_655
Li3 O2 2.004473 1_655
Li3 O15 2.029698 1_555
Li3 O3 2.029698 1_555
Co0 O4 1.868030 1_555
Co0 O2 1.872315 1_655
Co0 O14 1.875921 1_555
Co0 O15 1.881971 1_555
Co0 O1 1.882022 1_555
Co0 O6 1.893699 1_555
Co1 O7 1.868030 1_555
Co1 O0 1.872315 1_454
Co1 O12 1.875921 1_555
Co1 O13 1.881971 1_554
Co1 O3 1.882022 1_555
Co1 O5 1.893699 1_554
Co2 O1 1.868030 1_555
Co2 O6 1.872315 1_555
Co2 O11 1.875921 1_565
Co2 O8 1.881971 1_565
Co2 O4 1.882022 1_455
Co2 O2 1.893699 1_555
Co3 O3 1.868030 1_555
Co3 O5 1.872315 1_554
Co3 O9 1.875921 1_565
Co3 O10 1.881971 1_564
Co3 O7 1.882022 1_655
Co3 O0 1.893699 1_554
Co4 O15 1.868030 1_555
Co4 O11 1.872315 1_555
Co4 O6 1.875921 1_545
Co4 O4 1.881971 1_545
Co4 O8 1.882022 1_655
Co4 O14 1.893699 1_555
Co5 O13 1.868030 1_555
Co5 O9 1.872315 1_556
Co5 O5 1.875921 1_545
Co5 O7 1.881971 1_546
Co5 O10 1.882022 1_455
Co5 O12 1.893699 1_556
Co6 O10 1.868030 1_555
Co6 O12 1.872315 1_656
Co6 O0 1.875921 1_555
Co6 O3 1.881971 1_556
Co6 O13 1.882022 1_555
Co6 O9 1.893699 1_556
Co7 O8 1.868030 1_555
Co7 O14 1.872315 1_455
Co7 O2 1.875921 1_555
Co7 O1 1.881971 1_555
Co7 O15 1.882022 1_555
Co7 O11 1.893699 1_555
