# generated using pymatgen
data_Mn2VO4
_symmetry_space_group_name_H-M   'P 1'
_cell_length_a   6.18119234
_cell_length_b   6.18119234
_cell_length_c   6.18119169
_cell_angle_alpha   59.60175848
_cell_angle_beta   59.60175848
_cell_angle_gamma   59.60175955
_symmetry_Int_Tables_number   1
_chemical_formula_structural   Mn2VO4
_chemical_formula_sum   'Mn4 V2 O8'
_cell_volume   165.48278866
_cell_formula_units_Z   2
loop_
 _symmetry_equiv_pos_site_id
 _symmetry_equiv_pos_as_xyz
  1  'x, y, z'
loop_
 _atom_site_type_symbol
 _atom_site_label
 _atom_site_symmetry_multiplicity
 _atom_site_fract_x
 _atom_site_fract_y
 _atom_site_fract_z
 _atom_site_occupancy
  Mn  Mn0  1  0.37670900  0.87333700  0.37670900  1
  Mn  Mn1  1  0.74509300  0.74509300  0.74509300  1
  Mn  Mn2  1  0.37670900  0.37670900  0.87333700  1
  Mn  Mn3  1  0.87333700  0.37670900  0.37670900  1
  V  V0  1  0.37872300  0.37872300  0.37872300  1
  V  V1  1  0.00579400  0.00579400  0.00579400  1
  O  O0  1  0.15373100  0.60100200  0.60100200  1
  O  O1  1  0.60100200  0.60100200  0.15373100  1
  O  O2  1  0.13316800  0.13316800  0.13316800  1
  O  O3  1  0.13852300  0.13852300  0.61571600  1
  O  O4  1  0.13852300  0.61571600  0.13852300  1
  O  O5  1  0.61571600  0.13852300  0.13852300  1
  O  O6  1  0.60100200  0.15373100  0.60100200  1
  O  O7  1  0.61197800  0.61197800  0.61197800  1
loop_
_geom_bond_atom_site_label_1
_geom_bond_atom_site_label_2
_geom_bond_distance
_geom_bond_site_symmetry_2
Mn0 O7 2.055385 1_555
Mn0 O2 2.124046 1_565
Mn0 O1 2.169741 1_555
Mn0 O0 2.169741 1_555
Mn0 O3 2.200963 1_565
Mn0 O5 2.200963 1_565
Mn1 O7 2.021508 1_555
Mn1 O1 2.053274 1_556
Mn1 O0 2.053274 1_655
Mn1 O6 2.053274 1_565
Mn2 O7 2.055385 1_555
Mn2 O2 2.124046 1_556
Mn2 O6 2.169741 1_555
Mn2 O0 2.169741 1_555
Mn2 O4 2.200962 1_556
Mn2 O5 2.200962 1_556
Mn3 O7 2.055385 1_555
Mn3 O2 2.124046 1_655
Mn3 O1 2.169741 1_555
Mn3 O6 2.169741 1_555
Mn3 O3 2.200963 1_655
Mn3 O4 2.200963 1_655
O0 V0 1.937142 1_555
O1 V0 1.937142 1_555
O2 V1 1.934324 1_555
O3 V1 1.958863 1_556
O3 V0 2.093661 1_555
O4 V1 1.958863 1_565
O4 V0 2.093661 1_555
O5 V1 1.958863 1_655
O5 V0 2.093661 1_555
O6 V0 1.937142 1_555
