# generated using pymatgen
data_Li2NiBO4
_symmetry_space_group_name_H-M   'P 1'
_cell_length_a   4.75154900
_cell_length_b   6.10060000
_cell_length_c   10.05795700
_cell_angle_alpha   90.00000000
_cell_angle_beta   90.00000000
_cell_angle_gamma   90.00000000
_symmetry_Int_Tables_number   1
_chemical_formula_structural   Li2NiBO4
_chemical_formula_sum   'Li8 Ni4 B4 O16'
_cell_volume   291.55301523
_cell_formula_units_Z   4
loop_
 _symmetry_equiv_pos_site_id
 _symmetry_equiv_pos_as_xyz
  1  'x, y, z'
loop_
 _atom_site_type_symbol
 _atom_site_label
 _atom_site_symmetry_multiplicity
 _atom_site_fract_x
 _atom_site_fract_y
 _atom_site_fract_z
 _atom_site_occupancy
  Li  Li0  1  0.75784600  0.50591200  0.65968300  1
  Li  Li1  1  0.75437200  0.73896200  0.42317700  1
  Li  Li2  1  0.75437200  0.76103800  0.92317700  1
  Li  Li3  1  0.75784600  0.99408800  0.15968300  1
  Li  Li4  1  0.25784600  0.00591200  0.84031700  1
  Li  Li5  1  0.25437200  0.23896200  0.07682300  1
  Li  Li6  1  0.25437200  0.26103800  0.57682300  1
  Li  Li7  1  0.25784600  0.49408800  0.34031700  1
  Ni  Ni0  1  0.25993200  0.51572400  0.83830400  1
  Ni  Ni1  1  0.25993200  0.98427600  0.33830400  1
  Ni  Ni2  1  0.75993200  0.01572400  0.66169600  1
  Ni  Ni3  1  0.75993200  0.48427600  0.16169600  1
  B  B0  1  0.26467600  0.73937400  0.09139600  1
  B  B1  1  0.26467600  0.76062600  0.59139600  1
  B  B2  1  0.76467600  0.23937400  0.40860400  1
  B  B3  1  0.76467600  0.26062600  0.90860400  1
  O  O0  1  0.15028900  0.53905100  0.15636000  1
  O  O1  1  0.16573800  0.55601300  0.65863300  1
  O  O2  1  0.17319200  0.74913900  0.44887200  1
  O  O3  1  0.57710300  0.73191600  0.09950300  1
  O  O4  1  0.57710300  0.76808400  0.59950300  1
  O  O5  1  0.17319200  0.75086100  0.94887200  1
  O  O6  1  0.16573800  0.94398700  0.15863300  1
  O  O7  1  0.15028900  0.96094900  0.65636000  1
  O  O8  1  0.65028900  0.03905100  0.34364000  1
  O  O9  1  0.66573800  0.05601300  0.84136700  1
  O  O10  1  0.67319200  0.24913900  0.05112800  1
  O  O11  1  0.07710300  0.23191600  0.40049700  1
  O  O12  1  0.07710300  0.26808400  0.90049700  1
  O  O13  1  0.67319200  0.25086100  0.55112800  1
  O  O14  1  0.66573800  0.44398700  0.34136700  1
  O  O15  1  0.65028900  0.46094900  0.84364000  1
loop_
_geom_bond_atom_site_label_1
_geom_bond_atom_site_label_2
_geom_bond_distance
_geom_bond_site_symmetry_2
Li0 O4 1.913643 1_555
Li0 O15 1.939016 1_555
Li0 O13 1.942920 1_555
Li0 O1 1.962100 1_655
Li1 O4 1.971361 1_555
Li1 O2 2.007715 1_655
Li1 O14 2.023048 1_555
Li1 O8 2.058179 1_565
Li2 O3 1.971361 1_556
Li2 O5 2.007715 1_655
Li2 O9 2.023048 1_565
Li2 O15 2.058179 1_555
Li3 O3 1.913643 1_555
Li3 O8 1.939016 1_565
Li3 O10 1.942920 1_565
Li3 O6 1.962100 1_655
Li4 O12 1.913643 1_555
Li4 O7 1.939016 1_545
Li4 O5 1.942920 1_545
Li4 O9 1.962100 1_555
Li5 O12 1.971361 1_554
Li5 O10 2.007715 1_555
Li5 O6 2.023048 1_545
Li5 O0 2.058179 1_555
Li6 O11 1.971361 1_555
Li6 O13 2.007715 1_555
Li6 O1 2.023048 1_555
Li6 O7 2.058179 1_545
Li7 O11 1.913643 1_555
Li7 O0 1.939016 1_555
Li7 O2 1.942920 1_555
Li7 O14 1.962100 1_555
Ni0 O12 1.851578 1_555
Ni0 O5 1.861271 1_555
Ni0 O1 1.877877 1_555
Ni0 O15 1.885425 1_555
Ni1 O11 1.851578 1_565
Ni1 O2 1.861271 1_555
Ni1 O6 1.877877 1_555
Ni1 O8 1.885425 1_565
Ni2 O4 1.851578 1_545
Ni2 O13 1.861271 1_555
Ni2 O9 1.877877 1_555
Ni2 O7 1.885425 1_645
Ni3 O3 1.851578 1_555
Ni3 O10 1.861271 1_555
Ni3 O14 1.877877 1_555
Ni3 O0 1.885425 1_655
B0 O3 1.487446 1_555
B0 O0 1.488574 1_555
B0 O6 1.495492 1_555
B0 O5 1.499597 1_554
B1 O4 1.487446 1_555
B1 O7 1.488574 1_555
B1 O1 1.495492 1_555
B1 O2 1.499597 1_555
B2 O11 1.487446 1_655
B2 O8 1.488574 1_555
B2 O14 1.495492 1_555
B2 O13 1.499597 1_555
B3 O12 1.487446 1_655
B3 O15 1.488574 1_555
B3 O9 1.495492 1_555
B3 O10 1.499597 1_556
