# generated using pymatgen
data_Li4Ti2Fe3Ni3O16
_symmetry_space_group_name_H-M   'P 1'
_cell_length_a   5.86988929
_cell_length_b   5.86988929
_cell_length_c   9.51135940
_cell_angle_alpha   89.07468474
_cell_angle_beta   89.07468474
_cell_angle_gamma   59.30820131
_symmetry_Int_Tables_number   1
_chemical_formula_structural   Li4Ti2Fe3Ni3O16
_chemical_formula_sum   'Li4 Ti2 Fe3 Ni3 O16'
_cell_volume   281.76572380
_cell_formula_units_Z   1
loop_
 _symmetry_equiv_pos_site_id
 _symmetry_equiv_pos_as_xyz
  1  'x, y, z'
loop_
 _atom_site_type_symbol
 _atom_site_label
 _atom_site_symmetry_multiplicity
 _atom_site_fract_x
 _atom_site_fract_y
 _atom_site_fract_z
 _atom_site_occupancy
  Li  Li0  1  0.66169400  0.66169400  0.10658000  1
  Li  Li1  1  0.99640200  0.99640200  0.00697700  1
  Li  Li2  1  0.99748900  0.99748900  0.50400700  1
  Li  Li3  1  0.33740700  0.33740700  0.60026700  1
  Ti  Ti0  1  0.66897200  0.66897200  0.50448600  1
  Ti  Ti1  1  0.32930800  0.32930800  0.00353600  1
  Fe  Fe0  1  0.34108500  0.83179900  0.78328700  1
  Fe  Fe1  1  0.83179900  0.34108500  0.78328700  1
  Fe  Fe2  1  0.17085400  0.17085400  0.28323800  1
  Ni  Ni0  1  0.82953300  0.82953300  0.78780000  1
  Ni  Ni1  1  0.16716600  0.66056800  0.28679500  1
  Ni  Ni2  1  0.66056800  0.16716600  0.28679500  1
  O  O0  1  0.33942400  0.84786900  0.40674800  1
  O  O1  1  0.52088100  0.52088100  0.65429000  1
  O  O2  1  0.67082500  0.67082500  0.89365900  1
  O  O3  1  0.99361300  0.99361300  0.69447200  1
  O  O4  1  0.99530700  0.99530700  0.19622900  1
  O  O5  1  0.84786900  0.33942400  0.40674800  1
  O  O6  1  0.52668700  0.96269900  0.65567400  1
  O  O7  1  0.96269900  0.52668700  0.65567400  1
  O  O8  1  0.16748200  0.16748200  0.90359900  1
  O  O9  1  0.83812000  0.83812000  0.40208900  1
  O  O10  1  0.03405800  0.47020900  0.15690800  1
  O  O11  1  0.47020900  0.03405800  0.15690800  1
  O  O12  1  0.33866200  0.33866200  0.38941600  1
  O  O13  1  0.16616600  0.66615500  0.90891000  1
  O  O14  1  0.47589700  0.47589700  0.16428700  1
  O  O15  1  0.66615500  0.16616600  0.90891000  1
loop_
_geom_bond_atom_site_label_1
_geom_bond_atom_site_label_2
_geom_bond_distance
_geom_bond_site_symmetry_2
Li0 O10 1.943813 1_655
Li0 O11 1.943813 1_565
Li0 O14 1.963583 1_555
Li0 O2 2.025580 1_554
Li1 O4 1.799871 1_555
Li1 O15 1.917619 1_564
Li1 O13 1.917619 1_654
Li1 O8 1.987315 1_664
Li2 O3 1.811278 1_555
Li2 O9 1.908368 1_555
Li2 O0 1.955092 1_655
Li2 O5 1.955092 1_565
Li3 O1 1.950269 1_555
Li3 O6 1.958758 1_545
Li3 O7 1.958758 1_455
Li3 O12 2.005283 1_555
Fe0 O3 1.956504 1_455
Fe0 O2 1.976811 1_555
Fe0 O1 2.003562 1_555
Fe0 O6 2.008056 1_555
Fe0 O8 2.053260 1_565
Fe0 O13 2.090277 1_555
Fe1 O3 1.956504 1_545
Fe1 O2 1.976811 1_555
Fe1 O1 2.003562 1_555
Fe1 O7 2.008056 1_555
Fe1 O8 2.053260 1_655
Fe1 O15 2.090277 1_555
Fe2 O11 1.923230 1_555
Fe2 O10 1.923230 1_555
Fe2 O4 1.986837 1_445
Fe2 O0 2.001015 1_545
Fe2 O5 2.001015 1_455
Fe2 O12 2.003779 1_555
Ni0 O3 1.880144 1_555
Ni0 O2 1.890739 1_555
Ni0 O6 1.993071 1_555
Ni0 O7 1.993071 1_555
Ni0 O13 2.062652 1_655
Ni0 O15 2.062652 1_565
Ni1 O12 1.888615 1_555
Ni1 O4 1.889543 1_455
Ni1 O14 1.945284 1_555
Ni1 O9 1.983143 1_455
Ni1 O10 2.086204 1_555
Ni1 O0 2.178408 1_555
Ni2 O12 1.888615 1_555
Ni2 O4 1.889543 1_545
Ni2 O14 1.945284 1_555
Ni2 O9 1.983143 1_545
Ni2 O11 2.086204 1_555
Ni2 O5 2.178408 1_555
O0 Ti0 1.913569 1_555
O1 Ti0 2.057386 1_555
O5 Ti0 1.913569 1_555
O6 Ti0 2.075900 1_555
O7 Ti0 2.075900 1_555
O8 Ti1 1.920308 1_556
O9 Ti0 1.965721 1_555
O10 Ti1 2.075985 1_555
O11 Ti1 2.075985 1_555
O13 Ti1 1.916782 1_556
O14 Ti1 2.158544 1_555
O15 Ti1 1.916782 1_556
