# generated using pymatgen
data_LaAlO3
_symmetry_space_group_name_H-M   'P 1'
_cell_length_a   7.93888800
_cell_length_b   7.36760500
_cell_length_c   16.24774769
_cell_angle_alpha   82.78194948
_cell_angle_beta   90.00000000
_cell_angle_gamma   90.00000000
_symmetry_Int_Tables_number   1
_chemical_formula_structural   LaAlO3
_chemical_formula_sum   'La12 Al12 O36'
_cell_volume   942.80907471
_cell_formula_units_Z   12
loop_
 _symmetry_equiv_pos_site_id
 _symmetry_equiv_pos_as_xyz
  1  'x, y, z'
loop_
 _atom_site_type_symbol
 _atom_site_label
 _atom_site_symmetry_multiplicity
 _atom_site_fract_x
 _atom_site_fract_y
 _atom_site_fract_z
 _atom_site_occupancy
  La  La0  1  0.12580300  0.26411900  0.90336600  1
  La  La1  1  0.62588700  0.26437400  0.90462800  1
  La  La2  1  0.37540000  0.96869800  0.75686000  1
  La  La3  1  0.87540000  0.03130200  0.74314000  1
  La  La4  1  0.12588700  0.73562600  0.59537200  1
  La  La5  1  0.62580300  0.73588100  0.59663400  1
  La  La6  1  0.37419700  0.26411900  0.40336600  1
  La  La7  1  0.87411300  0.26437400  0.40462800  1
  La  La8  1  0.12460000  0.96869800  0.25686000  1
  La  La9  1  0.62460000  0.03130200  0.24314000  1
  La  La10  1  0.37411300  0.73562600  0.09537200  1
  La  La11  1  0.87419700  0.73588100  0.09663400  1
  Al  Al0  1  0.59458600  0.76382600  0.90672200  1
  Al  Al1  1  0.15550800  0.76477700  0.90665400  1
  Al  Al2  1  0.87581800  0.55597400  0.79862900  1
  Al  Al3  1  0.37581800  0.44402600  0.70137100  1
  Al  Al4  1  0.65550800  0.23522300  0.59334600  1
  Al  Al5  1  0.09458600  0.23617400  0.59327800  1
  Al  Al6  1  0.90541400  0.76382600  0.40672200  1
  Al  Al7  1  0.34449200  0.76477700  0.40665400  1
  Al  Al8  1  0.62418200  0.55597400  0.29862900  1
  Al  Al9  1  0.12418200  0.44402600  0.20137100  1
  Al  Al10  1  0.84449200  0.23522300  0.09334600  1
  Al  Al11  1  0.40541400  0.23617400  0.09327800  1
  O  O0  1  0.88123800  0.22663600  0.98714100  1
  O  O1  1  0.37034200  0.23503700  0.98613100  1
  O  O2  1  0.37526700  0.74523700  0.89153500  1
  O  O3  1  0.64379500  0.97829900  0.84583000  1
  O  O4  1  0.69559000  0.58433300  0.86281800  1
  O  O5  1  0.10809300  0.97782400  0.84377600  1
  O  O6  1  0.05551200  0.58452400  0.86271700  1
  O  O7  1  0.87367300  0.31206600  0.80259200  1
  O  O8  1  0.37708200  0.28884500  0.79466400  1
  O  O9  1  0.87708200  0.71115500  0.70533600  1
  O  O10  1  0.37367300  0.68793400  0.69740800  1
  O  O11  1  0.55551200  0.41547600  0.63728300  1
  O  O12  1  0.60809300  0.02217600  0.65622400  1
  O  O13  1  0.19559000  0.41566700  0.63718200  1
  O  O14  1  0.14379500  0.02170100  0.65417000  1
  O  O15  1  0.87526700  0.25476300  0.60846500  1
  O  O16  1  0.87034200  0.76496300  0.51386900  1
  O  O17  1  0.38123800  0.77336400  0.51285900  1
  O  O18  1  0.61876200  0.22663600  0.48714100  1
  O  O19  1  0.12965800  0.23503700  0.48613100  1
  O  O20  1  0.12473300  0.74523700  0.39153500  1
  O  O21  1  0.85620500  0.97829900  0.34583000  1
  O  O22  1  0.80441000  0.58433300  0.36281800  1
  O  O23  1  0.39190700  0.97782400  0.34377600  1
  O  O24  1  0.44448800  0.58452400  0.36271700  1
  O  O25  1  0.62632700  0.31206600  0.30259200  1
  O  O26  1  0.12291800  0.28884500  0.29466400  1
  O  O27  1  0.62291800  0.71115500  0.20533600  1
  O  O28  1  0.12632700  0.68793400  0.19740800  1
  O  O29  1  0.94448800  0.41547600  0.13728300  1
  O  O30  1  0.89190700  0.02217600  0.15622400  1
  O  O31  1  0.30441000  0.41566700  0.13718200  1
  O  O32  1  0.35620500  0.02170100  0.15417000  1
  O  O33  1  0.62473300  0.25476300  0.10846500  1
  O  O34  1  0.62965800  0.76496300  0.01386900  1
  O  O35  1  0.11876200  0.77336400  0.01285900  1
loop_
_geom_bond_atom_site_label_1
_geom_bond_atom_site_label_2
_geom_bond_distance
_geom_bond_site_symmetry_2
La0 O1 2.356003 1_555
La0 O0 2.367331 1_455
La0 O5 2.433016 1_545
La0 O6 2.434817 1_555
La0 O7 2.582032 1_455
La0 O8 2.655409 1_555
La1 O1 2.417479 1_555
La1 O3 2.425121 1_545
La1 O0 2.427042 1_555
La1 O4 2.433574 1_555
La1 O7 2.568117 1_555
La1 O8 2.654297 1_555
La2 O10 2.390464 1_555
La2 O12 2.465671 1_565
La2 O14 2.480597 1_565
La2 O8 2.510990 1_565
La2 O5 2.554614 1_555
La2 O2 2.567747 1_555
La2 O3 2.580790 1_555
La3 O7 2.390464 1_555
La3 O5 2.465671 1_645
La3 O3 2.480597 1_545
La3 O9 2.510990 1_545
La3 O12 2.554614 1_555
La3 O15 2.567747 1_555
La3 O14 2.580790 1_655
La4 O16 2.417479 1_455
La4 O14 2.425121 1_565
La4 O17 2.427042 1_555
La4 O13 2.433574 1_555
La4 O10 2.568117 1_555
La4 O9 2.654297 1_455
La5 O16 2.356003 1_555
La5 O17 2.367331 1_555
La5 O12 2.433016 1_565
La5 O11 2.434817 1_555
La5 O10 2.582032 1_555
La5 O9 2.655409 1_555
La6 O19 2.356003 1_555
La6 O18 2.367331 1_555
La6 O23 2.433016 1_545
La6 O24 2.434817 1_555
La6 O25 2.582032 1_555
La6 O26 2.655409 1_555
La7 O19 2.417479 1_655
La7 O21 2.425121 1_545
La7 O18 2.427042 1_555
La7 O22 2.433574 1_555
La7 O25 2.568117 1_555
La7 O26 2.654297 1_655
La8 O28 2.390464 1_555
La8 O30 2.465671 1_465
La8 O32 2.480597 1_565
La8 O26 2.510990 1_565
La8 O23 2.554614 1_555
La8 O20 2.567747 1_555
La8 O21 2.580790 1_455
La9 O25 2.390464 1_555
La9 O23 2.465671 1_545
La9 O21 2.480597 1_545
La9 O27 2.510990 1_545
La9 O30 2.554614 1_555
La9 O33 2.567747 1_555
La9 O32 2.580790 1_555
La10 O34 2.417479 1_555
La10 O32 2.425121 1_565
La10 O35 2.427042 1_555
La10 O31 2.433574 1_555
La10 O28 2.568117 1_555
La10 O27 2.654297 1_555
La11 O34 2.356003 1_555
La11 O35 2.367331 1_655
La11 O30 2.433016 1_565
La11 O29 2.434817 1_555
La11 O28 2.582032 1_655
La11 O27 2.655409 1_555
Al0 O34 1.764081 1_556
Al0 O2 1.766278 1_555
Al0 O4 1.771361 1_555
Al0 O3 1.798743 1_555
Al1 O35 1.759036 1_556
Al1 O2 1.770235 1_555
Al1 O6 1.772495 1_555
Al1 O5 1.801731 1_555
Al2 O9 1.780286 1_555
Al2 O7 1.790149 1_555
Al2 O6 1.794064 1_655
Al2 O4 1.798145 1_555
Al3 O8 1.780286 1_555
Al3 O10 1.790149 1_555
Al3 O11 1.794064 1_555
Al3 O13 1.798145 1_555
Al4 O18 1.759036 1_555
Al4 O15 1.770235 1_555
Al4 O11 1.772495 1_555
Al4 O12 1.801731 1_555
Al5 O19 1.764081 1_555
Al5 O15 1.766278 1_455
Al5 O13 1.771361 1_555
Al5 O14 1.798743 1_555
Al6 O16 1.764081 1_555
Al6 O20 1.766278 1_655
Al6 O22 1.771361 1_555
Al6 O21 1.798743 1_555
Al7 O17 1.759036 1_555
Al7 O20 1.770235 1_555
Al7 O24 1.772495 1_555
Al7 O23 1.801731 1_555
Al8 O27 1.780286 1_555
Al8 O25 1.790149 1_555
Al8 O24 1.794064 1_555
Al8 O22 1.798145 1_555
Al9 O26 1.780286 1_555
Al9 O28 1.790149 1_555
Al9 O29 1.794064 1_455
Al9 O31 1.798145 1_555
Al10 O0 1.759036 1_554
Al10 O33 1.770235 1_555
Al10 O29 1.772495 1_555
Al10 O30 1.801731 1_555
Al11 O1 1.764081 1_554
Al11 O33 1.766278 1_555
Al11 O31 1.771361 1_555
Al11 O32 1.798743 1_555
