# generated using pymatgen
data_K4N2O5
_symmetry_space_group_name_H-M   'P 1'
_cell_length_a   8.70005741
_cell_length_b   8.70005741
_cell_length_c   7.20500122
_cell_angle_alpha   90.00000000
_cell_angle_beta   90.00000000
_cell_angle_gamma   130.48862108
_symmetry_Int_Tables_number   1
_chemical_formula_structural   K4N2O5
_chemical_formula_sum   'K8 N4 O10'
_cell_volume   414.76056827
_cell_formula_units_Z   2
loop_
 _symmetry_equiv_pos_site_id
 _symmetry_equiv_pos_as_xyz
  1  'x, y, z'
loop_
 _atom_site_type_symbol
 _atom_site_label
 _atom_site_symmetry_multiplicity
 _atom_site_fract_x
 _atom_site_fract_y
 _atom_site_fract_z
 _atom_site_occupancy
  K  K0  1  0.33525193  0.66474807  0.00000000  1
  K  K1  1  0.75000000  0.75000000  0.25000000  1
  K  K2  1  0.25000000  0.25000000  0.25000000  1
  K  K3  1  0.16474807  0.83525193  0.50000000  1
  K  K4  1  0.66474807  0.33525193  0.00000000  1
  K  K5  1  0.75000000  0.75000000  0.75000000  1
  K  K6  1  0.25000000  0.25000000  0.75000000  1
  K  K7  1  0.83525193  0.16474807  0.50000000  1
  N  N0  1  0.11999673  0.88000327  0.00000000  1
  N  N1  1  0.88000327  0.11999673  0.00000000  1
  N  N2  1  0.38000327  0.61999673  0.50000000  1
  N  N3  1  0.61999673  0.38000327  0.50000000  1
  O  O0  1  0.26901367  0.94322791  0.10307518  1
  O  O1  1  0.50000000  0.50000000  0.00000000  1
  O  O2  1  0.44322791  0.76901367  0.60307518  1
  O  O3  1  0.23098633  0.55677209  0.39692482  1
  O  O4  1  0.73098633  0.05677209  0.10307518  1
  O  O5  1  0.76901367  0.44322791  0.39692482  1
  O  O6  1  0.00000000  0.00000000  0.50000000  1
  O  O7  1  0.05677209  0.73098633  0.89692482  1
  O  O8  1  0.55677209  0.23098633  0.60307518  1
  O  O9  1  0.94322791  0.26901367  0.89692482  1
loop_
_geom_bond_atom_site_label_1
_geom_bond_atom_site_label_2
_geom_bond_distance
_geom_bond_site_symmetry_2
K0 O1 2.603196 1_555
K0 O0 2.926883 1_555
K0 O7 2.926883 1_554
K0 O2 2.962676 1_554
K0 O3 2.962676 1_555
K0 O4 2.964598 1_565
K0 O9 2.964598 1_454
K1 O6 2.561764 1_665
K1 O1 2.561764 1_555
K1 O4 2.973974 1_565
K1 O5 2.973974 1_555
K2 O1 2.561764 1_555
K2 O6 2.561764 1_555
K2 O0 2.973974 1_545
K2 O3 2.973974 1_555
K3 O6 2.603196 1_565
K3 O3 2.926883 1_555
K3 O2 2.926883 1_555
K3 O7 2.962676 1_555
K3 O0 2.962676 1_555
K3 O5 2.964598 1_455
K3 O8 2.964598 1_565
K4 O1 2.603196 1_555
K4 O9 2.926883 1_554
K4 O4 2.926883 1_555
K4 O8 2.962676 1_554
K4 O5 2.962676 1_555
K4 O0 2.964598 1_545
K4 O7 2.964598 1_654
K5 O6 2.561764 1_665
K5 O1 2.561764 1_556
K5 O7 2.973974 1_655
K5 O2 2.973974 1_555
K6 O1 2.561764 1_556
K6 O6 2.561764 1_555
K6 O9 2.973974 1_455
K6 O8 2.973974 1_555
K7 O6 2.603196 1_655
K7 O8 2.926883 1_555
K7 O5 2.926883 1_555
K7 O9 2.962676 1_555
K7 O4 2.962676 1_555
K7 O3 2.964598 1_655
K7 O2 2.964598 1_545
N0 O0 1.268400 1_555
N0 O7 1.268400 1_554
N1 O4 1.268400 1_555
N1 O9 1.268400 1_554
N2 O2 1.268400 1_555
N2 O3 1.268400 1_555
N3 O5 1.268400 1_555
N3 O8 1.268400 1_555
