# generated using pymatgen
data_Li2Cu2Si2O7
_symmetry_space_group_name_H-M   'P 1'
_cell_length_a   13.15279900
_cell_length_b   5.49347800
_cell_length_c   9.69265437
_cell_angle_alpha   56.40119953
_cell_angle_beta   90.00000000
_cell_angle_gamma   90.00000000
_symmetry_Int_Tables_number   1
_chemical_formula_structural   Li2Cu2Si2O7
_chemical_formula_sum   'Li8 Cu8 Si8 O28'
_cell_volume   583.33532625
_cell_formula_units_Z   4
loop_
 _symmetry_equiv_pos_site_id
 _symmetry_equiv_pos_as_xyz
  1  'x, y, z'
loop_
 _atom_site_type_symbol
 _atom_site_label
 _atom_site_symmetry_multiplicity
 _atom_site_fract_x
 _atom_site_fract_y
 _atom_site_fract_z
 _atom_site_occupancy
  Li  Li0  1  0.34973000  0.72389200  0.12062000  1
  Li  Li1  1  0.74346300  0.02946700  0.17982500  1
  Li  Li2  1  0.24346300  0.97053300  0.32017500  1
  Li  Li3  1  0.84973000  0.27610800  0.37938000  1
  Li  Li4  1  0.15027000  0.72389200  0.62062000  1
  Li  Li5  1  0.75653700  0.02946700  0.67982500  1
  Li  Li6  1  0.25653700  0.97053300  0.82017500  1
  Li  Li7  1  0.65027000  0.27610800  0.87938000  1
  Cu  Cu0  1  0.08205400  0.55292700  0.10042900  1
  Cu  Cu1  1  0.48878400  0.17009200  0.18452900  1
  Cu  Cu2  1  0.98878400  0.82990800  0.31547100  1
  Cu  Cu3  1  0.58205400  0.44707300  0.39957100  1
  Cu  Cu4  1  0.41794600  0.55292700  0.60042900  1
  Cu  Cu5  1  0.01121600  0.17009200  0.68452900  1
  Cu  Cu6  1  0.51121600  0.82990800  0.81547100  1
  Cu  Cu7  1  0.91794600  0.44707300  0.89957100  1
  Si  Si0  1  0.88294400  0.78958000  0.03906600  1
  Si  Si1  1  0.66904600  0.63357600  0.05385500  1
  Si  Si2  1  0.16904600  0.36642400  0.44614500  1
  Si  Si3  1  0.38294400  0.21042000  0.46093400  1
  Si  Si4  1  0.61705600  0.78958000  0.53906600  1
  Si  Si5  1  0.83095400  0.63357600  0.55385500  1
  Si  Si6  1  0.33095400  0.36642400  0.94614500  1
  Si  Si7  1  0.11705600  0.21042000  0.96093400  1
  O  O0  1  0.79297100  0.57066100  0.04577500  1
  O  O1  1  0.16928400  0.89698900  0.02653100  1
  O  O2  1  0.02694600  0.21692900  0.08062000  1
  O  O3  1  0.62001200  0.32961600  0.08921900  1
  O  O4  1  0.36049000  0.07478800  0.13088700  1
  O  O5  1  0.65397300  0.70859500  0.19270500  1
  O  O6  1  0.93132800  0.61455800  0.22545600  1
  O  O7  1  0.43132800  0.38544200  0.27454400  1
  O  O8  1  0.15397300  0.29140500  0.30729500  1
  O  O9  1  0.86049000  0.92521200  0.36911300  1
  O  O10  1  0.12001200  0.67038400  0.41078100  1
  O  O11  1  0.52694600  0.78307100  0.41938000  1
  O  O12  1  0.66928400  0.10301100  0.47346900  1
  O  O13  1  0.29297100  0.42933900  0.45422500  1
  O  O14  1  0.70702900  0.57066100  0.54577500  1
  O  O15  1  0.33071600  0.89698900  0.52653100  1
  O  O16  1  0.47305400  0.21692900  0.58062000  1
  O  O17  1  0.87998800  0.32961600  0.58921900  1
  O  O18  1  0.13951000  0.07478800  0.63088700  1
  O  O19  1  0.84602700  0.70859500  0.69270500  1
  O  O20  1  0.56867200  0.61455800  0.72545600  1
  O  O21  1  0.06867200  0.38544200  0.77454400  1
  O  O22  1  0.34602700  0.29140500  0.80729500  1
  O  O23  1  0.63951000  0.92521200  0.86911300  1
  O  O24  1  0.37998800  0.67038400  0.91078100  1
  O  O25  1  0.97305400  0.78307100  0.91938000  1
  O  O26  1  0.83071600  0.10301100  0.97346900  1
  O  O27  1  0.20702900  0.42933900  0.95422500  1
loop_
_geom_bond_atom_site_label_1
_geom_bond_atom_site_label_2
_geom_bond_distance
_geom_bond_site_symmetry_2
Li0 O7 1.940252 1_555
Li0 O4 1.989480 1_565
Li0 O24 2.245707 1_554
Li0 O1 2.531606 1_555
Li1 O5 2.065089 1_545
Li1 O3 2.126937 1_555
Li1 O26 2.141604 1_554
Li1 O9 2.213694 1_545
Li2 O8 2.065089 1_565
Li2 O10 2.126937 1_555
Li2 O15 2.141604 1_555
Li2 O4 2.213694 1_565
Li3 O6 1.940252 1_555
Li3 O9 1.989480 1_545
Li3 O17 2.245707 1_555
Li3 O12 2.531606 1_555
Li4 O21 1.940252 1_555
Li4 O18 1.989480 1_565
Li4 O10 2.245707 1_555
Li4 O15 2.531606 1_555
Li5 O19 2.065089 1_545
Li5 O17 2.126937 1_555
Li5 O12 2.141604 1_555
Li5 O23 2.213694 1_545
Li6 O22 2.065089 1_565
Li6 O24 2.126937 1_555
Li6 O1 2.141604 1_556
Li6 O18 2.213694 1_565
Li7 O20 1.940252 1_555
Li7 O23 1.989480 1_545
Li7 O3 2.245707 1_556
Li7 O26 2.531606 1_555
Cu0 O8 1.947054 1_555
Cu0 O1 1.975731 1_555
Cu0 O25 2.068287 1_454
Cu0 O2 2.088404 1_555
Cu0 O6 2.442840 1_455
Cu0 O27 2.497184 1_554
Cu1 O4 1.921746 1_555
Cu1 O3 1.924716 1_555
Cu1 O7 1.968301 1_555
Cu1 O11 2.144194 1_545
Cu2 O9 1.921746 1_555
Cu2 O10 1.924716 1_655
Cu2 O6 1.968301 1_555
Cu2 O2 2.144194 1_665
Cu3 O5 1.947054 1_555
Cu3 O12 1.975731 1_555
Cu3 O16 2.068287 1_555
Cu3 O11 2.088404 1_555
Cu3 O7 2.442840 1_555
Cu3 O14 2.497184 1_555
Cu4 O22 1.947054 1_555
Cu4 O15 1.975731 1_555
Cu4 O11 2.068287 1_555
Cu4 O16 2.088404 1_555
Cu4 O20 2.442840 1_555
Cu4 O13 2.497184 1_555
Cu5 O18 1.921746 1_555
Cu5 O17 1.924716 1_455
Cu5 O21 1.968301 1_555
Cu5 O25 2.144194 1_445
Cu6 O23 1.921746 1_555
Cu6 O24 1.924716 1_555
Cu6 O20 1.968301 1_555
Cu6 O16 2.144194 1_565
Cu7 O19 1.947054 1_555
Cu7 O26 1.975731 1_555
Cu7 O2 2.068287 1_656
Cu7 O25 2.088404 1_555
Cu7 O21 2.442840 1_655
Cu7 O0 2.497184 1_556
O0 Si0 1.662653 1_555
O0 Si1 1.676996 1_555
O1 Si7 1.621486 1_564
O2 Si7 1.672620 1_554
O3 Si1 1.639573 1_555
O4 Si6 1.658013 1_554
O5 Si1 1.623031 1_555
O6 Si0 1.634269 1_555
O7 Si3 1.634269 1_555
O8 Si2 1.623031 1_555
O9 Si5 1.658013 1_555
O10 Si2 1.639573 1_555
O11 Si4 1.672620 1_555
O12 Si4 1.621486 1_545
O13 Si3 1.662653 1_555
O13 Si2 1.676996 1_555
O14 Si4 1.662653 1_555
O14 Si5 1.676996 1_555
O15 Si3 1.621486 1_565
O16 Si3 1.672620 1_555
O17 Si5 1.639573 1_555
O18 Si2 1.658013 1_555
O19 Si5 1.623031 1_555
O20 Si4 1.634269 1_555
O21 Si7 1.634269 1_555
O22 Si6 1.623031 1_555
O23 Si1 1.658013 1_556
O24 Si6 1.639573 1_555
O25 Si0 1.672620 1_556
O26 Si0 1.621486 1_546
O27 Si7 1.662653 1_555
O27 Si6 1.676996 1_555
