# generated using pymatgen
data_Li(FeP)2
_symmetry_space_group_name_H-M   'P 1'
_cell_length_a   5.24704759
_cell_length_b   5.24704759
_cell_length_c   5.24704759
_cell_angle_alpha   137.98326622
_cell_angle_beta   137.98326622
_cell_angle_gamma   60.92862809
_symmetry_Int_Tables_number   1
_chemical_formula_structural   Li(FeP)2
_chemical_formula_sum   'Li1 Fe2 P2'
_cell_volume   64.01375321
_cell_formula_units_Z   1
loop_
 _symmetry_equiv_pos_site_id
 _symmetry_equiv_pos_as_xyz
  1  'x, y, z'
loop_
 _atom_site_type_symbol
 _atom_site_label
 _atom_site_symmetry_multiplicity
 _atom_site_fract_x
 _atom_site_fract_y
 _atom_site_fract_z
 _atom_site_occupancy
  Li  Li0  1  0.00000000  0.00000000  0.00000000  1
  Fe  Fe0  1  0.25000000  0.75000000  0.50000000  1
  Fe  Fe1  1  0.75000000  0.25000000  0.50000000  1
  P  P0  1  0.62655300  0.62655300  0.00000000  1
  P  P1  1  0.37344700  0.37344700  0.00000000  1
loop_
_geom_bond_atom_site_label_1
_geom_bond_atom_site_label_2
_geom_bond_distance
_geom_bond_site_symmetry_2
Li0 P0 2.896094 1_455
Li0 P0 2.896094 1_556
Li0 P1 2.896094 1_556
Li0 P0 2.896094 1_444
Li0 P0 2.896094 1_545
Li0 P1 2.896094 1_444
Li0 P1 2.896094 1_455
Li0 P1 2.896094 1_545
Fe0 P1 2.187541 1_555
Fe0 P0 2.187541 1_556
Fe0 P0 2.187541 1_455
Fe0 P1 2.187541 1_566
Fe0 Li0 2.941449 1_666
Fe0 Li0 2.941449 1_555
Fe0 Li0 2.941449 1_566
Fe0 Li0 2.941449 1_565
Fe1 P0 2.187541 1_545
Fe1 P1 2.187541 1_555
Fe1 P0 2.187541 1_556
Fe1 P1 2.187541 1_656
Fe1 Li0 2.941449 1_555
Fe1 Li0 2.941449 1_656
Fe1 Li0 2.941449 1_666
Fe1 Li0 2.941449 1_655
P0 P1 2.289428 1_555
