# generated using pymatgen
data_TbSmO3
_symmetry_space_group_name_H-M   'P 1'
_cell_length_a   5.82907900
_cell_length_b   6.07813000
_cell_length_c   8.50776500
_cell_angle_alpha   90.00000000
_cell_angle_beta   90.00000000
_cell_angle_gamma   90.00000000
_symmetry_Int_Tables_number   1
_chemical_formula_structural   TbSmO3
_chemical_formula_sum   'Tb4 Sm4 O12'
_cell_volume   301.42926268
_cell_formula_units_Z   4
loop_
 _symmetry_equiv_pos_site_id
 _symmetry_equiv_pos_as_xyz
  1  'x, y, z'
loop_
 _atom_site_type_symbol
 _atom_site_label
 _atom_site_symmetry_multiplicity
 _atom_site_fract_x
 _atom_site_fract_y
 _atom_site_fract_z
 _atom_site_occupancy
  Tb  Tb0  1  0.50000000  0.00000000  0.00000000  1
  Tb  Tb1  1  0.50000000  0.00000000  0.50000000  1
  Tb  Tb2  1  0.00000000  0.50000000  0.00000000  1
  Tb  Tb3  1  0.00000000  0.50000000  0.50000000  1
  Sm  Sm0  1  0.98772200  0.04945300  0.25000000  1
  Sm  Sm1  1  0.48772200  0.45054700  0.75000000  1
  Sm  Sm2  1  0.51227800  0.54945300  0.25000000  1
  Sm  Sm3  1  0.01227800  0.95054700  0.75000000  1
  O  O0  1  0.64388900  0.07911300  0.75000000  1
  O  O1  1  0.18065800  0.18397600  0.57360500  1
  O  O2  1  0.18065800  0.18397600  0.92639500  1
  O  O3  1  0.68065800  0.31602400  0.42639500  1
  O  O4  1  0.68065800  0.31602400  0.07360500  1
  O  O5  1  0.14388900  0.42088700  0.25000000  1
  O  O6  1  0.85611100  0.57911300  0.75000000  1
  O  O7  1  0.31934200  0.68397600  0.92639500  1
  O  O8  1  0.31934200  0.68397600  0.57360500  1
  O  O9  1  0.81934200  0.81602400  0.07360500  1
  O  O10  1  0.81934200  0.81602400  0.42639500  1
  O  O11  1  0.35611100  0.92088700  0.25000000  1
loop_
_geom_bond_atom_site_label_1
_geom_bond_atom_site_label_2
_geom_bond_distance
_geom_bond_site_symmetry_2
O0 Sm3 2.285135 1_645
O0 Tb1 2.336363 1_555
O0 Tb0 2.336363 1_556
O0 Sm1 2.434241 1_555
O1 Tb1 2.260012 1_555
O1 Tb3 2.278312 1_555
O1 Sm3 2.286603 1_545
O1 Sm1 2.842736 1_555
O1 Sm0 3.084352 1_455
O2 Tb0 2.260012 1_556
O2 Tb2 2.278312 1_556
O2 Sm3 2.286603 1_545
O2 Sm1 2.842736 1_555
O2 Sm0 3.084352 1_456
O3 Tb3 2.260012 1_655
O3 Tb1 2.278312 1_555
O3 Sm2 2.286603 1_555
O3 Sm0 2.842736 1_555
O3 Sm1 3.084352 1_555
O4 Tb2 2.260012 1_655
O4 Tb0 2.278312 1_555
O4 Sm2 2.286603 1_555
O4 Sm0 2.842736 1_555
O4 Sm1 3.084352 1_554
O5 Sm2 2.285135 1_555
O5 Tb2 2.336363 1_555
O5 Tb3 2.336363 1_555
O5 Sm0 2.434241 1_455
O6 Sm1 2.285135 1_555
O6 Tb3 2.336363 1_655
O6 Tb2 2.336363 1_656
O6 Sm3 2.434241 1_655
O7 Tb2 2.260012 1_556
O7 Tb0 2.278312 1_566
O7 Sm1 2.286603 1_555
O7 Sm3 2.842736 1_555
O7 Sm2 3.084352 1_556
O8 Tb3 2.260012 1_555
O8 Tb1 2.278312 1_565
O8 Sm1 2.286603 1_555
O8 Sm3 2.842736 1_555
O8 Sm2 3.084352 1_555
O9 Tb0 2.260012 1_565
O9 Tb2 2.278312 1_655
O9 Sm0 2.286603 1_565
O9 Sm2 2.842736 1_555
O9 Sm3 3.084352 1_654
O10 Tb1 2.260012 1_565
O10 Tb3 2.278312 1_655
O10 Sm0 2.286603 1_565
O10 Sm2 2.842736 1_555
O10 Sm3 3.084352 1_655
O11 Sm0 2.285135 1_465
O11 Tb0 2.336363 1_565
O11 Tb1 2.336363 1_565
O11 Sm2 2.434241 1_555
