# generated using pymatgen
data_Li2VOF4
_symmetry_space_group_name_H-M   'P 1'
_cell_length_a   5.42919500
_cell_length_b   7.22568900
_cell_length_c   9.62198000
_cell_angle_alpha   90.00000000
_cell_angle_beta   90.00000000
_cell_angle_gamma   90.00000000
_symmetry_Int_Tables_number   1
_chemical_formula_structural   Li2VOF4
_chemical_formula_sum   'Li8 V4 O4 F16'
_cell_volume   377.46714431
_cell_formula_units_Z   4
loop_
 _symmetry_equiv_pos_site_id
 _symmetry_equiv_pos_as_xyz
  1  'x, y, z'
loop_
 _atom_site_type_symbol
 _atom_site_label
 _atom_site_symmetry_multiplicity
 _atom_site_fract_x
 _atom_site_fract_y
 _atom_site_fract_z
 _atom_site_occupancy
  Li  Li0  1  0.25785000  0.04766000  0.72027300  1
  Li  Li1  1  0.74412500  0.88393800  0.57198900  1
  Li  Li2  1  0.24412500  0.61606200  0.07198900  1
  Li  Li3  1  0.75785000  0.45234000  0.22027300  1
  Li  Li4  1  0.25785000  0.54766000  0.77972700  1
  Li  Li5  1  0.74412500  0.38393800  0.92801100  1
  Li  Li6  1  0.24412500  0.11606200  0.42801100  1
  Li  Li7  1  0.75785000  0.95234000  0.27972700  1
  V  V0  1  0.74161600  0.80397600  0.94899500  1
  V  V1  1  0.24161600  0.69602400  0.44899500  1
  V  V2  1  0.74161600  0.30397600  0.55100500  1
  V  V3  1  0.24161600  0.19602400  0.05100500  1
  O  O0  1  0.00991300  0.84440600  0.42068700  1
  O  O1  1  0.50991300  0.65559400  0.92068700  1
  O  O2  1  0.00991300  0.34440600  0.07931300  1
  O  O3  1  0.50991300  0.15559400  0.57931300  1
  F  F0  1  0.05416400  0.97730900  0.99481500  1
  F  F1  1  0.77473700  0.89903700  0.76488600  1
  F  F2  1  0.51284900  0.86659700  0.41330200  1
  F  F3  1  0.28179000  0.75884200  0.64922300  1
  F  F4  1  0.78179000  0.74115800  0.14922300  1
  F  F5  1  0.01284900  0.63340300  0.91330200  1
  F  F6  1  0.27473700  0.60096300  0.26488600  1
  F  F7  1  0.55416400  0.52269100  0.49481500  1
  F  F8  1  0.05416400  0.47730900  0.50518500  1
  F  F9  1  0.77473700  0.39903700  0.73511400  1
  F  F10  1  0.51284900  0.36659700  0.08669800  1
  F  F11  1  0.28179000  0.25884200  0.85077700  1
  F  F12  1  0.78179000  0.24115800  0.35077700  1
  F  F13  1  0.01284900  0.13340300  0.58669800  1
  F  F14  1  0.27473700  0.10096300  0.23511400  1
  F  F15  1  0.55416400  0.02269100  0.00518500  1
loop_
_geom_bond_atom_site_label_1
_geom_bond_atom_site_label_2
_geom_bond_distance
_geom_bond_site_symmetry_2
Li0 O3 2.078610 1_555
Li1 O0 2.069616 1_655
Li1 O3 2.339844 1_565
Li2 O1 2.069616 1_554
Li2 O2 2.339844 1_555
Li3 O2 2.078610 1_655
Li4 O1 2.078610 1_555
Li5 O2 2.069616 1_656
Li5 O1 2.339844 1_555
Li6 O3 2.069616 1_555
Li6 O0 2.339844 1_545
Li7 O0 2.078610 1_655
O0 V1 1.675168 1_555
O1 V0 1.675168 1_555
O2 V3 1.675168 1_555
O3 V2 1.675168 1_555
F0 V3 1.955917 1_566
F0 V0 2.154628 1_455
F1 Li1 1.866668 1_555
F1 V0 1.908489 1_555
F2 Li7 1.950653 1_555
F2 V1 1.950771 1_555
F2 Li1 1.980836 1_555
F2 Li6 2.323315 1_565
F3 Li4 1.980447 1_555
F3 V1 1.991319 1_555
F3 Li0 2.199875 1_565
F4 Li7 1.980447 1_555
F4 V0 1.991319 1_554
F4 Li3 2.199875 1_555
F5 Li4 1.950653 1_555
F5 V0 1.950771 1_455
F5 Li2 1.980836 1_556
F5 Li5 2.323315 1_455
F6 Li2 1.866668 1_555
F6 V1 1.908489 1_555
F7 V2 1.955917 1_555
F7 V1 2.154628 1_555
F8 V1 1.955917 1_555
F8 V2 2.154628 1_455
F9 Li5 1.866668 1_555
F9 V2 1.908489 1_555
F10 Li3 1.950653 1_555
F10 V3 1.950771 1_555
F10 Li5 1.980836 1_554
F10 Li2 2.323315 1_555
F11 Li0 1.980447 1_555
F11 V3 1.991319 1_556
F11 Li4 2.199875 1_555
F12 Li3 1.980447 1_555
F12 V2 1.991319 1_555
F12 Li7 2.199875 1_545
F13 Li0 1.950653 1_555
F13 V2 1.950771 1_455
F13 Li6 1.980836 1_555
F13 Li1 2.323315 1_445
F14 Li6 1.866668 1_555
F14 V3 1.908489 1_555
F15 V0 1.955917 1_544
F15 V3 2.154628 1_555
