# generated using pymatgen
data_Li24Mn7Cr5O36
_symmetry_space_group_name_H-M   'P 1'
_cell_length_a   5.00553700
_cell_length_b   9.73957954
_cell_length_c   13.29154245
_cell_angle_alpha   97.05708173
_cell_angle_beta   100.34136116
_cell_angle_gamma   94.65673142
_symmetry_Int_Tables_number   1
_chemical_formula_structural   Li24Mn7Cr5O36
_chemical_formula_sum   'Li24 Mn7 Cr5 O36'
_cell_volume   629.08454929
_cell_formula_units_Z   1
loop_
 _symmetry_equiv_pos_site_id
 _symmetry_equiv_pos_as_xyz
  1  'x, y, z'
loop_
 _atom_site_type_symbol
 _atom_site_label
 _atom_site_symmetry_multiplicity
 _atom_site_fract_x
 _atom_site_fract_y
 _atom_site_fract_z
 _atom_site_occupancy
  Li  Li0  1  0.16464400  0.99994600  0.83350400  1
  Li  Li1  1  0.05094400  0.00021100  0.61290400  1
  Li  Li2  1  0.99972800  0.74953900  0.25049100  1
  Li  Li3  1  0.33083100  0.75035900  0.91738800  1
  Li  Li4  1  0.05099300  0.49990700  0.11328800  1
  Li  Li5  1  0.38267000  0.49968500  0.77858700  1
  Li  Li6  1  0.16404600  0.50053400  0.33341700  1
  Li  Li7  1  0.49946600  0.49985900  0.00034700  1
  Li  Li8  1  0.28742500  0.50056900  0.55401800  1
  Li  Li9  1  0.33015600  0.25003100  0.41766600  1
  Li  Li10  1  0.49821200  0.99967600  0.50015700  1
  Li  Li11  1  0.28373700  0.99869800  0.05366900  1
  Li  Li12  1  0.61881600  0.99930500  0.71954100  1
  Li  Li13  1  0.38226700  0.99961800  0.27893100  1
  Li  Li14  1  0.71775400  0.00099900  0.94601600  1
  Li  Li15  1  0.66348700  0.75012200  0.58413100  1
  Li  Li16  1  0.71587500  0.49978200  0.44523800  1
  Li  Li17  1  0.83136800  0.50021800  0.66690500  1
  Li  Li18  1  0.61935000  0.50164300  0.22110300  1
  Li  Li19  1  0.95251600  0.49957800  0.88640300  1
  Li  Li20  1  0.66344800  0.25006700  0.08432900  1
  Li  Li21  1  0.83225500  0.99991200  0.16704400  1
  Li  Li22  1  0.99661400  0.24998100  0.75094000  1
  Li  Li23  1  0.95419400  0.00004000  0.38703300  1
  Mn  Mn0  1  0.22371800  0.75006300  0.69403400  1
  Mn  Mn1  1  0.22373700  0.24992300  0.19406900  1
  Mn  Mn2  1  0.55720900  0.25024300  0.86068300  1
  Mn  Mn3  1  0.44436800  0.74981400  0.13900500  1
  Mn  Mn4  1  0.55388700  0.74859400  0.35958700  1
  Mn  Mn5  1  0.89051700  0.24996900  0.52737300  1
  Mn  Mn6  1  0.89247000  0.75132400  0.02882300  1
  Cr  Cr0  1  0.10637500  0.24993500  0.97357200  1
  Cr  Cr1  1  0.10434000  0.75037100  0.47340900  1
  Cr  Cr2  1  0.43950900  0.24992300  0.64021400  1
  Cr  Cr3  1  0.77266000  0.74981900  0.80743500  1
  Cr  Cr4  1  0.77248000  0.25006300  0.30676300  1
  O  O0  1  0.00362000  0.86357300  0.93153300  1
  O  O1  1  0.06949300  0.63635500  0.78456200  1
  O  O2  1  0.00359200  0.36343900  0.43109800  1
  O  O3  1  0.14615200  0.36108600  0.64190900  1
  O  O4  1  0.26489900  0.36407800  0.88201000  1
  O  O5  1  0.33684800  0.86348600  0.59777500  1
  O  O6  1  0.06944100  0.13615500  0.28431800  1
  O  O7  1  0.18503900  0.13628800  0.52183000  1
  O  O8  1  0.40257800  0.13637300  0.95083000  1
  O  O9  1  0.14269100  0.86129400  0.14336500  1
  O  O10  1  0.26492100  0.86395200  0.38226000  1
  O  O11  1  0.47947300  0.86108400  0.80864700  1
  O  O12  1  0.33695000  0.13900200  0.73743600  1
  O  O13  1  0.19156700  0.63831100  0.02399900  1
  O  O14  1  0.40255100  0.63640500  0.45065700  1
  O  O15  1  0.51837700  0.63635700  0.68850200  1
  O  O16  1  0.33198100  0.63860300  0.23769900  1
  O  O17  1  0.67190900  0.63899100  0.90485700  1
  O  O18  1  0.33665100  0.36324400  0.09752500  1
  O  O19  1  0.67055100  0.36358100  0.76447500  1
  O  O20  1  0.47921500  0.36102600  0.30847500  1
  O  O21  1  0.59823100  0.36364100  0.54866000  1
  O  O22  1  0.81313400  0.36156900  0.97531700  1
  O  O23  1  0.66610100  0.86145000  0.26129900  1
  O  O24  1  0.51860000  0.13648600  0.18848600  1
  O  O25  1  0.73615000  0.13628200  0.61761100  1
  O  O26  1  0.85180700  0.13650800  0.85515600  1
  O  O27  1  0.59692900  0.86360500  0.04819400  1
  O  O28  1  0.81168900  0.86120400  0.47423700  1
  O  O29  1  0.93137600  0.86366100  0.71532900  1
  O  O30  1  0.67034100  0.13862200  0.40388700  1
  O  O31  1  0.73650600  0.63611400  0.11818200  1
  O  O32  1  0.85063700  0.63640200  0.35516500  1
  O  O33  1  0.00345400  0.63903400  0.57067700  1
  O  O34  1  0.93163700  0.36355400  0.21537300  1
  O  O35  1  0.00284300  0.13886600  0.07065200  1
loop_
_geom_bond_atom_site_label_1
_geom_bond_atom_site_label_2
_geom_bond_distance
_geom_bond_site_symmetry_2
Li0 O29 2.042061 1_455
Li0 O8 2.045228 1_565
Li0 O26 2.170228 1_465
Li0 O0 2.177146 1_555
Li0 O12 2.199828 1_565
Li0 O11 2.201118 1_555
Li1 O5 2.051518 1_545
Li1 O7 2.052770 1_555
Li1 O29 2.142076 1_445
Li1 O25 2.144115 1_455
Li1 O12 2.213997 1_555
Li1 O28 2.235025 1_445
Li2 O16 2.076149 1_655
Li2 O32 2.079119 1_555
Li2 O23 2.083438 1_555
Li2 O9 2.084317 1_655
Li2 O31 2.122129 1_555
Li2 O10 2.125286 1_655
Li3 O0 2.070427 1_555
Li3 O13 2.072662 1_556
Li3 O11 2.108164 1_555
Li3 O27 2.114778 1_556
Li3 O17 2.116000 1_555
Li3 O1 2.124685 1_555
Li4 O18 2.051380 1_555
Li4 O13 2.063875 1_555
Li4 O34 2.136971 1_455
Li4 O31 2.144007 1_455
Li4 O16 2.201147 1_555
Li4 O22 2.223606 1_454
Li5 O15 2.050330 1_555
Li5 O19 2.053039 1_555
Li5 O4 2.142946 1_555
Li5 O1 2.143157 1_555
Li5 O3 2.211303 1_555
Li5 O17 2.236711 1_555
Li6 O34 2.042866 1_455
Li6 O14 2.042943 1_555
Li6 O32 2.168327 1_455
Li6 O2 2.177116 1_555
Li6 O16 2.180439 1_555
Li6 O20 2.206815 1_555
Li7 O4 2.043320 1_554
Li7 O31 2.046549 1_555
Li7 O13 2.167884 1_555
Li7 O18 2.174192 1_555
Li7 O22 2.193337 1_554
Li7 O17 2.195046 1_554
Li8 O33 2.058898 1_555
Li8 O3 2.059335 1_555
Li8 O21 2.134785 1_555
Li8 O14 2.139351 1_555
Li8 O15 2.170166 1_555
Li8 O2 2.189506 1_555
Li9 O2 2.067218 1_555
Li9 O7 2.068574 1_555
Li9 O30 2.115097 1_555
Li9 O20 2.115418 1_555
Li9 O21 2.122064 1_555
Li9 O6 2.127468 1_555
Li10 O10 2.037160 1_555
Li10 O25 2.047107 1_565
Li10 O7 2.171937 1_565
Li10 O5 2.172672 1_555
Li10 O28 2.196188 1_555
Li10 O30 2.200683 1_565
Li11 O35 2.059482 1_565
Li11 O9 2.061925 1_555
Li11 O27 2.132255 1_555
Li11 O8 2.152446 1_564
Li11 O0 2.165999 1_554
Li11 O24 2.188753 1_565
Li12 O11 2.058487 1_555
Li12 O12 2.061808 1_565
Li12 O29 2.131929 1_555
Li12 O25 2.136080 1_565
Li12 O5 2.170710 1_555
Li12 O26 2.189817 1_565
Li13 O24 2.056319 1_565
Li13 O23 2.058353 1_555
Li13 O6 2.140191 1_565
Li13 O10 2.141652 1_555
Li13 O9 2.205735 1_555
Li13 O30 2.222900 1_565
Li14 O26 2.046796 1_555
Li14 O0 2.054906 1_645
Li14 O8 2.141181 1_555
Li14 O27 2.147308 1_546
Li14 O35 2.208463 1_656
Li14 O11 2.226242 1_545
Li15 O5 2.067746 1_555
Li15 O15 2.070882 1_555
Li15 O33 2.111659 1_655
Li15 O28 2.121637 1_555
Li15 O29 2.123142 1_555
Li15 O14 2.128467 1_555
Li16 O32 2.048054 1_555
Li16 O2 2.054068 1_655
Li16 O14 2.142760 1_555
Li16 O21 2.146222 1_555
Li16 O20 2.212991 1_555
Li16 O33 2.226448 1_655
Li17 O21 2.043807 1_555
Li17 O1 2.046717 1_655
Li17 O15 2.168008 1_555
Li17 O19 2.173877 1_555
Li17 O33 2.199352 1_655
Li17 O3 2.203036 1_655
Li18 O20 2.060005 1_555
Li18 O16 2.061627 1_555
Li18 O31 2.129342 1_555
Li18 O34 2.148732 1_555
Li18 O32 2.162420 1_555
Li18 O18 2.197517 1_555
Li19 O22 2.055295 1_555
Li19 O17 2.056270 1_555
Li19 O4 2.130480 1_655
Li19 O1 2.133251 1_655
Li19 O19 2.172702 1_555
Li19 O13 2.224157 1_656
Li20 O18 2.066379 1_555
Li20 O24 2.066994 1_555
Li20 O35 2.110310 1_655
Li20 O22 2.117653 1_554
Li20 O34 2.122302 1_555
Li20 O8 2.128465 1_554
Li21 O6 2.042448 1_665
Li21 O27 2.051375 1_555
Li21 O23 2.164929 1_555
Li21 O24 2.173042 1_565
Li21 O9 2.179034 1_655
Li21 O35 2.198485 1_665
Li22 O19 2.066412 1_555
Li22 O26 2.066913 1_555
Li22 O12 2.112762 1_655
Li22 O3 2.115341 1_655
Li22 O4 2.124934 1_655
Li22 O25 2.126136 1_555
Li23 O28 2.050869 1_545
Li23 O30 2.059636 1_555
Li23 O10 2.128249 1_645
Li23 O6 2.134820 1_655
Li23 O7 2.174789 1_655
Li23 O23 2.226846 1_545
Mn0 O5 1.919320 1_555
Mn0 O15 1.921303 1_555
Mn0 O29 1.944273 1_455
Mn0 O1 1.947402 1_555
Mn0 O33 1.948076 1_555
Mn0 O11 1.949127 1_555
Mn1 O24 1.920554 1_555
Mn1 O18 1.921289 1_555
Mn1 O34 1.943496 1_455
Mn1 O6 1.945111 1_555
Mn1 O20 1.947160 1_555
Mn1 O35 1.949890 1_555
Mn2 O19 1.918651 1_555
Mn2 O26 1.921224 1_555
Mn2 O8 1.945468 1_555
Mn2 O4 1.945644 1_555
Mn2 O12 1.947924 1_555
Mn2 O22 1.950900 1_555
Mn3 O16 1.930188 1_555
Mn3 O9 1.935122 1_555
Mn3 O31 1.942727 1_555
Mn3 O23 1.943784 1_555
Mn3 O27 1.946929 1_555
Mn3 O13 1.947246 1_555
Mn4 O32 1.919103 1_555
Mn4 O16 1.933992 1_555
Mn4 O23 1.935559 1_555
Mn4 O14 1.937211 1_555
Mn4 O10 1.944862 1_555
Mn4 O28 1.960572 1_555
Mn5 O2 1.919677 1_655
Mn5 O7 1.920600 1_655
Mn5 O21 1.944460 1_555
Mn5 O25 1.944681 1_555
Mn5 O3 1.948614 1_655
Mn5 O30 1.950324 1_555
Mn6 O0 1.919340 1_654
Mn6 O9 1.931485 1_655
Mn6 O13 1.934367 1_655
Mn6 O27 1.944448 1_555
Mn6 O31 1.948687 1_555
Mn6 O17 1.959236 1_554
Cr0 O35 1.896260 1_556
Cr0 O22 1.897991 1_455
Cr0 O8 1.964179 1_555
Cr0 O4 1.970413 1_555
Cr0 O18 1.981351 1_556
Cr0 O26 1.986337 1_455
Cr1 O28 1.889670 1_455
Cr1 O33 1.895332 1_555
Cr1 O10 1.967777 1_555
Cr1 O14 1.974917 1_555
Cr1 O32 1.985139 1_455
Cr1 O5 1.988546 1_555
Cr2 O12 1.895164 1_555
Cr2 O3 1.895510 1_555
Cr2 O25 1.966055 1_555
Cr2 O21 1.968286 1_555
Cr2 O7 1.986680 1_555
Cr2 O19 1.986918 1_555
Cr3 O17 1.893600 1_555
Cr3 O11 1.894931 1_555
Cr3 O1 1.966599 1_655
Cr3 O29 1.974583 1_555
Cr3 O0 1.985715 1_655
Cr3 O15 1.990022 1_555
Cr4 O20 1.893917 1_555
Cr4 O30 1.896600 1_555
Cr4 O34 1.966313 1_555
Cr4 O6 1.968498 1_655
Cr4 O24 1.984245 1_555
Cr4 O2 1.986583 1_655
