# generated using pymatgen
data_Li6Fe3Co3O16
_symmetry_space_group_name_H-M   'P 1'
_cell_length_a   5.74091060
_cell_length_b   5.74091060
_cell_length_c   9.89590607
_cell_angle_alpha   89.65399770
_cell_angle_beta   89.65399770
_cell_angle_gamma   60.19597847
_symmetry_Int_Tables_number   1
_chemical_formula_structural   Li6Fe3Co3O16
_chemical_formula_sum   'Li6 Fe3 Co3 O16'
_cell_volume   283.00326758
_cell_formula_units_Z   1
loop_
 _symmetry_equiv_pos_site_id
 _symmetry_equiv_pos_as_xyz
  1  'x, y, z'
loop_
 _atom_site_type_symbol
 _atom_site_label
 _atom_site_symmetry_multiplicity
 _atom_site_fract_x
 _atom_site_fract_y
 _atom_site_fract_z
 _atom_site_occupancy
  Li  Li0  1  0.33235100  0.33235100  0.49971200  1
  Li  Li1  1  0.33490700  0.33490700  0.10896700  1
  Li  Li2  1  0.99340100  0.99340100  0.00088200  1
  Li  Li3  1  0.99579600  0.99579600  0.50234200  1
  Li  Li4  1  0.66756400  0.66756400  0.99852800  1
  Li  Li5  1  0.66777900  0.66777900  0.60871000  1
  Fe  Fe0  1  0.16929600  0.16929600  0.78442500  1
  Fe  Fe1  1  0.83217000  0.33857600  0.28453500  1
  Fe  Fe2  1  0.33857600  0.83217000  0.28453500  1
  Co  Co0  1  0.66467800  0.16777800  0.78523300  1
  Co  Co1  1  0.16777800  0.66467800  0.78523300  1
  Co  Co2  1  0.83217200  0.83217200  0.28571600  1
  O  O0  1  0.69030200  0.15110100  0.38617700  1
  O  O1  1  0.48497400  0.48497400  0.68603900  1
  O  O2  1  0.33639500  0.33639500  0.89049000  1
  O  O3  1  0.99709500  0.99709500  0.68614100  1
  O  O4  1  0.99529600  0.99529600  0.18341800  1
  O  O5  1  0.15110100  0.69030200  0.38617700  1
  O  O6  1  0.48847100  0.03427100  0.68105500  1
  O  O7  1  0.03427100  0.48847100  0.68105500  1
  O  O8  1  0.84440400  0.84440400  0.88214600  1
  O  O9  1  0.15490700  0.15490700  0.39010700  1
  O  O10  1  0.96941100  0.52101600  0.18165300  1
  O  O11  1  0.52101600  0.96941100  0.18165300  1
  O  O12  1  0.67160500  0.67160500  0.39714600  1
  O  O13  1  0.84225200  0.30820200  0.88551800  1
  O  O14  1  0.51751300  0.51751300  0.17756400  1
  O  O15  1  0.30820200  0.84225200  0.88551800  1
loop_
_geom_bond_atom_site_label_1
_geom_bond_atom_site_label_2
_geom_bond_distance
_geom_bond_site_symmetry_2
Li0 O9 2.076095 1_555
Li0 O5 2.104417 1_555
Li0 O0 2.104417 1_555
Li0 O6 2.325895 1_555
Li0 O7 2.325895 1_555
Li0 O1 2.395308 1_555
Li1 O14 1.941246 1_555
Li1 O10 1.955553 1_455
Li1 O11 1.955553 1_545
Li1 O2 2.161975 1_554
Li2 O4 1.806589 1_555
Li2 O8 1.896202 1_554
Li2 O15 1.936635 1_654
Li2 O13 1.936635 1_564
Li3 O3 1.818993 1_555
Li3 O0 1.910456 1_565
Li3 O5 1.910456 1_655
Li3 O9 1.925424 1_665
Li4 O8 2.093824 1_555
Li4 O13 2.114300 1_555
Li4 O15 2.114300 1_555
Li4 O14 2.307362 1_556
Li4 O11 2.359017 1_556
Li4 O10 2.359017 1_556
Li5 O7 1.963490 1_655
Li5 O6 1.963490 1_565
Li5 O1 1.965657 1_555
Li5 O12 2.093697 1_555
Fe0 O7 1.892035 1_555
Fe0 O6 1.892035 1_555
Fe0 O13 1.913231 1_455
Fe0 O15 1.913231 1_545
Fe0 O2 1.970106 1_555
Fe0 O3 1.973660 1_445
Fe1 O10 1.884690 1_555
Fe1 O14 1.898498 1_555
Fe1 O0 1.918808 1_555
Fe1 O9 1.924623 1_655
Fe1 O4 1.984939 1_545
Fe1 O12 2.002073 1_555
Fe2 O11 1.884690 1_555
Fe2 O14 1.898498 1_555
Fe2 O5 1.918808 1_555
Fe2 O9 1.924623 1_565
Fe2 O4 1.984939 1_455
Fe2 O12 2.002073 1_555
Co0 O6 1.861844 1_555
Co0 O1 1.862000 1_555
Co0 O13 1.874264 1_555
Co0 O8 1.875401 1_545
Co0 O3 1.921917 1_545
Co0 O2 1.936186 1_555
Co1 O7 1.861844 1_555
Co1 O1 1.862000 1_555
Co1 O15 1.874264 1_555
Co1 O8 1.875401 1_455
Co1 O3 1.921917 1_455
Co1 O2 1.936186 1_555
Co2 O10 1.866958 1_555
Co2 O11 1.866958 1_555
Co2 O5 1.879855 1_655
Co2 O0 1.879855 1_565
Co2 O4 1.904652 1_555
Co2 O12 1.932746 1_555
