# generated using pymatgen
data_Co2RuO4
_symmetry_space_group_name_H-M   'P 1'
_cell_length_a   6.11004682
_cell_length_b   6.14215838
_cell_length_c   10.36587928
_cell_angle_alpha   107.30083152
_cell_angle_beta   87.54346204
_cell_angle_gamma   59.82477961
_symmetry_Int_Tables_number   1
_chemical_formula_structural   Co2RuO4
_chemical_formula_sum   'Co8 Ru4 O16'
_cell_volume   312.24884268
_cell_formula_units_Z   4
loop_
 _symmetry_equiv_pos_site_id
 _symmetry_equiv_pos_as_xyz
  1  'x, y, z'
loop_
 _atom_site_type_symbol
 _atom_site_label
 _atom_site_symmetry_multiplicity
 _atom_site_fract_x
 _atom_site_fract_y
 _atom_site_fract_z
 _atom_site_occupancy
  Co  Co0  1  0.61974300  0.72272300  0.12203500  1
  Co  Co1  1  0.06112700  0.87740200  0.31340600  1
  Co  Co2  1  0.00771200  0.97040700  0.00364300  1
  Co  Co3  1  0.56153300  0.37462900  0.31219900  1
  Co  Co4  1  0.11881800  0.77564900  0.62146300  1
  Co  Co5  1  0.50499300  0.02449900  0.50446200  1
  Co  Co6  1  0.56432300  0.37656200  0.81103900  1
  Co  Co7  1  0.06040900  0.37749000  0.81255600  1
  Ru  Ru0  1  0.31463600  0.34218300  0.06164300  1
  Ru  Ru1  1  0.06134800  0.37588200  0.31240900  1
  Ru  Ru2  1  0.81225800  0.40269000  0.56080600  1
  Ru  Ru3  1  0.56164500  0.87967600  0.81494900  1
  O  O0  1  0.94691800  0.60663200  0.19122500  1
  O  O1  1  0.41883000  0.58471300  0.18344900  1
  O  O2  1  0.43831600  0.12388200  0.19102000  1
  O  O3  1  0.17150400  0.61680500  0.41933700  1
  O  O4  1  0.95217700  0.13340600  0.20565000  1
  O  O5  1  0.68433400  0.62511300  0.43198400  1
  O  O6  1  0.17817700  0.14457800  0.43449200  1
  O  O7  1  0.69932500  0.16536100  0.44087900  1
  O  O8  1  0.44723300  0.64109600  0.69095400  1
  O  O9  1  0.93519900  0.62947600  0.69093900  1
  O  O10  1  0.92465200  0.17478500  0.68127200  1
  O  O11  1  0.67555600  0.62999000  0.91992400  1
  O  O12  1  0.44667900  0.12476100  0.70679700  1
  O  O13  1  0.20660000  0.57006400  0.94272400  1
  O  O14  1  0.68265800  0.11350000  0.93359100  1
  O  O15  1  0.18515000  0.12294400  0.93489100  1
loop_
_geom_bond_atom_site_label_1
_geom_bond_atom_site_label_2
_geom_bond_distance
_geom_bond_site_symmetry_2
Co0 O11 1.965636 1_554
Co0 O1 1.982646 1_555
Co0 O2 1.987364 1_565
Co0 O0 2.003289 1_555
Co1 O1 2.044667 1_555
Co1 O7 2.046972 1_465
Co1 O4 2.054118 1_465
Co1 O3 2.060646 1_555
Co1 O6 2.193540 1_565
Co1 O0 2.201500 1_455
Co2 O4 1.962880 1_465
Co2 O15 1.978161 1_564
Co2 O13 1.982097 1_554
Co2 O14 1.998185 1_464
Co3 O7 2.041651 1_555
Co3 O1 2.049259 1_555
Co3 O3 2.086177 1_555
Co3 O4 2.087515 1_555
Co3 O5 2.139132 1_555
Co3 O2 2.147720 1_555
Co4 O3 1.963681 1_555
Co4 O10 1.977643 1_465
Co4 O9 1.977718 1_455
Co4 O8 2.009802 1_555
Co5 O12 1.962735 1_555
Co5 O7 1.974252 1_555
Co5 O5 1.978337 1_545
Co5 O6 2.004805 1_555
Co6 O10 2.050395 1_555
Co6 O13 2.054503 1_555
Co6 O11 2.059889 1_555
Co6 O12 2.065542 1_555
Co6 O8 2.193640 1_555
Co6 O14 2.207361 1_555
Co7 O10 2.053624 1_455
Co7 O13 2.057606 1_555
Co7 O11 2.063057 1_455
Co7 O12 2.065114 1_555
Co7 O9 2.150095 1_455
Co7 O15 2.167388 1_555
O0 Ru1 2.052709 1_655
O0 Ru0 2.065300 1_655
O1 Ru0 2.030316 1_555
O2 Ru1 2.072059 1_555
O2 Ru0 2.074915 1_555
O3 Ru1 1.990222 1_555
O4 Ru1 1.992334 1_655
O5 Ru1 2.065884 1_655
O5 Ru2 2.088431 1_555
O6 Ru2 2.043927 1_455
O6 Ru1 2.063182 1_555
O7 Ru2 2.037981 1_555
O8 Ru2 2.054876 1_555
O8 Ru3 2.067535 1_555
O9 Ru3 2.066636 1_555
O9 Ru2 2.084561 1_555
O10 Ru2 2.034026 1_555
O11 Ru3 2.001229 1_555
O12 Ru3 2.006142 1_545
O13 Ru0 2.020283 1_556
O14 Ru3 2.053474 1_545
O14 Ru0 2.061852 1_556
O15 Ru3 2.065119 1_545
O15 Ru0 2.067219 1_556
