# generated using pymatgen
data_Fe5(OF4)2
_symmetry_space_group_name_H-M   'P 1'
_cell_length_a   4.81939100
_cell_length_b   7.98772788
_cell_length_c   10.08367213
_cell_angle_alpha   108.05289454
_cell_angle_beta   90.00000000
_cell_angle_gamma   90.00000000
_symmetry_Int_Tables_number   1
_chemical_formula_structural   Fe5(OF4)2
_chemical_formula_sum   'Fe10 O4 F16'
_cell_volume   369.07105755
_cell_formula_units_Z   2
loop_
 _symmetry_equiv_pos_site_id
 _symmetry_equiv_pos_as_xyz
  1  'x, y, z'
loop_
 _atom_site_type_symbol
 _atom_site_label
 _atom_site_symmetry_multiplicity
 _atom_site_fract_x
 _atom_site_fract_y
 _atom_site_fract_z
 _atom_site_occupancy
  Fe  Fe0  1  0.46347500  0.30871200  0.88794500  1
  Fe  Fe1  1  0.52221200  0.10160400  0.29446400  1
  Fe  Fe2  1  0.49300700  0.91563300  0.70151100  1
  Fe  Fe3  1  0.48484800  0.68728500  0.08980000  1
  Fe  Fe4  1  0.52545500  0.50696500  0.49675000  1
  Fe  Fe5  1  0.02221200  0.59839600  0.80553600  1
  Fe  Fe6  1  0.02545500  0.19303500  0.60325000  1
  Fe  Fe7  1  0.99300700  0.78436700  0.39848900  1
  Fe  Fe8  1  0.96347500  0.39128800  0.21205500  1
  Fe  Fe9  1  0.98484800  0.01271500  0.01020000  1
  O  O0  1  0.81062200  0.55091900  0.36849200  1
  O  O1  1  0.79242200  0.16893700  0.19080800  1
  O  O2  1  0.31062200  0.14908100  0.73150800  1
  O  O3  1  0.29242200  0.53106300  0.90919200  1
  F  F0  1  0.80169600  0.75177700  0.97438500  1
  F  F1  1  0.81337600  0.95797700  0.57453700  1
  F  F2  1  0.79525400  0.37676600  0.78019500  1
  F  F3  1  0.70165000  0.08161100  0.88890600  1
  F  F4  1  0.71119600  0.66870700  0.69149700  1
  F  F5  1  0.70688700  0.44370900  0.06492300  1
  F  F6  1  0.68544700  0.86554300  0.27329000  1
  F  F7  1  0.69245100  0.24437700  0.47972800  1
  F  F8  1  0.31337600  0.74202300  0.52546300  1
  F  F9  1  0.29525400  0.32323400  0.31980500  1
  F  F10  1  0.30169600  0.94822300  0.12561500  1
  F  F11  1  0.19245100  0.45562300  0.62027200  1
  F  F12  1  0.21119600  0.03129300  0.40850300  1
  F  F13  1  0.18544700  0.83445700  0.82671000  1
  F  F14  1  0.20688700  0.25629100  0.03507700  1
  F  F15  1  0.20165000  0.61838900  0.21109400  1
loop_
_geom_bond_atom_site_label_1
_geom_bond_atom_site_label_2
_geom_bond_distance
_geom_bond_site_symmetry_2
Fe0 O2 1.846686 1_555
Fe0 O3 1.908954 1_555
Fe1 O1 1.850961 1_555
Fe2 O2 1.997924 1_565
Fe3 O3 2.079757 1_554
Fe4 O0 1.991516 1_555
Fe5 O3 1.850961 1_555
Fe6 O2 1.991516 1_555
Fe7 O0 1.997924 1_555
Fe8 O0 1.846686 1_555
Fe8 O1 1.908954 1_555
Fe9 O1 2.079757 1_555
F0 Fe5 2.058278 1_655
F0 Fe3 2.079225 1_556
F0 Fe9 2.187996 1_566
F1 Fe7 2.073191 1_555
F1 Fe6 2.077709 1_665
F1 Fe2 2.099053 1_555
F2 Fe5 2.028633 1_655
F2 Fe0 2.097330 1_555
F2 Fe6 2.223797 1_655
F3 Fe9 2.019597 1_556
F3 Fe0 2.149242 1_555
F3 Fe2 2.187871 1_545
F4 Fe5 2.069969 1_655
F4 Fe4 2.180449 1_555
F4 Fe2 2.209697 1_555
F5 Fe8 2.071400 1_555
F5 Fe0 2.128612 1_554
F5 Fe3 2.165863 1_555
F6 Fe1 1.992587 1_565
F6 Fe7 2.172254 1_555
F6 Fe3 2.180055 1_555
F7 Fe1 2.035490 1_555
F7 Fe6 2.147514 1_655
F7 Fe4 2.203063 1_555
F8 Fe2 2.073191 1_555
F8 Fe4 2.077709 1_555
F8 Fe7 2.099053 1_455
F9 Fe1 2.028633 1_555
F9 Fe8 2.097330 1_455
F9 Fe4 2.223797 1_555
F10 Fe1 2.058278 1_565
F10 Fe9 2.079225 1_465
F10 Fe3 2.187996 1_555
F11 Fe5 2.035490 1_555
F11 Fe4 2.147514 1_555
F11 Fe6 2.203063 1_555
F12 Fe1 2.069969 1_555
F12 Fe6 2.180449 1_555
F12 Fe7 2.209697 1_445
F13 Fe5 1.992587 1_555
F13 Fe2 2.172254 1_555
F13 Fe9 2.180055 1_466
F14 Fe0 2.071400 1_554
F14 Fe8 2.128612 1_455
F14 Fe9 2.165863 1_455
F15 Fe3 2.019597 1_555
F15 Fe8 2.149242 1_455
F15 Fe7 2.187871 1_455
