# generated using pymatgen
data_Li2Mn2P4H6O17
_symmetry_space_group_name_H-M   'P 1'
_cell_length_a   8.57497260
_cell_length_b   8.95547435
_cell_length_c   9.16247620
_cell_angle_alpha   116.19937302
_cell_angle_beta   100.29452481
_cell_angle_gamma   89.89130218
_symmetry_Int_Tables_number   1
_chemical_formula_structural   Li2Mn2P4H6O17
_chemical_formula_sum   'Li4 Mn4 P8 H12 O34'
_cell_volume   618.79617507
_cell_formula_units_Z   2
loop_
 _symmetry_equiv_pos_site_id
 _symmetry_equiv_pos_as_xyz
  1  'x, y, z'
loop_
 _atom_site_type_symbol
 _atom_site_label
 _atom_site_symmetry_multiplicity
 _atom_site_fract_x
 _atom_site_fract_y
 _atom_site_fract_z
 _atom_site_occupancy
  Li  Li0  1  0.24971733  0.81884474  0.89418075  1
  Li  Li1  1  0.66689384  0.24855878  0.47604118  1
  Li  Li2  1  0.33310616  0.75144122  0.52395882  1
  Li  Li3  1  0.75028267  0.18115526  0.10581925  1
  Mn  Mn0  1  0.13419243  0.29427995  0.74858731  1
  Mn  Mn1  1  0.63385153  0.78574806  0.73633331  1
  Mn  Mn2  1  0.36614847  0.21425194  0.26366669  1
  Mn  Mn3  1  0.86580757  0.70572005  0.25141269  1
  P  P0  1  0.41156647  0.08839665  0.85891275  1
  P  P1  1  0.90681612  0.59306458  0.83943135  1
  P  P2  1  0.44172773  0.45144824  0.70155475  1
  P  P3  1  0.13895946  0.00353164  0.35217176  1
  P  P4  1  0.86104054  0.99646836  0.64782824  1
  P  P5  1  0.55827227  0.54855176  0.29844525  1
  P  P6  1  0.09318388  0.40693542  0.16056865  1
  P  P7  1  0.58843353  0.91160335  0.14108725  1
  H  H0  1  0.95672869  0.20631129  0.94557635  1
  H  H1  1  0.56947236  0.29892406  0.90880968  1
  H  H2  1  0.66959412  0.50298171  0.89662292  1
  H  H3  1  0.69816010  0.97904562  0.43710255  1
  H  H4  1  0.14864540  0.59978756  0.61288347  1
  H  H5  1  0.06570783  0.75039210  0.59370157  1
  H  H6  1  0.93429217  0.24960790  0.40629843  1
  H  H7  1  0.85135460  0.40021244  0.38711653  1
  H  H8  1  0.30183990  0.02095438  0.56289745  1
  H  H9  1  0.33040588  0.49701829  0.10337708  1
  H  H10  1  0.43052764  0.70107594  0.09119032  1
  H  H11  1  0.04327131  0.79368871  0.05442365  1
  O  O0  1  0.33105226  0.06608412  0.98172747  1
  O  O1  1  0.56547941  0.21291391  0.95132956  1
  O  O2  1  0.30821606  0.15815407  0.75152794  1
  O  O3  1  0.82632211  0.58670170  0.97228975  1
  O  O4  1  0.05121038  0.73142022  0.93354025  1
  O  O5  1  0.98770798  0.14004322  0.76609065  1
  O  O6  1  0.56192251  0.43027817  0.84176609  1
  O  O7  1  0.27480411  0.45323298  0.74166725  1
  O  O8  1  0.73633093  0.06962397  0.55238421  1
  O  O9  1  0.07506606  0.15158287  0.47890518  1
  O  O10  1  0.96651667  0.42807173  0.73129767  1
  O  O11  1  0.47698334  0.62512404  0.71715004  1
  O  O12  1  0.45677696  0.31076549  0.53707782  1
  O  O13  1  0.79333144  0.63477337  0.71639520  1
  O  O14  1  0.16548038  0.71681354  0.63961746  1
  O  O15  1  0.45884334  0.92316517  0.73296787  1
  O  O16  1  0.78256420  0.95617398  0.76433054  1
  O  O17  1  0.21743580  0.04382602  0.23566946  1
  O  O18  1  0.54115666  0.07683483  0.26703213  1
  O  O19  1  0.83451962  0.28318646  0.36038254  1
  O  O20  1  0.20666856  0.36522663  0.28360480  1
  O  O21  1  0.54322304  0.68923451  0.46292218  1
  O  O22  1  0.52301666  0.37487596  0.28284996  1
  O  O23  1  0.03348333  0.57192827  0.26870233  1
  O  O24  1  0.92493394  0.84841713  0.52109482  1
  O  O25  1  0.26366907  0.93037603  0.44761579  1
  O  O26  1  0.72519589  0.54676702  0.25833275  1
  O  O27  1  0.43807749  0.56972183  0.15823391  1
  O  O28  1  0.01229202  0.85995678  0.23390935  1
  O  O29  1  0.94878962  0.26857978  0.06645975  1
  O  O30  1  0.17367789  0.41329830  0.02771025  1
  O  O31  1  0.69178394  0.84184593  0.24847206  1
  O  O32  1  0.43452059  0.78708609  0.04867044  1
  O  O33  1  0.66894774  0.93391588  0.01827253  1
loop_
_geom_bond_atom_site_label_1
_geom_bond_atom_site_label_2
_geom_bond_distance
_geom_bond_site_symmetry_2
Li0 O4 2.028364 1_555
Li0 O32 2.036619 1_556
Li0 O0 2.066388 1_565
Li0 O14 2.077350 1_555
Li1 O18 1.965386 1_555
Li1 O12 1.987620 1_555
Li1 O19 2.030159 1_555
Li1 O8 2.061288 1_555
Li2 O15 1.965386 1_555
Li2 O21 1.987620 1_555
Li2 O14 2.030159 1_555
Li2 O25 2.061288 1_555
Li3 O29 2.028364 1_555
Li3 O1 2.036619 1_554
Li3 O33 2.066388 1_545
Li3 O19 2.077350 1_555
Mn0 O7 1.896765 1_555
Mn0 O10 1.899387 1_455
Mn0 O2 1.929092 1_555
Mn0 O5 1.945656 1_455
Mn0 O9 2.182256 1_555
Mn0 O30 2.253047 1_556
Mn1 O16 1.888423 1_555
Mn1 O13 1.896245 1_555
Mn1 O11 1.899754 1_555
Mn1 O15 1.943565 1_555
Mn1 O21 2.240864 1_555
Mn1 O33 2.285053 1_556
Mn2 O17 1.888423 1_555
Mn2 O20 1.896245 1_555
Mn2 O22 1.899754 1_555
Mn2 O18 1.943565 1_555
Mn2 O12 2.240864 1_555
Mn2 O0 2.285053 1_554
Mn3 O26 1.896765 1_555
Mn3 O23 1.899387 1_655
Mn3 O31 1.929092 1_555
Mn3 O28 1.945656 1_655
Mn3 O24 2.182256 1_555
Mn3 O3 2.253047 1_554
H0 O29 1.011827 1_556
H0 O5 1.555965 1_555
H1 O1 1.008015 1_555
H1 O6 1.545595 1_555
H2 O6 1.037524 1_555
H2 O3 1.435542 1_555
H3 O8 1.000855 1_565
H3 O31 1.609704 1_555
H4 O14 0.969769 1_555
H5 O14 0.990689 1_555
H5 O24 1.701470 1_455
H6 O19 0.990689 1_555
H6 O9 1.701470 1_655
H7 O19 0.969769 1_555
H8 O25 1.000855 1_545
H8 O2 1.609704 1_555
H9 O27 1.037524 1_555
H9 O30 1.435542 1_555
H10 O32 1.008015 1_555
H10 O27 1.545595 1_555
H11 O4 1.011827 1_554
H11 O28 1.555965 1_555
O0 P0 1.503199 1_555
O1 P0 1.573134 1_555
O2 P0 1.540365 1_555
O3 P1 1.524214 1_555
O4 P1 1.578817 1_455
O5 P4 1.536734 1_545
O6 P2 1.577879 1_555
O7 P2 1.538471 1_555
O8 P4 1.583202 1_545
O9 P3 1.507203 1_555
O10 P1 1.520765 1_555
O11 P2 1.523492 1_555
O12 P2 1.505802 1_555
O13 P1 1.528291 1_555
O15 P0 1.530604 1_565
O16 P4 1.523249 1_555
O17 P3 1.523249 1_555
O18 P7 1.530604 1_545
O20 P6 1.528291 1_555
O21 P5 1.505802 1_555
O22 P5 1.523492 1_555
O23 P6 1.520765 1_555
O24 P4 1.507203 1_555
O25 P3 1.583202 1_565
O26 P5 1.538471 1_555
O27 P5 1.577879 1_555
O28 P3 1.536734 1_565
O29 P6 1.578817 1_655
O30 P6 1.524214 1_555
O31 P7 1.540365 1_555
O32 P7 1.573134 1_555
O33 P7 1.503199 1_555
