# generated using pymatgen
data_Pr4Se3(O5F3)2
_symmetry_space_group_name_H-M   'P 1'
_cell_length_a   11.87695907
_cell_length_b   11.87695907
_cell_length_c   8.44072339
_cell_angle_alpha   81.32627781
_cell_angle_beta   81.32627781
_cell_angle_gamma   35.28785153
_symmetry_Int_Tables_number   1
_chemical_formula_structural   Pr4Se3(O5F3)2
_chemical_formula_sum   'Pr8 Se6 O20 F12'
_cell_volume   679.16225102
_cell_formula_units_Z   2
loop_
 _symmetry_equiv_pos_site_id
 _symmetry_equiv_pos_as_xyz
  1  'x, y, z'
loop_
 _atom_site_type_symbol
 _atom_site_label
 _atom_site_symmetry_multiplicity
 _atom_site_fract_x
 _atom_site_fract_y
 _atom_site_fract_z
 _atom_site_occupancy
  Pr  Pr0  1  0.15141500  0.27403000  0.33063800  1
  Pr  Pr1  1  0.45121000  0.29027900  0.53489100  1
  Pr  Pr2  1  0.54878900  0.71142700  0.46487800  1
  Pr  Pr3  1  0.28287000  0.14666200  0.83175000  1
  Pr  Pr4  1  0.70869500  0.54654200  0.96758800  1
  Pr  Pr5  1  0.84835500  0.72478600  0.67087500  1
  Pr  Pr6  1  0.72366300  0.84915200  0.16725900  1
  Pr  Pr7  1  0.28378000  0.45515100  0.02664500  1
  Se  Se0  1  0.01751300  0.16989800  0.63873600  1
  Se  Se1  1  0.61496500  0.38403200  0.25402200  1
  Se  Se2  1  0.82433900  0.98838000  0.86312700  1
  Se  Se3  1  0.16568800  0.01778300  0.13846100  1
  Se  Se4  1  0.98282800  0.82881300  0.37177200  1
  Se  Se5  1  0.39262600  0.61077500  0.75296300  1
  O  O0  1  0.41900200  0.45546600  0.24046700  1
  O  O1  1  0.24563300  0.71272000  0.91666000  1
  O  O2  1  0.96141400  0.75310700  0.90223800  1
  O  O3  1  0.58605700  0.53824500  0.75123700  1
  O  O4  1  0.88751900  0.36856200  0.49496600  1
  O  O5  1  0.11340200  0.63141700  0.51156600  1
  O  O6  1  0.35735300  0.89850400  0.99476100  1
  O  O7  1  0.24794800  0.04517500  0.59889500  1
  O  O8  1  0.75489200  0.28599600  0.07637200  1
  O  O9  1  0.25586700  0.98087200  0.30799600  1
  O  O10  1  0.73674400  0.03114200  0.69190100  1
  O  O11  1  0.63405600  0.10903800  0.01394100  1
  O  O12  1  0.97828200  0.25777700  0.80457500  1
  O  O13  1  0.45993500  0.41343900  0.74567700  1
  O  O14  1  0.29278900  0.74523600  0.57550000  1
  O  O15  1  0.54686100  0.57521800  0.25484200  1
  O  O16  1  0.71059900  0.24976800  0.41401800  1
  O  O17  1  0.03876500  0.25437000  0.10123600  1
  O  O18  1  0.02223000  0.74235300  0.19610900  1
  O  O19  1  0.75405200  0.95514200  0.39666400  1
  F  F0  1  0.48853200  0.95901200  0.36701400  1
  F  F1  1  0.35198100  0.29394500  0.29625900  1
  F  F2  1  0.64082700  0.71544100  0.70653900  1
  F  F3  1  0.35036900  0.15419600  0.07921800  1
  F  F4  1  0.15127400  0.35231800  0.58182400  1
  F  F5  1  0.04141300  0.51550900  0.13206800  1
  F  F6  1  0.29341600  0.35280800  0.79787300  1
  F  F7  1  0.64430700  0.84405900  0.91790400  1
  F  F8  1  0.51705000  0.03436700  0.63830100  1
  F  F9  1  0.97096400  0.47884400  0.86568000  1
  F  F10  1  0.71500700  0.63996200  0.19996200  1
  F  F11  1  0.84600300  0.64934300  0.41665800  1
loop_
_geom_bond_atom_site_label_1
_geom_bond_atom_site_label_2
_geom_bond_distance
_geom_bond_site_symmetry_2
O0 Se1 1.725483 1_555
O0 Pr7 2.592833 1_555
O0 Pr1 2.786106 1_555
O1 Se5 1.658082 1_555
O1 Pr7 2.726360 1_556
O2 Se2 1.739211 1_555
O2 Pr7 2.501518 1_656
O2 Pr5 2.730636 1_555
O2 Pr6 2.807987 1_556
O3 Se5 1.668254 1_555
O3 Pr4 2.560669 1_555
O3 Pr2 2.757859 1_555
O4 Se0 1.782699 1_655
O4 Pr2 2.466472 1_555
O4 Pr0 2.534125 1_655
O5 Se4 1.753804 1_455
O5 Pr1 2.451874 1_555
O5 Pr5 2.534088 1_455
O6 Se3 1.755249 1_566
O6 Pr3 2.500030 1_565
O6 Pr4 2.542311 1_555
O7 Se0 1.746984 1_555
O7 Pr2 2.602011 1_545
O7 Pr3 2.695286 1_555
O7 Pr0 2.769251 1_555
O8 Se1 1.726878 1_555
O8 Pr4 2.691314 1_554
O9 Se3 1.701066 1_565
O9 Pr2 2.456412 1_555
O9 Pr0 2.603123 1_565
O10 Se2 1.672910 1_545
O10 Pr1 2.411546 1_555
O10 Pr5 2.697710 1_545
O11 Se2 1.782397 1_544
O11 Pr6 2.486484 1_545
O11 Pr7 2.509356 1_555
O12 Se0 1.648012 1_655
O12 Pr4 2.464762 1_555
O12 Pr3 2.691877 1_655
O13 Se5 1.762356 1_555
O13 Pr1 2.530604 1_555
O13 Pr7 2.722639 1_556
O14 Se5 1.709663 1_555
O14 Pr2 2.746158 1_555
O15 Se1 1.677804 1_555
O15 Pr2 2.588130 1_555
O15 Pr4 2.732035 1_554
O16 Se1 1.585253 1_555
O16 Pr1 2.746565 1_555
O17 Se3 1.796754 1_555
O17 Pr4 2.574372 1_454
O17 Pr0 2.649851 1_555
O17 Pr3 2.837234 1_554
O18 Se4 1.713881 1_455
O18 Pr7 2.482784 1_555
O18 Pr6 2.658395 1_455
O19 Se4 1.716303 1_555
O19 Pr1 2.627650 1_565
O19 Pr6 2.674342 1_555
O19 Pr5 2.822452 1_555
F0 Pr6 2.374642 1_555
F0 Pr0 2.385897 1_565
F0 Pr2 2.418986 1_555
F1 Pr1 2.460431 1_555
F1 Pr7 2.492163 1_555
F1 Pr0 2.550540 1_555
F2 Pr4 2.468147 1_555
F2 Pr2 2.478892 1_555
F2 Pr5 2.528027 1_555
F3 Pr3 2.385871 1_554
F3 Pr0 2.453780 1_555
F3 Pr6 2.700703 1_545
F3 Pr7 2.934515 1_555
F4 Pr0 2.439422 1_555
F4 Pr3 2.463163 1_555
F4 Pr5 2.698756 1_455
F4 Pr1 2.960966 1_555
F5 Pr6 2.374095 1_455
F5 Pr7 2.375493 1_555
F5 Pr0 2.415619 1_555
F6 Pr7 2.373509 1_556
F6 Pr1 2.441611 1_555
F6 Pr3 2.524032 1_555
F7 Pr5 2.447410 1_555
F7 Pr6 2.460019 1_556
F7 Pr3 2.615326 1_565
F7 Pr4 2.912949 1_555
F8 Pr3 2.326382 1_555
F8 Pr5 2.341007 1_545
F8 Pr1 2.477334 1_555
F9 Pr3 2.351952 1_655
F9 Pr5 2.384551 1_555
F9 Pr4 2.530029 1_555
F10 Pr4 2.433178 1_554
F10 Pr2 2.474532 1_555
F10 Pr6 2.541906 1_555
F11 Pr6 2.441517 1_555
F11 Pr5 2.459037 1_555
F11 Pr0 2.709265 1_655
F11 Pr2 2.928844 1_555
