# generated using pymatgen
data_LiMnSiO4
_symmetry_space_group_name_H-M   'P 1'
_cell_length_a   10.28389100
_cell_length_b   5.72788600
_cell_length_c   10.32999119
_cell_angle_alpha   89.40117281
_cell_angle_beta   90.00000000
_cell_angle_gamma   90.00000000
_symmetry_Int_Tables_number   1
_chemical_formula_structural   LiMnSiO4
_chemical_formula_sum   'Li8 Mn8 Si8 O32'
_cell_volume   608.45443555
_cell_formula_units_Z   8
loop_
 _symmetry_equiv_pos_site_id
 _symmetry_equiv_pos_as_xyz
  1  'x, y, z'
loop_
 _atom_site_type_symbol
 _atom_site_label
 _atom_site_symmetry_multiplicity
 _atom_site_fract_x
 _atom_site_fract_y
 _atom_site_fract_z
 _atom_site_occupancy
  Li  Li0  1  0.15994500  0.87945800  0.85206300  1
  Li  Li1  1  0.34005500  0.87945800  0.35206300  1
  Li  Li2  1  0.62776400  0.63623800  0.60405900  1
  Li  Li3  1  0.87223600  0.63623800  0.10405900  1
  Li  Li4  1  0.12776400  0.36376200  0.89594100  1
  Li  Li5  1  0.37223600  0.36376200  0.39594100  1
  Li  Li6  1  0.65994500  0.12054200  0.64793700  1
  Li  Li7  1  0.84005500  0.12054200  0.14793700  1
  Mn  Mn0  1  0.87331000  0.84527300  0.51947200  1
  Mn  Mn1  1  0.62669000  0.84527300  0.01947200  1
  Mn  Mn2  1  0.40939000  0.63785100  0.77688300  1
  Mn  Mn3  1  0.09061000  0.63785100  0.27688300  1
  Mn  Mn4  1  0.90939000  0.36214900  0.72311700  1
  Mn  Mn5  1  0.59061000  0.36214900  0.22311700  1
  Mn  Mn6  1  0.37331000  0.15472700  0.98052800  1
  Mn  Mn7  1  0.12669000  0.15472700  0.48052800  1
  Si  Si0  1  0.89256200  0.87602300  0.82982900  1
  Si  Si1  1  0.60743800  0.87602300  0.32982900  1
  Si  Si2  1  0.14748600  0.62546400  0.58448900  1
  Si  Si3  1  0.35251400  0.62546400  0.08448900  1
  Si  Si4  1  0.64748600  0.37453600  0.91551100  1
  Si  Si5  1  0.85251400  0.37453600  0.41551100  1
  Si  Si6  1  0.39256200  0.12397700  0.67017100  1
  Si  Si7  1  0.10743800  0.12397700  0.17017100  1
  O  O0  1  0.80082200  0.88230600  0.96175100  1
  O  O1  1  0.48938200  0.89255500  0.66955500  1
  O  O2  1  0.69917800  0.88230600  0.46175100  1
  O  O3  1  0.01061800  0.89255500  0.16955500  1
  O  O4  1  0.80376400  0.88431600  0.69440200  1
  O  O5  1  0.05021800  0.85306400  0.58044000  1
  O  O6  1  0.69623600  0.88431600  0.19440200  1
  O  O7  1  0.44978200  0.85306400  0.08044000  1
  O  O8  1  0.24675500  0.67341800  0.70065400  1
  O  O9  1  0.98104800  0.63658200  0.83612500  1
  O  O10  1  0.25324500  0.67341800  0.20065400  1
  O  O11  1  0.51895200  0.63658200  0.33612500  1
  O  O12  1  0.56603500  0.61965900  0.88219400  1
  O  O13  1  0.29216900  0.58212500  0.93968100  1
  O  O14  1  0.93396500  0.61965900  0.38219400  1
  O  O15  1  0.20783100  0.58212500  0.43968100  1
  O  O16  1  0.79216900  0.41787500  0.56031900  1
  O  O17  1  0.06603500  0.38034100  0.61780600  1
  O  O18  1  0.70783100  0.41787500  0.06031900  1
  O  O19  1  0.43396500  0.38034100  0.11780600  1
  O  O20  1  0.48104800  0.36341800  0.66387500  1
  O  O21  1  0.74675500  0.32658200  0.79934600  1
  O  O22  1  0.01895200  0.36341800  0.16387500  1
  O  O23  1  0.75324500  0.32658200  0.29934600  1
  O  O24  1  0.55021800  0.14693600  0.91956000  1
  O  O25  1  0.30376400  0.11568400  0.80559800  1
  O  O26  1  0.94978200  0.14693600  0.41956000  1
  O  O27  1  0.19623600  0.11568400  0.30559800  1
  O  O28  1  0.98938200  0.10744500  0.83044500  1
  O  O29  1  0.30082200  0.11769400  0.53824900  1
  O  O30  1  0.51061800  0.10744500  0.33044500  1
  O  O31  1  0.19917800  0.11769400  0.03824900  1
loop_
_geom_bond_atom_site_label_1
_geom_bond_atom_site_label_2
_geom_bond_distance
_geom_bond_site_symmetry_2
Li0 O25 2.057940 1_565
Li0 O8 2.162094 1_555
Li0 O28 2.196771 1_465
Li0 O9 2.313427 1_455
Li0 O13 2.352973 1_555
Li0 O31 2.403920 1_566
Li1 O27 2.057940 1_565
Li1 O10 2.162094 1_555
Li1 O30 2.196771 1_565
Li1 O11 2.313427 1_555
Li1 O15 2.352973 1_555
Li1 O29 2.403920 1_565
Li2 O16 2.153812 1_555
Li2 O2 2.154906 1_555
Li2 O1 2.158523 1_555
Li2 O20 2.253908 1_555
Li2 O4 2.488728 1_555
Li3 O18 2.153812 1_555
Li3 O0 2.154906 1_554
Li3 O3 2.158523 1_655
Li3 O22 2.253908 1_655
Li3 O6 2.488728 1_555
Li4 O13 2.153812 1_555
Li4 O31 2.154906 1_556
Li4 O28 2.158523 1_455
Li4 O9 2.253908 1_455
Li4 O25 2.488728 1_555
Li5 O15 2.153812 1_555
Li5 O29 2.154906 1_555
Li5 O30 2.158523 1_555
Li5 O11 2.253908 1_555
Li5 O27 2.488728 1_555
Li6 O4 2.057940 1_545
Li6 O21 2.162094 1_555
Li6 O1 2.196771 1_545
Li6 O20 2.313427 1_555
Li6 O16 2.352973 1_555
Li6 O2 2.403920 1_545
Li7 O6 2.057940 1_545
Li7 O23 2.162094 1_555
Li7 O3 2.196771 1_645
Li7 O22 2.313427 1_655
Li7 O18 2.352973 1_555
Li7 O0 2.403920 1_544
Mn0 O2 1.898598 1_555
Mn0 O5 1.925899 1_655
Mn0 O4 1.958396 1_555
Mn0 O14 2.026910 1_555
Mn0 O26 2.152211 1_565
Mn0 O16 2.616463 1_555
Mn1 O0 1.898598 1_554
Mn1 O7 1.925899 1_555
Mn1 O6 1.958396 1_555
Mn1 O12 2.026910 1_554
Mn1 O24 2.152211 1_564
Mn1 O18 2.616463 1_555
Mn2 O8 1.858910 1_555
Mn2 O12 1.946020 1_555
Mn2 O1 2.000138 1_555
Mn2 O13 2.090929 1_555
Mn2 O20 2.101215 1_555
Mn3 O10 1.858910 1_555
Mn3 O14 1.946020 1_455
Mn3 O3 2.000138 1_555
Mn3 O15 2.090929 1_555
Mn3 O22 2.101215 1_555
Mn4 O21 1.858910 1_555
Mn4 O17 1.946020 1_655
Mn4 O28 2.000138 1_555
Mn4 O16 2.090929 1_555
Mn4 O9 2.101215 1_555
Mn5 O23 1.858910 1_555
Mn5 O19 1.946020 1_555
Mn5 O30 2.000138 1_555
Mn5 O18 2.090929 1_555
Mn5 O11 2.101215 1_555
Mn6 O31 1.898598 1_556
Mn6 O24 1.925899 1_555
Mn6 O25 1.958396 1_555
Mn6 O19 2.026910 1_556
Mn6 O7 2.152211 1_546
Mn6 O13 2.616463 1_555
Mn7 O29 1.898598 1_555
Mn7 O26 1.925899 1_455
Mn7 O27 1.958396 1_555
Mn7 O17 2.026910 1_555
Mn7 O5 2.152211 1_545
Mn7 O15 2.616463 1_555
O0 Si0 1.658163 1_555
O1 Si6 1.657925 1_565
O2 Si1 1.658163 1_555
O3 Si7 1.657925 1_565
O4 Si0 1.670889 1_555
O5 Si2 1.643394 1_555
O6 Si1 1.670889 1_555
O7 Si3 1.643394 1_555
O8 Si2 1.601398 1_555
O9 Si0 1.646638 1_555
O10 Si3 1.601398 1_555
O11 Si1 1.646638 1_555
O12 Si4 1.667722 1_555
O13 Si3 1.640768 1_556
O14 Si5 1.667722 1_555
O15 Si2 1.640768 1_555
O16 Si5 1.640768 1_555
O17 Si2 1.667722 1_555
O18 Si4 1.640768 1_554
O19 Si3 1.667722 1_555
O20 Si6 1.646638 1_555
O21 Si4 1.601398 1_555
O22 Si7 1.646638 1_555
O23 Si5 1.601398 1_555
O24 Si4 1.643394 1_555
O25 Si6 1.670889 1_555
O26 Si5 1.643394 1_555
O27 Si7 1.670889 1_555
O28 Si0 1.657925 1_545
O29 Si6 1.658163 1_555
O30 Si1 1.657925 1_545
O31 Si7 1.658163 1_555
