# generated using pymatgen
data_Li10Fe3Ni7O20
_symmetry_space_group_name_H-M   'P 1'
_cell_length_a   2.84887400
_cell_length_b   5.16103100
_cell_length_c   24.04624648
_cell_angle_alpha   88.04354395
_cell_angle_beta   90.00000000
_cell_angle_gamma   90.00000000
_symmetry_Int_Tables_number   1
_chemical_formula_structural   Li10Fe3Ni7O20
_chemical_formula_sum   'Li10 Fe3 Ni7 O20'
_cell_volume   353.34891578
_cell_formula_units_Z   1
loop_
 _symmetry_equiv_pos_site_id
 _symmetry_equiv_pos_as_xyz
  1  'x, y, z'
loop_
 _atom_site_type_symbol
 _atom_site_label
 _atom_site_symmetry_multiplicity
 _atom_site_fract_x
 _atom_site_fract_y
 _atom_site_fract_z
 _atom_site_occupancy
  Li  Li0  1  0.00000000  0.80283700  0.60042000  1
  Li  Li1  1  0.00000000  0.19716300  0.39958000  1
  Li  Li2  1  0.50000000  0.00000000  0.50000000  1
  Li  Li3  1  0.50000000  0.39567100  0.29928800  1
  Li  Li4  1  0.00000000  0.59828400  0.19924600  1
  Li  Li5  1  0.50000000  0.79774100  0.09934800  1
  Li  Li6  1  0.00000000  0.00000000  0.00000000  1
  Li  Li7  1  0.50000000  0.20225900  0.90065200  1
  Li  Li8  1  0.00000000  0.40171600  0.80075400  1
  Li  Li9  1  0.50000000  0.60432900  0.70071200  1
  Fe  Fe0  1  0.50000000  0.30862400  0.60297600  1
  Fe  Fe1  1  0.00000000  0.50000000  0.50000000  1
  Fe  Fe2  1  0.50000000  0.69137600  0.39702400  1
  Ni  Ni0  1  0.00000000  0.89851300  0.29763000  1
  Ni  Ni1  1  0.50000000  0.10049100  0.19856100  1
  Ni  Ni2  1  0.00000000  0.29777300  0.09919200  1
  Ni  Ni3  1  0.50000000  0.50000000  0.00000000  1
  Ni  Ni4  1  0.00000000  0.70222700  0.90080800  1
  Ni  Ni5  1  0.50000000  0.89950900  0.80143900  1
  Ni  Ni6  1  0.00000000  0.10148700  0.70237000  1
  O  O0  1  0.00000000  0.45050100  0.65071900  1
  O  O1  1  0.00000000  0.16855600  0.55226300  1
  O  O2  1  0.50000000  0.97855000  0.65612200  1
  O  O3  1  0.50000000  0.63983700  0.54988800  1
  O  O4  1  0.00000000  0.83144400  0.44773700  1
  O  O5  1  0.50000000  0.36016300  0.45011200  1
  O  O6  1  0.00000000  0.54949900  0.34928100  1
  O  O7  1  0.00000000  0.23620000  0.24308000  1
  O  O8  1  0.50000000  0.02145000  0.34387800  1
  O  O9  1  0.50000000  0.77034700  0.25323200  1
  O  O10  1  0.00000000  0.96306600  0.15432200  1
  O  O11  1  0.50000000  0.43490500  0.14288300  1
  O  O12  1  0.50000000  0.16232900  0.05538700  1
  O  O13  1  0.00000000  0.63339500  0.04404500  1
  O  O14  1  0.00000000  0.36660500  0.95595500  1
  O  O15  1  0.50000000  0.83767100  0.94461300  1
  O  O16  1  0.00000000  0.03693400  0.84567800  1
  O  O17  1  0.50000000  0.56509500  0.85711700  1
  O  O18  1  0.50000000  0.22965300  0.74676800  1
  O  O19  1  0.00000000  0.76380000  0.75692000  1
loop_
_geom_bond_atom_site_label_1
_geom_bond_atom_site_label_2
_geom_bond_distance
_geom_bond_site_symmetry_2
Li0 O3 2.069540 1_455
Li0 O3 2.069540 1_555
Li0 O0 2.149270 1_555
Li0 O2 2.174491 1_555
Li0 O2 2.174491 1_455
Li0 O1 2.180440 1_565
Li1 O5 2.069540 1_455
Li1 O5 2.069540 1_555
Li1 O6 2.149270 1_555
Li1 O8 2.174491 1_555
Li1 O8 2.174491 1_455
Li1 O4 2.180440 1_545
Li2 O1 2.107084 1_555
Li2 O1 2.107084 1_655
Li2 O4 2.107084 1_545
Li2 O4 2.107084 1_645
Li2 O3 2.177617 1_545
Li2 O5 2.177617 1_555
Li3 O6 2.041968 1_555
Li3 O6 2.041968 1_655
Li3 O7 2.146896 1_555
Li3 O7 2.146896 1_655
Li3 O8 2.176795 1_555
Li3 O9 2.195342 1_555
Li4 O7 2.113919 1_555
Li4 O10 2.138331 1_555
Li4 O9 2.140453 1_455
Li4 O9 2.140453 1_555
Li4 O11 2.157529 1_455
Li4 O11 2.157529 1_555
Li5 O11 2.113932 1_555
Li5 O12 2.126557 1_565
Li5 O10 2.140452 1_555
Li5 O10 2.140452 1_655
Li5 O13 2.143343 1_655
Li5 O13 2.143343 1_555
Li6 O14 2.136537 1_554
Li6 O13 2.136537 1_545
Li6 O12 2.140307 1_455
Li6 O12 2.140307 1_555
Li6 O15 2.140307 1_544
Li6 O15 2.140307 1_444
Li7 O17 2.113932 1_555
Li7 O15 2.126557 1_545
Li7 O16 2.140452 1_655
Li7 O16 2.140452 1_555
Li7 O14 2.143343 1_555
Li7 O14 2.143343 1_655
Li8 O19 2.113919 1_555
Li8 O16 2.138331 1_555
Li8 O18 2.140453 1_455
Li8 O18 2.140453 1_555
Li8 O17 2.157529 1_455
Li8 O17 2.157529 1_555
Li9 O0 2.041968 1_655
Li9 O0 2.041968 1_555
Li9 O19 2.146896 1_655
Li9 O19 2.146896 1_555
Li9 O2 2.176795 1_555
Li9 O18 2.195342 1_555
Fe0 O0 1.985089 1_555
Fe0 O0 1.985089 1_655
Fe0 O1 2.024566 1_555
Fe0 O1 2.024566 1_655
Fe0 O2 2.094404 1_545
Fe0 O3 2.098255 1_555
Fe1 O3 2.011983 1_555
Fe1 O3 2.011983 1_455
Fe1 O5 2.011983 1_455
Fe1 O5 2.011983 1_555
Fe1 O4 2.087752 1_555
Fe1 O1 2.087752 1_555
Fe2 O6 1.985089 1_555
Fe2 O6 1.985089 1_655
Fe2 O4 2.024566 1_555
Fe2 O4 2.024566 1_655
Fe2 O8 2.094404 1_565
Fe2 O5 2.098255 1_555
Ni0 O9 1.911691 1_455
Ni0 O9 1.911691 1_555
Ni0 O8 1.927826 1_465
Ni0 O8 1.927826 1_565
Ni0 O7 2.145209 1_565
Ni0 O6 2.152770 1_555
Ni1 O10 1.927488 1_545
Ni1 O10 1.927488 1_645
Ni1 O7 1.927894 1_555
Ni1 O7 1.927894 1_655
Ni1 O9 2.116254 1_545
Ni1 O11 2.147915 1_555
Ni2 O12 1.917675 1_455
Ni2 O12 1.917675 1_555
Ni2 O11 1.919495 1_455
Ni2 O11 1.919495 1_555
Ni2 O10 2.141276 1_545
Ni2 O13 2.145229 1_555
Ni3 O13 1.916900 1_655
Ni3 O13 1.916900 1_555
Ni3 O14 1.916900 1_654
Ni3 O14 1.916900 1_554
Ni3 O12 2.156954 1_555
Ni3 O15 2.156954 1_554
Ni4 O15 1.917675 1_455
Ni4 O15 1.917675 1_555
Ni4 O17 1.919495 1_555
Ni4 O17 1.919495 1_455
Ni4 O16 2.141276 1_565
Ni4 O14 2.145229 1_555
Ni5 O16 1.927488 1_565
Ni5 O16 1.927488 1_665
Ni5 O19 1.927894 1_655
Ni5 O19 1.927894 1_555
Ni5 O18 2.116254 1_565
Ni5 O17 2.147915 1_555
Ni6 O18 1.911691 1_455
Ni6 O18 1.911691 1_555
Ni6 O2 1.927826 1_445
Ni6 O2 1.927826 1_545
Ni6 O19 2.145209 1_545
Ni6 O0 2.152770 1_555
