# generated using pymatgen
data_Li3MnAlO4
_symmetry_space_group_name_H-M   'P 1'
_cell_length_a   10.21668407
_cell_length_b   10.21668407
_cell_length_c   10.21668407
_cell_angle_alpha   115.59462590
_cell_angle_beta   115.59462590
_cell_angle_gamma   97.81631496
_symmetry_Int_Tables_number   1
_chemical_formula_structural   Li3MnAlO4
_chemical_formula_sum   'Li24 Mn8 Al8 O32'
_cell_volume   796.25063716
_cell_formula_units_Z   8
loop_
 _symmetry_equiv_pos_site_id
 _symmetry_equiv_pos_as_xyz
  1  'x, y, z'
loop_
 _atom_site_type_symbol
 _atom_site_label
 _atom_site_symmetry_multiplicity
 _atom_site_fract_x
 _atom_site_fract_y
 _atom_site_fract_z
 _atom_site_occupancy
  Li  Li0  1  0.92716000  0.10350000  0.15142700  1
  Li  Li1  1  0.82284000  0.14650000  0.34857300  1
  Li  Li2  1  0.52573300  0.17716000  0.32366000  1
  Li  Li3  1  0.89650000  0.04792700  0.82366000  1
  Li  Li4  1  0.44152300  0.29771700  0.13778300  1
  Li  Li5  1  0.71384100  0.57195400  0.14718800  1
  Li  Li6  1  0.22426700  0.07284000  0.17634000  1
  Li  Li7  1  0.85350000  0.20207300  0.67634000  1
  Li  Li8  1  0.70228300  0.84006500  0.14380500  1
  Li  Li9  1  0.42804600  0.57523400  0.14188700  1
  Li  Li10  1  0.79792700  0.47426700  0.65142700  1
  Li  Li11  1  0.95207300  0.77573300  0.84857300  1
  Li  Li12  1  0.32195400  0.67476600  0.35811300  1
  Li  Li13  1  0.43334800  0.28615900  0.85811300  1
  Li  Li14  1  0.04771700  0.40993500  0.35619500  1
  Li  Li15  1  0.69626000  0.55847700  0.85619500  1
  Li  Li16  1  0.03615900  0.67804600  0.35281200  1
  Li  Li17  1  0.42476600  0.56665200  0.85281200  1
  Li  Li18  1  0.59006500  0.94626000  0.63778300  1
  Li  Li19  1  0.30847700  0.95228300  0.36221700  1
  Li  Li20  1  0.15993500  0.30374000  0.86221700  1
  Li  Li21  1  0.32523400  0.68334800  0.64718800  1
  Li  Li22  1  0.05374000  0.69152300  0.64380500  1
  Li  Li23  1  0.31665200  0.96384100  0.64188700  1
  Mn  Mn0  1  0.45178000  0.92599400  0.00027700  1
  Mn  Mn1  1  0.54849700  0.54822000  0.47421400  1
  Mn  Mn2  1  0.67599400  0.17571700  0.97421400  1
  Mn  Mn3  1  0.82428300  0.79849700  0.50027700  1
  Mn  Mn4  1  0.29822000  0.32400600  0.49972300  1
  Mn  Mn5  1  0.07400600  0.07428300  0.52578600  1
  Mn  Mn6  1  0.20150300  0.70178000  0.02578600  1
  Mn  Mn7  1  0.92571700  0.45150300  0.99972300  1
  Al  Al0  1  0.75124600  0.41166000  0.30008300  1
  Al  Al1  1  0.54883800  0.24875400  0.66041400  1
  Al  Al2  1  0.16166000  0.36157600  0.16041400  1
  Al  Al3  1  0.58834000  0.88842400  0.33958600  1
  Al  Al4  1  0.63842400  0.79883800  0.80008300  1
  Al  Al5  1  0.11157600  0.45116200  0.69991700  1
  Al  Al6  1  0.99875400  0.83834000  0.19991700  1
  Al  Al7  1  0.20116200  0.00124600  0.83958600  1
  O  O0  1  0.83312300  0.26875800  0.24440200  1
  O  O1  1  0.33872100  0.08312300  0.06436500  1
  O  O2  1  0.60134600  0.35800600  0.08679000  1
  O  O3  1  0.86302100  0.64218000  0.09483400  1
  O  O4  1  0.88697900  0.60782000  0.40516600  1
  O  O5  1  0.65118600  0.39234500  0.40019000  1
  O  O6  1  0.41127900  0.16687700  0.43563500  1
  O  O7  1  0.35782000  0.45265400  0.22084100  1
  O  O8  1  0.51818700  0.11302100  0.72084100  1
  O  O9  1  0.91687700  0.98124200  0.25559800  1
  O  O10  1  0.14234500  0.24215500  0.24115900  1
  O  O11  1  0.74900400  0.34881400  0.74115900  1
  O  O12  1  0.64199400  0.72878300  0.24334000  1
  O  O13  1  0.10800600  0.52121700  0.25666000  1
  O  O14  1  0.48544300  0.39865400  0.75666000  1
  O  O15  1  0.60765500  0.00784500  0.25884100  1
  O  O16  1  0.72564400  0.66127900  0.74440200  1
  O  O17  1  0.23181300  0.13697900  0.77915900  1
  O  O18  1  0.39218000  0.79734600  0.27915900  1
  O  O19  1  0.73124200  0.97564400  0.56436500  1
  O  O20  1  0.47878300  0.73544300  0.58679000  1
  O  O21  1  0.09881400  0.85765500  0.09981000  1
  O  O22  1  0.99215500  0.25099600  0.59981000  1
  O  O23  1  0.20265400  0.48181300  0.59483400  1
  O  O24  1  0.54734600  0.76818700  0.90516600  1
  O  O25  1  0.75784500  0.99900400  0.90019000  1
  O  O26  1  0.27121700  0.51455700  0.91321000  1
  O  O27  1  0.14865400  0.89199400  0.41321000  1
  O  O28  1  0.01875800  0.27435600  0.93563500  1
  O  O29  1  0.02435600  0.58872100  0.75559800  1
  O  O30  1  0.26455700  0.85134600  0.74334000  1
  O  O31  1  0.00099600  0.90118600  0.75884100  1
loop_
_geom_bond_atom_site_label_1
_geom_bond_atom_site_label_2
_geom_bond_distance
_geom_bond_site_symmetry_2
Li0 O9 1.978231 1_545
Li0 O10 1.992476 1_655
Li0 O25 2.003583 1_544
Li0 O0 2.126033 1_555
Li1 O0 1.978231 1_555
Li1 O15 1.992476 1_555
Li1 O22 2.003583 1_555
Li1 O9 2.126033 1_545
Li2 O6 1.978231 1_555
Li2 O5 1.992476 1_555
Li2 O15 2.003583 1_555
Li2 O1 2.126033 1_555
Li3 O28 1.978231 1_655
Li3 O25 1.992476 1_545
Li3 O31 2.003583 1_645
Li3 O19 2.126033 1_545
Li4 O1 1.935115 1_555
Li4 O7 1.947232 1_555
Li4 O2 2.013888 1_555
Li4 O5 2.223981 1_555
Li5 O12 1.911568 1_555
Li5 O3 1.965282 1_555
Li5 O2 2.004535 1_555
Li5 O4 2.274012 1_555
Li6 O1 1.978231 1_555
Li6 O21 1.992476 1_545
Li6 O10 2.003583 1_555
Li6 O6 2.126033 1_555
Li7 O19 1.978231 1_545
Li7 O22 1.992476 1_555
Li7 O11 2.003583 1_555
Li7 O28 2.126033 1_655
Li8 O9 1.935116 1_555
Li8 O24 1.947227 1_554
Li8 O12 2.013897 1_555
Li8 O15 2.223991 1_565
Li9 O26 1.911575 1_554
Li9 O7 1.965282 1_555
Li9 O12 2.004531 1_555
Li9 O18 2.274012 1_555
Li10 O29 1.978231 1_655
Li10 O11 1.992476 1_555
Li10 O5 2.003583 1_555
Li10 O16 2.126033 1_555
Li11 O16 1.978231 1_555
Li11 O31 1.992476 1_655
Li11 O21 2.003583 1_656
Li11 O29 2.126033 1_655
Li12 O20 1.911575 1_555
Li12 O18 1.965282 1_555
Li12 O13 2.004531 1_555
Li12 O7 2.274012 1_555
Li13 O2 1.911571 1_556
Li13 O17 1.965290 1_555
Li13 O14 2.004527 1_555
Li13 O8 2.274005 1_555
Li14 O0 1.935116 1_455
Li14 O23 1.947227 1_555
Li14 O13 2.013897 1_555
Li14 O10 2.223991 1_555
Li15 O16 1.935124 1_555
Li15 O3 1.947225 1_556
Li15 O14 2.013892 1_555
Li15 O11 2.223983 1_555
Li16 O13 1.911568 1_555
Li16 O4 1.965282 1_455
Li16 O27 2.004535 1_555
Li16 O3 2.274012 1_455
Li17 O14 1.911560 1_555
Li17 O24 1.965291 1_555
Li17 O26 2.004520 1_555
Li17 O23 2.274015 1_555
Li18 O19 1.935124 1_555
Li18 O8 1.947225 1_565
Li18 O20 2.013897 1_555
Li18 O25 2.223983 1_555
Li19 O6 1.935115 1_565
Li19 O18 1.947232 1_555
Li19 O27 2.013888 1_555
Li19 O21 2.223981 1_555
Li20 O28 1.935124 1_555
Li20 O17 1.947225 1_555
Li20 O26 2.013897 1_555
Li20 O22 2.223983 1_455
Li21 O30 1.911560 1_555
Li21 O23 1.965291 1_555
Li21 O20 2.004520 1_555
Li21 O24 2.274015 1_555
Li22 O29 1.935124 1_555
Li22 O4 1.947225 1_455
Li22 O30 2.013892 1_555
Li22 O31 2.223983 1_555
Li23 O27 1.911571 1_555
Li23 O8 1.965290 1_565
Li23 O30 2.004527 1_555
Li23 O17 2.274005 1_565
Mn0 O15 2.075615 1_565
Mn0 O24 2.095522 1_554
Mn0 O1 2.142359 1_565
Mn0 O30 2.160200 1_554
Mn1 O5 2.075615 1_555
Mn1 O7 2.095522 1_555
Mn1 O16 2.142359 1_555
Mn1 O20 2.160203 1_555
Mn2 O25 2.075615 1_545
Mn2 O8 2.095522 1_555
Mn2 O0 2.142359 1_556
Mn2 O2 2.160203 1_556
Mn3 O31 2.075615 1_655
Mn3 O4 2.095522 1_555
Mn3 O19 2.142359 1_555
Mn3 O12 2.160200 1_555
Mn4 O10 2.075615 1_555
Mn4 O23 2.095522 1_555
Mn4 O6 2.142359 1_555
Mn4 O14 2.160200 1_555
Mn5 O22 2.075615 1_455
Mn5 O17 2.095522 1_555
Mn5 O9 2.142359 1_445
Mn5 O27 2.160203 1_545
Mn6 O21 2.075615 1_555
Mn6 O18 2.095522 1_555
Mn6 O29 2.142359 1_554
Mn6 O26 2.160203 1_554
Mn7 O11 2.075615 1_555
Mn7 O3 2.095522 1_556
Mn7 O28 2.142359 1_655
Mn7 O13 2.160200 1_656
Al0 O5 1.775643 1_555
Al0 O0 1.783443 1_555
Al0 O4 1.786297 1_555
Al0 O2 1.802977 1_555
Al1 O11 1.775634 1_555
Al1 O6 1.783445 1_555
Al1 O8 1.786299 1_555
Al1 O14 1.802991 1_555
Al2 O10 1.775634 1_555
Al2 O28 1.783445 1_554
Al2 O7 1.786299 1_555
Al2 O13 1.802991 1_555
Al3 O15 1.775634 1_565
Al3 O19 1.783445 1_555
Al3 O18 1.786299 1_555
Al3 O12 1.802991 1_555
Al4 O25 1.775632 1_555
Al4 O16 1.783443 1_555
Al4 O24 1.786308 1_555
Al4 O20 1.802978 1_555
Al5 O22 1.775632 1_455
Al5 O29 1.783443 1_555
Al5 O23 1.786308 1_555
Al5 O26 1.802978 1_555
Al6 O21 1.775643 1_655
Al6 O9 1.783443 1_555
Al6 O3 1.786297 1_555
Al6 O27 1.802977 1_655
Al7 O31 1.775634 1_545
Al7 O1 1.783445 1_556
Al7 O17 1.786299 1_555
Al7 O30 1.802991 1_545
