# generated using pymatgen
data_Mn13Cr3O32
_symmetry_space_group_name_H-M   'P 1'
_cell_length_a   8.27743037
_cell_length_b   8.27743037
_cell_length_c   10.12303018
_cell_angle_alpha   65.89637427
_cell_angle_beta   65.89637427
_cell_angle_gamma   89.94613066
_symmetry_Int_Tables_number   1
_chemical_formula_structural   Mn13Cr3O32
_chemical_formula_sum   'Mn13 Cr3 O32'
_cell_volume   566.34802684
_cell_formula_units_Z   1
loop_
 _symmetry_equiv_pos_site_id
 _symmetry_equiv_pos_as_xyz
  1  'x, y, z'
loop_
 _atom_site_type_symbol
 _atom_site_label
 _atom_site_symmetry_multiplicity
 _atom_site_fract_x
 _atom_site_fract_y
 _atom_site_fract_z
 _atom_site_occupancy
  Mn  Mn0  1  0.50000000  0.00000000  0.00000000  1
  Mn  Mn1  1  0.00000000  0.50000000  0.00000000  1
  Mn  Mn2  1  0.87447200  0.62543800  0.25018000  1
  Mn  Mn3  1  0.62543800  0.87447200  0.25018000  1
  Mn  Mn4  1  0.37522000  0.12494300  0.24999000  1
  Mn  Mn5  1  0.12494300  0.37522000  0.24999000  1
  Mn  Mn6  1  0.50000000  0.50000000  0.50000000  1
  Mn  Mn7  1  0.74944800  0.74944800  0.49991300  1
  Mn  Mn8  1  0.25055200  0.25055200  0.50008700  1
  Mn  Mn9  1  0.62478000  0.87505700  0.75001000  1
  Mn  Mn10  1  0.12552800  0.37456200  0.74982000  1
  Mn  Mn11  1  0.37456200  0.12552800  0.74982000  1
  Mn  Mn12  1  0.87505700  0.62478000  0.75001000  1
  Cr  Cr0  1  0.25010500  0.74989500  0.00000000  1
  Cr  Cr1  1  0.74989500  0.25010500  0.00000000  1
  Cr  Cr2  1  0.00000000  0.00000000  0.50000000  1
  O  O0  1  0.72641400  0.00712700  0.01557700  1
  O  O1  1  0.00712700  0.72641400  0.01557700  1
  O  O2  1  0.50719800  0.22636000  0.01549900  1
  O  O3  1  0.22636000  0.50719800  0.01549900  1
  O  O4  1  0.11653200  0.61671500  0.23510000  1
  O  O5  1  0.61671500  0.11653200  0.23510000  1
  O  O6  1  0.39803300  0.89782400  0.23495600  1
  O  O7  1  0.89782400  0.39803300  0.23495600  1
  O  O8  1  0.13294300  0.13294300  0.26555100  1
  O  O9  1  0.63254000  0.63254000  0.26488900  1
  O  O10  1  0.85252600  0.85252600  0.26477900  1
  O  O11  1  0.35220200  0.35220200  0.26494200  1
  O  O12  1  0.24316000  0.02419200  0.48447900  1
  O  O13  1  0.02419200  0.24316000  0.48447900  1
  O  O14  1  0.74202100  0.52233500  0.48512800  1
  O  O15  1  0.52233500  0.74202100  0.48512800  1
  O  O16  1  0.75684000  0.97580800  0.51552100  1
  O  O17  1  0.97580800  0.75684000  0.51552100  1
  O  O18  1  0.25797900  0.47766500  0.51487200  1
  O  O19  1  0.47766500  0.25797900  0.51487200  1
  O  O20  1  0.86705700  0.86705700  0.73444900  1
  O  O21  1  0.64779800  0.64779800  0.73505800  1
  O  O22  1  0.14747400  0.14747400  0.73522100  1
  O  O23  1  0.36746000  0.36746000  0.73511100  1
  O  O24  1  0.10217600  0.60196700  0.76504400  1
  O  O25  1  0.38328500  0.88346800  0.76490000  1
  O  O26  1  0.88346800  0.38328500  0.76490000  1
  O  O27  1  0.60196700  0.10217600  0.76504400  1
  O  O28  1  0.77364000  0.49280200  0.98450100  1
  O  O29  1  0.27358600  0.99287300  0.98442300  1
  O  O30  1  0.49280200  0.77364000  0.98450100  1
  O  O31  1  0.99287300  0.27358600  0.98442300  1
loop_
_geom_bond_atom_site_label_1
_geom_bond_atom_site_label_2
_geom_bond_distance
_geom_bond_site_symmetry_2
Mn0 O2 1.945969 1_555
Mn0 O30 1.945969 1_544
Mn0 O29 1.946761 1_544
Mn0 O0 1.946761 1_555
Mn0 O6 1.950239 1_545
Mn0 O27 1.950239 1_554
Mn1 O28 1.945969 1_454
Mn1 O3 1.945969 1_555
Mn1 O1 1.946761 1_555
Mn1 O31 1.946761 1_454
Mn1 O7 1.950239 1_455
Mn1 O24 1.950239 1_554
Mn2 O10 1.947423 1_555
Mn2 O1 1.948054 1_655
Mn2 O9 1.949183 1_555
Mn2 O14 1.949652 1_555
Mn2 O4 1.949866 1_655
Mn2 O7 1.953510 1_555
Mn3 O10 1.947423 1_555
Mn3 O0 1.948054 1_565
Mn3 O9 1.949183 1_555
Mn3 O15 1.949652 1_555
Mn3 O5 1.949866 1_565
Mn3 O6 1.953510 1_555
Mn4 O5 1.945664 1_555
Mn4 O2 1.946522 1_555
Mn4 O12 1.946921 1_555
Mn4 O8 1.949666 1_555
Mn4 O6 1.950032 1_545
Mn4 O11 1.950937 1_555
Mn5 O4 1.945664 1_555
Mn5 O3 1.946522 1_555
Mn5 O13 1.946921 1_555
Mn5 O8 1.949666 1_555
Mn5 O7 1.950032 1_455
Mn5 O11 1.950937 1_555
Mn6 O19 1.949802 1_555
Mn6 O18 1.949802 1_555
Mn6 O14 1.949802 1_555
Mn6 O15 1.949802 1_555
Mn6 O23 1.951578 1_555
Mn6 O9 1.951578 1_555
Mn7 O16 1.946611 1_555
Mn7 O17 1.946611 1_555
Mn7 O14 1.948793 1_555
Mn7 O15 1.948793 1_555
Mn7 O10 1.950755 1_555
Mn7 O21 1.952353 1_555
Mn8 O13 1.946611 1_555
Mn8 O12 1.946611 1_555
Mn8 O19 1.948793 1_555
Mn8 O18 1.948793 1_555
Mn8 O22 1.950755 1_555
Mn8 O11 1.952353 1_555
Mn9 O25 1.945664 1_555
Mn9 O30 1.946522 1_555
Mn9 O16 1.946921 1_555
Mn9 O20 1.949666 1_555
Mn9 O27 1.950032 1_565
Mn9 O21 1.950937 1_555
Mn10 O22 1.947423 1_555
Mn10 O31 1.948054 1_455
Mn10 O23 1.949183 1_555
Mn10 O18 1.949652 1_555
Mn10 O26 1.949866 1_455
Mn10 O24 1.953510 1_555
Mn11 O22 1.947423 1_555
Mn11 O29 1.948054 1_545
Mn11 O23 1.949183 1_555
Mn11 O19 1.949652 1_555
Mn11 O25 1.949866 1_545
Mn11 O27 1.953510 1_555
Mn12 O26 1.945664 1_555
Mn12 O28 1.946522 1_555
Mn12 O17 1.946921 1_555
Mn12 O20 1.949666 1_555
Mn12 O24 1.950032 1_655
Mn12 O21 1.950937 1_555
Cr0 O4 1.952414 1_555
Cr0 O25 1.952414 1_554
Cr0 O3 1.953733 1_555
Cr0 O30 1.953733 1_554
Cr0 O1 1.955599 1_555
Cr0 O29 1.955599 1_554
Cr1 O26 1.952414 1_554
Cr1 O5 1.952414 1_555
Cr1 O2 1.953733 1_555
Cr1 O28 1.953733 1_554
Cr1 O0 1.955599 1_555
Cr1 O31 1.955599 1_554
Cr2 O8 1.946934 1_555
Cr2 O20 1.946934 1_445
Cr2 O12 1.957721 1_555
Cr2 O13 1.957721 1_555
Cr2 O17 1.957721 1_445
Cr2 O16 1.957721 1_445
