# generated using pymatgen
data_RbP(HO2)2
_symmetry_space_group_name_H-M   'P 1'
_cell_length_a   6.27470700
_cell_length_b   7.66796700
_cell_length_c   9.68220197
_cell_angle_alpha   71.56414733
_cell_angle_beta   90.00000000
_cell_angle_gamma   90.00000000
_symmetry_Int_Tables_number   1
_chemical_formula_structural   RbP(HO2)2
_chemical_formula_sum   'Rb4 P4 H8 O16'
_cell_volume   441.94354515
_cell_formula_units_Z   4
loop_
 _symmetry_equiv_pos_site_id
 _symmetry_equiv_pos_as_xyz
  1  'x, y, z'
loop_
 _atom_site_type_symbol
 _atom_site_label
 _atom_site_symmetry_multiplicity
 _atom_site_fract_x
 _atom_site_fract_y
 _atom_site_fract_z
 _atom_site_occupancy
  Rb  Rb0  1  0.75717600  0.73689300  0.78106400  1
  Rb  Rb1  1  0.25717600  0.26310700  0.71893600  1
  Rb  Rb2  1  0.24282400  0.26310700  0.21893600  1
  Rb  Rb3  1  0.74282400  0.73689300  0.28106400  1
  P  P0  1  0.24577100  0.75821100  0.01941400  1
  P  P1  1  0.74577000  0.24178900  0.48058600  1
  P  P2  1  0.75422900  0.24178900  0.98058600  1
  P  P3  1  0.25422900  0.75821100  0.51941400  1
  H  H0  1  0.26362700  0.63580600  0.83674600  1
  H  H1  1  0.76362700  0.36419400  0.66325400  1
  H  H2  1  0.73637300  0.36419400  0.16325400  1
  H  H3  1  0.23637300  0.63580600  0.33674600  1
  H  H4  1  0.00000000  0.00000000  0.00000000  1
  H  H5  1  0.50000000  0.00000000  0.50000000  1
  H  H6  1  0.50000000  0.00000000  0.00000000  1
  H  H7  1  0.00000000  0.00000000  0.50000000  1
  O  O0  1  0.24062100  0.59863900  0.94737700  1
  O  O1  1  0.74062100  0.40136100  0.55262300  1
  O  O2  1  0.75937900  0.40136100  0.05262300  1
  O  O3  1  0.25937900  0.59863900  0.44737700  1
  O  O4  1  0.19055700  0.66828900  0.17867700  1
  O  O5  1  0.69055700  0.33171100  0.32132300  1
  O  O6  1  0.80944300  0.33171100  0.82132300  1
  O  O7  1  0.30944300  0.66828900  0.67867700  1
  O  O8  1  0.07787700  0.90344400  0.93652100  1
  O  O9  1  0.57787700  0.09655600  0.56347900  1
  O  O10  1  0.92212300  0.09655600  0.06347900  1
  O  O11  1  0.42212300  0.90344400  0.43652100  1
  O  O12  1  0.47309300  0.84525700  0.99460400  1
  O  O13  1  0.97309300  0.15474300  0.50539600  1
  O  O14  1  0.52690700  0.15474300  0.00539600  1
  O  O15  1  0.02690700  0.84525700  0.49460400  1
loop_
_geom_bond_atom_site_label_1
_geom_bond_atom_site_label_2
_geom_bond_distance
_geom_bond_site_symmetry_2
H0 O0 1.027787 1_555
H0 O7 1.498625 1_555
H1 O1 1.027787 1_555
H1 O6 1.498625 1_555
H2 O2 1.027787 1_555
H2 O5 1.498625 1_555
H3 O3 1.027787 1_555
H3 O4 1.498625 1_555
H4 O10 1.205209 1_455
H4 O8 1.205209 1_544
H5 O9 1.205209 1_555
H5 O11 1.205209 1_545
H6 O14 1.215886 1_555
H6 O12 1.215886 1_544
H7 O13 1.215886 1_455
H7 O15 1.215886 1_545
O0 P0 1.588861 1_556
O0 Rb2 3.042086 1_556
O1 P1 1.588860 1_555
O1 Rb3 3.042086 1_555
O2 P2 1.588861 1_554
O2 Rb0 3.042086 1_554
O3 P3 1.588861 1_555
O3 Rb1 3.042086 1_555
O4 P0 1.516836 1_555
O4 Rb2 3.024315 1_555
O4 Rb3 3.079285 1_455
O5 P1 1.516834 1_555
O5 Rb3 3.024315 1_555
O5 Rb2 3.079285 1_555
O6 P2 1.516836 1_555
O6 Rb0 3.024315 1_555
O6 Rb1 3.079285 1_655
O7 P3 1.516836 1_555
O7 Rb1 3.024315 1_555
O7 Rb0 3.079285 1_555
O8 P0 1.558481 1_556
O8 Rb0 3.026830 1_455
O8 Rb1 3.104044 1_565
O9 P1 1.558477 1_555
O9 Rb1 3.026830 1_555
O9 Rb0 3.104044 1_545
O10 P2 1.558481 1_554
O10 Rb2 3.026830 1_655
O10 Rb3 3.104044 1_545
O11 P3 1.558481 1_555
O11 Rb3 3.026830 1_555
O11 Rb2 3.104044 1_565
O12 P0 1.560885 1_556
O12 Rb0 3.037959 1_555
O12 Rb3 3.128889 1_556
O13 P1 1.560890 1_555
O13 Rb1 3.037959 1_655
O13 Rb2 3.128889 1_655
O14 P2 1.560885 1_554
O14 Rb2 3.037959 1_555
O14 Rb1 3.128889 1_554
O15 P3 1.560885 1_555
O15 Rb3 3.037959 1_455
O15 Rb0 3.128889 1_455
