# generated using pymatgen
data_Ta2Zn4O9
_symmetry_space_group_name_H-M   'P 1'
_cell_length_a   5.24377357
_cell_length_b   5.24377357
_cell_length_c   14.34692000
_cell_angle_alpha   90.00000000
_cell_angle_beta   90.00000000
_cell_angle_gamma   119.99999458
_symmetry_Int_Tables_number   1
_chemical_formula_structural   Ta2Zn4O9
_chemical_formula_sum   'Ta4 Zn8 O18'
_cell_volume   341.64667050
_cell_formula_units_Z   2
loop_
 _symmetry_equiv_pos_site_id
 _symmetry_equiv_pos_as_xyz
  1  'x, y, z'
loop_
 _atom_site_type_symbol
 _atom_site_label
 _atom_site_symmetry_multiplicity
 _atom_site_fract_x
 _atom_site_fract_y
 _atom_site_fract_z
 _atom_site_occupancy
  Ta  Ta0  1  0.00000000  0.00000000  0.14149900  1
  Ta  Ta1  1  0.00000000  0.00000000  0.35850100  1
  Ta  Ta2  1  0.00000000  0.00000000  0.64149900  1
  Ta  Ta3  1  0.00000000  0.00000000  0.85850100  1
  Zn  Zn0  1  0.33333300  0.66666700  0.01839700  1
  Zn  Zn1  1  0.33333300  0.66666700  0.30320400  1
  Zn  Zn2  1  0.33333300  0.66666700  0.51839700  1
  Zn  Zn3  1  0.33333300  0.66666700  0.80320400  1
  Zn  Zn4  1  0.66666700  0.33333300  0.19679600  1
  Zn  Zn5  1  0.66666700  0.33333300  0.48160300  1
  Zn  Zn6  1  0.66666700  0.33333300  0.69679600  1
  Zn  Zn7  1  0.66666700  0.33333300  0.98160300  1
  O  O0  1  0.00000000  0.71481100  0.75000000  1
  O  O1  1  0.02364800  0.68332300  0.41573800  1
  O  O2  1  0.31667700  0.97635200  0.91573800  1
  O  O3  1  0.02364800  0.34032400  0.91573800  1
  O  O4  1  0.00000000  0.28518900  0.25000000  1
  O  O5  1  0.28518900  0.28518900  0.75000000  1
  O  O6  1  0.31667700  0.34032400  0.41573800  1
  O  O7  1  0.65967600  0.97635200  0.41573800  1
  O  O8  1  0.34032400  0.31667700  0.08426200  1
  O  O9  1  0.28518900  0.00000000  0.25000000  1
  O  O10  1  0.65967600  0.68332300  0.91573800  1
  O  O11  1  0.34032400  0.02364800  0.58426200  1
  O  O12  1  0.68332300  0.65967600  0.58426200  1
  O  O13  1  0.71481100  0.71481100  0.25000000  1
  O  O14  1  0.97635200  0.65967600  0.08426200  1
  O  O15  1  0.68332300  0.02364800  0.08426200  1
  O  O16  1  0.71481100  0.00000000  0.75000000  1
  O  O17  1  0.97635200  0.31667700  0.58426200  1
loop_
_geom_bond_atom_site_label_1
_geom_bond_atom_site_label_2
_geom_bond_distance
_geom_bond_site_symmetry_2
O0 Zn3 2.035409 1_555
O0 Zn6 2.035412 1_455
O0 Ta3 2.158610 1_565
O0 Ta2 2.158610 1_565
O1 Ta1 1.911324 1_565
O1 Zn5 2.080813 1_455
O1 Zn2 2.226169 1_555
O1 Zn1 2.322334 1_555
O2 Ta3 1.911324 1_565
O2 Zn7 2.080813 1_565
O2 Zn0 2.226169 1_556
O2 Zn3 2.322334 1_555
O3 Ta3 1.911319 1_555
O3 Zn7 2.080813 1_455
O3 Zn0 2.226174 1_556
O3 Zn3 2.322338 1_555
O4 Zn4 2.035409 1_455
O4 Zn1 2.035412 1_555
O4 Ta1 2.158610 1_555
O4 Ta0 2.158610 1_555
O5 Zn3 2.035414 1_555
O5 Zn6 2.035414 1_555
O5 Ta3 2.158610 1_555
O5 Ta2 2.158610 1_555
O6 Ta1 1.911321 1_555
O6 Zn5 2.080813 1_555
O6 Zn2 2.226177 1_555
O6 Zn1 2.322341 1_555
O7 Ta1 1.911319 1_665
O7 Zn5 2.080813 1_565
O7 Zn2 2.226174 1_555
O7 Zn1 2.322338 1_555
O8 Ta0 1.911321 1_555
O8 Zn0 2.080813 1_555
O8 Zn7 2.226177 1_554
O8 Zn4 2.322341 1_555
O9 Zn1 2.035409 1_545
O9 Zn4 2.035412 1_555
O9 Ta1 2.158610 1_555
O9 Ta0 2.158610 1_555
O10 Ta3 1.911321 1_665
O10 Zn7 2.080813 1_555
O10 Zn0 2.226177 1_556
O10 Zn3 2.322341 1_555
O11 Ta2 1.911319 1_555
O11 Zn2 2.080813 1_545
O11 Zn5 2.226174 1_555
O11 Zn6 2.322338 1_555
O12 Ta2 1.911321 1_665
O12 Zn2 2.080813 1_555
O12 Zn5 2.226177 1_555
O12 Zn6 2.322341 1_555
O13 Zn1 2.035414 1_555
O13 Zn4 2.035414 1_555
O13 Ta1 2.158610 1_665
O13 Ta0 2.158610 1_665
O14 Ta0 1.911319 1_665
O14 Zn0 2.080813 1_655
O14 Zn7 2.226174 1_554
O14 Zn4 2.322338 1_555
O15 Ta0 1.911324 1_655
O15 Zn0 2.080813 1_545
O15 Zn7 2.226169 1_554
O15 Zn4 2.322334 1_555
O16 Zn6 2.035409 1_555
O16 Zn3 2.035412 1_545
O16 Ta3 2.158610 1_655
O16 Ta2 2.158610 1_655
O17 Ta2 1.911324 1_655
O17 Zn2 2.080813 1_655
O17 Zn5 2.226169 1_555
O17 Zn6 2.322334 1_555
