# generated using pymatgen
data_Bi8Rh8O27
_symmetry_space_group_name_H-M   'P 1'
_cell_length_a   12.66669204
_cell_length_b   12.66669204
_cell_length_c   12.66669237
_cell_angle_alpha   33.56543591
_cell_angle_beta   33.56543591
_cell_angle_gamma   33.56543567
_symmetry_Int_Tables_number   1
_chemical_formula_structural   Bi8Rh8O27
_chemical_formula_sum   'Bi8 Rh8 O27'
_cell_volume   553.36826946
_cell_formula_units_Z   1
loop_
 _symmetry_equiv_pos_site_id
 _symmetry_equiv_pos_as_xyz
  1  'x, y, z'
loop_
 _atom_site_type_symbol
 _atom_site_label
 _atom_site_symmetry_multiplicity
 _atom_site_fract_x
 _atom_site_fract_y
 _atom_site_fract_z
 _atom_site_occupancy
  Bi  Bi0  1  0.50395100  0.50395100  0.50395100  1
  Bi  Bi1  1  0.25730600  0.74375400  0.74375400  1
  Bi  Bi2  1  0.74375400  0.25730600  0.74375400  1
  Bi  Bi3  1  0.99901300  0.99901300  0.99901300  1
  Bi  Bi4  1  0.74375400  0.74375400  0.25730600  1
  Bi  Bi5  1  0.25137800  0.75026000  0.25137800  1
  Bi  Bi6  1  0.75026000  0.25137800  0.25137800  1
  Bi  Bi7  1  0.25137800  0.25137800  0.75026000  1
  Rh  Rh0  1  0.99934900  0.99934900  0.50048600  1
  Rh  Rh1  1  0.50048600  0.99934900  0.99934900  1
  Rh  Rh2  1  0.99934900  0.50048600  0.99934900  1
  Rh  Rh3  1  0.25072600  0.25072600  0.25072600  1
  Rh  Rh4  1  0.49884200  0.49884200  0.00228000  1
  Rh  Rh5  1  0.00228000  0.49884200  0.49884200  1
  Rh  Rh6  1  0.49884200  0.00228000  0.49884200  1
  Rh  Rh7  1  0.75000900  0.75000900  0.75000900  1
  O  O0  1  0.70804000  0.70804000  0.12391300  1
  O  O1  1  0.08094900  0.08094900  0.50697700  1
  O  O2  1  0.00310400  0.41553600  0.41553600  1
  O  O3  1  0.12391300  0.70804000  0.70804000  1
  O  O4  1  0.41553600  0.00310400  0.41553600  1
  O  O5  1  0.70804000  0.12391300  0.70804000  1
  O  O6  1  0.20903700  0.20903700  0.62409900  1
  O  O7  1  0.50697700  0.08094900  0.08094900  1
  O  O8  1  0.79184700  0.37122700  0.79184700  1
  O  O9  1  0.37122700  0.79184700  0.79184700  1
  O  O10  1  0.08094900  0.50697700  0.08094900  1
  O  O11  1  0.93142300  0.93142300  0.93142300  1
  O  O12  1  0.41553600  0.41553600  0.00310400  1
  O  O13  1  0.58348700  0.58348700  0.99991100  1
  O  O14  1  0.20903700  0.62409900  0.20903700  1
  O  O15  1  0.06163700  0.06163700  0.06163700  1
  O  O16  1  0.62409900  0.20903700  0.20903700  1
  O  O17  1  0.91738800  0.49837500  0.91738800  1
  O  O18  1  0.49837500  0.91738800  0.91738800  1
  O  O19  1  0.79184700  0.79184700  0.37122700  1
  O  O20  1  0.99991100  0.58348700  0.58348700  1
  O  O21  1  0.87230000  0.29363600  0.29363600  1
  O  O22  1  0.58348700  0.99991100  0.58348700  1
  O  O23  1  0.29363600  0.87230000  0.29363600  1
  O  O24  1  0.44402900  0.44402900  0.44402900  1
  O  O25  1  0.91738800  0.91738800  0.49837500  1
  O  O26  1  0.29363600  0.29363600  0.87230000  1
loop_
_geom_bond_atom_site_label_1
_geom_bond_atom_site_label_2
_geom_bond_distance
_geom_bond_site_symmetry_2
Bi0 O24 2.146751 1_555
Bi0 O5 2.489682 1_555
Bi0 O3 2.489682 1_555
Bi0 O0 2.489682 1_555
Bi0 O23 2.522318 1_555
Bi0 O21 2.522318 1_555
Bi0 O26 2.522318 1_555
Bi1 O11 2.247817 1_455
Bi1 O10 2.478872 1_556
Bi1 O1 2.478872 1_565
Bi1 O3 2.480499 1_555
Bi1 O9 2.524436 1_555
Bi1 O4 2.533573 1_565
Bi1 O12 2.533573 1_556
Bi2 O11 2.247817 1_545
Bi2 O7 2.478872 1_556
Bi2 O1 2.478872 1_655
Bi2 O5 2.480499 1_555
Bi2 O8 2.524436 1_555
Bi2 O2 2.533573 1_655
Bi2 O12 2.533573 1_556
Bi3 O15 2.243553 1_666
Bi3 O11 2.421463 1_555
Bi3 O9 2.498011 1_655
Bi3 O8 2.498011 1_565
Bi3 O19 2.498011 1_556
Bi3 O14 2.528440 1_656
Bi3 O16 2.528440 1_566
Bi3 O6 2.528440 1_665
Bi4 O11 2.247817 1_554
Bi4 O10 2.478872 1_655
Bi4 O7 2.478872 1_565
Bi4 O0 2.480499 1_555
Bi4 O19 2.524436 1_555
Bi4 O4 2.533573 1_565
Bi4 O2 2.533573 1_655
Bi5 O15 2.267230 1_565
Bi5 O24 2.308812 1_555
Bi5 O23 2.489581 1_555
Bi5 O18 2.494449 1_554
Bi5 O25 2.494449 1_455
Bi5 O20 2.525564 1_455
Bi5 O13 2.525564 1_554
Bi5 O14 2.542633 1_555
Bi6 O15 2.267230 1_655
Bi6 O24 2.308812 1_555
Bi6 O21 2.489581 1_555
Bi6 O17 2.494449 1_554
Bi6 O25 2.494449 1_545
Bi6 O22 2.525564 1_545
Bi6 O13 2.525564 1_554
Bi6 O16 2.542633 1_555
Bi7 O15 2.267230 1_556
Bi7 O24 2.308812 1_555
Bi7 O26 2.489581 1_555
Bi7 O18 2.494449 1_545
Bi7 O17 2.494449 1_455
Bi7 O20 2.525564 1_455
Bi7 O22 2.525564 1_545
Bi7 O6 2.542633 1_555
O0 Rh2 2.015088 1_554
O0 Rh1 2.015088 1_554
O1 Rh0 2.051112 1_445
O1 Rh3 2.055915 1_555
O2 Rh3 1.998174 1_555
O2 Rh5 2.011456 1_555
O3 Rh2 2.015088 1_455
O3 Rh0 2.015088 1_455
O4 Rh3 1.998174 1_555
O4 Rh6 2.011456 1_555
O5 Rh1 2.015088 1_545
O5 Rh0 2.015088 1_545
O6 Rh6 2.012097 1_555
O6 Rh5 2.012097 1_555
O7 Rh1 2.051112 1_544
O7 Rh3 2.055915 1_555
O8 Rh5 2.046575 1_655
O8 Rh4 2.046575 1_556
O9 Rh6 2.046575 1_565
O9 Rh4 2.046575 1_556
O10 Rh2 2.051112 1_454
O10 Rh3 2.055915 1_555
O12 Rh3 1.998174 1_555
O12 Rh4 2.011456 1_555
O13 Rh7 2.019568 1_555
O13 Rh4 2.026947 1_556
O14 Rh5 2.012097 1_555
O14 Rh4 2.012097 1_555
O16 Rh6 2.012097 1_555
O16 Rh4 2.012097 1_555
O17 Rh2 2.011226 1_555
O17 Rh7 2.028992 1_555
O18 Rh1 2.011226 1_555
O18 Rh7 2.028992 1_555
O19 Rh6 2.046575 1_565
O19 Rh5 2.046575 1_655
O20 Rh7 2.019569 1_555
O20 Rh5 2.026947 1_655
O21 Rh2 2.025658 1_554
O21 Rh0 2.025658 1_545
O22 Rh7 2.019569 1_555
O22 Rh6 2.026947 1_565
O23 Rh1 2.025658 1_554
O23 Rh0 2.025658 1_455
O25 Rh0 2.011226 1_555
O25 Rh7 2.028992 1_555
O26 Rh1 2.025658 1_545
O26 Rh2 2.025658 1_455
