# generated using pymatgen
data_Ti3FeCo2(PO4)6
_symmetry_space_group_name_H-M   'P 1'
_cell_length_a   8.55666114
_cell_length_b   8.55666114
_cell_length_c   8.55666115
_cell_angle_alpha   60.80132985
_cell_angle_beta   60.80132985
_cell_angle_gamma   60.80132840
_symmetry_Int_Tables_number   1
_chemical_formula_structural   Ti3FeCo2(PO4)6
_chemical_formula_sum   'Ti3 Fe1 Co2 P6 O24'
_cell_volume   451.00082120
_cell_formula_units_Z   1
loop_
 _symmetry_equiv_pos_site_id
 _symmetry_equiv_pos_as_xyz
  1  'x, y, z'
loop_
 _atom_site_type_symbol
 _atom_site_label
 _atom_site_symmetry_multiplicity
 _atom_site_fract_x
 _atom_site_fract_y
 _atom_site_fract_z
 _atom_site_occupancy
  Ti  Ti0  1  0.64305500  0.64305500  0.64305500  1
  Ti  Ti1  1  0.85799400  0.85799400  0.85799400  1
  Ti  Ti2  1  0.35647500  0.35647500  0.35647500  1
  Fe  Fe0  1  0.14229300  0.14229300  0.14229300  1
  Co  Co0  1  0.00145800  0.00145800  0.00145800  1
  Co  Co1  1  0.50057800  0.50057800  0.50057800  1
  P  P0  1  0.54135400  0.95740600  0.24852400  1
  P  P1  1  0.24852400  0.54135400  0.95740600  1
  P  P2  1  0.95740600  0.24852400  0.54135400  1
  P  P3  1  0.04251600  0.74950800  0.45832400  1
  P  P4  1  0.74950800  0.45832400  0.04251600  1
  P  P5  1  0.45832400  0.04251600  0.74950800  1
  O  O0  1  0.31110900  0.49615600  0.12165300  1
  O  O1  1  0.12165300  0.31110900  0.49615600  1
  O  O2  1  0.49615600  0.12165300  0.31110900  1
  O  O3  1  0.73737300  0.94318700  0.08742000  1
  O  O4  1  0.38513500  0.99345200  0.18716100  1
  O  O5  1  0.56327500  0.76435700  0.41274800  1
  O  O6  1  0.08742000  0.73737300  0.94318700  1
  O  O7  1  0.41274800  0.56327500  0.76435700  1
  O  O8  1  0.99652400  0.81250000  0.62183300  1
  O  O9  1  0.76435700  0.41274800  0.56327500  1
  O  O10  1  0.05281300  0.90970500  0.26588800  1
  O  O11  1  0.81250000  0.62183300  0.99652400  1
  O  O12  1  0.18716100  0.38513500  0.99345200  1
  O  O13  1  0.94318700  0.08742000  0.73737300  1
  O  O14  1  0.23519900  0.58582700  0.44547100  1
  O  O15  1  0.99345200  0.18716100  0.38513500  1
  O  O16  1  0.58582700  0.44547100  0.23519900  1
  O  O17  1  0.90970500  0.26588800  0.05281300  1
  O  O18  1  0.44547100  0.23519900  0.58582700  1
  O  O19  1  0.62183300  0.99652400  0.81250000  1
  O  O20  1  0.26588800  0.05281300  0.90970500  1
  O  O21  1  0.50914100  0.88159600  0.68098200  1
  O  O22  1  0.88159600  0.68098200  0.50914100  1
  O  O23  1  0.68098200  0.50914100  0.88159600  1
loop_
_geom_bond_atom_site_label_1
_geom_bond_atom_site_label_2
_geom_bond_distance
_geom_bond_site_symmetry_2
Fe0 O4 1.951000 1_545
Fe0 O15 1.951000 1_455
Fe0 O12 1.951000 1_554
Fe0 O17 2.075718 1_455
Fe0 O20 2.075718 1_554
Fe0 O10 2.075718 1_545
Co0 O17 2.197566 1_455
Co0 O10 2.197566 1_545
Co0 O20 2.197566 1_554
Co0 O6 2.239553 1_544
Co0 O13 2.239553 1_454
Co0 O3 2.239553 1_445
Co1 O14 2.236910 1_555
Co1 O16 2.236910 1_555
Co1 O18 2.236910 1_555
Co1 O9 2.253886 1_555
Co1 O7 2.253886 1_555
Co1 O5 2.253886 1_555
O0 P1 1.553528 1_554
O0 Ti2 1.892531 1_555
O1 P2 1.553528 1_455
O1 Ti2 1.892531 1_555
O2 P0 1.553528 1_545
O2 Ti2 1.892531 1_555
O3 P0 1.561077 1_555
O3 Ti1 2.033661 1_554
O4 P0 1.510676 1_555
O5 P0 1.558376 1_555
O5 Ti0 2.013053 1_555
O6 P1 1.561077 1_555
O6 Ti1 2.033661 1_455
O7 P1 1.558376 1_555
O7 Ti0 2.013054 1_555
O8 P3 1.547404 1_655
O8 Ti1 1.902702 1_555
O9 P2 1.558376 1_555
O9 Ti0 2.013053 1_555
O10 P3 1.540173 1_555
O11 P4 1.547404 1_556
O11 Ti1 1.902702 1_555
O12 P1 1.510677 1_555
O13 P2 1.561077 1_555
O13 Ti1 2.033661 1_545
O14 P3 1.553175 1_555
O14 Ti2 2.051396 1_555
O15 P2 1.510677 1_555
O16 P4 1.553175 1_555
O16 Ti2 2.051396 1_555
O17 P4 1.540173 1_555
O18 P5 1.553175 1_555
O18 Ti2 2.051396 1_555
O19 P5 1.547404 1_565
O19 Ti1 1.902702 1_555
O20 P5 1.540173 1_555
O21 P5 1.543909 1_565
O21 Ti0 1.893669 1_555
O22 P3 1.543909 1_655
O22 Ti0 1.893669 1_555
O23 P4 1.543909 1_556
O23 Ti0 1.893669 1_555
