# generated using pymatgen
data_Ba8Ta7O24
_symmetry_space_group_name_H-M   'P 1'
_cell_length_a   5.91210378
_cell_length_b   5.91210378
_cell_length_c   19.18489000
_cell_angle_alpha   90.00000000
_cell_angle_beta   90.00000000
_cell_angle_gamma   119.99999754
_symmetry_Int_Tables_number   1
_chemical_formula_structural   Ba8Ta7O24
_chemical_formula_sum   'Ba8 Ta7 O24'
_cell_volume   580.72972187
_cell_formula_units_Z   1
loop_
 _symmetry_equiv_pos_site_id
 _symmetry_equiv_pos_as_xyz
  1  'x, y, z'
loop_
 _atom_site_type_symbol
 _atom_site_label
 _atom_site_symmetry_multiplicity
 _atom_site_fract_x
 _atom_site_fract_y
 _atom_site_fract_z
 _atom_site_occupancy
  Ba  Ba0  1  0.66666700  0.33333300  0.24987000  1
  Ba  Ba1  1  0.66666700  0.33333300  0.85276400  1
  Ba  Ba2  1  0.33333300  0.66666700  0.98312600  1
  Ba  Ba3  1  0.33333300  0.66666700  0.50334500  1
  Ba  Ba4  1  0.66666700  0.33333300  0.63348400  1
  Ba  Ba5  1  0.00000000  0.00000000  0.13181200  1
  Ba  Ba6  1  0.00000000  0.00000000  0.75817400  1
  Ba  Ba7  1  0.00000000  0.00000000  0.36597800  1
  Ta  Ta0  1  0.66666700  0.33333300  0.06093400  1
  Ta  Ta1  1  0.33333300  0.66666700  0.18301400  1
  Ta  Ta2  1  0.33333300  0.66666700  0.31844800  1
  Ta  Ta3  1  0.33333300  0.66666700  0.69477800  1
  Ta  Ta4  1  0.66666700  0.33333300  0.43899600  1
  Ta  Ta5  1  0.00000000  0.00000000  0.56261400  1
  Ta  Ta6  1  0.00000000  0.00000000  0.93604400  1
  O  O0  1  0.49572600  0.50427400  0.74025500  1
  O  O1  1  0.33753700  0.16876900  0.00860800  1
  O  O2  1  0.33149500  0.16574800  0.49845600  1
  O  O3  1  0.50389000  0.49611000  0.12735700  1
  O  O4  1  0.50293100  0.49706900  0.37727900  1
  O  O5  1  0.50389000  0.00777900  0.12735700  1
  O  O6  1  0.50293100  0.00586300  0.37727900  1
  O  O7  1  0.49572600  0.99145100  0.74025500  1
  O  O8  1  0.65423100  0.82711600  0.25047700  1
  O  O9  1  0.99413700  0.49706900  0.37727900  1
  O  O10  1  0.99222100  0.49611000  0.12735700  1
  O  O11  1  0.83123100  0.16876900  0.00860800  1
  O  O12  1  0.83425200  0.16574800  0.49845600  1
  O  O13  1  0.67243400  0.83621700  0.61914600  1
  O  O14  1  0.68901100  0.84450500  0.88416500  1
  O  O15  1  0.00854900  0.50427400  0.74025500  1
  O  O16  1  0.16378300  0.32756600  0.61914600  1
  O  O17  1  0.83123100  0.66246300  0.00860800  1
  O  O18  1  0.83425200  0.66850500  0.49845600  1
  O  O19  1  0.15549500  0.31098900  0.88416500  1
  O  O20  1  0.17288400  0.34576900  0.25047700  1
  O  O21  1  0.15549500  0.84450500  0.88416500  1
  O  O22  1  0.16378300  0.83621700  0.61914600  1
  O  O23  1  0.17288400  0.82711600  0.25047700  1
loop_
_geom_bond_atom_site_label_1
_geom_bond_atom_site_label_2
_geom_bond_distance
_geom_bond_site_symmetry_2
Ba0 O3 2.881450 1_555
Ba0 O5 2.881450 1_555
Ba0 O10 2.881450 1_555
Ba0 O8 2.956755 1_545
Ba0 O20 2.956755 1_655
Ba0 O23 2.956760 1_655
Ba0 O23 2.956760 1_545
Ba0 O8 2.956766 1_555
Ba0 O20 2.956766 1_555
Ba0 O6 2.964105 1_555
Ba0 O9 2.964105 1_555
Ba0 O4 2.964110 1_555
Ba1 O0 2.779041 1_555
Ba1 O7 2.779041 1_545
Ba1 O15 2.779041 1_655
Ba1 O19 3.018981 1_655
Ba1 O14 3.018981 1_545
Ba1 O19 3.018981 1_555
Ba1 O14 3.018981 1_555
Ba1 O21 3.018981 1_655
Ba1 O21 3.018981 1_545
Ba2 O21 2.630745 1_555
Ba2 O19 2.630752 1_555
Ba2 O14 2.630752 1_555
Ba2 O1 2.996281 1_556
Ba2 O17 2.996281 1_556
Ba2 O1 2.996281 1_566
Ba2 O17 2.996281 1_456
Ba2 O11 2.996281 1_566
Ba2 O11 2.996281 1_456
Ba2 O10 3.272136 1_456
Ba2 O5 3.272136 1_566
Ba2 O3 3.272142 1_556
Ba3 O22 2.819581 1_555
Ba3 O16 2.819584 1_555
Ba3 O13 2.819584 1_555
Ba3 O2 2.957555 1_565
Ba3 O18 2.957555 1_455
Ba3 O18 2.957555 1_555
Ba3 O2 2.957555 1_555
Ba3 O12 2.957555 1_565
Ba3 O12 2.957555 1_455
Ba3 O4 2.977508 1_555
Ba3 O6 2.977508 1_565
Ba3 O9 2.977508 1_455
Ba4 O0 2.694432 1_555
Ba4 O15 2.694432 1_655
Ba4 O7 2.694432 1_545
Ba4 O16 2.968967 1_655
Ba4 O13 2.968967 1_545
Ba4 O22 2.968970 1_655
Ba4 O22 2.968970 1_545
Ba4 O13 2.968972 1_555
Ba4 O16 2.968972 1_555
Ba4 O12 3.107348 1_555
Ba4 O18 3.107354 1_555
Ba4 O2 3.107354 1_555
Ba5 O23 2.883905 1_545
Ba5 O8 2.883908 1_445
Ba5 O20 2.883908 1_555
Ba5 O17 2.928061 1_445
Ba5 O1 2.928061 1_555
Ba5 O11 2.928064 1_455
Ba5 O10 2.957552 1_455
Ba5 O5 2.957552 1_455
Ba5 O3 2.957556 1_445
Ba5 O3 2.957556 1_555
Ba5 O10 2.957558 1_445
Ba5 O5 2.957558 1_555
Ba6 O14 2.894447 1_445
Ba6 O19 2.894447 1_555
Ba6 O21 2.894449 1_545
Ba6 O15 2.976293 1_555
Ba6 O7 2.976293 1_445
Ba6 O0 2.976296 1_555
Ba6 O0 2.976296 1_445
Ba6 O7 2.976299 1_545
Ba6 O15 2.976299 1_545
Ba6 O22 3.150711 1_545
Ba6 O13 3.150711 1_445
Ba6 O16 3.150711 1_555
Ba7 O23 2.836232 1_545
Ba7 O20 2.836235 1_555
Ba7 O8 2.836235 1_445
Ba7 O6 2.964141 1_555
Ba7 O9 2.964141 1_445
Ba7 O4 2.964144 1_555
Ba7 O4 2.964144 1_445
Ba7 O9 2.964147 1_455
Ba7 O6 2.964147 1_455
Ba7 O2 3.056193 1_555
Ba7 O18 3.056193 1_445
Ba7 O12 3.056196 1_455
O0 Ta3 1.877895 1_555
O1 Ta0 1.961505 1_555
O1 Ta6 2.219168 1_554
O2 Ta4 2.060641 1_555
O2 Ta5 2.096601 1_555
O3 Ta1 2.047060 1_555
O3 Ta0 2.098157 1_555
O4 Ta4 2.052596 1_555
O4 Ta2 2.071230 1_555
O5 Ta1 2.047051 1_545
O5 Ta0 2.098158 1_555
O6 Ta4 2.052587 1_555
O6 Ta2 2.071230 1_545
O7 Ta3 1.877886 1_555
O8 Ta1 2.091557 1_555
O8 Ta2 2.097602 1_555
O9 Ta4 2.052587 1_555
O9 Ta2 2.071230 1_655
O10 Ta1 2.047051 1_655
O10 Ta0 2.098158 1_555
O11 Ta0 1.961497 1_555
O11 Ta6 2.219172 1_654
O12 Ta4 2.060633 1_555
O12 Ta5 2.096605 1_655
O13 Ta5 1.997273 1_665
O13 Ta3 2.262696 1_555
O14 Ta6 1.877750 1_665
O15 Ta3 1.877886 1_555
O16 Ta5 1.997273 1_555
O16 Ta3 2.262696 1_555
O17 Ta0 1.961505 1_555
O17 Ta6 2.219168 1_664
O18 Ta4 2.060641 1_555
O18 Ta5 2.096601 1_665
O19 Ta6 1.877750 1_555
O20 Ta1 2.091557 1_555
O20 Ta2 2.097602 1_555
O21 Ta6 1.877754 1_565
O22 Ta5 1.997273 1_565
O22 Ta3 2.262692 1_555
O23 Ta1 2.091557 1_555
O23 Ta2 2.097602 1_555
