# generated using pymatgen
data_Mg2Cu2P2(H4O5)3
_symmetry_space_group_name_H-M   'P 1'
_cell_length_a   5.04300726
_cell_length_b   11.63018552
_cell_length_c   10.59216804
_cell_angle_alpha   79.99542096
_cell_angle_beta   90.00138516
_cell_angle_gamma   77.44261563
_symmetry_Int_Tables_number   1
_chemical_formula_structural   Mg2Cu2P2(H4O5)3
_chemical_formula_sum   'Mg4 Cu4 P4 H24 O30'
_cell_volume   596.69900553
_cell_formula_units_Z   2
loop_
 _symmetry_equiv_pos_site_id
 _symmetry_equiv_pos_as_xyz
  1  'x, y, z'
loop_
 _atom_site_type_symbol
 _atom_site_label
 _atom_site_symmetry_multiplicity
 _atom_site_fract_x
 _atom_site_fract_y
 _atom_site_fract_z
 _atom_site_occupancy
  Mg  Mg0  1  0.95228800  0.76138100  0.96578500  1
  Mg  Mg1  1  0.28320500  0.76087400  0.46498000  1
  Mg  Mg2  1  0.72033400  0.23928100  0.53516700  1
  Mg  Mg3  1  0.04235300  0.24063600  0.03537800  1
  Cu  Cu0  1  0.09800600  0.50847300  0.86797600  1
  Cu  Cu1  1  0.60787900  0.49395100  0.63288700  1
  Cu  Cu2  1  0.39621100  0.50775000  0.36535200  1
  Cu  Cu3  1  0.90283100  0.49246900  0.13307500  1
  P  P0  1  0.47589500  0.69401300  0.77172800  1
  P  P1  1  0.82866600  0.69165500  0.27212800  1
  P  P2  1  0.17232900  0.30829800  0.72848500  1
  P  P3  1  0.52042500  0.30749300  0.22821700  1
  H  H0  1  0.55803400  0.96254600  0.85664400  1
  H  H1  1  0.22668200  0.92353900  0.76771700  1
  H  H2  1  0.48455500  0.96089600  0.36070700  1
  H  H3  1  0.03480600  0.81995600  0.66755700  1
  H  H4  1  0.84803500  0.92426500  0.26747700  1
  H  H5  1  0.14430600  0.81747500  0.16526100  1
  H  H6  1  0.79359100  0.79977800  0.58765500  1
  H  H7  1  0.41169700  0.79825400  0.08875400  1
  H  H8  1  0.66812200  0.45664800  0.93013500  1
  H  H9  1  0.13294600  0.53903400  0.57004000  1
  H  H10  1  0.87351200  0.45877300  0.43465600  1
  H  H11  1  0.32871700  0.54376200  0.07045300  1
  H  H12  1  0.59243300  0.20117900  0.91612400  1
  H  H13  1  0.21543200  0.19981700  0.41353500  1
  H  H14  1  0.85448000  0.18268900  0.83519300  1
  H  H15  1  0.14842400  0.07106100  0.73014100  1
  H  H16  1  0.97457100  0.17984800  0.33356900  1
  H  H17  1  0.51854300  0.03917300  0.64114600  1
  H  H18  1  0.77518000  0.00656000  0.93015100  1
  H  H19  1  0.78670100  0.07108000  0.23315600  1
  H  H20  1  0.77918300  0.99549000  0.56703600  1
  H  H21  1  0.44508400  0.04312800  0.14190700  1
  H  H22  1  0.22265700  0.00239900  0.43592000  1
  H  H23  1  0.22792900  0.99645700  0.06903700  1
  O  O0  1  0.72833200  0.93304200  0.91100500  1
  O  O1  1  0.33595100  0.93116400  0.40883700  1
  O  O2  1  0.95737600  0.83716300  0.57750800  1
  O  O3  1  0.21405600  0.77593200  0.81025500  1
  O  O4  1  0.21029100  0.83385900  0.07640100  1
  O  O5  1  0.53588200  0.73448100  0.62999000  1
  O  O6  1  0.00657800  0.77452900  0.31051700  1
  O  O7  1  0.71994800  0.68482800  0.86115300  1
  O  O8  1  0.72940600  0.73164000  0.13013000  1
  O  O9  1  0.59477100  0.68198300  0.36066100  1
  O  O10  1  0.41940800  0.56082000  0.78040400  1
  O  O11  1  0.27021500  0.57493500  0.52175800  1
  O  O12  1  0.01981300  0.55893300  0.28264700  1
  O  O13  1  0.84354700  0.42551000  0.97780300  1
  O  O14  1  0.15488100  0.57511300  0.02237300  1
  O  O15  1  0.98199600  0.44238700  0.71758000  1
  O  O16  1  0.72915200  0.42628200  0.47990500  1
  O  O17  1  0.57244000  0.44177800  0.21569100  1
  O  O18  1  0.41050800  0.31644000  0.64149700  1
  O  O19  1  0.26759500  0.27086300  0.87078800  1
  O  O20  1  0.27561400  0.31542800  0.14112100  1
  O  O21  1  0.99490500  0.22484200  0.69016600  1
  O  O22  1  0.46630600  0.26930400  0.37136000  1
  O  O23  1  0.79329100  0.16455600  0.92470500  1
  O  O24  1  0.78173900  0.22617400  0.18908900  1
  O  O25  1  0.04964500  0.16415400  0.42360200  1
  O  O26  1  0.65809000  0.06895100  0.58559000  1
  O  O27  1  0.29716500  0.99810100  0.74668900  1
  O  O28  1  0.27113100  0.07012300  0.08927700  1
  O  O29  1  0.70611100  0.99946800  0.24957100  1
loop_
_geom_bond_atom_site_label_1
_geom_bond_atom_site_label_2
_geom_bond_distance
_geom_bond_site_symmetry_2
Mg0 O7 2.047003 1_555
Mg0 O0 2.053061 1_555
Mg0 O8 2.091227 1_556
Mg0 O3 2.117925 1_655
Mg0 O4 2.143877 1_656
Mg0 O14 2.163904 1_656
Mg1 O1 2.041240 1_555
Mg1 O9 2.063254 1_555
Mg1 O5 2.101474 1_555
Mg1 O6 2.112209 1_555
Mg1 O2 2.154401 1_455
Mg1 O11 2.156880 1_555
Mg2 O26 2.052025 1_555
Mg2 O18 2.063149 1_555
Mg2 O22 2.090073 1_555
Mg2 O21 2.108058 1_555
Mg2 O25 2.155398 1_655
Mg2 O16 2.162022 1_555
Mg3 O20 2.044087 1_555
Mg3 O28 2.049735 1_555
Mg3 O24 2.099407 1_455
Mg3 O19 2.100942 1_554
Mg3 O23 2.139696 1_454
Mg3 O13 2.146417 1_454
Cu0 O14 1.973451 1_556
Cu0 O13 2.019762 1_455
Cu0 O10 2.022643 1_555
Cu0 O15 2.022774 1_455
Cu0 O7 2.468812 1_455
Cu1 O16 1.962903 1_555
Cu1 O15 2.011205 1_555
Cu1 O10 2.012597 1_555
Cu1 O11 2.022280 1_555
Cu1 O18 2.467639 1_555
Cu2 O11 1.998199 1_555
Cu2 O17 2.004411 1_555
Cu2 O12 2.013019 1_555
Cu2 O16 2.024303 1_555
Cu2 O9 2.441029 1_555
Cu3 O13 1.986702 1_554
Cu3 O14 2.013496 1_655
Cu3 O12 2.019722 1_655
Cu3 O17 2.034056 1_555
Cu3 O20 2.457004 1_655
H0 O0 0.995006 1_555
H1 O27 0.997427 1_555
H1 O3 1.712570 1_555
H2 O1 0.996260 1_555
H3 O2 1.000982 1_455
H3 O3 1.701075 1_555
H4 O29 0.991643 1_555
H4 O6 1.731604 1_655
H5 O4 0.999103 1_555
H5 O6 1.727136 1_555
H6 O2 1.011311 1_555
H6 O5 1.666643 1_555
H7 O4 1.009209 1_555
H7 O8 1.643654 1_555
H8 O13 0.982779 1_555
H9 O11 0.983155 1_555
H10 O16 0.979394 1_555
H11 O14 0.978416 1_555
H12 O23 1.007295 1_555
H12 O19 1.690686 1_555
H13 O25 1.008877 1_555
H13 O22 1.665074 1_555
H14 O23 0.998737 1_555
H14 O21 1.729436 1_555
H15 O27 0.992442 1_545
H15 O21 1.764135 1_455
H16 O25 0.997770 1_655
H17 O26 0.998327 1_555
H18 O0 0.987978 1_545
H19 O29 0.992944 1_545
H20 O26 0.986387 1_565
H21 O28 0.999151 1_555
H22 O1 0.985828 1_545
H23 O28 0.986118 1_565
O3 P0 1.551100 1_555
O5 P0 1.543824 1_555
O6 P1 1.552902 1_455
O7 P0 1.526761 1_555
O8 P1 1.544267 1_555
O9 P1 1.518038 1_555
O10 P0 1.622220 1_555
O12 P1 1.617868 1_455
O15 P2 1.628849 1_655
O17 P3 1.622235 1_555
O18 P2 1.523108 1_555
O19 P2 1.540554 1_555
O20 P3 1.518093 1_555
O21 P2 1.556244 1_655
O22 P3 1.545752 1_555
O24 P3 1.548261 1_555
