# generated using pymatgen
data_Li5BiS4
_symmetry_space_group_name_H-M   'P 1'
_cell_length_a   7.36741212
_cell_length_b   7.36741212
_cell_length_c   7.79317400
_cell_angle_alpha   90.00000000
_cell_angle_beta   90.00000000
_cell_angle_gamma   117.41382298
_symmetry_Int_Tables_number   1
_chemical_formula_structural   Li5BiS4
_chemical_formula_sum   'Li10 Bi2 S8'
_cell_volume   375.50233416
_cell_formula_units_Z   2
loop_
 _symmetry_equiv_pos_site_id
 _symmetry_equiv_pos_as_xyz
  1  'x, y, z'
loop_
 _atom_site_type_symbol
 _atom_site_label
 _atom_site_symmetry_multiplicity
 _atom_site_fract_x
 _atom_site_fract_y
 _atom_site_fract_z
 _atom_site_occupancy
  Li  Li0  1  0.11934600  0.23915500  0.30459900  1
  Li  Li1  1  0.23915500  0.11934600  0.80459900  1
  Li  Li2  1  0.16240300  0.42047400  0.01684500  1
  Li  Li3  1  0.42047400  0.16240300  0.51684500  1
  Li  Li4  1  0.85800500  0.14199500  0.69952800  1
  Li  Li5  1  0.14199500  0.85800500  0.19952800  1
  Li  Li6  1  0.83759700  0.57952600  0.51684500  1
  Li  Li7  1  0.57952600  0.83759700  0.01684500  1
  Li  Li8  1  0.88065400  0.76084500  0.80459900  1
  Li  Li9  1  0.76084500  0.88065400  0.30459900  1
  Bi  Bi0  1  0.66806000  0.33194000  0.08509800  1
  Bi  Bi1  1  0.33194000  0.66806000  0.58509800  1
  S  S0  1  0.00623200  0.50098900  0.77178400  1
  S  S1  1  0.50098900  0.00623200  0.27178400  1
  S  S2  1  0.97756400  0.02243600  0.03084300  1
  S  S3  1  0.02243600  0.97756400  0.53084300  1
  S  S4  1  0.52181000  0.47819000  0.71377400  1
  S  S5  1  0.47819000  0.52181000  0.21377400  1
  S  S6  1  0.99376800  0.49901100  0.27178400  1
  S  S7  1  0.49901100  0.99376800  0.77178400  1
loop_
_geom_bond_atom_site_label_1
_geom_bond_atom_site_label_2
_geom_bond_distance
_geom_bond_site_symmetry_2
Li0 S3 2.462866 1_545
Li0 S6 2.493502 1_455
Li0 S2 2.579958 1_455
Li0 S5 2.599500 1_555
Li1 S2 2.462866 1_456
Li1 S7 2.493502 1_545
Li1 S3 2.579958 1_545
Li1 S4 2.599500 1_555
Li2 S0 2.439573 1_554
Li2 S6 2.547083 1_455
Li2 S5 2.593457 1_555
Li2 S2 2.605512 1_455
Li3 S1 2.439573 1_555
Li3 S7 2.547083 1_545
Li3 S4 2.593457 1_555
Li3 S3 2.605512 1_545
Li4 S7 2.417702 1_545
Li4 S0 2.417702 1_655
Li4 S3 2.452479 1_645
Li4 S2 2.988798 1_556
Li5 S6 2.417702 1_455
Li5 S1 2.417702 1_565
Li5 S2 2.452479 1_465
Li5 S3 2.988798 1_555
Li6 S6 2.439573 1_555
Li6 S0 2.547083 1_655
Li6 S4 2.593457 1_555
Li6 S3 2.605512 1_655
Li7 S7 2.439573 1_554
Li7 S1 2.547083 1_565
Li7 S5 2.593457 1_555
Li7 S2 2.605512 1_565
Li8 S2 2.462866 1_566
Li8 S0 2.493502 1_655
Li8 S3 2.579958 1_655
Li8 S4 2.599500 1_555
Li9 S3 2.462866 1_655
Li9 S1 2.493502 1_565
Li9 S2 2.579958 1_565
Li9 S5 2.599500 1_555
Bi0 S1 2.582659 1_555
Bi0 S6 2.582659 1_555
Bi0 S5 2.592494 1_555
Bi1 S7 2.582659 1_555
Bi1 S0 2.582659 1_555
Bi1 S4 2.592494 1_555
