# generated using pymatgen
data_CrO
_symmetry_space_group_name_H-M   'P 1'
_cell_length_a   4.21086704
_cell_length_b   5.29015303
_cell_length_c   4.22308009
_cell_angle_alpha   90.00043766
_cell_angle_beta   89.99565702
_cell_angle_gamma   90.13678026
_symmetry_Int_Tables_number   1
_chemical_formula_structural   CrO
_chemical_formula_sum   'Cr4 O4'
_cell_volume   94.07361691
_cell_formula_units_Z   4
loop_
 _symmetry_equiv_pos_site_id
 _symmetry_equiv_pos_as_xyz
  1  'x, y, z'
loop_
 _atom_site_type_symbol
 _atom_site_label
 _atom_site_symmetry_multiplicity
 _atom_site_fract_x
 _atom_site_fract_y
 _atom_site_fract_z
 _atom_site_occupancy
  Cr  Cr0  1  0.40011579  0.90003658  0.50019806  1
  Cr  Cr1  1  0.40011421  0.40003647  -0.00019979  1
  Cr  Cr2  1  0.90011560  0.90003660  1.00019842  1
  Cr  Cr3  1  0.90011351  0.40003653  0.49979950  1
  O  O0  1  0.64993787  0.14999664  0.24902937  1
  O  O1  1  0.14993753  0.14999643  0.74902954  1
  O  O2  1  0.64993485  0.64992980  0.25097244  1
  O  O3  1  0.14993464  0.64992996  0.75097246  1
loop_
_geom_bond_atom_site_label_1
_geom_bond_atom_site_label_2
_geom_bond_distance
_geom_bond_site_symmetry_2
Cr0 O1 1.992249 1_565
Cr0 O2 1.992843 1_555
Cr0 O0 1.993362 1_565
Cr0 O3 1.993786 1_555
Cr1 O3 1.992105 1_554
Cr1 O0 1.992720 1_555
Cr1 O2 1.993207 1_555
Cr1 O1 1.993609 1_554
Cr2 O0 1.992247 1_566
Cr2 O3 1.992843 1_655
Cr2 O1 1.993361 1_665
Cr2 O2 1.993785 1_556
Cr3 O2 1.992101 1_555
Cr3 O1 1.992724 1_655
Cr3 O3 1.993210 1_655
Cr3 O0 1.993604 1_555
