# generated using pymatgen
data_RbMgV5(H8O11)2
_symmetry_space_group_name_H-M   'P 1'
_cell_length_a   10.52399500
_cell_length_b   10.88263460
_cell_length_c   11.51659542
_cell_angle_alpha   114.97238228
_cell_angle_beta   105.83093979
_cell_angle_gamma   85.03431509
_symmetry_Int_Tables_number   1
_chemical_formula_structural   RbMgV5(H8O11)2
_chemical_formula_sum   'Rb2 Mg2 V10 H32 O44'
_cell_volume   1149.70192681
_cell_formula_units_Z   2
loop_
 _symmetry_equiv_pos_site_id
 _symmetry_equiv_pos_as_xyz
  1  'x, y, z'
loop_
 _atom_site_type_symbol
 _atom_site_label
 _atom_site_symmetry_multiplicity
 _atom_site_fract_x
 _atom_site_fract_y
 _atom_site_fract_z
 _atom_site_occupancy
  Rb  Rb0  1  0.71620100  0.32888400  0.61253000  1
  Rb  Rb1  1  0.28379900  0.67111600  0.38747000  1
  Mg  Mg0  1  0.38016500  0.25407800  0.66265600  1
  Mg  Mg1  1  0.61983500  0.74592200  0.33734400  1
  V  V0  1  0.71784300  0.99185400  0.98448700  1
  V  V1  1  0.28215700  0.00814600  0.01551300  1
  V  V2  1  0.04431700  0.08228800  0.38932000  1
  V  V3  1  0.95568300  0.91771200  0.61068000  1
  V  V4  1  0.24371300  0.78997900  0.10945400  1
  V  V5  1  0.75628700  0.21002100  0.89054600  1
  V  V6  1  0.13638500  0.27513300  0.24803900  1
  V  V7  1  0.86361500  0.72486700  0.75196100  1
  V  V8  1  0.85939900  0.25548500  0.30507800  1
  V  V9  1  0.14060100  0.74451500  0.69492200  1
  H  H0  1  0.38660400  0.05942800  0.43602000  1
  H  H1  1  0.61339600  0.94057200  0.56398000  1
  H  H2  1  0.70904800  0.68624600  0.13029100  1
  H  H3  1  0.29095200  0.31375400  0.86970900  1
  H  H4  1  0.02868600  0.31277100  0.64006400  1
  H  H5  1  0.97131400  0.68722900  0.35993600  1
  H  H6  1  0.02808500  0.52871900  0.69906100  1
  H  H7  1  0.97191500  0.47128100  0.30093900  1
  H  H8  1  0.06577400  0.40112500  0.79584100  1
  H  H9  1  0.93422600  0.59887500  0.20415900  1
  H  H10  1  0.23882300  0.52091800  0.96808000  1
  H  H11  1  0.76117700  0.47908200  0.03192000  1
  H  H12  1  0.23877600  0.43265400  0.47254200  1
  H  H13  1  0.76122400  0.56734600  0.52745800  1
  H  H14  1  0.37158200  0.18673900  0.87127400  1
  H  H15  1  0.62841800  0.81326100  0.12872600  1
  H  H16  1  0.94764900  0.10937400  0.02921300  1
  H  H17  1  0.05235100  0.89062600  0.97078700  1
  H  H18  1  0.51530400  0.52054100  0.19379200  1
  H  H19  1  0.48469600  0.47945900  0.80620800  1
  H  H20  1  0.16075600  0.43184400  0.00915900  1
  H  H21  1  0.83924400  0.56815600  0.99084100  1
  H  H22  1  0.96945200  0.32308800  0.99016700  1
  H  H23  1  0.03054800  0.67691200  0.00983300  1
  H  H24  1  0.54971400  0.95761300  0.08303400  1
  H  H25  1  0.45028600  0.04238700  0.91696600  1
  H  H26  1  0.43063400  0.18927000  0.43106000  1
  H  H27  1  0.56936600  0.81073000  0.56894000  1
  H  H28  1  0.09339200  0.35206000  0.14296600  1
  H  H29  1  0.90660800  0.64794000  0.85703400  1
  H  H30  1  0.57809200  0.46122700  0.33351700  1
  H  H31  1  0.42190800  0.53877300  0.66648300  1
  O  O0  1  0.96827400  0.93620800  0.33036700  1
  O  O1  1  0.03172600  0.06379200  0.66963300  1
  O  O2  1  0.76007500  0.13492300  0.15342600  1
  O  O3  1  0.23992500  0.86507700  0.84657400  1
  O  O4  1  0.38667400  0.94347800  0.11223600  1
  O  O5  1  0.61332600  0.05652200  0.88776400  1
  O  O6  1  0.77860200  0.83871000  0.88035900  1
  O  O7  1  0.22139800  0.16129000  0.11964100  1
  O  O8  1  0.04130100  0.13312300  0.25691700  1
  O  O9  1  0.95869900  0.86687700  0.74308300  1
  O  O10  1  0.21222100  0.05376900  0.47439100  1
  O  O11  1  0.78777900  0.94623100  0.52560900  1
  O  O12  1  0.38273600  0.09395700  0.96168900  1
  O  O13  1  0.61726400  0.90604300  0.03831100  1
  O  O14  1  0.91292300  0.20913600  0.44372800  1
  O  O15  1  0.08707700  0.79086400  0.55627200  1
  O  O16  1  0.09138800  0.70942200  0.09943900  1
  O  O17  1  0.90861200  0.29057800  0.90056100  1
  O  O18  1  0.32687500  0.83892200  0.26892400  1
  O  O19  1  0.67312500  0.16107800  0.73107600  1
  O  O20  1  0.68706000  0.34291600  0.98942500  1
  O  O21  1  0.31294000  0.65708400  0.01057500  1
  O  O22  1  0.98324900  0.37516600  0.30044000  1
  O  O23  1  0.01675100  0.62483400  0.69956000  1
  O  O24  1  0.26599400  0.36552600  0.39297500  1
  O  O25  1  0.73400600  0.63447400  0.60702500  1
  O  O26  1  0.75583700  0.40421300  0.36643300  1
  O  O27  1  0.24416300  0.59578700  0.63356700  1
  O  O28  1  0.99073600  0.60217800  0.29044300  1
  O  O29  1  0.00926400  0.39782200  0.70955700  1
  O  O30  1  0.61963100  0.38315700  0.36305600  1
  O  O31  1  0.38036900  0.61684300  0.63694400  1
  O  O32  1  0.18994900  0.43024700  0.93504600  1
  O  O33  1  0.81005100  0.56975300  0.06495400  1
  O  O34  1  0.81487900  0.80178600  0.44629000  1
  O  O35  1  0.18512100  0.19821400  0.55371000  1
  O  O36  1  0.35524900  0.24927200  0.82619400  1
  O  O37  1  0.64475100  0.75072800  0.17380600  1
  O  O38  1  0.13564600  0.91462400  0.03962100  1
  O  O39  1  0.86435400  0.08537600  0.96037900  1
  O  O40  1  0.55500700  0.85889400  0.51115400  1
  O  O41  1  0.44499300  0.14110600  0.48884600  1
  O  O42  1  0.46388300  0.42670200  0.71024400  1
  O  O43  1  0.53611700  0.57329800  0.28975600  1
loop_
_geom_bond_atom_site_label_1
_geom_bond_atom_site_label_2
_geom_bond_distance
_geom_bond_site_symmetry_2
Mg0 O42 1.938946 1_555
Mg0 O36 1.993411 1_555
Mg0 O35 2.079422 1_555
Mg0 O41 2.122670 1_555
Mg1 O43 1.938946 1_555
Mg1 O37 1.993411 1_555
Mg1 O34 2.079422 1_555
Mg1 O40 2.122670 1_555
H0 O41 0.985796 1_555
H1 O40 0.985796 1_555
H2 O37 1.003655 1_555
H2 O33 1.643441 1_555
H3 O36 1.003655 1_555
H3 O32 1.643441 1_555
H4 O29 0.984895 1_555
H5 O28 0.984895 1_555
H6 O23 1.040213 1_555
H6 O29 1.513393 1_555
H7 O22 1.040213 1_555
H7 O28 1.513393 1_555
H8 O29 0.996755 1_555
H9 O28 0.996755 1_555
H10 O32 1.023267 1_555
H10 O21 1.556685 1_556
H11 O33 1.023267 1_555
H11 O20 1.556685 1_554
H12 O24 0.998578 1_555
H13 O25 0.998578 1_555
H14 O36 0.995778 1_555
H15 O37 0.995778 1_555
H16 O39 0.975056 1_554
H17 O38 0.975056 1_556
H18 O43 0.976195 1_555
H19 O42 0.976195 1_555
H20 O32 0.976127 1_554
H21 O33 0.976127 1_556
H22 O17 0.985140 1_555
H23 O16 0.985140 1_555
H24 O13 0.986030 1_555
H25 O12 0.986030 1_555
H26 O41 0.983061 1_555
H27 O40 0.983061 1_555
H28 V6 1.691434 1_555
H29 V7 1.691434 1_555
H30 O30 1.061731 1_555
H30 O43 1.496959 1_555
H31 O31 1.061731 1_555
H31 O42 1.496959 1_555
O0 V2 1.625149 1_665
O1 V3 1.625149 1_445
O2 V8 1.780700 1_555
O2 V0 1.870101 1_544
O3 V9 1.780700 1_555
O3 V1 1.870101 1_566
O4 V1 1.674925 1_565
O4 V4 2.327808 1_555
O5 V0 1.674925 1_545
O5 V5 2.327808 1_555
O6 V0 1.780695 1_555
O6 V7 1.872160 1_555
O7 V1 1.780695 1_555
O7 V6 1.872160 1_555
O8 V2 1.820714 1_555
O8 V6 1.963960 1_555
O8 V8 2.293448 1_455
O9 V3 1.820714 1_555
O9 V7 1.963960 1_555
O9 V9 2.293448 1_655
O10 O35 1.496285 1_555
O10 V2 1.842774 1_555
O11 O34 1.496285 1_555
O11 V3 1.842774 1_555
O12 V1 1.842443 1_556
O13 V0 1.842443 1_554
O14 V8 1.805974 1_555
O14 V2 1.903225 1_655
O14 Rb0 3.058324 1_555
O15 V9 1.805974 1_555
O15 V3 1.903225 1_455
O15 Rb1 3.058324 1_555
O16 V4 1.846272 1_555
O17 V5 1.846272 1_555
O18 V4 1.673428 1_555
O18 Rb1 2.826738 1_555
O19 V5 1.673428 1_555
O19 Rb0 2.826738 1_555
O20 V5 1.672963 1_555
O21 V4 1.672963 1_555
O22 V8 1.946451 1_555
O22 V6 1.954162 1_655
O23 V9 1.946451 1_555
O23 V7 1.954162 1_455
O24 V6 1.793875 1_555
O25 V7 1.793875 1_555
O26 V8 1.859022 1_555
O27 V9 1.859022 1_555
O28 Rb1 3.022602 1_655
O29 Rb0 3.022602 1_455
O30 Rb0 3.061401 1_555
O31 Rb1 3.061401 1_555
O34 V3 2.036647 1_555
O35 V2 2.036647 1_555
O38 V4 1.983751 1_555
O38 V1 2.057708 1_565
O39 V5 1.983751 1_555
O39 V0 2.057708 1_545
O42 Rb0 3.095190 1_555
O43 Rb1 3.095190 1_555
