# generated using pymatgen
data_Li2MnCo3O8
_symmetry_space_group_name_H-M   'P 1'
_cell_length_a   5.70900030
_cell_length_b   5.79233536
_cell_length_c   5.92924209
_cell_angle_alpha   119.14339821
_cell_angle_beta   91.11696885
_cell_angle_gamma   59.50838315
_symmetry_Int_Tables_number   1
_chemical_formula_structural   Li2MnCo3O8
_chemical_formula_sum   'Li2 Mn1 Co3 O8'
_cell_volume   140.65544680
_cell_formula_units_Z   1
loop_
 _symmetry_equiv_pos_site_id
 _symmetry_equiv_pos_as_xyz
  1  'x, y, z'
loop_
 _atom_site_type_symbol
 _atom_site_label
 _atom_site_symmetry_multiplicity
 _atom_site_fract_x
 _atom_site_fract_y
 _atom_site_fract_z
 _atom_site_occupancy
  Li  Li0  1  0.49999700  0.00000000  0.49999500  1
  Li  Li1  1  0.50000300  0.50001100  0.50000700  1
  Mn  Mn0  1  0.00000800  0.00001000  0.00000300  1
  Co  Co0  1  0.00002100  0.49996300  0.99998900  1
  Co  Co1  1  0.49997200  0.00000200  0.99999400  1
  Co  Co2  1  0.50000100  0.50002100  0.00000900  1
  O  O0  1  0.24353000  0.00906400  0.78469700  1
  O  O1  1  0.24874100  0.53057200  0.78703500  1
  O  O2  1  0.28037300  0.46098200  0.19608100  1
  O  O3  1  0.72430800  0.03974400  0.79925200  1
  O  O4  1  0.27568900  0.96024500  0.20072500  1
  O  O5  1  0.71964200  0.53902400  0.80392000  1
  O  O6  1  0.75126500  0.46941200  0.21295400  1
  O  O7  1  0.75645000  0.99095000  0.21533600  1
loop_
_geom_bond_atom_site_label_1
_geom_bond_atom_site_label_2
_geom_bond_distance
_geom_bond_site_symmetry_2
Li0 O3 2.157319 1_555
Li0 O4 2.157367 1_545
Li0 O1 2.219472 1_555
Li0 O6 2.219533 1_545
Li0 O7 2.219752 1_545
Li0 O0 2.219944 1_555
Li1 O6 2.128205 1_555
Li1 O1 2.128233 1_555
Li1 O0 2.134174 1_565
Li1 O7 2.134189 1_545
Li1 O5 2.161791 1_555
Li1 O2 2.161818 1_555
Mn0 O4 1.942315 1_545
Mn0 O3 1.942507 1_454
Mn0 O0 1.942601 1_554
Mn0 O7 1.942888 1_445
Mn0 O6 1.952254 1_455
Mn0 O1 1.952398 1_544
Co0 O2 1.944453 1_556
Co0 O5 1.944477 1_455
Co0 O0 2.041977 1_555
Co0 O7 2.042337 1_456
Co0 O6 2.045775 1_456
Co0 O1 2.045825 1_555
Co1 O5 1.920693 1_545
Co1 O2 1.920714 1_556
Co1 O0 1.920969 1_555
Co1 O7 1.921299 1_546
Co1 O4 1.932531 1_546
Co1 O3 1.932733 1_555
Co2 O6 1.890137 1_555
Co2 O1 1.890230 1_554
Co2 O5 1.890851 1_554
Co2 O2 1.890885 1_555
Co2 O4 1.915100 1_555
Co2 O3 1.915320 1_554
