# generated using pymatgen
data_La2(SiO3)3
_symmetry_space_group_name_H-M   'P 1'
_cell_length_a   6.84247237
_cell_length_b   6.84247237
_cell_length_c   10.25570500
_cell_angle_alpha   90.00000000
_cell_angle_beta   90.00000000
_cell_angle_gamma   120.00000354
_symmetry_Int_Tables_number   1
_chemical_formula_structural   La2(SiO3)3
_chemical_formula_sum   'La4 Si6 O18'
_cell_volume   415.83614940
_cell_formula_units_Z   2
loop_
 _symmetry_equiv_pos_site_id
 _symmetry_equiv_pos_as_xyz
  1  'x, y, z'
loop_
 _atom_site_type_symbol
 _atom_site_label
 _atom_site_symmetry_multiplicity
 _atom_site_fract_x
 _atom_site_fract_y
 _atom_site_fract_z
 _atom_site_occupancy
  La  La0  1  0.33333300  0.66666700  0.97892400  1
  La  La1  1  0.33333300  0.66666700  0.52107600  1
  La  La2  1  0.66666700  0.33333300  0.47892400  1
  La  La3  1  0.66666700  0.33333300  0.02107600  1
  Si  Si0  1  0.23703500  0.96614800  0.25000000  1
  Si  Si1  1  0.03385200  0.27088700  0.25000000  1
  Si  Si2  1  0.27088700  0.23703500  0.75000000  1
  Si  Si3  1  0.72911300  0.76296500  0.25000000  1
  Si  Si4  1  0.96614800  0.72911300  0.75000000  1
  Si  Si5  1  0.76296500  0.03385200  0.75000000  1
  O  O0  1  0.20904800  0.97096000  0.75000000  1
  O  O1  1  0.36753500  0.96398200  0.11730900  1
  O  O2  1  0.36753500  0.96398200  0.38269100  1
  O  O3  1  0.03601800  0.40355300  0.38269100  1
  O  O4  1  0.03601800  0.40355300  0.11730900  1
  O  O5  1  0.02904000  0.23808800  0.75000000  1
  O  O6  1  0.23808800  0.20904800  0.25000000  1
  O  O7  1  0.59644700  0.63246500  0.11730900  1
  O  O8  1  0.59644700  0.63246500  0.38269100  1
  O  O9  1  0.40355300  0.36753500  0.61730900  1
  O  O10  1  0.40355300  0.36753500  0.88269100  1
  O  O11  1  0.76191200  0.79095200  0.75000000  1
  O  O12  1  0.97096000  0.76191200  0.25000000  1
  O  O13  1  0.96398200  0.59644700  0.61730900  1
  O  O14  1  0.96398200  0.59644700  0.88269100  1
  O  O15  1  0.63246500  0.03601800  0.61730900  1
  O  O16  1  0.63246500  0.03601800  0.88269100  1
  O  O17  1  0.79095200  0.02904000  0.25000000  1
loop_
_geom_bond_atom_site_label_1
_geom_bond_atom_site_label_2
_geom_bond_distance
_geom_bond_site_symmetry_2
La0 O1 2.394068 1_556
La0 O4 2.394070 1_556
La0 O7 2.394074 1_556
La0 O14 2.525414 1_455
La0 O16 2.525416 1_565
La0 O10 2.525421 1_555
La1 O2 2.394068 1_555
La1 O3 2.394070 1_555
La1 O8 2.394074 1_555
La1 O13 2.525414 1_455
La1 O15 2.525416 1_565
La1 O9 2.525421 1_555
La2 O15 2.394068 1_555
La2 O13 2.394070 1_555
La2 O9 2.394074 1_555
La2 O3 2.525414 1_655
La2 O2 2.525416 1_545
La2 O8 2.525421 1_555
La3 O16 2.394068 1_554
La3 O14 2.394070 1_554
La3 O10 2.394074 1_554
La3 O4 2.525414 1_655
La3 O1 2.525416 1_545
La3 O7 2.525421 1_555
O0 Si2 1.650244 1_565
O0 Si4 1.658446 1_455
O1 Si0 1.631774 1_555
O2 Si0 1.631774 1_555
O3 Si1 1.631774 1_555
O4 Si1 1.631774 1_555
O5 Si5 1.650244 1_455
O5 Si2 1.658446 1_555
O6 Si1 1.650244 1_555
O6 Si0 1.658446 1_545
O7 Si3 1.631774 1_555
O8 Si3 1.631774 1_555
O9 Si2 1.631774 1_555
O10 Si2 1.631774 1_555
O11 Si4 1.650244 1_555
O11 Si5 1.658446 1_565
O12 Si0 1.650244 1_655
O12 Si3 1.658446 1_555
O13 Si4 1.631774 1_555
O14 Si4 1.631774 1_555
O15 Si5 1.631774 1_555
O16 Si5 1.631774 1_555
O17 Si3 1.650244 1_545
O17 Si1 1.658446 1_655
