# generated using pymatgen
data_LiP2WO7
_symmetry_space_group_name_H-M   'P 1'
_cell_length_a   8.62447100
_cell_length_b   4.99063400
_cell_length_c   7.16093621
_cell_angle_alpha   70.64829957
_cell_angle_beta   90.00000000
_cell_angle_gamma   90.00000000
_symmetry_Int_Tables_number   1
_chemical_formula_structural   LiP2WO7
_chemical_formula_sum   'Li2 P4 W2 O14'
_cell_volume   290.80439732
_cell_formula_units_Z   2
loop_
 _symmetry_equiv_pos_site_id
 _symmetry_equiv_pos_as_xyz
  1  'x, y, z'
loop_
 _atom_site_type_symbol
 _atom_site_label
 _atom_site_symmetry_multiplicity
 _atom_site_fract_x
 _atom_site_fract_y
 _atom_site_fract_z
 _atom_site_occupancy
  Li  Li0  1  0.88799400  0.19992800  0.32447700  1
  Li  Li1  1  0.38799400  0.80007200  0.67552300  1
  P  P0  1  0.46164700  0.79479100  0.07945700  1
  P  P1  1  0.06682600  0.59733400  0.53038700  1
  P  P2  1  0.56682600  0.40266600  0.46961300  1
  P  P3  1  0.96164700  0.20520900  0.92054300  1
  W  W0  1  0.24736800  0.21372700  0.27342600  1
  W  W1  1  0.74736800  0.78627300  0.72657400  1
  O  O0  1  0.31443500  0.62482600  0.07715700  1
  O  O1  1  0.58549700  0.59676500  0.24018600  1
  O  O2  1  0.04614500  0.13847500  0.11814400  1
  O  O3  1  0.43063500  0.06002700  0.13318000  1
  O  O4  1  0.20966000  0.79178900  0.49471900  1
  O  O5  1  0.91403800  0.76314000  0.50580500  1
  O  O6  1  0.06490900  0.40100900  0.40472600  1
  O  O7  1  0.56490900  0.59899100  0.59527400  1
  O  O8  1  0.41403800  0.23686000  0.49419500  1
  O  O9  1  0.70966000  0.20821100  0.50528100  1
  O  O10  1  0.93063500  0.93997300  0.86682000  1
  O  O11  1  0.54614500  0.86152500  0.88185600  1
  O  O12  1  0.08549700  0.40323500  0.75981400  1
  O  O13  1  0.81443500  0.37517400  0.92284300  1
loop_
_geom_bond_atom_site_label_1
_geom_bond_atom_site_label_2
_geom_bond_distance
_geom_bond_site_symmetry_2
Li0 O6 2.011848 1_655
Li0 O9 2.019666 1_555
Li0 O2 2.106632 1_655
Li0 O5 2.147647 1_545
Li1 O7 2.011848 1_555
Li1 O4 2.019666 1_555
Li1 O11 2.106632 1_555
Li1 O8 2.147647 1_565
O0 P0 1.530026 1_555
O0 W0 2.146661 1_555
O1 P2 1.615153 1_555
O1 P0 1.639666 1_555
O2 P3 1.527064 1_454
O2 W0 2.160098 1_555
O3 P0 1.519603 1_545
O3 W0 2.146103 1_555
O4 P1 1.536309 1_555
O4 W0 2.199908 1_565
O5 P1 1.534779 1_655
O5 W1 2.167904 1_555
O6 P1 1.534370 1_555
O6 W0 2.194601 1_555
O7 P2 1.534370 1_555
O7 W1 2.194601 1_555
O8 P2 1.534779 1_555
O8 W0 2.167904 1_555
O9 P2 1.536309 1_555
O9 W1 2.199908 1_545
O10 P3 1.519603 1_565
O10 W1 2.146103 1_555
O11 P0 1.527064 1_556
O11 W1 2.160098 1_555
O12 P1 1.615153 1_555
O12 P3 1.639666 1_455
O13 P3 1.530026 1_555
O13 W1 2.146661 1_555
