# generated using pymatgen
data_VCrO3
_symmetry_space_group_name_H-M   'P 1'
_cell_length_a   5.00763548
_cell_length_b   5.40375549
_cell_length_c   8.93680695
_cell_angle_alpha   85.37969345
_cell_angle_beta   73.35687724
_cell_angle_gamma   117.61006366
_symmetry_Int_Tables_number   1
_chemical_formula_structural   VCrO3
_chemical_formula_sum   'V4 Cr4 O12'
_cell_volume   198.72935475
_cell_formula_units_Z   4
loop_
 _symmetry_equiv_pos_site_id
 _symmetry_equiv_pos_as_xyz
  1  'x, y, z'
loop_
 _atom_site_type_symbol
 _atom_site_label
 _atom_site_symmetry_multiplicity
 _atom_site_fract_x
 _atom_site_fract_y
 _atom_site_fract_z
 _atom_site_occupancy
  V  V0  1  0.15179358  0.88234721  0.57135552  1
  V  V1  1  0.14769743  0.36872604  0.07785550  1
  V  V2  1  0.34698902  0.37479707  0.67519036  1
  V  V3  1  0.85135647  0.13008049  0.42457541  1
  Cr  Cr0  1  0.34770000  0.86908068  0.17210271  1
  Cr  Cr1  1  0.65077665  0.63108491  0.32436282  1
  Cr  Cr2  1  0.65341039  0.12773455  0.82686223  1
  Cr  Cr3  1  0.85149321  0.62372998  0.92542167  1
  O  O0  1  0.05684364  0.52824743  0.72461595  1
  O  O1  1  0.05473623  0.02137213  0.22423007  1
  O  O2  1  0.44528213  0.87655679  0.37069294  1
  O  O3  1  0.55496865  0.62477477  0.12554083  1
  O  O4  1  0.25349997  0.77809786  0.97214305  1
  O  O5  1  0.24980126  0.28319611  0.46819749  1
  O  O6  1  0.74027207  0.71409652  0.52901937  1
  O  O7  1  0.74950621  0.21998882  0.02725714  1
  O  O8  1  0.44945392  0.37277734  0.87746717  1
  O  O9  1  0.55462410  0.12728310  0.62789841  1
  O  O10  1  0.94645091  0.96953077  0.77763031  1
  O  O11  1  0.94334116  0.47649743  0.27758104  1
loop_
_geom_bond_atom_site_label_1
_geom_bond_atom_site_label_2
_geom_bond_distance
_geom_bond_site_symmetry_2
Cr0 O1 1.958532 1_565
Cr0 O2 1.969829 1_555
Cr0 O7 1.973811 1_565
Cr0 O4 2.016693 1_554
Cr0 O11 2.022867 1_455
Cr0 O3 2.025949 1_555
Cr1 O5 1.962545 1_555
Cr1 O11 1.964379 1_555
Cr1 O3 1.967585 1_555
Cr1 O1 2.011312 1_665
Cr1 O2 2.024727 1_555
Cr1 O6 2.040241 1_555
Cr2 O4 1.968288 1_545
Cr2 O9 1.977321 1_555
Cr2 O10 1.982769 1_545
Cr2 O8 2.021505 1_555
Cr2 O7 2.025465 1_556
Cr2 O0 2.042457 1_655
Cr3 O10 1.970115 1_555
Cr3 O3 1.972714 1_556
Cr3 O4 1.975814 1_655
Cr3 O0 2.031750 1_655
Cr3 O8 2.033012 1_555
Cr3 O7 2.056713 1_556
O0 V2 1.949832 1_555
O0 V0 2.030970 1_555
O1 V1 1.974025 1_555
O1 V3 2.065789 1_455
O2 V0 1.979591 1_555
O2 V3 2.080560 1_565
O3 V1 2.057354 1_555
O4 V1 2.087352 1_556
O5 V3 1.945500 1_455
O5 V0 2.053400 1_545
O5 V2 2.084170 1_555
O6 V2 1.933968 1_555
O6 V0 1.995456 1_655
O6 V3 2.106927 1_565
O7 V1 1.978896 1_655
O8 V1 1.975817 1_556
O8 V2 2.016070 1_555
O9 V3 1.984451 1_555
O9 V2 2.043777 1_555
O9 V0 2.072017 1_545
O10 V0 2.044677 1_655
O10 V2 2.052026 1_665
O11 V3 1.974856 1_555
O11 V1 2.060547 1_655
