# generated using pymatgen
data_Mn2O3F
_symmetry_space_group_name_H-M   'P 1'
_cell_length_a   4.59729500
_cell_length_b   4.59729500
_cell_length_c   12.11346700
_cell_angle_alpha   90.00000000
_cell_angle_beta   90.00000000
_cell_angle_gamma   92.73811383
_symmetry_Int_Tables_number   1
_chemical_formula_structural   Mn2O3F
_chemical_formula_sum   'Mn8 O12 F4'
_cell_volume   255.72730194
_cell_formula_units_Z   4
loop_
 _symmetry_equiv_pos_site_id
 _symmetry_equiv_pos_as_xyz
  1  'x, y, z'
loop_
 _atom_site_type_symbol
 _atom_site_label
 _atom_site_symmetry_multiplicity
 _atom_site_fract_x
 _atom_site_fract_y
 _atom_site_fract_z
 _atom_site_occupancy
  Mn  Mn0  1  0.00145500  0.99854500  0.62452400  1
  Mn  Mn1  1  0.00145500  0.99854500  0.37547600  1
  Mn  Mn2  1  0.98312600  0.01687400  0.12583300  1
  Mn  Mn3  1  0.98312600  0.01687400  0.87416700  1
  Mn  Mn4  1  0.51402800  0.48597200  0.00000000  1
  Mn  Mn5  1  0.47613100  0.52386900  0.50000000  1
  Mn  Mn6  1  0.51865900  0.48134100  0.25027500  1
  Mn  Mn7  1  0.51865900  0.48134100  0.74972500  1
  O  O0  1  0.80886300  0.19113700  0.25031400  1
  O  O1  1  0.80257100  0.19742900  0.00000000  1
  O  O2  1  0.80886300  0.19113700  0.74968600  1
  O  O3  1  0.30407100  0.31110600  0.62500800  1
  O  O4  1  0.30407100  0.31110600  0.37499200  1
  O  O5  1  0.31021300  0.30095300  0.12520500  1
  O  O6  1  0.31021300  0.30095300  0.87479500  1
  O  O7  1  0.68889400  0.69592900  0.62500800  1
  O  O8  1  0.68889400  0.69592900  0.37499200  1
  O  O9  1  0.69904700  0.68978700  0.12520500  1
  O  O10  1  0.69904700  0.68978700  0.87479500  1
  O  O11  1  0.18837100  0.81162900  0.50000000  1
  F  F0  1  0.77897900  0.22102100  0.50000000  1
  F  F1  1  0.21046000  0.78954000  0.24363300  1
  F  F2  1  0.19035100  0.80964900  0.00000000  1
  F  F3  1  0.21046000  0.78954000  0.75636700  1
loop_
_geom_bond_atom_site_label_1
_geom_bond_atom_site_label_2
_geom_bond_distance
_geom_bond_site_symmetry_2
Mn0 O7 1.951743 1_455
Mn0 O3 1.951743 1_565
Mn0 O11 1.955171 1_555
Mn0 O2 1.985314 1_465
Mn1 O8 1.951743 1_455
Mn1 O4 1.951743 1_565
Mn1 O11 1.955171 1_555
Mn1 O0 1.985314 1_465
Mn2 O0 1.902293 1_555
Mn2 O1 1.940942 1_555
Mn2 O5 1.944019 1_655
Mn2 O9 1.944019 1_545
Mn3 O2 1.902293 1_555
Mn3 O1 1.940942 1_556
Mn3 O6 1.944019 1_655
Mn3 O10 1.944019 1_545
Mn4 O1 1.920265 1_555
Mn4 O5 1.955913 1_555
Mn4 O9 1.955913 1_555
Mn4 O6 1.955913 1_554
Mn4 O10 1.955913 1_554
Mn5 O11 1.915054 1_555
Mn5 O4 1.949761 1_555
Mn5 O3 1.949761 1_555
Mn5 O7 1.949761 1_555
Mn5 O8 1.949761 1_555
Mn6 O0 1.931319 1_555
Mn6 O4 1.947907 1_555
Mn6 O8 1.947907 1_555
Mn6 O9 1.955873 1_555
Mn6 O5 1.955873 1_555
Mn7 O2 1.931319 1_555
Mn7 O3 1.947907 1_555
Mn7 O7 1.947907 1_555
Mn7 O10 1.955873 1_555
Mn7 O6 1.955873 1_555
F0 Mn5 2.015465 1_555
F0 Mn0 2.113636 1_645
F0 Mn1 2.113636 1_645
F1 Mn6 2.052654 1_555
F1 Mn2 2.079699 1_465
F1 Mn1 2.117866 1_555
F2 Mn2 2.055554 1_465
F2 Mn3 2.055554 1_464
F2 Mn4 2.154083 1_555
F3 Mn7 2.052654 1_555
F3 Mn3 2.079699 1_465
F3 Mn0 2.117866 1_555
