# generated using pymatgen
data_Sr(AgGe)2
_symmetry_space_group_name_H-M   'P 1'
_cell_length_a   4.46239439
_cell_length_b   4.46239472
_cell_length_c   6.25229659
_cell_angle_alpha   110.90752204
_cell_angle_beta   110.90752278
_cell_angle_gamma   89.99998858
_symmetry_Int_Tables_number   1
_chemical_formula_structural   Sr(AgGe)2
_chemical_formula_sum   'Sr1 Ag2 Ge2'
_cell_volume   107.48339091
_cell_formula_units_Z   1
loop_
 _symmetry_equiv_pos_site_id
 _symmetry_equiv_pos_as_xyz
  1  'x, y, z'
loop_
 _atom_site_type_symbol
 _atom_site_label
 _atom_site_symmetry_multiplicity
 _atom_site_fract_x
 _atom_site_fract_y
 _atom_site_fract_z
 _atom_site_occupancy
  Sr  Sr0  1  0.00000000  0.00000000  0.00000000  1
  Ag  Ag0  1  0.25000000  0.75000000  0.50000000  1
  Ag  Ag1  1  0.75000000  0.25000000  0.50000000  1
  Ge  Ge0  1  0.61305511  0.61305511  0.22611022  1
  Ge  Ge1  1  0.38694489  0.38694489  0.77388978  1
loop_
_geom_bond_atom_site_label_1
_geom_bond_atom_site_label_2
_geom_bond_distance
_geom_bond_site_symmetry_2
Ag0 Ge0 2.676527 1_455
Ag0 Ge1 2.676528 1_565
Ag0 Ge0 2.676528 1_555
Ag0 Ge1 2.676528 1_555
Ag0 Sr0 3.501702 1_666
Ag0 Sr0 3.501702 1_555
Ag0 Sr0 3.501703 1_566
Ag0 Sr0 3.501703 1_565
Ag1 Ge1 2.676527 1_655
Ag1 Ge0 2.676528 1_545
Ag1 Ge1 2.676528 1_555
Ag1 Ge0 2.676528 1_555
Ag1 Sr0 3.501702 1_555
Ag1 Sr0 3.501702 1_666
Ag1 Sr0 3.501703 1_655
Ag1 Sr0 3.501703 1_656
Ge0 Ge1 2.440932 1_554
Ge0 Sr0 3.383196 1_565
Ge0 Sr0 3.383196 1_655
Ge0 Sr0 3.383197 1_555
Ge0 Sr0 3.383197 1_665
Ge1 Sr0 3.383196 1_656
Ge1 Sr0 3.383196 1_566
Ge1 Sr0 3.383197 1_666
Ge1 Sr0 3.383197 1_556
