# generated using pymatgen
data_RbTeAu
_symmetry_space_group_name_H-M   'P 1'
_cell_length_a   4.73388008
_cell_length_b   4.73387974
_cell_length_c   10.49038781
_cell_angle_alpha   90.00000000
_cell_angle_beta   90.00000000
_cell_angle_gamma   120.00000235
_symmetry_Int_Tables_number   1
_chemical_formula_structural   RbTeAu
_chemical_formula_sum   'Rb2 Te2 Au2'
_cell_volume   203.59009184
_cell_formula_units_Z   2
loop_
 _symmetry_equiv_pos_site_id
 _symmetry_equiv_pos_as_xyz
  1  'x, y, z'
loop_
 _atom_site_type_symbol
 _atom_site_label
 _atom_site_symmetry_multiplicity
 _atom_site_fract_x
 _atom_site_fract_y
 _atom_site_fract_z
 _atom_site_occupancy
  Rb  Rb0  1  0.00000000  0.00000000  0.00000000  1
  Rb  Rb1  1  0.00000000  0.00000000  0.50000000  1
  Te  Te0  1  0.33333300  0.66666700  0.75000000  1
  Te  Te1  1  0.66666700  0.33333300  0.25000000  1
  Au  Au0  1  0.33333300  0.66666700  0.25000000  1
  Au  Au1  1  0.66666700  0.33333300  0.75000000  1
loop_
_geom_bond_atom_site_label_1
_geom_bond_atom_site_label_2
_geom_bond_distance
_geom_bond_site_symmetry_2
Rb0 Te0 3.787859 1_544
Rb0 Te1 3.787859 1_455
Rb0 Te0 3.787861 1_554
Rb0 Te1 3.787861 1_445
Rb0 Te1 3.787862 1_555
Rb0 Te0 3.787862 1_444
Rb1 Te0 3.787859 1_545
Rb1 Te1 3.787859 1_455
Rb1 Te0 3.787861 1_555
Rb1 Te1 3.787861 1_445
Rb1 Te1 3.787862 1_555
Rb1 Te0 3.787862 1_445
Au0 Te1 2.733104 1_565
Au0 Te1 2.733104 1_455
Au0 Te1 2.733112 1_555
Au0 Rb0 3.787859 1_565
Au0 Rb1 3.787859 1_565
Au0 Rb1 3.787861 1_555
Au0 Rb0 3.787861 1_555
Au0 Rb0 3.787862 1_665
Au0 Rb1 3.787862 1_665
Au1 Te0 2.733104 1_545
Au1 Te0 2.733104 1_655
Au1 Te0 2.733112 1_555
Au1 Rb0 3.787859 1_656
Au1 Rb1 3.787859 1_655
Au1 Rb1 3.787861 1_665
Au1 Rb0 3.787861 1_666
Au1 Rb0 3.787862 1_556
Au1 Rb1 3.787862 1_555
