# generated using pymatgen
data_Li2TiNiO4
_symmetry_space_group_name_H-M   'P 1'
_cell_length_a   5.93298345
_cell_length_b   5.97047875
_cell_length_c   8.29624713
_cell_angle_alpha   89.99784196
_cell_angle_beta   89.99857340
_cell_angle_gamma   90.05453599
_symmetry_Int_Tables_number   1
_chemical_formula_structural   Li2TiNiO4
_chemical_formula_sum   'Li8 Ti4 Ni4 O16'
_cell_volume   293.87576808
_cell_formula_units_Z   4
loop_
 _symmetry_equiv_pos_site_id
 _symmetry_equiv_pos_as_xyz
  1  'x, y, z'
loop_
 _atom_site_type_symbol
 _atom_site_label
 _atom_site_symmetry_multiplicity
 _atom_site_fract_x
 _atom_site_fract_y
 _atom_site_fract_z
 _atom_site_occupancy
  Li  Li0  1  0.25000000  0.74999500  0.75000000  1
  Li  Li1  1  0.75000000  0.24999500  0.25000000  1
  Li  Li2  1  0.25000100  0.24998000  0.74999500  1
  Li  Li3  1  0.75000100  0.74998000  0.24999500  1
  Li  Li4  1  0.00000100  0.99999700  0.49999500  1
  Li  Li5  1  0.49999900  0.49999700  0.99999700  1
  Li  Li6  1  0.50000600  0.99999900  0.49999600  1
  Li  Li7  1  0.00000700  0.49999900  0.99999800  1
  Ti  Ti0  1  0.99999200  0.50000100  0.50000600  1
  Ti  Ti1  1  0.49999100  0.00000100  0.99999800  1
  Ti  Ti2  1  0.49999100  0.49999600  0.50000400  1
  Ti  Ti3  1  0.99999200  0.99999600  0.99999600  1
  Ni  Ni0  1  0.25000300  0.74999900  0.25000100  1
  Ni  Ni1  1  0.24999900  0.25000100  0.24999900  1
  Ni  Ni2  1  0.75000300  0.24999900  0.75000100  1
  Ni  Ni3  1  0.74999900  0.75000100  0.75000000  1
  O  O0  1  0.99288000  0.50018000  0.73522800  1
  O  O1  1  0.49288200  0.00018000  0.23522100  1
  O  O2  1  0.99289900  0.00013500  0.76477200  1
  O  O3  1  0.49290100  0.50013500  0.26478000  1
  O  O4  1  0.00710200  0.99986100  0.23521800  1
  O  O5  1  0.50710400  0.49986100  0.73522500  1
  O  O6  1  0.00712200  0.49982000  0.26478000  1
  O  O7  1  0.50712400  0.99982100  0.76477400  1
  O  O8  1  0.75024500  0.72780900  0.49774600  1
  O  O9  1  0.25024500  0.22780700  0.99773900  1
  O  O10  1  0.74976000  0.27217500  0.49779000  1
  O  O11  1  0.24976000  0.77217700  0.99778200  1
  O  O12  1  0.25024300  0.72782000  0.50221800  1
  O  O13  1  0.75024400  0.22782200  0.00221100  1
  O  O14  1  0.24975900  0.27219000  0.50226000  1
  O  O15  1  0.74975800  0.77218800  0.00225300  1
loop_
_geom_bond_atom_site_label_1
_geom_bond_atom_site_label_2
_geom_bond_distance
_geom_bond_site_symmetry_2
Li0 O12 2.059925 1_555
Li0 O11 2.059928 1_555
Li0 O0 2.135988 1_455
Li0 O7 2.136052 1_555
Li0 O5 2.139274 1_555
Li0 O2 2.139285 1_465
Li1 O13 2.059982 1_555
Li1 O10 2.059993 1_555
Li1 O1 2.135983 1_555
Li1 O6 2.136042 1_655
Li1 O4 2.139269 1_645
Li1 O3 2.139281 1_555
Li2 O14 2.059540 1_555
Li2 O9 2.059600 1_555
Li2 O2 2.136028 1_455
Li2 O5 2.136179 1_555
Li2 O7 2.139459 1_545
Li2 O0 2.139616 1_455
Li3 O15 2.059597 1_555
Li3 O8 2.059657 1_555
Li3 O3 2.136023 1_555
Li3 O4 2.136174 1_655
Li3 O6 2.139458 1_655
Li3 O1 2.139611 1_565
Li4 O4 2.197059 1_555
Li4 O2 2.197059 1_465
Li4 O8 2.198277 1_455
Li4 O14 2.198308 1_565
Li4 O10 2.202254 1_465
Li4 O12 2.202254 1_555
Li5 O5 2.197018 1_555
Li5 O3 2.197108 1_556
Li5 O9 2.198278 1_555
Li5 O15 2.198302 1_556
Li5 O11 2.202255 1_555
Li5 O13 2.202257 1_556
Li6 O1 2.197047 1_565
Li6 O7 2.197071 1_555
Li6 O10 2.198211 1_565
Li6 O12 2.198261 1_555
Li6 O8 2.202302 1_555
Li6 O14 2.202339 1_565
Li7 O0 2.197006 1_455
Li7 O6 2.197104 1_556
Li7 O11 2.198217 1_555
Li7 O13 2.198252 1_456
Li7 O9 2.202307 1_555
Li7 O15 2.202338 1_456
Ni0 O6 2.078106 1_555
Ni0 O1 2.078107 1_565
Ni0 O3 2.078800 1_555
Ni0 O4 2.078806 1_555
Ni0 O12 2.096636 1_555
Ni0 O11 2.096652 1_554
Ni1 O3 2.078011 1_555
Ni1 O4 2.078017 1_545
Ni1 O6 2.078524 1_555
Ni1 O1 2.078556 1_555
Ni1 O9 2.097008 1_554
Ni1 O14 2.097014 1_555
Ni2 O7 2.078091 1_545
Ni2 O0 2.078095 1_555
Ni2 O2 2.078788 1_555
Ni2 O5 2.078794 1_555
Ni2 O13 2.096577 1_556
Ni2 O10 2.096585 1_555
Ni3 O2 2.077999 1_565
Ni3 O5 2.078005 1_555
Ni3 O7 2.078516 1_555
Ni3 O0 2.078544 1_555
Ni3 O15 2.096947 1_556
Ni3 O8 2.096957 1_555
O0 Ti0 1.951915 1_555
O1 Ti1 1.951923 1_554
O2 Ti3 1.951931 1_545
O3 Ti2 1.951931 1_555
O4 Ti3 1.951917 1_454
O5 Ti2 1.951909 1_555
O6 Ti0 1.951951 1_455
O7 Ti1 1.951935 1_565
O8 Ti0 2.012384 1_555
O8 Ti2 2.012712 1_555
O9 Ti1 2.012371 1_555
O9 Ti3 2.012699 1_445
O10 Ti2 2.012529 1_555
O10 Ti0 2.012667 1_555
O11 Ti3 2.012517 1_455
O11 Ti1 2.012654 1_565
O12 Ti2 2.012450 1_555
O12 Ti0 2.012721 1_455
O13 Ti3 2.012458 1_544
O13 Ti1 2.012738 1_554
O14 Ti0 2.012483 1_455
O14 Ti2 2.012587 1_555
O15 Ti1 2.012491 1_564
O15 Ti3 2.012604 1_554
