# generated using pymatgen
data_Na5Bi2As(CO4)4
_symmetry_space_group_name_H-M   'P 1'
_cell_length_a   10.51206924
_cell_length_b   10.51206924
_cell_length_c   10.34294422
_cell_angle_alpha   60.67862093
_cell_angle_beta   60.67862093
_cell_angle_gamma   91.22748260
_symmetry_Int_Tables_number   1
_chemical_formula_structural   Na5Bi2As(CO4)4
_chemical_formula_sum   'Na10 Bi4 As2 C8 O32'
_cell_volume   815.92821632
_cell_formula_units_Z   2
loop_
 _symmetry_equiv_pos_site_id
 _symmetry_equiv_pos_as_xyz
  1  'x, y, z'
loop_
 _atom_site_type_symbol
 _atom_site_label
 _atom_site_symmetry_multiplicity
 _atom_site_fract_x
 _atom_site_fract_y
 _atom_site_fract_z
 _atom_site_occupancy
  Na  Na0  1  0.07511100  0.32590200  0.35827900  1
  Na  Na1  1  0.32620600  0.07506000  0.24088700  1
  Na  Na2  1  0.32590200  0.07511100  0.85827900  1
  Na  Na3  1  0.06812900  0.93187100  0.75000000  1
  Na  Na4  1  0.07506000  0.32620600  0.74088700  1
  Na  Na5  1  0.93187100  0.06812900  0.25000000  1
  Na  Na6  1  0.92494000  0.67379400  0.25911300  1
  Na  Na7  1  0.67409800  0.92488900  0.14172100  1
  Na  Na8  1  0.67379400  0.92494000  0.75911300  1
  Na  Na9  1  0.92488900  0.67409800  0.64172100  1
  Bi  Bi0  1  0.50000000  0.00000000  0.50000000  1
  Bi  Bi1  1  0.50000000  0.50000000  0.00000000  1
  Bi  Bi2  1  0.50000000  0.50000000  0.50000000  1
  Bi  Bi3  1  0.00000000  0.50000000  0.00000000  1
  As  As0  1  0.87389800  0.12610200  0.75000000  1
  As  As1  1  0.12610200  0.87389800  0.25000000  1
  C  C0  1  0.28095100  0.72205600  0.93809900  1
  C  C1  1  0.27243100  0.33605700  0.94502300  1
  C  C2  1  0.66394300  0.72756900  0.55497700  1
  C  C3  1  0.27794400  0.71904900  0.56190100  1
  C  C4  1  0.33605700  0.27243100  0.44502300  1
  C  C5  1  0.72205600  0.28095100  0.43809900  1
  C  C6  1  0.71904900  0.27794400  0.06190100  1
  C  C7  1  0.72756900  0.66394300  0.05497700  1
  O  O0  1  0.33224400  0.14001500  0.46227900  1
  O  O1  1  0.14937200  0.60521900  0.06062000  1
  O  O2  1  0.28635000  0.33653100  0.06341300  1
  O  O3  1  0.59695400  0.28996700  0.06322600  1
  O  O4  1  0.14001500  0.33224400  0.96227900  1
  O  O5  1  0.67510100  0.04521400  0.89021800  1
  O  O6  1  0.94273100  0.05842900  0.88599300  1
  O  O7  1  0.38573100  0.33589000  0.81503500  1
  O  O8  1  0.28783700  0.85319500  0.81437200  1
  O  O9  1  0.66411000  0.61426900  0.68496500  1
  O  O10  1  0.14680500  0.71216300  0.68562800  1
  O  O11  1  0.94157100  0.05726800  0.61400700  1
  O  O12  1  0.95478600  0.32489900  0.60978200  1
  O  O13  1  0.33653100  0.28635000  0.56341300  1
  O  O14  1  0.60521900  0.14937200  0.56062000  1
  O  O15  1  0.28996700  0.59695400  0.56322600  1
  O  O16  1  0.71003300  0.40304600  0.43677400  1
  O  O17  1  0.39478100  0.85062800  0.43938000  1
  O  O18  1  0.66346900  0.71365000  0.43658700  1
  O  O19  1  0.05842900  0.94273200  0.38599300  1
  O  O20  1  0.04521400  0.67510100  0.39021800  1
  O  O21  1  0.85319500  0.28783700  0.31437200  1
  O  O22  1  0.33589000  0.38573100  0.31503500  1
  O  O23  1  0.71216300  0.14680500  0.18562800  1
  O  O24  1  0.61426900  0.66411000  0.18496500  1
  O  O25  1  0.05726800  0.94157100  0.11400700  1
  O  O26  1  0.32489900  0.95478600  0.10978200  1
  O  O27  1  0.85998500  0.66775600  0.03772100  1
  O  O28  1  0.40304600  0.71003300  0.93677400  1
  O  O29  1  0.71365000  0.66346900  0.93658700  1
  O  O30  1  0.85062800  0.39478100  0.93938000  1
  O  O31  1  0.66775600  0.85998500  0.53772100  1
loop_
_geom_bond_atom_site_label_1
_geom_bond_atom_site_label_2
_geom_bond_distance
_geom_bond_site_symmetry_2
Na0 O12 2.262009 1_455
Na0 O11 2.412289 1_455
Na0 O22 2.561293 1_555
Na0 O21 2.642697 1_455
Na0 O2 2.695801 1_555
Na0 O1 2.720901 1_555
Na1 O26 2.265864 1_545
Na1 O19 2.400185 1_545
Na1 O2 2.638345 1_555
Na1 O17 2.660640 1_545
Na1 O3 2.667794 1_555
Na1 O0 2.717626 1_555
Na2 O26 2.262009 1_546
Na2 O25 2.412289 1_546
Na2 O7 2.561293 1_555
Na2 O8 2.642697 1_545
Na2 O13 2.695801 1_555
Na2 O14 2.720901 1_555
Na3 O11 2.361761 1_465
Na3 O6 2.361764 1_465
Na3 O27 2.573325 1_456
Na3 O0 2.573325 1_565
Na3 O10 2.740450 1_555
Na3 O8 2.740450 1_555
Na4 O12 2.265864 1_455
Na4 O6 2.400188 1_455
Na4 O13 2.638345 1_555
Na4 O30 2.660640 1_455
Na4 O15 2.667794 1_555
Na4 O4 2.717626 1_555
Na5 O25 2.361761 1_645
Na5 O19 2.361761 1_645
Na5 O31 2.573325 1_545
Na5 O4 2.573325 1_654
Na5 O23 2.740450 1_555
Na5 O21 2.740450 1_555
Na6 O20 2.265864 1_655
Na6 O25 2.400185 1_655
Na6 O18 2.638345 1_555
Na6 O1 2.660640 1_655
Na6 O16 2.667794 1_555
Na6 O27 2.717626 1_555
Na7 O5 2.262009 1_564
Na7 O6 2.412282 1_564
Na7 O24 2.561293 1_555
Na7 O23 2.642697 1_565
Na7 O18 2.695801 1_555
Na7 O17 2.720901 1_555
Na8 O5 2.265864 1_565
Na8 O11 2.400185 1_565
Na8 O29 2.638345 1_555
Na8 O14 2.660640 1_565
Na8 O28 2.667794 1_555
Na8 O31 2.717626 1_555
Na9 O20 2.262009 1_655
Na9 O19 2.412289 1_655
Na9 O9 2.561293 1_555
Na9 O10 2.642697 1_655
Na9 O29 2.695801 1_555
Na9 O30 2.720901 1_555
Bi0 O31 2.377180 1_545
Bi0 O0 2.377180 1_555
Bi0 O14 2.377206 1_555
Bi0 O17 2.377206 1_545
Bi0 O23 2.400744 1_555
Bi0 O8 2.400744 1_545
Bi1 O9 2.368211 1_554
Bi1 O22 2.368211 1_555
Bi1 O28 2.382477 1_554
Bi1 O3 2.382477 1_555
Bi1 O2 2.390654 1_555
Bi1 O29 2.390654 1_554
Bi2 O24 2.368211 1_555
Bi2 O7 2.368211 1_555
Bi2 O15 2.382477 1_555
Bi2 O16 2.382477 1_555
Bi2 O18 2.390654 1_555
Bi2 O13 2.390654 1_555
Bi3 O4 2.377180 1_554
Bi3 O27 2.377180 1_455
Bi3 O1 2.377206 1_555
Bi3 O30 2.377206 1_454
Bi3 O10 2.400744 1_554
Bi3 O21 2.400744 1_455
As0 O12 1.714984 1_555
As0 O5 1.714984 1_555
As0 O6 1.745542 1_555
As0 O11 1.745550 1_555
As1 O20 1.714984 1_555
As1 O26 1.714984 1_555
As1 O25 1.745550 1_555
As1 O19 1.745550 1_555
C0 O28 1.286421 1_555
C0 O1 1.309057 1_556
C0 O8 1.311657 1_555
C1 O7 1.288481 1_555
C1 O2 1.304707 1_556
C1 O4 1.310844 1_555
C2 O9 1.288481 1_555
C2 O18 1.304707 1_555
C2 O31 1.310844 1_555
C3 O15 1.286421 1_555
C3 O17 1.309057 1_555
C3 O10 1.311657 1_555
C4 O22 1.288481 1_555
C4 O13 1.304707 1_555
C4 O0 1.310844 1_555
C5 O16 1.286421 1_555
C5 O14 1.309057 1_555
C5 O21 1.311657 1_555
C6 O3 1.286421 1_555
C6 O30 1.309057 1_554
C6 O23 1.311657 1_555
C7 O24 1.288481 1_555
C7 O29 1.304707 1_554
C7 O27 1.310844 1_555
