# generated using pymatgen
data_Li3V3P8O29
_symmetry_space_group_name_H-M   'P 1'
_cell_length_a   9.71299900
_cell_length_b   9.77500814
_cell_length_c   14.26534338
_cell_angle_alpha   91.15726880
_cell_angle_beta   89.93118646
_cell_angle_gamma   119.76742413
_symmetry_Int_Tables_number   1
_chemical_formula_structural   Li3V3P8O29
_chemical_formula_sum   'Li6 V6 P16 O58'
_cell_volume   1175.39901547
_cell_formula_units_Z   2
loop_
 _symmetry_equiv_pos_site_id
 _symmetry_equiv_pos_as_xyz
  1  'x, y, z'
loop_
 _atom_site_type_symbol
 _atom_site_label
 _atom_site_symmetry_multiplicity
 _atom_site_fract_x
 _atom_site_fract_y
 _atom_site_fract_z
 _atom_site_occupancy
  Li  Li0  1  0.65325500  0.31511400  0.10273400  1
  Li  Li1  1  0.76941300  0.68755400  0.93634200  1
  Li  Li2  1  0.09365800  0.32775500  0.56104900  1
  Li  Li3  1  0.90270200  0.66778300  0.44098700  1
  Li  Li4  1  0.04248700  0.05996800  0.00503700  1
  Li  Li5  1  0.99715300  0.99667300  0.50097100  1
  V  V0  1  0.99583300  0.43389000  0.75705600  1
  V  V1  1  0.00532800  0.56776900  0.24642700  1
  V  V2  1  0.43161700  0.42956300  0.25152600  1
  V  V3  1  0.55682900  0.56356500  0.74736000  1
  V  V4  1  0.43994800  0.99983800  0.74933200  1
  V  V5  1  0.56457100  0.99929400  0.25562600  1
  P  P0  1  0.30235100  0.08252400  0.15739300  1
  P  P1  1  0.30382300  0.21619700  0.66135700  1
  P  P2  1  0.78293600  0.08158100  0.65789300  1
  P  P3  1  0.66426700  0.33735200  0.86932100  1
  P  P4  1  0.67119300  0.34041700  0.36848200  1
  P  P5  1  0.90727600  0.21429500  0.16215800  1
  P  P6  1  0.08539800  0.31327200  0.34319200  1
  P  P7  1  0.77207500  0.67909600  0.15340300  1
  P  P8  1  0.22436800  0.30853000  0.84475600  1
  P  P9  1  0.90961000  0.68107700  0.65710100  1
  P  P10  1  0.08960100  0.78424700  0.83636700  1
  P  P11  1  0.32509500  0.66131000  0.63269500  1
  P  P12  1  0.33870400  0.66598600  0.13200600  1
  P  P13  1  0.21808400  0.92029200  0.34266100  1
  P  P14  1  0.69736200  0.77914100  0.33556900  1
  P  P15  1  0.69878000  0.91893600  0.84259000  1
  O  O0  1  0.19020300  0.99116100  0.42766800  1
  O  O1  1  0.34959600  0.08605200  0.66662900  1
  O  O2  1  0.20482700  0.22173500  0.93100900  1
  O  O3  1  0.34443700  0.26006900  0.16911400  1
  O  O4  1  0.46602600  0.09032100  0.16851600  1
  O  O5  1  0.52245500  0.18942600  0.82241100  1
  O  O6  1  0.61842900  0.07289900  0.66991000  1
  O  O7  1  0.79302500  0.99305900  0.92834400  1
  O  O8  1  0.73055400  0.08125400  0.16854400  1
  O  O9  1  0.52250600  0.33723000  0.32176300  1
  O  O10  1  0.45970700  0.37940100  0.67240500  1
  O  O11  1  0.66755500  0.19040300  0.32286700  1
  O  O12  1  0.67061000  0.33763800  0.97372700  1
  O  O13  1  0.67447600  0.34991900  0.47211800  1
  O  O14  1  0.81590400  0.33839700  0.82634400  1
  O  O15  1  0.62363500  0.51552200  0.16930400  1
  O  O16  1  0.66811200  0.48811400  0.83311600  1
  O  O17  1  0.91455100  0.25935900  0.66797100  1
  O  O18  1  0.98540700  0.19603400  0.25843200  1
  O  O19  1  0.02188800  0.24110300  0.43503000  1
  O  O20  1  0.99094800  0.19844500  0.08050800  1
  O  O21  1  0.90228000  0.37249200  0.17114100  1
  O  O22  1  0.81935600  0.48817900  0.32621700  1
  O  O23  1  0.09133000  0.35253400  0.83021000  1
  O  O24  1  0.91262500  0.52704800  0.67419900  1
  O  O25  1  0.73674000  0.64627200  0.67441900  1
  O  O26  1  0.20430500  0.19711400  0.75529400  1
  O  O27  1  0.20204100  0.20333000  0.58000100  1
  O  O28  1  0.80620900  0.79862500  0.41436400  1
  O  O29  1  0.25863200  0.34675600  0.32954100  1
  O  O30  1  0.08453100  0.46821800  0.32440000  1
  O  O31  1  0.91720000  0.65252100  0.16873700  1
  O  O32  1  0.17904100  0.51134300  0.67220600  1
  O  O33  1  0.08584200  0.62225700  0.82634700  1
  O  O34  1  0.99615000  0.79207800  0.91625600  1
  O  O35  1  0.96898100  0.75494200  0.56498400  1
  O  O36  1  0.01442400  0.80307500  0.73909400  1
  O  O37  1  0.08650500  0.74103800  0.33360600  1
  O  O38  1  0.34926200  0.52746100  0.17818800  1
  O  O39  1  0.38424100  0.46286800  0.83030400  1
  O  O40  1  0.18358600  0.65552500  0.17703000  1
  O  O41  1  0.33661900  0.66451000  0.02896500  1
  O  O42  1  0.32979500  0.65669300  0.52909000  1
  O  O43  1  0.33092000  0.81064100  0.67925700  1
  O  O44  1  0.54340400  0.61848100  0.32755000  1
  O  O45  1  0.47431800  0.66125400  0.68041900  1
  O  O46  1  0.26433100  0.91727100  0.83318100  1
  O  O47  1  0.19897700  0.99918200  0.24925300  1
  O  O48  1  0.20490400  0.00940500  0.07253200  1
  O  O49  1  0.38249800  0.92995100  0.33033800  1
  O  O50  1  0.47425200  0.81772800  0.18173000  1
  O  O51  1  0.54229900  0.92542500  0.82748800  1
  O  O52  1  0.65274800  0.74072000  0.83409400  1
  O  O53  1  0.77980900  0.75281500  0.06280600  1
  O  O54  1  0.78798700  0.79827500  0.23713100  1
  O  O55  1  0.65566300  0.91436000  0.33374500  1
  O  O56  1  0.81017800  0.00982100  0.57283900  1
  O  O57  1  0.80168300  0.99902200  0.75019600  1
loop_
_geom_bond_atom_site_label_1
_geom_bond_atom_site_label_2
_geom_bond_distance
_geom_bond_site_symmetry_2
Li0 O12 1.855390 1_554
Li0 O4 2.264380 1_555
Li0 O15 2.303490 1_555
Li0 O21 2.398716 1_555
Li1 O53 1.887257 1_556
Li1 O34 1.937044 1_555
Li1 O52 2.073891 1_555
Li1 O16 2.218111 1_555
Li2 O19 1.946879 1_555
Li2 O27 1.986437 1_555
Li2 O17 2.163288 1_455
Li2 O32 2.198432 1_555
Li3 O35 1.914789 1_555
Li3 O28 1.967026 1_555
Li3 O37 2.194270 1_655
Li3 O22 2.212229 1_555
Li4 O2 1.920833 1_554
Li4 O20 1.963330 1_455
Li4 O48 2.111191 1_555
Li4 O7 2.428916 1_444
Li5 O56 2.141902 1_565
Li5 O0 2.169260 1_655
Li5 O28 2.248914 1_555
Li5 O27 2.287729 1_665
Li5 O35 2.436532 1_555
Li5 O19 2.484273 1_665
O0 P13 1.474897 1_555
O1 P1 1.545087 1_555
O1 V4 1.910314 1_545
O2 P8 1.466802 1_555
O3 P0 1.578299 1_555
O3 V2 1.837062 1_555
O4 P0 1.561466 1_555
O4 V5 2.035998 1_545
O5 P3 1.556078 1_555
O5 V4 1.900719 1_545
O6 P2 1.566848 1_555
O6 V4 1.896737 1_545
O7 P15 1.472319 1_555
O8 P5 1.560053 1_555
O8 V5 1.880712 1_545
O9 P4 1.577227 1_555
O9 V2 1.851402 1_555
O10 P1 1.566631 1_555
O10 V3 1.874129 1_555
O11 P4 1.576398 1_555
O11 V5 1.866785 1_545
O12 P3 1.490624 1_555
O13 P4 1.478832 1_555
O14 P3 1.590096 1_555
O14 V0 1.820944 1_555
O15 P7 1.552927 1_555
O15 V2 2.009657 1_555
O16 P3 1.554343 1_555
O16 V3 2.009986 1_555
O17 P2 1.568199 1_555
O17 V0 1.930360 1_555
O18 P6 1.600076 1_655
O18 P5 1.625073 1_555
O19 P6 1.482511 1_555
O20 P5 1.468550 1_555
O21 P5 1.573706 1_555
O21 V1 1.954879 1_655
O22 P4 1.577935 1_555
O22 V1 1.949135 1_655
O23 P8 1.566530 1_555
O23 V0 1.830339 1_455
O24 P9 1.544642 1_555
O24 V0 1.912081 1_555
O25 P9 1.559254 1_555
O25 V3 1.848451 1_555
O26 P8 1.608264 1_555
O26 P1 1.610220 1_555
O27 P1 1.487778 1_555
O28 P14 1.487192 1_555
O29 P6 1.559230 1_555
O29 V2 1.843446 1_555
O30 P6 1.547583 1_555
O30 V1 1.888154 1_555
O31 P7 1.571283 1_555
O31 V1 1.841422 1_655
O32 P11 1.563847 1_555
O32 V0 1.974585 1_455
O33 P10 1.569252 1_555
O33 V0 1.860605 1_455
O34 P10 1.480383 1_655
O35 P9 1.484503 1_555
O36 P9 1.602395 1_455
O36 P10 1.624430 1_555
O37 P13 1.577315 1_555
O37 V1 1.904783 1_555
O38 P12 1.565937 1_555
O38 V2 1.858140 1_555
O39 P8 1.554172 1_555
O39 V3 1.892849 1_555
O40 P12 1.593850 1_555
O40 V1 1.808067 1_555
O41 P12 1.469760 1_555
O42 P11 1.479080 1_555
O43 P11 1.566547 1_555
O43 V4 1.877282 1_555
O44 P14 1.541704 1_555
O44 V2 1.922563 1_555
O45 P11 1.602320 1_555
O45 V3 1.806828 1_555
O46 P10 1.544056 1_555
O46 V4 1.912813 1_555
O47 P13 1.608997 1_555
O47 P0 1.617642 1_565
O48 P0 1.472502 1_555
O49 P13 1.562163 1_555
O49 V5 1.886064 1_555
O50 P12 1.567572 1_555
O50 V5 1.847000 1_555
O51 P15 1.567673 1_555
O51 V4 1.874540 1_555
O52 P15 1.570850 1_555
O52 V3 1.926620 1_555
O53 P7 1.476089 1_555
O54 P7 1.604095 1_555
O54 P14 1.620460 1_555
O55 P14 1.563579 1_555
O55 V5 1.866313 1_555
O56 P2 1.477619 1_555
O57 P2 1.614816 1_565
O57 P15 1.615740 1_555
