# generated using pymatgen
data_K2NaCa2TiSi7HO20
_symmetry_space_group_name_H-M   'P 1'
_cell_length_a   10.49955000
_cell_length_b   12.35026229
_cell_length_c   7.14236636
_cell_angle_alpha   90.78929297
_cell_angle_beta   99.18462486
_cell_angle_gamma   92.71345478
_symmetry_Int_Tables_number   1
_chemical_formula_structural   K2NaCa2TiSi7HO20
_chemical_formula_sum   'K4 Na2 Ca4 Ti2 Si14 H2 O40'
_cell_volume   913.05323768
_cell_formula_units_Z   2
loop_
 _symmetry_equiv_pos_site_id
 _symmetry_equiv_pos_as_xyz
  1  'x, y, z'
loop_
 _atom_site_type_symbol
 _atom_site_label
 _atom_site_symmetry_multiplicity
 _atom_site_fract_x
 _atom_site_fract_y
 _atom_site_fract_z
 _atom_site_occupancy
  K  K0  1  0.09980700  0.22274400  0.34310700  1
  K  K1  1  0.90019300  0.77725600  0.65689300  1
  K  K2  1  0.35070400  0.72885900  0.44852600  1
  K  K3  1  0.64929600  0.27114100  0.55147400  1
  Na  Na0  1  0.11003800  0.61128100  0.97785400  1
  Na  Na1  1  0.88996200  0.38871900  0.02214600  1
  Ca  Ca0  1  0.40679400  0.08862900  0.87893700  1
  Ca  Ca1  1  0.59320600  0.91137100  0.12106300  1
  Ca  Ca2  1  0.42013500  0.59068900  0.87546900  1
  Ca  Ca3  1  0.57986500  0.40931100  0.12453100  1
  Ti  Ti0  1  0.10030700  0.10235000  0.98785500  1
  Ti  Ti1  1  0.89969300  0.89765000  0.01214500  1
  Si  Si0  1  0.69154700  0.12610200  0.86975600  1
  Si  Si1  1  0.30845300  0.87389800  0.13024400  1
  Si  Si2  1  0.69986000  0.57499600  0.87139400  1
  Si  Si3  1  0.30014000  0.42500400  0.12860600  1
  Si  Si4  1  0.58383700  0.80230200  0.68434300  1
  Si  Si5  1  0.41616300  0.19769800  0.31565700  1
  Si  Si6  1  0.81719400  0.00302000  0.31671900  1
  Si  Si7  1  0.18280600  0.99698000  0.68328100  1
  Si  Si8  1  0.81158500  0.43060700  0.31057800  1
  Si  Si9  1  0.18841500  0.56939300  0.68942200  1
  Si  Si10  1  0.64881800  0.73215800  0.39722700  1
  Si  Si11  1  0.35118200  0.26784200  0.60277300  1
  Si  Si12  1  0.98805100  0.71981900  0.27758800  1
  Si  Si13  1  0.01194900  0.28018100  0.72241200  1
  H  H0  1  0.83095500  0.29650300  0.73011600  1
  H  H1  1  0.16904500  0.70349700  0.26988400  1
  O  O0  1  0.65523200  0.00290200  0.72486000  1
  O  O1  1  0.34476800  0.99709800  0.27514000  1
  O  O2  1  0.80623900  0.05146300  0.92033700  1
  O  O3  1  0.19376100  0.94853700  0.07966300  1
  O  O4  1  0.59339400  0.12604700  0.96620800  1
  O  O5  1  0.40660600  0.87395300  0.03379200  1
  O  O6  1  0.71778500  0.34111700  0.83422100  1
  O  O7  1  0.28221500  0.65888300  0.16577900  1
  O  O8  1  0.81803000  0.66651700  0.91893700  1
  O  O9  1  0.18197000  0.33348300  0.08106300  1
  O  O10  1  0.60296400  0.62072400  0.96960700  1
  O  O11  1  0.39703600  0.37927600  0.03039300  1
  O  O12  1  0.66081900  0.63158000  0.72760500  1
  O  O13  1  0.33918100  0.36842000  0.27239500  1
  O  O14  1  0.46621900  0.81118500  0.74235500  1
  O  O15  1  0.53378100  0.18881500  0.25764500  1
  O  O16  1  0.57372300  0.76008300  0.52482000  1
  O  O17  1  0.42627700  0.23991700  0.47518000  1
  O  O18  1  0.72310400  0.92983900  0.40710500  1
  O  O19  1  0.27689600  0.07016100  0.59289500  1
  O  O20  1  0.93335900  0.91132000  0.35749000  1
  O  O21  1  0.06664100  0.08868000  0.64251000  1
  O  O22  1  0.78517500  0.94009200  0.16519300  1
  O  O23  1  0.21482500  0.05990800  0.83480700  1
  O  O24  1  0.82906500  0.23151300  0.36871700  1
  O  O25  1  0.17093500  0.76848700  0.63128300  1
  O  O26  1  0.75929700  0.40724500  0.16790300  1
  O  O27  1  0.24070300  0.59275500  0.83209700  1
  O  O28  1  0.93416200  0.53162800  0.32662800  1
  O  O29  1  0.06583800  0.46837200  0.67337200  1
  O  O30  1  0.73440200  0.56000500  0.41761700  1
  O  O31  1  0.26559800  0.43999500  0.58238300  1
  O  O32  1  0.57228100  0.69390900  0.26810300  1
  O  O33  1  0.42771900  0.30609100  0.73189700  1
  O  O34  1  0.11489300  0.72975400  0.33587100  1
  O  O35  1  0.88510700  0.27024600  0.66412900  1
  O  O36  1  0.97362800  0.71105300  0.12262700  1
  O  O37  1  0.02637200  0.28894700  0.87737300  1
  O  O38  1  0.98741500  0.11803200  0.09874500  1
  O  O39  1  0.01258500  0.88196800  0.90125500  1
loop_
_geom_bond_atom_site_label_1
_geom_bond_atom_site_label_2
_geom_bond_distance
_geom_bond_site_symmetry_2
K0 O38 2.290624 1_455
K0 O9 2.567464 1_555
K0 O21 2.777826 1_555
K0 O24 2.884536 1_455
K1 O39 2.290624 1_655
K1 O8 2.567464 1_555
K1 O20 2.777826 1_555
K1 O25 2.884536 1_655
K2 O7 2.184440 1_555
K2 O16 2.330260 1_555
K2 O14 2.433302 1_555
K2 O25 2.522379 1_555
K3 O6 2.184440 1_555
K3 O17 2.330260 1_555
K3 O15 2.433302 1_555
K3 O24 2.522379 1_555
Na0 O27 1.870136 1_555
Na0 O7 2.125630 1_556
Na0 O36 2.289898 1_456
Na1 O26 1.870136 1_555
Na1 O6 2.125630 1_554
Na1 O37 2.289898 1_654
Ca0 O4 1.989246 1_555
Ca0 O23 2.003542 1_555
Ca0 O19 2.270304 1_555
Ca1 O5 1.989246 1_555
Ca1 O22 2.003542 1_555
Ca1 O18 2.270304 1_555
Ca2 O27 1.861280 1_555
Ca2 O10 1.946356 1_555
Ca3 O26 1.861280 1_555
Ca3 O11 1.946356 1_555
H0 O35 0.865650 1_555
H0 O6 1.612799 1_555
H0 K3 2.125928 1_555
H1 O34 0.865650 1_555
H1 O7 1.612799 1_555
H1 K2 2.125928 1_555
O0 Si0 1.818582 1_555
O1 Si1 1.818582 1_555
O2 Si0 1.551058 1_555
O2 Ti1 2.237584 1_546
O3 Si1 1.551058 1_555
O3 Ti0 2.237584 1_564
O4 Si0 1.327864 1_555
O5 Si1 1.327864 1_555
O8 Si2 1.629253 1_555
O9 Si3 1.629253 1_555
O10 Si2 1.455111 1_555
O11 Si3 1.455111 1_555
O12 Si2 1.274209 1_555
O13 Si3 1.274209 1_555
O14 Si4 1.372481 1_555
O15 Si5 1.372481 1_555
O16 Si4 1.233322 1_555
O16 Si10 1.348178 1_555
O17 Si5 1.233322 1_555
O17 Si11 1.348178 1_555
O18 Si6 1.531243 1_565
O19 Si7 1.531243 1_545
O20 Si6 1.697500 1_565
O21 Si7 1.697500 1_545
O22 Si6 1.313103 1_565
O22 Ti1 1.838175 1_555
O23 Si7 1.313103 1_545
O23 Ti0 1.838175 1_555
O24 Si8 2.509712 1_555
O25 Si9 2.509712 1_555
O26 Si8 1.105166 1_555
O27 Si9 1.105166 1_555
O28 Si8 1.738690 1_555
O29 Si9 1.738690 1_555
O30 Si8 2.020363 1_555
O30 Si10 2.344520 1_555
O31 Si9 2.020363 1_555
O31 Si11 2.344520 1_555
O32 Si10 1.197889 1_555
O33 Si11 1.197889 1_555
O34 Si12 1.329711 1_455
O35 Si13 1.329711 1_655
O36 Si12 1.096027 1_555
O37 Si13 1.096027 1_555
O38 Ti0 1.544984 1_654
O39 Ti1 1.544984 1_456
