# generated using pymatgen
data_Li2Mn4P4O15
_symmetry_space_group_name_H-M   'P 1'
_cell_length_a   8.99570087
_cell_length_b   8.99570087
_cell_length_c   18.55982611
_cell_angle_alpha   83.39899749
_cell_angle_beta   83.39899749
_cell_angle_gamma   107.19805013
_symmetry_Int_Tables_number   1
_chemical_formula_structural   Li2Mn4P4O15
_chemical_formula_sum   'Li8 Mn16 P16 O60'
_cell_volume   1407.58094391
_cell_formula_units_Z   4
loop_
 _symmetry_equiv_pos_site_id
 _symmetry_equiv_pos_as_xyz
  1  'x, y, z'
loop_
 _atom_site_type_symbol
 _atom_site_label
 _atom_site_symmetry_multiplicity
 _atom_site_fract_x
 _atom_site_fract_y
 _atom_site_fract_z
 _atom_site_occupancy
  Li  Li0  1  0.48841200  0.97508000  0.75756600  1
  Li  Li1  1  0.31481700  0.46801300  0.94351700  1
  Li  Li2  1  0.53198700  0.68518300  0.55648300  1
  Li  Li3  1  0.97508000  0.48841200  0.25756600  1
  Li  Li4  1  0.02492000  0.51158800  0.74243400  1
  Li  Li5  1  0.46801300  0.31481700  0.44351700  1
  Li  Li6  1  0.68518300  0.53198700  0.05648300  1
  Li  Li7  1  0.51158800  0.02492000  0.24243400  1
  Mn  Mn0  1  0.95270300  0.84923200  0.56932800  1
  Mn  Mn1  1  0.90586400  0.27996600  0.93736900  1
  Mn  Mn2  1  0.00000000  0.50000000  0.50000000  1
  Mn  Mn3  1  0.84923200  0.95270300  0.06932800  1
  Mn  Mn4  1  0.82349400  0.17650600  0.75000000  1
  Mn  Mn5  1  0.52234000  0.47766000  0.75000000  1
  Mn  Mn6  1  0.05102100  0.94897900  0.75000000  1
  Mn  Mn7  1  0.27996600  0.90586400  0.43736900  1
  Mn  Mn8  1  0.72003400  0.09413600  0.56263100  1
  Mn  Mn9  1  0.47766000  0.52234000  0.25000000  1
  Mn  Mn10  1  0.17650600  0.82349400  0.25000000  1
  Mn  Mn11  1  0.94897900  0.05102100  0.25000000  1
  Mn  Mn12  1  0.15076800  0.04729700  0.93067200  1
  Mn  Mn13  1  0.09413600  0.72003400  0.06263100  1
  Mn  Mn14  1  0.04729700  0.15076800  0.43067200  1
  Mn  Mn15  1  0.50000000  0.00000000  0.00000000  1
  P  P0  1  0.77211800  0.89074700  0.90071600  1
  P  P1  1  0.97720300  0.68643600  0.89980300  1
  P  P2  1  0.69938900  0.84319600  0.67981400  1
  P  P3  1  0.89074800  0.77211800  0.40071600  1
  P  P4  1  0.68643600  0.97720300  0.39980300  1
  P  P5  1  0.78010600  0.45304400  0.62592400  1
  P  P6  1  0.84319600  0.69938900  0.17981400  1
  P  P7  1  0.54695600  0.21989400  0.87407600  1
  P  P8  1  0.45304400  0.78010600  0.12592400  1
  P  P9  1  0.15680400  0.30061100  0.82018600  1
  P  P10  1  0.21989400  0.54695600  0.37407600  1
  P  P11  1  0.31356400  0.02279700  0.60019700  1
  P  P12  1  0.10925300  0.22788200  0.59928400  1
  P  P13  1  0.30061100  0.15680400  0.32018600  1
  P  P14  1  0.02279700  0.31356400  0.10019700  1
  P  P15  1  0.22788200  0.10925200  0.09928400  1
  O  O0  1  0.83135400  0.95797000  0.81928900  1
  O  O1  1  0.86773100  0.83421300  0.68550300  1
  O  O2  1  0.80745700  0.72254300  0.91553700  1
  O  O3  1  0.59772900  0.85384200  0.92660400  1
  O  O4  1  0.93303600  0.51605800  0.93303400  1
  O  O5  1  0.95797000  0.83135400  0.31928900  1
  O  O6  1  0.68228200  0.83074000  0.59614200  1
  O  O7  1  0.90411800  0.60817300  0.58288600  1
  O  O8  1  0.98906700  0.31448900  0.81292600  1
  O  O9  1  0.83421300  0.86773100  0.18550300  1
  O  O10  1  0.56764600  0.72228000  0.73469600  1
  O  O11  1  0.72254300  0.80745700  0.41553700  1
  O  O12  1  0.85384200  0.59772900  0.42660400  1
  O  O13  1  0.51605800  0.93303600  0.43303400  1
  O  O14  1  0.84027500  0.40927600  0.69792000  1
  O  O15  1  0.27243600  0.96058900  0.68304200  1
  O  O16  1  0.87913300  0.99950400  0.94829700  1
  O  O17  1  0.08894300  0.79271200  0.94462300  1
  O  O18  1  0.66701400  0.21539000  0.92838900  1
  O  O19  1  0.83074000  0.68228200  0.09614200  1
  O  O20  1  0.53021600  0.38603600  0.85792400  1
  O  O21  1  0.60817300  0.90411800  0.08288600  1
  O  O22  1  0.61396400  0.46978400  0.64207600  1
  O  O23  1  0.78461000  0.33298600  0.57161100  1
  O  O24  1  0.20728800  0.91105700  0.55537700  1
  O  O25  1  0.00049600  0.12086700  0.55170300  1
  O  O26  1  0.31448900  0.98906700  0.31292600  1
  O  O27  1  0.72228000  0.56764600  0.23469600  1
  O  O28  1  0.03941100  0.72756400  0.81695800  1
  O  O29  1  0.59072400  0.15972500  0.80208000  1
  O  O30  1  0.40927600  0.84027500  0.19792000  1
  O  O31  1  0.96058900  0.27243600  0.18304200  1
  O  O32  1  0.27772000  0.43235400  0.76530400  1
  O  O33  1  0.68551100  0.01093300  0.68707400  1
  O  O34  1  0.99950400  0.87913300  0.44829700  1
  O  O35  1  0.79271200  0.08894300  0.44462300  1
  O  O36  1  0.21539000  0.66701400  0.42838900  1
  O  O37  1  0.38603600  0.53021600  0.35792400  1
  O  O38  1  0.39182700  0.09588200  0.91711400  1
  O  O39  1  0.46978400  0.61396400  0.14207600  1
  O  O40  1  0.16926000  0.31771800  0.90385800  1
  O  O41  1  0.33298600  0.78461000  0.07161100  1
  O  O42  1  0.91105700  0.20728800  0.05537700  1
  O  O43  1  0.12086700  0.00049600  0.05170300  1
  O  O44  1  0.72756400  0.03941100  0.31695800  1
  O  O45  1  0.15972500  0.59072400  0.30208000  1
  O  O46  1  0.48394200  0.06696400  0.56696600  1
  O  O47  1  0.14615800  0.40227100  0.57339600  1
  O  O48  1  0.27745700  0.19254300  0.58446300  1
  O  O49  1  0.43235400  0.27772000  0.26530400  1
  O  O50  1  0.16578700  0.13226900  0.81449700  1
  O  O51  1  0.01093300  0.68551100  0.18707400  1
  O  O52  1  0.09588200  0.39182700  0.41711400  1
  O  O53  1  0.31771800  0.16926000  0.40385800  1
  O  O54  1  0.04203000  0.16864600  0.68071100  1
  O  O55  1  0.06696400  0.48394200  0.06696600  1
  O  O56  1  0.40227100  0.14615800  0.07339600  1
  O  O57  1  0.19254300  0.27745700  0.08446300  1
  O  O58  1  0.13226900  0.16578700  0.31449700  1
  O  O59  1  0.16864600  0.04203000  0.18071100  1
loop_
_geom_bond_atom_site_label_1
_geom_bond_atom_site_label_2
_geom_bond_distance
_geom_bond_site_symmetry_2
Li0 O29 1.968474 1_565
Li0 O33 1.997725 1_565
Li0 O15 2.492850 1_555
Li1 O40 1.867545 1_555
Li2 O6 1.867545 1_555
Li3 O45 1.968474 1_655
Li3 O51 1.997725 1_655
Li3 O31 2.492850 1_555
Li4 O14 1.968474 1_455
Li4 O8 1.997725 1_455
Li4 O28 2.492850 1_555
Li5 O53 1.867545 1_555
Li6 O19 1.867545 1_555
Li7 O30 1.968474 1_545
Li7 O26 1.997725 1_545
Li7 O44 2.492850 1_555
Mn0 O7 2.060464 1_555
Mn0 O24 2.167624 1_655
Mn0 O1 2.178235 1_555
Mn0 O34 2.207310 1_555
Mn0 O25 2.329252 1_665
Mn0 O6 2.378307 1_555
Mn1 O4 2.055726 1_555
Mn1 O18 2.085260 1_555
Mn1 O42 2.222387 1_556
Mn1 O40 2.291975 1_655
Mn1 O8 2.300279 1_555
Mn1 O16 2.444714 1_545
Mn2 O7 2.143085 1_455
Mn2 O52 2.143085 1_555
Mn2 O36 2.237260 1_555
Mn2 O23 2.237260 1_455
Mn2 O12 2.275342 1_455
Mn2 O47 2.275342 1_555
Mn3 O21 2.060464 1_555
Mn3 O42 2.167624 1_565
Mn3 O9 2.178235 1_555
Mn3 O16 2.207310 1_554
Mn3 O43 2.329252 1_665
Mn3 O19 2.378307 1_555
Mn4 O29 2.157738 1_555
Mn4 O14 2.157738 1_555
Mn4 O33 2.182448 1_555
Mn4 O8 2.182448 1_555
Mn4 O0 2.246184 1_545
Mn4 O54 2.246184 1_655
Mn5 O22 2.093840 1_555
Mn5 O20 2.093840 1_555
Mn5 O32 2.094861 1_555
Mn5 O10 2.094861 1_555
Mn6 O28 2.191015 1_555
Mn6 O15 2.191015 1_555
Mn6 O1 2.224564 1_455
Mn6 O50 2.224564 1_565
Mn6 O0 2.258164 1_455
Mn6 O54 2.258164 1_565
Mn7 O13 2.055726 1_555
Mn7 O36 2.085260 1_555
Mn7 O24 2.222387 1_555
Mn7 O53 2.291975 1_565
Mn7 O26 2.300279 1_555
Mn7 O34 2.444714 1_455
Mn8 O46 2.055726 1_555
Mn8 O23 2.085260 1_555
Mn8 O35 2.222387 1_555
Mn8 O6 2.291975 1_545
Mn8 O33 2.300279 1_555
Mn8 O25 2.444714 1_655
Mn9 O39 2.093840 1_555
Mn9 O37 2.093840 1_555
Mn9 O49 2.094861 1_555
Mn9 O27 2.094861 1_555
Mn10 O45 2.157738 1_555
Mn10 O30 2.157738 1_555
Mn10 O51 2.182448 1_555
Mn10 O26 2.182448 1_555
Mn10 O59 2.246184 1_565
Mn10 O5 2.246184 1_455
Mn11 O31 2.191015 1_555
Mn11 O44 2.191015 1_555
Mn11 O9 2.224564 1_545
Mn11 O58 2.224564 1_655
Mn11 O5 2.258164 1_545
Mn11 O59 2.258164 1_655
Mn12 O38 2.060464 1_555
Mn12 O17 2.167624 1_545
Mn12 O50 2.178235 1_555
Mn12 O43 2.207310 1_556
Mn12 O16 2.329252 1_445
Mn12 O40 2.378307 1_555
Mn13 O55 2.055726 1_555
Mn13 O41 2.085260 1_555
Mn13 O17 2.222387 1_554
Mn13 O19 2.291975 1_455
Mn13 O51 2.300279 1_555
Mn13 O43 2.444714 1_565
Mn14 O52 2.060464 1_555
Mn14 O35 2.167624 1_455
Mn14 O58 2.178235 1_555
Mn14 O25 2.207310 1_555
Mn14 O34 2.329252 1_445
Mn14 O53 2.378307 1_555
Mn15 O21 2.143085 1_545
Mn15 O38 2.143085 1_554
Mn15 O18 2.237260 1_554
Mn15 O41 2.237260 1_545
Mn15 O56 2.275342 1_555
Mn15 O3 2.275342 1_544
O0 P0 1.532240 1_555
O1 P2 1.555028 1_555
O2 P0 1.635573 1_555
O2 P1 1.653796 1_555
O3 P0 1.511327 1_555
O4 P1 1.501185 1_555
O5 P3 1.532238 1_555
O6 P2 1.591416 1_555
O7 P5 1.564674 1_555
O8 P9 1.569978 1_655
O9 P6 1.555028 1_555
O10 P2 1.526641 1_555
O11 P3 1.635582 1_555
O11 P4 1.653796 1_555
O12 P3 1.511326 1_555
O13 P4 1.501185 1_555
O14 P5 1.550758 1_555
O15 P11 1.537262 1_565
O16 P0 1.581422 1_555
O17 P1 1.556649 1_455
O18 P7 1.565562 1_555
O19 P6 1.591416 1_555
O20 P7 1.544904 1_555
O21 P8 1.564674 1_555
O22 P5 1.544904 1_555
O23 P5 1.565562 1_555
O24 P11 1.556649 1_565
O25 P12 1.581422 1_555
O26 P13 1.569978 1_565
O27 P6 1.526641 1_555
O28 P1 1.537262 1_455
O29 P7 1.550758 1_555
O30 P8 1.550758 1_555
O31 P14 1.537262 1_655
O32 P9 1.526641 1_555
O33 P2 1.569978 1_545
O34 P3 1.581418 1_555
O35 P4 1.556649 1_545
O36 P10 1.565562 1_555
O37 P10 1.544904 1_555
O38 P7 1.564674 1_555
O39 P8 1.544904 1_555
O40 P9 1.591416 1_555
O41 P8 1.565562 1_555
O42 P14 1.556649 1_655
O43 P15 1.581418 1_555
O44 P4 1.537262 1_545
O45 P10 1.550758 1_555
O46 P11 1.501185 1_555
O47 P12 1.511327 1_555
O48 P12 1.635573 1_555
O48 P11 1.653796 1_555
O49 P13 1.526641 1_555
O50 P9 1.555028 1_555
O51 P6 1.569978 1_455
O52 P10 1.564674 1_555
O53 P13 1.591416 1_555
O54 P12 1.532240 1_555
O55 P14 1.501185 1_555
O56 P15 1.511326 1_555
O57 P15 1.635582 1_555
O57 P14 1.653796 1_555
O58 P13 1.555028 1_555
O59 P15 1.532238 1_555
