# generated using pymatgen
data_LiMn2OF3
_symmetry_space_group_name_H-M   'P 1'
_cell_length_a   6.27620929
_cell_length_b   6.27848990
_cell_length_c   8.98151425
_cell_angle_alpha   90.15689272
_cell_angle_beta   90.07264204
_cell_angle_gamma   90.01142351
_symmetry_Int_Tables_number   1
_chemical_formula_structural   LiMn2OF3
_chemical_formula_sum   'Li4 Mn8 O4 F12'
_cell_volume   353.91599804
_cell_formula_units_Z   4
loop_
 _symmetry_equiv_pos_site_id
 _symmetry_equiv_pos_as_xyz
  1  'x, y, z'
loop_
 _atom_site_type_symbol
 _atom_site_label
 _atom_site_symmetry_multiplicity
 _atom_site_fract_x
 _atom_site_fract_y
 _atom_site_fract_z
 _atom_site_occupancy
  Li  Li0  1  0.25171300  0.51083500  0.24984900  1
  Li  Li1  1  0.48922200  0.25143700  0.99953600  1
  Li  Li2  1  0.50944000  0.74867900  0.49981500  1
  Li  Li3  1  0.74868700  0.49014100  0.74961600  1
  Mn  Mn0  1  0.75085300  0.01499400  0.73377400  1
  Mn  Mn1  1  0.25832100  0.77485000  0.88559100  1
  Mn  Mn2  1  0.74328900  0.22568200  0.38530000  1
  Mn  Mn3  1  0.77536200  0.74205400  0.13578000  1
  Mn  Mn4  1  0.01349400  0.25099000  0.98385000  1
  Mn  Mn5  1  0.98365100  0.75036400  0.48319400  1
  Mn  Mn6  1  0.25165200  0.98556400  0.23292700  1
  Mn  Mn7  1  0.22565700  0.25766200  0.63468400  1
  O  O0  1  0.03317400  0.74429900  0.25819300  1
  O  O1  1  0.25515700  0.03304700  0.00777700  1
  O  O2  1  0.74339200  0.96716800  0.50783000  1
  O  O3  1  0.96705900  0.25585600  0.75759600  1
  F  F0  1  0.00889300  0.26123500  0.24190600  1
  F  F1  1  0.26137400  0.99033700  0.49198800  1
  F  F2  1  0.73740000  0.00825100  0.99364100  1
  F  F3  1  0.99189800  0.73692400  0.74315000  1
  F  F4  1  0.26185200  0.49694700  0.01299700  1
  F  F5  1  0.50286700  0.26150500  0.76294700  1
  F  F6  1  0.49731400  0.73782100  0.26295000  1
  F  F7  1  0.73775300  0.50293100  0.51306100  1
  F  F8  1  0.25522600  0.51785800  0.49288700  1
  F  F9  1  0.51852000  0.74465600  0.74301200  1
  F  F10  1  0.48257100  0.25584000  0.24318700  1
  F  F11  1  0.74421000  0.48207100  0.99295800  1
loop_
_geom_bond_atom_site_label_1
_geom_bond_atom_site_label_2
_geom_bond_distance
_geom_bond_site_symmetry_2
Li0 O0 2.008962 1_555
Li1 O1 2.010887 1_556
Li2 O2 2.010311 1_555
Li3 O3 2.012060 1_555
Mn0 O3 2.042223 1_555
Mn0 O2 2.051076 1_545
Mn1 O1 1.955240 1_566
Mn2 O2 1.963485 1_545
Mn3 O0 1.955143 1_655
Mn4 O3 2.052841 1_455
Mn4 O1 2.054421 1_556
Mn5 O2 2.043442 1_555
Mn5 O0 2.045255 1_655
Mn6 O1 2.044998 1_565
Mn6 O0 2.056240 1_555
Mn7 O3 1.964074 1_455
F0 Mn2 2.119956 1_455
F0 Li0 2.186694 1_555
F0 Mn6 2.307410 1_545
F0 Mn4 2.318667 1_554
F1 Mn7 2.121069 1_565
F1 Li2 2.175365 1_555
F1 Mn5 2.304876 1_455
F1 Mn6 2.327593 1_555
F2 Mn3 2.119175 1_546
F2 Li1 2.181956 1_555
F2 Mn4 2.309363 1_655
F2 Mn0 2.336132 1_555
F3 Mn1 2.117110 1_655
F3 Li3 2.175751 1_555
F3 Mn0 2.312004 1_565
F3 Mn5 2.337062 1_555
F4 Mn1 2.089297 1_554
F4 Li1 2.104118 1_554
F4 Li0 2.129869 1_555
F4 Mn4 2.208775 1_554
F5 Mn7 2.085528 1_555
F5 Li3 2.110871 1_555
F5 Li1 2.127873 1_555
F5 Mn0 2.210492 1_555
F6 Mn3 2.087058 1_555
F6 Li0 2.102054 1_555
F6 Li2 2.129575 1_555
F6 Mn6 2.207163 1_555
F7 Mn2 2.082588 1_555
F7 Li2 2.109395 1_555
F7 Li3 2.127380 1_555
F7 Mn5 2.206697 1_555
F8 Mn7 2.082551 1_555
F8 Li2 2.155928 1_555
F8 Li0 2.183257 1_555
F8 Mn5 2.246120 1_455
F9 Mn1 2.084899 1_555
F9 Li3 2.155238 1_555
F9 Li2 2.185164 1_555
F9 Mn0 2.239221 1_565
F10 Mn2 2.082959 1_555
F10 Li0 2.160254 1_555
F10 Li1 2.188905 1_554
F10 Mn6 2.233009 1_545
F11 Mn3 2.082275 1_556
F11 Li1 2.158986 1_555
F11 Li3 2.186522 1_555
F11 Mn4 2.229055 1_655
