# generated using pymatgen
data_Sc2Pt2O7
_symmetry_space_group_name_H-M   'P 1'
_cell_length_a   6.98776848
_cell_length_b   6.98776848
_cell_length_c   6.98776848
_cell_angle_alpha   60.00000000
_cell_angle_beta   60.00000000
_cell_angle_gamma   60.00000000
_symmetry_Int_Tables_number   1
_chemical_formula_structural   Sc2Pt2O7
_chemical_formula_sum   'Sc4 Pt4 O14'
_cell_volume   241.26844497
_cell_formula_units_Z   2
loop_
 _symmetry_equiv_pos_site_id
 _symmetry_equiv_pos_as_xyz
  1  'x, y, z'
loop_
 _atom_site_type_symbol
 _atom_site_label
 _atom_site_symmetry_multiplicity
 _atom_site_fract_x
 _atom_site_fract_y
 _atom_site_fract_z
 _atom_site_occupancy
  Sc  Sc0  1  0.62500000  0.62500000  0.12500000  1
  Sc  Sc1  1  0.62500000  0.62500000  0.62500000  1
  Sc  Sc2  1  0.62500000  0.12500000  0.62500000  1
  Sc  Sc3  1  0.12500000  0.62500000  0.62500000  1
  Pt  Pt0  1  0.62500000  0.12500000  0.12500000  1
  Pt  Pt1  1  0.12500000  0.12500000  0.12500000  1
  Pt  Pt2  1  0.12500000  0.62500000  0.12500000  1
  Pt  Pt3  1  0.12500000  0.12500000  0.62500000  1
  O  O0  1  0.02620806  0.47379194  0.47379194  1
  O  O1  1  0.77620806  0.77620806  0.22379194  1
  O  O2  1  0.77620806  0.22379194  0.22379194  1
  O  O3  1  0.02620806  0.47379194  0.02620806  1
  O  O4  1  0.47379194  0.02620806  0.47379194  1
  O  O5  1  0.75000000  0.75000000  0.75000000  1
  O  O6  1  0.02620806  0.02620806  0.47379194  1
  O  O7  1  0.77620806  0.22379194  0.77620806  1
  O  O8  1  0.50000000  0.50000000  0.50000000  1
  O  O9  1  0.22379194  0.22379194  0.77620806  1
  O  O10  1  0.22379194  0.77620806  0.22379194  1
  O  O11  1  0.47379194  0.02620806  0.02620806  1
  O  O12  1  0.47379194  0.47379194  0.02620806  1
  O  O13  1  0.22379194  0.77620806  0.77620806  1
loop_
_geom_bond_atom_site_label_1
_geom_bond_atom_site_label_2
_geom_bond_distance
_geom_bond_site_symmetry_2
O0 Pt2 2.001233 1_555
O0 Pt3 2.001233 1_555
O0 Sc3 2.298835 1_555
O0 Sc1 2.298835 1_455
O1 Pt0 2.001233 1_565
O1 Pt2 2.001233 1_655
O1 Sc0 2.298835 1_555
O1 Sc1 2.298835 1_555
O2 Pt1 2.001233 1_655
O2 Pt0 2.001233 1_555
O2 Sc2 2.298835 1_555
O2 Sc0 2.298835 1_555
O3 Pt2 2.001233 1_555
O3 Pt1 2.001233 1_555
O3 Sc3 2.298835 1_554
O3 Sc0 2.298835 1_455
O4 Pt0 2.001233 1_555
O4 Pt3 2.001233 1_555
O4 Sc2 2.298835 1_555
O4 Sc1 2.298835 1_545
O5 Sc2 2.139558 1_565
O5 Sc3 2.139558 1_655
O5 Sc1 2.139558 1_555
O5 Sc0 2.139558 1_556
O6 Pt3 2.001233 1_555
O6 Pt1 2.001233 1_555
O6 Sc2 2.298835 1_455
O6 Sc3 2.298835 1_545
O7 Pt0 2.001233 1_556
O7 Pt3 2.001233 1_655
O7 Sc2 2.298835 1_555
O7 Sc1 2.298835 1_555
O8 Sc3 2.139558 1_555
O8 Sc2 2.139558 1_555
O8 Sc0 2.139558 1_555
O8 Sc1 2.139558 1_555
O9 Pt3 2.001233 1_555
O9 Pt1 2.001233 1_556
O9 Sc2 2.298835 1_555
O9 Sc3 2.298835 1_555
O10 Pt2 2.001233 1_555
O10 Pt1 2.001233 1_565
O10 Sc3 2.298835 1_555
O10 Sc0 2.298835 1_555
O11 Pt0 2.001233 1_555
O11 Pt1 2.001233 1_555
O11 Sc2 2.298835 1_554
O11 Sc0 2.298835 1_545
O12 Pt0 2.001233 1_555
O12 Pt2 2.001233 1_555
O12 Sc1 2.298835 1_554
O12 Sc0 2.298835 1_555
O13 Pt2 2.001233 1_556
O13 Pt3 2.001233 1_565
O13 Sc3 2.298835 1_555
O13 Sc1 2.298835 1_555
