# generated using pymatgen
data_Li2FeBO4
_symmetry_space_group_name_H-M   'P 1'
_cell_length_a   5.06606896
_cell_length_b   5.06606896
_cell_length_c   6.17738805
_cell_angle_alpha   89.20542166
_cell_angle_beta   89.20542166
_cell_angle_gamma   92.26817860
_symmetry_Int_Tables_number   1
_chemical_formula_structural   Li2FeBO4
_chemical_formula_sum   'Li4 Fe2 B2 O8'
_cell_volume   158.38706445
_cell_formula_units_Z   2
loop_
 _symmetry_equiv_pos_site_id
 _symmetry_equiv_pos_as_xyz
  1  'x, y, z'
loop_
 _atom_site_type_symbol
 _atom_site_label
 _atom_site_symmetry_multiplicity
 _atom_site_fract_x
 _atom_site_fract_y
 _atom_site_fract_z
 _atom_site_occupancy
  Li  Li0  1  0.67390400  0.67390400  0.71299700  1
  Li  Li1  1  0.82220400  0.17779600  0.50000000  1
  Li  Li2  1  0.17779600  0.82220400  0.50000000  1
  Li  Li3  1  0.32609600  0.32609600  0.28700300  1
  Fe  Fe0  1  0.80443200  0.19556800  0.00000000  1
  Fe  Fe1  1  0.19556800  0.80443200  0.00000000  1
  B  B0  1  0.68261400  0.68261400  0.25578200  1
  B  B1  1  0.31738600  0.31738600  0.74421800  1
  O  O0  1  0.80433300  0.80433300  0.03178900  1
  O  O1  1  0.80089800  0.80089800  0.43512500  1
  O  O2  1  0.38788700  0.71977300  0.24336200  1
  O  O3  1  0.71977300  0.38788700  0.24336200  1
  O  O4  1  0.61211300  0.28022700  0.75663800  1
  O  O5  1  0.28022700  0.61211300  0.75663800  1
  O  O6  1  0.19910200  0.19910200  0.56487500  1
  O  O7  1  0.19566700  0.19566700  0.96821100  1
loop_
_geom_bond_atom_site_label_1
_geom_bond_atom_site_label_2
_geom_bond_distance
_geom_bond_site_symmetry_2
Li0 O1 1.918399 1_555
Li0 O4 2.020300 1_555
Li0 O5 2.020300 1_555
Li0 O0 2.188375 1_556
Li1 O6 1.955541 1_655
Li1 O1 1.955541 1_545
Li1 O3 1.983726 1_555
Li1 O4 1.983726 1_555
Li2 O6 1.955541 1_565
Li2 O1 1.955541 1_455
Li2 O2 1.983726 1_555
Li2 O5 1.983726 1_555
Li3 O6 1.918399 1_555
Li3 O2 2.020300 1_555
Li3 O3 2.020300 1_555
Li3 O7 2.188375 1_554
Fe0 O4 1.857165 1_554
Fe0 O3 1.857165 1_555
Fe0 O7 1.988996 1_654
Fe0 O0 1.988996 1_545
Fe1 O5 1.857165 1_554
Fe1 O2 1.857165 1_555
Fe1 O7 1.988996 1_564
Fe1 O0 1.988996 1_455
B0 O1 1.397836 1_555
B0 O3 1.515163 1_555
B0 O2 1.515163 1_555
B0 O0 1.611725 1_555
B1 O6 1.397836 1_555
B1 O4 1.515163 1_555
B1 O5 1.515163 1_555
B1 O7 1.611725 1_555
