# generated using pymatgen
data_Li6MnV3(PO4)6
_symmetry_space_group_name_H-M   'P 1'
_cell_length_a   8.62615458
_cell_length_b   8.62615458
_cell_length_c   12.74538887
_cell_angle_alpha   74.02353524
_cell_angle_beta   74.02353524
_cell_angle_gamma   94.31574168
_symmetry_Int_Tables_number   1
_chemical_formula_structural   Li6MnV3(PO4)6
_chemical_formula_sum   'Li12 Mn2 V6 P12 O48'
_cell_volume   864.76342203
_cell_formula_units_Z   2
loop_
 _symmetry_equiv_pos_site_id
 _symmetry_equiv_pos_as_xyz
  1  'x, y, z'
loop_
 _atom_site_type_symbol
 _atom_site_label
 _atom_site_symmetry_multiplicity
 _atom_site_fract_x
 _atom_site_fract_y
 _atom_site_fract_z
 _atom_site_occupancy
  Li  Li0  1  0.99433300  0.00635800  0.74814300  1
  Li  Li1  1  0.99364200  0.00566700  0.25185700  1
  Li  Li2  1  0.71378300  0.28621700  0.50000000  1
  Li  Li3  1  0.50023500  0.50175900  0.62358300  1
  Li  Li4  1  0.71200100  0.28799900  0.00000000  1
  Li  Li5  1  0.49824100  0.49976500  0.37641700  1
  Li  Li6  1  0.28889100  0.71389200  0.74841800  1
  Li  Li7  1  0.49973600  0.49991500  0.12515400  1
  Li  Li8  1  0.50008500  0.50026400  0.87484600  1
  Li  Li9  1  0.28610800  0.71110900  0.25158200  1
  Li  Li10  1  0.00610300  0.99389700  0.50000000  1
  Li  Li11  1  0.00682500  0.99317500  0.00000000  1
  Mn  Mn0  1  0.62452900  0.94224700  0.44181000  1
  Mn  Mn1  1  0.05775300  0.37547100  0.55819000  1
  V  V0  1  0.94260000  0.62170600  0.69474900  1
  V  V1  1  0.94264200  0.62008300  0.19645300  1
  V  V2  1  0.37991700  0.05735800  0.80354700  1
  V  V3  1  0.61956900  0.94276000  0.94515600  1
  V  V4  1  0.37829400  0.05740000  0.30525100  1
  V  V5  1  0.05724000  0.38043100  0.05484400  1
  P  P0  1  0.71543200  0.28712900  0.74987500  1
  P  P1  1  0.86490700  0.66329900  0.44285400  1
  P  P2  1  0.66078400  0.86254600  0.69257200  1
  P  P3  1  0.71287100  0.28456800  0.25012500  1
  P  P4  1  0.86244300  0.66133700  0.94319300  1
  P  P5  1  0.66065200  0.86176300  0.19344700  1
  P  P6  1  0.33670100  0.13509300  0.55714600  1
  P  P7  1  0.13823700  0.33934800  0.80655300  1
  P  P8  1  0.28534700  0.71465300  0.50000000  1
  P  P9  1  0.33866300  0.13755700  0.05680700  1
  P  P10  1  0.13745400  0.33921600  0.30742800  1
  P  P11  1  0.28545700  0.71454300  0.00000000  1
  O  O0  1  0.98778500  0.65970200  0.82972600  1
  O  O1  1  0.94732300  0.60708500  0.53946900  1
  O  O2  1  0.74332200  0.17105700  0.85779200  1
  O  O3  1  0.98976000  0.65547800  0.32988700  1
  O  O4  1  0.82964300  0.26168700  0.63899800  1
  O  O5  1  0.84340700  0.84197200  0.68037600  1
  O  O6  1  0.73660400  0.46212400  0.75999800  1
  O  O7  1  0.85253600  0.84872700  0.42339300  1
  O  O8  1  0.94975500  0.60166900  0.03812500  1
  O  O9  1  0.73831300  0.17035700  0.36100200  1
  O  O10  1  0.82894300  0.25667800  0.14220800  1
  O  O11  1  0.84396800  0.84197400  0.17954400  1
  O  O12  1  0.70552300  0.54771600  0.47588200  1
  O  O13  1  0.60028500  0.95009200  0.78765300  1
  O  O14  1  0.66325200  0.98797400  0.57726200  1
  O  O15  1  0.53973600  0.26260900  0.74105300  1
  O  O16  1  0.73739100  0.46026400  0.25894700  1
  O  O17  1  0.54324000  0.70409300  0.72703600  1
  O  O18  1  0.84202100  0.84477100  0.92880600  1
  O  O19  1  0.70383600  0.54392700  0.97724900  1
  O  O20  1  0.59897800  0.95027400  0.28820100  1
  O  O21  1  0.45228400  0.29447700  0.52411800  1
  O  O22  1  0.66042500  0.98771900  0.07945400  1
  O  O23  1  0.53787600  0.26339600  0.24000200  1
  O  O24  1  0.46210700  0.73803100  0.50926500  1
  O  O25  1  0.34452200  0.01024000  0.67011300  1
  O  O26  1  0.54433300  0.70342200  0.22650700  1
  O  O27  1  0.39291500  0.05267700  0.46053100  1
  O  O28  1  0.29657800  0.45566700  0.77349300  1
  O  O29  1  0.15802600  0.15603200  0.82045600  1
  O  O30  1  0.45607300  0.29616400  0.02275100  1
  O  O31  1  0.26196900  0.53789300  0.49073500  1
  O  O32  1  0.46166100  0.73713100  0.00900300  1
  O  O33  1  0.34029800  0.01221500  0.17027400  1
  O  O34  1  0.39833100  0.05024500  0.96187500  1
  O  O35  1  0.29590700  0.45676000  0.27296400  1
  O  O36  1  0.15127300  0.14746400  0.57660700  1
  O  O37  1  0.17172600  0.74289400  0.60862800  1
  O  O38  1  0.25710600  0.82827400  0.39137200  1
  O  O39  1  0.04972600  0.40102200  0.71179900  1
  O  O40  1  0.15802800  0.15659300  0.31962400  1
  O  O41  1  0.26286900  0.53833900  0.99099700  1
  O  O42  1  0.15522900  0.15797900  0.07119400  1
  O  O43  1  0.17095100  0.74152100  0.10852000  1
  O  O44  1  0.01202600  0.33674800  0.42273800  1
  O  O45  1  0.25847900  0.82904900  0.89148000  1
  O  O46  1  0.04990800  0.39971500  0.21234700  1
  O  O47  1  0.01228100  0.33957500  0.92054600  1
loop_
_geom_bond_atom_site_label_1
_geom_bond_atom_site_label_2
_geom_bond_distance
_geom_bond_site_symmetry_2
Li0 O36 2.179897 1_655
Li0 O18 2.294198 1_545
Li0 O5 2.338189 1_545
Li0 O29 2.367987 1_655
Li1 O7 2.179897 1_545
Li1 O42 2.294198 1_655
Li1 O40 2.338189 1_655
Li1 O11 2.367987 1_545
Li2 O21 2.200553 1_555
Li2 O12 2.200553 1_555
Li2 O9 2.232101 1_555
Li2 O4 2.232101 1_555
Li2 O14 2.445151 1_545
Li2 O44 2.445151 1_655
Li3 O12 2.117852 1_555
Li3 O28 2.126946 1_555
Li3 O24 2.261637 1_555
Li3 O15 2.302137 1_555
Li3 O17 2.522133 1_555
Li3 O21 2.529915 1_555
Li4 O30 2.155253 1_555
Li4 O19 2.155253 1_554
Li4 O10 2.270171 1_555
Li4 O2 2.270171 1_554
Li4 O22 2.463223 1_545
Li4 O47 2.463223 1_654
Li5 O21 2.117852 1_555
Li5 O26 2.126946 1_555
Li5 O31 2.261637 1_555
Li5 O16 2.302137 1_555
Li5 O35 2.522133 1_555
Li5 O12 2.529915 1_555
Li6 O17 2.146329 1_555
Li6 O28 2.170312 1_555
Li6 O37 2.245528 1_555
Li6 O45 2.270086 1_555
Li6 O25 2.430742 1_565
Li6 O0 2.471380 1_455
Li7 O35 2.114507 1_555
Li7 O19 2.115628 1_554
Li7 O23 2.266195 1_555
Li7 O32 2.277687 1_555
Li7 O26 2.513698 1_555
Li7 O30 2.523528 1_555
Li8 O17 2.114507 1_555
Li8 O30 2.115628 1_556
Li8 O6 2.266195 1_555
Li8 O41 2.277687 1_555
Li8 O28 2.513698 1_555
Li8 O19 2.523528 1_555
Li9 O35 2.146329 1_555
Li9 O26 2.170312 1_555
Li9 O38 2.245528 1_555
Li9 O43 2.270086 1_555
Li9 O3 2.430742 1_455
Li9 O33 2.471380 1_565
Li10 O5 2.293664 1_455
Li10 O40 2.293664 1_565
Li10 O36 2.326306 1_565
Li10 O7 2.326306 1_455
Li11 O29 2.285350 1_564
Li11 O11 2.285350 1_455
Li11 O18 2.357719 1_454
Li11 O42 2.357719 1_565
Mn0 O14 1.979915 1_555
Mn0 O9 1.983242 1_565
Mn0 O24 1.984218 1_555
Mn0 O20 2.012857 1_555
Mn0 O7 2.159441 1_555
Mn0 O27 2.259479 1_565
Mn1 O44 1.979915 1_555
Mn1 O4 1.983242 1_455
Mn1 O31 1.984218 1_555
Mn1 O39 2.012857 1_555
Mn1 O36 2.159441 1_555
Mn1 O1 2.259479 1_455
O0 P4 1.553524 1_555
O0 V0 1.969565 1_555
O1 P1 1.569075 1_555
O1 V0 2.007041 1_555
O2 P0 1.553236 1_555
O2 V3 2.019857 1_545
O3 P1 1.564710 1_555
O3 V1 1.948941 1_555
O4 P0 1.566108 1_555
O5 P2 1.568376 1_555
O5 V0 2.124913 1_555
O6 P0 1.551575 1_555
O6 V0 1.983003 1_555
O7 P1 1.566291 1_555
O8 P4 1.585346 1_554
O8 V1 2.052044 1_555
O8 V5 2.167580 1_655
O9 P3 1.566108 1_555
O10 P3 1.553236 1_555
O10 V5 2.019857 1_655
O11 P5 1.569750 1_555
O11 V1 2.133941 1_555
O12 P1 1.518421 1_555
O13 P2 1.589397 1_555
O13 V3 2.043769 1_555
O13 V2 2.160246 1_565
O14 P2 1.560447 1_555
O15 P0 1.553390 1_555
O15 V2 1.980311 1_555
O16 P3 1.553390 1_555
O16 V1 1.980311 1_555
O17 P2 1.518231 1_555
O18 P4 1.571127 1_555
O18 V3 2.135663 1_555
O19 P4 1.519402 1_555
O20 P5 1.593581 1_555
O20 V4 2.161628 1_565
O21 P6 1.518421 1_555
O22 P5 1.557015 1_555
O22 V3 1.970127 1_554
O23 P3 1.551575 1_555
O23 V4 1.983003 1_555
O24 P8 1.563793 1_555
O25 P6 1.564710 1_555
O25 V2 1.948941 1_555
O26 P5 1.514634 1_555
O27 P6 1.569075 1_555
O27 V4 2.007041 1_555
O28 P7 1.514634 1_555
O29 P7 1.569750 1_555
O29 V2 2.133941 1_555
O30 P9 1.519402 1_555
O31 P8 1.563793 1_555
O32 P11 1.557294 1_555
O32 V3 1.973710 1_554
O33 P9 1.553524 1_555
O33 V4 1.969565 1_555
O34 P9 1.585346 1_556
O34 V2 2.052044 1_555
O34 V3 2.167580 1_545
O35 P10 1.518231 1_555
O36 P6 1.566291 1_555
O37 P8 1.552880 1_555
O37 V0 2.016736 1_455
O38 P8 1.552880 1_555
O38 V4 2.016736 1_565
O39 P7 1.593581 1_555
O39 V0 2.161628 1_455
O40 P10 1.568376 1_555
O40 V4 2.124913 1_555
O41 P11 1.557294 1_556
O41 V5 1.973710 1_556
O42 P9 1.571127 1_555
O42 V5 2.135663 1_555
O43 P11 1.550022 1_555
O43 V1 2.015001 1_455
O44 P10 1.560447 1_555
O45 P11 1.550022 1_556
O45 V2 2.015001 1_565
O46 P10 1.589397 1_555
O46 V5 2.043769 1_555
O46 V1 2.160246 1_455
O47 P7 1.557015 1_555
O47 V5 1.970127 1_556
