# generated using pymatgen
data_Mn3Fe3(CoO8)2
_symmetry_space_group_name_H-M   'P 1'
_cell_length_a   5.89669452
_cell_length_b   5.89669452
_cell_length_c   8.67607233
_cell_angle_alpha   88.91131634
_cell_angle_beta   88.91131634
_cell_angle_gamma   59.57147964
_symmetry_Int_Tables_number   1
_chemical_formula_structural   Mn3Fe3(CoO8)2
_chemical_formula_sum   'Mn3 Fe3 Co2 O16'
_cell_volume   260.06110795
_cell_formula_units_Z   1
loop_
 _symmetry_equiv_pos_site_id
 _symmetry_equiv_pos_as_xyz
  1  'x, y, z'
loop_
 _atom_site_type_symbol
 _atom_site_label
 _atom_site_symmetry_multiplicity
 _atom_site_fract_x
 _atom_site_fract_y
 _atom_site_fract_z
 _atom_site_occupancy
  Mn  Mn0  1  0.83006100  0.83006100  0.20816400  1
  Mn  Mn1  1  0.66066300  0.16840000  0.71082100  1
  Mn  Mn2  1  0.16840000  0.66066300  0.71082100  1
  Fe  Fe0  1  0.83176300  0.33157100  0.20470300  1
  Fe  Fe1  1  0.33157100  0.83176300  0.20470300  1
  Fe  Fe2  1  0.16603200  0.16603200  0.70762500  1
  Co  Co0  1  0.66753500  0.66753500  0.48935800  1
  Co  Co1  1  0.33265500  0.33265500  0.98820700  1
  O  O0  1  0.82501500  0.34687100  0.59992500  1
  O  O1  1  0.52724400  0.52724400  0.34871600  1
  O  O2  1  0.67130700  0.67130700  0.09385400  1
  O  O3  1  0.99392200  0.99392200  0.31106200  1
  O  O4  1  0.99526800  0.99526800  0.81452200  1
  O  O5  1  0.34687100  0.82501500  0.59992500  1
  O  O6  1  0.95166100  0.53331700  0.34625400  1
  O  O7  1  0.53331700  0.95166100  0.34625400  1
  O  O8  1  0.17417900  0.17417900  0.10011800  1
  O  O9  1  0.83110800  0.83110800  0.60213400  1
  O  O10  1  0.48128000  0.04852400  0.84612700  1
  O  O11  1  0.04852400  0.48128000  0.84612700  1
  O  O12  1  0.33915000  0.33915000  0.59829900  1
  O  O13  1  0.65269400  0.16891300  0.09892200  1
  O  O14  1  0.47665200  0.47665200  0.84045900  1
  O  O15  1  0.16891300  0.65269400  0.09892200  1
loop_
_geom_bond_atom_site_label_1
_geom_bond_atom_site_label_2
_geom_bond_distance
_geom_bond_site_symmetry_2
Mn0 O3 1.917154 1_555
Mn0 O7 1.921835 1_555
Mn0 O6 1.921835 1_555
Mn0 O2 1.922098 1_555
Mn0 O13 1.957937 1_565
Mn0 O15 1.957937 1_655
Mn1 O12 1.913260 1_555
Mn1 O10 1.917105 1_555
Mn1 O4 1.933112 1_545
Mn1 O14 1.944189 1_555
Mn1 O9 1.966100 1_545
Mn1 O0 1.982836 1_555
Mn2 O12 1.913260 1_555
Mn2 O11 1.917105 1_555
Mn2 O4 1.933112 1_455
Mn2 O14 1.944189 1_555
Mn2 O9 1.966100 1_455
Mn2 O5 1.982836 1_555
Fe0 O3 1.940430 1_545
Fe0 O8 1.955962 1_655
Fe0 O2 1.968462 1_555
Fe0 O13 1.993326 1_555
Fe0 O1 1.996930 1_555
Fe0 O6 2.088968 1_555
Fe1 O3 1.940430 1_455
Fe1 O8 1.955962 1_565
Fe1 O2 1.968462 1_555
Fe1 O15 1.993326 1_555
Fe1 O1 1.996930 1_555
Fe1 O7 2.088968 1_555
Fe2 O4 1.960635 1_445
Fe2 O0 1.978729 1_455
Fe2 O5 1.978729 1_545
Fe2 O12 1.991436 1_555
Fe2 O10 2.031800 1_555
Fe2 O11 2.031800 1_555
Co0 O5 1.882618 1_555
Co0 O0 1.882618 1_555
Co0 O7 1.894743 1_555
Co0 O6 1.894743 1_555
Co0 O1 1.904611 1_555
Co0 O9 1.957583 1_555
Co1 O8 1.872126 1_556
Co1 O15 1.898508 1_556
Co1 O13 1.898508 1_556
Co1 O10 1.909134 1_555
Co1 O11 1.909134 1_555
Co1 O14 1.932030 1_555
