# generated using pymatgen
data_Li2Cr3(SiO3)4
_symmetry_space_group_name_H-M   'P 1'
_cell_length_a   7.60888400
_cell_length_b   10.24138100
_cell_length_c   13.89178300
_cell_angle_alpha   90.00000000
_cell_angle_beta   90.00000000
_cell_angle_gamma   90.00000000
_symmetry_Int_Tables_number   1
_chemical_formula_structural   Li2Cr3(SiO3)4
_chemical_formula_sum   'Li8 Cr12 Si16 O48'
_cell_volume   1082.52385873
_cell_formula_units_Z   4
loop_
 _symmetry_equiv_pos_site_id
 _symmetry_equiv_pos_as_xyz
  1  'x, y, z'
loop_
 _atom_site_type_symbol
 _atom_site_label
 _atom_site_symmetry_multiplicity
 _atom_site_fract_x
 _atom_site_fract_y
 _atom_site_fract_z
 _atom_site_occupancy
  Li  Li0  1  0.03906600  0.75000000  0.14284400  1
  Li  Li1  1  0.22992700  0.75000000  0.49350600  1
  Li  Li2  1  0.27007300  0.25000000  0.99350600  1
  Li  Li3  1  0.46093400  0.25000000  0.64284400  1
  Li  Li4  1  0.53906600  0.75000000  0.35715600  1
  Li  Li5  1  0.72992700  0.75000000  0.00649400  1
  Li  Li6  1  0.77007300  0.25000000  0.50649400  1
  Li  Li7  1  0.96093400  0.25000000  0.85715600  1
  Cr  Cr0  1  0.00000000  0.00000000  0.00000000  1
  Cr  Cr1  1  0.00000000  0.50000000  0.00000000  1
  Cr  Cr2  1  0.23144300  0.75000000  0.71203200  1
  Cr  Cr3  1  0.23215500  0.25000000  0.43288700  1
  Cr  Cr4  1  0.26784500  0.75000000  0.93288700  1
  Cr  Cr5  1  0.26855700  0.25000000  0.21203200  1
  Cr  Cr6  1  0.50000000  0.00000000  0.50000000  1
  Cr  Cr7  1  0.50000000  0.50000000  0.50000000  1
  Cr  Cr8  1  0.73144300  0.75000000  0.78796800  1
  Cr  Cr9  1  0.76784500  0.75000000  0.56711300  1
  Cr  Cr10  1  0.73215500  0.25000000  0.06711300  1
  Cr  Cr11  1  0.76855700  0.25000000  0.28796800  1
  Si  Si0  1  0.17765800  0.03804300  0.62015800  1
  Si  Si1  1  0.17765800  0.46195700  0.62015800  1
  Si  Si2  1  0.22063400  0.54020100  0.33144200  1
  Si  Si3  1  0.22063400  0.95979900  0.33144200  1
  Si  Si4  1  0.27936600  0.45979900  0.83144200  1
  Si  Si5  1  0.27936600  0.04020100  0.83144200  1
  Si  Si6  1  0.32234200  0.53804300  0.12015800  1
  Si  Si7  1  0.32234200  0.96195700  0.12015800  1
  Si  Si8  1  0.67765800  0.03804300  0.87984200  1
  Si  Si9  1  0.67765800  0.46195700  0.87984200  1
  Si  Si10  1  0.72063400  0.54020100  0.16855800  1
  Si  Si11  1  0.72063400  0.95979900  0.16855800  1
  Si  Si12  1  0.77936600  0.04020100  0.66855800  1
  Si  Si13  1  0.77936600  0.45979900  0.66855800  1
  Si  Si14  1  0.82234200  0.53804300  0.37984200  1
  Si  Si15  1  0.82234200  0.96195700  0.37984200  1
  O  O0  1  0.02942500  0.58376800  0.37769400  1
  O  O1  1  0.02942500  0.91623200  0.37769400  1
  O  O2  1  0.13049500  0.10838100  0.89839000  1
  O  O3  1  0.13049500  0.39161900  0.89839000  1
  O  O4  1  0.20576300  0.88230600  0.60667900  1
  O  O5  1  0.20576300  0.61769400  0.60667900  1
  O  O6  1  0.21947800  0.61203800  0.03232900  1
  O  O7  1  0.21947800  0.88796200  0.03232900  1
  O  O8  1  0.23647500  0.11919000  0.32307500  1
  O  O9  1  0.23647500  0.38081000  0.32307500  1
  O  O10  1  0.22788500  0.59648900  0.21953000  1
  O  O11  1  0.22788500  0.90351100  0.21953000  1
  O  O12  1  0.27211500  0.40351100  0.71953000  1
  O  O13  1  0.27211500  0.09648900  0.71953000  1
  O  O14  1  0.26352500  0.61919000  0.82307500  1
  O  O15  1  0.26352500  0.88081000  0.82307500  1
  O  O16  1  0.28052200  0.11203800  0.53232900  1
  O  O17  1  0.28052200  0.38796200  0.53232900  1
  O  O18  1  0.29423700  0.38230600  0.10667900  1
  O  O19  1  0.29423700  0.11769400  0.10667900  1
  O  O20  1  0.36950500  0.60838100  0.39839000  1
  O  O21  1  0.36950500  0.89161900  0.39839000  1
  O  O22  1  0.47057500  0.08376800  0.87769400  1
  O  O23  1  0.47057500  0.41623200  0.87769400  1
  O  O24  1  0.52942500  0.91623200  0.12230600  1
  O  O25  1  0.52942500  0.58376800  0.12230600  1
  O  O26  1  0.63049500  0.10838100  0.60161000  1
  O  O27  1  0.63049500  0.39161900  0.60161000  1
  O  O28  1  0.70576300  0.61769400  0.89332100  1
  O  O29  1  0.70576300  0.88230600  0.89332100  1
  O  O30  1  0.71947800  0.61203800  0.46767100  1
  O  O31  1  0.71947800  0.88796200  0.46767100  1
  O  O32  1  0.73647500  0.11919000  0.17692500  1
  O  O33  1  0.73647500  0.38081000  0.17692500  1
  O  O34  1  0.72788500  0.59648900  0.28047000  1
  O  O35  1  0.72788500  0.90351100  0.28047000  1
  O  O36  1  0.77211500  0.09648900  0.78047000  1
  O  O37  1  0.77211500  0.40351100  0.78047000  1
  O  O38  1  0.76352500  0.61919000  0.67692500  1
  O  O39  1  0.76352500  0.88081000  0.67692500  1
  O  O40  1  0.78052200  0.11203800  0.96767100  1
  O  O41  1  0.78052200  0.38796200  0.96767100  1
  O  O42  1  0.79423700  0.11769400  0.39332100  1
  O  O43  1  0.79423700  0.38230600  0.39332100  1
  O  O44  1  0.86950500  0.60838100  0.10161000  1
  O  O45  1  0.86950500  0.89161900  0.10161000  1
  O  O46  1  0.97057500  0.08376800  0.62230600  1
  O  O47  1  0.97057500  0.41623200  0.62230600  1
loop_
_geom_bond_atom_site_label_1
_geom_bond_atom_site_label_2
_geom_bond_distance
_geom_bond_site_symmetry_2
Li0 O45 2.023917 1_455
Li0 O44 2.023917 1_455
Li0 O11 2.381321 1_555
Li0 O10 2.381321 1_555
Li0 O7 2.497547 1_555
Li0 O6 2.497547 1_555
Li1 O5 2.083639 1_555
Li1 O4 2.083639 1_555
Li1 O20 2.231012 1_555
Li1 O21 2.231012 1_555
Li2 O19 2.083639 1_556
Li2 O18 2.083639 1_556
Li2 O2 2.231012 1_555
Li2 O3 2.231012 1_555
Li3 O26 2.023917 1_555
Li3 O27 2.023917 1_555
Li3 O13 2.381321 1_555
Li3 O12 2.381321 1_555
Li3 O17 2.497547 1_555
Li3 O16 2.497547 1_555
Li4 O21 2.023917 1_555
Li4 O20 2.023917 1_555
Li4 O35 2.381321 1_555
Li4 O34 2.381321 1_555
Li4 O30 2.497547 1_555
Li4 O31 2.497547 1_555
Li5 O29 2.083639 1_554
Li5 O28 2.083639 1_554
Li5 O44 2.231012 1_555
Li5 O45 2.231012 1_555
Li6 O43 2.083639 1_555
Li6 O42 2.083639 1_555
Li6 O27 2.231012 1_555
Li6 O26 2.231012 1_555
Li7 O2 2.023917 1_655
Li7 O3 2.023917 1_655
Li7 O36 2.381321 1_555
Li7 O37 2.381321 1_555
Li7 O41 2.497547 1_555
Li7 O40 2.497547 1_555
Cr0 O2 2.051922 1_554
Cr0 O45 2.051922 1_445
Cr0 O40 2.075360 1_454
Cr0 O7 2.075360 1_545
Cr1 O3 2.051922 1_554
Cr1 O44 2.051922 1_455
Cr1 O6 2.075360 1_555
Cr1 O41 2.075360 1_454
Cr2 O4 2.004033 1_555
Cr2 O5 2.004033 1_555
Cr2 O15 2.057641 1_555
Cr2 O14 2.057641 1_555
Cr3 O16 2.010006 1_555
Cr3 O17 2.010006 1_555
Cr3 O9 2.030496 1_555
Cr3 O8 2.030496 1_555
Cr4 O7 2.010006 1_556
Cr4 O6 2.010006 1_556
Cr4 O15 2.030496 1_555
Cr4 O14 2.030496 1_555
Cr5 O18 2.004033 1_555
Cr5 O19 2.004033 1_555
Cr5 O9 2.057641 1_555
Cr5 O8 2.057641 1_555
Cr6 O21 2.051922 1_545
Cr6 O26 2.051922 1_555
Cr6 O31 2.075360 1_545
Cr6 O16 2.075360 1_555
Cr7 O20 2.051922 1_555
Cr7 O27 2.051922 1_555
Cr7 O30 2.075360 1_555
Cr7 O17 2.075360 1_555
Cr8 O28 2.004033 1_555
Cr8 O29 2.004033 1_555
Cr8 O39 2.057641 1_555
Cr8 O38 2.057641 1_555
Cr9 O30 2.010006 1_555
Cr9 O31 2.010006 1_555
Cr9 O39 2.030496 1_555
Cr9 O38 2.030496 1_555
Cr10 O41 2.010006 1_554
Cr10 O40 2.010006 1_554
Cr10 O33 2.030496 1_555
Cr10 O32 2.030496 1_555
Cr11 O43 2.004033 1_555
Cr11 O42 2.004033 1_555
Cr11 O32 2.057641 1_555
Cr11 O33 2.057641 1_555
O0 Si14 1.644056 1_455
O0 Si2 1.651852 1_555
O1 Si15 1.644056 1_455
O1 Si3 1.651852 1_555
O2 Si5 1.623459 1_555
O3 Si4 1.623459 1_555
O4 Si0 1.620091 1_565
O5 Si1 1.620091 1_555
O6 Si6 1.635700 1_555
O7 Si7 1.635700 1_555
O8 Si3 1.640950 1_545
O9 Si2 1.640950 1_555
O10 Si2 1.659011 1_555
O10 Si6 1.667479 1_555
O11 Si3 1.659011 1_555
O11 Si7 1.667479 1_555
O12 Si4 1.659011 1_555
O12 Si1 1.667479 1_555
O13 Si5 1.659011 1_555
O13 Si0 1.667479 1_555
O14 Si4 1.640950 1_555
O15 Si5 1.640950 1_565
O16 Si0 1.635700 1_555
O17 Si1 1.635700 1_555
O18 Si6 1.620091 1_555
O19 Si7 1.620091 1_545
O20 Si2 1.623459 1_555
O21 Si3 1.623459 1_555
O22 Si8 1.644056 1_555
O22 Si5 1.651852 1_555
O23 Si9 1.644056 1_555
O23 Si4 1.651852 1_555
O24 Si7 1.644056 1_555
O24 Si11 1.651852 1_555
O25 Si6 1.644056 1_555
O25 Si10 1.651852 1_555
O26 Si12 1.623459 1_555
O27 Si13 1.623459 1_555
O28 Si9 1.620091 1_555
O29 Si8 1.620091 1_565
O30 Si14 1.635700 1_555
O31 Si15 1.635700 1_555
O32 Si11 1.640950 1_545
O33 Si10 1.640950 1_555
O34 Si10 1.659011 1_555
O34 Si14 1.667479 1_555
O35 Si11 1.659011 1_555
O35 Si15 1.667479 1_555
O36 Si12 1.659011 1_555
O36 Si8 1.667479 1_555
O37 Si13 1.659011 1_555
O37 Si9 1.667479 1_555
O38 Si13 1.640950 1_555
O39 Si12 1.640950 1_565
O40 Si8 1.635700 1_555
O41 Si9 1.635700 1_555
O42 Si15 1.620091 1_545
O43 Si14 1.620091 1_555
O44 Si10 1.623459 1_555
O45 Si11 1.623459 1_555
O46 Si0 1.644056 1_655
O46 Si12 1.651852 1_555
O47 Si1 1.644056 1_655
O47 Si13 1.651852 1_555
