# generated using pymatgen
data_Li2Cr3BiO8
_symmetry_space_group_name_H-M   'P 1'
_cell_length_a   8.65059900
_cell_length_b   8.67136817
_cell_length_c   8.70228301
_cell_angle_alpha   90.25237633
_cell_angle_beta   90.63629026
_cell_angle_gamma   90.39509662
_symmetry_Int_Tables_number   1
_chemical_formula_structural   Li2Cr3BiO8
_chemical_formula_sum   'Li8 Cr12 Bi4 O32'
_cell_volume   652.71792716
_cell_formula_units_Z   4
loop_
 _symmetry_equiv_pos_site_id
 _symmetry_equiv_pos_as_xyz
  1  'x, y, z'
loop_
 _atom_site_type_symbol
 _atom_site_label
 _atom_site_symmetry_multiplicity
 _atom_site_fract_x
 _atom_site_fract_y
 _atom_site_fract_z
 _atom_site_occupancy
  Li  Li0  1  0.99975800  0.00239900  0.00100700  1
  Li  Li1  1  0.75169500  0.75003800  0.75007000  1
  Li  Li2  1  0.24834500  0.24795500  0.74950200  1
  Li  Li3  1  0.50028100  0.00153800  0.49924600  1
  Li  Li4  1  0.00026700  0.50123700  0.49942500  1
  Li  Li5  1  0.24978800  0.74970700  0.24832600  1
  Li  Li6  1  0.75124000  0.24707200  0.24971100  1
  Li  Li7  1  0.49993800  0.50153200  0.00226800  1
  Cr  Cr0  1  0.37440900  0.85981900  0.89023700  1
  Cr  Cr1  1  0.14216600  0.60767600  0.87499400  1
  Cr  Cr2  1  0.88906300  0.37630000  0.86119200  1
  Cr  Cr3  1  0.38650800  0.62323500  0.63947900  1
  Cr  Cr4  1  0.64501600  0.39052100  0.62552300  1
  Cr  Cr5  1  0.87393200  0.13853700  0.60849100  1
  Cr  Cr6  1  0.62534900  0.63704500  0.38598100  1
  Cr  Cr7  1  0.86084100  0.89111600  0.37359600  1
  Cr  Cr8  1  0.11024300  0.12485600  0.36150200  1
  Cr  Cr9  1  0.60791900  0.87473200  0.14310000  1
  Cr  Cr10  1  0.36181000  0.11187800  0.12563300  1
  Cr  Cr11  1  0.12574600  0.36203800  0.11212400  1
  Bi  Bi0  1  0.62585300  0.12444400  0.87702300  1
  Bi  Bi1  1  0.12337900  0.87585300  0.62410400  1
  Bi  Bi2  1  0.37528800  0.37368100  0.37540600  1
  Bi  Bi3  1  0.87665800  0.62571000  0.12523500  1
  O  O0  1  0.60774600  0.86289600  0.91473200  1
  O  O1  1  0.36409800  0.09182100  0.89536200  1
  O  O2  1  0.12291900  0.38852500  0.88221100  1
  O  O3  1  0.14082400  0.83443600  0.88585700  1
  O  O4  1  0.91520500  0.61008600  0.86386700  1
  O  O5  1  0.36204800  0.62651600  0.86779400  1
  O  O6  1  0.65623800  0.38741400  0.85302200  1
  O  O7  1  0.88411000  0.14578100  0.84167200  1
  O  O8  1  0.38611000  0.85374500  0.65824700  1
  O  O9  1  0.15663600  0.61283400  0.64521200  1
  O  O10  1  0.86074500  0.37418700  0.63069000  1
  O  O11  1  0.40804800  0.38679100  0.62540500  1
  O  O12  1  0.63791500  0.16592000  0.61439400  1
  O  O13  1  0.61992200  0.60860500  0.61678100  1
  O  O14  1  0.86199800  0.90799700  0.60507000  1
  O  O15  1  0.10562600  0.13521800  0.59425100  1
  O  O16  1  0.38919100  0.62317100  0.40343100  1
  O  O17  1  0.62658800  0.40180100  0.39076700  1
  O  O18  1  0.88139000  0.11961900  0.38068600  1
  O  O19  1  0.85566400  0.65560200  0.38313000  1
  O  O20  1  0.09352000  0.89279100  0.36451400  1
  O  O21  1  0.62608000  0.86720500  0.36119700  1
  O  O22  1  0.34927900  0.12543800  0.36149800  1
  O  O23  1  0.12564000  0.36205300  0.34823200  1
  O  O24  1  0.61388600  0.64469000  0.15646500  1
  O  O25  1  0.83375100  0.88636600  0.13965500  1
  O  O26  1  0.13247800  0.13276100  0.13230700  1
  O  O27  1  0.59451600  0.10495000  0.13507000  1
  O  O28  1  0.36265800  0.34841000  0.12659800  1
  O  O29  1  0.38840300  0.88182700  0.12233300  1
  O  O30  1  0.13717700  0.59483500  0.10397900  1
  O  O31  1  0.89396300  0.36664800  0.09239100  1
loop_
_geom_bond_atom_site_label_1
_geom_bond_atom_site_label_2
_geom_bond_distance
_geom_bond_site_symmetry_2
Li0 O26 1.960392 1_655
Li0 O7 2.114432 1_554
Li0 O25 2.135336 1_545
Li0 O3 2.157174 1_644
Li1 O13 2.021816 1_555
Li1 O14 2.098277 1_555
Li1 O4 2.111230 1_555
Li1 O0 2.146100 1_555
Li2 O2 2.007597 1_555
Li2 O15 2.059101 1_555
Li2 O1 2.110087 1_555
Li2 O11 2.132107 1_555
Li3 O21 2.004632 1_545
Li3 O22 2.072068 1_555
Li3 O12 2.095471 1_555
Li3 O8 2.135633 1_545
Li4 O10 1.999673 1_455
Li4 O9 2.075756 1_555
Li4 O19 2.094661 1_455
Li4 O23 2.097566 1_555
Li5 O29 1.993454 1_555
Li5 O30 2.066475 1_555
Li5 O20 2.105131 1_555
Li5 O16 2.115465 1_555
Li6 O18 1.946254 1_555
Li6 O27 2.070805 1_555
Li6 O17 2.122398 1_555
Li6 O31 2.122767 1_555
Li7 O5 1.991198 1_554
Li7 O24 2.062118 1_555
Li7 O28 2.088863 1_555
Li7 O6 2.130806 1_554
Cr0 O1 2.014685 1_565
Cr0 O8 2.022973 1_555
Cr0 O0 2.027354 1_555
Cr0 O29 2.030118 1_556
Cr0 O3 2.031012 1_555
Cr0 O5 2.033570 1_555
Cr1 O2 1.907845 1_555
Cr1 O5 1.909736 1_555
Cr1 O4 1.964920 1_455
Cr1 O3 1.968295 1_555
Cr1 O30 1.997219 1_556
Cr1 O9 2.005605 1_555
Cr2 O7 2.005497 1_555
Cr2 O31 2.014055 1_556
Cr2 O6 2.017523 1_555
Cr2 O10 2.018082 1_555
Cr2 O2 2.031220 1_655
Cr2 O4 2.038271 1_555
Cr3 O9 1.991142 1_555
Cr3 O5 2.000531 1_555
Cr3 O8 2.004811 1_555
Cr3 O13 2.035763 1_555
Cr3 O16 2.054543 1_555
Cr3 O11 2.063246 1_555
Cr4 O10 1.872583 1_555
Cr4 O13 1.906746 1_555
Cr4 O12 1.950089 1_555
Cr4 O6 1.981373 1_555
Cr4 O11 2.049936 1_555
Cr4 O17 2.050175 1_555
Cr5 O18 1.990276 1_555
Cr5 O14 2.001123 1_545
Cr5 O15 2.009888 1_655
Cr5 O7 2.030816 1_555
Cr5 O10 2.055742 1_555
Cr5 O12 2.058257 1_555
Cr6 O19 1.998182 1_555
Cr6 O24 2.000086 1_555
Cr6 O21 2.008340 1_555
Cr6 O13 2.025670 1_555
Cr6 O17 2.040595 1_555
Cr6 O16 2.052966 1_555
Cr7 O18 1.988795 1_565
Cr7 O20 2.015195 1_655
Cr7 O14 2.018930 1_555
Cr7 O21 2.041569 1_555
Cr7 O19 2.044481 1_555
Cr7 O25 2.046879 1_555
Cr8 O18 1.988812 1_455
Cr8 O26 2.007324 1_555
Cr8 O20 2.016825 1_545
Cr8 O15 2.027893 1_555
Cr8 O23 2.064037 1_555
Cr8 O22 2.067776 1_555
Cr9 O21 1.904136 1_555
Cr9 O29 1.906967 1_555
Cr9 O25 1.956059 1_555
Cr9 O0 1.989503 1_554
Cr9 O24 1.999666 1_555
Cr9 O27 2.001949 1_565
Cr10 O26 1.994814 1_555
Cr10 O29 2.009769 1_545
Cr10 O1 2.010982 1_554
Cr10 O27 2.015130 1_555
Cr10 O28 2.050998 1_555
Cr10 O22 2.059511 1_555
Cr11 O26 1.997851 1_555
Cr11 O31 2.011188 1_455
Cr11 O2 2.014811 1_554
Cr11 O30 2.022001 1_555
Cr11 O23 2.054688 1_555
Cr11 O28 2.056145 1_555
Bi0 O7 2.264959 1_555
Bi0 O27 2.271784 1_556
Bi0 O1 2.287424 1_555
Bi0 O0 2.297553 1_545
Bi0 O6 2.304273 1_555
Bi0 O12 2.318543 1_555
Bi1 O15 2.271194 1_565
Bi1 O20 2.276395 1_555
Bi1 O14 2.284402 1_455
Bi1 O8 2.298277 1_555
Bi1 O9 2.308641 1_555
Bi1 O3 2.310989 1_555
Bi2 O22 2.165504 1_555
Bi2 O23 2.171503 1_555
Bi2 O28 2.176758 1_555
Bi2 O16 2.178403 1_555
Bi2 O17 2.188400 1_555
Bi2 O11 2.193169 1_555
Bi3 O19 2.267492 1_555
Bi3 O31 2.269459 1_555
Bi3 O30 2.280780 1_655
Bi3 O25 2.296154 1_555
Bi3 O24 2.299256 1_555
Bi3 O4 2.306002 1_554
