# generated using pymatgen
data_Li2SiNiO4
_symmetry_space_group_name_H-M   'P 1'
_cell_length_a   5.24221216
_cell_length_b   6.29030549
_cell_length_c   5.34128817
_cell_angle_alpha   89.98590926
_cell_angle_beta   92.82883722
_cell_angle_gamma   89.98535319
_symmetry_Int_Tables_number   1
_chemical_formula_structural   Li2SiNiO4
_chemical_formula_sum   'Li4 Si2 Ni2 O8'
_cell_volume   175.91495767
_cell_formula_units_Z   2
loop_
 _symmetry_equiv_pos_site_id
 _symmetry_equiv_pos_as_xyz
  1  'x, y, z'
loop_
 _atom_site_type_symbol
 _atom_site_label
 _atom_site_symmetry_multiplicity
 _atom_site_fract_x
 _atom_site_fract_y
 _atom_site_fract_z
 _atom_site_occupancy
  Li  Li0  1  0.18934500  0.74946900  0.17665500  1
  Li  Li1  1  0.81133700  0.24840200  0.82289300  1
  Li  Li2  1  0.68982600  0.50153200  0.31496700  1
  Li  Li3  1  0.31021900  0.00011400  0.68510400  1
  Si  Si0  1  0.18223700  0.24898000  0.16953700  1
  Si  Si1  1  0.81825200  0.74846300  0.83031700  1
  Ni  Ni0  1  0.31458100  0.50379400  0.67189300  1
  Ni  Ni1  1  0.68524800  0.00521400  0.32658300  1
  O  O0  1  0.78360500  0.75353800  0.13631100  1
  O  O1  1  0.21612400  0.25263100  0.86345700  1
  O  O2  1  0.86916000  0.25149000  0.19866900  1
  O  O3  1  0.13161700  0.74955000  0.80197000  1
  O  O4  1  0.30472700  0.03135500  0.30108900  1
  O  O5  1  0.69506800  0.53108600  0.69927500  1
  O  O6  1  0.31198100  0.46243700  0.30147300  1
  O  O7  1  0.68947200  0.96195000  0.69701200  1
loop_
_geom_bond_atom_site_label_1
_geom_bond_atom_site_label_2
_geom_bond_distance
_geom_bond_site_symmetry_2
Li0 O4 1.978156 1_565
Li0 O3 2.009230 1_554
Li0 O6 2.018460 1_555
Li0 O0 2.127403 1_455
Li1 O5 1.982043 1_555
Li1 O2 2.015141 1_556
Li1 O7 2.016363 1_545
Li1 O1 2.122522 1_655
Li2 O0 1.926416 1_555
Li2 O2 1.949580 1_555
Li2 O6 1.993786 1_555
Li2 O5 2.059979 1_555
Li3 O1 1.928884 1_555
Li3 O3 1.951504 1_545
Li3 O7 2.000396 1_545
Li3 O4 2.059265 1_555
Ni0 O3 1.964167 1_555
Ni0 O1 1.964977 1_555
Ni0 O6 1.994993 1_555
Ni0 O5 2.000165 1_555
Ni1 O0 1.963944 1_545
Ni1 O2 1.965051 1_555
Ni1 O7 1.996169 1_545
Ni1 O4 1.999426 1_555
O0 Si1 1.653663 1_554
O1 Si0 1.653332 1_556
O2 Si0 1.656275 1_655
O3 Si1 1.657129 1_455
O4 Si0 1.653647 1_555
O5 Si1 1.653152 1_555
O6 Si0 1.647939 1_555
O7 Si1 1.648551 1_555
