# generated using pymatgen
data_Li2MnPHO5
_symmetry_space_group_name_H-M   'P 1'
_cell_length_a   5.45215253
_cell_length_b   5.59535932
_cell_length_c   7.73140989
_cell_angle_alpha   108.70786363
_cell_angle_beta   108.76218460
_cell_angle_gamma   93.90913891
_symmetry_Int_Tables_number   1
_chemical_formula_structural   Li2MnPHO5
_chemical_formula_sum   'Li4 Mn2 P2 H2 O10'
_cell_volume   207.63162200
_cell_formula_units_Z   2
loop_
 _symmetry_equiv_pos_site_id
 _symmetry_equiv_pos_as_xyz
  1  'x, y, z'
loop_
 _atom_site_type_symbol
 _atom_site_label
 _atom_site_symmetry_multiplicity
 _atom_site_fract_x
 _atom_site_fract_y
 _atom_site_fract_z
 _atom_site_occupancy
  Li  Li0  1  0.20866800  0.57555800  0.21101300  1
  Li  Li1  1  0.79115300  0.42464300  0.78884200  1
  Li  Li2  1  0.48266600  0.12493600  0.83236700  1
  Li  Li3  1  0.51802500  0.87490800  0.16764500  1
  Mn  Mn0  1  0.99959300  0.99997300  0.50052600  1
  Mn  Mn1  1  0.00008600  0.00033500  0.99968300  1
  P  P0  1  0.66537700  0.37700500  0.22817700  1
  P  P1  1  0.33462800  0.62288200  0.77177500  1
  H  H0  1  0.67036000  0.91608000  0.63510400  1
  H  H1  1  0.32930300  0.08398800  0.36511000  1
  O  O0  1  0.86197600  0.35650500  0.11735000  1
  O  O1  1  0.13824000  0.64361000  0.88282200  1
  O  O2  1  0.38218800  0.24707800  0.06997800  1
  O  O3  1  0.61790300  0.75280000  0.92975000  1
  O  O4  1  0.27027100  0.77280700  0.63088100  1
  O  O5  1  0.72972400  0.22694200  0.36892400  1
  O  O6  1  0.65524200  0.66345000  0.32871900  1
  O  O7  1  0.34483900  0.33648000  0.67122000  1
  O  O8  1  0.81547200  0.06115800  0.72350500  1
  O  O9  1  0.18429100  0.93885900  0.27660400  1
loop_
_geom_bond_atom_site_label_1
_geom_bond_atom_site_label_2
_geom_bond_distance
_geom_bond_site_symmetry_2
Li0 O9 1.956020 1_555
Li0 O0 1.958015 1_455
Li0 O2 2.253259 1_555
Li0 O6 2.263297 1_555
Li0 O1 2.596862 1_554
Li1 O8 1.957043 1_555
Li1 O1 1.959189 1_655
Li1 O3 2.250734 1_555
Li1 O7 2.262009 1_555
Li1 O0 2.599145 1_556
Li2 O7 1.995752 1_555
Li2 O2 2.008744 1_556
Li2 O4 2.051650 1_545
Li2 O8 2.237456 1_555
Li2 O0 2.383790 1_556
Li2 O3 2.510803 1_545
Li3 O6 1.994250 1_555
Li3 O3 2.008765 1_554
Li3 O5 2.049893 1_565
Li3 O9 2.242758 1_555
Li3 O1 2.384306 1_554
Li3 O2 2.512849 1_565
Mn0 O8 2.208715 1_565
Mn0 O9 2.217388 1_655
Mn0 O4 2.220366 1_655
Mn0 O5 2.221180 1_565
Mn0 O6 2.268057 1_555
Mn0 O7 2.270418 1_665
Mn1 O8 2.195116 1_455
Mn1 O9 2.201621 1_546
Mn1 O0 2.201936 1_456
Mn1 O1 2.203099 1_545
Mn1 O2 2.222540 1_556
Mn1 O3 2.225746 1_445
H0 O8 0.980162 1_565
H0 Li2 2.182342 1_565
H1 O9 0.980172 1_545
H1 Li3 2.187925 1_545
O0 P0 1.562314 1_555
O1 P1 1.562514 1_555
O2 P0 1.571668 1_555
O3 P1 1.571447 1_555
O4 P1 1.547221 1_555
O5 P0 1.546909 1_555
O6 P0 1.554554 1_555
O7 P1 1.554473 1_555
