# generated using pymatgen
data_NaYbO2
_symmetry_space_group_name_H-M   'P 1'
_cell_length_a   5.77646963
_cell_length_b   5.77646963
_cell_length_c   5.77646988
_cell_angle_alpha   33.32488964
_cell_angle_beta   33.32488964
_cell_angle_gamma   33.32488328
_symmetry_Int_Tables_number   1
_chemical_formula_structural   NaYbO2
_chemical_formula_sum   'Na1 Yb1 O2'
_cell_volume   51.79881789
_cell_formula_units_Z   1
loop_
 _symmetry_equiv_pos_site_id
 _symmetry_equiv_pos_as_xyz
  1  'x, y, z'
loop_
 _atom_site_type_symbol
 _atom_site_label
 _atom_site_symmetry_multiplicity
 _atom_site_fract_x
 _atom_site_fract_y
 _atom_site_fract_z
 _atom_site_occupancy
  Na  Na0  1  0.50000000  0.50000000  0.50000000  1
  Yb  Yb0  1  0.00000000  0.00000000  0.00000000  1
  O  O0  1  0.26320614  0.26320614  0.26320614  1
  O  O1  1  0.73679386  0.73679386  0.73679386  1
loop_
_geom_bond_atom_site_label_1
_geom_bond_atom_site_label_2
_geom_bond_distance
_geom_bond_site_symmetry_2
Na0 O0 2.479881 1_565
Na0 O0 2.479881 1_655
Na0 O1 2.479881 1_545
Na0 O1 2.479881 1_455
Na0 O0 2.479881 1_556
Na0 O1 2.479881 1_554
O0 Yb0 2.229967 1_565
O0 Yb0 2.229967 1_655
O0 Yb0 2.229967 1_556
O1 Yb0 2.229967 1_566
O1 Yb0 2.229967 1_656
O1 Yb0 2.229967 1_665
