# generated using pymatgen
data_Li3V4(OF3)3
_symmetry_space_group_name_H-M   'P 1'
_cell_length_a   5.19065200
_cell_length_b   5.53048331
_cell_length_c   17.31966881
_cell_angle_alpha   88.11742537
_cell_angle_beta   97.67410158
_cell_angle_gamma   117.96601782
_symmetry_Int_Tables_number   1
_chemical_formula_structural   Li3V4(OF3)3
_chemical_formula_sum   'Li6 V8 O6 F18'
_cell_volume   434.94847521
_cell_formula_units_Z   2
loop_
 _symmetry_equiv_pos_site_id
 _symmetry_equiv_pos_as_xyz
  1  'x, y, z'
loop_
 _atom_site_type_symbol
 _atom_site_label
 _atom_site_symmetry_multiplicity
 _atom_site_fract_x
 _atom_site_fract_y
 _atom_site_fract_z
 _atom_site_occupancy
  Li  Li0  1  0.89003400  0.44580700  0.30462200  1
  Li  Li1  1  0.90271400  0.03116900  0.82021500  1
  Li  Li2  1  0.65450500  0.35868100  0.94834100  1
  Li  Li3  1  0.34220500  0.10087800  0.55169500  1
  Li  Li4  1  0.19840500  0.16707500  0.19932400  1
  Li  Li5  1  0.06205500  0.45437500  0.67436100  1
  V  V0  1  0.97303700  0.00566200  0.00485300  1
  V  V1  1  0.98791300  0.48725900  0.50095100  1
  V  V2  1  0.74824800  0.36284600  0.12421100  1
  V  V3  1  0.50667000  0.71236900  0.25020100  1
  V  V4  1  0.53724600  0.26139200  0.75222500  1
  V  V5  1  0.75895000  0.90879100  0.62653500  1
  V  V6  1  0.25243200  0.13708600  0.37152800  1
  V  V7  1  0.21670700  0.62266100  0.87234500  1
  O  O0  1  0.80252300  0.20732200  0.03346400  1
  O  O1  1  0.76665700  0.20654400  0.56511600  1
  O  O2  1  0.70399800  0.05277800  0.71795300  1
  O  O3  1  0.66778800  0.50334200  0.21418500  1
  O  O4  1  0.81137400  0.38710800  0.84716400  1
  O  O5  1  0.25081000  0.42171900  0.31131400  1
  F  F0  1  0.77066700  0.05745900  0.19382000  1
  F  F1  1  0.73130300  0.65657400  0.05059300  1
  F  F2  1  0.70691300  0.33862600  0.40199100  1
  F  F3  1  0.82288600  0.72992000  0.53668800  1
  F  F4  1  0.82821400  0.88749700  0.34450000  1
  F  F5  1  0.29734400  0.13352800  0.09834100  1
  F  F6  1  0.78278200  0.58774000  0.68769300  1
  F  F7  1  0.21484700  0.14062200  0.65297600  1
  F  F8  1  0.21197300  0.29151400  0.47267200  1
  F  F9  1  0.66660800  0.83383300  0.90118200  1
  F  F10  1  0.17919600  0.57187400  0.15743100  1
  F  F11  1  0.30433100  0.46962800  0.77705800  1
  F  F12  1  0.31327500  0.95437000  0.27967800  1
  F  F13  1  0.30211800  0.68253700  0.59576700  1
  F  F14  1  0.24468700  0.30066300  0.93326700  1
  F  F15  1  0.24647300  0.83154900  0.44603400  1
  F  F16  1  0.22729100  0.94560300  0.81091400  1
  F  F17  1  0.16707100  0.78929800  0.96315100  1
loop_
_geom_bond_atom_site_label_1
_geom_bond_atom_site_label_2
_geom_bond_distance
_geom_bond_site_symmetry_2
Li0 O5 1.926926 1_655
Li0 O3 1.927279 1_555
Li1 O2 1.956769 1_555
Li1 O4 2.304885 1_555
Li2 O0 1.919421 1_556
Li2 O4 2.000344 1_555
Li3 O1 1.978422 1_555
Li4 O3 2.252821 1_555
Li4 O5 2.344941 1_555
Li5 O1 2.287822 1_455
Li5 O2 2.313060 1_455
O0 V0 1.830850 1_555
O0 V2 1.929713 1_555
O1 V1 1.876029 1_555
O1 V5 1.918163 1_545
O2 V4 1.884525 1_555
O2 V5 1.907591 1_545
O3 V3 1.875728 1_555
O3 V2 1.940170 1_555
O4 V7 1.880291 1_655
O4 V4 1.932405 1_555
O5 V6 1.862225 1_555
O5 V3 1.931166 1_555
F0 Li4 1.997736 1_655
F0 V3 2.062966 1_545
F0 V2 2.081494 1_555
F1 V0 1.955066 1_565
F1 V2 2.059197 1_555
F1 Li2 2.323073 1_554
F2 Li0 1.983125 1_555
F2 V1 2.010266 1_555
F2 V6 2.079892 1_555
F3 V5 2.014256 1_555
F3 V1 2.047506 1_555
F3 Li3 2.490769 1_665
F4 V6 1.972206 1_665
F4 V3 2.061778 1_555
F5 Li4 1.925542 1_555
F5 V0 2.046052 1_455
F5 V2 2.064066 1_555
F6 Li5 1.949891 1_655
F6 V4 2.054636 1_555
F6 V5 2.082633 1_555
F7 Li3 2.008408 1_555
F7 V5 2.087338 1_445
F7 V4 2.111930 1_555
F7 Li5 2.277828 1_555
F8 Li3 1.941204 1_555
F8 V1 2.032797 1_455
F8 V6 2.051106 1_555
F9 Li1 1.939983 1_565
F9 V7 2.058105 1_555
F9 V0 2.142119 1_566
F10 V2 1.986406 1_455
F10 V3 2.046599 1_555
F10 Li4 2.373107 1_555
F11 Li5 2.016248 1_555
F11 V7 2.073660 1_555
F11 V4 2.109544 1_555
F11 Li1 2.518042 1_455
F12 Li4 2.001210 1_565
F12 V6 2.047110 1_565
F12 V3 2.121669 1_555
F13 Li5 1.965541 1_555
F13 V1 2.066951 1_455
F13 V5 2.096670 1_555
F13 Li3 2.335313 1_565
F14 Li2 1.978182 1_555
F14 V0 2.088927 1_456
F14 V7 2.093773 1_555
F14 Li1 2.447094 1_455
F15 V1 2.038781 1_455
F15 V6 2.083225 1_565
F15 Li3 2.248683 1_565
F16 Li1 1.978275 1_465
F16 V7 2.030679 1_555
F16 V4 2.087252 1_565
F17 V7 1.953284 1_555
F17 V0 2.085492 1_466
