# generated using pymatgen
data_TePO5
_symmetry_space_group_name_H-M   'P 1'
_cell_length_a   6.53083414
_cell_length_b   7.48093143
_cell_length_c   7.39114175
_cell_angle_alpha   90.00000000
_cell_angle_beta   90.00000000
_cell_angle_gamma   90.00000000
_symmetry_Int_Tables_number   1
_chemical_formula_structural   TePO5
_chemical_formula_sum   'Te4 P4 O20'
_cell_volume   361.10696057
_cell_formula_units_Z   4
loop_
 _symmetry_equiv_pos_site_id
 _symmetry_equiv_pos_as_xyz
  1  'x, y, z'
loop_
 _atom_site_type_symbol
 _atom_site_label
 _atom_site_symmetry_multiplicity
 _atom_site_fract_x
 _atom_site_fract_y
 _atom_site_fract_z
 _atom_site_occupancy
  Te  Te0  1  0.25000000  0.13020578  0.74865104  1
  Te  Te1  1  0.75000000  0.36979422  0.24865104  1
  Te  Te2  1  0.25000000  0.63020578  0.75134896  1
  Te  Te3  1  0.75000000  0.86979422  0.25134896  1
  P  P0  1  0.75000000  0.12759232  0.63327452  1
  P  P1  1  0.25000000  0.37240768  0.13327452  1
  P  P2  1  0.75000000  0.62759232  0.86672548  1
  P  P3  1  0.25000000  0.87240768  0.36672548  1
  O  O0  1  0.25000000  0.04581415  0.47815225  1
  O  O1  1  0.75000000  0.11921155  0.17522166  1
  O  O2  1  0.56438138  0.13138869  0.75952593  1
  O  O3  1  0.93561862  0.13138869  0.75952593  1
  O  O4  1  0.25000000  0.20429198  0.01300748  1
  O  O5  1  0.75000000  0.29570802  0.51300748  1
  O  O6  1  0.06438138  0.36861131  0.25952593  1
  O  O7  1  0.43561862  0.36861131  0.25952593  1
  O  O8  1  0.25000000  0.38078845  0.67522166  1
  O  O9  1  0.75000000  0.45418585  0.97815225  1
  O  O10  1  0.25000000  0.54581415  0.02184775  1
  O  O11  1  0.75000000  0.61921155  0.32477834  1
  O  O12  1  0.56438138  0.63138869  0.74047407  1
  O  O13  1  0.93561862  0.63138869  0.74047407  1
  O  O14  1  0.25000000  0.70429198  0.48699252  1
  O  O15  1  0.75000000  0.79570802  0.98699252  1
  O  O16  1  0.06438138  0.86861131  0.24047407  1
  O  O17  1  0.43561862  0.86861131  0.24047407  1
  O  O18  1  0.25000000  0.88078845  0.82477834  1
  O  O19  1  0.75000000  0.95418585  0.52184775  1
loop_
_geom_bond_atom_site_label_1
_geom_bond_atom_site_label_2
_geom_bond_distance
_geom_bond_site_symmetry_2
O0 P3 1.536589 1_545
O0 Te0 2.096606 1_555
O1 Te3 1.948866 1_545
O1 Te1 1.951575 1_555
O2 P0 1.530064 1_555
O2 Te0 2.054764 1_555
O3 P0 1.530064 1_555
O3 Te0 2.054764 1_655
O4 P1 1.540090 1_555
O4 Te0 2.030981 1_554
O5 P0 1.540090 1_555
O5 Te1 2.030981 1_555
O6 P1 1.530064 1_555
O6 Te1 2.054764 1_455
O7 P1 1.530064 1_555
O7 Te1 2.054764 1_555
O8 Te2 1.948866 1_555
O8 Te0 1.951575 1_555
O9 P2 1.536589 1_555
O9 Te1 2.096606 1_556
O10 P1 1.536589 1_555
O10 Te2 2.096606 1_554
O11 Te1 1.948866 1_555
O11 Te3 1.951575 1_555
O12 P2 1.530064 1_555
O12 Te2 2.054764 1_555
O13 P2 1.530064 1_555
O13 Te2 2.054764 1_655
O14 P3 1.540090 1_555
O14 Te2 2.030981 1_555
O15 P2 1.540090 1_555
O15 Te3 2.030981 1_556
O16 P3 1.530064 1_555
O16 Te3 2.054764 1_455
O17 P3 1.530064 1_555
O17 Te3 2.054764 1_555
O18 Te0 1.948866 1_565
O18 Te2 1.951575 1_555
O19 P0 1.536589 1_565
O19 Te3 2.096606 1_555
