# generated using pymatgen
data_Li3NbV3O8
_symmetry_space_group_name_H-M   'P 1'
_cell_length_a   6.07977407
_cell_length_b   6.07977407
_cell_length_c   6.07977409
_cell_angle_alpha   58.42862448
_cell_angle_beta   58.42862448
_cell_angle_gamma   58.42862186
_symmetry_Int_Tables_number   1
_chemical_formula_structural   Li3NbV3O8
_chemical_formula_sum   'Li3 Nb1 V3 O8'
_cell_volume   153.19406984
_cell_formula_units_Z   1
loop_
 _symmetry_equiv_pos_site_id
 _symmetry_equiv_pos_as_xyz
  1  'x, y, z'
loop_
 _atom_site_type_symbol
 _atom_site_label
 _atom_site_symmetry_multiplicity
 _atom_site_fract_x
 _atom_site_fract_y
 _atom_site_fract_z
 _atom_site_occupancy
  Li  Li0  1  0.50000000  0.00000000  0.00000000  1
  Li  Li1  1  0.00000000  0.00000000  0.50000000  1
  Li  Li2  1  0.00000000  0.50000000  0.00000000  1
  Nb  Nb0  1  0.00000000  0.00000000  0.00000000  1
  V  V0  1  0.00000000  0.50000000  0.50000000  1
  V  V1  1  0.50000000  0.50000000  0.00000000  1
  V  V2  1  0.50000000  0.00000000  0.50000000  1
  O  O0  1  0.25847600  0.25847600  0.25847600  1
  O  O1  1  0.25106600  0.75981000  0.75981000  1
  O  O2  1  0.75981000  0.75981000  0.25106600  1
  O  O3  1  0.74152400  0.74152400  0.74152400  1
  O  O4  1  0.75981000  0.25106600  0.75981000  1
  O  O5  1  0.74893400  0.24019000  0.24019000  1
  O  O6  1  0.24019000  0.24019000  0.74893400  1
  O  O7  1  0.24019000  0.74893400  0.24019000  1
loop_
_geom_bond_atom_site_label_1
_geom_bond_atom_site_label_2
_geom_bond_distance
_geom_bond_site_symmetry_2
Li0 O6 2.175509 1_554
Li0 O2 2.175509 1_545
Li0 O7 2.175509 1_545
Li0 O4 2.175509 1_554
Li0 O0 2.201952 1_555
Li0 O3 2.201952 1_544
Li1 O7 2.175509 1_545
Li1 O5 2.175509 1_455
Li1 O1 2.175509 1_545
Li1 O4 2.175509 1_455
Li1 O0 2.201952 1_555
Li1 O3 2.201952 1_445
Li2 O6 2.175509 1_554
Li2 O2 2.175509 1_455
Li2 O5 2.175509 1_455
Li2 O1 2.175509 1_554
Li2 O0 2.201952 1_555
Li2 O3 2.201952 1_454
Nb0 O4 2.039546 1_454
Nb0 O1 2.039546 1_544
Nb0 O7 2.039546 1_545
Nb0 O5 2.039546 1_455
Nb0 O2 2.039546 1_445
Nb0 O6 2.039546 1_554
O0 V2 2.051151 1_555
O0 V0 2.051151 1_555
O0 V1 2.051151 1_555
O1 V1 2.076954 1_556
O1 V2 2.076954 1_565
O2 V0 2.076954 1_655
O2 V2 2.076954 1_565
O3 V0 2.051151 1_655
O3 V2 2.051151 1_565
O3 V1 2.051151 1_556
O4 V1 2.076954 1_556
O4 V0 2.076954 1_655
O5 V1 2.076954 1_555
O5 V2 2.076954 1_555
O6 V2 2.076954 1_555
O6 V0 2.076954 1_555
O7 V1 2.076954 1_555
O7 V0 2.076954 1_555
