# generated using pymatgen
data_LiZr2O4
_symmetry_space_group_name_H-M   'P 1'
_cell_length_a   6.44824392
_cell_length_b   6.44824392
_cell_length_c   6.44824392
_cell_angle_alpha   60.00000000
_cell_angle_beta   60.00000000
_cell_angle_gamma   60.00000000
_symmetry_Int_Tables_number   1
_chemical_formula_structural   LiZr2O4
_chemical_formula_sum   'Li2 Zr4 O8'
_cell_volume   189.58735752
_cell_formula_units_Z   2
loop_
 _symmetry_equiv_pos_site_id
 _symmetry_equiv_pos_as_xyz
  1  'x, y, z'
loop_
 _atom_site_type_symbol
 _atom_site_label
 _atom_site_symmetry_multiplicity
 _atom_site_fract_x
 _atom_site_fract_y
 _atom_site_fract_z
 _atom_site_occupancy
  Li  Li0  1  0.50000000  0.50000000  0.50000000  1
  Li  Li1  1  0.75000000  0.75000000  0.75000000  1
  Zr  Zr0  1  0.62500000  0.12500000  0.12500000  1
  Zr  Zr1  1  0.12500000  0.12500000  0.12500000  1
  Zr  Zr2  1  0.12500000  0.12500000  0.62500000  1
  Zr  Zr3  1  0.12500000  0.62500000  0.12500000  1
  O  O0  1  0.88743000  0.88743000  0.88743000  1
  O  O1  1  0.91228900  0.36257000  0.36257000  1
  O  O2  1  0.36257000  0.91228900  0.36257000  1
  O  O3  1  0.36257000  0.36257000  0.91228900  1
  O  O4  1  0.88743000  0.88743000  0.33771100  1
  O  O5  1  0.88743000  0.33771100  0.88743000  1
  O  O6  1  0.33771100  0.88743000  0.88743000  1
  O  O7  1  0.36257000  0.36257000  0.36257000  1
loop_
_geom_bond_atom_site_label_1
_geom_bond_atom_site_label_2
_geom_bond_distance
_geom_bond_site_symmetry_2
Li0 O3 2.170689 1_555
Li0 O1 2.170689 1_555
Li0 O2 2.170689 1_555
Li0 O7 2.170694 1_555
Li1 O5 2.170689 1_555
Li1 O6 2.170689 1_555
Li1 O4 2.170689 1_555
Li1 O0 2.170694 1_555
O0 Zr2 2.172370 1_665
O0 Zr3 2.172370 1_656
O0 Zr0 2.172370 1_566
O1 Zr1 2.172369 1_655
O1 Zr2 2.172374 1_655
O1 Zr3 2.172374 1_655
O2 Zr1 2.172369 1_565
O2 Zr2 2.172374 1_565
O2 Zr0 2.172374 1_565
O3 Zr1 2.172369 1_556
O3 Zr3 2.172374 1_556
O3 Zr0 2.172374 1_556
O4 Zr1 2.172369 1_665
O4 Zr3 2.172374 1_655
O4 Zr0 2.172374 1_565
O5 Zr1 2.172369 1_656
O5 Zr2 2.172374 1_655
O5 Zr0 2.172374 1_556
O6 Zr1 2.172369 1_566
O6 Zr2 2.172374 1_565
O6 Zr3 2.172374 1_556
O7 Zr0 2.172370 1_555
O7 Zr3 2.172370 1_555
O7 Zr2 2.172370 1_555
