# generated using pymatgen
data_Ga3NO3
_symmetry_space_group_name_H-M   'P 1'
_cell_length_a   6.13641700
_cell_length_b   8.38323516
_cell_length_c   8.41208683
_cell_angle_alpha   119.71112811
_cell_angle_beta   89.50730435
_cell_angle_gamma   91.45532457
_symmetry_Int_Tables_number   1
_chemical_formula_structural   Ga3NO3
_chemical_formula_sum   'Ga12 N4 O12'
_cell_volume   375.72753564
_cell_formula_units_Z   4
loop_
 _symmetry_equiv_pos_site_id
 _symmetry_equiv_pos_as_xyz
  1  'x, y, z'
loop_
 _atom_site_type_symbol
 _atom_site_label
 _atom_site_symmetry_multiplicity
 _atom_site_fract_x
 _atom_site_fract_y
 _atom_site_fract_z
 _atom_site_occupancy
  Ga  Ga0  1  0.01127200  0.24339100  0.17280700  1
  Ga  Ga1  1  0.31770200  0.56817000  0.49092400  1
  Ga  Ga2  1  0.29515200  0.50931300  0.08373500  1
  Ga  Ga3  1  0.99933900  0.91079600  0.74248800  1
  Ga  Ga4  1  0.50767200  0.07746600  0.83593500  1
  Ga  Ga5  1  0.28724900  0.91767400  0.42368700  1
  Ga  Ga6  1  0.01251300  0.82285300  0.08954400  1
  Ga  Ga7  1  0.80902500  0.08674800  0.50393600  1
  Ga  Ga8  1  0.79957700  0.42960400  0.91997200  1
  Ga  Ga9  1  0.49070700  0.16998500  0.25833100  1
  Ga  Ga10  1  0.79013500  0.50055200  0.57166500  1
  Ga  Ga11  1  0.49152400  0.73055200  0.90403200  1
  N  N0  1  0.02709700  0.96208100  0.34487800  1
  N  N1  1  0.26569100  0.32590700  0.30550500  1
  N  N2  1  0.24682200  0.66518200  0.98969600  1
  N  N3  1  0.54970200  0.64988700  0.65735500  1
  O  O0  1  0.76289800  0.30567400  0.32229900  1
  O  O1  1  0.03355100  0.65800900  0.60214500  1
  O  O2  1  0.01857200  0.37336800  0.03699500  1
  O  O3  1  0.36117000  0.67252300  0.33465200  1
  O  O4  1  0.99422900  0.99076000  0.99210600  1
  O  O5  1  0.50956000  0.99748300  0.00599700  1
  O  O6  1  0.76784900  0.02648900  0.69833900  1
  O  O7  1  0.26147000  0.99749200  0.68413800  1
  O  O8  1  0.75021000  0.67694200  0.00126600  1
  O  O9  1  0.52763100  0.05006900  0.39822500  1
  O  O10  1  0.52777300  0.33824300  0.95955000  1
  O  O11  1  0.84670800  0.34268500  0.66969800  1
loop_
_geom_bond_atom_site_label_1
_geom_bond_atom_site_label_2
_geom_bond_distance
_geom_bond_site_symmetry_2
Ga0 N1 1.836211 1_555
Ga0 O0 1.879784 1_455
Ga0 O4 1.899273 1_444
Ga0 O2 1.930059 1_555
Ga1 N3 1.868206 1_555
Ga1 N1 1.869495 1_555
Ga1 O3 1.920059 1_555
Ga1 O1 1.955281 1_555
Ga2 N2 1.862665 1_554
Ga2 O3 1.901370 1_555
Ga2 O10 1.943946 1_554
Ga2 O2 1.950126 1_555
Ga3 O4 1.861231 1_555
Ga3 O1 1.862015 1_655
Ga3 O6 1.879515 1_565
Ga3 O7 1.907154 1_655
Ga4 O5 1.856823 1_546
Ga4 O7 1.869668 1_545
Ga4 O6 1.893121 1_555
Ga4 O10 1.900234 1_555
Ga5 N0 1.849220 1_555
Ga5 O3 1.872462 1_555
Ga5 O9 1.897545 1_565
Ga5 O7 1.954271 1_555
Ga6 N2 1.869546 1_554
Ga6 N0 1.869948 1_555
Ga6 O8 1.912758 1_455
Ga6 O4 1.954237 1_454
Ga7 N0 1.824106 1_645
Ga7 O9 1.896148 1_555
Ga7 O11 1.901592 1_555
Ga7 O6 1.949014 1_555
Ga8 O8 1.865899 1_556
Ga8 O2 1.874085 1_656
Ga8 O11 1.877917 1_555
Ga8 O10 1.912505 1_555
Ga9 N1 1.827767 1_555
Ga9 O5 1.889927 1_545
Ga9 O9 1.906731 1_555
Ga9 O0 1.919771 1_555
Ga10 N3 1.855985 1_555
Ga10 O1 1.900061 1_655
Ga10 O11 1.913680 1_555
Ga10 O0 1.921550 1_555
Ga11 N2 1.845380 1_555
Ga11 N3 1.870619 1_555
Ga11 O8 1.952901 1_556
Ga11 O5 1.960078 1_556
