# generated using pymatgen
data_Fe5(O4F)2
_symmetry_space_group_name_H-M   'P 1'
_cell_length_a   15.07274800
_cell_length_b   4.64728000
_cell_length_c   4.64977625
_cell_angle_alpha   88.39851302
_cell_angle_beta   90.00000000
_cell_angle_gamma   90.00000000
_symmetry_Int_Tables_number   1
_chemical_formula_structural   Fe5(O4F)2
_chemical_formula_sum   'Fe10 O16 F4'
_cell_volume   325.57695706
_cell_formula_units_Z   2
loop_
 _symmetry_equiv_pos_site_id
 _symmetry_equiv_pos_as_xyz
  1  'x, y, z'
loop_
 _atom_site_type_symbol
 _atom_site_label
 _atom_site_symmetry_multiplicity
 _atom_site_fract_x
 _atom_site_fract_y
 _atom_site_fract_z
 _atom_site_occupancy
  Fe  Fe0  1  0.19531900  0.98999000  0.99565200  1
  Fe  Fe1  1  0.00000000  0.01377000  0.97580300  1
  Fe  Fe2  1  0.80468100  0.98999000  0.99565200  1
  Fe  Fe3  1  0.60096900  0.99916600  0.00114200  1
  Fe  Fe4  1  0.39903100  0.99916600  0.00114200  1
  Fe  Fe5  1  0.10423700  0.48994400  0.50182200  1
  Fe  Fe6  1  0.69871600  0.52307400  0.52572800  1
  Fe  Fe7  1  0.89576300  0.48994400  0.50182200  1
  Fe  Fe8  1  0.50000000  0.47400200  0.47543700  1
  Fe  Fe9  1  0.30128400  0.52307400  0.52572800  1
  O  O0  1  0.09620500  0.80554800  0.79793100  1
  O  O1  1  0.90379500  0.80554800  0.79793100  1
  O  O2  1  0.70051100  0.81675100  0.82215100  1
  O  O3  1  0.29948900  0.81675100  0.82215100  1
  O  O4  1  0.20446200  0.30774900  0.70256900  1
  O  O5  1  0.00000000  0.31283600  0.67378300  1
  O  O6  1  0.79553800  0.30774900  0.70256900  1
  O  O7  1  0.59975000  0.30636200  0.69322000  1
  O  O8  1  0.40025000  0.30636200  0.69322000  1
  O  O9  1  0.20227100  0.69478500  0.31322300  1
  O  O10  1  0.79772900  0.69478500  0.31322300  1
  O  O11  1  0.59980300  0.69117300  0.30864900  1
  O  O12  1  0.40019700  0.69117300  0.30864900  1
  O  O13  1  0.09833900  0.18983500  0.18510800  1
  O  O14  1  0.90166100  0.18983500  0.18510800  1
  O  O15  1  0.50000000  0.17608800  0.17777800  1
  F  F0  1  0.50000000  0.79366800  0.79477000  1
  F  F1  1  0.00000000  0.69564400  0.29244600  1
  F  F2  1  0.70034400  0.20261900  0.20779900  1
  F  F3  1  0.29965600  0.20261900  0.20779900  1
loop_
_geom_bond_atom_site_label_1
_geom_bond_atom_site_label_2
_geom_bond_distance
_geom_bond_site_symmetry_2
Fe0 O3 1.949515 1_555
Fe0 O13 1.954749 1_566
Fe0 O0 1.963613 1_555
Fe0 O4 1.986036 1_565
Fe0 O9 1.990052 1_556
Fe1 O0 1.941098 1_545
Fe1 O1 1.941098 1_445
Fe1 O5 1.947999 1_555
Fe1 O13 1.964228 1_556
Fe1 O14 1.964228 1_456
Fe2 O2 1.949515 1_555
Fe2 O14 1.954749 1_566
Fe2 O1 1.963613 1_555
Fe2 O6 1.986036 1_565
Fe2 O10 1.990052 1_556
Fe3 O2 1.924025 1_554
Fe3 O15 1.924695 1_565
Fe3 O7 1.993530 1_564
Fe3 O11 1.994758 1_555
Fe4 O3 1.924025 1_554
Fe4 O15 1.924695 1_565
Fe4 O8 1.993530 1_564
Fe4 O12 1.994758 1_555
Fe5 O5 1.936095 1_555
Fe5 O9 1.952436 1_555
Fe5 O4 1.956053 1_555
Fe5 O0 2.043143 1_555
Fe5 O13 2.058291 1_555
Fe6 O6 1.939397 1_555
Fe6 O10 1.948412 1_555
Fe6 O7 1.949903 1_555
Fe6 O11 1.951354 1_555
Fe6 O2 1.966791 1_555
Fe7 O5 1.936095 1_655
Fe7 O10 1.952436 1_555
Fe7 O6 1.956053 1_555
Fe7 O1 2.043143 1_555
Fe7 O14 2.058291 1_555
Fe8 O11 1.959393 1_555
Fe8 O12 1.959393 1_555
Fe8 O8 1.961843 1_555
Fe8 O7 1.961843 1_555
Fe8 O15 1.984819 1_555
Fe9 O4 1.939397 1_555
Fe9 O9 1.948412 1_555
Fe9 O8 1.949903 1_555
Fe9 O12 1.951354 1_555
Fe9 O3 1.966791 1_555
F0 Fe3 2.049434 1_556
F0 Fe4 2.049434 1_556
F0 Fe8 2.129541 1_555
F1 Fe1 2.057130 1_564
F1 Fe5 2.068354 1_555
F1 Fe7 2.068354 1_455
F2 Fe3 2.027726 1_545
F2 Fe2 2.115936 1_544
F2 Fe6 2.127645 1_555
F3 Fe4 2.027726 1_545
F3 Fe0 2.115936 1_544
F3 Fe9 2.127645 1_555
