# generated using pymatgen
data_CoTe2O5
_symmetry_space_group_name_H-M   'P 1'
_cell_length_a   5.84397461
_cell_length_b   7.23314368
_cell_length_c   10.69874093
_cell_angle_alpha   90.00000000
_cell_angle_beta   90.00000000
_cell_angle_gamma   90.00000000
_symmetry_Int_Tables_number   1
_chemical_formula_structural   CoTe2O5
_chemical_formula_sum   'Co4 Te8 O20'
_cell_volume   452.23907450
_cell_formula_units_Z   4
loop_
 _symmetry_equiv_pos_site_id
 _symmetry_equiv_pos_as_xyz
  1  'x, y, z'
loop_
 _atom_site_type_symbol
 _atom_site_label
 _atom_site_symmetry_multiplicity
 _atom_site_fract_x
 _atom_site_fract_y
 _atom_site_fract_z
 _atom_site_occupancy
  Co  Co0  1  0.75000000  0.50000000  0.56268299  1
  Co  Co1  1  0.25000000  0.50000000  0.43731701  1
  Co  Co2  1  0.75000000  0.00000000  0.06268299  1
  Co  Co3  1  0.25000000  0.00000000  0.93731701  1
  Te  Te0  1  0.00038559  0.63250493  0.84651950  1
  Te  Te1  1  0.50038559  0.63250493  0.15348050  1
  Te  Te2  1  0.50038559  0.86749507  0.65348050  1
  Te  Te3  1  0.00038559  0.86749507  0.34651950  1
  Te  Te4  1  -0.00038559  0.13250493  0.65348050  1
  Te  Te5  1  0.49961441  0.13250493  0.34651950  1
  Te  Te6  1  -0.00038559  0.36749507  0.15348050  1
  Te  Te7  1  0.49961441  0.36749507  0.84651950  1
  O  O0  1  0.75000000  0.50000000  0.93986232  1
  O  O1  1  0.25000000  0.50000000  0.06013768  1
  O  O2  1  0.46091217  0.64743424  0.56296990  1
  O  O3  1  0.96091217  0.64743424  0.43703010  1
  O  O4  1  0.81764793  0.69254527  0.70749604  1
  O  O5  1  0.31764793  0.69254527  0.29250396  1
  O  O6  1  0.31764793  0.80745473  0.79250396  1
  O  O7  1  0.81764793  0.80745473  0.20749604  1
  O  O8  1  0.96091217  0.85256576  0.93703010  1
  O  O9  1  0.46091217  0.85256576  0.06296990  1
  O  O10  1  0.75000000  0.00000000  0.43986232  1
  O  O11  1  0.25000000  0.00000000  0.56013768  1
  O  O12  1  0.53908783  0.14743424  0.93703010  1
  O  O13  1  0.03908783  0.14743424  0.06296990  1
  O  O14  1  0.18235207  0.19254527  0.79250396  1
  O  O15  1  0.68235207  0.19254527  0.20749604  1
  O  O16  1  0.68235207  0.30745473  0.70749604  1
  O  O17  1  0.18235207  0.30745473  0.29250396  1
  O  O18  1  0.03908783  0.35256576  0.56296990  1
  O  O19  1  0.53908783  0.35256576  0.43703010  1
loop_
_geom_bond_atom_site_label_1
_geom_bond_atom_site_label_2
_geom_bond_distance
_geom_bond_site_symmetry_2
Co0 O18 1.997847 1_655
Co0 O2 1.997847 1_555
Co0 O19 2.112740 1_555
Co0 O3 2.112740 1_555
Co0 O4 2.120450 1_555
Co0 O16 2.120450 1_555
Co1 O19 1.997847 1_555
Co1 O3 1.997847 1_455
Co1 O2 2.112740 1_555
Co1 O18 2.112740 1_555
Co1 O17 2.120450 1_555
Co1 O5 2.120450 1_555
Co2 O13 1.997847 1_655
Co2 O9 1.997847 1_545
Co2 O12 2.112740 1_554
Co2 O8 2.112740 1_544
Co2 O7 2.120450 1_545
Co2 O15 2.120450 1_555
Co3 O8 1.997847 1_445
Co3 O12 1.997847 1_555
Co3 O13 2.112740 1_556
Co3 O9 2.112740 1_546
Co3 O6 2.120450 1_545
Co3 O14 2.120450 1_555
O0 Te0 2.014194 1_655
O0 Te7 2.014194 1_555
O1 Te1 2.014194 1_555
O1 Te6 2.014194 1_555
O2 Te2 1.877372 1_555
O3 Te3 1.877372 1_655
O4 Te0 1.881842 1_655
O4 Te2 2.317948 1_555
O5 Te1 1.881842 1_555
O5 Te3 2.317948 1_555
O6 Te2 1.881842 1_555
O6 Te0 2.317948 1_555
O7 Te3 1.881842 1_655
O7 Te1 2.317948 1_555
O8 Te0 1.877372 1_655
O9 Te1 1.877372 1_555
O10 Te3 2.014194 1_645
O10 Te5 2.014194 1_555
O11 Te2 2.014194 1_545
O11 Te4 2.014194 1_555
O12 Te7 1.877372 1_555
O13 Te6 1.877372 1_555
O14 Te4 1.881842 1_555
O14 Te7 2.317948 1_555
O15 Te5 1.881842 1_555
O15 Te6 2.317948 1_655
O16 Te7 1.881842 1_555
O16 Te4 2.317948 1_655
O17 Te6 1.881842 1_555
O17 Te5 2.317948 1_555
O18 Te4 1.877372 1_555
O19 Te5 1.877372 1_555
