# generated using pymatgen
data_Li2FeP2O7
_symmetry_space_group_name_H-M   'P 1'
_cell_length_a   5.10870475
_cell_length_b   11.01560850
_cell_length_c   11.01865864
_cell_angle_alpha   80.74518310
_cell_angle_beta   102.54087484
_cell_angle_gamma   77.47357775
_symmetry_Int_Tables_number   1
_chemical_formula_structural   Li2FeP2O7
_chemical_formula_sum   'Li8 Fe4 P8 O28'
_cell_volume   576.64074837
_cell_formula_units_Z   4
loop_
 _symmetry_equiv_pos_site_id
 _symmetry_equiv_pos_as_xyz
  1  'x, y, z'
loop_
 _atom_site_type_symbol
 _atom_site_label
 _atom_site_symmetry_multiplicity
 _atom_site_fract_x
 _atom_site_fract_y
 _atom_site_fract_z
 _atom_site_occupancy
  Li  Li0  1  0.17212100  0.24947400  0.89934900  1
  Li  Li1  1  0.17173200  0.74911700  0.39957500  1
  Li  Li2  1  0.82805500  0.64950500  0.99916600  1
  Li  Li3  1  0.82809300  0.14947600  0.49941100  1
  Li  Li4  1  0.28233700  0.86669100  0.96420500  1
  Li  Li5  1  0.28308400  0.36645200  0.46433400  1
  Li  Li6  1  0.71724800  0.21442900  0.11647600  1
  Li  Li7  1  0.71734500  0.71411000  0.61659400  1
  Fe  Fe0  1  0.20475000  0.89098200  0.61355600  1
  Fe  Fe1  1  0.79514500  0.86347800  0.14092200  1
  Fe  Fe2  1  0.20518500  0.39070800  0.11365400  1
  Fe  Fe3  1  0.79495600  0.36364700  0.64084800  1
  P  P0  1  0.39164000  0.64650000  0.16807800  1
  P  P1  1  0.39183100  0.14661900  0.66801500  1
  P  P2  1  0.60845300  0.41805900  0.89646300  1
  P  P3  1  0.60803400  0.91799300  0.39666300  1
  P  P4  1  0.20692400  0.56173400  0.64494700  1
  P  P5  1  0.20701500  0.06182800  0.14504700  1
  P  P6  1  0.79310600  0.39494700  0.31188400  1
  P  P7  1  0.79300100  0.89495700  0.81169700  1
  O  O0  1  0.07025900  0.39811500  0.28066200  1
  O  O1  1  0.07024200  0.89818200  0.78034600  1
  O  O2  1  0.92969400  0.53048400  0.64809700  1
  O  O3  1  0.92979500  0.03045400  0.14811800  1
  O  O4  1  0.14392200  0.20670500  0.09467700  1
  O  O5  1  0.14375800  0.70648900  0.59431400  1
  O  O6  1  0.85660400  0.84419900  0.95647000  1
  O  O7  1  0.85564600  0.34452900  0.45664700  1
  O  O8  1  0.20773300  0.73295200  0.22904200  1
  O  O9  1  0.20863100  0.23307900  0.72913300  1
  O  O10  1  0.79191400  0.47917200  0.98293300  1
  O  O11  1  0.79176500  0.97905300  0.48306100  1
  O  O12  1  0.22979100  0.57779600  0.08092400  1
  O  O13  1  0.22929600  0.07829200  0.58070300  1
  O  O14  1  0.77066400  0.33087200  0.82797900  1
  O  O15  1  0.77017000  0.83072600  0.32816600  1
  O  O16  1  0.43850600  0.34601000  0.96738800  1
  O  O17  1  0.43717900  0.84627300  0.46759700  1
  O  O18  1  0.56163100  0.71761500  0.09610900  1
  O  O19  1  0.56245200  0.21741500  0.59618900  1
  O  O20  1  0.62812600  0.31924100  0.23573200  1
  O  O21  1  0.62808400  0.81915000  0.73571100  1
  O  O22  1  0.37186400  0.48571800  0.56921200  1
  O  O23  1  0.37195600  0.98591000  0.06919500  1
  O  O24  1  0.60752800  0.54015300  0.28778200  1
  O  O25  1  0.60719700  0.03998300  0.78796100  1
  O  O26  1  0.39276500  0.53790700  0.78998800  1
  O  O27  1  0.39277600  0.03791300  0.29008000  1
loop_
_geom_bond_atom_site_label_1
_geom_bond_atom_site_label_2
_geom_bond_distance
_geom_bond_site_symmetry_2
Li0 O9 1.957386 1_555
Li0 O14 1.975798 1_455
Li0 O16 1.996494 1_555
Li0 O4 2.170909 1_556
Li1 O8 1.959551 1_555
Li1 O15 1.976682 1_455
Li1 O17 1.998079 1_555
Li1 O5 2.164118 1_555
Li2 O10 1.957179 1_555
Li2 O12 1.978034 1_656
Li2 O18 2.000664 1_556
Li2 O6 2.164062 1_555
Li3 O11 1.958724 1_545
Li3 O13 1.974286 1_655
Li3 O19 1.995866 1_555
Li3 O7 2.166285 1_555
Li4 O23 1.947323 1_556
Li4 O1 2.014001 1_555
Li4 O18 2.039675 1_556
Li4 O6 2.226898 1_455
Li5 O22 1.945866 1_555
Li5 O0 2.013083 1_555
Li5 O19 2.039351 1_555
Li5 O7 2.233573 1_455
Li6 O20 1.945973 1_555
Li6 O3 2.015307 1_555
Li6 O16 2.037210 1_554
Li6 O4 2.229292 1_655
Li7 O21 1.946531 1_555
Li7 O2 2.011874 1_555
Li7 O17 2.042129 1_555
Li7 O5 2.229880 1_655
Fe0 O13 2.072634 1_565
Fe0 O1 2.104203 1_555
Fe0 O5 2.157983 1_555
Fe0 O21 2.183112 1_555
Fe0 O11 2.192264 1_455
Fe0 O17 2.251545 1_555
Fe1 O15 2.073164 1_555
Fe1 O3 2.105878 1_565
Fe1 O6 2.159031 1_554
Fe1 O23 2.183548 1_555
Fe1 O8 2.190990 1_655
Fe1 O18 2.253779 1_555
Fe2 O12 2.070295 1_555
Fe2 O0 2.107816 1_555
Fe2 O4 2.152464 1_555
Fe2 O20 2.181066 1_555
Fe2 O10 2.194816 1_454
Fe2 O16 2.257336 1_554
Fe3 O14 2.070852 1_555
Fe3 O2 2.104714 1_555
Fe3 O7 2.154622 1_555
Fe3 O22 2.181746 1_555
Fe3 O9 2.195417 1_655
Fe3 O19 2.253639 1_555
O0 P6 1.534089 1_455
O1 P7 1.535245 1_455
O2 P4 1.534458 1_655
O3 P5 1.534821 1_655
O4 P5 1.540496 1_555
O5 P4 1.539640 1_555
O6 P7 1.540159 1_555
O7 P6 1.540006 1_555
O8 P0 1.527281 1_555
O9 P1 1.526400 1_555
O10 P2 1.526966 1_555
O11 P3 1.526920 1_555
O12 P0 1.529392 1_555
O13 P1 1.529258 1_555
O14 P2 1.529047 1_555
O15 P3 1.529473 1_555
O16 P2 1.545472 1_555
O17 P3 1.547158 1_555
O18 P0 1.546307 1_555
O19 P1 1.546041 1_555
O20 P6 1.527339 1_555
O21 P7 1.527055 1_555
O22 P4 1.526974 1_555
O23 P5 1.527393 1_565
O24 P6 1.619899 1_555
O24 P0 1.624583 1_555
O25 P7 1.619131 1_545
O25 P1 1.626541 1_555
O26 P4 1.619393 1_555
O26 P2 1.625694 1_555
O27 P5 1.619062 1_555
O27 P3 1.625902 1_545
