# generated using pymatgen
data_V3CrSb2(PO4)6
_symmetry_space_group_name_H-M   'P 1'
_cell_length_a   8.86849871
_cell_length_b   8.86849871
_cell_length_c   8.86849915
_cell_angle_alpha   58.83185340
_cell_angle_beta   58.83185340
_cell_angle_gamma   58.83185551
_symmetry_Int_Tables_number   1
_chemical_formula_structural   V3CrSb2(PO4)6
_chemical_formula_sum   'V3 Cr1 Sb2 P6 O24'
_cell_volume   480.05896180
_cell_formula_units_Z   1
loop_
 _symmetry_equiv_pos_site_id
 _symmetry_equiv_pos_as_xyz
  1  'x, y, z'
loop_
 _atom_site_type_symbol
 _atom_site_label
 _atom_site_symmetry_multiplicity
 _atom_site_fract_x
 _atom_site_fract_y
 _atom_site_fract_z
 _atom_site_occupancy
  V  V0  1  0.64699900  0.64699900  0.64699900  1
  V  V1  1  0.85363400  0.85363400  0.85363400  1
  V  V2  1  0.35370100  0.35370100  0.35370100  1
  Cr  Cr0  1  0.14582700  0.14582700  0.14582700  1
  Sb  Sb0  1  0.99956300  0.99956300  0.99956300  1
  Sb  Sb1  1  0.50167000  0.50167000  0.50167000  1
  P  P0  1  0.53705600  0.96222700  0.24959500  1
  P  P1  1  0.24959500  0.53705600  0.96222700  1
  P  P2  1  0.96222700  0.24959500  0.53705600  1
  P  P3  1  0.04045100  0.75126400  0.45959100  1
  P  P4  1  0.75126400  0.45959100  0.04045100  1
  P  P5  1  0.45959100  0.04045100  0.75126400  1
  O  O0  1  0.30153900  0.50729700  0.11644900  1
  O  O1  1  0.11644900  0.30153900  0.50729700  1
  O  O2  1  0.50729700  0.11644900  0.30153900  1
  O  O3  1  0.73105500  0.93941400  0.08437600  1
  O  O4  1  0.38158300  0.99203800  0.19907800  1
  O  O5  1  0.56005100  0.76766500  0.41634300  1
  O  O6  1  0.08437700  0.73105500  0.93941400  1
  O  O7  1  0.41634300  0.56005100  0.76766500  1
  O  O8  1  0.00916200  0.80175900  0.61556500  1
  O  O9  1  0.76766500  0.41634300  0.56005100  1
  O  O10  1  0.06101800  0.91847000  0.26629500  1
  O  O11  1  0.80175900  0.61556500  0.00916200  1
  O  O12  1  0.19907800  0.38158300  0.99203800  1
  O  O13  1  0.93941400  0.08437700  0.73105500  1
  O  O14  1  0.23294700  0.58527400  0.43684600  1
  O  O15  1  0.99203800  0.19907800  0.38158300  1
  O  O16  1  0.58527400  0.43684600  0.23294700  1
  O  O17  1  0.91847000  0.26629500  0.06101800  1
  O  O18  1  0.43684600  0.23294700  0.58527400  1
  O  O19  1  0.61556500  0.00916200  0.80175900  1
  O  O20  1  0.26629500  0.06101800  0.91847000  1
  O  O21  1  0.48950900  0.88444900  0.70025500  1
  O  O22  1  0.88444900  0.70025500  0.48950900  1
  O  O23  1  0.70025500  0.48950900  0.88444900  1
loop_
_geom_bond_atom_site_label_1
_geom_bond_atom_site_label_2
_geom_bond_distance
_geom_bond_site_symmetry_2
Cr0 O12 1.964253 1_554
Cr0 O4 1.964253 1_545
Cr0 O15 1.964253 1_455
Cr0 O10 2.069023 1_545
Cr0 O17 2.069023 1_455
Cr0 O20 2.069023 1_554
O0 P1 1.518293 1_554
O0 V2 1.971079 1_555
O1 P2 1.518293 1_455
O1 V2 1.971079 1_555
O2 P0 1.518293 1_545
O2 V2 1.971079 1_555
O3 P0 1.576407 1_555
O3 V1 2.097782 1_554
O3 Sb0 2.359292 1_554
O4 P0 1.520267 1_555
O5 P0 1.585065 1_555
O5 V0 2.106380 1_555
O5 Sb1 2.327317 1_555
O6 P1 1.576403 1_555
O6 V1 2.097790 1_455
O6 Sb0 2.359289 1_455
O7 P1 1.585065 1_555
O7 V0 2.106380 1_555
O7 Sb1 2.327317 1_555
O8 P3 1.518613 1_555
O8 V1 1.976359 1_455
O9 P2 1.585065 1_555
O9 V0 2.106380 1_555
O9 Sb1 2.327317 1_555
O10 P3 1.579837 1_555
O10 Sb0 2.361725 1_454
O11 P4 1.518613 1_555
O11 V1 1.976359 1_554
O12 P1 1.520267 1_555
O13 P2 1.576403 1_555
O13 V1 2.097790 1_545
O13 Sb0 2.359289 1_545
O14 P3 1.572169 1_555
O14 V2 2.093289 1_555
O14 Sb1 2.389073 1_555
O15 P2 1.520267 1_555
O16 P4 1.572169 1_555
O16 V2 2.093289 1_555
O16 Sb1 2.389074 1_555
O17 P4 1.579837 1_555
O17 Sb0 2.361725 1_544
O18 P5 1.572169 1_555
O18 V2 2.093289 1_555
O18 Sb1 2.389073 1_555
O19 P5 1.518613 1_555
O19 V1 1.976359 1_545
O20 P5 1.579837 1_555
O20 Sb0 2.361724 1_445
O21 P5 1.527332 1_565
O21 V0 1.977515 1_555
O22 P3 1.527332 1_655
O22 V0 1.977515 1_555
O23 P4 1.527332 1_556
O23 V0 1.977515 1_555
