# generated using pymatgen
data_Li3Fe2P2(CO7)2
_symmetry_space_group_name_H-M   'P 1'
_cell_length_a   8.38793852
_cell_length_b   8.27055888
_cell_length_c   8.25697720
_cell_angle_alpha   77.01429058
_cell_angle_beta   86.39900538
_cell_angle_gamma   93.52605453
_symmetry_Int_Tables_number   1
_chemical_formula_structural   Li3Fe2P2(CO7)2
_chemical_formula_sum   'Li6 Fe4 P4 C4 O28'
_cell_volume   555.37333152
_cell_formula_units_Z   2
loop_
 _symmetry_equiv_pos_site_id
 _symmetry_equiv_pos_as_xyz
  1  'x, y, z'
loop_
 _atom_site_type_symbol
 _atom_site_label
 _atom_site_symmetry_multiplicity
 _atom_site_fract_x
 _atom_site_fract_y
 _atom_site_fract_z
 _atom_site_occupancy
  Li  Li0  1  0.89032300  0.26438600  0.49009200  1
  Li  Li1  1  0.90110500  0.75522800  0.99191400  1
  Li  Li2  1  0.71988100  0.39671700  0.13508100  1
  Li  Li3  1  0.28798600  0.40059000  0.64626300  1
  Li  Li4  1  0.10370300  0.74073400  0.51296600  1
  Li  Li5  1  0.10793200  0.23667300  0.01133100  1
  Fe  Fe0  1  0.67701500  0.52794000  0.72031200  1
  Fe  Fe1  1  0.65941800  0.02016100  0.22384000  1
  Fe  Fe2  1  0.33580600  0.96898100  0.77875100  1
  Fe  Fe3  1  0.32504700  0.47753000  0.26806800  1
  P  P0  1  0.57410800  0.24252400  0.51231500  1
  P  P1  1  0.58083900  0.73986400  0.00574600  1
  P  P2  1  0.42200100  0.26050400  0.98619500  1
  P  P3  1  0.41911100  0.75936300  0.49454500  1
  C  C0  1  0.96318500  0.46495200  0.77487200  1
  C  C1  1  0.95328600  0.98042000  0.27820100  1
  C  C2  1  0.05189800  0.03062200  0.72404800  1
  C  C3  1  0.03578000  0.51875100  0.22324300  1
  O  O0  1  0.93292800  0.58532300  0.65022200  1
  O  O1  1  0.92700200  0.10248700  0.15483400  1
  O  O2  1  0.91770000  0.07217000  0.67795600  1
  O  O3  1  0.83753600  0.39762100  0.87452400  1
  O  O4  1  0.89525300  0.54284600  0.17862000  1
  O  O5  1  0.82425800  0.89741500  0.36047500  1
  O  O6  1  0.69343000  0.36036300  0.57695000  1
  O  O7  1  0.67784800  0.19714300  0.36724600  1
  O  O8  1  0.69580300  0.68253300  0.87881200  1
  O  O9  1  0.68807400  0.87093400  0.06619200  1
  O  O10  1  0.52428500  0.08642200  0.65257300  1
  O  O11  1  0.57927100  0.20377600  0.06216600  1
  O  O12  1  0.57155600  0.69029600  0.56637900  1
  O  O13  1  0.52806800  0.58461200  0.15043800  1
  O  O14  1  0.46874100  0.40152600  0.82678100  1
  O  O15  1  0.42215600  0.32810400  0.45403100  1
  O  O16  1  0.42695100  0.80621600  0.93587500  1
  O  O17  1  0.46875200  0.90438500  0.34086500  1
  O  O18  1  0.31575400  0.12150400  0.93818800  1
  O  O19  1  0.30591600  0.82065700  0.62021700  1
  O  O20  1  0.30844300  0.32022800  0.11347100  1
  O  O21  1  0.30551600  0.62236400  0.44686900  1
  O  O22  1  0.18117500  0.11943900  0.64637100  1
  O  O23  1  0.10088600  0.41245500  0.79832600  1
  O  O24  1  0.15881900  0.61469400  0.14527000  1
  O  O25  1  0.08805800  0.93765600  0.32178300  1
  O  O26  1  0.06986100  0.39808200  0.34566600  1
  O  O27  1  0.07753100  0.90480300  0.84310400  1
loop_
_geom_bond_atom_site_label_1
_geom_bond_atom_site_label_2
_geom_bond_distance
_geom_bond_site_symmetry_2
Li0 O26 1.972217 1_655
Li0 O2 1.991877 1_555
Li0 O6 2.034773 1_555
Li0 O7 2.207530 1_555
Li1 O27 2.023201 1_655
Li1 O4 2.056039 1_556
Li1 O8 2.127463 1_555
Li1 O9 2.195752 1_556
Li2 O4 1.948528 1_555
Li2 O11 2.142274 1_555
Li2 O7 2.223750 1_555
Li2 O3 2.308188 1_554
Li2 O13 2.321652 1_555
Li3 O23 1.968722 1_555
Li3 O15 2.105130 1_555
Li3 O21 2.162352 1_555
Li3 O14 2.192741 1_555
Li3 O22 2.439734 1_555
Li4 O0 1.975690 1_455
Li4 O25 2.014588 1_555
Li4 O19 2.100461 1_555
Li4 O21 2.109440 1_555
Li5 O1 1.978583 1_455
Li5 O23 2.021106 1_554
Li5 O20 2.077174 1_555
Li5 O18 2.154365 1_554
Fe0 O12 1.929080 1_555
Fe0 O6 2.020242 1_555
Fe0 O14 2.021695 1_555
Fe0 O8 2.031130 1_555
Fe0 O3 2.091177 1_555
Fe0 O0 2.182472 1_555
Fe1 O17 1.899997 1_545
Fe1 O11 1.966566 1_555
Fe1 O9 1.998651 1_545
Fe1 O5 2.017190 1_545
Fe1 O7 2.083896 1_555
Fe1 O1 2.302815 1_555
Fe2 O16 1.883107 1_555
Fe2 O10 1.917735 1_565
Fe2 O19 2.001570 1_555
Fe2 O18 2.024165 1_565
Fe2 O22 2.047163 1_565
Fe2 O27 2.201034 1_555
Fe3 O13 1.961582 1_555
Fe3 O15 1.994147 1_555
Fe3 O20 2.021828 1_555
Fe3 O24 2.028375 1_555
Fe3 O21 2.104724 1_555
Fe3 O26 2.211214 1_555
C0 O23 1.269685 1_655
C0 O3 1.308002 1_555
C0 O0 1.310810 1_555
C1 O25 1.255232 1_655
C1 O1 1.303405 1_565
C1 O5 1.307962 1_555
C2 O2 1.254039 1_455
C2 O27 1.299915 1_545
C2 O22 1.315191 1_555
C3 O4 1.270955 1_455
C3 O24 1.302103 1_555
C3 O26 1.310550 1_555
O6 P0 1.554754 1_555
O7 P0 1.563377 1_555
O8 P1 1.551079 1_556
O9 P1 1.553344 1_555
O10 P0 1.543877 1_555
O11 P2 1.549722 1_554
O12 P3 1.531673 1_555
O13 P1 1.564042 1_555
O14 P2 1.560641 1_555
O15 P0 1.546616 1_555
O16 P1 1.529232 1_556
O17 P3 1.552532 1_555
O18 P2 1.547935 1_555
O19 P3 1.551481 1_555
O20 P2 1.555995 1_554
O21 P3 1.568900 1_555
