# generated using pymatgen
data_RbB2P2HO9
_symmetry_space_group_name_H-M   'P 1'
_cell_length_a   12.30746800
_cell_length_b   6.86357300
_cell_length_c   8.94739336
_cell_angle_alpha   82.39045111
_cell_angle_beta   90.00000000
_cell_angle_gamma   90.00000000
_symmetry_Int_Tables_number   1
_chemical_formula_structural   RbB2P2HO9
_chemical_formula_sum   'Rb4 B8 P8 H4 O36'
_cell_volume   749.15889748
_cell_formula_units_Z   4
loop_
 _symmetry_equiv_pos_site_id
 _symmetry_equiv_pos_as_xyz
  1  'x, y, z'
loop_
 _atom_site_type_symbol
 _atom_site_label
 _atom_site_symmetry_multiplicity
 _atom_site_fract_x
 _atom_site_fract_y
 _atom_site_fract_z
 _atom_site_occupancy
  Rb  Rb0  1  0.37954600  0.72752900  0.81033200  1
  Rb  Rb1  1  0.12045400  0.72752900  0.31033200  1
  Rb  Rb2  1  0.87954600  0.27247100  0.68966800  1
  Rb  Rb3  1  0.62045400  0.27247100  0.18966800  1
  B  B0  1  0.63786500  0.93185900  0.63958400  1
  B  B1  1  0.86213500  0.93185900  0.13958400  1
  B  B2  1  0.63557800  0.61638200  0.53082000  1
  B  B3  1  0.86442200  0.61638200  0.03082000  1
  B  B4  1  0.13557800  0.38361800  0.96918000  1
  B  B5  1  0.36442200  0.38361800  0.46918000  1
  B  B6  1  0.13786500  0.06814100  0.86041600  1
  B  B7  1  0.36213500  0.06814100  0.36041600  1
  P  P0  1  0.70806500  0.87259100  0.94252500  1
  P  P1  1  0.79193500  0.87259100  0.44252500  1
  P  P2  1  0.03817500  0.71024000  0.82284700  1
  P  P3  1  0.46182500  0.71024000  0.32284700  1
  P  P4  1  0.53817500  0.28976000  0.67715300  1
  P  P5  1  0.96182500  0.28976000  0.17715300  1
  P  P6  1  0.20806500  0.12740900  0.55747500  1
  P  P7  1  0.29193500  0.12740900  0.05747500  1
  H  H0  1  0.98012700  0.77777300  0.58855800  1
  H  H1  1  0.51987300  0.77777300  0.08855800  1
  H  H2  1  0.48012700  0.22222700  0.91144200  1
  H  H3  1  0.01987300  0.22222700  0.41144200  1
  O  O0  1  0.20475000  0.99064500  0.99548700  1
  O  O1  1  0.29525000  0.99064500  0.49548700  1
  O  O2  1  0.04586400  0.92828800  0.84750900  1
  O  O3  1  0.71531400  0.93775100  0.76953700  1
  O  O4  1  0.45413600  0.92828800  0.34750900  1
  O  O5  1  0.90485100  0.89507500  0.50311500  1
  O  O6  1  0.78468600  0.93775100  0.26953700  1
  O  O7  1  0.59514900  0.89507500  0.00311500  1
  O  O8  1  0.59320200  0.74262900  0.62988800  1
  O  O9  1  0.74959000  0.65599000  0.98511900  1
  O  O10  1  0.04089700  0.68879400  0.65171600  1
  O  O11  1  0.92835000  0.62373900  0.88329700  1
  O  O12  1  0.90679800  0.74262900  0.12988800  1
  O  O13  1  0.13623900  0.59568900  0.89994300  1
  O  O14  1  0.75041000  0.65599000  0.48511900  1
  O  O15  1  0.45910300  0.68879400  0.15171600  1
  O  O16  1  0.57165000  0.62373900  0.38329700  1
  O  O17  1  0.36376100  0.59568900  0.39994300  1
  O  O18  1  0.63623900  0.40431100  0.60005700  1
  O  O19  1  0.42835000  0.37626100  0.61670300  1
  O  O20  1  0.54089700  0.31120600  0.84828400  1
  O  O21  1  0.24959000  0.34401000  0.51488100  1
  O  O22  1  0.86376100  0.40431100  0.10005700  1
  O  O23  1  0.09320200  0.25737100  0.87011200  1
  O  O24  1  0.07165000  0.37626100  0.11670300  1
  O  O25  1  0.95910300  0.31120600  0.34828400  1
  O  O26  1  0.25041000  0.34401000  0.01488100  1
  O  O27  1  0.40679800  0.25737100  0.37011200  1
  O  O28  1  0.40485100  0.10492500  0.99688500  1
  O  O29  1  0.21531400  0.06224900  0.73046300  1
  O  O30  1  0.09514900  0.10492500  0.49688500  1
  O  O31  1  0.54586400  0.07171200  0.65249100  1
  O  O32  1  0.28468600  0.06224900  0.23046300  1
  O  O33  1  0.95413600  0.07171200  0.15249100  1
  O  O34  1  0.70475000  0.00935500  0.50451300  1
  O  O35  1  0.79525000  0.00935500  0.00451300  1
loop_
_geom_bond_atom_site_label_1
_geom_bond_atom_site_label_2
_geom_bond_distance
_geom_bond_site_symmetry_2
B0 O8 1.423513 1_555
B0 O31 1.498729 1_565
B0 O34 1.500286 1_565
B0 O3 1.508193 1_555
B1 O12 1.423513 1_555
B1 O33 1.498729 1_565
B1 O35 1.500286 1_565
B1 O6 1.508193 1_555
B2 O8 1.418436 1_555
B2 O14 1.486290 1_555
B2 O18 1.504557 1_555
B2 O16 1.531730 1_555
B3 O12 1.418436 1_555
B3 O9 1.486290 1_554
B3 O22 1.504557 1_555
B3 O11 1.531730 1_554
B4 O23 1.418436 1_555
B4 O26 1.486290 1_556
B4 O13 1.504557 1_555
B4 O24 1.531730 1_556
B5 O27 1.418436 1_555
B5 O21 1.486290 1_555
B5 O17 1.504557 1_555
B5 O19 1.531730 1_555
B6 O23 1.423513 1_555
B6 O2 1.498729 1_545
B6 O0 1.500286 1_545
B6 O29 1.508193 1_555
B7 O27 1.423513 1_555
B7 O4 1.498729 1_545
B7 O1 1.500286 1_545
B7 O32 1.508193 1_555
H0 O10 1.077172 1_655
H0 O5 1.388511 1_555
H0 Rb1 3.086447 1_655
H1 O15 1.077172 1_555
H1 O7 1.388511 1_555
H1 Rb0 3.086447 1_554
H2 O20 1.077172 1_555
H2 O28 1.388511 1_555
H2 Rb3 3.086447 1_556
H3 O25 1.077172 1_455
H3 O30 1.388511 1_555
H3 Rb2 3.086447 1_455
O0 P7 1.574174 1_566
O0 Rb1 3.305458 1_556
O0 Rb0 3.380276 1_555
O1 P6 1.574174 1_565
O1 Rb0 3.305458 1_555
O1 Rb1 3.380276 1_555
O2 P2 1.544307 1_555
O2 Rb2 3.298714 1_465
O3 P0 1.555733 1_555
O3 Rb2 3.072358 1_565
O4 P3 1.544307 1_555
O4 Rb3 3.298714 1_565
O5 P1 1.507038 1_555
O5 Rb2 3.276851 1_565
O5 Rb1 3.444453 1_655
O6 P1 1.555733 1_555
O6 Rb3 3.072358 1_565
O7 P0 1.507038 1_554
O7 Rb3 3.276851 1_565
O7 Rb0 3.444453 1_554
O8 Rb0 3.080204 1_555
O9 P0 1.570518 1_555
O9 Rb3 3.395394 1_556
O10 P2 1.557877 1_555
O10 Rb1 3.185010 1_555
O10 Rb2 3.459323 1_455
O11 P2 1.544988 1_655
O11 Rb2 3.206428 1_555
O12 Rb1 3.080204 1_655
O13 P2 1.551454 1_555
O13 Rb0 3.199458 1_555
O14 P1 1.570518 1_555
O14 Rb2 3.395394 1_555
O15 P3 1.557877 1_555
O15 Rb0 3.185010 1_554
O15 Rb3 3.459323 1_555
O16 P3 1.544988 1_555
O16 Rb3 3.206428 1_555
O17 P3 1.551454 1_555
O17 Rb1 3.199458 1_555
O18 P4 1.551454 1_555
O18 Rb2 3.199458 1_555
O19 P4 1.544988 1_555
O19 Rb0 3.206428 1_555
O20 P4 1.557877 1_555
O20 Rb3 3.185010 1_556
O20 Rb0 3.459323 1_555
O21 P6 1.570518 1_555
O21 Rb1 3.395394 1_555
O22 P5 1.551454 1_555
O22 Rb3 3.199458 1_555
O23 Rb2 3.080204 1_455
O24 P5 1.544988 1_455
O24 Rb1 3.206428 1_555
O25 P5 1.557877 1_555
O25 Rb2 3.185010 1_555
O25 Rb1 3.459323 1_655
O26 P7 1.570518 1_555
O26 Rb0 3.395394 1_554
O27 Rb3 3.080204 1_555
O28 P7 1.507038 1_556
O28 Rb0 3.276851 1_545
O28 Rb3 3.444453 1_556
O29 P6 1.555733 1_555
O29 Rb0 3.072358 1_545
O30 P6 1.507038 1_555
O30 Rb1 3.276851 1_545
O30 Rb2 3.444453 1_455
O31 P4 1.544307 1_555
O31 Rb0 3.298714 1_545
O32 P7 1.555733 1_555
O32 Rb1 3.072358 1_545
O33 P5 1.544307 1_555
O33 Rb1 3.298714 1_645
O34 P1 1.574174 1_545
O34 Rb3 3.305458 1_555
O34 Rb2 3.380276 1_555
O35 P0 1.574174 1_544
O35 Rb2 3.305458 1_554
O35 Rb3 3.380276 1_555
