# generated using pymatgen
data_Li5Mn3(SbO5)2
_symmetry_space_group_name_H-M   'P 1'
_cell_length_a   5.37437662
_cell_length_b   8.33762237
_cell_length_c   10.84458602
_cell_angle_alpha   101.55389240
_cell_angle_beta   100.40820978
_cell_angle_gamma   108.66110160
_symmetry_Int_Tables_number   1
_chemical_formula_structural   Li5Mn3(SbO5)2
_chemical_formula_sum   'Li10 Mn6 Sb4 O20'
_cell_volume   435.10274146
_cell_formula_units_Z   2
loop_
 _symmetry_equiv_pos_site_id
 _symmetry_equiv_pos_as_xyz
  1  'x, y, z'
loop_
 _atom_site_type_symbol
 _atom_site_label
 _atom_site_symmetry_multiplicity
 _atom_site_fract_x
 _atom_site_fract_y
 _atom_site_fract_z
 _atom_site_occupancy
  Li  Li0  1  0.49998600  0.49991000  0.24992800  1
  Li  Li1  1  0.50003600  0.50012000  0.75009100  1
  Li  Li2  1  0.88515800  0.39922700  0.12043100  1
  Li  Li3  1  0.88529000  0.39929000  0.62051800  1
  Li  Li4  1  0.11469600  0.60071800  0.37948900  1
  Li  Li5  1  0.11480600  0.60072800  0.87956500  1
  Li  Li6  1  0.29190000  0.77506600  0.18895700  1
  Li  Li7  1  0.29207800  0.77521800  0.68917400  1
  Li  Li8  1  0.70789800  0.22476000  0.31080100  1
  Li  Li9  1  0.70811300  0.22491600  0.81105400  1
  Mn  Mn0  1  0.50005200  0.00004700  0.50003500  1
  Mn  Mn1  1  0.89510600  0.89284400  0.84496300  1
  Mn  Mn2  1  0.10490500  0.10715600  0.15499900  1
  Mn  Mn3  1  0.49990700  0.99991200  0.99991800  1
  Mn  Mn4  1  0.89495400  0.89274400  0.34499100  1
  Mn  Mn5  1  0.10516500  0.10739200  0.65504100  1
  Sb  Sb0  1  0.71391800  0.69674600  0.04925200  1
  Sb  Sb1  1  0.71381600  0.69670200  0.54912100  1
  Sb  Sb2  1  0.28614700  0.30327600  0.45083400  1
  Sb  Sb3  1  0.28606900  0.30327400  0.95088900  1
  O  O0  1  0.08653100  0.84206100  0.02506100  1
  O  O1  1  0.08619400  0.84188300  0.52506300  1
  O  O2  1  0.91388700  0.15815300  0.47493300  1
  O  O3  1  0.91330900  0.15786400  0.97492100  1
  O  O4  1  0.69413400  0.92493100  0.16293700  1
  O  O5  1  0.69413500  0.92474800  0.66274100  1
  O  O6  1  0.30586500  0.07527600  0.33725200  1
  O  O7  1  0.30585600  0.07505900  0.83703200  1
  O  O8  1  0.33136800  0.54700800  0.06994400  1
  O  O9  1  0.33137700  0.54682800  0.56985100  1
  O  O10  1  0.66858900  0.45308900  0.43012800  1
  O  O11  1  0.66869100  0.45310200  0.93010200  1
  O  O12  1  0.48553700  0.24862300  0.11345400  1
  O  O13  1  0.48543700  0.24877100  0.61317900  1
  O  O14  1  0.51453400  0.75124200  0.38677000  1
  O  O15  1  0.51454300  0.75130300  0.88657700  1
  O  O16  1  0.90441400  0.65423000  0.21450200  1
  O  O17  1  0.90420400  0.65426600  0.71429300  1
  O  O18  1  0.09578000  0.34574700  0.28569600  1
  O  O19  1  0.09561700  0.34577200  0.78551500  1
loop_
_geom_bond_atom_site_label_1
_geom_bond_atom_site_label_2
_geom_bond_distance
_geom_bond_site_symmetry_2
Li0 O8 2.163518 1_555
Li0 O10 2.164370 1_555
Li0 O12 2.279973 1_555
Li0 O14 2.281898 1_555
Li0 O16 2.288550 1_555
Li0 O18 2.288893 1_555
Li1 O11 2.163502 1_555
Li1 O9 2.164372 1_555
Li1 O15 2.279240 1_555
Li1 O13 2.282254 1_555
Li1 O19 2.288570 1_555
Li1 O17 2.288835 1_555
Li2 O12 2.091062 1_555
Li2 O16 2.126974 1_555
Li2 O18 2.145309 1_655
Li2 O3 2.360451 1_554
Li2 O11 2.377743 1_554
Li2 O8 2.534280 1_655
Li3 O13 2.090853 1_555
Li3 O17 2.126565 1_555
Li3 O19 2.142507 1_655
Li3 O2 2.360571 1_555
Li3 O10 2.378449 1_555
Li3 O9 2.534219 1_655
Li4 O14 2.090966 1_555
Li4 O18 2.126577 1_555
Li4 O16 2.142288 1_455
Li4 O1 2.360449 1_555
Li4 O9 2.378553 1_555
Li4 O10 2.534333 1_455
Li5 O15 2.091413 1_555
Li5 O19 2.126693 1_555
Li5 O17 2.145584 1_455
Li5 O0 2.360494 1_556
Li5 O8 2.377716 1_556
Li5 O11 2.533827 1_455
Li6 O16 2.099085 1_455
Li6 O8 2.168012 1_555
Li6 O0 2.184660 1_555
Li6 O4 2.224225 1_555
Li6 O14 2.338452 1_555
Li7 O17 2.099189 1_455
Li7 O9 2.171226 1_555
Li7 O1 2.186087 1_555
Li7 O5 2.224541 1_555
Li7 O15 2.334698 1_555
Li8 O18 2.099220 1_655
Li8 O10 2.170870 1_555
Li8 O2 2.186232 1_555
Li8 O6 2.224412 1_555
Li8 O12 2.333791 1_555
Li9 O19 2.099174 1_655
Li9 O11 2.168900 1_555
Li9 O3 2.184284 1_555
Li9 O7 2.224119 1_555
Li9 O13 2.339214 1_555
Mn0 O5 2.189374 1_545
Mn0 O6 2.189909 1_555
Mn0 O13 2.220808 1_555
Mn0 O14 2.221550 1_545
Mn0 O1 2.290054 1_545
Mn0 O2 2.290143 1_555
Mn1 O5 2.183036 1_555
Mn1 O15 2.186726 1_555
Mn1 O17 2.219324 1_555
Mn1 O0 2.221767 1_656
Mn1 O7 2.272311 1_665
Mn1 O3 2.332959 1_565
Mn2 O6 2.183204 1_555
Mn2 O12 2.186487 1_555
Mn2 O18 2.219605 1_555
Mn2 O3 2.221600 1_454
Mn2 O4 2.272454 1_445
Mn2 O0 2.333039 1_545
Mn3 O7 2.190058 1_565
Mn3 O4 2.190749 1_556
Mn3 O15 2.220853 1_555
Mn3 O12 2.221731 1_566
Mn3 O3 2.287425 1_565
Mn3 O0 2.287717 1_556
Mn4 O4 2.182295 1_555
Mn4 O14 2.186885 1_555
Mn4 O16 2.218828 1_555
Mn4 O1 2.221504 1_655
Mn4 O6 2.273216 1_665
Mn4 O2 2.334076 1_565
Mn5 O7 2.182027 1_555
Mn5 O13 2.186396 1_555
Mn5 O19 2.218087 1_555
Mn5 O2 2.221475 1_455
Mn5 O5 2.273900 1_445
Mn5 O1 2.334837 1_545
O0 Sb0 2.076413 1_455
O1 Sb1 2.074464 1_455
O2 Sb2 2.073997 1_655
O3 Sb3 2.076564 1_655
O4 Sb0 2.094776 1_555
O5 Sb1 2.093300 1_555
O6 Sb2 2.092909 1_555
O7 Sb3 2.095761 1_555
O8 Sb3 2.091581 1_554
O8 Sb0 2.114789 1_555
O9 Sb2 2.090299 1_555
O9 Sb1 2.114816 1_555
O10 Sb1 2.090612 1_555
O10 Sb2 2.114572 1_555
O11 Sb0 2.091506 1_556
O11 Sb3 2.115737 1_555
O12 Sb3 2.101513 1_554
O13 Sb2 2.098551 1_555
O14 Sb1 2.098744 1_555
O15 Sb0 2.101812 1_556
O16 Sb0 2.051615 1_555
O17 Sb1 2.050354 1_555
O18 Sb2 2.050156 1_555
O19 Sb3 2.052545 1_555
