# generated using pymatgen
data_Ca5Ge3O11
_symmetry_space_group_name_H-M   'P 1'
_cell_length_a   6.97294961
_cell_length_b   6.99590797
_cell_length_c   11.03299698
_cell_angle_alpha   85.41232973
_cell_angle_beta   84.60856310
_cell_angle_gamma   77.54786887
_symmetry_Int_Tables_number   1
_chemical_formula_structural   Ca5Ge3O11
_chemical_formula_sum   'Ca10 Ge6 O22'
_cell_volume   522.23889327
_cell_formula_units_Z   2
loop_
 _symmetry_equiv_pos_site_id
 _symmetry_equiv_pos_as_xyz
  1  'x, y, z'
loop_
 _atom_site_type_symbol
 _atom_site_label
 _atom_site_symmetry_multiplicity
 _atom_site_fract_x
 _atom_site_fract_y
 _atom_site_fract_z
 _atom_site_occupancy
  Ca  Ca0  1  0.00539793  0.03114505  0.24348547  1
  Ca  Ca1  1  0.07570662  0.45104949  0.75448915  1
  Ca  Ca2  1  0.45827335  0.09380044  0.76679163  1
  Ca  Ca3  1  0.28906303  0.70190824  0.00399569  1
  Ca  Ca4  1  0.31801106  0.67434535  0.49368807  1
  Ca  Ca5  1  0.68198894  0.32565465  0.50631193  1
  Ca  Ca6  1  0.71093697  0.29809176  0.99600431  1
  Ca  Ca7  1  0.54172665  0.90619956  0.23320837  1
  Ca  Ca8  1  0.92429338  0.54895051  0.24551085  1
  Ca  Ca9  1  0.99460207  0.96885495  0.75651453  1
  Ge  Ge0  1  0.20674118  0.21373156  0.01571494  1
  Ge  Ge1  1  0.19380282  0.18365295  0.46352271  1
  Ge  Ge2  1  0.45316770  0.42803065  0.26721528  1
  Ge  Ge3  1  0.54683230  0.57196935  0.73278472  1
  Ge  Ge4  1  0.80619718  0.81634705  0.53647729  1
  Ge  Ge5  1  0.79325882  0.78626844  0.98428506  1
  O  O0  1  0.16433334  0.15895530  0.62114562  1
  O  O1  1  0.13297367  0.15162807  0.87651293  1
  O  O2  1  0.36490026  0.34269989  0.42339276  1
  O  O3  1  0.60040059  0.22276521  0.20486598  1
  O  O4  1  0.02512347  0.71216332  0.60584603  1
  O  O5  1  0.24676457  0.57985501  0.21136465  1
  O  O6  1  0.71601327  0.03297391  0.61221361  1
  O  O7  1  0.00997493  0.68703954  0.89503573  1
  O  O8  1  0.70583365  0.00585799  0.89729679  1
  O  O9  1  0.37346872  0.36234552  0.96279309  1
  O  O10  1  0.40910540  0.42640196  0.66923043  1
  O  O11  1  0.59089460  0.57359804  0.33076957  1
  O  O12  1  0.62653128  0.63765448  0.03720691  1
  O  O13  1  0.29416635  0.99414201  0.10270321  1
  O  O14  1  0.99002507  0.31296046  0.10496427  1
  O  O15  1  0.28398673  0.96702609  0.38778639  1
  O  O16  1  0.75323543  0.42014499  0.78863535  1
  O  O17  1  0.97487653  0.28783668  0.39415397  1
  O  O18  1  0.39959941  0.77723479  0.79513402  1
  O  O19  1  0.63509974  0.65730011  0.57660724  1
  O  O20  1  0.86702633  0.84837193  0.12348707  1
  O  O21  1  0.83566666  0.84104470  0.37885438  1
loop_
_geom_bond_atom_site_label_1
_geom_bond_atom_site_label_2
_geom_bond_distance
_geom_bond_site_symmetry_2
Ca0 O20 2.315525 1_445
Ca0 O21 2.330005 1_445
Ca0 O14 2.385764 1_455
Ca0 O13 2.405381 1_545
Ca0 O17 2.505937 1_455
Ca0 O15 2.569184 1_545
Ca0 O3 2.907905 1_455
Ca1 O16 2.298303 1_455
Ca1 O7 2.299983 1_555
Ca1 O4 2.345737 1_555
Ca1 O1 2.376761 1_555
Ca1 O10 2.400265 1_555
Ca1 O0 2.547055 1_555
Ca2 O8 2.301943 1_555
Ca2 O18 2.329341 1_545
Ca2 O6 2.351580 1_555
Ca2 O1 2.437393 1_555
Ca2 O10 2.452561 1_555
Ca2 O0 2.662663 1_555
Ca2 O9 2.913090 1_555
Ca3 O12 2.356514 1_555
Ca3 O9 2.390776 1_554
Ca3 O5 2.391625 1_555
Ca3 O13 2.400382 1_555
Ca3 O7 2.406264 1_554
Ca3 O18 2.414341 1_554
Ca4 O15 2.252531 1_555
Ca4 O4 2.262001 1_555
Ca4 O19 2.447211 1_555
Ca4 O2 2.450432 1_555
Ca4 O11 2.515936 1_555
Ca4 O10 2.526247 1_555
Ca5 O6 2.252531 1_555
Ca5 O17 2.262001 1_555
Ca5 O2 2.447211 1_555
Ca5 O19 2.450432 1_555
Ca5 O10 2.515936 1_555
Ca5 O11 2.526247 1_555
Ca6 O9 2.356514 1_555
Ca6 O12 2.390776 1_556
Ca6 O16 2.391625 1_555
Ca6 O8 2.400382 1_555
Ca6 O14 2.406264 1_556
Ca6 O3 2.414341 1_556
Ca7 O13 2.301943 1_555
Ca7 O3 2.329341 1_565
Ca7 O15 2.351580 1_555
Ca7 O20 2.437393 1_555
Ca7 O11 2.452561 1_555
Ca7 O21 2.662663 1_555
Ca7 O12 2.913090 1_555
Ca8 O5 2.298303 1_655
Ca8 O14 2.299983 1_555
Ca8 O17 2.345737 1_555
Ca8 O20 2.376761 1_555
Ca8 O11 2.400265 1_555
Ca8 O21 2.547055 1_555
Ca9 O1 2.315525 1_665
Ca9 O0 2.330005 1_665
Ca9 O7 2.385764 1_655
Ca9 O8 2.405381 1_565
Ca9 O4 2.505937 1_655
Ca9 O6 2.569184 1_565
Ca9 O18 2.907905 1_655
Ge0 O9 1.752160 1_554
Ge0 O14 1.764206 1_455
Ge0 O13 1.767188 1_545
Ge0 O1 1.778665 1_554
Ge1 O0 1.731033 1_555
Ge1 O15 1.755923 1_545
Ge1 O17 1.760078 1_455
Ge1 O2 1.803292 1_555
Ge2 O3 1.725945 1_555
Ge2 O5 1.726843 1_555
Ge2 O11 1.764540 1_555
Ge2 O2 1.870531 1_555
Ge3 O18 1.725945 1_555
Ge3 O16 1.726843 1_555
Ge3 O10 1.764540 1_555
Ge3 O19 1.870531 1_555
Ge4 O21 1.731033 1_555
Ge4 O6 1.755923 1_565
Ge4 O4 1.760078 1_655
Ge4 O19 1.803292 1_555
Ge5 O12 1.752160 1_556
Ge5 O7 1.764206 1_655
Ge5 O8 1.767188 1_565
Ge5 O20 1.778665 1_556
