# generated using pymatgen
data_Na5SbO5
_symmetry_space_group_name_H-M   'P 1'
_cell_length_a   4.39609126
_cell_length_b   5.78139713
_cell_length_c   6.36435963
_cell_angle_alpha   72.78178037
_cell_angle_beta   90.03018146
_cell_angle_gamma   67.66127680
_symmetry_Int_Tables_number   1
_chemical_formula_structural   Na5SbO5
_chemical_formula_sum   'Na5 Sb1 O5'
_cell_volume   141.73504180
_cell_formula_units_Z   1
loop_
 _symmetry_equiv_pos_site_id
 _symmetry_equiv_pos_as_xyz
  1  'x, y, z'
loop_
 _atom_site_type_symbol
 _atom_site_label
 _atom_site_symmetry_multiplicity
 _atom_site_fract_x
 _atom_site_fract_y
 _atom_site_fract_z
 _atom_site_occupancy
  Na  Na0  1  0.67855555  0.64271349  0.85591869  1
  Na  Na1  1  0.69971016  0.60153129  0.32337164  1
  Na  Na2  1  0.30097505  0.39896036  0.67419046  1
  Na  Na3  1  0.32110297  0.35737306  0.14228238  1
  Na  Na4  1  0.99597943  0.00041801  0.49895193  1
  Sb  Sb0  1  0.00947671  0.00005513  0.99892822  1
  O  O0  1  0.13125586  0.73442641  0.84337376  1
  O  O1  1  0.14325302  0.71231164  0.29305908  1
  O  O2  1  0.85506365  0.28802913  0.70480960  1
  O  O3  1  0.86574789  0.26586457  0.15442186  1
  O  O4  1  0.49246971  0.00014589  0.99892838  1
loop_
_geom_bond_atom_site_label_1
_geom_bond_atom_site_label_2
_geom_bond_distance
_geom_bond_site_symmetry_2
Na0 O0 2.241719 1_655
Na0 O0 2.254159 1_555
Na0 O3 2.284333 1_556
Na0 O4 2.365819 1_565
Na0 O2 2.385497 1_555
Na1 O1 2.264044 1_655
Na1 O1 2.273075 1_555
Na1 O3 2.369471 1_555
Na1 O4 2.447339 1_564
Na1 O2 2.469248 1_555
Na2 O2 2.262857 1_555
Na2 O2 2.274647 1_455
Na2 O0 2.369546 1_555
Na2 O4 2.449063 1_555
Na2 O1 2.467453 1_555
Na3 O3 2.243052 1_555
Na3 O3 2.252554 1_455
Na3 O0 2.286421 1_554
Na3 O4 2.366182 1_554
Na3 O1 2.385363 1_555
Na4 O3 2.197617 1_555
Na4 O0 2.198012 1_645
Na4 O2 2.317910 1_555
Na4 O1 2.320340 1_645
O0 Sb0 1.975040 1_565
O1 Sb0 2.007243 1_564
O2 Sb0 2.007763 1_655
O3 Sb0 1.975618 1_654
O4 Sb0 2.123481 1_555
O4 Sb0 2.272611 1_655
