# generated using pymatgen
data_Na3FeBAsO7
_symmetry_space_group_name_H-M   'P 1'
_cell_length_a   6.86773600
_cell_length_b   5.29728600
_cell_length_c   9.11541409
_cell_angle_alpha   88.88561360
_cell_angle_beta   90.00000000
_cell_angle_gamma   90.00000000
_symmetry_Int_Tables_number   1
_chemical_formula_structural   Na3FeBAsO7
_chemical_formula_sum   'Na6 Fe2 B2 As2 O14'
_cell_volume   331.55933921
_cell_formula_units_Z   2
loop_
 _symmetry_equiv_pos_site_id
 _symmetry_equiv_pos_as_xyz
  1  'x, y, z'
loop_
 _atom_site_type_symbol
 _atom_site_label
 _atom_site_symmetry_multiplicity
 _atom_site_fract_x
 _atom_site_fract_y
 _atom_site_fract_z
 _atom_site_occupancy
  Na  Na0  1  0.75000000  0.24416200  0.92732800  1
  Na  Na1  1  0.00040000  0.75213900  0.75676100  1
  Na  Na2  1  0.49960000  0.75213900  0.75676100  1
  Na  Na3  1  0.50040000  0.24786100  0.24323900  1
  Na  Na4  1  0.99960000  0.24786100  0.24323900  1
  Na  Na5  1  0.25000000  0.75583800  0.07267200  1
  Fe  Fe0  1  0.25000000  0.22127900  0.66985400  1
  Fe  Fe1  1  0.75000000  0.77872100  0.33014600  1
  B  B0  1  0.25000000  0.26550900  0.93762700  1
  B  B1  1  0.75000000  0.73449100  0.06237300  1
  As  As0  1  0.75000000  0.29272100  0.57669500  1
  As  As1  1  0.25000000  0.70727900  0.42330500  1
  O  O0  1  0.75000000  0.70227500  0.91564200  1
  O  O1  1  0.25000000  0.03008100  0.86896700  1
  O  O2  1  0.25000000  0.46724700  0.83356500  1
  O  O3  1  0.94577200  0.21827900  0.68754700  1
  O  O4  1  0.55422800  0.21827900  0.68754700  1
  O  O5  1  0.75000000  0.61527200  0.53679100  1
  O  O6  1  0.25000000  0.86017700  0.58719600  1
  O  O7  1  0.75000000  0.13982300  0.41280400  1
  O  O8  1  0.25000000  0.38472800  0.46320900  1
  O  O9  1  0.44577200  0.78172100  0.31245300  1
  O  O10  1  0.05422800  0.78172100  0.31245300  1
  O  O11  1  0.75000000  0.53275300  0.16643500  1
  O  O12  1  0.75000000  0.96991900  0.13103300  1
  O  O13  1  0.25000000  0.29772500  0.08435800  1
loop_
_geom_bond_atom_site_label_1
_geom_bond_atom_site_label_2
_geom_bond_distance
_geom_bond_site_symmetry_2
Na0 O12 2.335262 1_546
Na0 O0 2.427022 1_555
Na0 O3 2.572054 1_555
Na0 O4 2.572054 1_555
Na0 O11 2.686477 1_556
Na0 O0 2.874576 1_545
Na1 O0 2.260458 1_455
Na1 O6 2.370784 1_555
Na1 O2 2.380132 1_555
Na1 O1 2.492172 1_565
Na1 O3 2.564281 1_465
Na1 O5 2.749546 1_455
Na1 O3 2.933572 1_455
Na2 O0 2.260458 1_555
Na2 O6 2.370784 1_555
Na2 O2 2.380132 1_555
Na2 O1 2.492172 1_565
Na2 O4 2.564281 1_565
Na2 O5 2.749546 1_555
Na2 O4 2.933572 1_555
Na3 O13 2.260458 1_555
Na3 O7 2.370784 1_555
Na3 O11 2.380132 1_555
Na3 O12 2.492172 1_545
Na3 O9 2.564281 1_545
Na3 O8 2.749546 1_555
Na3 O9 2.933572 1_555
Na4 O13 2.260458 1_655
Na4 O7 2.370784 1_555
Na4 O11 2.380132 1_555
Na4 O12 2.492172 1_545
Na4 O10 2.564281 1_645
Na4 O8 2.749546 1_655
Na4 O10 2.933572 1_655
Na5 O1 2.335262 1_564
Na5 O13 2.427022 1_555
Na5 O10 2.572054 1_555
Na5 O9 2.572054 1_555
Na5 O2 2.686477 1_554
Na5 O13 2.874576 1_565
Fe0 O2 2.000071 1_555
Fe0 O8 2.057763 1_555
Fe0 O1 2.061198 1_555
Fe0 O6 2.069493 1_545
Fe0 O4 2.095609 1_555
Fe0 O3 2.095609 1_455
Fe1 O11 2.000071 1_555
Fe1 O5 2.057763 1_555
Fe1 O12 2.061198 1_555
Fe1 O7 2.069493 1_565
Fe1 O9 2.095609 1_555
Fe1 O10 2.095609 1_655
B0 O13 1.351646 1_556
B0 O1 1.406200 1_555
B0 O2 1.415060 1_555
B1 O0 1.351646 1_554
B1 O12 1.406200 1_555
B1 O11 1.415060 1_555
As0 O7 1.713159 1_555
As0 O3 1.723005 1_555
As0 O4 1.723005 1_555
As0 O5 1.740000 1_555
As1 O6 1.713159 1_555
As1 O10 1.723005 1_555
As1 O9 1.723005 1_555
As1 O8 1.740000 1_555
