# generated using pymatgen
data_LiSiBiO4
_symmetry_space_group_name_H-M   'P 1'
_cell_length_a   5.50464300
_cell_length_b   7.25402800
_cell_length_c   10.47141700
_cell_angle_alpha   90.00000000
_cell_angle_beta   90.00000000
_cell_angle_gamma   90.00000000
_symmetry_Int_Tables_number   1
_chemical_formula_structural   LiSiBiO4
_chemical_formula_sum   'Li4 Si4 Bi4 O16'
_cell_volume   418.13241870
_cell_formula_units_Z   4
loop_
 _symmetry_equiv_pos_site_id
 _symmetry_equiv_pos_as_xyz
  1  'x, y, z'
loop_
 _atom_site_type_symbol
 _atom_site_label
 _atom_site_symmetry_multiplicity
 _atom_site_fract_x
 _atom_site_fract_y
 _atom_site_fract_z
 _atom_site_occupancy
  Li  Li0  1  0.24853000  0.49196000  0.15710600  1
  Li  Li1  1  0.74853000  0.99196000  0.34289400  1
  Li  Li2  1  0.24853000  0.00804000  0.65710600  1
  Li  Li3  1  0.74853000  0.50804000  0.84289400  1
  Si  Si0  1  0.75107900  0.73908600  0.09032200  1
  Si  Si1  1  0.25107900  0.23908600  0.40967800  1
  Si  Si2  1  0.75107900  0.76091400  0.59032200  1
  Si  Si3  1  0.25107900  0.26091400  0.90967800  1
  Bi  Bi0  1  0.24999400  0.98094400  0.15828800  1
  Bi  Bi1  1  0.74999400  0.48094400  0.34171200  1
  Bi  Bi2  1  0.24999400  0.51905600  0.65828800  1
  Bi  Bi3  1  0.74999400  0.01905600  0.84171200  1
  O  O0  1  0.19346000  0.25674200  0.06397400  1
  O  O1  1  0.03825500  0.70574900  0.12469800  1
  O  O2  1  0.59142900  0.57287900  0.15878400  1
  O  O3  1  0.67310300  0.94228800  0.15115800  1
  O  O4  1  0.17310300  0.44228800  0.34884200  1
  O  O5  1  0.09142900  0.07287900  0.34121600  1
  O  O6  1  0.53825500  0.20574900  0.37530200  1
  O  O7  1  0.69346000  0.75674200  0.43602600  1
  O  O8  1  0.19346000  0.24325800  0.56397400  1
  O  O9  1  0.03825500  0.79425100  0.62469800  1
  O  O10  1  0.59142900  0.92712100  0.65878400  1
  O  O11  1  0.67310300  0.55771200  0.65115800  1
  O  O12  1  0.17310300  0.05771200  0.84884200  1
  O  O13  1  0.09142900  0.42712100  0.84121600  1
  O  O14  1  0.53825500  0.29425100  0.87530200  1
  O  O15  1  0.69346000  0.74325800  0.93602600  1
loop_
_geom_bond_atom_site_label_1
_geom_bond_atom_site_label_2
_geom_bond_distance
_geom_bond_site_symmetry_2
Li0 O1 1.964694 1_555
Li0 O2 1.976780 1_555
Li0 O0 1.988552 1_555
Li0 O4 2.081651 1_555
Li1 O6 1.964694 1_565
Li1 O5 1.976780 1_665
Li1 O7 1.988552 1_555
Li1 O3 2.081651 1_555
Li2 O9 1.964694 1_545
Li2 O10 1.976780 1_545
Li2 O8 1.988552 1_555
Li2 O12 2.081651 1_555
Li3 O14 1.964694 1_555
Li3 O13 1.976780 1_655
Li3 O15 1.988552 1_555
Li3 O11 2.081651 1_555
Bi0 O5 2.208124 1_565
Bi0 O0 2.252729 1_565
Bi0 O1 2.338230 1_555
Bi0 O3 2.347071 1_555
Bi1 O2 2.208124 1_555
Bi1 O7 2.252729 1_555
Bi1 O6 2.338230 1_555
Bi1 O4 2.347071 1_655
Bi2 O13 2.208124 1_555
Bi2 O8 2.252729 1_555
Bi2 O9 2.338230 1_555
Bi2 O11 2.347071 1_555
Bi3 O10 2.208124 1_545
Bi3 O15 2.252729 1_545
Bi3 O14 2.338230 1_555
Bi3 O12 2.347071 1_655
O0 Si3 1.646813 1_554
O1 Si0 1.639204 1_455
O2 Si0 1.655263 1_555
O3 Si0 1.662176 1_555
O4 Si1 1.662176 1_555
O5 Si1 1.655263 1_555
O6 Si1 1.639204 1_555
O7 Si2 1.646813 1_555
O8 Si1 1.646813 1_555
O9 Si2 1.639204 1_455
O10 Si2 1.655263 1_555
O11 Si2 1.662176 1_555
O12 Si3 1.662176 1_555
O13 Si3 1.655263 1_555
O14 Si3 1.639204 1_555
O15 Si0 1.646813 1_556
