# generated using pymatgen
data_Li2MnOF3
_symmetry_space_group_name_H-M   'P 1'
_cell_length_a   5.02475994
_cell_length_b   5.76794237
_cell_length_c   10.27410330
_cell_angle_alpha   90.00296052
_cell_angle_beta   89.97229916
_cell_angle_gamma   89.96517806
_symmetry_Int_Tables_number   1
_chemical_formula_structural   Li2MnOF3
_chemical_formula_sum   'Li8 Mn4 O4 F12'
_cell_volume   297.76937365
_cell_formula_units_Z   4
loop_
 _symmetry_equiv_pos_site_id
 _symmetry_equiv_pos_as_xyz
  1  'x, y, z'
loop_
 _atom_site_type_symbol
 _atom_site_label
 _atom_site_symmetry_multiplicity
 _atom_site_fract_x
 _atom_site_fract_y
 _atom_site_fract_z
 _atom_site_occupancy
  Li  Li0  1  0.99091100  0.24873800  0.27150700  1
  Li  Li1  1  0.99090700  0.74899700  0.27159100  1
  Li  Li2  1  0.50871200  0.25122600  0.77169600  1
  Li  Li3  1  0.50867800  0.75100700  0.77164800  1
  Li  Li4  1  0.50344000  0.24932900  0.20761400  1
  Li  Li5  1  0.50343400  0.74944800  0.20762800  1
  Li  Li6  1  0.99641800  0.25069600  0.70781800  1
  Li  Li7  1  0.99636300  0.75059200  0.70763000  1
  Mn  Mn0  1  0.52342400  0.50063300  0.50570200  1
  Mn  Mn1  1  0.97656100  0.99921500  0.00541000  1
  Mn  Mn2  1  0.52341000  0.00084100  0.50576300  1
  Mn  Mn3  1  0.97692200  0.49926200  0.00562100  1
  O  O0  1  0.70457300  0.25075600  0.58237900  1
  O  O1  1  0.70459100  0.75072700  0.58238900  1
  O  O2  1  0.79568900  0.24928100  0.08209900  1
  O  O3  1  0.79562400  0.74931100  0.08213900  1
  F  F0  1  0.72966800  0.99948600  0.32058700  1
  F  F1  1  0.72965400  0.49948600  0.32051900  1
  F  F2  1  0.77021900  0.50058100  0.82070900  1
  F  F3  1  0.77017300  0.00043100  0.82053900  1
  F  F4  1  0.23823500  0.49911900  0.18584500  1
  F  F5  1  0.23826800  0.99913400  0.18578100  1
  F  F6  1  0.26168800  0.00088400  0.68594100  1
  F  F7  1  0.26170000  0.50088100  0.68587500  1
  F  F8  1  0.20258400  0.24928700  0.92620800  1
  F  F9  1  0.20257900  0.74926000  0.92621500  1
  F  F10  1  0.29776800  0.25067300  0.42658500  1
  F  F11  1  0.29780700  0.75071800  0.42657000  1
loop_
_geom_bond_atom_site_label_1
_geom_bond_atom_site_label_2
_geom_bond_distance
_geom_bond_site_symmetry_2
Li0 O2 2.179681 1_555
Li1 O3 2.180221 1_555
Li2 O0 2.179445 1_555
Li3 O1 2.179031 1_555
Li4 O2 1.953856 1_555
Li5 O3 1.953457 1_555
Li6 O0 1.952752 1_555
Li7 O1 1.951134 1_555
Mn0 O0 1.877664 1_555
Mn0 O1 1.879498 1_555
Mn1 O2 1.877447 1_565
Mn1 O3 1.877971 1_555
Mn2 O0 1.878390 1_555
Mn2 O1 1.878571 1_545
Mn3 O3 1.877672 1_555
Mn3 O2 1.877953 1_555
F0 Li0 2.011476 1_565
F0 Li1 2.015175 1_555
F0 Mn2 2.166064 1_565
F0 Li4 2.171535 1_565
F0 Li5 2.173058 1_555
F1 Li1 2.012187 1_555
F1 Li0 2.016346 1_555
F1 Mn0 2.166056 1_555
F1 Li5 2.171519 1_555
F1 Li4 2.173165 1_555
F2 Li2 2.012876 1_555
F2 Li3 2.016425 1_555
F2 Mn3 2.165635 1_556
F2 Li6 2.170503 1_555
F2 Li7 2.172869 1_555
F3 Li3 2.012807 1_545
F3 Li2 2.017128 1_555
F3 Mn1 2.164504 1_546
F3 Li7 2.170402 1_545
F3 Li6 2.172145 1_555
F4 Li4 1.974751 1_555
F4 Li5 1.978181 1_555
F4 Li1 2.096303 1_455
F4 Li0 2.099026 1_455
F4 Mn3 2.270459 1_455
F5 Li5 1.974273 1_555
F5 Li4 1.977583 1_565
F5 Li0 2.095217 1_465
F5 Li1 2.098805 1_455
F5 Mn1 2.272837 1_455
F6 Li6 1.975026 1_455
F6 Li7 1.978214 1_445
F6 Li3 2.095692 1_545
F6 Li2 2.098820 1_555
F6 Mn2 2.270227 1_555
F7 Li7 1.974687 1_455
F7 Li6 1.977913 1_455
F7 Li2 2.095370 1_555
F7 Li3 2.097904 1_555
F7 Mn0 2.270190 1_555
F8 Mn3 2.006817 1_456
F8 Mn1 2.008416 1_446
F8 Li2 2.209972 1_555
F8 Li6 2.471827 1_455
F9 Mn1 2.006836 1_456
F9 Mn3 2.007920 1_456
F9 Li3 2.210270 1_555
F9 Li7 2.473751 1_455
F10 Mn2 2.005693 1_555
F10 Mn0 2.006939 1_555
F10 Li0 2.217766 1_455
F10 Li4 2.475300 1_555
F11 Mn0 2.006479 1_555
F11 Mn2 2.007781 1_565
F11 Li1 2.217179 1_455
F11 Li5 2.474934 1_555
