# generated using pymatgen
data_Rb2LiV(PO4)2
_symmetry_space_group_name_H-M   'P 1'
_cell_length_a   7.29474300
_cell_length_b   9.69228100
_cell_length_c   12.73858300
_cell_angle_alpha   90.00000000
_cell_angle_beta   90.00000000
_cell_angle_gamma   90.00000000
_symmetry_Int_Tables_number   1
_chemical_formula_structural   Rb2LiV(PO4)2
_chemical_formula_sum   'Rb8 Li4 V4 P8 O32'
_cell_volume   900.65219927
_cell_formula_units_Z   4
loop_
 _symmetry_equiv_pos_site_id
 _symmetry_equiv_pos_as_xyz
  1  'x, y, z'
loop_
 _atom_site_type_symbol
 _atom_site_label
 _atom_site_symmetry_multiplicity
 _atom_site_fract_x
 _atom_site_fract_y
 _atom_site_fract_z
 _atom_site_occupancy
  Rb  Rb0  1  0.73229000  0.30620400  0.59855100  1
  Rb  Rb1  1  0.69173500  0.91065900  0.40918200  1
  Rb  Rb2  1  0.80826500  0.08934100  0.90918200  1
  Rb  Rb3  1  0.76771000  0.69379600  0.09855100  1
  Rb  Rb4  1  0.23229000  0.19379600  0.40144900  1
  Rb  Rb5  1  0.19173500  0.58934100  0.59081800  1
  Rb  Rb6  1  0.30826500  0.41065900  0.09081800  1
  Rb  Rb7  1  0.26771000  0.80620400  0.90144900  1
  Li  Li0  1  0.63010100  0.62111500  0.50535100  1
  Li  Li1  1  0.86989900  0.37888500  0.00535100  1
  Li  Li2  1  0.13010100  0.87888500  0.49464900  1
  Li  Li3  1  0.36989900  0.12111500  0.99464900  1
  V  V0  1  0.74785600  0.25006400  0.19950500  1
  V  V1  1  0.75214400  0.74993600  0.69950500  1
  V  V2  1  0.24785600  0.24993600  0.80049500  1
  V  V3  1  0.25214400  0.75006400  0.30049500  1
  P  P0  1  0.51802700  0.47390800  0.34943700  1
  P  P1  1  0.58096500  0.48795500  0.82751000  1
  P  P2  1  0.91903500  0.51204500  0.32751000  1
  P  P3  1  0.98197300  0.52609200  0.84943700  1
  P  P4  1  0.01802700  0.02609200  0.65056300  1
  P  P5  1  0.08096500  0.01204500  0.17249000  1
  P  P6  1  0.41903500  0.98795500  0.67249000  1
  P  P7  1  0.48197300  0.97390800  0.15056300  1
  O  O0  1  0.51222200  0.84739700  0.68882500  1
  O  O1  1  0.52549100  0.57178100  0.92275600  1
  O  O2  1  0.52630400  0.96156600  0.03355300  1
  O  O3  1  0.56156700  0.33160400  0.30087000  1
  O  O4  1  0.59115600  0.56685800  0.72275800  1
  O  O5  1  0.61994500  0.05361500  0.21660800  1
  O  O6  1  0.67403400  0.28834400  0.06758700  1
  O  O7  1  0.70473100  0.56921700  0.34808900  1
  O  O8  1  0.79526900  0.43078300  0.84808900  1
  O  O9  1  0.82596600  0.71165600  0.56758700  1
  O  O10  1  0.88005500  0.94638500  0.71660800  1
  O  O11  1  0.90884400  0.43314200  0.22275800  1
  O  O12  1  0.93843300  0.66839600  0.80087000  1
  O  O13  1  0.97369600  0.03843400  0.53355300  1
  O  O14  1  0.97450900  0.42821900  0.42275600  1
  O  O15  1  0.98777800  0.15260300  0.18882500  1
  O  O16  1  0.01222200  0.65260300  0.31117500  1
  O  O17  1  0.02549100  0.92821900  0.07724400  1
  O  O18  1  0.02630400  0.53843400  0.96644700  1
  O  O19  1  0.06156700  0.16839600  0.69913000  1
  O  O20  1  0.09115600  0.93314200  0.27724200  1
  O  O21  1  0.11994500  0.44638500  0.78339200  1
  O  O22  1  0.17403400  0.21165600  0.93241300  1
  O  O23  1  0.20473100  0.93078300  0.65191100  1
  O  O24  1  0.29526900  0.06921700  0.15191100  1
  O  O25  1  0.32596600  0.78834400  0.43241300  1
  O  O26  1  0.38005500  0.55361500  0.28339200  1
  O  O27  1  0.40884400  0.06685800  0.77724200  1
  O  O28  1  0.43843300  0.83160400  0.19913000  1
  O  O29  1  0.47369600  0.46156600  0.46644700  1
  O  O30  1  0.47450900  0.07178100  0.57724400  1
  O  O31  1  0.48777800  0.34739700  0.81117500  1
loop_
_geom_bond_atom_site_label_1
_geom_bond_atom_site_label_2
_geom_bond_distance
_geom_bond_site_symmetry_2
Li0 O9 1.854736 1_555
Li0 O29 1.984607 1_555
Li0 O7 2.136022 1_555
Li1 O6 1.854736 1_555
Li1 O18 1.984607 1_654
Li1 O8 2.136022 1_554
Li2 O25 1.854736 1_555
Li2 O13 1.984607 1_465
Li2 O23 2.136022 1_555
Li3 O22 1.854736 1_555
Li3 O2 1.984607 1_546
Li3 O24 2.136022 1_556
O0 P6 1.536662 1_555
O0 V1 1.993466 1_555
O0 Rb7 3.267560 1_555
O1 P1 1.515240 1_555
O1 Rb7 2.961783 1_555
O1 Rb6 3.087561 1_556
O1 Rb3 3.087944 1_556
O2 P7 1.529902 1_555
O2 Rb2 2.876511 1_564
O2 Rb7 2.942408 1_554
O2 Rb3 3.243802 1_555
O3 P0 1.544658 1_555
O3 V0 2.034354 1_555
O3 Rb4 3.032350 1_555
O4 P1 1.539796 1_555
O4 V1 2.148377 1_555
O4 Rb0 3.153684 1_555
O5 P7 1.522374 1_545
O5 V0 2.131541 1_555
O5 Rb1 2.865633 1_545
O6 V0 1.803208 1_555
O6 Rb6 2.934664 1_555
O6 Rb2 2.958171 1_554
O7 P0 1.645770 1_555
O7 P2 1.679185 1_555
O7 Rb3 3.431257 1_555
O8 P3 1.645770 1_555
O8 P1 1.679185 1_555
O8 Rb0 3.431257 1_555
O9 V1 1.803208 1_555
O9 Rb5 2.934664 1_655
O9 Rb1 2.958171 1_555
O10 P4 1.522374 1_665
O10 V1 2.131541 1_555
O10 Rb2 2.865633 1_565
O11 P2 1.539796 1_555
O11 V0 2.148377 1_555
O11 Rb3 3.153684 1_555
O12 P3 1.544658 1_555
O12 V1 2.034354 1_555
O12 Rb7 3.032350 1_655
O13 P4 1.529902 1_655
O13 Rb1 2.876511 1_545
O13 Rb4 2.942408 1_655
O13 Rb0 3.243802 1_555
O14 P2 1.515240 1_555
O14 Rb4 2.961783 1_655
O14 Rb5 3.087561 1_655
O14 Rb0 3.087944 1_555
O15 P5 1.536662 1_655
O15 V0 1.993466 1_555
O15 Rb4 3.267560 1_655
O16 P2 1.536662 1_455
O16 V3 1.993466 1_555
O16 Rb3 3.267560 1_455
O17 P5 1.515240 1_565
O17 Rb3 2.961783 1_455
O17 Rb2 3.087561 1_464
O17 Rb7 3.087944 1_554
O18 P3 1.529902 1_455
O18 Rb6 2.876511 1_556
O18 Rb3 2.942408 1_456
O18 Rb7 3.243802 1_555
O19 P4 1.544658 1_555
O19 V2 2.034354 1_555
O19 Rb0 3.032350 1_455
O20 P5 1.539796 1_565
O20 V3 2.148377 1_555
O20 Rb4 3.153684 1_565
O21 P3 1.522374 1_455
O21 V2 2.131541 1_555
O21 Rb5 2.865633 1_555
O22 V2 1.803208 1_555
O22 Rb2 2.934664 1_455
O22 Rb6 2.958171 1_556
O23 P4 1.645770 1_565
O23 P6 1.679185 1_555
O23 Rb7 3.431257 1_555
O24 P7 1.645770 1_545
O24 P5 1.679185 1_555
O24 Rb4 3.431257 1_555
O25 V3 1.803208 1_555
O25 Rb1 2.934664 1_555
O25 Rb5 2.958171 1_555
O26 P0 1.522374 1_555
O26 V3 2.131541 1_555
O26 Rb6 2.865633 1_555
O27 P6 1.539796 1_545
O27 V2 2.148377 1_555
O27 Rb7 3.153684 1_545
O28 P7 1.544658 1_555
O28 V3 2.034354 1_555
O28 Rb3 3.032350 1_555
O29 P0 1.529902 1_555
O29 Rb5 2.876511 1_555
O29 Rb0 2.942408 1_555
O29 Rb4 3.243802 1_555
O30 P6 1.515240 1_545
O30 Rb0 2.961783 1_555
O30 Rb1 3.087561 1_545
O30 Rb4 3.087944 1_555
O31 P1 1.536662 1_555
O31 V2 1.993466 1_555
O31 Rb0 3.267560 1_555
