# generated using pymatgen
data_Ba3(YI6)2
_symmetry_space_group_name_H-M   'P 1'
_cell_length_a   13.84487000
_cell_length_b   14.51142600
_cell_length_c   20.59209211
_cell_angle_alpha   47.89722001
_cell_angle_beta   90.00000000
_cell_angle_gamma   90.00000000
_symmetry_Int_Tables_number   1
_chemical_formula_structural   Ba3(YI6)2
_chemical_formula_sum   'Ba12 Y8 I48'
_cell_volume   3069.51789543
_cell_formula_units_Z   4
loop_
 _symmetry_equiv_pos_site_id
 _symmetry_equiv_pos_as_xyz
  1  'x, y, z'
loop_
 _atom_site_type_symbol
 _atom_site_label
 _atom_site_symmetry_multiplicity
 _atom_site_fract_x
 _atom_site_fract_y
 _atom_site_fract_z
 _atom_site_occupancy
  Ba  Ba0  1  0.28248800  0.16388700  0.30705400  1
  Ba  Ba1  1  0.89741000  0.27563200  0.20969500  1
  Ba  Ba2  1  0.51785600  0.28956400  0.02013900  1
  Ba  Ba3  1  0.01785600  0.71043600  0.47986100  1
  Ba  Ba4  1  0.39741000  0.72436800  0.29030500  1
  Ba  Ba5  1  0.78248800  0.83611300  0.19294600  1
  Ba  Ba6  1  0.21751200  0.16388700  0.80705400  1
  Ba  Ba7  1  0.60259000  0.27563200  0.70969500  1
  Ba  Ba8  1  0.98214400  0.28956400  0.52013900  1
  Ba  Ba9  1  0.48214400  0.71043600  0.97986100  1
  Ba  Ba10  1  0.10259000  0.72436800  0.79030500  1
  Ba  Ba11  1  0.71751200  0.83611300  0.69294600  1
  Y  Y0  1  0.65092000  0.87538500  0.43403600  1
  Y  Y1  1  0.32076200  0.66399800  0.64525800  1
  Y  Y2  1  0.15092000  0.12461500  0.06596400  1
  Y  Y3  1  0.82076200  0.33600200  0.85474200  1
  Y  Y4  1  0.17923800  0.66399800  0.14525800  1
  Y  Y5  1  0.84908000  0.87538500  0.93403600  1
  Y  Y6  1  0.67923800  0.33600200  0.35474200  1
  Y  Y7  1  0.34908000  0.12461500  0.56596400  1
  I  I0  1  0.75332000  0.08527100  0.42369700  1
  I  I1  1  0.38093300  0.40739900  0.09074800  1
  I  I2  1  0.05166200  0.03815700  0.36035100  1
  I  I3  1  0.07060200  0.33175900  0.04596900  1
  I  I4  1  0.33441100  0.60277100  0.81653400  1
  I  I5  1  0.88287500  0.56763700  0.81590700  1
  I  I6  1  0.52528400  0.79077300  0.58983900  1
  I  I7  1  0.51875000  0.07041800  0.29620200  1
  I  I8  1  0.81202100  0.74722400  0.56777000  1
  I  I9  1  0.11335300  0.58567400  0.69032100  1
  I  I10  1  0.27531900  0.77661900  0.45975500  1
  I  I11  1  0.79701000  0.95859400  0.29825700  1
  I  I12  1  0.29701000  0.04140600  0.20174300  1
  I  I13  1  0.77531900  0.22338100  0.04024500  1
  I  I14  1  0.61335300  0.41432600  0.80967900  1
  I  I15  1  0.31202100  0.25277600  0.93223000  1
  I  I16  1  0.01875000  0.92958200  0.20379800  1
  I  I17  1  0.02528400  0.20922700  0.91016100  1
  I  I18  1  0.38287500  0.43236300  0.68409300  1
  I  I19  1  0.57060200  0.66824100  0.45403100  1
  I  I20  1  0.83441100  0.39722900  0.68346600  1
  I  I21  1  0.55166200  0.96184300  0.13964900  1
  I  I22  1  0.88093300  0.59260100  0.40925200  1
  I  I23  1  0.25332000  0.91472900  0.07630300  1
  I  I24  1  0.74668000  0.08527100  0.92369700  1
  I  I25  1  0.11906700  0.40739900  0.59074800  1
  I  I26  1  0.44833800  0.03815700  0.86035100  1
  I  I27  1  0.16558900  0.60277100  0.31653400  1
  I  I28  1  0.42939800  0.33175900  0.54596900  1
  I  I29  1  0.61712500  0.56763700  0.31590700  1
  I  I30  1  0.97471600  0.79077300  0.08983900  1
  I  I31  1  0.98125000  0.07041800  0.79620200  1
  I  I32  1  0.68797900  0.74722400  0.06777000  1
  I  I33  1  0.38664700  0.58567400  0.19032100  1
  I  I34  1  0.22468100  0.77661900  0.95975500  1
  I  I35  1  0.70299000  0.95859400  0.79825700  1
  I  I36  1  0.20299000  0.04140600  0.70174300  1
  I  I37  1  0.72468100  0.22338100  0.54024500  1
  I  I38  1  0.88664700  0.41432600  0.30967900  1
  I  I39  1  0.18797900  0.25277600  0.43223000  1
  I  I40  1  0.48125000  0.92958200  0.70379800  1
  I  I41  1  0.47471600  0.20922700  0.41016100  1
  I  I42  1  0.11712500  0.43236300  0.18409300  1
  I  I43  1  0.66558900  0.39722900  0.18346600  1
  I  I44  1  0.92939800  0.66824100  0.95403100  1
  I  I45  1  0.94833800  0.96184300  0.63964900  1
  I  I46  1  0.61906700  0.59260100  0.90925200  1
  I  I47  1  0.24668000  0.91472900  0.57630300  1
loop_
_geom_bond_atom_site_label_1
_geom_bond_atom_site_label_2
_geom_bond_distance
_geom_bond_site_symmetry_2
Ba0 I2 3.472918 1_555
Ba0 I7 3.604949 1_555
Ba0 I12 3.615330 1_555
Ba0 I1 3.616443 1_555
Ba0 I42 3.688279 1_555
Ba0 I41 3.727858 1_555
Ba0 I39 3.805075 1_555
Ba0 I47 4.144644 1_545
Ba0 I10 4.217100 1_545
Ba1 I2 3.424190 1_655
Ba1 I43 3.525403 1_555
Ba1 I42 3.618875 1_655
Ba1 I38 3.724039 1_555
Ba1 I3 3.754664 1_655
Ba1 I0 3.834917 1_555
Ba1 I11 3.895332 1_545
Ba2 I1 3.459119 1_555
Ba2 I15 3.602624 1_554
Ba2 I46 3.612598 1_554
Ba2 I21 3.632964 1_545
Ba2 I13 3.642330 1_555
Ba2 I14 3.645074 1_554
Ba3 I22 3.459119 1_455
Ba3 I8 3.602624 1_455
Ba3 I25 3.612598 1_555
Ba3 I2 3.632964 1_565
Ba3 I10 3.642330 1_555
Ba3 I9 3.645074 1_555
Ba4 I21 3.424190 1_555
Ba4 I27 3.525403 1_555
Ba4 I29 3.618875 1_555
Ba4 I33 3.724039 1_555
Ba4 I19 3.754664 1_555
Ba4 I23 3.834917 1_555
Ba4 I12 3.895332 1_565
Ba5 I21 3.472918 1_555
Ba5 I16 3.604949 1_655
Ba5 I11 3.615330 1_555
Ba5 I22 3.616443 1_555
Ba5 I29 3.688279 1_555
Ba5 I30 3.727858 1_555
Ba5 I32 3.805075 1_555
Ba5 I24 4.144644 1_564
Ba5 I13 4.217100 1_565
Ba6 I26 3.472918 1_555
Ba6 I31 3.604949 1_455
Ba6 I36 3.615330 1_555
Ba6 I25 3.616443 1_555
Ba6 I18 3.688279 1_555
Ba6 I17 3.727858 1_555
Ba6 I15 3.805075 1_555
Ba6 I23 4.144644 1_546
Ba6 I34 4.217100 1_545
Ba7 I26 3.424190 1_555
Ba7 I20 3.525403 1_555
Ba7 I18 3.618875 1_555
Ba7 I14 3.724039 1_555
Ba7 I28 3.754664 1_555
Ba7 I24 3.834917 1_555
Ba7 I35 3.895332 1_545
Ba8 I25 3.459119 1_655
Ba8 I39 3.602624 1_655
Ba8 I22 3.612598 1_555
Ba8 I45 3.632964 1_545
Ba8 I37 3.642330 1_555
Ba8 I38 3.645074 1_555
Ba9 I46 3.459119 1_555
Ba9 I32 3.602624 1_556
Ba9 I1 3.612598 1_556
Ba9 I26 3.632964 1_565
Ba9 I34 3.642330 1_555
Ba9 I33 3.645074 1_556
Ba10 I45 3.424190 1_455
Ba10 I4 3.525403 1_555
Ba10 I5 3.618875 1_455
Ba10 I9 3.724039 1_555
Ba10 I44 3.754664 1_455
Ba10 I47 3.834917 1_555
Ba10 I36 3.895332 1_565
Ba11 I45 3.472918 1_555
Ba11 I40 3.604949 1_555
Ba11 I35 3.615330 1_555
Ba11 I46 3.616443 1_555
Ba11 I5 3.688279 1_555
Ba11 I6 3.727858 1_555
Ba11 I8 3.805075 1_555
Ba11 I0 4.144644 1_565
Ba11 I37 4.217100 1_565
I0 Y6 3.062497 1_555
I0 Y0 3.234546 1_545
I3 Y2 2.963478 1_555
I4 Y1 3.010379 1_555
I5 Y3 3.012182 1_555
I6 Y0 3.089354 1_555
I6 Y1 3.144746 1_555
I7 Y0 2.939869 1_545
I8 Y0 3.024843 1_555
I9 Y1 2.997409 1_555
I10 Y1 3.047488 1_555
I11 Y0 2.973096 1_555
I12 Y2 2.973096 1_555
I13 Y3 3.047488 1_554
I14 Y3 2.997409 1_555
I15 Y2 3.024843 1_556
I16 Y2 2.939869 1_565
I17 Y2 3.089354 1_556
I17 Y3 3.144746 1_455
I18 Y1 3.012182 1_555
I19 Y0 2.963478 1_555
I20 Y3 3.010379 1_555
I23 Y4 3.062497 1_555
I23 Y2 3.234546 1_565
I24 Y3 3.062497 1_555
I24 Y5 3.234546 1_545
I27 Y4 3.010379 1_555
I28 Y7 2.963478 1_555
I29 Y6 3.012182 1_555
I30 Y5 3.089354 1_554
I30 Y4 3.144746 1_655
I31 Y5 2.939869 1_545
I32 Y5 3.024843 1_554
I33 Y4 2.997409 1_555
I34 Y4 3.047488 1_556
I35 Y5 2.973096 1_555
I36 Y7 2.973096 1_555
I37 Y6 3.047488 1_555
I38 Y6 2.997409 1_555
I39 Y7 3.024843 1_555
I40 Y7 2.939869 1_565
I41 Y7 3.089354 1_555
I41 Y6 3.144746 1_555
I42 Y4 3.012182 1_555
I43 Y6 3.010379 1_555
I44 Y5 2.963478 1_555
I47 Y1 3.062497 1_555
I47 Y7 3.234546 1_565
