# generated using pymatgen
data_LiCr(PO3)5
_symmetry_space_group_name_H-M   'P 1'
_cell_length_a   13.61028900
_cell_length_b   8.99530200
_cell_length_c   10.26466181
_cell_angle_alpha   79.16085538
_cell_angle_beta   90.00000000
_cell_angle_gamma   90.00000000
_symmetry_Int_Tables_number   1
_chemical_formula_structural   LiCr(PO3)5
_chemical_formula_sum   'Li4 Cr4 P20 O60'
_cell_volume   1234.26820726
_cell_formula_units_Z   4
loop_
 _symmetry_equiv_pos_site_id
 _symmetry_equiv_pos_as_xyz
  1  'x, y, z'
loop_
 _atom_site_type_symbol
 _atom_site_label
 _atom_site_symmetry_multiplicity
 _atom_site_fract_x
 _atom_site_fract_y
 _atom_site_fract_z
 _atom_site_occupancy
  Li  Li0  1  0.38995700  0.91090100  0.77672200  1
  Li  Li1  1  0.61004300  0.08909900  0.22327800  1
  Li  Li2  1  0.88995700  0.08909900  0.72327800  1
  Li  Li3  1  0.11004300  0.91090100  0.27672200  1
  Cr  Cr0  1  0.00000000  0.50000000  0.00000000  1
  Cr  Cr1  1  0.50000000  0.50000000  0.50000000  1
  Cr  Cr2  1  0.00000000  0.50000000  0.50000000  1
  Cr  Cr3  1  0.50000000  0.50000000  0.00000000  1
  P  P0  1  0.85894800  0.51986700  0.25006100  1
  P  P1  1  0.25098700  0.99631500  0.52178800  1
  P  P2  1  0.14103400  0.47805900  0.25280700  1
  P  P3  1  0.74901300  0.00368500  0.47821200  1
  P  P4  1  0.14105200  0.48013300  0.74993900  1
  P  P5  1  0.35894800  0.48013300  0.24993900  1
  P  P6  1  0.08223000  0.18513800  0.42607400  1
  P  P7  1  0.24901300  0.99631500  0.02178800  1
  P  P8  1  0.58223000  0.81486200  0.07392600  1
  P  P9  1  0.57353200  0.80678500  0.58717800  1
  P  P10  1  0.92646800  0.80678500  0.08717800  1
  P  P11  1  0.35896600  0.47805900  0.75280700  1
  P  P12  1  0.42646800  0.19321500  0.41282200  1
  P  P13  1  0.64105200  0.51986700  0.75006100  1
  P  P14  1  0.91777000  0.81486200  0.57392600  1
  P  P15  1  0.07353200  0.19321500  0.91282200  1
  P  P16  1  0.85896600  0.52194100  0.74719300  1
  P  P17  1  0.64103400  0.52194100  0.24719300  1
  P  P18  1  0.75098700  0.00368500  0.97821200  1
  P  P19  1  0.41777000  0.18513800  0.92607400  1
  O  O0  1  0.74993400  0.46564500  0.72660600  1
  O  O1  1  0.37764400  0.50183200  0.60477800  1
  O  O2  1  0.02108900  0.29148200  0.99920300  1
  O  O3  1  0.12489500  0.50250700  0.60266300  1
  O  O4  1  0.48400800  0.28050100  0.99574100  1
  O  O5  1  0.87764400  0.49816800  0.89522200  1
  O  O6  1  0.76421000  0.11220100  0.84882600  1
  O  O7  1  0.98400800  0.71949900  0.50425900  1
  O  O8  1  0.07389500  0.56044300  0.83107100  1
  O  O9  1  0.35402300  0.30241600  0.81397200  1
  O  O10  1  0.16727300  0.12126700  0.53311100  1
  O  O11  1  0.52108900  0.70851800  0.50079700  1
  O  O12  1  0.00820900  0.10115300  0.84516500  1
  O  O13  1  0.62235600  0.49816800  0.39522200  1
  O  O14  1  0.42610500  0.56044300  0.33107100  1
  O  O15  1  0.64432100  0.69760800  0.69091500  1
  O  O16  1  0.92610500  0.43955700  0.16892900  1
  O  O17  1  0.34815200  0.10343500  0.51052500  1
  O  O18  1  0.85567900  0.69760800  0.19091500  1
  O  O19  1  0.75006600  0.46564500  0.22660600  1
  O  O20  1  0.95938300  0.93355400  0.63926900  1
  O  O21  1  0.57504200  0.43527700  0.16969900  1
  O  O22  1  0.12235600  0.50183200  0.10477800  1
  O  O23  1  0.92495800  0.43527700  0.66969900  1
  O  O24  1  0.76532100  0.07365300  0.59828300  1
  O  O25  1  0.84815200  0.89656500  0.98947500  1
  O  O26  1  0.97891100  0.70851800  0.00079700  1
  O  O27  1  0.42495800  0.56472300  0.83030100  1
  O  O28  1  0.64597700  0.69758400  0.18602800  1
  O  O29  1  0.23467900  0.92634700  0.40171700  1
  O  O30  1  0.35567900  0.30239200  0.30908500  1
  O  O31  1  0.45938300  0.06644600  0.86073100  1
  O  O32  1  0.04061700  0.06644600  0.36073100  1
  O  O33  1  0.01599200  0.28050100  0.49574100  1
  O  O34  1  0.65184800  0.89656500  0.48947500  1
  O  O35  1  0.26421000  0.88779900  0.65117400  1
  O  O36  1  0.87510500  0.49749300  0.39733700  1
  O  O37  1  0.83272700  0.87873300  0.46688900  1
  O  O38  1  0.50820900  0.89884700  0.65483500  1
  O  O39  1  0.54061700  0.93355400  0.13926900  1
  O  O40  1  0.62489500  0.49749300  0.89733700  1
  O  O41  1  0.25006600  0.53435500  0.27339400  1
  O  O42  1  0.07504200  0.56472300  0.33030100  1
  O  O43  1  0.33272700  0.12126700  0.03311100  1
  O  O44  1  0.49179100  0.10115300  0.34516500  1
  O  O45  1  0.24993400  0.53435500  0.77339400  1
  O  O46  1  0.51599200  0.71949900  0.00425900  1
  O  O47  1  0.73579000  0.11220100  0.34882600  1
  O  O48  1  0.26532100  0.92634700  0.90171700  1
  O  O49  1  0.66727300  0.87873300  0.96688900  1
  O  O50  1  0.15184800  0.10343500  0.01052500  1
  O  O51  1  0.47891100  0.29148200  0.49920300  1
  O  O52  1  0.73467900  0.07365300  0.09828300  1
  O  O53  1  0.85402300  0.69758400  0.68602800  1
  O  O54  1  0.23579000  0.88779900  0.15117400  1
  O  O55  1  0.14432100  0.30239200  0.80908500  1
  O  O56  1  0.14597700  0.30241600  0.31397200  1
  O  O57  1  0.37510500  0.50250700  0.10266300  1
  O  O58  1  0.57389500  0.43955700  0.66892900  1
  O  O59  1  0.99179100  0.89884700  0.15483500  1
loop_
_geom_bond_atom_site_label_1
_geom_bond_atom_site_label_2
_geom_bond_distance
_geom_bond_site_symmetry_2
Li0 O31 2.011946 1_565
Li0 O38 2.053877 1_555
Li0 O48 2.147106 1_555
Li0 O35 2.175718 1_555
Li1 O39 2.011946 1_545
Li1 O44 2.053877 1_555
Li1 O52 2.147106 1_555
Li1 O47 2.175718 1_555
Li2 O20 2.011946 1_545
Li2 O12 2.053877 1_655
Li2 O24 2.147106 1_555
Li2 O6 2.175718 1_555
Li3 O32 2.011946 1_565
Li3 O59 2.053877 1_455
Li3 O29 2.147106 1_555
Li3 O54 2.175718 1_555
Cr0 O2 1.899054 1_554
Cr0 O26 1.899054 1_455
Cr0 O22 1.984159 1_555
Cr0 O5 1.984159 1_454
Cr0 O8 1.989794 1_554
Cr0 O16 1.989794 1_455
Cr1 O11 1.899054 1_555
Cr1 O51 1.899054 1_555
Cr1 O13 1.984159 1_555
Cr1 O1 1.984159 1_555
Cr1 O14 1.989794 1_555
Cr1 O58 1.989794 1_555
Cr2 O33 1.995054 1_555
Cr2 O7 1.995054 1_455
Cr2 O3 2.002363 1_555
Cr2 O36 2.002363 1_455
Cr2 O42 2.008707 1_555
Cr2 O23 2.008707 1_455
Cr3 O46 1.995054 1_555
Cr3 O4 1.995054 1_554
Cr3 O40 2.002363 1_554
Cr3 O57 2.002363 1_555
Cr3 O21 2.008707 1_555
Cr3 O27 2.008707 1_554
O0 P13 1.592513 1_555
O0 P16 1.594827 1_555
O1 P11 1.515562 1_555
O2 P15 1.540057 1_555
O3 P4 1.503258 1_555
O4 P19 1.513500 1_555
O5 P16 1.515562 1_555
O6 P18 1.503829 1_555
O7 P14 1.513500 1_555
O8 P4 1.509019 1_555
O9 P11 1.588051 1_555
O9 P19 1.653240 1_555
O10 P1 1.619921 1_545
O10 P6 1.624664 1_555
O11 P9 1.540057 1_555
O12 P15 1.474730 1_555
O13 P17 1.515562 1_555
O14 P5 1.509019 1_555
O15 P13 1.600550 1_555
O15 P9 1.622738 1_555
O16 P0 1.509019 1_555
O17 P12 1.577825 1_555
O17 P1 1.627515 1_545
O18 P0 1.600550 1_555
O18 P10 1.622738 1_555
O19 P0 1.592513 1_555
O19 P17 1.594827 1_555
O20 P14 1.476446 1_555
O21 P17 1.510100 1_555
O22 P2 1.515562 1_555
O23 P16 1.510100 1_555
O24 P3 1.502053 1_555
O25 P10 1.577825 1_556
O25 P18 1.627515 1_565
O26 P10 1.540057 1_555
O27 P11 1.510100 1_555
O28 P17 1.588051 1_555
O28 P8 1.653240 1_555
O29 P1 1.502053 1_555
O30 P5 1.600550 1_555
O30 P12 1.622738 1_555
O31 P19 1.476446 1_555
O32 P6 1.476446 1_555
O33 P6 1.513500 1_555
O34 P9 1.577825 1_555
O34 P3 1.627515 1_565
O35 P1 1.503829 1_555
O36 P0 1.503258 1_555
O37 P3 1.619921 1_565
O37 P14 1.624664 1_555
O38 P9 1.474730 1_555
O39 P8 1.476446 1_555
O40 P13 1.503258 1_555
O41 P5 1.592513 1_555
O41 P2 1.594827 1_555
O42 P2 1.510100 1_555
O43 P7 1.619921 1_545
O43 P19 1.624664 1_554
O44 P12 1.474730 1_555
O45 P4 1.592513 1_555
O45 P11 1.594827 1_555
O46 P8 1.513500 1_555
O47 P3 1.503829 1_555
O48 P7 1.502053 1_556
O49 P18 1.619921 1_565
O49 P8 1.624664 1_556
O50 P15 1.577825 1_554
O50 P7 1.627515 1_545
O51 P12 1.540057 1_555
O52 P18 1.502053 1_554
O53 P16 1.588051 1_555
O53 P14 1.653240 1_555
O54 P7 1.503829 1_555
O55 P4 1.600550 1_555
O55 P15 1.622738 1_555
O56 P2 1.588051 1_555
O56 P6 1.653240 1_555
O57 P5 1.503258 1_555
O58 P13 1.509019 1_555
O59 P10 1.474730 1_555
