# generated using pymatgen
data_MnCuH10Se2(ClO5)2
_symmetry_space_group_name_H-M   'P 1'
_cell_length_a   7.21470200
_cell_length_b   9.24263500
_cell_length_c   18.73481200
_cell_angle_alpha   90.00000000
_cell_angle_beta   90.00000000
_cell_angle_gamma   90.00000000
_symmetry_Int_Tables_number   1
_chemical_formula_structural   MnCuH10Se2(ClO5)2
_chemical_formula_sum   'Mn4 Cu4 H40 Se8 Cl8 O40'
_cell_volume   1249.29079364
_cell_formula_units_Z   4
loop_
 _symmetry_equiv_pos_site_id
 _symmetry_equiv_pos_as_xyz
  1  'x, y, z'
loop_
 _atom_site_type_symbol
 _atom_site_label
 _atom_site_symmetry_multiplicity
 _atom_site_fract_x
 _atom_site_fract_y
 _atom_site_fract_z
 _atom_site_occupancy
  Mn  Mn0  1  0.93343300  0.64580600  0.25000000  1
  Mn  Mn1  1  0.56656700  0.14580600  0.25000000  1
  Mn  Mn2  1  0.06656700  0.35419400  0.75000000  1
  Mn  Mn3  1  0.43343300  0.85419400  0.75000000  1
  Cu  Cu0  1  0.00000000  0.50000000  0.50000000  1
  Cu  Cu1  1  0.50000000  0.00000000  0.00000000  1
  Cu  Cu2  1  0.00000000  0.50000000  0.00000000  1
  Cu  Cu3  1  0.50000000  0.00000000  0.50000000  1
  H  H0  1  0.61157400  0.56277800  0.44018800  1
  H  H1  1  0.88842600  0.06277800  0.05981200  1
  H  H2  1  0.38842600  0.43722200  0.94018800  1
  H  H3  1  0.11157400  0.93722200  0.55981200  1
  H  H4  1  0.38842600  0.43722200  0.55981200  1
  H  H5  1  0.11157400  0.93722200  0.94018800  1
  H  H6  1  0.61157400  0.56277800  0.05981200  1
  H  H7  1  0.88842600  0.06277800  0.44018800  1
  H  H8  1  0.73241200  0.82476900  0.34292000  1
  H  H9  1  0.76758800  0.32476900  0.15708000  1
  H  H10  1  0.26758800  0.17523100  0.84292000  1
  H  H11  1  0.23241200  0.67523100  0.65708000  1
  H  H12  1  0.26758800  0.17523100  0.65708000  1
  H  H13  1  0.23241200  0.67523100  0.84292000  1
  H  H14  1  0.73241200  0.82476900  0.15708000  1
  H  H15  1  0.76758800  0.32476900  0.34292000  1
  H  H16  1  0.90369200  0.77001700  0.38598100  1
  H  H17  1  0.59630800  0.27001700  0.11401900  1
  H  H18  1  0.09630800  0.22998300  0.88598100  1
  H  H19  1  0.40369200  0.72998300  0.61401900  1
  H  H20  1  0.09630800  0.22998300  0.61401900  1
  H  H21  1  0.40369200  0.72998300  0.88598100  1
  H  H22  1  0.90369200  0.77001700  0.11401900  1
  H  H23  1  0.59630800  0.27001700  0.38598100  1
  H  H24  1  0.52265900  0.65275900  0.25000000  1
  H  H25  1  0.97734100  0.15275900  0.25000000  1
  H  H26  1  0.47734100  0.34724100  0.75000000  1
  H  H27  1  0.02265900  0.84724100  0.75000000  1
  H  H28  1  0.58573500  0.49126500  0.25000000  1
  H  H29  1  0.91426500  0.99126500  0.25000000  1
  H  H30  1  0.41426500  0.50873500  0.75000000  1
  H  H31  1  0.08573500  0.00873500  0.75000000  1
  H  H32  1  0.26221700  0.81496000  0.29090800  1
  H  H33  1  0.23778300  0.31496000  0.20909200  1
  H  H34  1  0.73778300  0.18504000  0.79090800  1
  H  H35  1  0.76221700  0.68504000  0.70909200  1
  H  H36  1  0.73778300  0.18504000  0.70909200  1
  H  H37  1  0.76221700  0.68504000  0.79090800  1
  H  H38  1  0.26221700  0.81496000  0.20909200  1
  H  H39  1  0.23778300  0.31496000  0.29090800  1
  Se  Se0  1  0.33704600  0.69145500  0.45285300  1
  Se  Se1  1  0.16295400  0.19145500  0.04714700  1
  Se  Se2  1  0.66295400  0.30854500  0.95285300  1
  Se  Se3  1  0.83704600  0.80854500  0.54714700  1
  Se  Se4  1  0.66295400  0.30854500  0.54714700  1
  Se  Se5  1  0.83704600  0.80854500  0.95285300  1
  Se  Se6  1  0.33704600  0.69145500  0.04714700  1
  Se  Se7  1  0.16295400  0.19145500  0.45285300  1
  Cl  Cl0  1  0.03535000  0.46333900  0.34646700  1
  Cl  Cl1  1  0.46465000  0.96333900  0.15353300  1
  Cl  Cl2  1  0.96465000  0.53666100  0.84646700  1
  Cl  Cl3  1  0.53535000  0.03666100  0.65353300  1
  Cl  Cl4  1  0.96465000  0.53666100  0.65353300  1
  Cl  Cl5  1  0.53535000  0.03666100  0.84646700  1
  Cl  Cl6  1  0.03535000  0.46333900  0.15353300  1
  Cl  Cl7  1  0.46465000  0.96333900  0.34646700  1
  O  O0  1  0.44358300  0.79008900  0.52032600  1
  O  O1  1  0.05641700  0.29008900  0.97967400  1
  O  O2  1  0.55641700  0.20991100  0.02032600  1
  O  O3  1  0.94358300  0.70991100  0.47967400  1
  O  O4  1  0.55641700  0.20991100  0.47967400  1
  O  O5  1  0.94358300  0.70991100  0.02032600  1
  O  O6  1  0.44358300  0.79008900  0.97967400  1
  O  O7  1  0.05641700  0.29008900  0.52032600  1
  O  O8  1  0.26672800  0.54070400  0.50084500  1
  O  O9  1  0.23327200  0.04070400  0.99915500  1
  O  O10  1  0.73327200  0.45929600  0.00084500  1
  O  O11  1  0.76672800  0.95929600  0.49915500  1
  O  O12  1  0.73327200  0.45929600  0.49915500  1
  O  O13  1  0.76672800  0.95929600  0.00084500  1
  O  O14  1  0.26672800  0.54070400  0.99915500  1
  O  O15  1  0.23327200  0.04070400  0.50084500  1
  O  O16  1  0.53072400  0.61990700  0.40658300  1
  O  O17  1  0.96927600  0.11990700  0.09341700  1
  O  O18  1  0.46927600  0.38009300  0.90658300  1
  O  O19  1  0.03072400  0.88009300  0.59341700  1
  O  O20  1  0.46927600  0.38009300  0.59341700  1
  O  O21  1  0.03072400  0.88009300  0.90658300  1
  O  O22  1  0.53072400  0.61990700  0.09341700  1
  O  O23  1  0.96927600  0.11990700  0.40658300  1
  O  O24  1  0.86371000  0.79857100  0.33716500  1
  O  O25  1  0.63629000  0.29857100  0.16283500  1
  O  O26  1  0.13629000  0.20142900  0.83716500  1
  O  O27  1  0.36371000  0.70142900  0.66283500  1
  O  O28  1  0.13629000  0.20142900  0.66283500  1
  O  O29  1  0.36371000  0.70142900  0.83716500  1
  O  O30  1  0.86371000  0.79857100  0.16283500  1
  O  O31  1  0.63629000  0.29857100  0.33716500  1
  O  O32  1  0.63240900  0.58961900  0.25000000  1
  O  O33  1  0.86759100  0.08961900  0.25000000  1
  O  O34  1  0.36759100  0.41038100  0.75000000  1
  O  O35  1  0.13240900  0.91038100  0.75000000  1
  O  O36  1  0.22057700  0.75548100  0.25000000  1
  O  O37  1  0.27942300  0.25548100  0.25000000  1
  O  O38  1  0.77942300  0.24451900  0.75000000  1
  O  O39  1  0.72057700  0.74451900  0.75000000  1
loop_
_geom_bond_atom_site_label_1
_geom_bond_atom_site_label_2
_geom_bond_distance
_geom_bond_site_symmetry_2
Mn0 O24 2.216619 1_555
Mn0 O30 2.216619 1_555
Mn0 O32 2.233024 1_555
Mn0 O36 2.306367 1_655
Mn1 O31 2.216619 1_555
Mn1 O25 2.216619 1_555
Mn1 O33 2.233024 1_555
Mn1 O37 2.306367 1_555
Mn2 O26 2.216619 1_555
Mn2 O28 2.216619 1_555
Mn2 O34 2.233024 1_555
Mn2 O38 2.306367 1_455
Mn3 O29 2.216619 1_555
Mn3 O27 2.216619 1_555
Mn3 O35 2.233024 1_555
Mn3 O39 2.306367 1_555
Cu0 O8 1.960857 1_555
Cu0 O12 1.960857 1_455
Cu0 O7 2.018612 1_555
Cu0 O3 2.018612 1_455
Cu1 O13 1.960857 1_545
Cu1 O9 1.960857 1_554
Cu1 O2 2.018612 1_555
Cu1 O6 2.018612 1_544
Cu2 O14 1.960857 1_554
Cu2 O10 1.960857 1_455
Cu2 O5 2.018612 1_455
Cu2 O1 2.018612 1_554
Cu3 O11 1.960857 1_545
Cu3 O15 1.960857 1_555
Cu3 O4 2.018612 1_555
Cu3 O0 2.018612 1_545
H0 O16 1.007686 1_555
H0 O12 1.704741 1_555
H1 O17 1.007686 1_555
H1 O13 1.704741 1_545
H2 O18 1.007686 1_555
H2 O14 1.704741 1_555
H3 O19 1.007686 1_555
H3 O15 1.704741 1_565
H4 O20 1.007686 1_555
H4 O8 1.704741 1_555
H5 O21 1.007686 1_555
H5 O9 1.704741 1_565
H6 O22 1.007686 1_555
H6 O10 1.704741 1_555
H7 O23 1.007686 1_555
H7 O11 1.704741 1_545
H8 O24 0.983660 1_555
H9 O25 0.983660 1_555
H10 O26 0.983660 1_555
H11 O27 0.983660 1_555
H12 O28 0.983660 1_555
H13 O29 0.983660 1_555
H14 O30 0.983660 1_555
H15 O31 0.983660 1_555
H16 O24 0.994624 1_555
H17 O25 0.994624 1_555
H18 O26 0.994624 1_555
H19 O27 0.994624 1_555
H20 O28 0.994624 1_555
H21 O29 0.994624 1_555
H22 O30 0.994624 1_555
H23 O31 0.994624 1_555
H24 O32 0.983633 1_555
H25 O33 0.983633 1_555
H26 O34 0.983633 1_555
H27 O35 0.983633 1_555
H28 O32 0.969415 1_555
H29 O33 0.969415 1_565
H30 O34 0.969415 1_555
H31 O35 0.969415 1_545
H32 O36 0.989871 1_555
H33 O37 0.989871 1_555
H34 O38 0.989871 1_555
H35 O39 0.989871 1_555
H36 O38 0.989871 1_555
H37 O39 0.989871 1_555
H38 O36 0.989871 1_555
H39 O37 0.989871 1_555
Cl0 Mn0 2.578986 1_455
Cl0 Cu0 2.907509 1_555
Cl1 Mn1 2.578986 1_565
Cl1 Cu1 2.907509 1_565
Cl2 Mn2 2.578986 1_655
Cl2 Cu2 2.907509 1_656
Cl3 Mn3 2.578986 1_545
Cl3 Cu3 2.907509 1_555
Cl4 Mn2 2.578986 1_655
Cl4 Cu0 2.907509 1_655
Cl5 Mn3 2.578986 1_545
Cl5 Cu1 2.907509 1_556
Cl6 Mn0 2.578986 1_455
Cl6 Cu2 2.907509 1_555
Cl7 Mn1 2.578986 1_565
Cl7 Cu3 2.907509 1_565
O0 Se0 1.737761 1_555
O1 Se1 1.737761 1_556
O2 Se2 1.737761 1_554
O3 Se3 1.737761 1_555
O4 Se4 1.737761 1_555
O5 Se5 1.737761 1_554
O6 Se6 1.737761 1_556
O7 Se7 1.737761 1_555
O8 Se0 1.734123 1_555
O9 Se1 1.734123 1_556
O10 Se2 1.734123 1_554
O11 Se3 1.734123 1_555
O12 Se4 1.734123 1_555
O13 Se5 1.734123 1_554
O14 Se6 1.734123 1_556
O15 Se7 1.734123 1_555
O16 Se0 1.772366 1_555
O17 Se1 1.772366 1_655
O18 Se2 1.772366 1_555
O19 Se3 1.772366 1_455
O20 Se4 1.772366 1_555
O21 Se5 1.772366 1_455
O22 Se6 1.772366 1_555
O23 Se7 1.772366 1_655
