# generated using pymatgen
data_Li4Co3Sn2Sb3O16
_symmetry_space_group_name_H-M   'P 1'
_cell_length_a   6.20323439
_cell_length_b   19.82868406
_cell_length_c   6.23121991
_cell_angle_alpha   90.72201047
_cell_angle_beta   119.85086779
_cell_angle_gamma   90.00131217
_symmetry_Int_Tables_number   1
_chemical_formula_structural   Li4Co3Sn2Sb3O16
_chemical_formula_sum   'Li8 Co6 Sn4 Sb6 O32'
_cell_volume   664.69214883
_cell_formula_units_Z   2
loop_
 _symmetry_equiv_pos_site_id
 _symmetry_equiv_pos_as_xyz
  1  'x, y, z'
loop_
 _atom_site_type_symbol
 _atom_site_label
 _atom_site_symmetry_multiplicity
 _atom_site_fract_x
 _atom_site_fract_y
 _atom_site_fract_z
 _atom_site_occupancy
  Li  Li0  1  0.66111100  0.44264000  0.32219700  1
  Li  Li1  1  0.66110000  0.94263200  0.32217900  1
  Li  Li2  1  0.98811600  0.49131800  0.97621300  1
  Li  Li3  1  0.98811100  0.99129300  0.97619800  1
  Li  Li4  1  0.99325000  0.25134500  0.98647000  1
  Li  Li5  1  0.99324400  0.75136000  0.98644900  1
  Li  Li6  1  0.32497900  0.20399200  0.64996900  1
  Li  Li7  1  0.32499500  0.70399400  0.64996700  1
  Co  Co0  1  0.66168700  0.35582400  0.83518100  1
  Co  Co1  1  0.66173400  0.85583500  0.83523200  1
  Co  Co2  1  0.17350000  0.35582500  0.83515900  1
  Co  Co3  1  0.17353800  0.85583800  0.83525200  1
  Co  Co4  1  0.83107700  0.60709100  0.66216600  1
  Co  Co5  1  0.83108200  0.10710400  0.66214900  1
  Sn  Sn0  1  0.67800700  0.25149700  0.35599000  1
  Sn  Sn1  1  0.67806300  0.75150900  0.35608700  1
  Sn  Sn2  1  0.34493000  0.48878900  0.68988100  1
  Sn  Sn3  1  0.34500300  0.98876600  0.68992700  1
  Sb  Sb0  1  0.17194500  0.35729300  0.34383400  1
  Sb  Sb1  1  0.17183800  0.85732700  0.34367400  1
  Sb  Sb2  1  0.83205100  0.10784400  0.16977600  1
  Sb  Sb3  1  0.83202900  0.60785700  0.16980100  1
  Sb  Sb4  1  0.33774300  0.10784600  0.16976300  1
  Sb  Sb5  1  0.33779100  0.60786200  0.16977700  1
  O  O0  1  0.51614800  0.16942300  0.03231100  1
  O  O1  1  0.51618400  0.66946000  0.03230900  1
  O  O2  1  0.66027800  0.05260400  0.32061700  1
  O  O3  1  0.66026600  0.55260500  0.32052300  1
  O  O4  1  0.00325900  0.15757300  0.00643100  1
  O  O5  1  0.00331300  0.65758400  0.00659400  1
  O  O6  1  0.00961000  0.40123000  0.01918600  1
  O  O7  1  0.00962100  0.90122400  0.01919200  1
  O  O8  1  0.16167600  0.05164700  0.32327400  1
  O  O9  1  0.16163600  0.55163500  0.32326000  1
  O  O10  1  0.84268900  0.29760900  0.68538500  1
  O  O11  1  0.84270300  0.79767100  0.68538700  1
  O  O12  1  0.32419700  0.30308000  0.64834800  1
  O  O13  1  0.32419600  0.80310100  0.64841500  1
  O  O14  1  0.48463400  0.42103500  0.96926000  1
  O  O15  1  0.48469000  0.92107000  0.96936100  1
  O  O16  1  0.85052200  0.29710600  0.17852700  1
  O  O17  1  0.85044800  0.79716500  0.17841000  1
  O  O18  1  0.32801000  0.29711300  0.17848700  1
  O  O19  1  0.32797600  0.79716000  0.17842900  1
  O  O20  1  0.95992900  0.16981200  0.47013400  1
  O  O21  1  0.95983900  0.66983500  0.47020900  1
  O  O22  1  0.51018900  0.16980800  0.47011600  1
  O  O23  1  0.51039400  0.66984200  0.47021500  1
  O  O24  1  0.47154700  0.42172000  0.50350100  1
  O  O25  1  0.47155600  0.92176700  0.50347400  1
  O  O26  1  0.03197000  0.42172300  0.50348000  1
  O  O27  1  0.03194700  0.92178200  0.50346100  1
  O  O28  1  0.68002200  0.05044200  0.84712500  1
  O  O29  1  0.68004700  0.55044500  0.84706300  1
  O  O30  1  0.16716900  0.05044900  0.84714200  1
  O  O31  1  0.16701500  0.55043800  0.84708400  1
loop_
_geom_bond_atom_site_label_1
_geom_bond_atom_site_label_2
_geom_bond_distance
_geom_bond_site_symmetry_2
Li0 O14 1.948871 1_554
Li0 O26 2.040916 1_655
Li0 O24 2.040939 1_555
Li0 O3 2.180612 1_555
Li1 O15 1.948069 1_554
Li1 O25 2.040557 1_555
Li1 O27 2.040574 1_655
Li1 O2 2.180739 1_565
Li2 O6 1.804707 1_656
Li2 O31 2.041036 1_655
Li2 O29 2.041348 1_555
Li2 O9 2.209775 1_656
Li3 O7 1.804350 1_656
Li3 O28 2.041724 1_565
Li3 O30 2.041874 1_665
Li3 O8 2.210295 1_666
Li4 O4 1.864068 1_656
Li4 O10 1.879565 1_555
Li4 O18 2.016572 1_656
Li4 O16 2.016655 1_556
Li5 O5 1.864219 1_656
Li5 O11 1.879923 1_555
Li5 O19 2.016708 1_656
Li5 O17 2.016869 1_556
Li6 O12 1.964932 1_555
Li6 O20 2.073077 1_455
Li6 O22 2.073175 1_555
Li6 O0 2.186527 1_556
Li7 O13 1.965301 1_555
Li7 O23 2.073426 1_555
Li7 O21 2.073489 1_455
Li7 O1 2.186300 1_556
Co0 O6 2.072136 1_656
Co0 O12 2.091636 1_555
Co0 O14 2.112478 1_555
Co0 O10 2.116746 1_555
Co0 O16 2.207501 1_556
Co0 O24 2.238619 1_555
Co1 O7 2.071813 1_656
Co1 O13 2.091748 1_555
Co1 O15 2.112928 1_555
Co1 O11 2.116260 1_555
Co1 O17 2.206206 1_556
Co1 O25 2.239384 1_555
Co2 O6 2.072117 1_556
Co2 O12 2.091737 1_555
Co2 O14 2.112435 1_555
Co2 O10 2.116798 1_455
Co2 O18 2.207347 1_556
Co2 O26 2.238635 1_555
Co3 O7 2.071655 1_556
Co3 O13 2.091609 1_555
Co3 O15 2.112777 1_555
Co3 O11 2.116358 1_455
Co3 O19 2.206290 1_556
Co3 O27 2.239666 1_555
Co4 O5 2.100771 1_656
Co4 O3 2.125659 1_555
Co4 O29 2.138659 1_555
Co4 O31 2.138841 1_655
Co4 O23 2.145938 1_555
Co4 O21 2.145952 1_555
Co5 O4 2.099856 1_656
Co5 O2 2.125280 1_555
Co5 O28 2.139335 1_555
Co5 O30 2.139544 1_655
Co5 O20 2.146147 1_555
Co5 O22 2.146290 1_555
O0 Sb4 2.102153 1_555
O0 Sb2 2.102434 1_555
O0 Sn0 2.371879 1_555
O1 Sb5 2.102410 1_555
O1 Sb3 2.102442 1_555
O1 Sn1 2.371934 1_555
O2 Sb4 2.059201 1_555
O2 Sb2 2.059495 1_555
O3 Sb3 2.059042 1_555
O3 Sb5 2.059098 1_555
O4 Sb4 2.058249 1_555
O4 Sb2 2.058544 1_455
O5 Sb5 2.058174 1_555
O5 Sb3 2.058233 1_455
O6 Sb0 1.970262 1_555
O7 Sb1 1.969097 1_555
O8 Sb4 2.101545 1_555
O8 Sb2 2.101796 1_455
O8 Sn3 2.356504 1_545
O9 Sb3 2.101984 1_455
O9 Sb5 2.102125 1_555
O9 Sn2 2.355981 1_555
O10 Sn0 1.989429 1_555
O11 Sn1 1.989416 1_555
O12 Sb0 1.978758 1_555
O13 Sb1 1.979931 1_555
O14 Sn2 2.035611 1_555
O15 Sn3 2.035063 1_555
O16 Sb0 2.094078 1_655
O16 Sn0 2.095024 1_555
O17 Sb1 2.093651 1_655
O17 Sn1 2.095859 1_555
O18 Sb0 2.093978 1_555
O18 Sn0 2.095230 1_555
O19 Sb1 2.093698 1_555
O19 Sn1 2.095983 1_555
O20 Sb2 2.026322 1_555
O20 Sn0 2.231287 1_555
O21 Sb3 2.026694 1_555
O21 Sn1 2.230571 1_555
O22 Sb4 2.026215 1_555
O22 Sn0 2.231382 1_555
O23 Sb5 2.026840 1_555
O23 Sn1 2.230493 1_555
O24 Sb0 2.050133 1_555
O24 Sn2 2.145577 1_555
O25 Sb1 2.050793 1_555
O25 Sn3 2.144799 1_555
O26 Sb0 2.050271 1_555
O26 Sn2 2.145381 1_555
O27 Sb1 2.050835 1_555
O27 Sn3 2.144797 1_555
O28 Sb2 2.069257 1_556
O28 Sn3 2.171919 1_545
O29 Sb3 2.069772 1_556
O29 Sn2 2.172147 1_555
O30 Sb4 2.069062 1_556
O30 Sn3 2.172156 1_545
O31 Sb5 2.069704 1_556
O31 Sn2 2.172096 1_555
