# generated using pymatgen
data_LiCoH8(SO6)2
_symmetry_space_group_name_H-M   'P 1'
_cell_length_a   8.11719900
_cell_length_b   5.50053800
_cell_length_c   10.96166573
_cell_angle_alpha   78.15761694
_cell_angle_beta   90.00000000
_cell_angle_gamma   90.00000000
_symmetry_Int_Tables_number   1
_chemical_formula_structural   LiCoH8(SO6)2
_chemical_formula_sum   'Li2 Co2 H16 S4 O24'
_cell_volume   479.00995457
_cell_formula_units_Z   2
loop_
 _symmetry_equiv_pos_site_id
 _symmetry_equiv_pos_as_xyz
  1  'x, y, z'
loop_
 _atom_site_type_symbol
 _atom_site_label
 _atom_site_symmetry_multiplicity
 _atom_site_fract_x
 _atom_site_fract_y
 _atom_site_fract_z
 _atom_site_occupancy
  Li  Li0  1  0.30645000  0.88353700  0.37106300  1
  Li  Li1  1  0.69355000  0.88353700  0.87106300  1
  Co  Co0  1  0.24358700  0.00153400  0.99968800  1
  Co  Co1  1  0.75641300  0.00153400  0.49968800  1
  H  H0  1  0.96511400  0.77319300  0.01951700  1
  H  H1  1  0.38504400  0.22491200  0.15583500  1
  H  H2  1  0.18579400  0.22120400  0.18168600  1
  H  H3  1  0.05584900  0.66643400  0.14409500  1
  H  H4  1  0.55665000  0.32257600  0.35588400  1
  H  H5  1  0.69028600  0.78656700  0.31375800  1
  H  H6  1  0.88818400  0.77502300  0.34413700  1
  H  H7  1  0.46730400  0.22815700  0.48401400  1
  H  H8  1  0.03488600  0.77319300  0.51951700  1
  H  H9  1  0.61495600  0.22491200  0.65583500  1
  H  H10  1  0.81420600  0.22120400  0.68168600  1
  H  H11  1  0.94415100  0.66643400  0.64409500  1
  H  H12  1  0.44335000  0.32257600  0.85588400  1
  H  H13  1  0.30971400  0.78656700  0.81375800  1
  H  H14  1  0.11181600  0.77502300  0.84413700  1
  H  H15  1  0.53269600  0.22815700  0.98401400  1
  S  S0  1  0.53447200  0.63440500  0.13233500  1
  S  S1  1  0.04676100  0.36510200  0.36387200  1
  S  S2  1  0.46552800  0.63440500  0.63233500  1
  S  S3  1  0.95323900  0.36510200  0.86387200  1
  O  O0  1  0.36814800  0.70438200  0.07084600  1
  O  O1  1  0.66381100  0.78873900  0.06395600  1
  O  O2  1  0.04213300  0.82179500  0.07963500  1
  O  O3  1  0.55680500  0.36658400  0.13129300  1
  O  O4  1  0.28234300  0.11737100  0.16545900  1
  O  O5  1  0.02528300  0.36586800  0.22866400  1
  O  O6  1  0.52230700  0.66491200  0.26523100  1
  O  O7  1  0.78579100  0.87329000  0.34428800  1
  O  O8  1  0.08114600  0.62617900  0.37736700  1
  O  O9  1  0.53811300  0.17229100  0.42134500  1
  O  O10  1  0.17354200  0.18920300  0.41883800  1
  O  O11  1  0.88116000  0.29839200  0.42930400  1
  O  O12  1  0.63185200  0.70438200  0.57084600  1
  O  O13  1  0.33618900  0.78873900  0.56395600  1
  O  O14  1  0.95786700  0.82179500  0.57963500  1
  O  O15  1  0.44319500  0.36658400  0.63129300  1
  O  O16  1  0.71765700  0.11737100  0.66545900  1
  O  O17  1  0.97471700  0.36586800  0.72866400  1
  O  O18  1  0.47769300  0.66491200  0.76523100  1
  O  O19  1  0.21420900  0.87329000  0.84428800  1
  O  O20  1  0.91885400  0.62617900  0.87736700  1
  O  O21  1  0.46188700  0.17229100  0.92134500  1
  O  O22  1  0.82645800  0.18920300  0.91883800  1
  O  O23  1  0.11884000  0.29839200  0.92930400  1
loop_
_geom_bond_atom_site_label_1
_geom_bond_atom_site_label_2
_geom_bond_distance
_geom_bond_site_symmetry_2
Li0 O13 2.085294 1_555
Li0 O10 2.150908 1_565
Li0 O8 2.305041 1_555
Li0 O4 2.362687 1_565
Li0 O6 2.536651 1_555
Li0 O9 2.592667 1_565
Li1 O1 2.085294 1_556
Li1 O22 2.150908 1_565
Li1 O20 2.305041 1_555
Li1 O16 2.362687 1_565
Li1 O18 2.536651 1_555
Li1 O21 2.592667 1_565
Co0 O23 1.941603 1_555
Co0 O0 1.943967 1_546
Co0 O19 1.987306 1_545
Co0 O2 2.015899 1_546
Co0 O4 2.069325 1_556
Co0 O21 2.104413 1_555
Co1 O11 1.941603 1_555
Co1 O12 1.943967 1_545
Co1 O7 1.987306 1_545
Co1 O14 2.015899 1_545
Co1 O16 2.069325 1_555
Co1 O9 2.104413 1_555
H0 O2 0.984326 1_655
H1 O4 1.015082 1_555
H1 O3 1.592933 1_555
H2 O4 1.006842 1_555
H2 O5 1.662558 1_555
H3 O2 0.997054 1_555
H3 O5 1.739307 1_555
H4 O9 0.988646 1_555
H5 O7 1.003024 1_555
H5 O6 1.654093 1_555
H6 O7 0.991632 1_555
H7 O9 0.991636 1_555
H8 O14 0.984326 1_455
H9 O16 1.015082 1_555
H9 O15 1.592933 1_555
H10 O16 1.006842 1_555
H10 O17 1.662558 1_555
H11 O14 0.997054 1_555
H11 O17 1.739307 1_555
H12 O21 0.988646 1_555
H13 O19 1.003024 1_555
H13 O18 1.654093 1_555
H14 O19 0.991632 1_555
H15 O21 0.991636 1_555
O0 S0 1.522730 1_555
O1 S0 1.457240 1_555
O3 S0 1.486640 1_555
O5 S1 1.491471 1_555
O6 S0 1.503461 1_555
O8 S1 1.499752 1_555
O10 S1 1.455662 1_555
O11 S1 1.532312 1_655
O12 S2 1.522730 1_555
O13 S2 1.457240 1_555
O15 S2 1.486640 1_555
O17 S3 1.491471 1_555
O18 S2 1.503461 1_555
O20 S3 1.499752 1_555
O22 S3 1.455662 1_555
O23 S3 1.532312 1_455
