# generated using pymatgen
data_LiV2(OF)3
_symmetry_space_group_name_H-M   'P 1'
_cell_length_a   5.11389600
_cell_length_b   5.12428380
_cell_length_c   13.51332764
_cell_angle_alpha   89.97274729
_cell_angle_beta   91.17253715
_cell_angle_gamma   119.26322729
_symmetry_Int_Tables_number   1
_chemical_formula_structural   LiV2(OF)3
_chemical_formula_sum   'Li3 V6 O9 F9'
_cell_volume   308.84302521
_cell_formula_units_Z   3
loop_
 _symmetry_equiv_pos_site_id
 _symmetry_equiv_pos_as_xyz
  1  'x, y, z'
loop_
 _atom_site_type_symbol
 _atom_site_label
 _atom_site_symmetry_multiplicity
 _atom_site_fract_x
 _atom_site_fract_y
 _atom_site_fract_z
 _atom_site_occupancy
  Li  Li0  1  0.35376500  0.68114500  0.95920800  1
  Li  Li1  1  0.98569300  0.00137000  0.28902200  1
  Li  Li2  1  0.66444300  0.32709000  0.62472000  1
  V  V0  1  0.02001000  0.97170300  0.51187700  1
  V  V1  1  0.31864700  0.71849500  0.17745800  1
  V  V2  1  0.34216000  0.62455400  0.66749600  1
  V  V3  1  0.67972000  0.35276900  0.33352700  1
  V  V4  1  0.63453800  0.31026700  0.84614900  1
  V  V5  1  0.00987100  0.01911900  0.00041600  1
  O  O0  1  0.24237900  0.94582800  0.08056300  1
  O  O1  1  0.04964000  0.71281400  0.58577100  1
  O  O2  1  0.00466100  0.62710800  0.24596500  1
  O  O3  1  0.58372100  0.57973700  0.74635700  1
  O  O4  1  0.75701900  0.65434400  0.41054500  1
  O  O5  1  0.29449200  0.33038100  0.57582200  1
  O  O6  1  0.34758200  0.29198000  0.91522100  1
  O  O7  1  0.72906600  0.04894000  0.91640900  1
  O  O8  1  0.62236500  0.02447700  0.24878100  1
  F  F0  1  0.66969800  0.95414900  0.58338000  1
  F  F1  1  0.97613600  0.37995100  0.74351900  1
  F  F2  1  0.64114500  0.74091900  0.07860100  1
  F  F3  1  0.07382400  0.37123800  0.07553300  1
  F  F4  1  0.97149500  0.66251200  0.91424500  1
  F  F5  1  0.36853500  0.38504800  0.25011900  1
  F  F6  1  0.32940700  0.05157000  0.41206700  1
  F  F7  1  0.40245000  0.00037500  0.74580500  1
  F  F8  1  0.93905200  0.23715000  0.41261300  1
loop_
_geom_bond_atom_site_label_1
_geom_bond_atom_site_label_2
_geom_bond_distance
_geom_bond_site_symmetry_2
Li0 O7 2.019438 1_565
Li0 O6 2.066359 1_555
Li0 O0 2.376762 1_556
Li1 O8 1.983846 1_555
Li1 O2 2.052132 1_645
Li1 O4 2.295490 1_545
Li2 O5 1.999044 1_555
Li2 O1 2.073425 1_655
Li2 O3 2.258447 1_555
O0 V5 1.763889 1_565
O0 V1 1.909308 1_555
O1 V0 1.723097 1_555
O1 V2 2.062840 1_555
O2 V1 1.726230 1_555
O2 V3 1.983109 1_455
O3 V2 1.713960 1_555
O3 V4 2.031619 1_555
O4 V3 1.736392 1_555
O4 V0 2.029039 1_655
O5 V2 1.869920 1_555
O5 V0 1.877431 1_545
O6 V4 1.719007 1_555
O6 V5 1.995519 1_556
O7 V5 1.876654 1_656
O7 V4 1.881815 1_555
O8 V1 1.832773 1_545
O8 V3 1.932152 1_555
F0 Li2 2.004189 1_565
F0 V0 2.016001 1_655
F0 V2 2.064110 1_555
F1 V2 1.978353 1_655
F1 V4 2.142759 1_555
F1 Li2 2.159835 1_555
F2 V5 2.038681 1_665
F2 Li0 2.078468 1_554
F2 V1 2.102969 1_555
F3 V5 1.950459 1_555
F3 V1 2.093968 1_555
F3 Li0 2.215729 1_554
F4 Li0 1.992196 1_655
F4 V4 1.992486 1_555
F4 V5 2.091834 1_666
F5 V3 2.003488 1_555
F5 Li1 2.062240 1_455
F5 V1 2.088805 1_555
F6 V0 1.985911 1_545
F6 V3 2.022628 1_555
F6 Li1 2.314999 1_455
F7 V4 1.965352 1_555
F7 V2 2.081282 1_545
F7 Li2 2.273652 1_555
F8 V3 1.990356 1_555
F8 V0 2.084954 1_645
F8 Li1 2.146142 1_555
