# generated using pymatgen
data_Mn6Cr9O20
_symmetry_space_group_name_H-M   'P 1'
_cell_length_a   25.12227113
_cell_length_b   25.12227113
_cell_length_c   25.12227016
_cell_angle_alpha   13.90632343
_cell_angle_beta   13.90632343
_cell_angle_gamma   13.90632465
_symmetry_Int_Tables_number   1
_chemical_formula_structural   Mn6Cr9O20
_chemical_formula_sum   'Mn12 Cr18 O40'
_cell_volume   797.01892298
_cell_formula_units_Z   2
loop_
 _symmetry_equiv_pos_site_id
 _symmetry_equiv_pos_as_xyz
  1  'x, y, z'
loop_
 _atom_site_type_symbol
 _atom_site_label
 _atom_site_symmetry_multiplicity
 _atom_site_fract_x
 _atom_site_fract_y
 _atom_site_fract_z
 _atom_site_occupancy
  Mn  Mn0  1  0.22491400  0.22491400  0.22491400  1
  Mn  Mn1  1  0.90000000  0.90000000  0.90000000  1
  Mn  Mn2  1  0.17502200  0.17502200  0.17502200  1
  Mn  Mn3  1  0.82497800  0.82497800  0.82497800  1
  Mn  Mn4  1  0.77508600  0.77508600  0.77508600  1
  Mn  Mn5  1  0.42491400  0.42491400  0.42491400  1
  Mn  Mn6  1  0.10000000  0.10000000  0.10000000  1
  Mn  Mn7  1  0.37500600  0.37500600  0.37500600  1
  Mn  Mn8  1  0.02500200  0.02500200  0.02500200  1
  Mn  Mn9  1  0.97499800  0.97499800  0.97499800  1
  Mn  Mn10  1  0.62499400  0.62499400  0.62499400  1
  Mn  Mn11  1  0.57508600  0.57508600  0.57508600  1
  Cr  Cr0  1  0.20030000  0.69972500  0.69972500  1
  Cr  Cr1  1  0.69972500  0.69972500  0.20030000  1
  Cr  Cr2  1  0.69972500  0.20030000  0.69972500  1
  Cr  Cr3  1  0.79970000  0.30027500  0.30027500  1
  Cr  Cr4  1  0.50000000  0.50000000  0.50000000  1
  Cr  Cr5  1  0.30027500  0.79970000  0.30027500  1
  Cr  Cr6  1  0.30027500  0.30027500  0.79970000  1
  Cr  Cr7  1  0.40033000  0.89970900  0.89970900  1
  Cr  Cr8  1  0.69997300  0.69997300  0.69997300  1
  Cr  Cr9  1  0.89970900  0.40033000  0.89970900  1
  Cr  Cr10  1  0.50000000  0.00000000  0.50000000  1
  Cr  Cr11  1  0.50000000  0.50000000  0.00000000  1
  Cr  Cr12  1  0.89970900  0.89970900  0.40033000  1
  Cr  Cr13  1  0.00000000  0.50000000  0.50000000  1
  Cr  Cr14  1  0.30002700  0.30002700  0.30002700  1
  Cr  Cr15  1  0.10029100  0.10029100  0.59967000  1
  Cr  Cr16  1  0.10029100  0.59967000  0.10029100  1
  Cr  Cr17  1  0.59967000  0.10029100  0.10029100  1
  O  O0  1  0.03294200  0.58026800  0.03294200  1
  O  O1  1  0.03294200  0.03294200  0.58026800  1
  O  O2  1  0.58026800  0.03294200  0.03294200  1
  O  O3  1  0.85268900  0.85268900  0.85268900  1
  O  O4  1  0.54731900  0.54731900  0.54731900  1
  O  O5  1  0.81432600  0.36914500  0.36914500  1
  O  O6  1  0.96705800  0.41973200  0.96705800  1
  O  O7  1  0.36914500  0.36914500  0.81432600  1
  O  O8  1  0.36914500  0.81432600  0.36914500  1
  O  O9  1  0.96705800  0.96705800  0.41973200  1
  O  O10  1  0.63085500  0.18567400  0.63085500  1
  O  O11  1  0.63085500  0.63085500  0.18567400  1
  O  O12  1  0.18567400  0.63085500  0.63085500  1
  O  O13  1  0.45268100  0.45268100  0.45268100  1
  O  O14  1  0.78026900  0.23294100  0.23294100  1
  O  O15  1  0.74732000  0.74732000  0.74732000  1
  O  O16  1  0.14731100  0.14731100  0.14731100  1
  O  O17  1  0.41973200  0.96705800  0.96705800  1
  O  O18  1  0.56917100  0.01425300  0.56917100  1
  O  O19  1  0.56917100  0.56917100  0.01425300  1
  O  O20  1  0.23294100  0.23294100  0.78026900  1
  O  O21  1  0.23294100  0.78026900  0.23294100  1
  O  O22  1  0.05269600  0.05269600  0.05269600  1
  O  O23  1  0.65271400  0.65271400  0.65271400  1
  O  O24  1  0.38529500  0.83097900  0.83097900  1
  O  O25  1  0.34728600  0.34728600  0.34728600  1
  O  O26  1  0.61470500  0.16902100  0.16902100  1
  O  O27  1  0.01425300  0.56917100  0.56917100  1
  O  O28  1  0.16902100  0.61470500  0.16902100  1
  O  O29  1  0.16902100  0.16902100  0.61470500  1
  O  O30  1  0.83097900  0.83097900  0.38529500  1
  O  O31  1  0.43082900  0.43082900  0.98574700  1
  O  O32  1  0.83097900  0.38529500  0.83097900  1
  O  O33  1  0.43082900  0.98574700  0.43082900  1
  O  O34  1  0.25268000  0.25268000  0.25268000  1
  O  O35  1  0.98574700  0.43082900  0.43082900  1
  O  O36  1  0.94730400  0.94730400  0.94730400  1
  O  O37  1  0.21973100  0.76705900  0.76705900  1
  O  O38  1  0.76705900  0.21973100  0.76705900  1
  O  O39  1  0.76705900  0.76705900  0.21973100  1
loop_
_geom_bond_atom_site_label_1
_geom_bond_atom_site_label_2
_geom_bond_distance
_geom_bond_site_symmetry_2
Mn0 O1 2.049420 1_555
Mn0 O0 2.049420 1_555
Mn0 O2 2.049420 1_555
Mn0 O34 2.072089 1_555
Mn1 O1 2.078778 1_665
Mn1 O2 2.078778 1_566
Mn1 O0 2.078778 1_656
Mn1 O39 2.078788 1_556
Mn1 O37 2.078789 1_655
Mn1 O38 2.078789 1_565
Mn2 O7 2.065390 1_554
Mn2 O5 2.065390 1_455
Mn2 O8 2.065390 1_545
Mn2 O16 2.067985 1_555
Mn3 O11 2.065390 1_556
Mn3 O10 2.065390 1_565
Mn3 O12 2.065390 1_655
Mn3 O3 2.067985 1_555
Mn4 O9 2.049420 1_555
Mn4 O6 2.049420 1_555
Mn4 O17 2.049420 1_555
Mn4 O15 2.072089 1_555
Mn5 O20 2.049435 1_555
Mn5 O21 2.049435 1_555
Mn5 O14 2.049435 1_555
Mn5 O13 2.072164 1_555
Mn6 O9 2.078778 1_445
Mn6 O6 2.078778 1_454
Mn6 O17 2.078778 1_544
Mn6 O20 2.078788 1_554
Mn6 O21 2.078789 1_545
Mn6 O14 2.078789 1_455
Mn7 O19 2.065941 1_555
Mn7 O18 2.065941 1_555
Mn7 O27 2.065941 1_555
Mn7 O25 2.068656 1_555
Mn8 O30 2.065406 1_445
Mn8 O24 2.065406 1_544
Mn8 O32 2.065406 1_454
Mn8 O22 2.066716 1_555
Mn9 O29 2.065406 1_665
Mn9 O26 2.065406 1_566
Mn9 O28 2.065406 1_656
Mn9 O36 2.066716 1_555
Mn10 O31 2.065941 1_555
Mn10 O33 2.065941 1_555
Mn10 O35 2.065941 1_555
Mn10 O23 2.068656 1_555
Mn11 O39 2.049435 1_555
Mn11 O38 2.049435 1_555
Mn11 O37 2.049435 1_555
Mn11 O4 2.072164 1_555
Cr0 O8 2.037867 1_555
Cr0 O7 2.037867 1_555
Cr0 O0 2.038409 1_556
Cr0 O1 2.038410 1_565
Cr0 O3 2.040908 1_455
Cr0 O4 2.044095 1_555
Cr1 O5 2.037867 1_555
Cr1 O8 2.037867 1_555
Cr1 O0 2.038410 1_655
Cr1 O2 2.038410 1_565
Cr1 O3 2.040907 1_554
Cr1 O4 2.044094 1_555
Cr2 O5 2.037867 1_555
Cr2 O7 2.037867 1_555
Cr2 O2 2.038409 1_556
Cr2 O1 2.038410 1_655
Cr2 O3 2.040908 1_545
Cr2 O4 2.044095 1_555
Cr3 O10 2.037867 1_555
Cr3 O11 2.037867 1_555
Cr3 O6 2.038409 1_554
Cr3 O9 2.038410 1_545
Cr3 O16 2.040908 1_655
Cr3 O13 2.044095 1_555
Cr4 O7 2.038918 1_555
Cr4 O11 2.038918 1_555
Cr4 O8 2.038918 1_555
Cr4 O5 2.038918 1_555
Cr4 O12 2.038918 1_555
Cr4 O10 2.038918 1_555
Cr5 O12 2.037867 1_555
Cr5 O11 2.037867 1_555
Cr5 O17 2.038409 1_554
Cr5 O9 2.038410 1_455
Cr5 O16 2.040908 1_565
Cr5 O13 2.044095 1_555
Cr6 O12 2.037867 1_555
Cr6 O10 2.037867 1_555
Cr6 O17 2.038410 1_545
Cr6 O6 2.038410 1_455
Cr6 O16 2.040907 1_556
Cr6 O13 2.044094 1_555
Cr7 O18 2.037945 1_565
Cr7 O19 2.037945 1_556
Cr7 O21 2.038497 1_556
Cr7 O20 2.038498 1_565
Cr7 O22 2.040756 1_566
Cr7 O15 2.044020 1_555
Cr8 O19 2.039610 1_556
Cr8 O18 2.039610 1_565
Cr8 O27 2.039610 1_655
Cr8 O30 2.041071 1_555
Cr8 O32 2.041071 1_555
Cr8 O24 2.041071 1_555
Cr9 O27 2.037945 1_655
Cr9 O19 2.037945 1_556
Cr9 O14 2.038497 1_556
Cr9 O20 2.038498 1_655
Cr9 O22 2.040756 1_656
Cr9 O15 2.044020 1_555
Cr10 O24 2.041129 1_545
Cr10 O26 2.041129 1_555
Cr10 O30 2.041129 1_545
Cr10 O29 2.041129 1_555
Cr10 O25 2.041386 1_555
Cr10 O23 2.041386 1_545
Cr11 O24 2.041129 1_554
Cr11 O32 2.041129 1_554
Cr11 O26 2.041129 1_555
Cr11 O28 2.041129 1_555
Cr11 O23 2.041385 1_554
Cr11 O25 2.041385 1_555
Cr12 O18 2.037945 1_565
Cr12 O27 2.037945 1_655
Cr12 O14 2.038498 1_565
Cr12 O21 2.038498 1_655
Cr12 O22 2.040756 1_665
Cr12 O15 2.044020 1_555
Cr13 O32 2.041129 1_455
Cr13 O28 2.041129 1_555
Cr13 O30 2.041129 1_455
Cr13 O29 2.041129 1_555
Cr13 O25 2.041386 1_555
Cr13 O23 2.041386 1_455
Cr14 O31 2.039610 1_554
Cr14 O35 2.039610 1_455
Cr14 O33 2.039610 1_545
Cr14 O29 2.041071 1_555
Cr14 O26 2.041071 1_555
Cr14 O28 2.041071 1_555
Cr15 O35 2.037945 1_455
Cr15 O33 2.037945 1_545
Cr15 O38 2.038498 1_455
Cr15 O37 2.038498 1_545
Cr15 O36 2.040756 1_445
Cr15 O34 2.044020 1_555
Cr16 O35 2.037945 1_455
Cr16 O31 2.037945 1_554
Cr16 O37 2.038497 1_554
Cr16 O39 2.038498 1_455
Cr16 O36 2.040756 1_454
Cr16 O34 2.044020 1_555
Cr17 O33 2.037945 1_545
Cr17 O31 2.037945 1_554
Cr17 O38 2.038497 1_554
Cr17 O39 2.038498 1_545
Cr17 O36 2.040756 1_544
Cr17 O34 2.044020 1_555
