# generated using pymatgen
data_Li4FeP2O9
_symmetry_space_group_name_H-M   'P 1'
_cell_length_a   12.74617931
_cell_length_b   7.18514222
_cell_length_c   19.44492029
_cell_angle_alpha   90.00000000
_cell_angle_beta   97.04875839
_cell_angle_gamma   90.00000000
_symmetry_Int_Tables_number   1
_chemical_formula_structural   Li4FeP2O9
_chemical_formula_sum   'Li40 Fe10 P20 O90'
_cell_volume   1767.36695618
_cell_formula_units_Z   10
loop_
 _symmetry_equiv_pos_site_id
 _symmetry_equiv_pos_as_xyz
  1  'x, y, z'
loop_
 _atom_site_type_symbol
 _atom_site_label
 _atom_site_symmetry_multiplicity
 _atom_site_fract_x
 _atom_site_fract_y
 _atom_site_fract_z
 _atom_site_occupancy
  Li  Li0  1  0.09494670  0.52011277  0.94948869  1
  Li  Li1  1  0.09158682  0.27272622  0.83097520  1
  Li  Li2  1  0.10366840  0.01376483  0.70160141  1
  Li  Li3  1  0.10298039  0.79112771  0.56119358  1
  Li  Li4  1  0.09494670  0.47988723  0.44948869  1
  Li  Li5  1  0.09158682  0.72727378  0.33097520  1
  Li  Li6  1  0.10366840  0.98623517  0.20160141  1
  Li  Li7  1  0.10298039  0.20887229  0.06119358  1
  Li  Li8  1  0.28763139  0.79444262  0.97363886  1
  Li  Li9  1  0.30031635  0.95368728  0.83692401  1
  Li  Li10  1  0.30336276  0.54262181  0.84516404  1
  Li  Li11  1  0.30038065  0.96658945  0.64283493  1
  Li  Li12  1  0.28763139  0.20555738  0.47363886  1
  Li  Li13  1  0.30031635  0.04631272  0.33692401  1
  Li  Li14  1  0.30336276  0.45737819  0.34516404  1
  Li  Li15  1  0.30038065  0.03341055  0.14283493  1
  Li  Li16  1  0.51305167  0.25811083  0.86507054  1
  Li  Li17  1  0.50000000  0.58279326  0.75000000  1
  Li  Li18  1  0.48694833  0.25811083  0.63492946  1
  Li  Li19  1  0.50000000  0.00000000  0.50000000  1
  Li  Li20  1  0.51305167  0.74188917  0.36507054  1
  Li  Li21  1  0.50000000  0.41720674  0.25000000  1
  Li  Li22  1  0.48694833  0.74188917  0.13492946  1
  Li  Li23  1  0.50000000  0.00000000  0.00000000  1
  Li  Li24  1  0.69961935  0.96658945  0.85716507  1
  Li  Li25  1  0.69663724  0.54262181  0.65483596  1
  Li  Li26  1  0.69968365  0.95368728  0.66307599  1
  Li  Li27  1  0.71236861  0.79444262  0.52636114  1
  Li  Li28  1  0.69961935  0.03341055  0.35716507  1
  Li  Li29  1  0.69663724  0.45737819  0.15483596  1
  Li  Li30  1  0.69968365  0.04631272  0.16307599  1
  Li  Li31  1  0.71236861  0.20555738  0.02636114  1
  Li  Li32  1  0.89701961  0.79112771  0.93880642  1
  Li  Li33  1  0.89633160  0.01376483  0.79839859  1
  Li  Li34  1  0.90841318  0.27272622  0.66902480  1
  Li  Li35  1  0.90505330  0.52011277  0.55051131  1
  Li  Li36  1  0.89701961  0.20887229  0.43880642  1
  Li  Li37  1  0.89633160  0.98623517  0.29839859  1
  Li  Li38  1  0.90841318  0.72727378  0.16902480  1
  Li  Li39  1  0.90505330  0.47988723  0.05051131  1
  Fe  Fe0  1  0.10068494  0.53620362  0.69871464  1
  Fe  Fe1  1  0.10068494  0.46379638  0.19871464  1
  Fe  Fe2  1  0.29863062  0.52018682  0.59861330  1
  Fe  Fe3  1  0.29863062  0.47981318  0.09861330  1
  Fe  Fe4  1  0.50000000  0.50000000  0.50000000  1
  Fe  Fe5  1  0.50000000  0.50000000  0.00000000  1
  Fe  Fe6  1  0.70136938  0.52018682  0.90138670  1
  Fe  Fe7  1  0.70136938  0.47981318  0.40138670  1
  Fe  Fe8  1  0.89931506  0.53620362  0.80128536  1
  Fe  Fe9  1  0.89931506  0.46379638  0.30128536  1
  P  P0  1  0.10046031  0.80309343  0.83444079  1
  P  P1  1  0.09820634  0.24058458  0.56807172  1
  P  P2  1  0.10046031  0.19690657  0.33444079  1
  P  P3  1  0.09820634  0.75941542  0.06807172  1
  P  P4  1  0.29264405  0.25611736  0.95346333  1
  P  P5  1  0.30519870  0.27550852  0.74132598  1
  P  P6  1  0.29264405  0.74388264  0.45346333  1
  P  P7  1  0.30519870  0.72449148  0.24132598  1
  P  P8  1  0.50372395  0.79872863  0.87360077  1
  P  P9  1  0.49627605  0.79872863  0.62639923  1
  P  P10  1  0.50372395  0.20127137  0.37360077  1
  P  P11  1  0.49627605  0.20127137  0.12639923  1
  P  P12  1  0.69480130  0.27550852  0.75867402  1
  P  P13  1  0.70735595  0.25611736  0.54653667  1
  P  P14  1  0.69480130  0.72449148  0.25867402  1
  P  P15  1  0.70735595  0.74388264  0.04653667  1
  P  P16  1  0.90179366  0.24058458  0.93192828  1
  P  P17  1  0.89953969  0.80309343  0.66555921  1
  P  P18  1  0.90179366  0.75941542  0.43192828  1
  P  P19  1  0.89953969  0.19690657  0.16555921  1
  O  O0  1  0.01682642  0.67659085  0.86420455  1
  O  O1  1  0.00000000  0.42555449  0.75000000  1
  O  O2  1  -0.00004047  0.27058444  0.51552227  1
  O  O3  1  0.06346426  0.00684409  0.82801426  1
  O  O4  1  0.01682642  0.32340915  0.36420455  1
  O  O5  1  0.00000000  0.57444551  0.25000000  1
  O  O6  1  0.07159346  0.31807108  0.64014414  1
  O  O7  1  0.11500882  0.75535000  0.75677618  1
  O  O8  1  -0.00004047  0.72941556  0.01552227  1
  O  O9  1  0.06346426  0.99315591  0.32801426  1
  O  O10  1  0.13871607  0.04208129  0.58577790  1
  O  O11  1  0.20622375  0.76571887  0.87926153  1
  O  O12  1  0.07159346  0.68192892  0.14014414  1
  O  O13  1  0.19499119  0.33227386  0.90810407  1
  O  O14  1  0.11500882  0.24465000  0.25677618  1
  O  O15  1  0.21357668  0.40298473  0.76197770  1
  O  O16  1  0.19308979  0.63941565  0.64207954  1
  O  O17  1  0.18782820  0.35684958  0.53818392  1
  O  O18  1  0.13871607  0.95791871  0.08577790  1
  O  O19  1  0.20622375  0.23428113  0.37926153  1
  O  O20  1  0.19499119  0.66772614  0.40810407  1
  O  O21  1  0.26880200  0.07014116  0.74196950  1
  O  O22  1  0.21357668  0.59701527  0.26197770  1
  O  O23  1  0.19308979  0.36058435  0.14207954  1
  O  O24  1  0.32420361  0.05324256  0.94171581  1
  O  O25  1  0.18782820  0.64315042  0.03818392  1
  O  O26  1  0.27396213  0.72742289  0.53171199  1
  O  O27  1  0.32722136  0.31353842  0.66491630  1
  O  O28  1  0.26880200  0.92985884  0.24196950  1
  O  O29  1  0.38567620  0.38623274  0.93550473  1
  O  O30  1  0.32420361  0.94675744  0.44171581  1
  O  O31  1  0.40284249  0.32724557  0.79153248  1
  O  O32  1  0.27396213  0.27257711  0.03171199  1
  O  O33  1  0.40391107  0.76661934  0.82252343  1
  O  O34  1  0.32722136  0.68646158  0.16491630  1
  O  O35  1  0.40941592  0.67535778  0.65494324  1
  O  O36  1  0.39964695  0.39897541  0.55265116  1
  O  O37  1  0.38567620  0.61376726  0.43550473  1
  O  O38  1  0.48123661  0.74087404  0.94864585  1
  O  O39  1  0.40284249  0.67275443  0.29153248  1
  O  O40  1  0.40391107  0.23338066  0.32252343  1
  O  O41  1  0.45409320  0.99937369  0.61739310  1
  O  O42  1  0.40941592  0.32464222  0.15494324  1
  O  O43  1  0.39964695  0.60102459  0.05265116  1
  O  O44  1  0.54590680  0.99937369  0.88260690  1
  O  O45  1  0.48123661  0.25912596  0.44864585  1
  O  O46  1  0.51876339  0.74087404  0.55135415  1
  O  O47  1  0.45409320  0.00062631  0.11739310  1
  O  O48  1  0.60035305  0.39897541  0.94734884  1
  O  O49  1  0.59058408  0.67535778  0.84505676  1
  O  O50  1  0.54590680  0.00062631  0.38260690  1
  O  O51  1  0.59608893  0.76661934  0.67747657  1
  O  O52  1  0.59715751  0.32724557  0.70846752  1
  O  O53  1  0.51876339  0.25912596  0.05135415  1
  O  O54  1  0.61432380  0.38623274  0.56449527  1
  O  O55  1  0.60035305  0.60102459  0.44734884  1
  O  O56  1  0.59058408  0.32464222  0.34505676  1
  O  O57  1  0.67277864  0.31353842  0.83508370  1
  O  O58  1  0.59608893  0.23338066  0.17747657  1
  O  O59  1  0.72603787  0.72742289  0.96828801  1
  O  O60  1  0.59715751  0.67275443  0.20846752  1
  O  O61  1  0.67579639  0.05324256  0.55828419  1
  O  O62  1  0.61432380  0.61376726  0.06449527  1
  O  O63  1  0.73119800  0.07014116  0.75803050  1
  O  O64  1  0.67277864  0.68646158  0.33508370  1
  O  O65  1  0.72603787  0.27257711  0.46828801  1
  O  O66  1  0.81217180  0.35684958  0.96181608  1
  O  O67  1  0.67579639  0.94675744  0.05828419  1
  O  O68  1  0.80691021  0.63941565  0.85792046  1
  O  O69  1  0.78642332  0.40298473  0.73802230  1
  O  O70  1  0.73119800  0.92985884  0.25803050  1
  O  O71  1  0.80500881  0.33227386  0.59189593  1
  O  O72  1  0.79377625  0.76571887  0.62073847  1
  O  O73  1  0.86128393  0.04208129  0.91422210  1
  O  O74  1  0.81217180  0.64315042  0.46181608  1
  O  O75  1  0.80691021  0.36058435  0.35792046  1
  O  O76  1  0.78642332  0.59701527  0.23802230  1
  O  O77  1  0.88499118  0.75535000  0.74322382  1
  O  O78  1  0.80500881  0.66772614  0.09189593  1
  O  O79  1  0.92840654  0.31807108  0.85985586  1
  O  O80  1  0.79377625  0.23428113  0.12073847  1
  O  O81  1  0.86128393  0.95791871  0.41422210  1
  O  O82  1  0.93653574  0.00684409  0.67198574  1
  O  O83  1  0.00004047  0.27058444  0.98447773  1
  O  O84  1  0.88499118  0.24465000  0.24322382  1
  O  O85  1  0.92840654  0.68192892  0.35985586  1
  O  O86  1  0.98317358  0.67659085  0.63579545  1
  O  O87  1  0.93653574  0.99315591  0.17198574  1
  O  O88  1  0.00004047  0.72941556  0.48447773  1
  O  O89  1  0.98317358  0.32340915  0.13579545  1
loop_
_geom_bond_atom_site_label_1
_geom_bond_atom_site_label_2
_geom_bond_distance
_geom_bond_site_symmetry_2
Li0 O13 2.084964 1_555
Li0 O0 2.144857 1_555
Li0 O25 2.157890 1_556
Li0 O83 2.311431 1_555
Li0 O8 2.399525 1_556
Li1 O13 1.919471 1_555
Li1 O3 1.943289 1_555
Li1 O1 2.143990 1_555
Li1 O79 2.243722 1_455
Li1 O15 2.367638 1_555
Li2 O82 2.138038 1_455
Li2 O7 2.140418 1_545
Li2 O21 2.192036 1_555
Li2 O10 2.358006 1_555
Li2 O6 2.501209 1_555
Li2 O3 2.572241 1_555
Li3 O10 1.906269 1_565
Li3 O88 1.913920 1_555
Li3 O16 2.130220 1_555
Li3 O26 2.365249 1_555
Li3 O86 2.378495 1_455
Li4 O20 2.084964 1_555
Li4 O4 2.144857 1_555
Li4 O17 2.157890 1_555
Li4 O88 2.311431 1_555
Li4 O2 2.399525 1_555
Li5 O20 1.919471 1_555
Li5 O9 1.943289 1_555
Li5 O5 2.143990 1_555
Li5 O85 2.243722 1_455
Li5 O22 2.367638 1_555
Li6 O87 2.138038 1_455
Li6 O14 2.140418 1_565
Li6 O28 2.192036 1_555
Li6 O18 2.358006 1_555
Li6 O12 2.501209 1_555
Li6 O9 2.572241 1_555
Li7 O18 1.906269 1_545
Li7 O83 1.913920 1_554
Li7 O23 2.130220 1_555
Li7 O32 2.365249 1_555
Li7 O89 2.378495 1_455
Li8 O11 2.004930 1_555
Li8 O24 2.032593 1_565
Li8 O25 2.183348 1_556
Li8 O43 2.406659 1_556
Li8 O38 2.601604 1_555
Li9 O33 1.928559 1_555
Li9 O21 2.022025 1_565
Li9 O11 2.045116 1_555
Li9 O24 2.145742 1_565
Li10 O15 2.116246 1_555
Li10 O33 2.136621 1_555
Li10 O11 2.177993 1_555
Li10 O29 2.235392 1_555
Li10 O31 2.326945 1_555
Li10 O13 2.470845 1_555
Li11 O41 2.092073 1_555
Li11 O21 2.149864 1_565
Li11 O10 2.282574 1_565
Li11 O35 2.507060 1_555
Li11 O27 2.545543 1_565
Li12 O19 2.004930 1_555
Li12 O30 2.032593 1_545
Li12 O17 2.183348 1_555
Li12 O36 2.406659 1_555
Li12 O45 2.601604 1_555
Li13 O40 1.928559 1_555
Li13 O28 2.022025 1_545
Li13 O19 2.045116 1_555
Li13 O30 2.145742 1_545
Li14 O22 2.116246 1_555
Li14 O40 2.136621 1_555
Li14 O19 2.177993 1_555
Li14 O37 2.235392 1_555
Li14 O39 2.326945 1_555
Li14 O20 2.470845 1_555
Li15 O47 2.092073 1_555
Li15 O28 2.149864 1_545
Li15 O18 2.282574 1_545
Li15 O42 2.507060 1_555
Li15 O34 2.545543 1_545
Li16 O44 1.926842 1_545
Li16 O31 1.942114 1_555
Li16 O48 2.094128 1_555
Li16 O57 2.221459 1_555
Li16 O29 2.429995 1_555
Li17 O49 2.160590 1_555
Li17 O35 2.160590 1_555
Li17 O51 2.378488 1_555
Li17 O33 2.378488 1_555
Li17 O52 2.408880 1_555
Li17 O31 2.408880 1_555
Li18 O41 1.926842 1_545
Li18 O52 1.942114 1_555
Li18 O36 2.094128 1_555
Li18 O27 2.221459 1_555
Li18 O54 2.429995 1_555
Li19 O45 2.112404 1_555
Li19 O46 2.112404 1_545
Li19 O61 2.414210 1_555
Li19 O30 2.414210 1_545
Li19 O50 2.425064 1_555
Li19 O41 2.425064 1_545
Li20 O50 1.926842 1_565
Li20 O39 1.942114 1_555
Li20 O55 2.094128 1_555
Li20 O64 2.221459 1_555
Li20 O37 2.429995 1_555
Li21 O42 2.160590 1_555
Li21 O56 2.160590 1_555
Li21 O58 2.378488 1_555
Li21 O40 2.378488 1_555
Li21 O39 2.408880 1_555
Li21 O60 2.408880 1_555
Li22 O47 1.926842 1_565
Li22 O60 1.942114 1_555
Li22 O43 2.094128 1_555
Li22 O34 2.221459 1_555
Li22 O62 2.429995 1_555
Li23 O38 2.112404 1_544
Li23 O53 2.112404 1_555
Li23 O24 2.414210 1_554
Li23 O67 2.414210 1_545
Li23 O47 2.425064 1_555
Li23 O44 2.425064 1_544
Li24 O44 2.092073 1_555
Li24 O63 2.149864 1_565
Li24 O73 2.282574 1_565
Li24 O49 2.507060 1_555
Li24 O57 2.545543 1_565
Li25 O69 2.116246 1_555
Li25 O51 2.136621 1_555
Li25 O72 2.177993 1_555
Li25 O54 2.235392 1_555
Li25 O52 2.326945 1_555
Li25 O71 2.470845 1_555
Li26 O51 1.928559 1_555
Li26 O63 2.022025 1_565
Li26 O72 2.045116 1_555
Li26 O61 2.145742 1_565
Li27 O72 2.004930 1_555
Li27 O61 2.032593 1_565
Li27 O74 2.183348 1_555
Li27 O55 2.406659 1_555
Li27 O46 2.601604 1_555
Li28 O50 2.092073 1_555
Li28 O70 2.149864 1_545
Li28 O81 2.282574 1_545
Li28 O56 2.507060 1_555
Li28 O64 2.545543 1_545
Li29 O76 2.116246 1_555
Li29 O58 2.136621 1_555
Li29 O80 2.177993 1_555
Li29 O62 2.235392 1_555
Li29 O60 2.326945 1_555
Li29 O78 2.470845 1_555
Li30 O58 1.928559 1_555
Li30 O70 2.022025 1_545
Li30 O80 2.045116 1_555
Li30 O67 2.145742 1_545
Li31 O80 2.004930 1_555
Li31 O67 2.032593 1_545
Li31 O66 2.183348 1_554
Li31 O48 2.406659 1_554
Li31 O53 2.601604 1_555
Li32 O73 1.906269 1_565
Li32 O8 1.913920 1_656
Li32 O68 2.130220 1_555
Li32 O59 2.365249 1_555
Li32 O0 2.378495 1_655
Li33 O3 2.138038 1_655
Li33 O77 2.140418 1_545
Li33 O63 2.192036 1_555
Li33 O73 2.358006 1_555
Li33 O79 2.501209 1_555
Li33 O82 2.572241 1_555
Li34 O71 1.919471 1_555
Li34 O82 1.943289 1_555
Li34 O1 2.143990 1_655
Li34 O6 2.243722 1_655
Li34 O69 2.367638 1_555
Li35 O71 2.084964 1_555
Li35 O86 2.144857 1_555
Li35 O74 2.157890 1_555
Li35 O2 2.311431 1_655
Li35 O88 2.399525 1_655
Li36 O81 1.906269 1_545
Li36 O2 1.913920 1_655
Li36 O75 2.130220 1_555
Li36 O65 2.365249 1_555
Li36 O4 2.378495 1_655
Li37 O9 2.138038 1_655
Li37 O84 2.140418 1_565
Li37 O70 2.192036 1_555
Li37 O81 2.358006 1_555
Li37 O85 2.501209 1_555
Li37 O87 2.572241 1_555
Li38 O78 1.919471 1_555
Li38 O87 1.943289 1_555
Li38 O5 2.143990 1_655
Li38 O12 2.243722 1_655
Li38 O76 2.367638 1_555
Li39 O78 2.084964 1_555
Li39 O89 2.144857 1_555
Li39 O66 2.157890 1_554
Li39 O8 2.311431 1_655
Li39 O83 2.399525 1_654
Fe0 O16 1.862342 1_555
Fe0 O1 1.894107 1_555
Fe0 O7 1.933067 1_555
Fe0 O6 1.946127 1_555
Fe0 O15 2.016332 1_555
Fe0 O86 2.075583 1_455
Fe1 O23 1.862342 1_555
Fe1 O5 1.894107 1_555
Fe1 O14 1.933067 1_555
Fe1 O12 1.946127 1_555
Fe1 O22 2.016332 1_555
Fe1 O89 2.075583 1_455
Fe2 O36 1.870167 1_555
Fe2 O16 1.880686 1_555
Fe2 O27 1.970863 1_555
Fe2 O26 1.976860 1_555
Fe2 O35 2.014249 1_555
Fe2 O17 2.084560 1_555
Fe3 O43 1.870167 1_555
Fe3 O23 1.880686 1_555
Fe3 O34 1.970863 1_555
Fe3 O32 1.976860 1_555
Fe3 O42 2.014249 1_555
Fe3 O25 2.084560 1_555
Fe4 O55 1.879522 1_555
Fe4 O36 1.879522 1_555
Fe4 O54 1.978857 1_555
Fe4 O37 1.978857 1_555
Fe4 O46 1.997777 1_555
Fe4 O45 1.997777 1_555
Fe5 O43 1.879522 1_555
Fe5 O48 1.879522 1_554
Fe5 O29 1.978857 1_554
Fe5 O62 1.978857 1_555
Fe5 O38 1.997777 1_554
Fe5 O53 1.997777 1_555
Fe6 O48 1.870167 1_555
Fe6 O68 1.880686 1_555
Fe6 O57 1.970863 1_555
Fe6 O59 1.976860 1_555
Fe6 O49 2.014249 1_555
Fe6 O66 2.084560 1_555
Fe7 O55 1.870167 1_555
Fe7 O75 1.880686 1_555
Fe7 O64 1.970863 1_555
Fe7 O65 1.976860 1_555
Fe7 O56 2.014249 1_555
Fe7 O74 2.084560 1_555
Fe8 O68 1.862342 1_555
Fe8 O1 1.894107 1_655
Fe8 O77 1.933067 1_555
Fe8 O79 1.946127 1_555
Fe8 O69 2.016332 1_555
Fe8 O0 2.075583 1_655
Fe9 O75 1.862342 1_555
Fe9 O5 1.894107 1_655
Fe9 O84 1.933067 1_555
Fe9 O85 1.946127 1_555
Fe9 O76 2.016332 1_555
Fe9 O4 2.075583 1_655
O0 P0 1.564905 1_555
O2 P1 1.531246 1_555
O3 P0 1.538425 1_545
O4 P2 1.564905 1_555
O6 P1 1.582957 1_555
O7 P0 1.581596 1_555
O8 P3 1.531246 1_555
O9 P2 1.538425 1_565
O10 P1 1.541356 1_555
O11 P0 1.536442 1_555
O12 P3 1.582957 1_555
O13 P4 1.535318 1_555
O14 P2 1.581596 1_555
O15 P5 1.574523 1_555
O17 P1 1.582240 1_555
O18 P3 1.541356 1_555
O19 P2 1.536442 1_555
O20 P6 1.535318 1_555
O21 P5 1.547313 1_555
O22 P7 1.574523 1_555
O24 P4 1.536682 1_555
O25 P3 1.582240 1_555
O26 P6 1.573115 1_555
O27 P5 1.569510 1_555
O28 P7 1.547313 1_555
O29 P4 1.582320 1_555
O30 P6 1.536682 1_555
O31 P5 1.530380 1_555
O32 P4 1.573115 1_554
O33 P8 1.532359 1_555
O34 P7 1.569510 1_555
O35 P9 1.571750 1_555
O37 P6 1.582320 1_555
O38 P8 1.577025 1_555
O39 P7 1.530380 1_555
O40 P10 1.532359 1_555
O41 P9 1.541117 1_555
O42 P11 1.571750 1_555
O44 P8 1.541117 1_555
O45 P10 1.577025 1_555
O46 P9 1.577025 1_555
O47 P11 1.541117 1_555
O49 P8 1.571750 1_555
O50 P10 1.541117 1_555
O51 P9 1.532359 1_555
O52 P12 1.530380 1_555
O53 P11 1.577025 1_555
O54 P13 1.582320 1_555
O56 P10 1.571750 1_555
O57 P12 1.569510 1_555
O58 P11 1.532359 1_555
O59 P15 1.573115 1_556
O60 P14 1.530380 1_555
O61 P13 1.536682 1_555
O62 P15 1.582320 1_555
O63 P12 1.547313 1_555
O64 P14 1.569510 1_555
O65 P13 1.573115 1_555
O66 P16 1.582240 1_555
O67 P15 1.536682 1_555
O69 P12 1.574523 1_555
O70 P14 1.547313 1_555
O71 P13 1.535318 1_555
O72 P17 1.536442 1_555
O73 P16 1.541356 1_555
O74 P18 1.582240 1_555
O76 P14 1.574523 1_555
O77 P17 1.581596 1_555
O78 P15 1.535318 1_555
O79 P16 1.582957 1_555
O80 P19 1.536442 1_555
O81 P18 1.541356 1_555
O82 P17 1.538425 1_545
O83 P16 1.531246 1_455
O84 P19 1.581596 1_555
O85 P18 1.582957 1_555
O86 P17 1.564905 1_555
O87 P19 1.538425 1_565
O88 P18 1.531246 1_455
O89 P19 1.564905 1_555
