# generated using pymatgen
data_LiLa8V8O32
_symmetry_space_group_name_H-M   'P 1'
_cell_length_a   7.19310200
_cell_length_b   7.37184796
_cell_length_c   13.65144746
_cell_angle_alpha   90.45824085
_cell_angle_beta   104.37840044
_cell_angle_gamma   91.84071336
_symmetry_Int_Tables_number   1
_chemical_formula_structural   LiLa8V8O32
_chemical_formula_sum   'Li1 La8 V8 O32'
_cell_volume   700.75616782
_cell_formula_units_Z   1
loop_
 _symmetry_equiv_pos_site_id
 _symmetry_equiv_pos_as_xyz
  1  'x, y, z'
loop_
 _atom_site_type_symbol
 _atom_site_label
 _atom_site_symmetry_multiplicity
 _atom_site_fract_x
 _atom_site_fract_y
 _atom_site_fract_z
 _atom_site_occupancy
  Li  Li0  1  0.00527300  0.30207400  0.86240300  1
  La  La0  1  0.48281300  0.34553500  0.70361000  1
  La  La1  1  0.27264400  0.84459700  0.54812700  1
  La  La2  1  0.97844000  0.34498400  0.19832700  1
  La  La3  1  0.77802500  0.83891200  0.04943600  1
  La  La4  1  0.27401200  0.11884600  0.97248700  1
  La  La5  1  0.01053900  0.67336600  0.79644100  1
  La  La6  1  0.73573200  0.15502500  0.45211000  1
  La  La7  1  0.52049000  0.65394500  0.30023600  1
  V  V0  1  0.72651700  0.33822000  0.94655900  1
  V  V1  1  0.51073900  0.83400600  0.80522700  1
  V  V2  1  0.24735100  0.33399900  0.44273900  1
  V  V3  1  0.00807100  0.83658600  0.30657500  1
  V  V4  1  0.99478500  0.16460600  0.68908300  1
  V  V5  1  0.75700000  0.66770400  0.55569100  1
  V  V6  1  0.50717200  0.16348200  0.20328900  1
  V  V7  1  0.25211000  0.64597900  0.05477500  1
  O  O0  1  0.78697800  0.41843800  0.82922000  1
  O  O1  1  0.75058100  0.78969200  0.86099800  1
  O  O2  1  0.32181200  0.39726900  0.33629600  1
  O  O3  1  0.38917600  0.15531100  0.49884700  1
  O  O4  1  0.46535900  0.00035300  0.71197700  1
  O  O5  1  0.24476100  0.77951000  0.36234200  1
  O  O6  1  0.48469300  0.26947800  0.88341100  1
  O  O7  1  0.28691500  0.50306100  0.53745700  1
  O  O8  1  0.36625200  0.65198500  0.74703100  1
  O  O9  1  0.43951200  0.87850600  0.91605200  1
  O  O10  1  0.90521000  0.16429000  0.99050400  1
  O  O11  1  0.97088200  0.00165500  0.21171900  1
  O  O12  1  0.00676700  0.27839900  0.38637100  1
  O  O13  1  0.07609900  0.10511700  0.58502700  1
  O  O14  1  0.78793500  0.50707000  0.04832900  1
  O  O15  1  0.11719000  0.36129200  0.74384600  1
  O  O16  1  0.85993000  0.65532000  0.24825200  1
  O  O17  1  0.19745500  0.47640300  0.95838400  1
  O  O18  1  0.93157700  0.89542900  0.41285500  1
  O  O19  1  0.99697300  0.72928700  0.61502800  1
  O  O20  1  0.03828500  0.01650100  0.79347700  1
  O  O21  1  0.11298000  0.82769900  0.99927600  1
  O  O22  1  0.58767600  0.10324600  0.09703400  1
  O  O23  1  0.64842200  0.34859800  0.25938100  1
  O  O24  1  0.71569100  0.49757800  0.46198600  1
  O  O25  1  0.48931300  0.71328900  0.11006700  1
  O  O26  1  0.75590300  0.21063200  0.63431100  1
  O  O27  1  0.54180700  0.99642000  0.29488100  1
  O  O28  1  0.61254600  0.84392900  0.50074000  1
  O  O29  1  0.68214300  0.60516100  0.66162100  1
  O  O30  1  0.27005900  0.21007900  0.14488500  1
  O  O31  1  0.18436100  0.59384600  0.16432200  1
loop_
_geom_bond_atom_site_label_1
_geom_bond_atom_site_label_2
_geom_bond_distance
_geom_bond_site_symmetry_2
Li0 O0 1.773731 1_455
Li0 O15 2.023345 1_555
Li0 O17 2.058816 1_555
Li0 O10 2.283529 1_455
Li0 O20 2.342012 1_555
La0 O0 2.462220 1_555
La0 O29 2.509362 1_555
La0 O6 2.518997 1_555
La0 O4 2.548567 1_555
La0 O8 2.550485 1_555
La0 O26 2.603094 1_555
La0 O7 2.653083 1_555
La0 O15 2.822759 1_555
La0 O3 3.029097 1_555
La1 O19 2.508439 1_455
La1 O7 2.527645 1_555
La1 O5 2.534689 1_555
La1 O13 2.540377 1_565
La1 O4 2.561236 1_565
La1 O3 2.565762 1_565
La1 O28 2.680024 1_555
La1 O18 2.718358 1_455
La1 O8 3.009580 1_555
La2 O31 2.440428 1_655
La2 O14 2.499853 1_555
La2 O11 2.538835 1_555
La2 O12 2.576649 1_655
La2 O30 2.608422 1_655
La2 O16 2.610341 1_555
La2 O23 2.704981 1_555
La2 O2 2.722739 1_655
La2 O10 3.041896 1_554
La2 O22 3.270613 1_555
La3 O14 2.449650 1_555
La3 O1 2.552722 1_554
La3 O11 2.568261 1_565
La3 O25 2.568645 1_555
La3 O22 2.585941 1_565
La3 O21 2.666841 1_654
La3 O9 2.679919 1_554
La3 O10 2.737350 1_564
La3 O16 2.976765 1_555
La4 O9 2.391444 1_545
La4 O6 2.416004 1_555
La4 O30 2.449727 1_556
La4 O22 2.471673 1_556
La4 O21 2.478960 1_545
La4 Li0 2.564580 1_555
La4 O20 2.691951 1_555
La4 O17 2.708646 1_555
La4 O10 2.755007 1_455
La5 O1 2.432688 1_455
La5 O19 2.492319 1_455
La5 O20 2.532440 1_565
La5 O0 2.548458 1_455
La5 O15 2.599451 1_555
La5 O29 2.640038 1_455
La5 O17 2.739328 1_555
La5 O8 2.812121 1_555
La5 O21 2.896047 1_555
La6 O26 2.485241 1_555
La6 O12 2.490287 1_655
La6 O27 2.507587 1_545
La6 O24 2.538392 1_555
La6 O18 2.542770 1_545
La6 O28 2.582886 1_545
La6 O13 2.698917 1_655
La6 O3 2.722394 1_555
La6 O23 2.941092 1_555
La7 O2 2.460813 1_555
La7 O27 2.527149 1_555
La7 O5 2.539654 1_555
La7 O23 2.567615 1_555
La7 O25 2.591648 1_555
La7 O24 2.604019 1_555
La7 O31 2.678567 1_555
La7 O16 2.706351 1_555
La7 O28 2.978423 1_555
O0 V0 1.857249 1_555
O1 V1 1.746585 1_555
O2 V2 1.731257 1_555
O3 V2 1.754132 1_555
O4 V1 1.753613 1_545
O5 V3 1.750045 1_555
O6 V0 1.793693 1_555
O7 V2 1.753533 1_555
O8 V1 1.730642 1_555
O9 V1 1.745529 1_555
O10 V0 1.841534 1_555
O11 V3 1.761595 1_645
O12 V2 1.744402 1_555
O13 V4 1.723790 1_455
O14 V0 1.818488 1_554
O15 V4 1.734989 1_455
O16 V3 1.739298 1_655
O17 V7 1.770310 1_556
O18 V3 1.731389 1_655
O19 V5 1.758178 1_555
O20 V4 1.773784 1_455
O21 V7 1.759523 1_556
O22 V6 1.749269 1_555
O23 V6 1.728797 1_555
O24 V5 1.749046 1_555
O25 V7 1.739873 1_555
O26 V4 1.740742 1_555
O27 V6 1.741217 1_565
O28 V5 1.745069 1_555
O29 V5 1.724860 1_555
O30 V6 1.740496 1_555
O31 V7 1.726483 1_555
