# generated using pymatgen
data_Ti3FeNi2(PO4)6
_symmetry_space_group_name_H-M   'P 1'
_cell_length_a   8.49322578
_cell_length_b   8.49322578
_cell_length_c   8.49322625
_cell_angle_alpha   61.11989442
_cell_angle_beta   61.11989442
_cell_angle_gamma   61.11989115
_symmetry_Int_Tables_number   1
_chemical_formula_structural   Ti3FeNi2(PO4)6
_chemical_formula_sum   'Ti3 Fe1 Ni2 P6 O24'
_cell_volume   444.13368300
_cell_formula_units_Z   1
loop_
 _symmetry_equiv_pos_site_id
 _symmetry_equiv_pos_as_xyz
  1  'x, y, z'
loop_
 _atom_site_type_symbol
 _atom_site_label
 _atom_site_symmetry_multiplicity
 _atom_site_fract_x
 _atom_site_fract_y
 _atom_site_fract_z
 _atom_site_occupancy
  Ti  Ti0  1  0.14293800  0.14293800  0.14293800  1
  Ti  Ti1  1  0.35502000  0.35502000  0.35502000  1
  Ti  Ti2  1  0.64603300  0.64603300  0.64603300  1
  Fe  Fe0  1  0.85697000  0.85697000  0.85697000  1
  Ni  Ni0  1  0.99676000  0.99676000  0.99676000  1
  Ni  Ni1  1  0.49922900  0.49922900  0.49922900  1
  P  P0  1  0.95388500  0.54408700  0.25232600  1
  P  P1  1  0.25232600  0.95388500  0.54408700  1
  P  P2  1  0.54408700  0.25232600  0.95388500  1
  P  P3  1  0.45335900  0.75268900  0.04792500  1
  P  P4  1  0.75268900  0.04792500  0.45335900  1
  P  P5  1  0.04792500  0.45335900  0.75268900  1
  O  O0  1  0.48501300  0.33005300  0.11293300  1
  O  O1  1  0.11293300  0.48501300  0.33005300  1
  O  O2  1  0.25311000  0.91025200  0.05768800  1
  O  O3  1  0.33005300  0.11293300  0.48501300  1
  O  O4  1  0.60264500  0.81860700  0.01665600  1
  O  O5  1  0.43185600  0.58803800  0.24449400  1
  O  O6  1  0.91025200  0.05768800  0.25311000  1
  O  O7  1  0.58803800  0.24449400  0.43185600  1
  O  O8  1  0.00230000  0.38009500  0.18500800  1
  O  O9  1  0.24449400  0.43185600  0.58803800  1
  O  O10  1  0.94956600  0.73715500  0.09912600  1
  O  O11  1  0.18500800  0.00230000  0.38009500  1
  O  O12  1  0.81860700  0.01665600  0.60264500  1
  O  O13  1  0.05768800  0.25311000  0.91025200  1
  O  O14  1  0.75743200  0.55210700  0.41428700  1
  O  O15  1  0.01665600  0.60264500  0.81860700  1
  O  O16  1  0.41428700  0.75743200  0.55210700  1
  O  O17  1  0.09912600  0.94956600  0.73715500  1
  O  O18  1  0.55210700  0.41428700  0.75743200  1
  O  O19  1  0.38009500  0.18500800  0.00230000  1
  O  O20  1  0.68541100  0.88199100  0.50295700  1
  O  O21  1  0.73715500  0.09912600  0.94956600  1
  O  O22  1  0.88199100  0.50295700  0.68541100  1
  O  O23  1  0.50295700  0.68541100  0.88199100  1
loop_
_geom_bond_atom_site_label_1
_geom_bond_atom_site_label_2
_geom_bond_distance
_geom_bond_site_symmetry_2
Fe0 O15 2.008608 1_655
Fe0 O4 2.008608 1_556
Fe0 O12 2.008608 1_565
Fe0 O21 2.156771 1_565
Fe0 O17 2.156771 1_655
Fe0 O10 2.156772 1_556
Ni0 O21 2.107944 1_565
Ni0 O10 2.107944 1_556
Ni0 O17 2.107945 1_655
Ni0 O2 2.173430 1_656
Ni0 O13 2.173431 1_665
Ni0 O6 2.173431 1_566
Ni1 O16 2.154405 1_555
Ni1 O14 2.154405 1_555
Ni1 O18 2.154405 1_555
Ni1 O7 2.186273 1_555
Ni1 O9 2.186273 1_555
Ni1 O5 2.186273 1_555
O0 P2 1.548888 1_554
O0 Ti1 1.869142 1_555
O1 P0 1.548888 1_455
O1 Ti1 1.869141 1_555
O2 P3 1.569313 1_555
O2 Ti0 2.060797 1_565
O3 P1 1.548888 1_545
O3 Ti1 1.869141 1_555
O4 P3 1.486066 1_555
O5 P3 1.572630 1_555
O5 Ti1 2.021152 1_555
O6 P4 1.569313 1_555
O6 Ti0 2.060797 1_655
O7 P4 1.572630 1_555
O7 Ti1 2.021152 1_555
O8 P0 1.557188 1_455
O8 Ti0 1.889564 1_555
O9 P5 1.572630 1_555
O9 Ti1 2.021152 1_555
O10 P0 1.519949 1_555
O11 P1 1.557188 1_545
O11 Ti0 1.889564 1_555
O12 P4 1.486066 1_555
O13 P5 1.569313 1_555
O13 Ti0 2.060797 1_556
O14 P0 1.563485 1_555
O14 Ti2 2.096288 1_555
O15 P5 1.486066 1_555
O16 P1 1.563485 1_555
O16 Ti2 2.096288 1_555
O17 P1 1.519949 1_555
O18 P2 1.563485 1_555
O18 Ti2 2.096288 1_555
O19 P2 1.557188 1_554
O19 Ti0 1.889564 1_555
O20 P4 1.569087 1_565
O20 Ti2 1.872750 1_555
O21 P2 1.519949 1_555
O22 P5 1.569087 1_655
O22 Ti2 1.872750 1_555
O23 P3 1.569087 1_556
O23 Ti2 1.872750 1_555
