# generated using pymatgen
data_Li4Fe2Co3Ni3O16
_symmetry_space_group_name_H-M   'P 1'
_cell_length_a   5.77808265
_cell_length_b   5.77808265
_cell_length_c   9.41408513
_cell_angle_alpha   88.59936415
_cell_angle_beta   88.59936415
_cell_angle_gamma   59.05024912
_symmetry_Int_Tables_number   1
_chemical_formula_structural   Li4Fe2Co3Ni3O16
_chemical_formula_sum   'Li4 Fe2 Co3 Ni3 O16'
_cell_volume   269.44394242
_cell_formula_units_Z   1
loop_
 _symmetry_equiv_pos_site_id
 _symmetry_equiv_pos_as_xyz
  1  'x, y, z'
loop_
 _atom_site_type_symbol
 _atom_site_label
 _atom_site_symmetry_multiplicity
 _atom_site_fract_x
 _atom_site_fract_y
 _atom_site_fract_z
 _atom_site_occupancy
  Li  Li0  1  0.66194100  0.66194100  0.10525300  1
  Li  Li1  1  0.99794800  0.99794800  0.00424800  1
  Li  Li2  1  0.00355700  0.00355700  0.50184500  1
  Li  Li3  1  0.33364600  0.33364600  0.60489000  1
  Fe  Fe0  1  0.67264800  0.67264800  0.50773700  1
  Fe  Fe1  1  0.33158900  0.33158900  0.01398500  1
  Co  Co0  1  0.33591500  0.82940100  0.78699200  1
  Co  Co1  1  0.82940100  0.33591500  0.78699200  1
  Co  Co2  1  0.16989600  0.16989600  0.28707300  1
  Ni  Ni0  1  0.82915100  0.82915100  0.78623700  1
  Ni  Ni1  1  0.16952100  0.66164800  0.28532700  1
  Ni  Ni2  1  0.66164800  0.16952100  0.28532700  1
  O  O0  1  0.33128500  0.85262900  0.39870300  1
  O  O1  1  0.51872400  0.51872400  0.67081400  1
  O  O2  1  0.66024800  0.66024800  0.89151500  1
  O  O3  1  0.00255000  0.00255000  0.69067400  1
  O  O4  1  0.00451500  0.00451500  0.19370900  1
  O  O5  1  0.85262900  0.33128500  0.39870300  1
  O  O6  1  0.51012800  0.96198100  0.66786900  1
  O  O7  1  0.96198100  0.51012800  0.66786900  1
  O  O8  1  0.15771600  0.15771600  0.89049800  1
  O  O9  1  0.84334100  0.84334100  0.39998300  1
  O  O10  1  0.03115300  0.46805300  0.16097000  1
  O  O11  1  0.46805300  0.03115300  0.16097000  1
  O  O12  1  0.33107500  0.33107500  0.38800600  1
  O  O13  1  0.16885400  0.67458700  0.89570000  1
  O  O14  1  0.47924000  0.47924000  0.16421900  1
  O  O15  1  0.67458700  0.16885400  0.89570000  1
loop_
_geom_bond_atom_site_label_1
_geom_bond_atom_site_label_2
_geom_bond_distance
_geom_bond_site_symmetry_2
Li0 O14 1.904195 1_555
Li0 O11 1.910246 1_565
Li0 O10 1.910246 1_655
Li0 O2 2.012698 1_554
Li1 O4 1.786677 1_665
Li1 O8 1.905532 1_664
Li1 O15 1.912218 1_564
Li1 O13 1.912218 1_654
Li2 O3 1.777397 1_555
Li2 O0 1.882055 1_545
Li2 O5 1.882055 1_455
Li2 O9 1.897850 1_445
Li3 O6 1.928220 1_545
Li3 O7 1.928220 1_455
Li3 O1 1.978270 1_555
Li3 O12 2.042654 1_555
Fe0 O9 1.969067 1_555
Fe0 O0 1.990609 1_555
Fe0 O5 1.990609 1_555
Fe0 O6 2.094873 1_555
Fe0 O7 2.094873 1_555
Fe0 O1 2.149192 1_555
Fe1 O11 2.019393 1_555
Fe1 O10 2.019393 1_555
Fe1 O15 2.019520 1_554
Fe1 O13 2.019520 1_554
Fe1 O14 2.079087 1_555
Fe1 O8 2.126607 1_554
Co0 O6 1.885130 1_555
Co0 O13 1.890607 1_555
Co0 O3 1.895329 1_565
Co0 O2 1.895952 1_555
Co0 O1 1.903564 1_555
Co0 O8 1.908041 1_565
Co1 O7 1.885130 1_555
Co1 O15 1.890607 1_555
Co1 O3 1.895329 1_655
Co1 O2 1.895952 1_555
Co1 O1 1.903564 1_555
Co1 O8 1.908041 1_655
Co2 O5 1.878821 1_455
Co2 O0 1.878821 1_545
Co2 O10 1.883063 1_555
Co2 O11 1.883063 1_555
Co2 O12 1.901620 1_555
Co2 O4 1.902674 1_555
Ni0 O3 1.939432 1_665
Ni0 O2 1.942232 1_555
Ni0 O6 1.957576 1_555
Ni0 O7 1.957576 1_555
Ni0 O15 1.990743 1_565
Ni0 O13 1.990743 1_655
Ni1 O12 1.890513 1_555
Ni1 O4 1.895150 1_565
Ni1 O14 1.905852 1_555
Ni1 O9 1.933931 1_455
Ni1 O10 2.071401 1_555
Ni1 O0 2.097094 1_555
Ni2 O12 1.890513 1_555
Ni2 O4 1.895150 1_655
Ni2 O14 1.905852 1_555
Ni2 O9 1.933931 1_545
Ni2 O11 2.071401 1_555
Ni2 O5 2.097094 1_555
