# generated using pymatgen
data_P2H12BrN7
_symmetry_space_group_name_H-M   'P 1'
_cell_length_a   6.09279200
_cell_length_b   7.53118074
_cell_length_c   11.32095962
_cell_angle_alpha   108.63591037
_cell_angle_beta   104.46291933
_cell_angle_gamma   90.68150072
_symmetry_Int_Tables_number   1
_chemical_formula_structural   P2H12BrN7
_chemical_formula_sum   'P4 H24 Br2 N14'
_cell_volume   474.25004140
_cell_formula_units_Z   2
loop_
 _symmetry_equiv_pos_site_id
 _symmetry_equiv_pos_as_xyz
  1  'x, y, z'
loop_
 _atom_site_type_symbol
 _atom_site_label
 _atom_site_symmetry_multiplicity
 _atom_site_fract_x
 _atom_site_fract_y
 _atom_site_fract_z
 _atom_site_occupancy
  P  P0  1  0.22512200  0.31089700  0.06593600  1
  P  P1  1  0.40379200  0.64098800  0.29921000  1
  P  P2  1  0.59620800  0.35901200  0.70079000  1
  P  P3  1  0.77487800  0.68910300  0.93406400  1
  H  H0  1  0.09892800  0.74278200  0.87831500  1
  H  H1  1  0.19215000  0.15544400  0.84776800  1
  H  H2  1  0.37766700  0.35616300  0.90914100  1
  H  H3  1  0.24809900  0.47743600  0.65664300  1
  H  H4  1  0.24607100  0.26197200  0.54743900  1
  H  H5  1  0.22464600  0.64373800  0.45805100  1
  H  H6  1  0.18001700  0.42787200  0.34008600  1
  H  H7  1  0.21449600  0.91095300  0.32262900  1
  H  H8  1  0.50407400  0.83149800  0.81897100  1
  H  H9  1  0.15501300  0.66651200  0.00876500  1
  H  H10  1  0.50012800  0.04513100  0.66674300  1
  H  H11  1  0.24570800  0.02486300  0.09645700  1
  H  H12  1  0.75429200  0.97513700  0.90354300  1
  H  H13  1  0.49987200  0.95486900  0.33325700  1
  H  H14  1  0.84498700  0.33348800  0.99123500  1
  H  H15  1  0.49592600  0.16850200  0.18102900  1
  H  H16  1  0.78550400  0.08904700  0.67737100  1
  H  H17  1  0.81998300  0.57212800  0.65991400  1
  H  H18  1  0.77535400  0.35626200  0.54194900  1
  H  H19  1  0.75392900  0.73802800  0.45256100  1
  H  H20  1  0.75190100  0.52256400  0.34335700  1
  H  H21  1  0.62233300  0.64383700  0.09085900  1
  H  H22  1  0.80785000  0.84455600  0.15223200  1
  H  H23  1  0.90107200  0.25721800  0.12168500  1
  Br  Br0  1  0.12712500  0.83761700  0.67316200  1
  Br  Br1  1  0.87287500  0.16238300  0.32683800  1
  N  N0  1  0.05280600  0.74076200  0.95926100  1
  N  N1  1  0.24537900  0.28305800  0.91956100  1
  N  N2  1  0.32007100  0.35329700  0.63834200  1
  N  N3  1  0.22280000  0.56885100  0.36443300  1
  N  N4  1  0.37257800  0.86501600  0.33261200  1
  N  N5  1  0.64726600  0.48424200  0.85108100  1
  N  N6  1  0.67533300  0.84090000  0.86207700  1
  N  N7  1  0.32466700  0.15910000  0.13792300  1
  N  N8  1  0.35273400  0.51575800  0.14891900  1
  N  N9  1  0.62742200  0.13498400  0.66738800  1
  N  N10  1  0.77720000  0.43114900  0.63556700  1
  N  N11  1  0.67992900  0.64670300  0.36165800  1
  N  N12  1  0.75462100  0.71694200  0.08043900  1
  N  N13  1  0.94719400  0.25923800  0.04073900  1
loop_
_geom_bond_atom_site_label_1
_geom_bond_atom_site_label_2
_geom_bond_distance
_geom_bond_site_symmetry_2
H0 N0 1.027814 1_555
H1 N1 1.025251 1_555
H2 N1 1.022314 1_555
H3 N2 1.020107 1_555
H4 N2 1.021708 1_555
H5 N3 1.026332 1_555
H6 N3 1.020638 1_555
H7 N4 1.019157 1_555
H8 N6 1.026521 1_555
H9 N0 1.024116 1_554
H10 N9 1.020305 1_555
H11 N7 1.022825 1_555
H12 N6 1.022825 1_555
H13 N4 1.020305 1_555
H14 N13 1.024116 1_556
H15 N7 1.026521 1_555
H16 N9 1.019157 1_555
H17 N10 1.020638 1_555
H18 N10 1.026332 1_555
H19 N11 1.021708 1_555
H20 N11 1.020107 1_555
H21 N12 1.022314 1_555
H22 N12 1.025251 1_555
H23 N13 1.027814 1_555
N0 P3 1.665026 1_455
N1 P0 1.638878 1_556
N2 P2 1.648326 1_555
N3 P1 1.644769 1_555
N4 P1 1.631439 1_555
N5 P3 1.596162 1_555
N5 P2 1.607556 1_555
N6 P3 1.644378 1_555
N7 P0 1.644378 1_555
N8 P0 1.596162 1_555
N8 P1 1.607556 1_555
N9 P2 1.631439 1_555
N10 P2 1.644769 1_555
N11 P1 1.648326 1_555
N12 P3 1.638878 1_554
N13 P0 1.665026 1_655
