# generated using pymatgen
data_K4Li7Mn2O8
_symmetry_space_group_name_H-M   'P 1'
_cell_length_a   8.95177400
_cell_length_b   5.65611200
_cell_length_c   10.83366662
_cell_angle_alpha   82.28187939
_cell_angle_beta   90.00000000
_cell_angle_gamma   90.00000000
_symmetry_Int_Tables_number   1
_chemical_formula_structural   K4Li7Mn2O8
_chemical_formula_sum   'K8 Li14 Mn4 O16'
_cell_volume   543.56348717
_cell_formula_units_Z   2
loop_
 _symmetry_equiv_pos_site_id
 _symmetry_equiv_pos_as_xyz
  1  'x, y, z'
loop_
 _atom_site_type_symbol
 _atom_site_label
 _atom_site_symmetry_multiplicity
 _atom_site_fract_x
 _atom_site_fract_y
 _atom_site_fract_z
 _atom_site_occupancy
  K  K0  1  0.75948900  0.91203100  0.83843200  1
  K  K1  1  0.50713600  0.86723000  0.36943800  1
  K  K2  1  0.24961800  0.57620800  0.65623100  1
  K  K3  1  0.49286400  0.36723000  0.86943800  1
  K  K4  1  0.00236300  0.62046300  0.12208100  1
  K  K5  1  0.24051100  0.41203100  0.33843200  1
  K  K6  1  0.99763700  0.12046300  0.62208100  1
  K  K7  1  0.75038200  0.07620800  0.15623100  1
  Li  Li0  1  0.26264500  0.99846100  0.50191500  1
  Li  Li1  1  0.49779000  0.89916700  0.69627800  1
  Li  Li2  1  0.23517500  0.68416700  0.92747400  1
  Li  Li3  1  0.73999100  0.80241500  0.56672500  1
  Li  Li4  1  0.22980700  0.92812300  0.20384700  1
  Li  Li5  1  0.99963200  0.58683400  0.80664600  1
  Li  Li6  1  0.73735500  0.49846100  0.00191500  1
  Li  Li7  1  0.77019300  0.42812300  0.70384700  1
  Li  Li8  1  0.73739800  0.56929800  0.30236100  1
  Li  Li9  1  0.50221000  0.39916700  0.19627800  1
  Li  Li10  1  0.76482500  0.18416700  0.42747400  1
  Li  Li11  1  0.26260200  0.06929800  0.80236100  1
  Li  Li12  1  0.26000900  0.30241500  0.06672500  1
  Li  Li13  1  0.00036800  0.08683400  0.30664600  1
  Mn  Mn0  1  0.96719900  0.65936000  0.44788500  1
  Mn  Mn1  1  0.03280100  0.15936000  0.94788500  1
  Mn  Mn2  1  0.45698600  0.83378800  0.05234800  1
  Mn  Mn3  1  0.54301400  0.33378800  0.55234800  1
  O  O0  1  0.07011300  0.88579400  0.85853000  1
  O  O1  1  0.44018200  0.84693500  0.87663400  1
  O  O2  1  0.80418400  0.86922100  0.38114700  1
  O  O3  1  0.16566000  0.85721400  0.38794700  1
  O  O4  1  0.93801400  0.63306600  0.62834600  1
  O  O5  1  0.57128400  0.60420200  0.63994700  1
  O  O6  1  0.19581600  0.36922100  0.88114700  1
  O  O7  1  0.65536800  0.64783700  0.11780600  1
  O  O8  1  0.29992100  0.63064400  0.11522200  1
  O  O9  1  0.83434000  0.35721400  0.88794700  1
  O  O10  1  0.92988700  0.38579400  0.35853000  1
  O  O11  1  0.55981800  0.34693500  0.37663400  1
  O  O12  1  0.34463200  0.14783700  0.61780600  1
  O  O13  1  0.70007900  0.13064400  0.61522200  1
  O  O14  1  0.06198600  0.13306600  0.12834600  1
  O  O15  1  0.42871600  0.10420200  0.13994700  1
loop_
_geom_bond_atom_site_label_1
_geom_bond_atom_site_label_2
_geom_bond_distance
_geom_bond_site_symmetry_2
K0 O13 2.618443 1_565
K0 O9 2.727614 1_565
K0 O0 2.791539 1_655
K0 O1 2.904508 1_555
K1 O2 2.662226 1_555
K1 O15 2.752375 1_565
K1 O11 2.765340 1_565
K2 O6 2.602633 1_555
K2 O12 2.652950 1_555
K2 O4 2.819466 1_455
K2 O5 2.887924 1_555
K3 O6 2.662226 1_555
K3 O5 2.752375 1_555
K3 O1 2.765340 1_555
K4 O8 2.665115 1_555
K4 O10 2.798442 1_455
K4 O14 2.799823 1_555
K5 O8 2.618443 1_555
K5 O3 2.727614 1_555
K5 O10 2.791539 1_455
K5 O11 2.904508 1_555
K6 O13 2.665115 1_555
K6 O0 2.798442 1_645
K6 O4 2.799823 1_545
K7 O2 2.602633 1_545
K7 O7 2.652950 1_545
K7 O14 2.819466 1_655
K7 O15 2.887924 1_555
Li0 O12 1.764583 1_565
Li0 O3 1.783652 1_555
Li1 O5 1.965235 1_555
Li1 O1 2.003987 1_555
Li1 O12 2.063871 1_565
Li1 O13 2.335729 1_565
Li2 O6 1.946652 1_555
Li2 O0 1.952679 1_555
Li2 O1 2.093467 1_555
Li2 O8 2.097459 1_556
Li3 O5 1.981937 1_555
Li3 O13 2.027876 1_565
Li3 O2 2.076298 1_555
Li3 O4 2.081757 1_555
Li4 O14 2.003738 1_565
Li4 O3 2.062445 1_555
Li4 O15 2.111021 1_565
Li4 O8 2.140274 1_555
Li5 O0 1.956690 1_655
Li5 O4 1.992035 1_555
Li5 O9 2.084390 1_555
Li5 O6 2.232443 1_655
Li6 O7 1.764583 1_555
Li6 O9 1.783652 1_554
Li7 O4 2.003738 1_555
Li7 O9 2.062445 1_555
Li7 O5 2.111021 1_555
Li7 O13 2.140274 1_555
Li8 O10 2.060839 1_555
Li8 O2 2.086299 1_555
Li8 O11 2.117658 1_555
Li8 O7 2.120287 1_555
Li9 O15 1.965235 1_555
Li9 O11 2.003987 1_555
Li9 O7 2.063871 1_555
Li9 O8 2.335729 1_555
Li10 O2 1.946652 1_545
Li10 O10 1.952679 1_555
Li10 O11 2.093467 1_555
Li10 O13 2.097459 1_555
Li11 O0 2.060839 1_545
Li11 O6 2.086299 1_555
Li11 O1 2.117658 1_545
Li11 O12 2.120287 1_555
Li12 O15 1.981937 1_555
Li12 O8 2.027876 1_555
Li12 O6 2.076298 1_554
Li12 O14 2.081757 1_555
Li13 O10 1.956690 1_455
Li13 O14 1.992035 1_555
Li13 O3 2.084390 1_545
Li13 O2 2.232443 1_445
Mn0 O2 1.957212 1_555
Mn0 O4 1.958191 1_555
Mn0 O10 1.960917 1_555
Mn0 O3 2.152916 1_655
Mn1 O6 1.957212 1_555
Mn1 O14 1.958191 1_556
Mn1 O0 1.960917 1_545
Mn1 O9 2.152916 1_455
Mn2 O8 1.884365 1_555
Mn2 O1 1.901034 1_554
Mn2 O15 1.921952 1_565
Mn2 O7 2.135995 1_555
Mn3 O13 1.884365 1_555
Mn3 O11 1.901034 1_555
Mn3 O5 1.921952 1_555
Mn3 O12 2.135995 1_555
