# generated using pymatgen
data_Li5V18O44
_symmetry_space_group_name_H-M   'P 1'
_cell_length_a   3.67351800
_cell_length_b   10.37041900
_cell_length_c   21.42347937
_cell_angle_alpha   79.77296707
_cell_angle_beta   90.00000000
_cell_angle_gamma   90.00000000
_symmetry_Int_Tables_number   1
_chemical_formula_structural   Li5V18O44
_chemical_formula_sum   'Li5 V18 O44'
_cell_volume   803.18018536
_cell_formula_units_Z   1
loop_
 _symmetry_equiv_pos_site_id
 _symmetry_equiv_pos_as_xyz
  1  'x, y, z'
loop_
 _atom_site_type_symbol
 _atom_site_label
 _atom_site_symmetry_multiplicity
 _atom_site_fract_x
 _atom_site_fract_y
 _atom_site_fract_z
 _atom_site_occupancy
  Li  Li0  1  0.50000000  0.53410100  0.83841400  1
  Li  Li1  1  0.50000000  0.89390300  0.81744300  1
  Li  Li2  1  0.00000000  0.01656100  0.51641800  1
  Li  Li3  1  0.00000000  0.10775500  0.18150800  1
  Li  Li4  1  0.00000000  0.46561800  0.16108200  1
  V  V0  1  0.00000000  0.61872200  0.97391100  1
  V  V1  1  0.50000000  0.22058200  0.91370600  1
  V  V2  1  0.00000000  0.96994900  0.93845200  1
  V  V3  1  0.00000000  0.45358900  0.71750000  1
  V  V4  1  0.50000000  0.20593200  0.74637200  1
  V  V5  1  0.00000000  0.80427800  0.68541600  1
  V  V6  1  0.50000000  0.04432600  0.63596000  1
  V  V7  1  0.00000000  0.65245600  0.57054000  1
  V  V8  1  0.50000000  0.39915800  0.59562200  1
  V  V9  1  0.00000000  0.60507800  0.40430900  1
  V  V10  1  0.50000000  0.35212400  0.42946700  1
  V  V11  1  0.00000000  0.95708700  0.36341500  1
  V  V12  1  0.50000000  0.19565000  0.31415900  1
  V  V13  1  0.00000000  0.79506000  0.25378900  1
  V  V14  1  0.50000000  0.54596300  0.28282200  1
  V  V15  1  0.50000000  0.02974300  0.06170200  1
  V  V16  1  0.00000000  0.77967400  0.08696100  1
  V  V17  1  0.50000000  0.38179600  0.02612200  1
  O  O0  1  0.50000000  0.57677800  0.99286000  1
  O  O1  1  0.00000000  0.16996100  0.91887500  1
  O  O2  1  0.00000000  0.78571300  0.98792600  1
  O  O3  1  0.50000000  0.38319400  0.90813700  1
  O  O4  1  0.50000000  0.00815400  0.95574100  1
  O  O5  1  0.00000000  0.63482000  0.89639500  1
  O  O6  1  0.50000000  0.21082200  0.82774000  1
  O  O7  1  0.00000000  0.92554800  0.86689900  1
  O  O8  1  0.00000000  0.49775700  0.78914400  1
  O  O9  1  0.00000000  0.78450800  0.76308800  1
  O  O10  1  0.50000000  0.41309100  0.69895100  1
  O  O11  1  0.50000000  0.04336800  0.74634300  1
  O  O12  1  0.00000000  0.63945800  0.66839800  1
  O  O13  1  0.00000000  0.25523700  0.73566900  1
  O  O14  1  0.00000000  0.43133800  0.61203800  1
  O  O15  1  0.50000000  0.84631200  0.66763800  1
  O  O16  1  0.00000000  0.00084000  0.65305100  1
  O  O17  1  0.50000000  0.59566900  0.57464200  1
  O  O18  1  0.50000000  0.21308200  0.64333600  1
  O  O19  1  0.00000000  0.81375700  0.56498400  1
  O  O20  1  0.50000000  0.05267500  0.55797700  1
  O  O21  1  0.00000000  0.63979300  0.47905200  1
  O  O22  1  0.50000000  0.36259600  0.52066200  1
  O  O23  1  0.00000000  0.94534400  0.43994800  1
  O  O24  1  0.50000000  0.19150300  0.43570800  1
  O  O25  1  0.00000000  0.78737800  0.35432100  1
  O  O26  1  0.00000000  0.40551600  0.42545600  1
  O  O27  1  0.50000000  0.00099200  0.34426100  1
  O  O28  1  0.00000000  0.15546400  0.33256400  1
  O  O29  1  0.50000000  0.57020000  0.38725700  1
  O  O30  1  0.50000000  0.74411000  0.26340900  1
  O  O31  1  0.50000000  0.36158700  0.33192600  1
  O  O32  1  0.00000000  0.95767400  0.25163400  1
  O  O33  1  0.00000000  0.58165600  0.30017900  1
  O  O34  1  0.50000000  0.21690300  0.23646400  1
  O  O35  1  0.50000000  0.50225000  0.21118800  1
  O  O36  1  0.50000000  0.07465400  0.13320200  1
  O  O37  1  0.00000000  0.78765400  0.17195200  1
  O  O38  1  0.50000000  0.36537100  0.10363400  1
  O  O39  1  0.00000000  0.98984300  0.04413500  1
  O  O40  1  0.00000000  0.61709500  0.09157600  1
  O  O41  1  0.50000000  0.21451000  0.01181400  1
  O  O42  1  0.50000000  0.82963900  0.08097600  1
  O  O43  1  0.00000000  0.42310600  0.00712900  1
loop_
_geom_bond_atom_site_label_1
_geom_bond_atom_site_label_2
_geom_bond_distance
_geom_bond_site_symmetry_2
Li0 O3 1.962196 1_555
Li0 O8 2.184299 1_555
Li0 O8 2.184299 1_655
Li0 O5 2.543290 1_655
Li0 O5 2.543290 1_555
Li1 O11 1.970870 1_565
Li1 O7 2.174266 1_555
Li1 O7 2.174266 1_655
Li1 O9 2.546726 1_655
Li1 O9 2.546726 1_555
Li2 O23 1.912845 1_545
Li2 O20 2.103582 1_555
Li2 O20 2.103582 1_455
Li2 O19 2.174579 1_545
Li3 O32 1.961916 1_545
Li3 O36 2.165329 1_455
Li3 O36 2.165329 1_555
Li3 O34 2.552308 1_455
Li3 O34 2.552308 1_555
Li4 O40 1.963248 1_555
Li4 O35 2.194331 1_455
Li4 O35 2.194331 1_555
Li4 O38 2.534464 1_455
Li4 O38 2.534464 1_555
O0 V0 1.914415 1_555
O0 V0 1.914415 1_655
O0 V17 2.021087 1_556
O1 V1 1.908111 1_555
O1 V1 1.908111 1_455
O1 V2 2.041893 1_545
O2 V0 1.809366 1_555
O2 V2 2.013632 1_555
O2 V16 2.111455 1_556
O3 V1 1.669306 1_555
O4 V2 1.928720 1_645
O4 V2 1.928720 1_545
O4 V1 2.227009 1_555
O4 V15 2.320289 1_556
O5 V0 1.639275 1_555
O6 V4 1.752900 1_555
O6 V1 1.862327 1_555
O7 V2 1.677048 1_555
O8 V3 1.677871 1_555
O9 V5 1.640061 1_555
O10 V3 1.940939 1_655
O10 V3 1.940939 1_555
O10 V4 2.207349 1_555
O10 V8 2.243831 1_555
O11 V4 1.685967 1_555
O11 V6 2.363044 1_555
O12 V5 1.809904 1_555
O12 V3 2.025330 1_555
O12 V7 2.076767 1_555
O13 V4 1.909468 1_555
O13 V4 1.909468 1_455
O13 V3 2.024454 1_555
O14 V8 1.910605 1_455
O14 V8 1.910605 1_555
O14 V7 2.307533 1_555
O14 V3 2.311514 1_555
O15 V5 1.910447 1_655
O15 V5 1.910447 1_555
O15 V6 2.045120 1_565
O16 V6 1.911148 1_555
O16 V6 1.911148 1_455
O16 V5 2.033241 1_545
O17 V7 1.926094 1_555
O17 V7 1.926094 1_655
O17 V8 2.007437 1_555
O18 V6 1.784914 1_555
O18 V8 2.016963 1_555
O18 V4 2.195438 1_555
O19 V7 1.655774 1_555
O20 V6 1.657486 1_555
O21 V9 1.702447 1_555
O21 V7 1.987513 1_555
O22 V8 1.714325 1_555
O22 V10 1.975888 1_555
O23 V11 1.622414 1_555
O24 V10 1.647232 1_555
O25 V11 1.804758 1_555
O25 V9 2.000506 1_555
O25 V13 2.141037 1_555
O26 V10 1.915921 1_555
O26 V10 1.915921 1_455
O26 V9 2.038459 1_555
O27 V11 1.919123 1_545
O27 V11 1.919123 1_645
O27 V12 2.007161 1_555
O28 V12 1.909053 1_555
O28 V12 1.909053 1_455
O28 V11 2.046043 1_545
O29 V9 1.919605 1_555
O29 V9 1.919605 1_655
O29 V10 2.281686 1_555
O29 V14 2.295354 1_555
O30 V13 1.912242 1_555
O30 V13 1.912242 1_655
O30 V14 2.022864 1_555
O31 V12 1.827224 1_555
O31 V14 2.012053 1_555
O31 V10 2.074493 1_555
O32 V13 1.678793 1_555
O32 V11 2.393665 1_555
O33 V14 1.922977 1_455
O33 V14 1.922977 1_555
O33 V13 2.259303 1_555
O33 V9 2.286482 1_555
O34 V12 1.639774 1_555
O35 V14 1.675616 1_555
O36 V15 1.678273 1_555
O37 V13 1.768486 1_555
O37 V16 1.837302 1_555
O38 V17 1.638929 1_555
O39 V15 1.934381 1_565
O39 V15 1.934381 1_465
O39 V16 2.209544 1_555
O39 V2 2.309669 1_554
O40 V16 1.671293 1_555
O41 V17 1.814500 1_555
O41 V15 2.021524 1_555
O41 V1 2.091553 1_554
O42 V16 1.906573 1_655
O42 V16 1.906573 1_555
O42 V15 2.042676 1_565
O43 V17 1.913342 1_555
O43 V17 1.913342 1_455
O43 V0 2.027091 1_554
