# generated using pymatgen
data_Li5Cu(PO4)2
_symmetry_space_group_name_H-M   'P 1'
_cell_length_a   6.15457600
_cell_length_b   5.38363100
_cell_length_c   9.98142734
_cell_angle_alpha   89.89632549
_cell_angle_beta   90.00000000
_cell_angle_gamma   90.00000000
_symmetry_Int_Tables_number   1
_chemical_formula_structural   Li5Cu(PO4)2
_chemical_formula_sum   'Li10 Cu2 P4 O16'
_cell_volume   330.72373416
_cell_formula_units_Z   2
loop_
 _symmetry_equiv_pos_site_id
 _symmetry_equiv_pos_as_xyz
  1  'x, y, z'
loop_
 _atom_site_type_symbol
 _atom_site_label
 _atom_site_symmetry_multiplicity
 _atom_site_fract_x
 _atom_site_fract_y
 _atom_site_fract_z
 _atom_site_occupancy
  Li  Li0  1  0.00000000  0.15273900  0.74264100  1
  Li  Li1  1  0.00000000  0.15326900  0.24723400  1
  Li  Li2  1  0.75471300  0.32605300  0.49518800  1
  Li  Li3  1  0.74840700  0.67564300  0.24790200  1
  Li  Li4  1  0.74570000  0.67158500  0.74279500  1
  Li  Li5  1  0.50000000  0.84884400  0.99746300  1
  Li  Li6  1  0.50000000  0.84234600  0.49571100  1
  Li  Li7  1  0.25430000  0.67158500  0.74279500  1
  Li  Li8  1  0.25159300  0.67564300  0.24790200  1
  Li  Li9  1  0.24528700  0.32605300  0.49518800  1
  Cu  Cu0  1  0.75407600  0.34057300  0.00519500  1
  Cu  Cu1  1  0.24592400  0.34057300  0.00519500  1
  P  P0  1  0.00000000  0.82549300  0.99669300  1
  P  P1  1  0.00000000  0.82374900  0.49914800  1
  P  P2  1  0.50000000  0.17194800  0.25768000  1
  P  P3  1  0.50000000  0.16961100  0.74180400  1
  O  O0  1  0.00000000  0.81723400  0.65512100  1
  O  O1  1  0.00000000  0.09867400  0.44911600  1
  O  O2  1  0.00000000  0.82519200  0.15233900  1
  O  O3  1  0.00000000  0.09485700  0.93877300  1
  O  O4  1  0.79294000  0.68711400  0.44630600  1
  O  O5  1  0.78981000  0.69747300  0.94189900  1
  O  O6  1  0.70881700  0.31416000  0.21090500  1
  O  O7  1  0.70710900  0.31005600  0.69226300  1
  O  O8  1  0.50000000  0.16086700  0.89826900  1
  O  O9  1  0.50000000  0.89612000  0.69032500  1
  O  O10  1  0.50000000  0.17168000  0.41317900  1
  O  O11  1  0.50000000  0.90206100  0.20218700  1
  O  O12  1  0.29289100  0.31005600  0.69226300  1
  O  O13  1  0.29118300  0.31416000  0.21090500  1
  O  O14  1  0.20706000  0.68711400  0.44630600  1
  O  O15  1  0.21019000  0.69747300  0.94189900  1
loop_
_geom_bond_atom_site_label_1
_geom_bond_atom_site_label_2
_geom_bond_distance
_geom_bond_site_symmetry_2
Li0 O3 1.981766 1_555
Li0 O0 2.007817 1_545
Li0 O12 2.053790 1_555
Li0 O7 2.053790 1_455
Li1 O2 2.005702 1_545
Li1 O13 2.022935 1_555
Li1 O6 2.022935 1_455
Li1 O1 2.035867 1_555
Li2 O10 1.954673 1_555
Li2 O7 1.990499 1_555
Li2 O1 1.997748 1_655
Li2 O4 2.017030 1_555
Li3 O2 1.988207 1_655
Li3 O6 1.996400 1_555
Li3 O4 2.000296 1_555
Li3 O11 2.007334 1_555
Li4 O0 1.956463 1_655
Li4 O9 2.004972 1_555
Li4 O5 2.010884 1_555
Li4 O7 2.025487 1_555
Li5 O8 1.948348 1_565
Li5 O15 2.038324 1_555
Li5 O5 2.038324 1_555
Li5 O11 2.063938 1_556
Li6 O10 1.953692 1_565
Li6 O9 1.964497 1_555
Li6 O14 2.047831 1_555
Li6 O4 2.047831 1_555
Li7 O0 1.956463 1_555
Li7 O9 2.004972 1_555
Li7 O15 2.010884 1_555
Li7 O12 2.025487 1_555
Li8 O2 1.988207 1_555
Li8 O13 1.996400 1_555
Li8 O14 2.000296 1_555
Li8 O11 2.007334 1_555
Li9 O10 1.954673 1_555
Li9 O12 1.990499 1_555
Li9 O1 1.997748 1_555
Li9 O14 2.017030 1_555
Cu0 O5 2.033463 1_554
Cu0 O6 2.076707 1_555
Cu0 O3 2.117428 1_654
Cu0 O8 2.126984 1_554
Cu1 O15 2.033463 1_554
Cu1 O13 2.076707 1_555
Cu1 O3 2.117428 1_554
Cu1 O8 2.126984 1_554
O0 P1 1.557165 1_555
O1 P1 1.561216 1_545
O2 P0 1.553567 1_554
O3 P0 1.560175 1_545
O4 P1 1.563554 1_655
O5 P0 1.564922 1_655
O6 P2 1.566698 1_555
O7 P3 1.561934 1_555
O8 P3 1.562368 1_555
O9 P3 1.560337 1_565
O10 P2 1.552100 1_555
O11 P2 1.555906 1_565
O12 P3 1.561934 1_555
O13 P2 1.566698 1_555
O14 P1 1.563554 1_555
O15 P0 1.564922 1_555
