# generated using pymatgen
data_Ba3La2Br12
_symmetry_space_group_name_H-M   'P 1'
_cell_length_a   12.42147200
_cell_length_b   12.42147200
_cell_length_c   7.55899600
_cell_angle_alpha   90.00000000
_cell_angle_beta   90.00000000
_cell_angle_gamma   90.00000000
_symmetry_Int_Tables_number   1
_chemical_formula_structural   Ba3La2Br12
_chemical_formula_sum   'Ba6 La4 Br24'
_cell_volume   1166.29991771
_cell_formula_units_Z   2
loop_
 _symmetry_equiv_pos_site_id
 _symmetry_equiv_pos_as_xyz
  1  'x, y, z'
loop_
 _atom_site_type_symbol
 _atom_site_label
 _atom_site_symmetry_multiplicity
 _atom_site_fract_x
 _atom_site_fract_y
 _atom_site_fract_z
 _atom_site_occupancy
  Ba  Ba0  1  0.00000000  0.00000000  0.00000000  1
  Ba  Ba1  1  0.68272600  0.18272600  0.50000000  1
  Ba  Ba2  1  0.18272600  0.31727400  0.50000000  1
  Ba  Ba3  1  0.50000000  0.50000000  0.00000000  1
  Ba  Ba4  1  0.81727400  0.68272600  0.50000000  1
  Ba  Ba5  1  0.31727400  0.81727400  0.50000000  1
  La  La0  1  0.36429600  0.13570400  0.00000000  1
  La  La1  1  0.86429600  0.36429600  0.00000000  1
  La  La2  1  0.13570400  0.63570400  0.00000000  1
  La  La3  1  0.63570400  0.86429600  0.00000000  1
  Br  Br0  1  0.50000000  0.00000000  0.25707700  1
  Br  Br1  1  0.50000000  0.00000000  0.74292300  1
  Br  Br2  1  0.20856800  0.05642200  0.26980700  1
  Br  Br3  1  0.20856800  0.05642200  0.73019300  1
  Br  Br4  1  0.69210700  0.19210700  0.00000000  1
  Br  Br5  1  0.94357800  0.20856800  0.26980700  1
  Br  Br6  1  0.94357800  0.20856800  0.73019300  1
  Br  Br7  1  0.44357800  0.29143200  0.26980700  1
  Br  Br8  1  0.44357800  0.29143200  0.73019300  1
  Br  Br9  1  0.19210700  0.30789300  0.00000000  1
  Br  Br10  1  0.70856800  0.44357800  0.26980700  1
  Br  Br11  1  0.70856800  0.44357800  0.73019300  1
  Br  Br12  1  0.00000000  0.50000000  0.74292300  1
  Br  Br13  1  0.00000000  0.50000000  0.25707700  1
  Br  Br14  1  0.29143200  0.55642200  0.26980700  1
  Br  Br15  1  0.29143200  0.55642200  0.73019300  1
  Br  Br16  1  0.80789300  0.69210700  0.00000000  1
  Br  Br17  1  0.55642200  0.70856800  0.26980700  1
  Br  Br18  1  0.55642200  0.70856800  0.73019300  1
  Br  Br19  1  0.05642200  0.79143200  0.26980700  1
  Br  Br20  1  0.05642200  0.79143200  0.73019300  1
  Br  Br21  1  0.30789300  0.80789300  0.00000000  1
  Br  Br22  1  0.79143200  0.94357800  0.26980700  1
  Br  Br23  1  0.79143200  0.94357800  0.73019300  1
loop_
_geom_bond_atom_site_label_1
_geom_bond_atom_site_label_2
_geom_bond_distance
_geom_bond_site_symmetry_2
Ba0 Br6 3.370825 1_454
Ba0 Br20 3.370825 1_544
Ba0 Br23 3.370825 1_444
Ba0 Br19 3.370825 1_545
Ba0 Br5 3.370825 1_455
Ba0 Br22 3.370825 1_445
Ba0 Br3 3.370825 1_554
Ba0 Br2 3.370825 1_555
Ba1 Br11 3.691803 1_555
Ba1 Br5 3.691803 1_555
Ba1 Br6 3.691803 1_555
Ba1 Br10 3.691803 1_555
Ba1 Br0 3.697991 1_555
Ba1 Br1 3.697991 1_555
Ba1 Br23 3.698008 1_545
Ba1 Br22 3.698008 1_545
Ba1 Br8 3.698008 1_555
Ba1 Br7 3.698008 1_555
Ba1 Br4 3.783089 1_555
Ba1 Br4 3.783089 1_556
Ba2 Br8 3.691803 1_555
Ba2 Br3 3.691803 1_555
Ba2 Br7 3.691803 1_555
Ba2 Br2 3.691803 1_555
Ba2 Br12 3.697991 1_555
Ba2 Br13 3.697991 1_555
Ba2 Br5 3.698008 1_455
Ba2 Br6 3.698008 1_455
Ba2 Br15 3.698008 1_555
Ba2 Br14 3.698008 1_555
Ba2 Br9 3.783089 1_555
Ba2 Br9 3.783089 1_556
Ba3 Br17 3.370825 1_555
Ba3 Br18 3.370825 1_554
Ba3 Br11 3.370825 1_554
Ba3 Br15 3.370825 1_554
Ba3 Br10 3.370825 1_555
Ba3 Br7 3.370825 1_555
Ba3 Br14 3.370825 1_555
Ba3 Br8 3.370825 1_554
Ba4 Br23 3.691803 1_555
Ba4 Br18 3.691803 1_555
Ba4 Br22 3.691803 1_555
Ba4 Br17 3.691803 1_555
Ba4 Br12 3.697991 1_655
Ba4 Br13 3.697991 1_655
Ba4 Br20 3.698008 1_655
Ba4 Br19 3.698008 1_655
Ba4 Br10 3.698008 1_555
Ba4 Br11 3.698008 1_555
Ba4 Br16 3.783089 1_555
Ba4 Br16 3.783089 1_556
Ba5 Br20 3.691803 1_555
Ba5 Br15 3.691803 1_555
Ba5 Br19 3.691803 1_555
Ba5 Br14 3.691803 1_555
Ba5 Br0 3.697991 1_565
Ba5 Br1 3.697991 1_565
Ba5 Br17 3.698008 1_555
Ba5 Br18 3.698008 1_555
Ba5 Br3 3.698008 1_565
Ba5 Br2 3.698008 1_565
Ba5 Br21 3.783089 1_555
Ba5 Br21 3.783089 1_556
Br0 La0 3.075546 1_555
Br0 La3 3.075546 1_545
Br1 La0 3.075546 1_556
Br1 La3 3.075546 1_546
Br2 La0 2.978432 1_555
Br3 La0 2.978432 1_556
Br4 La1 3.024778 1_555
Br5 La1 2.978432 1_555
Br6 La1 2.978432 1_556
Br7 La0 2.978432 1_555
Br8 La0 2.978432 1_556
Br9 La0 3.024778 1_555
Br10 La1 2.978432 1_555
Br11 La1 2.978432 1_556
Br12 La1 3.075546 1_456
Br12 La2 3.075546 1_556
Br13 La1 3.075546 1_455
Br13 La2 3.075546 1_555
Br14 La2 2.978432 1_555
Br15 La2 2.978432 1_556
Br16 La3 3.024778 1_555
Br17 La3 2.978432 1_555
Br18 La3 2.978432 1_556
Br19 La2 2.978432 1_555
Br20 La2 2.978432 1_556
Br21 La2 3.024778 1_555
Br22 La3 2.978432 1_555
Br23 La3 2.978432 1_556
