# generated using pymatgen
data_LiV(OF)2
_symmetry_space_group_name_H-M   'P 1'
_cell_length_a   5.01640300
_cell_length_b   7.47056500
_cell_length_c   7.55247839
_cell_angle_alpha   77.38747739
_cell_angle_beta   90.00000000
_cell_angle_gamma   90.00000000
_symmetry_Int_Tables_number   1
_chemical_formula_structural   LiV(OF)2
_chemical_formula_sum   'Li4 V4 O8 F8'
_cell_volume   276.20205701
_cell_formula_units_Z   4
loop_
 _symmetry_equiv_pos_site_id
 _symmetry_equiv_pos_as_xyz
  1  'x, y, z'
loop_
 _atom_site_type_symbol
 _atom_site_label
 _atom_site_symmetry_multiplicity
 _atom_site_fract_x
 _atom_site_fract_y
 _atom_site_fract_z
 _atom_site_occupancy
  Li  Li0  1  0.25511200  0.36534600  0.37176900  1
  Li  Li1  1  0.24488800  0.86534600  0.37176900  1
  Li  Li2  1  0.75511200  0.13465400  0.62823100  1
  Li  Li3  1  0.74488800  0.63465400  0.62823100  1
  V  V0  1  0.73985500  0.18382900  0.20730900  1
  V  V1  1  0.76014500  0.68382900  0.20730900  1
  V  V2  1  0.23985500  0.31617100  0.79269100  1
  V  V3  1  0.26014500  0.81617100  0.79269100  1
  O  O0  1  0.46547200  0.09465400  0.31010800  1
  O  O1  1  0.93543100  0.20260300  0.38389500  1
  O  O2  1  0.03452800  0.59465400  0.31010800  1
  O  O3  1  0.56456900  0.70260300  0.38389500  1
  O  O4  1  0.43543100  0.29739700  0.61610500  1
  O  O5  1  0.96547200  0.40534600  0.68989200  1
  O  O6  1  0.06456900  0.79739700  0.61610500  1
  O  O7  1  0.53452800  0.90534600  0.68989200  1
  F  F0  1  0.07244700  0.28400800  0.03920300  1
  F  F1  1  0.42755300  0.78400800  0.03920300  1
  F  F2  1  0.61109900  0.44496500  0.18350200  1
  F  F3  1  0.88890100  0.94496500  0.18350200  1
  F  F4  1  0.11109900  0.05503500  0.81649800  1
  F  F5  1  0.38890100  0.55503500  0.81649800  1
  F  F6  1  0.57244700  0.21599200  0.96079700  1
  F  F7  1  0.92755300  0.71599200  0.96079700  1
loop_
_geom_bond_atom_site_label_1
_geom_bond_atom_site_label_2
_geom_bond_distance
_geom_bond_site_symmetry_2
Li0 O1 2.002393 1_455
Li0 O2 2.006858 1_555
Li0 O4 2.017944 1_555
Li0 O0 2.414762 1_555
Li1 O3 2.002393 1_555
Li1 O0 2.006858 1_565
Li1 O6 2.017944 1_555
Li1 O2 2.414762 1_555
Li2 O4 2.002393 1_555
Li2 O7 2.006858 1_545
Li2 O1 2.017944 1_555
Li2 O5 2.414762 1_555
Li3 O6 2.002393 1_655
Li3 O5 2.006858 1_555
Li3 O3 2.017944 1_555
Li3 O7 2.414762 1_555
O0 V0 1.647795 1_555
O1 V0 1.685985 1_555
O2 V1 1.647795 1_455
O3 V1 1.685985 1_555
O4 V2 1.685985 1_555
O5 V2 1.647795 1_655
O6 V3 1.685985 1_555
O7 V3 1.647795 1_555
F0 V2 2.008439 1_554
F0 V0 2.130887 1_455
F1 V3 2.008439 1_554
F1 V1 2.130887 1_555
F2 V1 1.978819 1_555
F2 V0 2.025358 1_555
F2 Li0 2.279294 1_555
F3 V0 1.978819 1_565
F3 V1 2.025358 1_555
F3 Li1 2.279294 1_655
F4 V3 1.978819 1_545
F4 V2 2.025358 1_555
F4 Li2 2.279294 1_455
F5 V2 1.978819 1_555
F5 V3 2.025358 1_555
F5 Li3 2.279294 1_555
F6 V0 2.008439 1_556
F6 V2 2.130887 1_555
F7 V1 2.008439 1_556
F7 V3 2.130887 1_655
