# generated using pymatgen
data_Li2VCrP2(O4F)2
_symmetry_space_group_name_H-M   'P 1'
_cell_length_a   5.37201066
_cell_length_b   10.22574360
_cell_length_c   7.34716090
_cell_angle_alpha   76.01483244
_cell_angle_beta   73.07426687
_cell_angle_gamma   99.89994098
_symmetry_Int_Tables_number   1
_chemical_formula_structural   Li2VCrP2(O4F)2
_chemical_formula_sum   'Li4 V2 Cr2 P4 O16 F4'
_cell_volume   361.68635142
_cell_formula_units_Z   2
loop_
 _symmetry_equiv_pos_site_id
 _symmetry_equiv_pos_as_xyz
  1  'x, y, z'
loop_
 _atom_site_type_symbol
 _atom_site_label
 _atom_site_symmetry_multiplicity
 _atom_site_fract_x
 _atom_site_fract_y
 _atom_site_fract_z
 _atom_site_occupancy
  Li  Li0  1  0.98103900  0.36423800  0.44655100  1
  Li  Li1  1  0.48104000  0.86423800  0.94655100  1
  Li  Li2  1  0.01896000  0.63576000  0.55345000  1
  Li  Li3  1  0.51895900  0.13575900  0.05345200  1
  V  V0  1  0.49999900  0.50000200  0.50000200  1
  V  V1  1  0.99999600  0.00000000  0.00000300  1
  Cr  Cr0  1  0.50001900  0.49999100  0.99996500  1
  Cr  Cr1  1  0.99999900  0.00003200  0.50000700  1
  P  P0  1  0.52040800  0.16043300  0.59989400  1
  P  P1  1  0.02040400  0.66043400  0.09989200  1
  P  P2  1  0.47959000  0.83956500  0.40011100  1
  P  P3  1  0.97959100  0.33956500  0.90011000  1
  O  O0  1  0.56308000  0.31551000  0.59792000  1
  O  O1  1  0.06308300  0.81550800  0.09792100  1
  O  O2  1  0.43691900  0.68448900  0.40208300  1
  O  O3  1  0.93692000  0.18448800  0.90207900  1
  O  O4  1  0.33887400  0.12529700  0.48265400  1
  O  O5  1  0.83887100  0.62529300  0.98265700  1
  O  O6  1  0.66113300  0.87471000  0.51734300  1
  O  O7  1  0.16112300  0.37470400  0.01734700  1
  O  O8  1  0.81423000  0.15377600  0.50258600  1
  O  O9  1  0.31421500  0.65377500  0.00259000  1
  O  O10  1  0.18577000  0.84622300  0.49741400  1
  O  O11  1  0.68577800  0.34622100  0.99741700  1
  O  O12  1  0.60094000  0.93571200  0.17582800  1
  O  O13  1  0.10094900  0.43571500  0.67582700  1
  O  O14  1  0.39905300  0.06428400  0.82417500  1
  O  O15  1  0.89905700  0.56428300  0.32417400  1
  F  F0  1  0.13486600  0.06387500  0.20379600  1
  F  F1  1  0.63486400  0.56387200  0.70379700  1
  F  F2  1  0.86513200  0.93612600  0.79620700  1
  F  F3  1  0.36513900  0.43612400  0.29620000  1
loop_
_geom_bond_atom_site_label_1
_geom_bond_atom_site_label_2
_geom_bond_distance
_geom_bond_site_symmetry_2
Li0 O8 2.073151 1_555
Li0 O0 2.102360 1_555
Li0 O15 2.199604 1_555
Li0 O13 2.202685 1_655
Li1 O9 2.073172 1_556
Li1 O1 2.102351 1_556
Li1 O14 2.199624 1_565
Li1 O12 2.202653 1_556
Li2 O10 2.073160 1_555
Li2 O2 2.102357 1_555
Li2 O13 2.199622 1_555
Li2 O15 2.202668 1_455
Li3 O11 2.073162 1_554
Li3 O3 2.102374 1_554
Li3 O12 2.199617 1_545
Li3 O14 2.202673 1_554
Cr0 F1 1.979609 1_555
Cr0 F3 1.980056 1_556
Cr0 O7 1.988870 1_556
Cr0 O5 1.988951 1_555
Cr0 O11 2.002881 1_555
Cr0 O9 2.003189 1_556
Cr1 F2 1.979823 1_545
Cr1 F0 1.979896 1_655
Cr1 O4 1.988752 1_655
Cr1 O6 1.989033 1_545
Cr1 O8 2.002695 1_555
Cr1 O10 2.003288 1_645
O0 P0 1.558653 1_555
O0 V0 1.974160 1_555
O1 P1 1.558628 1_555
O1 V1 1.974175 1_465
O2 P2 1.558648 1_555
O2 V0 1.974113 1_555
O3 P3 1.558664 1_555
O3 V1 1.974120 1_556
O4 P0 1.529807 1_555
O5 P1 1.529786 1_656
O6 P2 1.529820 1_555
O7 P3 1.529789 1_454
O8 P0 1.552600 1_555
O9 P1 1.552546 1_555
O10 P2 1.552587 1_555
O11 P3 1.552552 1_555
O12 P2 1.574182 1_555
O12 V1 2.046709 1_565
O13 P3 1.574192 1_455
O13 V0 2.046684 1_555
O14 P0 1.574177 1_555
O14 V1 2.046720 1_456
O15 P1 1.574189 1_655
O15 V0 2.046724 1_555
F0 Li3 1.943405 1_555
F0 V1 2.033496 1_455
F1 Li2 1.943425 1_655
F1 V0 2.033473 1_555
F2 Li1 1.943403 1_555
F2 V1 2.033495 1_566
F3 Li0 1.943446 1_455
F3 V0 2.033542 1_555
