# generated using pymatgen
data_Fe6O5F7
_symmetry_space_group_name_H-M   'P 1'
_cell_length_a   4.69195400
_cell_length_b   5.65748966
_cell_length_c   7.96414214
_cell_angle_alpha   86.32796472
_cell_angle_beta   89.89300032
_cell_angle_gamma   89.06849955
_symmetry_Int_Tables_number   1
_chemical_formula_structural   Fe6O5F7
_chemical_formula_sum   'Fe6 O5 F7'
_cell_volume   210.94364483
_cell_formula_units_Z   1
loop_
 _symmetry_equiv_pos_site_id
 _symmetry_equiv_pos_as_xyz
  1  'x, y, z'
loop_
 _atom_site_type_symbol
 _atom_site_label
 _atom_site_symmetry_multiplicity
 _atom_site_fract_x
 _atom_site_fract_y
 _atom_site_fract_z
 _atom_site_occupancy
  Fe  Fe0  1  0.54935500  0.16169600  0.35355000  1
  Fe  Fe1  1  0.46364900  0.49471500  0.97448600  1
  Fe  Fe2  1  0.49969700  0.83373200  0.66497500  1
  Fe  Fe3  1  0.01678800  0.67422100  0.30708700  1
  Fe  Fe4  1  0.97116000  0.33684100  0.69081300  1
  Fe  Fe5  1  0.98135900  0.00352300  0.01642200  1
  O  O0  1  0.80333300  0.96068400  0.23404300  1
  O  O1  1  0.79453500  0.29318400  0.91151700  1
  O  O2  1  0.70777300  0.14123600  0.56874200  1
  O  O3  1  0.29233300  0.52562700  0.75909300  1
  O  O4  1  0.20056000  0.70589000  0.09560500  1
  F  F0  1  0.81859200  0.62901600  0.54726400  1
  F  F1  1  0.70515600  0.78762400  0.90383500  1
  F  F2  1  0.69517200  0.46297800  0.23665300  1
  F  F3  1  0.29852900  0.87553900  0.42442400  1
  F  F4  1  0.30540400  0.20505200  0.11045000  1
  F  F5  1  0.19094300  0.03634100  0.78250900  1
  F  F6  1  0.20566100  0.37210100  0.41853100  1
loop_
_geom_bond_atom_site_label_1
_geom_bond_atom_site_label_2
_geom_bond_distance
_geom_bond_site_symmetry_2
Fe0 O2 1.865370 1_555
Fe0 O0 1.926013 1_545
Fe1 O3 1.892488 1_555
Fe1 O1 1.993615 1_555
Fe1 O4 1.994190 1_556
Fe2 O3 2.105215 1_555
Fe2 O2 2.109198 1_565
Fe3 O4 1.890316 1_555
Fe3 O0 1.948497 1_455
Fe4 O1 1.944981 1_555
Fe4 O3 1.958844 1_655
Fe4 O2 1.970724 1_555
Fe5 O0 1.925533 1_545
Fe5 O1 1.983070 1_554
Fe5 O4 2.025075 1_645
F0 Fe4 2.067437 1_555
F0 Fe3 2.127773 1_655
F0 Fe2 2.129894 1_555
F1 Fe5 2.042416 1_566
F1 Fe1 2.070247 1_555
F1 Fe2 2.133369 1_555
F2 Fe0 2.018022 1_555
F2 Fe3 2.041497 1_655
F2 Fe1 2.350715 1_554
F3 Fe3 2.026782 1_555
F3 Fe0 2.065663 1_565
F3 Fe2 2.135067 1_555
F4 Fe1 2.053928 1_554
F4 Fe5 2.083825 1_455
F4 Fe0 2.248783 1_555
F5 Fe4 2.067304 1_455
F5 Fe2 2.089762 1_545
F5 Fe5 2.103976 1_456
F6 Fe3 2.062511 1_555
F6 Fe0 2.073315 1_555
F6 Fe4 2.428077 1_455
