# generated using pymatgen
data_LiVP2HO8
_symmetry_space_group_name_H-M   'P 1'
_cell_length_a   7.46057700
_cell_length_b   7.98248802
_cell_length_c   9.74457851
_cell_angle_alpha   90.14067980
_cell_angle_beta   104.78890611
_cell_angle_gamma   90.09077621
_symmetry_Int_Tables_number   1
_chemical_formula_structural   LiVP2HO8
_chemical_formula_sum   'Li4 V4 P8 H4 O32'
_cell_volume   561.10051004
_cell_formula_units_Z   4
loop_
 _symmetry_equiv_pos_site_id
 _symmetry_equiv_pos_as_xyz
  1  'x, y, z'
loop_
 _atom_site_type_symbol
 _atom_site_label
 _atom_site_symmetry_multiplicity
 _atom_site_fract_x
 _atom_site_fract_y
 _atom_site_fract_z
 _atom_site_occupancy
  Li  Li0  1  0.65206300  0.62960400  0.05292500  1
  Li  Li1  1  0.14462500  0.86952700  0.29000200  1
  Li  Li2  1  0.85450500  0.12779100  0.70494800  1
  Li  Li3  1  0.35158800  0.36902900  0.95006000  1
  V  V0  1  0.00679900  0.48816500  0.25497800  1
  V  V1  1  0.49731200  0.00020200  0.50098500  1
  V  V2  1  0.99726800  0.50881300  0.74612400  1
  V  V3  1  0.49843800  0.99973600  0.99930600  1
  P  P0  1  0.26510600  0.65394400  0.06328900  1
  P  P1  1  0.23069000  0.14881300  0.18183400  1
  P  P2  1  0.76059800  0.84922800  0.31208300  1
  P  P3  1  0.73414200  0.34776100  0.43727200  1
  P  P4  1  0.26865300  0.64839400  0.56515000  1
  P  P5  1  0.23331300  0.14787300  0.68791800  1
  P  P6  1  0.76599600  0.84618200  0.81690900  1
  P  P7  1  0.73757600  0.34366200  0.93733500  1
  H  H0  1  0.51363600  0.48721900  0.27015800  1
  H  H1  1  0.98886400  0.99314400  0.48518100  1
  H  H2  1  0.49234500  0.50836500  0.74051700  1
  H  H3  1  0.99459900  0.99428600  0.99163700  1
  O  O0  1  0.84664800  0.44620300  0.07126400  1
  O  O1  1  0.31560400  0.82903600  0.02061000  1
  O  O2  1  0.35771000  0.17340200  0.07807500  1
  O  O3  1  0.44050400  0.54998700  0.12128500  1
  O  O4  1  0.65097300  0.94852200  0.18044400  1
  O  O5  1  0.80899800  0.67630000  0.26112300  1
  O  O6  1  0.05929900  0.04218700  0.12044600  1
  O  O7  1  0.14008600  0.66869800  0.16803700  1
  O  O8  1  0.85983100  0.32789100  0.33526800  1
  O  O9  1  0.94723200  0.93952000  0.37925100  1
  O  O10  1  0.17975800  0.32524700  0.22388100  1
  O  O11  1  0.34061400  0.05092100  0.31439600  1
  O  O12  1  0.55401600  0.44519300  0.37391400  1
  O  O13  1  0.63900900  0.84220200  0.41865700  1
  O  O14  1  0.68504300  0.17725100  0.49330700  1
  O  O15  1  0.84946700  0.44438400  0.57128000  1
  O  O16  1  0.15605300  0.54974400  0.43039600  1
  O  O17  1  0.31578400  0.81877500  0.50690700  1
  O  O18  1  0.36234100  0.15496800  0.58410800  1
  O  O19  1  0.44724000  0.55388800  0.63425600  1
  O  O20  1  0.65844400  0.94655900  0.68620500  1
  O  O21  1  0.82022500  0.67176200  0.77481700  1
  O  O22  1  0.05208600  0.06040200  0.61862300  1
  O  O23  1  0.13709100  0.67082600  0.66288200  1
  O  O24  1  0.86251400  0.32742200  0.83292900  1
  O  O25  1  0.93997000  0.95394900  0.87751100  1
  O  O26  1  0.19545700  0.32376000  0.74144800  1
  O  O27  1  0.34834800  0.04920200  0.82006600  1
  O  O28  1  0.56173400  0.44783900  0.87837900  1
  O  O29  1  0.64276600  0.82369000  0.92275900  1
  O  O30  1  0.68339300  0.16967800  0.97980600  1
  O  O31  1  0.15364200  0.55315700  0.92905600  1
loop_
_geom_bond_atom_site_label_1
_geom_bond_atom_site_label_2
_geom_bond_distance
_geom_bond_site_symmetry_2
Li0 O3 1.968378 1_555
Li0 O29 1.994757 1_554
Li0 O0 2.039185 1_555
Li0 O5 2.099535 1_555
Li0 O28 2.202717 1_554
Li1 O9 1.972651 1_455
Li1 O7 1.988360 1_555
Li1 O11 2.026154 1_565
Li1 O6 2.124092 1_565
Li1 O17 2.211374 1_555
Li2 O22 1.950177 1_655
Li2 O24 2.012507 1_555
Li2 O20 2.030131 1_545
Li2 O25 2.150990 1_545
Li2 O14 2.163804 1_555
Li3 O28 1.974793 1_555
Li3 O2 1.994365 1_556
Li3 O31 2.058436 1_555
Li3 O26 2.099054 1_555
Li3 O3 2.175002 1_556
H0 O12 1.035386 1_555
H0 O3 1.501210 1_555
H1 O9 1.085798 1_555
H1 O22 1.372679 1_665
H2 O19 1.068565 1_555
H2 O28 1.398251 1_555
H3 O25 1.128275 1_555
H3 O6 1.281582 1_666
O0 P7 1.576668 1_554
O0 V0 1.910095 1_655
O1 P0 1.532826 1_555
O1 V3 1.974967 1_554
O2 P1 1.564733 1_555
O2 V3 2.006010 1_544
O3 P0 1.532505 1_555
O4 P2 1.553730 1_555
O4 V3 1.886091 1_554
O5 P2 1.540205 1_555
O5 V0 2.118574 1_655
O6 P1 1.523434 1_555
O7 P0 1.552906 1_555
O7 V0 2.053022 1_555
O8 P3 1.538833 1_555
O8 V0 1.972214 1_655
O9 P2 1.554316 1_555
O10 P1 1.540828 1_555
O10 V0 1.910804 1_555
O11 P1 1.554987 1_555
O11 V1 1.938176 1_555
O12 P3 1.540809 1_555
O13 P2 1.544541 1_555
O13 V1 1.945273 1_565
O14 P3 1.545670 1_555
O14 V1 2.003089 1_555
O15 P3 1.568367 1_555
O15 V2 1.848800 1_555
O16 P4 1.574730 1_555
O16 V0 1.850925 1_555
O17 P4 1.549093 1_555
O17 V1 1.992224 1_565
O18 P5 1.565373 1_555
O18 V1 1.900461 1_555
O19 P4 1.531473 1_555
O20 P6 1.547052 1_555
O20 V1 1.945217 1_565
O21 P6 1.534320 1_555
O21 V2 1.925336 1_555
O22 P5 1.516628 1_555
O23 P4 1.542524 1_555
O23 V2 1.962539 1_455
O24 P7 1.550674 1_555
O24 V2 2.063572 1_555
O25 P6 1.541458 1_555
O26 P5 1.547899 1_555
O26 V2 2.100334 1_455
O27 P5 1.567830 1_555
O27 V3 1.861927 1_545
O28 P7 1.537423 1_555
O29 P6 1.557528 1_555
O29 V3 2.024930 1_555
O30 P7 1.532963 1_555
O30 V3 1.977271 1_545
O31 P0 1.577080 1_556
O31 V2 1.896811 1_455
