# generated using pymatgen
data_KAl4(SiO6)2
_symmetry_space_group_name_H-M   'P 1'
_cell_length_a   5.41256119
_cell_length_b   5.41256119
_cell_length_c   20.66672814
_cell_angle_alpha   87.39711320
_cell_angle_beta   87.39711320
_cell_angle_gamma   120.03619227
_symmetry_Int_Tables_number   1
_chemical_formula_structural   KAl4(SiO6)2
_chemical_formula_sum   'K2 Al8 Si4 O24'
_cell_volume   521.97383747
_cell_formula_units_Z   2
loop_
 _symmetry_equiv_pos_site_id
 _symmetry_equiv_pos_as_xyz
  1  'x, y, z'
loop_
 _atom_site_type_symbol
 _atom_site_label
 _atom_site_symmetry_multiplicity
 _atom_site_fract_x
 _atom_site_fract_y
 _atom_site_fract_z
 _atom_site_occupancy
  K  K0  1  0.09754200  0.90245800  0.75000000  1
  K  K1  1  0.90245800  0.09754200  0.25000000  1
  Al  Al0  1  0.81245200  0.27767300  0.63675300  1
  Al  Al1  1  0.72232700  0.18754800  0.86324700  1
  Al  Al2  1  0.18754800  0.72232700  0.36324700  1
  Al  Al3  1  0.27767300  0.81245200  0.13675300  1
  Al  Al4  1  0.79726700  0.58439300  0.49995300  1
  Al  Al5  1  0.41560700  0.20273300  0.00004700  1
  Al  Al6  1  0.20273300  0.41560700  0.50004700  1
  Al  Al7  1  0.58439300  0.79726700  0.99995300  1
  Si  Si0  1  0.47202700  0.59197900  0.63783600  1
  Si  Si1  1  0.40802100  0.52797300  0.86216400  1
  Si  Si2  1  0.52797300  0.40802100  0.36216400  1
  Si  Si3  1  0.59197900  0.47202700  0.13783600  1
  O  O0  1  0.49459800  0.57109400  0.55518400  1
  O  O1  1  0.42890600  0.50540200  0.94481600  1
  O  O2  1  0.50540200  0.42890600  0.44481600  1
  O  O3  1  0.57109400  0.49459800  0.05518400  1
  O  O4  1  0.88991200  0.37041600  0.55158300  1
  O  O5  1  0.62958400  0.11008800  0.94841700  1
  O  O6  1  0.11008800  0.62958400  0.44841700  1
  O  O7  1  0.37041600  0.88991200  0.05158300  1
  O  O8  1  0.68422000  0.49257000  0.66709500  1
  O  O9  1  0.50743000  0.31578000  0.83290500  1
  O  O10  1  0.31578000  0.50743000  0.33290500  1
  O  O11  1  0.49257000  0.68422000  0.16709500  1
  O  O12  1  0.56478300  0.91484800  0.65409000  1
  O  O13  1  0.08515200  0.43521700  0.84591000  1
  O  O14  1  0.43521700  0.08515200  0.34591000  1
  O  O15  1  0.91484800  0.56478300  0.15409000  1
  O  O16  1  0.14437100  0.37147600  0.66598900  1
  O  O17  1  0.62852400  0.85562900  0.83401100  1
  O  O18  1  0.85562900  0.62852400  0.33401100  1
  O  O19  1  0.37147600  0.14437100  0.16598900  1
  O  O20  1  0.06400100  0.98947200  0.52746500  1
  O  O21  1  0.01052800  0.93599900  0.97253500  1
  O  O22  1  0.93599900  0.01052800  0.47253500  1
  O  O23  1  0.98947200  0.06400100  0.02746500  1
loop_
_geom_bond_atom_site_label_1
_geom_bond_atom_site_label_2
_geom_bond_distance
_geom_bond_site_symmetry_2
K0 O17 2.904950 1_455
K0 O16 2.904950 1_565
K0 O8 2.930381 1_455
K0 O9 2.930381 1_565
K0 O12 3.113188 1_555
K0 O13 3.113188 1_555
K1 O18 2.904950 1_545
K1 O19 2.904950 1_655
K1 O11 2.930381 1_545
K1 O10 2.930381 1_655
K1 O15 3.113188 1_555
K1 O14 3.113188 1_555
Al0 O12 1.743270 1_545
Al0 O8 1.750068 1_555
Al0 O16 1.750344 1_655
Al0 O4 1.779900 1_555
Al1 O13 1.743270 1_655
Al1 O9 1.750068 1_555
Al1 O17 1.750344 1_545
Al1 O5 1.779900 1_555
Al2 O14 1.743270 1_565
Al2 O10 1.750068 1_555
Al2 O18 1.750344 1_455
Al2 O6 1.779900 1_555
Al3 O15 1.743270 1_455
Al3 O11 1.750068 1_555
Al3 O19 1.750344 1_565
Al3 O7 1.779900 1_555
Al4 O4 1.802520 1_555
Al4 O2 1.849854 1_555
Al4 O6 1.859831 1_655
Al4 O0 1.922621 1_555
Al4 O20 2.057590 1_655
Al4 O22 2.076923 1_565
Al5 O5 1.802520 1_554
Al5 O3 1.849854 1_555
Al5 O7 1.859831 1_545
Al5 O1 1.922621 1_554
Al5 O21 2.057590 1_544
Al5 O23 2.076923 1_455
Al6 O6 1.802520 1_555
Al6 O0 1.849854 1_555
Al6 O4 1.859831 1_455
Al6 O2 1.922621 1_555
Al6 O22 2.057590 1_455
Al6 O20 2.076923 1_545
Al7 O7 1.802520 1_556
Al7 O1 1.849854 1_555
Al7 O5 1.859831 1_565
Al7 O3 1.922621 1_556
Al7 O23 2.057590 1_566
Al7 O21 2.076923 1_655
O0 Si0 1.719848 1_555
O1 Si1 1.719848 1_555
O2 Si2 1.719848 1_555
O3 Si3 1.719848 1_555
O8 Si0 1.620614 1_555
O9 Si1 1.620614 1_555
O10 Si2 1.620614 1_555
O11 Si3 1.620614 1_555
O12 Si0 1.615283 1_555
O13 Si1 1.615283 1_555
O14 Si2 1.615283 1_555
O15 Si3 1.615283 1_555
O16 Si0 1.622463 1_555
O17 Si1 1.622463 1_555
O18 Si2 1.622463 1_555
O19 Si3 1.622463 1_555
O20 O22 1.385802 1_465
O21 O23 1.385802 1_466
