# generated using pymatgen
data_Ti3Mn(PO4)6
_symmetry_space_group_name_H-M   'P 1'
_cell_length_a   8.81531254
_cell_length_b   8.81531254
_cell_length_c   8.81531262
_cell_angle_alpha   58.39762763
_cell_angle_beta   58.39762763
_cell_angle_gamma   58.39762674
_symmetry_Int_Tables_number   1
_chemical_formula_structural   Ti3Mn(PO4)6
_chemical_formula_sum   'Ti3 Mn1 P6 O24'
_cell_volume   466.62740942
_cell_formula_units_Z   1
loop_
 _symmetry_equiv_pos_site_id
 _symmetry_equiv_pos_as_xyz
  1  'x, y, z'
loop_
 _atom_site_type_symbol
 _atom_site_label
 _atom_site_symmetry_multiplicity
 _atom_site_fract_x
 _atom_site_fract_y
 _atom_site_fract_z
 _atom_site_occupancy
  Ti  Ti0  1  0.85966000  0.85966000  0.85966000  1
  Ti  Ti1  1  0.64080400  0.64080400  0.64080400  1
  Ti  Ti2  1  0.35987400  0.35987400  0.35987400  1
  Mn  Mn0  1  0.14470600  0.14470600  0.14470600  1
  P  P0  1  0.52926000  0.96841400  0.25047100  1
  P  P1  1  0.25047100  0.52926000  0.96841400  1
  P  P2  1  0.96841400  0.25047100  0.52926000  1
  P  P3  1  0.03387900  0.75721600  0.46173000  1
  P  P4  1  0.75721600  0.46173000  0.03387900  1
  P  P5  1  0.46173000  0.03387900  0.75721600  1
  O  O0  1  0.49329300  0.86212800  0.72524300  1
  O  O1  1  0.86212800  0.72524300  0.49329300  1
  O  O2  1  0.70917200  0.93968000  0.07676500  1
  O  O3  1  0.72524300  0.49329300  0.86212800  1
  O  O4  1  0.55774800  0.78835700  0.42476000  1
  O  O5  1  0.35724700  0.99181400  0.22509200  1
  O  O6  1  0.07676500  0.70917200  0.93968000  1
  O  O7  1  0.42476000  0.55774800  0.78835700  1
  O  O8  1  0.78835700  0.42476000  0.55774800  1
  O  O9  1  0.00375800  0.78350200  0.63540200  1
  O  O10  1  0.05982400  0.93053500  0.28013500  1
  O  O11  1  0.78350200  0.63540200  0.00375800  1
  O  O12  1  0.22509200  0.35724700  0.99181400  1
  O  O13  1  0.93968000  0.07676500  0.70917200  1
  O  O14  1  0.99181400  0.22509200  0.35724700  1
  O  O15  1  0.21406700  0.58231600  0.43304000  1
  O  O16  1  0.58231600  0.43304000  0.21406700  1
  O  O17  1  0.93053500  0.28013500  0.05982400  1
  O  O18  1  0.63540200  0.00375800  0.78350200  1
  O  O19  1  0.43304000  0.21406700  0.58231600  1
  O  O20  1  0.27989800  0.50095500  0.13925800  1
  O  O21  1  0.28013500  0.05982400  0.93053500  1
  O  O22  1  0.13925800  0.27989800  0.50095500  1
  O  O23  1  0.50095500  0.13925800  0.27989800  1
loop_
_geom_bond_atom_site_label_1
_geom_bond_atom_site_label_2
_geom_bond_distance
_geom_bond_site_symmetry_2
Mn0 O5 1.890260 1_545
Mn0 O14 1.890260 1_455
Mn0 O12 1.890260 1_554
Mn0 O17 1.931773 1_455
Mn0 O10 1.931773 1_545
Mn0 O21 1.931773 1_554
O0 P5 1.540362 1_565
O0 Ti1 1.974899 1_555
O1 P3 1.540362 1_655
O1 Ti1 1.974899 1_555
O2 P0 1.537701 1_555
O2 Ti0 1.921857 1_554
O3 P4 1.540362 1_556
O3 Ti1 1.974899 1_555
O4 P0 1.540712 1_555
O4 Ti1 1.929278 1_555
O5 P0 1.539894 1_555
O6 P1 1.537701 1_555
O6 Ti0 1.921857 1_455
O7 P1 1.540712 1_555
O7 Ti1 1.929278 1_555
O8 P2 1.540712 1_555
O8 Ti1 1.929278 1_555
O9 P3 1.532759 1_555
O9 Ti0 1.959032 1_455
O10 P3 1.538983 1_555
O11 P4 1.532759 1_555
O11 Ti0 1.959032 1_554
O12 P1 1.539894 1_555
O13 P2 1.537701 1_555
O13 Ti0 1.921857 1_545
O14 P2 1.539894 1_555
O15 P3 1.544389 1_555
O15 Ti2 1.930897 1_555
O16 P4 1.544389 1_555
O16 Ti2 1.930897 1_555
O17 P4 1.538982 1_555
O18 P5 1.532759 1_555
O18 Ti0 1.959032 1_545
O19 P5 1.544389 1_555
O19 Ti2 1.930897 1_555
O20 P1 1.531500 1_554
O20 Ti2 1.951709 1_555
O21 P5 1.538983 1_555
O22 P2 1.531500 1_455
O22 Ti2 1.951709 1_555
O23 P0 1.531500 1_545
O23 Ti2 1.951709 1_555
