# generated using pymatgen
data_Ti2Fe(PO4)3
_symmetry_space_group_name_H-M   'P 1'
_cell_length_a   8.55884731
_cell_length_b   8.55884731
_cell_length_c   8.55884699
_cell_angle_alpha   61.21308375
_cell_angle_beta   61.21308375
_cell_angle_gamma   61.21308592
_symmetry_Int_Tables_number   1
_chemical_formula_structural   Ti2Fe(PO4)3
_chemical_formula_sum   'Ti4 Fe2 P6 O24'
_cell_volume   455.43009548
_cell_formula_units_Z   2
loop_
 _symmetry_equiv_pos_site_id
 _symmetry_equiv_pos_as_xyz
  1  'x, y, z'
loop_
 _atom_site_type_symbol
 _atom_site_label
 _atom_site_symmetry_multiplicity
 _atom_site_fract_x
 _atom_site_fract_y
 _atom_site_fract_z
 _atom_site_occupancy
  Ti  Ti0  1  0.85668500  0.85668500  0.85668500  1
  Ti  Ti1  1  0.64331500  0.64331500  0.64331500  1
  Ti  Ti2  1  0.35668500  0.35668500  0.35668500  1
  Ti  Ti3  1  0.14331500  0.14331500  0.14331500  1
  Fe  Fe0  1  0.00000000  0.00000000  0.00000000  1
  Fe  Fe1  1  0.50000000  0.50000000  0.50000000  1
  P  P0  1  0.75000000  0.45746700  0.04253300  1
  P  P1  1  0.45746700  0.04253300  0.75000000  1
  P  P2  1  0.04253300  0.75000000  0.45746700  1
  P  P3  1  0.95746700  0.25000000  0.54253300  1
  P  P4  1  0.54253300  0.95746700  0.25000000  1
  P  P5  1  0.25000000  0.54253300  0.95746700  1
  O  O0  1  0.88417400  0.68388600  0.49962100  1
  O  O1  1  0.68388600  0.49962100  0.88417400  1
  O  O2  1  0.94310200  0.09076500  0.73757000  1
  O  O3  1  0.49962100  0.88417400  0.68388600  1
  O  O4  1  0.99962100  0.18388600  0.38417400  1
  O  O5  1  0.76243000  0.40923500  0.55689800  1
  O  O6  1  0.73757000  0.94310200  0.09076500  1
  O  O7  1  0.55689800  0.76243000  0.40923500  1
  O  O8  1  0.81611400  0.61582600  0.00037900  1
  O  O9  1  0.40923500  0.55689800  0.76243000  1
  O  O10  1  0.90923500  0.26243000  0.05689800  1
  O  O11  1  0.61582600  0.00037900  0.81611400  1
  O  O12  1  0.38417400  0.99962100  0.18388600  1
  O  O13  1  0.09076500  0.73757000  0.94310200  1
  O  O14  1  0.59076500  0.44310200  0.23757000  1
  O  O15  1  0.18388600  0.38417400  0.99962100  1
  O  O16  1  0.44310200  0.23757000  0.59076500  1
  O  O17  1  0.26243000  0.05689800  0.90923500  1
  O  O18  1  0.23757000  0.59076500  0.44310200  1
  O  O19  1  0.00037900  0.81611400  0.61582600  1
  O  O20  1  0.50037900  0.11582600  0.31611400  1
  O  O21  1  0.05689800  0.90923500  0.26243000  1
  O  O22  1  0.31611400  0.50037900  0.11582600  1
  O  O23  1  0.11582600  0.31611400  0.50037900  1
loop_
_geom_bond_atom_site_label_1
_geom_bond_atom_site_label_2
_geom_bond_distance
_geom_bond_site_symmetry_2
Fe0 O21 2.212284 1_545
Fe0 O2 2.212284 1_454
Fe0 O17 2.212285 1_554
Fe0 O6 2.212285 1_445
Fe0 O10 2.212285 1_455
Fe0 O13 2.212285 1_544
Fe1 O9 2.212284 1_555
Fe1 O14 2.212284 1_555
Fe1 O7 2.212285 1_555
Fe1 O16 2.212285 1_555
Fe1 O5 2.212285 1_555
Fe1 O18 2.212285 1_555
O0 P2 1.535729 1_655
O0 Ti1 1.928507 1_555
O1 P0 1.535729 1_556
O1 Ti1 1.928507 1_555
O2 P3 1.559386 1_555
O2 Ti0 2.081830 1_545
O3 P1 1.535729 1_565
O3 Ti1 1.928507 1_555
O4 P3 1.535729 1_555
O4 Ti3 1.928507 1_655
O5 P3 1.559386 1_555
O5 Ti1 2.081830 1_555
O6 P4 1.559386 1_555
O6 Ti0 2.081830 1_554
O7 P4 1.559386 1_555
O7 Ti1 2.081830 1_555
O8 P0 1.535729 1_555
O8 Ti0 1.928507 1_554
O9 P5 1.559386 1_555
O9 Ti1 2.081830 1_555
O10 P0 1.559386 1_555
O10 Ti3 2.081830 1_655
O11 P1 1.535729 1_555
O11 Ti0 1.928507 1_545
O12 P4 1.535729 1_555
O12 Ti3 1.928507 1_565
O13 P5 1.559386 1_555
O13 Ti0 2.081830 1_455
O14 P0 1.559386 1_555
O14 Ti2 2.081830 1_555
O15 P5 1.535729 1_555
O15 Ti3 1.928507 1_556
O16 P1 1.559386 1_555
O16 Ti2 2.081830 1_555
O17 P1 1.559386 1_555
O17 Ti3 2.081830 1_556
O18 P2 1.559386 1_555
O18 Ti2 2.081830 1_555
O19 P2 1.535729 1_555
O19 Ti0 1.928507 1_455
O20 P4 1.535729 1_545
O20 Ti2 1.928507 1_555
O21 P2 1.559386 1_555
O21 Ti3 2.081830 1_565
O22 P5 1.535729 1_554
O22 Ti2 1.928507 1_555
O23 P3 1.535729 1_455
O23 Ti2 1.928507 1_555
