# generated using pymatgen
data_Li3BiS3
_symmetry_space_group_name_H-M   'P 1'
_cell_length_a   12.42914600
_cell_length_b   4.01150500
_cell_length_c   12.17459146
_cell_angle_alpha   76.03382919
_cell_angle_beta   90.00000000
_cell_angle_gamma   90.00000000
_symmetry_Int_Tables_number   1
_chemical_formula_structural   Li3BiS3
_chemical_formula_sum   'Li12 Bi4 S12'
_cell_volume   589.07554674
_cell_formula_units_Z   4
loop_
 _symmetry_equiv_pos_site_id
 _symmetry_equiv_pos_as_xyz
  1  'x, y, z'
loop_
 _atom_site_type_symbol
 _atom_site_label
 _atom_site_symmetry_multiplicity
 _atom_site_fract_x
 _atom_site_fract_y
 _atom_site_fract_z
 _atom_site_occupancy
  Li  Li0  1  0.45806200  0.87923300  0.61914600  1
  Li  Li1  1  0.96976400  0.77510900  0.60507900  1
  Li  Li2  1  0.21923000  0.48860100  0.02600100  1
  Li  Li3  1  0.04193800  0.87923300  0.11914600  1
  Li  Li4  1  0.53023600  0.77510900  0.10507900  1
  Li  Li5  1  0.71923000  0.51139900  0.47399900  1
  Li  Li6  1  0.28077000  0.48860100  0.52600100  1
  Li  Li7  1  0.46976400  0.22489100  0.89492100  1
  Li  Li8  1  0.95806200  0.12076700  0.88085400  1
  Li  Li9  1  0.78077000  0.51139900  0.97399900  1
  Li  Li10  1  0.03023600  0.22489100  0.39492100  1
  Li  Li11  1  0.54193800  0.12076700  0.38085400  1
  Bi  Bi0  1  0.70693100  0.11651400  0.75096200  1
  Bi  Bi1  1  0.79306900  0.11651400  0.25096200  1
  Bi  Bi2  1  0.20693100  0.88348600  0.74903800  1
  Bi  Bi3  1  0.29306900  0.88348600  0.24903800  1
  S  S0  1  0.64638800  0.93160200  0.56924300  1
  S  S1  1  0.59382700  0.70111200  0.90844900  1
  S  S2  1  0.85361200  0.93160200  0.06924300  1
  S  S3  1  0.87634600  0.70395400  0.78809900  1
  S  S4  1  0.90617300  0.70111200  0.40844900  1
  S  S5  1  0.62365400  0.70395400  0.28809900  1
  S  S6  1  0.37634600  0.29604600  0.71190100  1
  S  S7  1  0.09382700  0.29888800  0.59155100  1
  S  S8  1  0.12365400  0.29604600  0.21190100  1
  S  S9  1  0.14638800  0.06839800  0.93075700  1
  S  S10  1  0.40617300  0.29888800  0.09155100  1
  S  S11  1  0.35361200  0.06839800  0.43075700  1
loop_
_geom_bond_atom_site_label_1
_geom_bond_atom_site_label_2
_geom_bond_distance
_geom_bond_site_symmetry_2
Li0 S0 2.414677 1_555
Li0 S6 2.452333 1_565
Li0 S6 2.550418 1_555
Li0 S11 2.584865 1_565
Li1 S3 2.467283 1_555
Li1 S7 2.491233 1_655
Li1 S7 2.579271 1_665
Li1 S4 2.605097 1_555
Li2 S9 2.439086 1_554
Li2 S9 2.504407 1_564
Li2 S8 2.507249 1_555
Li2 S10 2.514306 1_555
Li3 S2 2.414677 1_455
Li3 S8 2.452333 1_565
Li3 S8 2.550418 1_555
Li3 S9 2.584865 1_564
Li4 S5 2.467283 1_555
Li4 S10 2.491233 1_555
Li4 S10 2.579271 1_565
Li4 S1 2.605097 1_554
Li5 S0 2.439086 1_555
Li5 S0 2.504407 1_545
Li5 S5 2.507249 1_555
Li5 S4 2.514306 1_555
Li6 S11 2.439086 1_555
Li6 S11 2.504407 1_565
Li6 S6 2.507249 1_555
Li6 S7 2.514306 1_555
Li7 S6 2.467283 1_555
Li7 S1 2.491233 1_555
Li7 S1 2.579271 1_545
Li7 S10 2.605097 1_556
Li8 S9 2.414677 1_655
Li8 S3 2.452333 1_545
Li8 S3 2.550418 1_555
Li8 S2 2.584865 1_546
Li9 S2 2.439086 1_556
Li9 S2 2.504407 1_546
Li9 S3 2.507249 1_555
Li9 S1 2.514306 1_555
Li10 S8 2.467283 1_555
Li10 S4 2.491233 1_455
Li10 S4 2.579271 1_445
Li10 S7 2.605097 1_555
Li11 S11 2.414677 1_555
Li11 S5 2.452333 1_545
Li11 S5 2.550418 1_555
Li11 S0 2.584865 1_545
Bi0 S0 2.608283 1_545
Bi0 S1 2.624317 1_545
Bi0 S3 2.648796 1_545
Bi1 S2 2.608283 1_545
Bi1 S4 2.624317 1_545
Bi1 S5 2.648796 1_545
Bi2 S9 2.608283 1_565
Bi2 S7 2.624317 1_565
Bi2 S6 2.648796 1_565
Bi3 S11 2.608283 1_565
Bi3 S10 2.624317 1_565
Bi3 S8 2.648796 1_565
