# generated using pymatgen
data_Ta2Mn2O7
_symmetry_space_group_name_H-M   'P 1'
_cell_length_a   7.32981091
_cell_length_b   7.32981091
_cell_length_c   7.32981091
_cell_angle_alpha   90.00000000
_cell_angle_beta   60.00000000
_cell_angle_gamma   120.00000000
_symmetry_Int_Tables_number   1
_chemical_formula_structural   Ta2Mn2O7
_chemical_formula_sum   'Ta4 Mn4 O14'
_cell_volume   278.46031861
_cell_formula_units_Z   2
loop_
 _symmetry_equiv_pos_site_id
 _symmetry_equiv_pos_as_xyz
  1  'x, y, z'
loop_
 _atom_site_type_symbol
 _atom_site_label
 _atom_site_symmetry_multiplicity
 _atom_site_fract_x
 _atom_site_fract_y
 _atom_site_fract_z
 _atom_site_occupancy
  Ta  Ta0  1  0.50000000  0.50000000  0.50000000  1
  Ta  Ta1  1  0.50000000  0.00000000  0.50000000  1
  Ta  Ta2  1  0.00000000  0.50000000  0.00000000  1
  Ta  Ta3  1  0.00000000  0.50000000  0.50000000  1
  Mn  Mn0  1  0.50000000  0.00000000  0.00000000  1
  Mn  Mn1  1  0.50000000  0.50000000  0.00000000  1
  Mn  Mn2  1  0.00000000  0.00000000  0.00000000  1
  Mn  Mn3  1  0.00000000  0.00000000  0.50000000  1
  O  O0  1  0.25000000  0.12500000  0.12500000  1
  O  O1  1  0.75000000  0.87500000  0.87500000  1
  O  O2  1  0.35708200  0.17854100  0.57145900  1
  O  O3  1  0.75000000  0.57145900  0.57145900  1
  O  O4  1  0.75000000  0.57145900  0.17854100  1
  O  O5  1  0.75000000  0.17854100  0.17854100  1
  O  O6  1  0.75000000  0.17854100  0.57145900  1
  O  O7  1  0.85708200  0.42854100  0.82145900  1
  O  O8  1  0.14291800  0.57145900  0.17854100  1
  O  O9  1  0.25000000  0.42854100  0.42854100  1
  O  O10  1  0.25000000  0.82145900  0.42854100  1
  O  O11  1  0.25000000  0.42854100  0.82145900  1
  O  O12  1  0.25000000  0.82145900  0.82145900  1
  O  O13  1  0.64291800  0.82145900  0.42854100  1
loop_
_geom_bond_atom_site_label_1
_geom_bond_atom_site_label_2
_geom_bond_distance
_geom_bond_site_symmetry_2
Mn0 O1 2.244287 1_544
Mn0 O0 2.244287 1_555
Mn0 O8 2.604444 1_545
Mn0 O7 2.604444 1_554
Mn0 O5 2.604444 1_555
Mn0 O10 2.604444 1_545
Mn0 O6 2.604444 1_554
Mn0 O12 2.604444 1_544
Mn1 O0 2.244287 1_555
Mn1 O1 2.244287 1_554
Mn1 O7 2.604444 1_554
Mn1 O11 2.604444 1_554
Mn1 O4 2.604444 1_555
Mn1 O9 2.604444 1_555
Mn1 O3 2.604444 1_554
Mn1 O8 2.604444 1_555
Mn2 O1 2.244287 1_444
Mn2 O0 2.244287 1_555
Mn2 O4 2.604444 1_445
Mn2 O12 2.604444 1_544
Mn2 O11 2.604444 1_554
Mn2 O2 2.604444 1_554
Mn2 O13 2.604444 1_445
Mn2 O5 2.604444 1_455
Mn3 O1 2.244287 1_445
Mn3 O0 2.244287 1_555
Mn3 O10 2.604444 1_545
Mn3 O3 2.604444 1_445
Mn3 O13 2.604444 1_445
Mn3 O6 2.604444 1_455
Mn3 O9 2.604444 1_555
Mn3 O2 2.604444 1_555
O2 Ta1 1.976506 1_555
O2 Ta0 1.976506 1_555
O3 Ta3 1.976506 1_655
O3 Ta0 1.976506 1_555
O4 Ta0 1.976506 1_555
O4 Ta2 1.976506 1_655
O5 Ta2 1.976506 1_655
O5 Ta1 1.976506 1_555
O6 Ta3 1.976506 1_655
O6 Ta1 1.976506 1_555
O7 Ta2 1.976506 1_656
O7 Ta3 1.976506 1_655
O8 Ta2 1.976506 1_555
O8 Ta3 1.976506 1_555
O9 Ta3 1.976506 1_555
O9 Ta0 1.976506 1_555
O10 Ta1 1.976506 1_565
O10 Ta3 1.976506 1_555
O11 Ta2 1.976506 1_556
O11 Ta0 1.976506 1_555
O12 Ta1 1.976506 1_565
O12 Ta2 1.976506 1_556
O13 Ta1 1.976506 1_565
O13 Ta0 1.976506 1_555
