# generated using pymatgen
data_Li2Fe3CuO8
_symmetry_space_group_name_H-M   'P 1'
_cell_length_a   5.90426587
_cell_length_b   5.90426614
_cell_length_c   5.90426641
_cell_angle_alpha   60.20988614
_cell_angle_beta   60.20988878
_cell_angle_gamma   60.20989165
_symmetry_Int_Tables_number   1
_chemical_formula_structural   Li2Fe3CuO8
_chemical_formula_sum   'Li2 Fe3 Cu1 O8'
_cell_volume   146.23179687
_cell_formula_units_Z   1
loop_
 _symmetry_equiv_pos_site_id
 _symmetry_equiv_pos_as_xyz
  1  'x, y, z'
loop_
 _atom_site_type_symbol
 _atom_site_label
 _atom_site_symmetry_multiplicity
 _atom_site_fract_x
 _atom_site_fract_y
 _atom_site_fract_z
 _atom_site_occupancy
  Li  Li0  1  0.11899600  0.11899600  0.11899600  1
  Li  Li1  1  0.49809400  0.49809400  0.49809400  1
  Fe  Fe0  1  0.00791500  0.49713600  0.49713600  1
  Fe  Fe1  1  0.49713600  0.00791500  0.49713600  1
  Fe  Fe2  1  0.49713600  0.49713600  0.00791500  1
  Cu  Cu0  1  0.87961100  0.87961100  0.87961100  1
  O  O0  1  0.25541500  0.25541500  0.25541500  1
  O  O1  1  0.25311900  0.25311900  0.70890600  1
  O  O2  1  0.25311900  0.70890600  0.25311900  1
  O  O3  1  0.70890600  0.25311900  0.25311900  1
  O  O4  1  0.28434600  0.74943500  0.74943500  1
  O  O5  1  0.74943500  0.28434600  0.74943500  1
  O  O6  1  0.74943500  0.74943500  0.28434600  1
  O  O7  1  0.74733500  0.74733500  0.74733500  1
loop_
_geom_bond_atom_site_label_1
_geom_bond_atom_site_label_2
_geom_bond_distance
_geom_bond_site_symmetry_2
Li0 O0 1.969816 1_555
Li0 O3 1.982288 1_455
Li0 O2 1.982288 1_545
Li0 O1 1.982288 1_554
Li1 O1 2.057766 1_555
Li1 O2 2.057766 1_555
Li1 O3 2.057766 1_555
Li1 O6 2.112697 1_555
Li1 O5 2.112697 1_555
Li1 O4 2.112697 1_555
Fe0 O2 1.916038 1_555
Fe0 O1 1.916039 1_555
Fe0 O5 1.978177 1_455
Fe0 O6 1.978177 1_455
Fe0 O0 2.021988 1_555
Fe0 O7 2.093622 1_455
Fe1 O3 1.916038 1_555
Fe1 O1 1.916039 1_555
Fe1 O4 1.978177 1_545
Fe1 O6 1.978177 1_545
Fe1 O0 2.021988 1_555
Fe1 O7 2.093622 1_545
Fe2 O3 1.916039 1_555
Fe2 O2 1.916039 1_555
Fe2 O4 1.978177 1_554
Fe2 O5 1.978177 1_554
Fe2 O0 2.021988 1_555
Fe2 O7 2.093622 1_554
Cu0 O7 1.909993 1_555
Cu0 O4 1.956762 1_655
Cu0 O5 1.956762 1_565
Cu0 O6 1.956762 1_556
