# generated using pymatgen
data_Na2SnBAsO7
_symmetry_space_group_name_H-M   'P 1'
_cell_length_a   6.94738000
_cell_length_b   5.52506600
_cell_length_c   9.51545959
_cell_angle_alpha   87.18629713
_cell_angle_beta   90.00000000
_cell_angle_gamma   90.00000000
_symmetry_Int_Tables_number   1
_chemical_formula_structural   Na2SnBAsO7
_chemical_formula_sum   'Na4 Sn2 B2 As2 O14'
_cell_volume   364.80804207
_cell_formula_units_Z   2
loop_
 _symmetry_equiv_pos_site_id
 _symmetry_equiv_pos_as_xyz
  1  'x, y, z'
loop_
 _atom_site_type_symbol
 _atom_site_label
 _atom_site_symmetry_multiplicity
 _atom_site_fract_x
 _atom_site_fract_y
 _atom_site_fract_z
 _atom_site_occupancy
  Na  Na0  1  0.48335000  0.76497300  0.82222800  1
  Na  Na1  1  0.01665000  0.76497300  0.82222800  1
  Na  Na2  1  0.51665000  0.23502700  0.17777200  1
  Na  Na3  1  0.98335000  0.23502700  0.17777200  1
  Sn  Sn0  1  0.25000000  0.22436000  0.66210200  1
  Sn  Sn1  1  0.75000000  0.77564000  0.33789800  1
  B  B0  1  0.25000000  0.27752500  0.92651600  1
  B  B1  1  0.75000000  0.72247500  0.07348400  1
  As  As0  1  0.75000000  0.27172300  0.56816200  1
  As  As1  1  0.25000000  0.72827700  0.43183800  1
  O  O0  1  0.75000000  0.68997000  0.93710800  1
  O  O1  1  0.25000000  0.05024000  0.86029900  1
  O  O2  1  0.25000000  0.47025400  0.81741600  1
  O  O3  1  0.94488500  0.19142800  0.67013800  1
  O  O4  1  0.55511500  0.19142800  0.67013800  1
  O  O5  1  0.25000000  0.86527900  0.59126800  1
  O  O6  1  0.75000000  0.58530600  0.53202100  1
  O  O7  1  0.25000000  0.41469400  0.46797900  1
  O  O8  1  0.75000000  0.13472100  0.40873200  1
  O  O9  1  0.44488500  0.80857200  0.32986200  1
  O  O10  1  0.05511500  0.80857200  0.32986200  1
  O  O11  1  0.75000000  0.52974600  0.18258400  1
  O  O12  1  0.75000000  0.94976000  0.13970100  1
  O  O13  1  0.25000000  0.31003000  0.06289200  1
loop_
_geom_bond_atom_site_label_1
_geom_bond_atom_site_label_2
_geom_bond_distance
_geom_bond_site_symmetry_2
Na0 O0 2.180372 1_555
Na0 O2 2.299806 1_555
Na0 O1 2.302094 1_565
Na0 O4 2.749519 1_565
Na0 O5 2.765068 1_555
Na1 O0 2.180372 1_455
Na1 O2 2.299806 1_555
Na1 O1 2.302094 1_565
Na1 O3 2.749519 1_465
Na1 O5 2.765068 1_555
Na2 O13 2.180372 1_555
Na2 O11 2.299806 1_555
Na2 O12 2.302094 1_545
Na2 O9 2.749519 1_545
Na2 O8 2.765068 1_555
Na3 O13 2.180372 1_655
Na3 O11 2.299806 1_555
Na3 O12 2.302094 1_545
Na3 O10 2.749519 1_645
Na3 O8 2.765068 1_555
B0 O13 1.318752 1_556
B0 O1 1.432353 1_555
B0 O2 1.450201 1_555
B1 O0 1.318752 1_554
B1 O12 1.432353 1_555
B1 O11 1.450201 1_555
As0 O3 1.711514 1_555
As0 O4 1.711514 1_555
As0 O8 1.728336 1_555
As0 O6 1.749731 1_555
As1 O10 1.711514 1_555
As1 O9 1.711514 1_555
As1 O5 1.728336 1_555
As1 O7 1.749731 1_555
O1 Sn0 2.074637 1_555
O2 Sn0 2.055968 1_555
O3 Sn0 2.128597 1_655
O4 Sn0 2.128597 1_555
O5 Sn0 2.126412 1_565
O6 Sn1 2.080194 1_555
O7 Sn0 2.080194 1_555
O8 Sn1 2.126412 1_545
O9 Sn1 2.128597 1_555
O10 Sn1 2.128597 1_455
O11 Sn1 2.055968 1_555
O12 Sn1 2.074637 1_555
