# generated using pymatgen
data_Na4V2O5
_symmetry_space_group_name_H-M   'P 1'
_cell_length_a   11.17962599
_cell_length_b   10.58288578
_cell_length_c   5.57705148
_cell_angle_alpha   81.17146629
_cell_angle_beta   69.29399970
_cell_angle_gamma   29.53453401
_symmetry_Int_Tables_number   1
_chemical_formula_structural   Na4V2O5
_chemical_formula_sum   'Na8 V4 O10'
_cell_volume   286.74955875
_cell_formula_units_Z   2
loop_
 _symmetry_equiv_pos_site_id
 _symmetry_equiv_pos_as_xyz
  1  'x, y, z'
loop_
 _atom_site_type_symbol
 _atom_site_label
 _atom_site_symmetry_multiplicity
 _atom_site_fract_x
 _atom_site_fract_y
 _atom_site_fract_z
 _atom_site_occupancy
  Na  Na0  1  0.40550000  0.90580500  0.09329400  1
  Na  Na1  1  0.59540100  0.09329400  0.90580500  1
  Na  Na2  1  0.15670600  0.65459900  0.84450000  1
  Na  Na3  1  0.34419500  0.84450000  0.65459900  1
  Na  Na4  1  0.09329400  0.59540100  0.40550000  1
  Na  Na5  1  0.90580500  0.40550000  0.59540100  1
  Na  Na6  1  0.84450000  0.34419500  0.15670600  1
  Na  Na7  1  0.65459900  0.15670600  0.34419500  1
  V  V0  1  0.95585200  0.54414800  0.95585200  1
  V  V1  1  0.54414800  0.95585200  0.54414800  1
  V  V2  1  0.70585200  0.29414800  0.70585200  1
  V  V3  1  0.29414800  0.70585200  0.29414800  1
  O  O0  1  0.31431900  0.31431900  0.68568100  1
  O  O1  1  0.18200800  0.18200800  0.81799200  1
  O  O2  1  0.75000000  0.75000000  0.75000000  1
  O  O3  1  0.56431900  0.56431900  0.93568100  1
  O  O4  1  0.43200800  0.43200800  0.06799200  1
  O  O5  1  0.50000000  0.50000000  0.50000000  1
  O  O6  1  0.68568100  0.68568100  0.31431900  1
  O  O7  1  0.81799200  0.81799200  0.18200800  1
  O  O8  1  0.93568100  0.93568100  0.56431900  1
  O  O9  1  0.06799200  0.06799200  0.43200800  1
loop_
_geom_bond_atom_site_label_1
_geom_bond_atom_site_label_2
_geom_bond_distance
_geom_bond_site_symmetry_2
Na0 O9 2.331716 1_565
Na0 O3 2.385641 1_554
Na0 O1 2.402233 1_564
Na0 O6 2.430878 1_555
Na0 O2 2.433459 1_554
Na1 O4 2.331716 1_556
Na1 O8 2.385641 1_545
Na1 O7 2.402233 1_546
Na1 O0 2.430878 1_555
Na1 O2 2.433459 1_545
Na2 O7 2.331716 1_456
Na2 O0 2.385641 1_555
Na2 O4 2.402233 1_556
Na2 O8 2.430878 1_455
Na2 O5 2.433459 1_555
Na3 O1 2.331716 1_565
Na3 O6 2.385641 1_555
Na3 O9 2.402233 1_565
Na3 O3 2.430878 1_555
Na3 O5 2.433459 1_555
Na4 O4 2.331716 1_555
Na4 O8 2.385641 1_455
Na4 O7 2.402233 1_455
Na4 O0 2.430878 1_555
Na4 O2 2.433459 1_455
Na5 O9 2.331716 1_655
Na5 O3 2.385641 1_555
Na5 O1 2.402233 1_655
Na5 O6 2.430878 1_555
Na5 O2 2.433459 1_555
Na6 O1 2.331716 1_654
Na6 O6 2.385641 1_555
Na6 O9 2.402233 1_655
Na6 O3 2.430878 1_554
Na6 O5 2.433459 1_555
Na7 O7 2.331716 1_545
Na7 O0 2.385641 1_555
Na7 O4 2.402233 1_555
Na7 O8 2.430878 1_545
Na7 O5 2.433459 1_555
O0 V1 2.034672 1_545
O0 V0 2.034672 1_455
O1 V1 2.083266 1_545
O1 V0 2.083266 1_455
O2 V0 1.933038 1_555
O2 V1 1.933038 1_555
O3 V3 2.034672 1_556
O3 V2 2.034672 1_555
O4 V3 2.083266 1_555
O4 V2 2.083266 1_554
O5 V2 1.933038 1_555
O5 V3 1.933038 1_555
O6 V1 2.034672 1_555
O6 V0 2.034672 1_554
O7 V1 2.083266 1_555
O7 V0 2.083266 1_554
O8 V2 2.034672 1_565
O8 V3 2.034672 1_655
O9 V2 2.083266 1_455
O9 V3 2.083266 1_545
