# generated using pymatgen
data_Li2VP2O7
_symmetry_space_group_name_H-M   'P 1'
_cell_length_a   13.71476300
_cell_length_b   5.16057900
_cell_length_c   9.37147524
_cell_angle_alpha   58.28115352
_cell_angle_beta   90.00000000
_cell_angle_gamma   90.00000000
_symmetry_Int_Tables_number   1
_chemical_formula_structural   Li2VP2O7
_chemical_formula_sum   'Li8 V4 P8 O28'
_cell_volume   564.20845645
_cell_formula_units_Z   4
loop_
 _symmetry_equiv_pos_site_id
 _symmetry_equiv_pos_as_xyz
  1  'x, y, z'
loop_
 _atom_site_type_symbol
 _atom_site_label
 _atom_site_symmetry_multiplicity
 _atom_site_fract_x
 _atom_site_fract_y
 _atom_site_fract_z
 _atom_site_occupancy
  Li  Li0  1  0.60344600  0.04421000  0.63815700  1
  Li  Li1  1  0.19590100  0.56819200  0.66680500  1
  Li  Li2  1  0.69590100  0.43180800  0.83319500  1
  Li  Li3  1  0.10344600  0.95579000  0.86184300  1
  Li  Li4  1  0.89655400  0.04421000  0.13815700  1
  Li  Li5  1  0.30409900  0.56819200  0.16680500  1
  Li  Li6  1  0.80409900  0.43180800  0.33319500  1
  Li  Li7  1  0.39655400  0.95579000  0.36184300  1
  V  V0  1  0.84003500  0.02663900  0.76587800  1
  V  V1  1  0.34003500  0.97336100  0.73412200  1
  V  V2  1  0.65996500  0.02663900  0.26587800  1
  V  V3  1  0.15996500  0.97336100  0.23412200  1
  P  P0  1  0.82252100  0.73994500  0.53132900  1
  P  P1  1  0.47362500  0.47684900  0.72530200  1
  P  P2  1  0.97362500  0.52315100  0.77469800  1
  P  P3  1  0.32252100  0.26005500  0.96867100  1
  P  P4  1  0.67747900  0.73994500  0.03132900  1
  P  P5  1  0.02637500  0.47684900  0.22530200  1
  P  P6  1  0.52637500  0.52315100  0.27469800  1
  P  P7  1  0.17747900  0.26005500  0.46867100  1
  O  O0  1  0.93731200  0.70003800  0.57570300  1
  O  O1  1  0.78882100  0.44343600  0.54487400  1
  O  O2  1  0.77139900  0.79386400  0.65971500  1
  O  O3  1  0.18955800  0.98255900  0.64806900  1
  O  O4  1  0.39710500  0.72839600  0.62321800  1
  O  O5  1  0.47210600  0.22583800  0.68279200  1
  O  O6  1  0.57308800  0.60442000  0.72380800  1
  O  O7  1  0.07308800  0.39558000  0.77619200  1
  O  O8  1  0.97210600  0.77416200  0.81720800  1
  O  O9  1  0.89710500  0.27160400  0.87678200  1
  O  O10  1  0.27139900  0.20613600  0.84028500  1
  O  O11  1  0.68955800  0.01744100  0.85193100  1
  O  O12  1  0.28882100  0.55656400  0.95512600  1
  O  O13  1  0.43731200  0.29996200  0.92429700  1
  O  O14  1  0.56268800  0.70003800  0.07570300  1
  O  O15  1  0.71117900  0.44343600  0.04487400  1
  O  O16  1  0.31044200  0.98255900  0.14806900  1
  O  O17  1  0.72860100  0.79386400  0.15971500  1
  O  O18  1  0.10289500  0.72839600  0.12321800  1
  O  O19  1  0.02789400  0.22583800  0.18279200  1
  O  O20  1  0.92691200  0.60442000  0.22380800  1
  O  O21  1  0.42691200  0.39558000  0.27619200  1
  O  O22  1  0.52789400  0.77416200  0.31720800  1
  O  O23  1  0.60289500  0.27160400  0.37678200  1
  O  O24  1  0.81044200  0.01744100  0.35193100  1
  O  O25  1  0.22860100  0.20613600  0.34028500  1
  O  O26  1  0.21117900  0.55656400  0.45512600  1
  O  O27  1  0.06268800  0.29996200  0.42429700  1
loop_
_geom_bond_atom_site_label_1
_geom_bond_atom_site_label_2
_geom_bond_distance
_geom_bond_site_symmetry_2
Li0 O6 2.013215 1_545
Li0 O23 2.086760 1_555
Li0 O5 2.170357 1_555
Li0 O11 2.266357 1_555
Li0 O2 2.596394 1_545
Li1 O7 1.929043 1_555
Li1 O10 2.003041 1_555
Li1 O26 2.026800 1_555
Li1 O3 2.053348 1_555
Li2 O6 1.929043 1_555
Li2 O2 2.003041 1_555
Li2 O15 2.026800 1_556
Li2 O11 2.053348 1_555
Li3 O7 2.013215 1_565
Li3 O18 2.086760 1_556
Li3 O8 2.170357 1_455
Li3 O3 2.266357 1_555
Li3 O10 2.596394 1_565
Li4 O20 2.013215 1_545
Li4 O9 2.086760 1_554
Li4 O19 2.170357 1_655
Li4 O24 2.266357 1_555
Li4 O17 2.596394 1_545
Li5 O21 1.929043 1_555
Li5 O25 2.003041 1_555
Li5 O12 2.026800 1_554
Li5 O16 2.053348 1_555
Li6 O20 1.929043 1_555
Li6 O17 2.003041 1_555
Li6 O1 2.026800 1_555
Li6 O24 2.053348 1_555
Li7 O21 2.013215 1_565
Li7 O4 2.086760 1_555
Li7 O22 2.170357 1_555
Li7 O16 2.266357 1_555
Li7 O25 2.596394 1_565
O0 P0 1.613633 1_555
O0 P2 1.664050 1_555
O1 P0 1.538466 1_555
O1 V0 2.173731 1_555
O2 P0 1.539038 1_555
O2 V0 2.139071 1_565
O3 P7 1.540493 1_565
O3 V1 2.207135 1_555
O4 P1 1.547860 1_555
O4 V1 2.161596 1_555
O5 P1 1.542638 1_555
O5 V1 2.133277 1_545
O6 P1 1.511528 1_555
O7 P2 1.511528 1_455
O8 P2 1.542638 1_555
O8 V0 2.133277 1_565
O9 P2 1.547860 1_555
O9 V0 2.161596 1_555
O10 P3 1.539038 1_555
O10 V1 2.139071 1_545
O11 P4 1.540493 1_546
O11 V0 2.207135 1_555
O12 P3 1.538466 1_555
O12 V1 2.173731 1_555
O13 P3 1.613633 1_555
O13 P1 1.664050 1_555
O14 P4 1.613633 1_555
O14 P6 1.664050 1_555
O15 P4 1.538466 1_555
O15 V2 2.173731 1_555
O16 P3 1.540493 1_564
O16 V3 2.207135 1_555
O17 P4 1.539038 1_555
O17 V2 2.139071 1_565
O18 P5 1.547860 1_555
O18 V3 2.161596 1_555
O19 P5 1.542638 1_555
O19 V3 2.133277 1_545
O20 P5 1.511528 1_655
O21 P6 1.511528 1_555
O22 P6 1.542638 1_555
O22 V2 2.133277 1_565
O23 P6 1.547860 1_555
O23 V2 2.161596 1_555
O24 P0 1.540493 1_545
O24 V2 2.207135 1_555
O25 P7 1.539038 1_555
O25 V3 2.139071 1_545
O26 P7 1.538466 1_555
O26 V3 2.173731 1_555
O27 P7 1.613633 1_555
O27 P5 1.664050 1_555
