# generated using pymatgen
data_LiCu4(PO4)3
_symmetry_space_group_name_H-M   'P 1'
_cell_length_a   6.20955200
_cell_length_b   9.64043600
_cell_length_c   15.96557300
_cell_angle_alpha   90.00000000
_cell_angle_beta   90.00000000
_cell_angle_gamma   90.00000000
_symmetry_Int_Tables_number   1
_chemical_formula_structural   LiCu4(PO4)3
_chemical_formula_sum   'Li4 Cu16 P12 O48'
_cell_volume   955.74372209
_cell_formula_units_Z   4
loop_
 _symmetry_equiv_pos_site_id
 _symmetry_equiv_pos_as_xyz
  1  'x, y, z'
loop_
 _atom_site_type_symbol
 _atom_site_label
 _atom_site_symmetry_multiplicity
 _atom_site_fract_x
 _atom_site_fract_y
 _atom_site_fract_z
 _atom_site_occupancy
  Li  Li0  1  0.00000000  0.27720100  0.46968800  1
  Li  Li1  1  0.00000000  0.72279900  0.53031200  1
  Li  Li2  1  0.50000000  0.77720100  0.03031200  1
  Li  Li3  1  0.50000000  0.22279900  0.96968800  1
  Cu  Cu0  1  0.00000000  0.53997200  0.09554300  1
  Cu  Cu1  1  0.00000000  0.97235600  0.15113200  1
  Cu  Cu2  1  0.00000000  0.02764400  0.84886800  1
  Cu  Cu3  1  0.00000000  0.46002800  0.90445700  1
  Cu  Cu4  1  0.75093300  0.74908100  0.30389800  1
  Cu  Cu5  1  0.75093300  0.25091900  0.69610200  1
  Cu  Cu6  1  0.74906700  0.24908100  0.19610200  1
  Cu  Cu7  1  0.74906700  0.75091900  0.80389800  1
  Cu  Cu8  1  0.50000000  0.96002800  0.59554300  1
  Cu  Cu9  1  0.50000000  0.03997200  0.40445700  1
  Cu  Cu10  1  0.50000000  0.52764400  0.65113200  1
  Cu  Cu11  1  0.50000000  0.47235600  0.34886800  1
  Cu  Cu12  1  0.25093300  0.75091900  0.80389800  1
  Cu  Cu13  1  0.25093300  0.24908100  0.19610200  1
  Cu  Cu14  1  0.24906700  0.74908100  0.30389800  1
  Cu  Cu15  1  0.24906700  0.25091900  0.69610200  1
  P  P0  1  0.00000000  0.20932400  0.02872700  1
  P  P1  1  0.00000000  0.04557100  0.33990100  1
  P  P2  1  0.00000000  0.45982100  0.28429500  1
  P  P3  1  0.00000000  0.54017900  0.71570500  1
  P  P4  1  0.00000000  0.95442900  0.66009900  1
  P  P5  1  0.00000000  0.79067600  0.97127300  1
  P  P6  1  0.50000000  0.95982100  0.21570500  1
  P  P7  1  0.50000000  0.29067600  0.52872700  1
  P  P8  1  0.50000000  0.54557100  0.16009900  1
  P  P9  1  0.50000000  0.70932400  0.47127300  1
  P  P10  1  0.50000000  0.04017900  0.78429500  1
  P  P11  1  0.50000000  0.45442900  0.83990100  1
  O  O0  1  0.00000000  0.36918200  0.01366800  1
  O  O1  1  0.00000000  0.10878600  0.24553200  1
  O  O2  1  0.00000000  0.39431200  0.19078200  1
  O  O3  1  0.00000000  0.86206600  0.05502700  1
  O  O4  1  0.00000000  0.62066700  0.27455400  1
  O  O5  1  0.00000000  0.11530700  0.67057900  1
  O  O6  1  0.00000000  0.88469300  0.32942100  1
  O  O7  1  0.00000000  0.37933300  0.72544600  1
  O  O8  1  0.00000000  0.13793400  0.94497300  1
  O  O9  1  0.00000000  0.60568800  0.80921800  1
  O  O10  1  0.00000000  0.89121400  0.75446800  1
  O  O11  1  0.00000000  0.63081800  0.98633200  1
  O  O12  1  0.79260100  0.17028300  0.07860900  1
  O  O13  1  0.79260100  0.82971700  0.92139100  1
  O  O14  1  0.80146500  0.09899200  0.38641100  1
  O  O15  1  0.80146500  0.90100800  0.61358900  1
  O  O16  1  0.79737000  0.40130100  0.32544700  1
  O  O17  1  0.79737000  0.59869900  0.67455300  1
  O  O18  1  0.70263000  0.90130100  0.17455300  1
  O  O19  1  0.70263000  0.09869900  0.82544700  1
  O  O20  1  0.69853500  0.40100800  0.88641100  1
  O  O21  1  0.69853500  0.59899200  0.11358900  1
  O  O22  1  0.70739900  0.32971700  0.57860900  1
  O  O23  1  0.70739900  0.67028300  0.42139100  1
  O  O24  1  0.50000000  0.38469300  0.17057900  1
  O  O25  1  0.50000000  0.36206600  0.44497300  1
  O  O26  1  0.50000000  0.13081800  0.51366800  1
  O  O27  1  0.50000000  0.12066700  0.22544600  1
  O  O28  1  0.50000000  0.63793400  0.55502700  1
  O  O29  1  0.50000000  0.86918200  0.48633200  1
  O  O30  1  0.50000000  0.10568800  0.69078200  1
  O  O31  1  0.50000000  0.60878600  0.25446800  1
  O  O32  1  0.50000000  0.89431200  0.30921800  1
  O  O33  1  0.50000000  0.87933300  0.77455400  1
  O  O34  1  0.50000000  0.61530700  0.82942100  1
  O  O35  1  0.50000000  0.39121400  0.74553200  1
  O  O36  1  0.29260100  0.67028300  0.42139100  1
  O  O37  1  0.29260100  0.32971700  0.57860900  1
  O  O38  1  0.30146500  0.59899200  0.11358900  1
  O  O39  1  0.30146500  0.40100800  0.88641100  1
  O  O40  1  0.29737000  0.90130100  0.17455300  1
  O  O41  1  0.29737000  0.09869900  0.82544700  1
  O  O42  1  0.20263000  0.40130100  0.32544700  1
  O  O43  1  0.20263000  0.59869900  0.67455300  1
  O  O44  1  0.19853500  0.09899200  0.38641100  1
  O  O45  1  0.19853500  0.90100800  0.61358900  1
  O  O46  1  0.20739900  0.17028300  0.07860900  1
  O  O47  1  0.20739900  0.82971700  0.92139100  1
loop_
_geom_bond_atom_site_label_1
_geom_bond_atom_site_label_2
_geom_bond_distance
_geom_bond_site_symmetry_2
Li0 O14 2.497827 1_455
Li0 O44 2.497827 1_555
Li0 O37 2.565461 1_555
Li0 O22 2.565461 1_455
Li1 O45 2.497827 1_555
Li1 O15 2.497827 1_455
Li1 O23 2.565461 1_455
Li1 O36 2.565461 1_555
Li2 O21 2.497827 1_555
Li2 O38 2.497827 1_555
Li2 O13 2.565461 1_554
Li2 O47 2.565461 1_554
Li3 O39 2.497827 1_555
Li3 O20 2.497827 1_555
Li3 O46 2.565461 1_556
Li3 O12 2.565461 1_556
Cu0 O11 1.951208 1_554
Cu0 O38 1.977622 1_555
Cu0 O21 1.977622 1_455
Cu0 O2 2.069760 1_555
Cu0 O0 2.102297 1_555
Cu1 O3 1.866757 1_555
Cu1 O1 2.000342 1_565
Cu1 O18 2.004679 1_455
Cu1 O40 2.004679 1_555
Cu1 O12 2.576837 1_465
Cu1 O46 2.576837 1_565
Cu2 O8 1.866757 1_555
Cu2 O10 2.000342 1_545
Cu2 O19 2.004679 1_455
Cu2 O41 2.004679 1_555
Cu2 O13 2.576837 1_445
Cu2 O47 2.576837 1_545
Cu3 O0 1.951208 1_556
Cu3 O20 1.977622 1_455
Cu3 O39 1.977622 1_555
Cu3 O9 2.069760 1_555
Cu3 O11 2.102297 1_555
Cu4 O4 2.035682 1_655
Cu4 O23 2.041795 1_555
Cu4 O6 2.065718 1_655
Cu4 O32 2.096520 1_555
Cu4 O31 2.209073 1_555
Cu4 O18 2.551064 1_555
Cu5 O7 2.035682 1_655
Cu5 O22 2.041795 1_555
Cu5 O5 2.065718 1_655
Cu5 O30 2.096520 1_555
Cu5 O35 2.209073 1_555
Cu5 O19 2.551064 1_555
Cu6 O27 2.035682 1_555
Cu6 O12 2.041795 1_555
Cu6 O24 2.065718 1_555
Cu6 O2 2.096520 1_655
Cu6 O1 2.209073 1_655
Cu6 O16 2.551064 1_555
Cu7 O33 2.035682 1_555
Cu7 O13 2.041795 1_555
Cu7 O34 2.065718 1_555
Cu7 O9 2.096520 1_655
Cu7 O10 2.209073 1_655
Cu7 O17 2.551064 1_555
Cu8 O29 1.951208 1_555
Cu8 O15 1.977622 1_555
Cu8 O45 1.977622 1_555
Cu8 O30 2.069760 1_565
Cu8 O26 2.102297 1_565
Cu9 O26 1.951208 1_555
Cu9 O14 1.977622 1_555
Cu9 O44 1.977622 1_555
Cu9 O32 2.069760 1_545
Cu9 O29 2.102297 1_545
Cu10 O28 1.866757 1_555
Cu10 O35 2.000342 1_555
Cu10 O17 2.004679 1_555
Cu10 O43 2.004679 1_555
Cu10 O37 2.576837 1_555
Cu10 O22 2.576837 1_555
Cu11 O25 1.866757 1_555
Cu11 O31 2.000342 1_555
Cu11 O42 2.004679 1_555
Cu11 O16 2.004679 1_555
Cu11 O36 2.576837 1_555
Cu11 O23 2.576837 1_555
Cu12 O33 2.035682 1_555
Cu12 O47 2.041795 1_555
Cu12 O34 2.065718 1_555
Cu12 O9 2.096520 1_555
Cu12 O10 2.209073 1_555
Cu12 O43 2.551064 1_555
Cu13 O27 2.035682 1_555
Cu13 O46 2.041795 1_555
Cu13 O24 2.065718 1_555
Cu13 O2 2.096520 1_555
Cu13 O1 2.209073 1_555
Cu13 O42 2.551064 1_555
Cu14 O4 2.035682 1_555
Cu14 O36 2.041795 1_555
Cu14 O6 2.065718 1_555
Cu14 O32 2.096520 1_555
Cu14 O31 2.209073 1_555
Cu14 O40 2.551064 1_555
Cu15 O7 2.035682 1_555
Cu15 O37 2.041795 1_555
Cu15 O5 2.065718 1_555
Cu15 O30 2.096520 1_555
Cu15 O35 2.209073 1_555
Cu15 O41 2.551064 1_555
O0 P0 1.559742 1_555
O1 P1 1.625239 1_555
O2 P2 1.621065 1_555
O3 P5 1.503899 1_554
O4 P2 1.558405 1_555
O5 P4 1.559933 1_545
O6 P1 1.559933 1_565
O7 P3 1.558405 1_555
O8 P0 1.503899 1_556
O9 P3 1.621065 1_555
O10 P4 1.625239 1_555
O11 P5 1.559742 1_555
O12 P0 1.560279 1_655
O13 P5 1.560279 1_655
O14 P1 1.528545 1_655
O15 P4 1.528545 1_655
O16 P2 1.527454 1_655
O17 P3 1.527454 1_655
O18 P6 1.527454 1_555
O19 P10 1.527454 1_555
O20 P11 1.528545 1_555
O21 P8 1.528545 1_555
O22 P7 1.560279 1_555
O23 P9 1.560279 1_555
O24 P8 1.559933 1_555
O25 P7 1.503899 1_555
O26 P7 1.559742 1_555
O27 P6 1.558405 1_545
O28 P9 1.503899 1_555
O29 P9 1.559742 1_555
O30 P10 1.621065 1_555
O31 P8 1.625239 1_555
O32 P6 1.621065 1_555
O33 P10 1.558405 1_565
O34 P11 1.559933 1_555
O35 P11 1.625239 1_555
O36 P9 1.560279 1_555
O37 P7 1.560279 1_555
O38 P8 1.528545 1_555
O39 P11 1.528545 1_555
O40 P6 1.527454 1_555
O41 P10 1.527454 1_555
O42 P2 1.527454 1_555
O43 P3 1.527454 1_555
O44 P1 1.528545 1_555
O45 P4 1.528545 1_555
O46 P0 1.560279 1_555
O47 P5 1.560279 1_555
