# generated using pymatgen
data_NaV4O10
_symmetry_space_group_name_H-M   'P 1'
_cell_length_a   6.15819008
_cell_length_b   6.15819008
_cell_length_c   18.76153800
_cell_angle_alpha   90.00000000
_cell_angle_beta   90.00000000
_cell_angle_gamma   145.23104396
_symmetry_Int_Tables_number   1
_chemical_formula_structural   NaV4O10
_chemical_formula_sum   'Na2 V8 O20'
_cell_volume   405.74581809
_cell_formula_units_Z   2
loop_
 _symmetry_equiv_pos_site_id
 _symmetry_equiv_pos_as_xyz
  1  'x, y, z'
loop_
 _atom_site_type_symbol
 _atom_site_label
 _atom_site_symmetry_multiplicity
 _atom_site_fract_x
 _atom_site_fract_y
 _atom_site_fract_z
 _atom_site_occupancy
  Na  Na0  1  0.92009200  0.07990800  0.25000000  1
  Na  Na1  1  0.07990800  0.92009200  0.75000000  1
  V  V0  1  0.56341500  0.43658500  0.08149900  1
  V  V1  1  0.72947800  0.27052200  0.58300400  1
  V  V2  1  0.72947800  0.27052200  0.91699600  1
  V  V3  1  0.56341500  0.43658500  0.41850100  1
  V  V4  1  0.27052200  0.72947800  0.41699600  1
  V  V5  1  0.27052200  0.72947800  0.08300400  1
  V  V6  1  0.43658500  0.56341500  0.58149900  1
  V  V7  1  0.43658500  0.56341500  0.91850100  1
  O  O0  1  0.73970500  0.26029500  0.06058200  1
  O  O1  1  0.89881300  0.10118700  0.56768800  1
  O  O2  1  0.54100400  0.45899600  0.16788500  1
  O  O3  1  0.73970500  0.26029500  0.43941800  1
  O  O4  1  0.70431000  0.29569000  0.83118800  1
  O  O5  1  0.70431000  0.29569000  0.66881200  1
  O  O6  1  0.57994200  0.42005800  0.54796500  1
  O  O7  1  0.89881300  0.10118700  0.93231200  1
  O  O8  1  0.54100400  0.45899600  0.33211500  1
  O  O9  1  0.57994200  0.42005800  0.95203500  1
  O  O10  1  0.29569000  0.70431000  0.16881200  1
  O  O11  1  0.42005800  0.57994200  0.45203500  1
  O  O12  1  0.29569000  0.70431000  0.33118800  1
  O  O13  1  0.10118700  0.89881300  0.43231200  1
  O  O14  1  0.45899600  0.54100400  0.83211500  1
  O  O15  1  0.42005800  0.57994200  0.04796500  1
  O  O16  1  0.45899600  0.54100400  0.66788500  1
  O  O17  1  0.10118700  0.89881300  0.06768800  1
  O  O18  1  0.26029500  0.73970500  0.56058200  1
  O  O19  1  0.26029500  0.73970500  0.93941800  1
loop_
_geom_bond_atom_site_label_1
_geom_bond_atom_site_label_2
_geom_bond_distance
_geom_bond_site_symmetry_2
Na0 O2 2.789021 1_655
Na0 O8 2.789021 1_655
Na0 O8 2.789021 1_545
Na0 O2 2.789021 1_545
Na0 O10 2.800648 1_545
Na0 O12 2.800648 1_655
Na0 O12 2.800648 1_545
Na0 O10 2.800648 1_655
Na1 O14 2.789021 1_455
Na1 O16 2.789021 1_565
Na1 O16 2.789021 1_455
Na1 O14 2.789021 1_565
Na1 O5 2.800648 1_455
Na1 O4 2.800648 1_565
Na1 O4 2.800648 1_455
Na1 O5 2.800648 1_565
O0 V5 1.921877 1_655
O0 V5 1.921877 1_545
O0 V0 2.108909 1_555
O1 V6 1.910416 1_545
O1 V6 1.910416 1_655
O1 V1 2.010963 1_555
O2 V0 1.642001 1_555
O3 V4 1.921877 1_655
O3 V4 1.921877 1_545
O3 V3 2.108909 1_555
O4 V2 1.636843 1_555
O5 V1 1.636843 1_555
O6 V6 1.798614 1_555
O6 V1 1.876529 1_555
O6 V3 2.436699 1_555
O7 V7 1.910416 1_655
O7 V7 1.910416 1_545
O7 V2 2.010963 1_555
O8 V3 1.642001 1_555
O9 V7 1.798614 1_555
O9 V2 1.876529 1_555
O9 V0 2.436699 1_556
O10 V5 1.636843 1_555
O11 V3 1.798614 1_555
O11 V4 1.876529 1_555
O11 V6 2.436699 1_555
O12 V4 1.636843 1_555
O13 V3 1.910416 1_455
O13 V3 1.910416 1_565
O13 V4 2.010963 1_555
O14 V7 1.642001 1_555
O15 V0 1.798614 1_555
O15 V5 1.876529 1_555
O15 V7 2.436699 1_554
O16 V6 1.642001 1_555
O17 V0 1.910416 1_565
O17 V0 1.910416 1_455
O17 V5 2.010963 1_555
O18 V1 1.921877 1_565
O18 V1 1.921877 1_455
O18 V6 2.108909 1_555
O19 V2 1.921877 1_565
O19 V2 1.921877 1_455
O19 V7 2.108909 1_555
