# generated using pymatgen
data_Li4CoO4
_symmetry_space_group_name_H-M   'P 1'
_cell_length_a   6.40722700
_cell_length_b   4.85756400
_cell_length_c   6.41181666
_cell_angle_alpha   89.25318225
_cell_angle_beta   90.00000000
_cell_angle_gamma   90.00000000
_symmetry_Int_Tables_number   1
_chemical_formula_structural   Li4CoO4
_chemical_formula_sum   'Li8 Co2 O8'
_cell_volume   199.54132164
_cell_formula_units_Z   2
loop_
 _symmetry_equiv_pos_site_id
 _symmetry_equiv_pos_as_xyz
  1  'x, y, z'
loop_
 _atom_site_type_symbol
 _atom_site_label
 _atom_site_symmetry_multiplicity
 _atom_site_fract_x
 _atom_site_fract_y
 _atom_site_fract_z
 _atom_site_occupancy
  Li  Li0  1  0.75677000  0.75625500  0.57150400  1
  Li  Li1  1  0.24323000  0.75625500  0.57150400  1
  Li  Li2  1  0.30581900  0.24448000  0.47830400  1
  Li  Li3  1  0.69418100  0.24448000  0.47830400  1
  Li  Li4  1  0.00000000  0.30883200  0.26510500  1
  Li  Li5  1  0.00000000  0.79001200  0.19525200  1
  Li  Li6  1  0.29227800  0.27052500  0.00582300  1
  Li  Li7  1  0.70772200  0.27052500  0.00582300  1
  Co  Co0  1  0.00000000  0.23592600  0.74684100  1
  Co  Co1  1  0.50000000  0.74218900  0.23877100  1
  O  O0  1  0.50000000  0.98544100  0.03705700  1
  O  O1  1  0.23478000  0.42816600  0.73076700  1
  O  O2  1  0.76522000  0.42816600  0.73076700  1
  O  O3  1  0.50000000  0.94479600  0.47885400  1
  O  O4  1  0.00000000  0.02455500  0.50344100  1
  O  O5  1  0.74186800  0.53262300  0.25961400  1
  O  O6  1  0.25813200  0.53262300  0.25961400  1
  O  O7  1  0.00000000  0.10120800  0.01067700  1
loop_
_geom_bond_atom_site_label_1
_geom_bond_atom_site_label_2
_geom_bond_distance
_geom_bond_site_symmetry_2
Li0 O2 1.882341 1_555
Li0 O3 1.970819 1_555
Li0 O4 2.074338 1_665
Li0 O5 2.290182 1_555
Li1 O1 1.882341 1_555
Li1 O3 1.970819 1_555
Li1 O4 2.074338 1_565
Li1 O6 2.290182 1_555
Li2 O1 1.913454 1_555
Li2 O3 1.914936 1_545
Li2 O6 1.991844 1_555
Li2 O4 2.236561 1_555
Li3 O2 1.913454 1_555
Li3 O3 1.914936 1_545
Li3 O5 1.991844 1_555
Li3 O4 2.236561 1_655
Li4 O7 1.929079 1_555
Li4 O6 1.979243 1_555
Li4 O5 1.979243 1_455
Li4 O4 2.046253 1_555
Li5 O7 1.907628 1_565
Li5 O6 2.110801 1_555
Li5 O5 2.110801 1_455
Li5 O4 2.293794 1_565
Li6 O0 1.929233 1_545
Li6 O1 1.948642 1_554
Li6 O7 2.045417 1_555
Li6 O6 2.090642 1_555
Li7 O0 1.929233 1_545
Li7 O2 1.948642 1_554
Li7 O7 2.045417 1_655
Li7 O5 2.090642 1_555
Co0 O1 1.772855 1_555
Co0 O2 1.772855 1_455
Co0 O7 1.805858 1_556
Co0 O4 1.879247 1_555
Co1 O0 1.740440 1_555
Co1 O3 1.837866 1_555
Co1 O5 1.858004 1_555
Co1 O6 1.858004 1_555
