# generated using pymatgen
data_LiCo2(PO4)2
_symmetry_space_group_name_H-M   'P 1'
_cell_length_a   8.43344380
_cell_length_b   5.28068600
_cell_length_c   16.56874343
_cell_angle_alpha   90.00000000
_cell_angle_beta   105.26015704
_cell_angle_gamma   90.00000000
_symmetry_Int_Tables_number   1
_chemical_formula_structural   LiCo2(PO4)2
_chemical_formula_sum   'Li4 Co8 P8 O32'
_cell_volume   711.86143212
_cell_formula_units_Z   4
loop_
 _symmetry_equiv_pos_site_id
 _symmetry_equiv_pos_as_xyz
  1  'x, y, z'
loop_
 _atom_site_type_symbol
 _atom_site_label
 _atom_site_symmetry_multiplicity
 _atom_site_fract_x
 _atom_site_fract_y
 _atom_site_fract_z
 _atom_site_occupancy
  Li  Li0  1  0.08032100  0.85244100  0.48434100  1
  Li  Li1  1  0.58032100  0.14755900  0.98434100  1
  Li  Li2  1  0.28059800  0.33929800  0.25036800  1
  Li  Li3  1  0.78059800  0.66070200  0.75036800  1
  Co  Co0  1  0.20549600  0.31457200  0.93770400  1
  Co  Co1  1  0.22159700  0.33582300  0.43350700  1
  Co  Co2  1  0.37737700  0.81608100  0.68757600  1
  Co  Co3  1  0.72159700  0.66417700  0.93350700  1
  Co  Co4  1  0.37843100  0.82552400  0.18005200  1
  Co  Co5  1  0.70549600  0.68542800  0.43770400  1
  Co  Co6  1  0.87843100  0.17447600  0.68005200  1
  Co  Co7  1  0.87737700  0.18391900  0.18757600  1
  P  P0  1  0.00212200  0.66957000  0.62039500  1
  P  P1  1  0.33809800  0.81664000  0.87439100  1
  P  P2  1  0.00576800  0.67750900  0.12131400  1
  P  P3  1  0.33193800  0.83084400  0.36784400  1
  P  P4  1  0.50576800  0.32249100  0.62131400  1
  P  P5  1  0.83193800  0.16915600  0.86784400  1
  P  P6  1  0.50212200  0.33043000  0.12039500  1
  P  P7  1  0.83809800  0.18336000  0.37439100  1
  O  O0  1  0.00099300  0.19200600  0.93597700  1
  O  O1  1  0.03078500  0.39123200  0.64394400  1
  O  O2  1  0.21369600  0.65166800  0.90566600  1
  O  O3  1  0.00916400  0.18942800  0.43858100  1
  O  O4  1  0.16491800  0.79459100  0.61096500  1
  O  O5  1  0.27430100  0.09391300  0.86243600  1
  O  O6  1  0.03865700  0.41114400  0.16742300  1
  O  O7  1  0.35144100  0.70751900  0.78972800  1
  O  O8  1  0.20226200  0.70470300  0.40650900  1
  O  O9  1  0.50916400  0.81057200  0.93858100  1
  O  O10  1  0.16558300  0.76773400  0.10401000  1
  O  O11  1  0.45456100  0.14093400  0.68564300  1
  O  O12  1  0.28807000  0.11549500  0.34936400  1
  O  O13  1  0.36503100  0.33526500  0.54263800  1
  O  O14  1  0.34448000  0.69034200  0.28802100  1
  O  O15  1  0.53865700  0.58885600  0.66742300  1
  O  O16  1  0.70226200  0.29529700  0.90650900  1
  O  O17  1  0.50099300  0.80799400  0.43597700  1
  O  O18  1  0.42787600  0.19092300  0.18431200  1
  O  O19  1  0.39079400  0.28850100  0.02908700  1
  O  O20  1  0.66558300  0.23226600  0.60401000  1
  O  O21  1  0.78807000  0.88450500  0.84936400  1
  O  O22  1  0.53078500  0.60876800  0.14394400  1
  O  O23  1  0.84448000  0.30965800  0.78802100  1
  O  O24  1  0.71369600  0.34833200  0.40566600  1
  O  O25  1  0.66491800  0.20540900  0.11096500  1
  O  O26  1  0.92787600  0.80907700  0.68431200  1
  O  O27  1  0.77430100  0.90608700  0.36243600  1
  O  O28  1  0.89079400  0.71149900  0.52908700  1
  O  O29  1  0.85144100  0.29248100  0.28972800  1
  O  O30  1  0.95456100  0.85906600  0.18564300  1
  O  O31  1  0.86503100  0.66473500  0.04263800  1
loop_
_geom_bond_atom_site_label_1
_geom_bond_atom_site_label_2
_geom_bond_distance
_geom_bond_site_symmetry_2
Li0 O3 1.965237 1_565
Li0 O8 2.006823 1_555
Li0 O4 2.053292 1_555
Li0 O28 2.069336 1_455
Li1 O9 1.965237 1_545
Li1 O16 2.006823 1_555
Li1 O25 2.053292 1_556
Li1 O19 2.069336 1_556
Li2 O14 1.984673 1_555
Li2 O12 2.009148 1_555
Li2 O18 2.017440 1_555
Li2 O6 2.172498 1_555
Li3 O23 1.984673 1_555
Li3 O21 2.009148 1_555
Li3 O26 2.017440 1_555
Li3 O15 2.172498 1_555
Co0 O0 1.835271 1_555
Co0 O2 1.864037 1_555
Co0 O19 1.872958 1_556
Co0 O5 1.905426 1_555
Co1 O13 1.892440 1_555
Co1 O3 1.973222 1_555
Co1 O8 1.995685 1_555
Co1 O12 2.005744 1_555
Co2 O11 1.838060 1_565
Co2 O7 1.853654 1_555
Co2 O4 1.907169 1_555
Co2 O15 1.907967 1_555
Co3 O31 1.892440 1_556
Co3 O9 1.973222 1_555
Co3 O16 1.995685 1_555
Co3 O21 2.005744 1_555
Co4 O10 1.926702 1_555
Co4 O22 1.929665 1_555
Co4 O18 1.971437 1_565
Co4 O14 2.015291 1_555
Co5 O17 1.835271 1_555
Co5 O24 1.864037 1_555
Co5 O28 1.872958 1_555
Co5 O27 1.905426 1_555
Co6 O20 1.926702 1_555
Co6 O1 1.929665 1_655
Co6 O26 1.971437 1_545
Co6 O23 2.015291 1_555
Co7 O30 1.838060 1_545
Co7 O29 1.853654 1_555
Co7 O25 1.907169 1_555
Co7 O6 1.907967 1_655
O0 P5 1.573011 1_455
O1 P0 1.523607 1_555
O2 P1 1.553807 1_555
O3 P7 1.551058 1_455
O4 P0 1.567843 1_555
O5 P1 1.554499 1_545
O6 P2 1.589821 1_555
O7 P1 1.547751 1_555
O8 P3 1.555283 1_555
O9 P1 1.551058 1_555
O10 P2 1.526158 1_555
O11 P4 1.576079 1_555
O12 P3 1.558993 1_545
O13 P4 1.515949 1_555
O14 P3 1.544181 1_555
O15 P4 1.589821 1_555
O16 P5 1.555283 1_555
O17 P3 1.573011 1_555
O18 P6 1.550927 1_555
O19 P6 1.572119 1_555
O20 P4 1.526158 1_555
O21 P5 1.558993 1_565
O22 P6 1.523607 1_555
O23 P5 1.544181 1_555
O24 P7 1.553807 1_555
O25 P6 1.567843 1_555
O26 P0 1.550927 1_655
O27 P7 1.554499 1_565
O28 P0 1.572119 1_655
O29 P7 1.547751 1_555
O30 P2 1.576079 1_655
O31 P2 1.515949 1_655
