# generated using pymatgen
data_Li2CrO3
_symmetry_space_group_name_H-M   'P 1'
_cell_length_a   5.78087457
_cell_length_b   5.78087087
_cell_length_c   5.26199436
_cell_angle_alpha   57.01604510
_cell_angle_beta   122.98399390
_cell_angle_gamma   120.58252283
_symmetry_Int_Tables_number   1
_chemical_formula_structural   Li2CrO3
_chemical_formula_sum   'Li4 Cr2 O6'
_cell_volume   117.95863443
_cell_formula_units_Z   2
loop_
 _symmetry_equiv_pos_site_id
 _symmetry_equiv_pos_as_xyz
  1  'x, y, z'
loop_
 _atom_site_type_symbol
 _atom_site_label
 _atom_site_symmetry_multiplicity
 _atom_site_fract_x
 _atom_site_fract_y
 _atom_site_fract_z
 _atom_site_occupancy
  Li  Li0  1  0.25977109  0.58242371  0.75418355  1
  Li  Li1  1  0.41757729  0.74022991  0.25418255  1
  Li  Li2  1  0.58242271  0.25977009  0.74581745  1
  Li  Li3  1  0.74022891  0.41757629  0.24581645  1
  Cr  Cr0  1  0.91363204  0.91363204  0.75000000  1
  Cr  Cr1  1  0.08636796  0.08636796  0.25000000  1
  O  O0  1  0.21814389  0.91784704  0.73244009  1
  O  O1  1  0.08215296  0.78185711  0.23244009  1
  O  O2  1  0.61011571  0.61011471  0.75000000  1
  O  O3  1  0.38988429  0.38988529  0.25000000  1
  O  O4  1  0.91784704  0.21814289  0.76755991  1
  O  O5  1  0.78185611  0.08215296  0.26755991  1
loop_
_geom_bond_atom_site_label_1
_geom_bond_atom_site_label_2
_geom_bond_distance
_geom_bond_site_symmetry_2
Li0 O2 1.960294 1_555
Li0 O0 2.008518 1_555
Li0 O4 2.025131 1_455
Li0 O3 2.040793 1_556
Li0 O1 2.147030 1_555
Li1 O3 1.960284 1_555
Li1 O1 2.008527 1_555
Li1 O5 2.025122 1_565
Li1 O2 2.040796 1_555
Li1 O0 2.147026 1_554
Li2 O2 1.960284 1_555
Li2 O4 2.008527 1_555
Li2 O0 2.025122 1_545
Li2 O3 2.040796 1_555
Li2 O5 2.147026 1_556
Li3 O3 1.960294 1_555
Li3 O5 2.008518 1_555
Li3 O1 2.025131 1_655
Li3 O2 2.040793 1_554
Li3 O4 2.147030 1_555
Cr0 O2 1.739121 1_555
Cr0 O4 1.799701 1_565
Cr0 O0 1.799708 1_655
Cr0 O5 1.982593 1_565
Cr0 O1 1.982593 1_656
Cr1 O3 1.739121 1_555
Cr1 O1 1.799701 1_545
Cr1 O5 1.799708 1_455
Cr1 O0 1.982593 1_545
Cr1 O4 1.982593 1_454
