# generated using pymatgen
data_Li4Ti3Fe5O16
_symmetry_space_group_name_H-M   'P 1'
_cell_length_a   5.76670354
_cell_length_b   5.76670354
_cell_length_c   9.67656768
_cell_angle_alpha   89.30429150
_cell_angle_beta   89.30429150
_cell_angle_gamma   60.77897363
_symmetry_Int_Tables_number   1
_chemical_formula_structural   Li4Ti3Fe5O16
_chemical_formula_sum   'Li4 Ti3 Fe5 O16'
_cell_volume   280.81475765
_cell_formula_units_Z   1
loop_
 _symmetry_equiv_pos_site_id
 _symmetry_equiv_pos_as_xyz
  1  'x, y, z'
loop_
 _atom_site_type_symbol
 _atom_site_label
 _atom_site_symmetry_multiplicity
 _atom_site_fract_x
 _atom_site_fract_y
 _atom_site_fract_z
 _atom_site_occupancy
  Li  Li0  1  0.67056000  0.67056000  0.89189800  1
  Li  Li1  1  0.99115700  0.99115700  0.99338800  1
  Li  Li2  1  0.99492100  0.99492100  0.49602600  1
  Li  Li3  1  0.33710500  0.33710500  0.39740400  1
  Ti  Ti0  1  0.34714500  0.83784400  0.21829300  1
  Ti  Ti1  1  0.83784400  0.34714500  0.21829300  1
  Ti  Ti2  1  0.17355300  0.17355300  0.72136200  1
  Fe  Fe0  1  0.66946000  0.66946000  0.50262400  1
  Fe  Fe1  1  0.82581800  0.82581800  0.21053800  1
  Fe  Fe2  1  0.33974900  0.33974900  0.99658100  1
  Fe  Fe3  1  0.17477100  0.65639100  0.71163300  1
  Fe  Fe4  1  0.65639100  0.17477100  0.71163300  1
  O  O0  1  0.32738200  0.83217000  0.60062700  1
  O  O1  1  0.51897200  0.51897200  0.33159700  1
  O  O2  1  0.65841600  0.65841600  0.09658800  1
  O  O3  1  0.99833200  0.99833200  0.30840300  1
  O  O4  1  0.99417400  0.99417400  0.80594600  1
  O  O5  1  0.83217000  0.32738200  0.60062700  1
  O  O6  1  0.52483000  0.96629400  0.33837400  1
  O  O7  1  0.96629400  0.52483000  0.33837400  1
  O  O8  1  0.16338300  0.16338300  0.09783800  1
  O  O9  1  0.83778400  0.83778400  0.61116700  1
  O  O10  1  0.03699000  0.48516800  0.83433300  1
  O  O11  1  0.48516800  0.03699000  0.83433300  1
  O  O12  1  0.33674300  0.33674300  0.60449800  1
  O  O13  1  0.15187100  0.67173400  0.10395000  1
  O  O14  1  0.48074500  0.48074500  0.82843700  1
  O  O15  1  0.67173400  0.15187100  0.10395000  1
loop_
_geom_bond_atom_site_label_1
_geom_bond_atom_site_label_2
_geom_bond_distance
_geom_bond_site_symmetry_2
Li0 O11 1.923174 1_565
Li0 O10 1.923174 1_655
Li0 O2 1.982680 1_556
Li0 O14 1.993970 1_555
Li1 O4 1.813621 1_555
Li1 O13 1.925094 1_656
Li1 O15 1.925094 1_566
Li1 O8 2.001545 1_666
Li2 O3 1.815386 1_555
Li2 O9 1.906913 1_555
Li2 O0 1.961697 1_655
Li2 O5 1.961697 1_565
Li3 O1 1.909668 1_555
Li3 O7 1.955826 1_455
Li3 O6 1.955826 1_545
Li3 O12 2.003912 1_555
Fe0 O0 1.959624 1_555
Fe0 O5 1.959624 1_555
Fe0 O9 1.989234 1_555
Fe0 O7 2.173486 1_555
Fe0 O6 2.173486 1_555
Fe0 O1 2.247256 1_555
Fe1 O13 1.932000 1_655
Fe1 O15 1.932000 1_565
Fe1 O6 1.948971 1_555
Fe1 O7 1.948971 1_555
Fe1 O3 1.971869 1_555
Fe1 O2 2.010284 1_555
Fe2 O13 1.978444 1_556
Fe2 O15 1.978444 1_556
Fe2 O8 1.997591 1_556
Fe2 O14 2.133246 1_555
Fe2 O10 2.195787 1_555
Fe2 O11 2.195787 1_555
Fe3 O12 1.920117 1_555
Fe3 O14 1.921572 1_555
Fe3 O10 1.931465 1_555
Fe3 O4 1.936804 1_455
Fe3 O0 1.943564 1_555
Fe3 O9 1.962703 1_455
Fe4 O12 1.920117 1_555
Fe4 O14 1.921572 1_555
Fe4 O11 1.931465 1_555
Fe4 O4 1.936804 1_545
Fe4 O5 1.943564 1_555
Fe4 O9 1.962703 1_545
O0 Ti2 2.086397 1_565
O1 Ti0 1.940021 1_555
O1 Ti1 1.940021 1_555
O2 Ti1 1.960733 1_555
O2 Ti0 1.960733 1_555
O3 Ti0 1.955087 1_655
O3 Ti1 1.955087 1_565
O4 Ti2 1.952846 1_665
O5 Ti2 2.086397 1_655
O6 Ti0 1.933819 1_555
O7 Ti1 1.933819 1_555
O8 Ti0 2.010049 1_545
O8 Ti1 2.010049 1_455
O10 Ti2 1.920801 1_555
O11 Ti2 1.920801 1_555
O12 Ti2 1.965454 1_555
O13 Ti0 2.125810 1_555
O15 Ti1 2.125810 1_555
