# generated using pymatgen
data_Mg(IO3)2
_symmetry_space_group_name_H-M   'P 1'
_cell_length_a   11.05572700
_cell_length_b   6.72020300
_cell_length_c   8.37196015
_cell_angle_alpha   61.95163977
_cell_angle_beta   90.00000000
_cell_angle_gamma   90.00000000
_symmetry_Int_Tables_number   1
_chemical_formula_structural   Mg(IO3)2
_chemical_formula_sum   'Mg4 I8 O24'
_cell_volume   548.95490978
_cell_formula_units_Z   4
loop_
 _symmetry_equiv_pos_site_id
 _symmetry_equiv_pos_as_xyz
  1  'x, y, z'
loop_
 _atom_site_type_symbol
 _atom_site_label
 _atom_site_symmetry_multiplicity
 _atom_site_fract_x
 _atom_site_fract_y
 _atom_site_fract_z
 _atom_site_occupancy
  Mg  Mg0  1  0.90327600  0.13506900  0.06207100  1
  Mg  Mg1  1  0.40327600  0.86493100  0.43792900  1
  Mg  Mg2  1  0.59672400  0.13506900  0.56207100  1
  Mg  Mg3  1  0.09672400  0.86493100  0.93792900  1
  I  I0  1  0.20736500  0.35450800  0.92733800  1
  I  I1  1  0.70736500  0.64549200  0.57266200  1
  I  I2  1  0.08177300  0.77636500  0.46813900  1
  I  I3  1  0.58177300  0.22363500  0.03186100  1
  I  I4  1  0.41822700  0.77636500  0.96813900  1
  I  I5  1  0.91822700  0.22363500  0.53186100  1
  I  I6  1  0.29263500  0.35450800  0.42733800  1
  I  I7  1  0.79263500  0.64549200  0.07266200  1
  O  O0  1  0.08177800  0.14702000  0.98232000  1
  O  O1  1  0.89780500  0.36817900  0.66987700  1
  O  O2  1  0.61425300  0.41418600  0.59311500  1
  O  O3  1  0.21826100  0.44570300  0.68467000  1
  O  O4  1  0.71826100  0.55429700  0.81533000  1
  O  O5  1  0.71925600  0.04735600  0.10039200  1
  O  O6  1  0.46374800  0.01799300  0.16747600  1
  O  O7  1  0.11425300  0.58581400  0.90688500  1
  O  O8  1  0.96374800  0.98200700  0.33252400  1
  O  O9  1  0.21925600  0.95264400  0.39960800  1
  O  O10  1  0.39780500  0.63182100  0.83012300  1
  O  O11  1  0.58177800  0.85298000  0.51768000  1
  O  O12  1  0.41822200  0.14702000  0.48232000  1
  O  O13  1  0.60219500  0.36817900  0.16987700  1
  O  O14  1  0.78074400  0.04735600  0.60039200  1
  O  O15  1  0.03625200  0.01799300  0.66747600  1
  O  O16  1  0.88574700  0.41418600  0.09311500  1
  O  O17  1  0.53625200  0.98200700  0.83252400  1
  O  O18  1  0.28074400  0.95264400  0.89960800  1
  O  O19  1  0.28173900  0.44570300  0.18467000  1
  O  O20  1  0.78173900  0.55429700  0.31533000  1
  O  O21  1  0.38574700  0.58581400  0.40688500  1
  O  O22  1  0.10219500  0.63182100  0.33012300  1
  O  O23  1  0.91822200  0.85298000  0.01768000  1
loop_
_geom_bond_atom_site_label_1
_geom_bond_atom_site_label_2
_geom_bond_distance
_geom_bond_site_symmetry_2
Mg0 O16 2.020371 1_555
Mg0 O0 2.072773 1_654
Mg0 O5 2.100386 1_555
Mg0 O23 2.102767 1_545
Mg0 O8 2.107473 1_545
Mg1 O21 2.020371 1_555
Mg1 O11 2.072773 1_555
Mg1 O9 2.100386 1_555
Mg1 O12 2.102767 1_565
Mg1 O6 2.107473 1_565
Mg2 O2 2.020371 1_555
Mg2 O12 2.072773 1_555
Mg2 O14 2.100386 1_555
Mg2 O11 2.102767 1_545
Mg2 O17 2.107473 1_545
Mg3 O7 2.020371 1_555
Mg3 O23 2.072773 1_456
Mg3 O18 2.100386 1_555
Mg3 O0 2.102767 1_565
Mg3 O15 2.107473 1_565
I0 O7 1.804147 1_555
I0 O3 1.829376 1_555
I0 O0 1.865565 1_555
I1 O2 1.804147 1_555
I1 O4 1.829376 1_555
I1 O11 1.865565 1_555
I2 O22 1.839877 1_555
I2 O9 1.844903 1_555
I2 O8 1.850927 1_455
I3 O13 1.839877 1_555
I3 O5 1.844903 1_555
I3 O6 1.850927 1_555
I4 O10 1.839877 1_555
I4 O18 1.844903 1_555
I4 O17 1.850927 1_555
I5 O1 1.839877 1_555
I5 O14 1.844903 1_555
I5 O15 1.850927 1_655
I6 O21 1.804147 1_555
I6 O19 1.829376 1_555
I6 O12 1.865565 1_555
I7 O16 1.804147 1_555
I7 O20 1.829376 1_555
I7 O23 1.865565 1_555
