# generated using pymatgen
data_Mg16Si8HO32
_symmetry_space_group_name_H-M   'P 1'
_cell_length_a   6.10296200
_cell_length_b   9.63574753
_cell_length_c   10.39727497
_cell_angle_alpha   90.16461189
_cell_angle_beta   90.64687078
_cell_angle_gamma   90.73067906
_symmetry_Int_Tables_number   1
_chemical_formula_structural   Mg16Si8HO32
_chemical_formula_sum   'Mg16 Si8 H1 O32'
_cell_volume   611.33693505
_cell_formula_units_Z   1
loop_
 _symmetry_equiv_pos_site_id
 _symmetry_equiv_pos_as_xyz
  1  'x, y, z'
loop_
 _atom_site_type_symbol
 _atom_site_label
 _atom_site_symmetry_multiplicity
 _atom_site_fract_x
 _atom_site_fract_y
 _atom_site_fract_z
 _atom_site_occupancy
  Mg  Mg0  1  0.00610300  0.99835200  0.99863500  1
  Mg  Mg1  1  0.00183100  0.24789200  0.50226900  1
  Mg  Mg2  1  0.50289200  0.99431700  0.98967400  1
  Mg  Mg3  1  0.50258600  0.24346300  0.51378300  1
  Mg  Mg4  1  0.22623300  0.50812700  0.27450900  1
  Mg  Mg5  1  0.78954600  0.23633600  0.21371200  1
  Mg  Mg6  1  0.75230700  0.00144900  0.72190100  1
  Mg  Mg7  1  0.25004300  0.25474300  0.78020600  1
  Mg  Mg8  1  0.99860700  0.50249000  0.99683900  1
  Mg  Mg9  1  0.99676700  0.74964700  0.50062500  1
  Mg  Mg10  1  0.49911200  0.50112700  0.99939700  1
  Mg  Mg11  1  0.49665700  0.74990900  0.49966500  1
  Mg  Mg12  1  0.25002700  0.99500700  0.28175600  1
  Mg  Mg13  1  0.74695200  0.74813500  0.22024400  1
  Mg  Mg14  1  0.74763100  0.50421000  0.72176500  1
  Mg  Mg15  1  0.25023600  0.75251500  0.77642400  1
  Si  Si0  1  0.25484500  0.21881500  0.09639500  1
  Si  Si1  1  0.74424300  0.46144000  0.40299400  1
  Si  Si2  1  0.75081100  0.28593900  0.90510300  1
  Si  Si3  1  0.24773200  0.03410300  0.59746300  1
  Si  Si4  1  0.25194900  0.71679500  0.09300100  1
  Si  Si5  1  0.75054400  0.96398200  0.40526200  1
  Si  Si6  1  0.75285900  0.78475400  0.90381800  1
  Si  Si7  1  0.24655300  0.53498000  0.59439200  1
  H  H0  1  0.47872900  0.29863200  0.27918700  1
  O  O0  1  0.24067900  0.38827000  0.09236300  1
  O  O1  1  0.75329400  0.13449200  0.40721600  1
  O  O2  1  0.75430700  0.11590300  0.90902500  1
  O  O3  1  0.24828300  0.36512900  0.59367900  1
  O  O4  1  0.25148300  0.10916000  0.45173700  1
  O  O5  1  0.75022700  0.35949700  0.05213200  1
  O  O6  1  0.74663300  0.38854200  0.54769400  1
  O  O7  1  0.26901600  0.14124900  0.95343500  1
  O  O8  1  0.04542100  0.13223300  0.16020900  1
  O  O9  1  0.94971900  0.38728300  0.32889100  1
  O  O10  1  0.53649400  0.36110900  0.83540500  1
  O  O11  1  0.46541400  0.10834900  0.66838700  1
  O  O12  1  0.96808700  0.36009300  0.83763700  1
  O  O13  1  0.03416600  0.10971000  0.66484700  1
  O  O14  1  0.46418600  0.17005400  0.18858000  1
  O  O15  1  0.50384300  0.38550600  0.33995300  1
  O  O16  1  0.25883100  0.88694000  0.09214100  1
  O  O17  1  0.74040500  0.63000800  0.40370200  1
  O  O18  1  0.75002700  0.61513500  0.90588200  1
  O  O19  1  0.24804000  0.86448800  0.59303100  1
  O  O20  1  0.24271700  0.60843600  0.44757700  1
  O  O21  1  0.75085600  0.85972100  0.04987400  1
  O  O22  1  0.74881300  0.88923600  0.55109100  1
  O  O23  1  0.25087000  0.64199600  0.94716600  1
  O  O24  1  0.03249100  0.64410300  0.16096600  1
  O  O25  1  0.96483000  0.88864500  0.33770700  1
  O  O26  1  0.53778600  0.85852000  0.83334300  1
  O  O27  1  0.46555700  0.61016500  0.66150800  1
  O  O28  1  0.96898200  0.86040200  0.83655200  1
  O  O29  1  0.03230900  0.60932800  0.66247600  1
  O  O30  1  0.46291900  0.63929500  0.16404300  1
  O  O31  1  0.53322000  0.88989400  0.33496900  1
loop_
_geom_bond_atom_site_label_1
_geom_bond_atom_site_label_2
_geom_bond_distance
_geom_bond_site_symmetry_2
Mg0 O21 2.112959 1_456
Mg0 O16 2.119199 1_556
Mg0 O8 2.124736 1_566
Mg0 O2 2.128529 1_465
Mg0 O28 2.151519 1_455
Mg0 O7 2.157716 1_565
Mg1 O3 2.088044 1_555
Mg1 O1 2.095017 1_455
Mg1 O4 2.109605 1_555
Mg1 O6 2.133606 1_455
Mg1 O13 2.163619 1_555
Mg1 O9 2.273017 1_455
Mg2 O7 2.055774 1_565
Mg2 O21 2.096965 1_556
Mg2 O26 2.098146 1_555
Mg2 O2 2.102111 1_565
Mg2 O16 2.104044 1_556
Mg2 O14 2.683529 1_566
Mg3 O6 2.056480 1_555
Mg3 O11 2.084017 1_555
Mg3 O4 2.088458 1_555
Mg3 O3 2.131450 1_555
Mg3 O1 2.178043 1_555
Mg3 O15 2.270281 1_555
Mg4 O20 2.041017 1_555
Mg4 O9 2.120999 1_455
Mg4 O24 2.127281 1_555
Mg4 O15 2.181548 1_555
Mg4 O0 2.218548 1_555
Mg4 O30 2.236600 1_555
Mg5 O8 1.952082 1_655
Mg5 O5 2.073148 1_555
Mg5 O14 2.091414 1_555
Mg5 O9 2.105354 1_555
Mg5 O1 2.252918 1_555
Mg6 O22 2.076324 1_545
Mg6 O13 2.092831 1_655
Mg6 O11 2.112710 1_555
Mg6 O26 2.225040 1_545
Mg6 O2 2.233495 1_555
Mg6 O28 2.244176 1_545
Mg7 O10 2.089092 1_555
Mg7 O12 2.100559 1_455
Mg7 O7 2.112629 1_555
Mg7 O3 2.214568 1_555
Mg7 O13 2.243908 1_555
Mg7 O11 2.267493 1_555
Mg8 O18 2.095115 1_555
Mg8 O0 2.096410 1_656
Mg8 O23 2.100740 1_655
Mg8 O5 2.120786 1_556
Mg8 O12 2.151914 1_555
Mg8 O24 2.188209 1_656
Mg9 O19 2.101569 1_655
Mg9 O22 2.107175 1_555
Mg9 O20 2.115464 1_655
Mg9 O17 2.168893 1_555
Mg9 O25 2.171035 1_555
Mg9 O29 2.172401 1_655
Mg10 O23 2.114416 1_555
Mg10 O18 2.119904 1_555
Mg10 O5 2.133174 1_556
Mg10 O0 2.145035 1_556
Mg10 O30 2.180534 1_556
Mg10 O10 2.187009 1_555
Mg11 O22 2.093099 1_555
Mg11 O20 2.115744 1_555
Mg11 O19 2.129159 1_555
Mg11 O17 2.148010 1_555
Mg11 O27 2.166672 1_555
Mg11 O31 2.194474 1_555
Mg12 O4 2.078865 1_565
Mg12 O31 2.084541 1_555
Mg12 O25 2.097400 1_455
Mg12 O8 2.218295 1_565
Mg12 O16 2.228443 1_555
Mg12 O14 2.339557 1_565
Mg13 O21 2.075018 1_555
Mg13 O30 2.091268 1_555
Mg13 O24 2.118194 1_655
Mg13 O17 2.224555 1_555
Mg13 O25 2.236219 1_555
Mg13 O31 2.249741 1_555
Mg14 O29 2.099363 1_655
Mg14 O27 2.102981 1_555
Mg14 O6 2.122698 1_555
Mg14 O18 2.189625 1_555
Mg14 O10 2.226250 1_555
Mg14 O12 2.282698 1_555
Mg15 O23 2.072783 1_555
Mg15 O26 2.097766 1_555
Mg15 O28 2.117513 1_455
Mg15 O19 2.193570 1_555
Mg15 O29 2.232570 1_555
Mg15 O27 2.260056 1_555
H0 O15 1.055886 1_555
H0 O14 1.555298 1_555
H0 Mg5 2.116094 1_555
O0 Si0 1.636845 1_555
O1 Si5 1.642928 1_545
O2 Si2 1.639453 1_555
O3 Si7 1.636806 1_555
O4 Si3 1.681051 1_555
O5 Si2 1.683235 1_554
O6 Si1 1.662207 1_555
O7 Si0 1.665423 1_556
O8 Si0 1.662810 1_555
O9 Si1 1.648717 1_555
O10 Si2 1.663233 1_555
O11 Si3 1.664673 1_555
O12 Si2 1.661525 1_555
O13 Si3 1.662025 1_555
O14 Si0 1.661908 1_555
O15 Si1 1.750904 1_555
O16 Si4 1.639529 1_555
O17 Si1 1.624743 1_555
O18 Si6 1.634482 1_555
O19 Si3 1.634910 1_565
O20 Si7 1.684484 1_555
O21 Si6 1.679999 1_554
O22 Si5 1.680543 1_555
O23 Si4 1.676906 1_556
O24 Si4 1.668563 1_555
O25 Si5 1.665122 1_555
O26 Si6 1.664358 1_555
O27 Si7 1.658183 1_555
O28 Si6 1.661157 1_555
O29 Si7 1.663077 1_555
O30 Si4 1.663503 1_555
O31 Si5 1.659483 1_555
