# generated using pymatgen
data_CaSb2
_symmetry_space_group_name_H-M   'P 1'
_cell_length_a   4.27080391
_cell_length_b   4.69673206
_cell_length_c   9.16601764
_cell_angle_alpha   73.08136319
_cell_angle_beta   90.00000000
_cell_angle_gamma   90.00000000
_symmetry_Int_Tables_number   1
_chemical_formula_structural   CaSb2
_chemical_formula_sum   'Ca2 Sb4'
_cell_volume   175.90188513
_cell_formula_units_Z   2
loop_
 _symmetry_equiv_pos_site_id
 _symmetry_equiv_pos_as_xyz
  1  'x, y, z'
loop_
 _atom_site_type_symbol
 _atom_site_label
 _atom_site_symmetry_multiplicity
 _atom_site_fract_x
 _atom_site_fract_y
 _atom_site_fract_z
 _atom_site_occupancy
  Ca  Ca0  1  0.25000000  0.12150519  0.28778246  1
  Ca  Ca1  1  0.75000000  0.87849481  0.71221754  1
  Sb  Sb0  1  0.25000000  0.78091853  0.01947314  1
  Sb  Sb1  1  0.75000000  0.21908147  0.98052686  1
  Sb  Sb2  1  0.25000000  0.43301789  0.61697171  1
  Sb  Sb3  1  0.75000000  0.56698211  0.38302829  1
loop_
_geom_bond_atom_site_label_1
_geom_bond_atom_site_label_2
_geom_bond_distance
_geom_bond_site_symmetry_2
Ca0 Sb3 3.280688 1_555
Ca0 Sb3 3.280688 1_455
Ca0 Sb3 3.283576 1_445
Ca0 Sb3 3.283576 1_545
Ca0 Sb0 3.301042 1_545
Ca0 Sb0 3.347699 1_555
Ca0 Sb1 3.456929 1_454
Ca0 Sb1 3.456929 1_554
Ca0 Sb2 3.716789 1_555
Ca0 Sb2 3.725856 1_545
Ca1 Sb2 3.280688 1_555
Ca1 Sb2 3.280688 1_655
Ca1 Sb2 3.283576 1_565
Ca1 Sb2 3.283576 1_665
Ca1 Sb1 3.301042 1_565
Ca1 Sb1 3.347699 1_555
Ca1 Sb0 3.456929 1_556
Ca1 Sb0 3.456929 1_656
Ca1 Sb3 3.716789 1_555
Ca1 Sb3 3.725856 1_565
Sb0 Sb1 2.914599 1_564
Sb0 Sb1 2.914599 1_464
Sb2 Sb3 2.961200 1_455
Sb2 Sb3 2.961200 1_555
