# generated using pymatgen
data_LiFe(PO3)3
_symmetry_space_group_name_H-M   'P 1'
_cell_length_a   6.80583200
_cell_length_b   7.07361368
_cell_length_c   7.40666526
_cell_angle_alpha   84.04074818
_cell_angle_beta   77.19689475
_cell_angle_gamma   84.67761167
_symmetry_Int_Tables_number   1
_chemical_formula_structural   LiFe(PO3)3
_chemical_formula_sum   'Li2 Fe2 P6 O18'
_cell_volume   344.93055561
_cell_formula_units_Z   2
loop_
 _symmetry_equiv_pos_site_id
 _symmetry_equiv_pos_as_xyz
  1  'x, y, z'
loop_
 _atom_site_type_symbol
 _atom_site_label
 _atom_site_symmetry_multiplicity
 _atom_site_fract_x
 _atom_site_fract_y
 _atom_site_fract_z
 _atom_site_occupancy
  Li  Li0  1  0.92866200  0.72511100  0.87008100  1
  Li  Li1  1  0.07133800  0.27488900  0.12991900  1
  Fe  Fe0  1  0.43949700  0.85384900  0.84872000  1
  Fe  Fe1  1  0.56050300  0.14615100  0.15128000  1
  P  P0  1  0.77259100  0.84809600  0.45100800  1
  P  P1  1  0.15192800  0.70234700  0.22290000  1
  P  P2  1  0.58397400  0.61980800  0.22228300  1
  P  P3  1  0.41602600  0.38019200  0.77771700  1
  P  P4  1  0.84807200  0.29765300  0.77710000  1
  P  P5  1  0.22740900  0.15190400  0.54899200  1
  O  O0  1  0.25909600  0.97141200  0.66756800  1
  O  O1  1  0.71334000  0.84902600  0.66001600  1
  O  O2  1  0.19686600  0.86658300  0.07444900  1
  O  O3  1  0.63732600  0.76867600  0.05810400  1
  O  O4  1  0.00825900  0.77948500  0.40952600  1
  O  O5  1  0.66702800  0.67444200  0.39535900  1
  O  O6  1  0.34612000  0.64431300  0.31106400  1
  O  O7  1  0.35788100  0.58559400  0.80415000  1
  O  O8  1  0.93510900  0.46574000  0.82627700  1
  O  O9  1  0.06489100  0.53426000  0.17372300  1
  O  O10  1  0.64211900  0.41440600  0.19585000  1
  O  O11  1  0.65388000  0.35568700  0.68893600  1
  O  O12  1  0.33297200  0.32555800  0.60464100  1
  O  O13  1  0.99174100  0.22051500  0.59047400  1
  O  O14  1  0.36267400  0.23132400  0.94189600  1
  O  O15  1  0.80313400  0.13341700  0.92555100  1
  O  O16  1  0.28666000  0.15097400  0.33998400  1
  O  O17  1  0.74090400  0.02858800  0.33243200  1
loop_
_geom_bond_atom_site_label_1
_geom_bond_atom_site_label_2
_geom_bond_distance
_geom_bond_site_symmetry_2
Li0 O8 1.890934 1_555
Li0 O3 2.172038 1_556
Li0 O1 2.413638 1_555
Li1 O9 1.890934 1_555
Li1 O14 2.172038 1_554
Li1 O16 2.413638 1_555
Fe0 O1 2.066820 1_555
Fe0 O0 2.075632 1_555
Fe0 O2 2.076113 1_556
Fe0 O7 2.103574 1_555
Fe0 O3 2.271953 1_556
Fe1 O16 2.066820 1_555
Fe1 O17 2.075632 1_555
Fe1 O15 2.076113 1_554
Fe1 O10 2.103574 1_555
Fe1 O14 2.271953 1_554
O0 P5 1.499304 1_565
O1 P0 1.511315 1_555
O2 P1 1.517822 1_555
O3 P2 1.526035 1_555
O4 P0 1.603319 1_455
O4 P1 1.619597 1_555
O5 P2 1.605213 1_555
O5 P0 1.610905 1_555
O6 P1 1.602448 1_555
O6 P2 1.607101 1_555
O7 P3 1.491311 1_555
O8 P4 1.487767 1_555
O9 P1 1.487767 1_555
O10 P2 1.491311 1_555
O11 P4 1.602448 1_555
O11 P3 1.607101 1_555
O12 P3 1.605213 1_555
O12 P5 1.610905 1_555
O13 P5 1.603319 1_655
O13 P4 1.619597 1_555
O14 P3 1.526035 1_555
O15 P4 1.517822 1_555
O16 P5 1.511315 1_555
O17 P0 1.499304 1_545
