# generated using pymatgen
data_Fe3OF5
_symmetry_space_group_name_H-M   'P 1'
_cell_length_a   4.84939500
_cell_length_b   5.82929695
_cell_length_c   7.93134897
_cell_angle_alpha   86.23401434
_cell_angle_beta   88.80117517
_cell_angle_gamma   88.96343314
_symmetry_Int_Tables_number   1
_chemical_formula_structural   Fe3OF5
_chemical_formula_sum   'Fe6 O2 F10'
_cell_volume   223.64332262
_cell_formula_units_Z   2
loop_
 _symmetry_equiv_pos_site_id
 _symmetry_equiv_pos_as_xyz
  1  'x, y, z'
loop_
 _atom_site_type_symbol
 _atom_site_label
 _atom_site_symmetry_multiplicity
 _atom_site_fract_x
 _atom_site_fract_y
 _atom_site_fract_z
 _atom_site_occupancy
  Fe  Fe0  1  0.52480200  0.80951500  0.66683100  1
  Fe  Fe1  1  0.50000000  0.50000000  0.00000000  1
  Fe  Fe2  1  0.47519800  0.19048500  0.33316900  1
  Fe  Fe3  1  0.98113100  0.34578200  0.67465200  1
  Fe  Fe4  1  0.01886900  0.65421800  0.32534800  1
  Fe  Fe5  1  0.00000000  0.00000000  0.00000000  1
  O  O0  1  0.68309300  0.53705700  0.78173100  1
  O  O1  1  0.31690700  0.46294300  0.21826900  1
  F  F0  1  0.79844500  0.35933400  0.43157300  1
  F  F1  1  0.79886300  0.02803300  0.76388500  1
  F  F2  1  0.79081800  0.70637400  0.09940300  1
  F  F3  1  0.69859900  0.20150400  0.09965300  1
  F  F4  1  0.69705700  0.87108300  0.43221600  1
  F  F5  1  0.30294300  0.12891700  0.56778400  1
  F  F6  1  0.30140100  0.79849600  0.90034700  1
  F  F7  1  0.20113700  0.97196700  0.23611500  1
  F  F8  1  0.20155500  0.64066600  0.56842700  1
  F  F9  1  0.20918200  0.29362600  0.90059700  1
loop_
_geom_bond_atom_site_label_1
_geom_bond_atom_site_label_2
_geom_bond_distance
_geom_bond_site_symmetry_2
Fe0 O0 1.933198 1_555
Fe1 O1 1.930143 1_555
Fe1 O0 1.930143 1_554
Fe2 O1 1.933198 1_555
Fe3 O0 2.016960 1_555
Fe4 O1 2.016960 1_555
F0 Fe2 2.059875 1_555
F0 Fe3 2.134710 1_555
F0 Fe4 2.155415 1_655
F1 Fe0 2.052880 1_545
F1 Fe5 2.124995 1_656
F1 Fe3 2.138656 1_555
F2 Fe1 2.071290 1_555
F2 Fe5 2.105319 1_665
F2 Fe4 2.127463 1_655
F3 Fe5 2.037711 1_655
F3 Fe1 2.090567 1_555
F3 Fe2 2.123909 1_555
F4 Fe0 2.036490 1_555
F4 Fe4 2.183128 1_655
F4 Fe2 2.238757 1_565
F5 Fe2 2.036490 1_555
F5 Fe3 2.183128 1_455
F5 Fe0 2.238757 1_545
F6 Fe5 2.037711 1_566
F6 Fe1 2.090567 1_556
F6 Fe0 2.123909 1_555
F7 Fe2 2.052880 1_565
F7 Fe5 2.124995 1_565
F7 Fe4 2.138656 1_555
F8 Fe0 2.059875 1_555
F8 Fe4 2.134710 1_555
F8 Fe3 2.155415 1_455
F9 Fe1 2.071290 1_556
F9 Fe5 2.105319 1_556
F9 Fe3 2.127463 1_455
