# generated using pymatgen
data_Li2Ti3NbO8
_symmetry_space_group_name_H-M   'P 1'
_cell_length_a   5.96871541
_cell_length_b   5.96871541
_cell_length_c   9.84661300
_cell_angle_alpha   90.00000000
_cell_angle_beta   90.00000000
_cell_angle_gamma   119.99999343
_symmetry_Int_Tables_number   1
_chemical_formula_structural   Li2Ti3NbO8
_chemical_formula_sum   'Li4 Ti6 Nb2 O16'
_cell_volume   303.79405690
_cell_formula_units_Z   2
loop_
 _symmetry_equiv_pos_site_id
 _symmetry_equiv_pos_as_xyz
  1  'x, y, z'
loop_
 _atom_site_type_symbol
 _atom_site_label
 _atom_site_symmetry_multiplicity
 _atom_site_fract_x
 _atom_site_fract_y
 _atom_site_fract_z
 _atom_site_occupancy
  Li  Li0  1  0.33333300  0.66666700  0.89830500  1
  Li  Li1  1  0.00000000  0.00000000  0.99379700  1
  Li  Li2  1  0.00000000  0.00000000  0.49379700  1
  Li  Li3  1  0.66666700  0.33333300  0.39830500  1
  Ti  Ti0  1  0.65991700  0.82995800  0.21570600  1
  Ti  Ti1  1  0.34008300  0.17004200  0.71570600  1
  Ti  Ti2  1  0.82995800  0.17004200  0.71570600  1
  Ti  Ti3  1  0.17004200  0.82995800  0.21570600  1
  Ti  Ti4  1  0.17004200  0.34008300  0.21570600  1
  Ti  Ti5  1  0.82995800  0.65991700  0.71570600  1
  Nb  Nb0  1  0.33333300  0.66666700  0.48856700  1
  Nb  Nb1  1  0.66666700  0.33333300  0.98856700  1
  O  O0  1  0.16336400  0.83663600  0.59872700  1
  O  O1  1  0.03575200  0.51787600  0.33835600  1
  O  O2  1  0.33333300  0.66666700  0.10375300  1
  O  O3  1  0.00000000  0.00000000  0.31069500  1
  O  O4  1  0.00000000  0.00000000  0.81069500  1
  O  O5  1  0.16336400  0.32672800  0.59872700  1
  O  O6  1  0.48212400  0.96424800  0.33835600  1
  O  O7  1  0.48212400  0.51787600  0.33835600  1
  O  O8  1  0.32672800  0.16336400  0.09872700  1
  O  O9  1  0.67327200  0.83663600  0.59872700  1
  O  O10  1  0.51787600  0.48212400  0.83835600  1
  O  O11  1  0.51787600  0.03575200  0.83835600  1
  O  O12  1  0.66666700  0.33333300  0.60375300  1
  O  O13  1  0.83663600  0.67327200  0.09872700  1
  O  O14  1  0.96424800  0.48212400  0.83835600  1
  O  O15  1  0.83663600  0.16336400  0.09872700  1
loop_
_geom_bond_atom_site_label_1
_geom_bond_atom_site_label_2
_geom_bond_distance
_geom_bond_site_symmetry_2
Li0 O14 1.997056 1_455
Li0 O11 1.997056 1_565
Li0 O10 1.997061 1_555
Li0 O2 2.022967 1_556
Li1 O4 1.802935 1_555
Li1 O15 1.979853 1_456
Li1 O8 1.979853 1_556
Li1 O13 1.979853 1_446
Li2 O3 1.802935 1_555
Li2 O0 1.979853 1_545
Li2 O5 1.979853 1_555
Li2 O9 1.979853 1_445
Li3 O6 1.997056 1_545
Li3 O1 1.997056 1_655
Li3 O7 1.997061 1_555
Li3 O12 2.022967 1_555
Nb0 O0 2.064992 1_555
Nb0 O9 2.064996 1_555
Nb0 O5 2.064996 1_555
Nb0 O1 2.133951 1_555
Nb0 O6 2.133951 1_555
Nb0 O7 2.133955 1_555
Nb1 O15 2.064992 1_556
Nb1 O13 2.064996 1_556
Nb1 O8 2.064996 1_556
Nb1 O14 2.133951 1_555
Nb1 O11 2.133951 1_555
Nb1 O10 2.133955 1_555
O0 Ti5 2.073745 1_455
O0 Ti1 2.073745 1_565
O1 Ti3 2.019327 1_555
O1 Ti4 2.019331 1_555
O2 Ti3 2.016171 1_555
O2 Ti0 2.016180 1_555
O2 Ti4 2.016180 1_555
O3 Ti4 1.991248 1_555
O3 Ti0 1.991248 1_445
O3 Ti3 1.991252 1_545
O4 Ti1 1.991248 1_555
O4 Ti5 1.991248 1_445
O4 Ti2 1.991252 1_455
O5 Ti1 2.073740 1_555
O5 Ti2 2.073745 1_455
O6 Ti3 2.019327 1_555
O6 Ti0 2.019331 1_555
O7 Ti0 2.019327 1_555
O7 Ti4 2.019327 1_555
O8 Ti4 2.073740 1_555
O8 Ti3 2.073745 1_545
O9 Ti5 2.073740 1_555
O9 Ti2 2.073745 1_565
O10 Ti5 2.019327 1_555
O10 Ti1 2.019327 1_555
O11 Ti2 2.019327 1_555
O11 Ti1 2.019331 1_555
O12 Ti2 2.016171 1_555
O12 Ti5 2.016180 1_555
O12 Ti1 2.016180 1_555
O13 Ti0 2.073740 1_555
O13 Ti3 2.073745 1_655
O14 Ti2 2.019327 1_555
O14 Ti5 2.019331 1_555
O15 Ti0 2.073745 1_545
O15 Ti4 2.073745 1_655
