# generated using pymatgen
data_Li2BiPCO7
_symmetry_space_group_name_H-M   'P 1'
_cell_length_a   6.89339800
_cell_length_b   5.07554900
_cell_length_c   9.17143608
_cell_angle_alpha   89.66572927
_cell_angle_beta   90.00000000
_cell_angle_gamma   90.00000000
_symmetry_Int_Tables_number   1
_chemical_formula_structural   Li2BiPCO7
_chemical_formula_sum   'Li4 Bi2 P2 C2 O14'
_cell_volume   320.88272077
_cell_formula_units_Z   2
loop_
 _symmetry_equiv_pos_site_id
 _symmetry_equiv_pos_as_xyz
  1  'x, y, z'
loop_
 _atom_site_type_symbol
 _atom_site_label
 _atom_site_symmetry_multiplicity
 _atom_site_fract_x
 _atom_site_fract_y
 _atom_site_fract_z
 _atom_site_occupancy
  Li  Li0  1  0.95107700  0.78338600  0.78330800  1
  Li  Li1  1  0.54892300  0.78338600  0.78330800  1
  Li  Li2  1  0.45107700  0.21661400  0.21669200  1
  Li  Li3  1  0.04892300  0.21661400  0.21669200  1
  Bi  Bi0  1  0.25000000  0.23719000  0.63370700  1
  Bi  Bi1  1  0.75000000  0.76281000  0.36629300  1
  P  P0  1  0.75000000  0.26297200  0.60458900  1
  P  P1  1  0.25000000  0.73702800  0.39541100  1
  C  C0  1  0.25000000  0.25884000  0.93195600  1
  C  C1  1  0.75000000  0.74116000  0.06804400  1
  O  O0  1  0.75000000  0.73555700  0.93063500  1
  O  O1  1  0.25000000  0.03471500  0.85907000  1
  O  O2  1  0.25000000  0.47475800  0.85108200  1
  O  O3  1  0.92935900  0.11787800  0.67036900  1
  O  O4  1  0.57064100  0.11787800  0.67036900  1
  O  O5  1  0.25000000  0.76776000  0.56608600  1
  O  O6  1  0.75000000  0.55908300  0.63975900  1
  O  O7  1  0.25000000  0.44091700  0.36024100  1
  O  O8  1  0.75000000  0.23224000  0.43391400  1
  O  O9  1  0.42935900  0.88212200  0.32963100  1
  O  O10  1  0.07064100  0.88212200  0.32963100  1
  O  O11  1  0.75000000  0.52524200  0.14891800  1
  O  O12  1  0.75000000  0.96528500  0.14093000  1
  O  O13  1  0.25000000  0.26444300  0.06936500  1
loop_
_geom_bond_atom_site_label_1
_geom_bond_atom_site_label_2
_geom_bond_distance
_geom_bond_site_symmetry_2
Li0 O0 1.949905 1_555
Li0 O3 1.989244 1_565
Li0 O6 2.228939 1_555
Li0 O1 2.523182 1_665
Li0 O2 2.659858 1_655
Li1 O0 1.949905 1_555
Li1 O4 1.989244 1_565
Li1 O6 2.228939 1_555
Li1 O1 2.523182 1_565
Li1 O2 2.659858 1_555
Li2 O13 1.949905 1_555
Li2 O9 1.989244 1_545
Li2 O7 2.228939 1_555
Li2 O12 2.523182 1_545
Li2 O11 2.659858 1_555
Li3 O13 1.949905 1_555
Li3 O10 1.989244 1_545
Li3 O7 2.228939 1_555
Li3 O12 2.523182 1_445
Li3 O11 2.659858 1_455
Bi0 O1 2.302913 1_555
Bi0 O4 2.315784 1_555
Bi0 O3 2.315784 1_455
Bi0 O2 2.335932 1_555
Bi0 O5 2.465506 1_545
Bi0 O7 2.707286 1_555
Bi0 O5 2.759897 1_555
Bi1 O12 2.302913 1_555
Bi1 O10 2.315784 1_655
Bi1 O9 2.315784 1_555
Bi1 O11 2.335932 1_555
Bi1 O8 2.465506 1_565
Bi1 O6 2.707286 1_555
Bi1 O8 2.759897 1_555
C0 O13 1.260725 1_556
C0 O2 1.319728 1_555
C0 O1 1.322785 1_555
C1 O0 1.260725 1_554
C1 O11 1.319728 1_555
C1 O12 1.322785 1_555
O3 P0 1.558776 1_555
O4 P0 1.558776 1_555
O5 P1 1.573993 1_555
O6 P0 1.538989 1_555
O7 P1 1.538989 1_555
O8 P0 1.573993 1_555
O9 P1 1.558776 1_555
O10 P1 1.558776 1_555
