# generated using pymatgen
data_Li2FeSiO5
_symmetry_space_group_name_H-M   'P 1'
_cell_length_a   13.08094844
_cell_length_b   12.82397230
_cell_length_c   5.06824900
_cell_angle_alpha   90.00000000
_cell_angle_beta   90.00000000
_cell_angle_gamma   60.11508148
_symmetry_Int_Tables_number   1
_chemical_formula_structural   Li2FeSiO5
_chemical_formula_sum   'Li16 Fe8 Si8 O40'
_cell_volume   737.14485267
_cell_formula_units_Z   8
loop_
 _symmetry_equiv_pos_site_id
 _symmetry_equiv_pos_as_xyz
  1  'x, y, z'
loop_
 _atom_site_type_symbol
 _atom_site_label
 _atom_site_symmetry_multiplicity
 _atom_site_fract_x
 _atom_site_fract_y
 _atom_site_fract_z
 _atom_site_occupancy
  Li  Li0  1  0.34062500  0.82245200  0.72360400  1
  Li  Li1  1  0.08504000  0.57286500  0.76841300  1
  Li  Li2  1  0.16003600  0.66215700  0.20960000  1
  Li  Li3  1  0.58142500  0.83705600  0.72675500  1
  Li  Li4  1  0.41857500  0.66294400  0.22675500  1
  Li  Li5  1  0.83996400  0.83784300  0.70960000  1
  Li  Li6  1  0.34062500  0.32245200  0.77639600  1
  Li  Li7  1  0.08504000  0.07286500  0.73158700  1
  Li  Li8  1  0.91496000  0.92713500  0.26841300  1
  Li  Li9  1  0.65937500  0.67754800  0.22360400  1
  Li  Li10  1  0.16003600  0.16215800  0.29040000  1
  Li  Li11  1  0.58142500  0.33705600  0.77324500  1
  Li  Li12  1  0.41857500  0.16294400  0.27324500  1
  Li  Li13  1  0.83996400  0.33784200  0.79040000  1
  Li  Li14  1  0.91496000  0.42713500  0.23158700  1
  Li  Li15  1  0.65937500  0.17754800  0.27639600  1
  Fe  Fe0  1  0.06538600  0.81273300  0.73049600  1
  Fe  Fe1  1  0.43274000  0.88195800  0.27192000  1
  Fe  Fe2  1  0.06538600  0.31273300  0.76950400  1
  Fe  Fe3  1  0.56726000  0.61804200  0.77192000  1
  Fe  Fe4  1  0.43274000  0.38195800  0.22808000  1
  Fe  Fe5  1  0.93461400  0.68726700  0.23049600  1
  Fe  Fe6  1  0.56726000  0.11804200  0.72808000  1
  Fe  Fe7  1  0.93461400  0.18726700  0.26950400  1
  Si  Si0  1  0.16148100  0.90810300  0.22583000  1
  Si  Si1  1  0.66147000  0.92558400  0.21872300  1
  Si  Si2  1  0.16148100  0.40810300  0.27417000  1
  Si  Si3  1  0.33853000  0.57441600  0.71872300  1
  Si  Si4  1  0.66147000  0.42558400  0.28127700  1
  Si  Si5  1  0.83851900  0.59189700  0.72583000  1
  Si  Si6  1  0.33853000  0.07441600  0.78127700  1
  Si  Si7  1  0.83851900  0.09189700  0.77417000  1
  O  O0  1  0.13973600  0.90538900  0.90752800  1
  O  O1  1  0.99518500  0.78920700  0.01848600  1
  O  O2  1  0.12144900  0.82285400  0.38541600  1
  O  O3  1  0.39158300  0.94721600  0.62043900  1
  O  O4  1  0.30193100  0.84692700  0.30002100  1
  O  O5  1  0.09234900  0.54537700  0.15423700  1
  O  O6  1  0.19927400  0.65098100  0.80658900  1
  O  O7  1  0.64415600  0.95302900  0.90024000  1
  O  O8  1  0.48432700  0.79021700  0.98391800  1
  O  O9  1  0.13973600  0.40538900  0.59247200  1
  O  O10  1  0.99518500  0.28920700  0.48151400  1
  O  O11  1  0.59692400  0.85217900  0.32497700  1
  O  O12  1  0.40307600  0.64782100  0.82497700  1
  O  O13  1  0.12144900  0.32285400  0.11458400  1
  O  O14  1  0.51567300  0.70978300  0.48391800  1
  O  O15  1  0.35584400  0.54697100  0.40024000  1
  O  O16  1  0.39158300  0.44721600  0.87956100  1
  O  O17  1  0.30193100  0.34692700  0.19997900  1
  O  O18  1  0.80072600  0.84901900  0.30658900  1
  O  O19  1  0.90765100  0.95462300  0.65423700  1
  O  O20  1  0.09234900  0.04537700  0.34576300  1
  O  O21  1  0.19927400  0.15098100  0.69341100  1
  O  O22  1  0.69806900  0.65307300  0.80002100  1
  O  O23  1  0.60841700  0.55278400  0.12043900  1
  O  O24  1  0.64415600  0.45302900  0.59976000  1
  O  O25  1  0.48432700  0.29021700  0.51608200  1
  O  O26  1  0.87855100  0.67714600  0.88541600  1
  O  O27  1  0.59692400  0.35217900  0.17502300  1
  O  O28  1  0.40307600  0.14782100  0.67502300  1
  O  O29  1  0.00481500  0.71079300  0.51848600  1
  O  O30  1  0.86026400  0.59461100  0.40752800  1
  O  O31  1  0.51567300  0.20978300  0.01608200  1
  O  O32  1  0.35584400  0.04697100  0.09976000  1
  O  O33  1  0.80072600  0.34901900  0.19341100  1
  O  O34  1  0.90765100  0.45462300  0.84576300  1
  O  O35  1  0.69806900  0.15307300  0.69997900  1
  O  O36  1  0.60841700  0.05278400  0.37956100  1
  O  O37  1  0.87855100  0.17714600  0.61458400  1
  O  O38  1  0.00481500  0.21079300  0.98151400  1
  O  O39  1  0.86026400  0.09461100  0.09247200  1
loop_
_geom_bond_atom_site_label_1
_geom_bond_atom_site_label_2
_geom_bond_distance
_geom_bond_site_symmetry_2
Li0 O12 2.030624 1_555
Li0 O3 2.083366 1_555
Li0 O8 2.161174 1_555
Li0 O4 2.192087 1_555
Li0 O14 2.347248 1_555
Li0 O0 2.473947 1_555
Li1 O5 1.980810 1_556
Li1 O29 1.996160 1_555
Li1 O9 2.094856 1_555
Li1 O6 2.183016 1_555
Li1 O26 2.415831 1_455
Li2 O2 2.063740 1_555
Li2 O6 2.093498 1_554
Li2 O5 2.103996 1_555
Li2 O1 2.177545 1_455
Li2 O29 2.387577 1_555
Li2 O15 2.430172 1_555
Li3 O11 2.065057 1_555
Li3 O8 2.105484 1_555
Li3 O22 2.108380 1_555
Li3 O7 2.207821 1_555
Li3 O3 2.226419 1_555
Li3 O14 2.513435 1_555
Li4 O12 2.065057 1_554
Li4 O14 2.105484 1_555
Li4 O4 2.108380 1_555
Li4 O15 2.207821 1_555
Li4 O23 2.226419 1_555
Li4 O8 2.513435 1_554
Li5 O26 2.063740 1_555
Li5 O18 2.093498 1_555
Li5 O19 2.103996 1_555
Li5 O29 2.177545 1_655
Li5 O1 2.387577 1_556
Li5 O7 2.430172 1_555
Li6 O28 2.030624 1_555
Li6 O16 2.083366 1_555
Li6 O25 2.161174 1_555
Li6 O17 2.192087 1_556
Li6 O31 2.347248 1_556
Li6 O9 2.473947 1_555
Li7 O20 1.980810 1_555
Li7 O38 1.996160 1_555
Li7 O0 2.094856 1_545
Li7 O21 2.183016 1_555
Li7 O37 2.415831 1_455
Li8 O19 1.980810 1_555
Li8 O1 1.996160 1_555
Li8 O39 2.094856 1_565
Li8 O18 2.183016 1_555
Li8 O2 2.415831 1_655
Li9 O11 2.030624 1_555
Li9 O23 2.083366 1_555
Li9 O14 2.161174 1_555
Li9 O22 2.192087 1_554
Li9 O8 2.347248 1_554
Li9 O30 2.473947 1_555
Li10 O13 2.063729 1_555
Li10 O21 2.093497 1_555
Li10 O20 2.104008 1_555
Li10 O10 2.177542 1_455
Li10 O38 2.387579 1_554
Li10 O32 2.430173 1_555
Li11 O27 2.065057 1_556
Li11 O25 2.105484 1_555
Li11 O35 2.108380 1_555
Li11 O24 2.207821 1_555
Li11 O16 2.226419 1_555
Li11 O31 2.513435 1_556
Li12 O28 2.065057 1_555
Li12 O31 2.105484 1_555
Li12 O17 2.108380 1_555
Li12 O32 2.207821 1_555
Li12 O36 2.226419 1_555
Li12 O25 2.513435 1_555
Li13 O37 2.063729 1_555
Li13 O33 2.093497 1_556
Li13 O34 2.104008 1_555
Li13 O38 2.177542 1_655
Li13 O10 2.387579 1_555
Li13 O24 2.430173 1_555
Li14 O34 1.980810 1_554
Li14 O10 1.996160 1_555
Li14 O30 2.094856 1_555
Li14 O33 2.183016 1_555
Li14 O13 2.415831 1_655
Li15 O27 2.030624 1_555
Li15 O36 2.083366 1_555
Li15 O31 2.161174 1_555
Li15 O35 2.192087 1_555
Li15 O25 2.347248 1_555
Li15 O39 2.473947 1_555
Fe0 O1 1.827790 1_456
Fe0 O2 1.925705 1_555
Fe0 O6 1.974475 1_555
Fe0 O19 1.994057 1_455
Fe0 O0 2.077112 1_555
Fe0 O29 2.126858 1_555
Fe1 O8 1.782966 1_554
Fe1 O3 1.913456 1_555
Fe1 O4 1.978888 1_555
Fe1 O11 2.003341 1_555
Fe1 O32 2.032229 1_565
Fe1 O14 2.195337 1_555
Fe2 O10 1.827790 1_455
Fe2 O13 1.925705 1_556
Fe2 O21 1.974475 1_555
Fe2 O34 1.994057 1_455
Fe2 O9 2.077112 1_555
Fe2 O38 2.126858 1_555
Fe3 O14 1.782966 1_555
Fe3 O23 1.913456 1_556
Fe3 O22 1.978888 1_555
Fe3 O12 2.003341 1_555
Fe3 O24 2.032229 1_555
Fe3 O8 2.195337 1_555
Fe4 O25 1.782966 1_555
Fe4 O16 1.913456 1_554
Fe4 O17 1.978888 1_555
Fe4 O27 2.003341 1_555
Fe4 O15 2.032229 1_555
Fe4 O31 2.195337 1_555
Fe5 O29 1.827790 1_655
Fe5 O26 1.925705 1_554
Fe5 O18 1.974475 1_555
Fe5 O5 1.994057 1_655
Fe5 O30 2.077112 1_555
Fe5 O1 2.126858 1_555
Fe6 O31 1.782966 1_556
Fe6 O36 1.913456 1_555
Fe6 O35 1.978888 1_555
Fe6 O28 2.003341 1_555
Fe6 O7 2.032229 1_545
Fe6 O25 2.195337 1_555
Fe7 O38 1.827790 1_654
Fe7 O37 1.925705 1_555
Fe7 O33 1.974475 1_555
Fe7 O20 1.994057 1_655
Fe7 O39 2.077112 1_555
Fe7 O10 2.126858 1_555
O0 Si0 1.641496 1_556
O2 Si0 1.641355 1_555
O3 Si6 1.636723 1_565
O4 Si0 1.641925 1_555
O5 Si2 1.643124 1_555
O6 Si3 1.642639 1_555
O7 Si1 1.643538 1_556
O9 Si2 1.641496 1_555
O11 Si1 1.637390 1_555
O12 Si3 1.637390 1_555
O13 Si2 1.641355 1_555
O15 Si3 1.643538 1_555
O16 Si3 1.636723 1_555
O17 Si2 1.641925 1_555
O18 Si1 1.642639 1_555
O19 Si7 1.643124 1_565
O20 Si0 1.643124 1_545
O21 Si6 1.642639 1_555
O22 Si5 1.641925 1_555
O23 Si4 1.636723 1_555
O24 Si4 1.643538 1_555
O26 Si5 1.641355 1_555
O27 Si4 1.637390 1_555
O28 Si6 1.637390 1_555
O30 Si5 1.641496 1_555
O32 Si6 1.643538 1_554
O33 Si4 1.642639 1_555
O34 Si5 1.643124 1_555
O35 Si7 1.641925 1_555
O36 Si1 1.636723 1_545
O37 Si7 1.641355 1_555
O39 Si7 1.641496 1_554
