# generated using pymatgen
data_TbTmO3
_symmetry_space_group_name_H-M   'P 1'
_cell_length_a   5.65550200
_cell_length_b   5.92657100
_cell_length_c   8.33553200
_cell_angle_alpha   90.00000000
_cell_angle_beta   90.00000000
_cell_angle_gamma   90.00000000
_symmetry_Int_Tables_number   1
_chemical_formula_structural   TbTmO3
_chemical_formula_sum   'Tb4 Tm4 O12'
_cell_volume   279.38814552
_cell_formula_units_Z   4
loop_
 _symmetry_equiv_pos_site_id
 _symmetry_equiv_pos_as_xyz
  1  'x, y, z'
loop_
 _atom_site_type_symbol
 _atom_site_label
 _atom_site_symmetry_multiplicity
 _atom_site_fract_x
 _atom_site_fract_y
 _atom_site_fract_z
 _atom_site_occupancy
  Tb  Tb0  1  0.01665200  0.94559500  0.75000000  1
  Tb  Tb1  1  0.48334800  0.44559500  0.75000000  1
  Tb  Tb2  1  0.51665200  0.55440500  0.25000000  1
  Tb  Tb3  1  0.98334800  0.05440500  0.25000000  1
  Tm  Tm0  1  0.00000000  0.50000000  0.00000000  1
  Tm  Tm1  1  0.00000000  0.50000000  0.50000000  1
  Tm  Tm2  1  0.50000000  0.00000000  0.00000000  1
  Tm  Tm3  1  0.50000000  0.00000000  0.50000000  1
  O  O0  1  0.14375800  0.42683000  0.25000000  1
  O  O1  1  0.18279600  0.18630900  0.57530900  1
  O  O2  1  0.18279600  0.18630900  0.92469100  1
  O  O3  1  0.31720400  0.68630900  0.92469100  1
  O  O4  1  0.31720400  0.68630900  0.57530900  1
  O  O5  1  0.35624200  0.92683000  0.25000000  1
  O  O6  1  0.64375800  0.07317000  0.75000000  1
  O  O7  1  0.68279600  0.31369100  0.42469100  1
  O  O8  1  0.68279600  0.31369100  0.07530900  1
  O  O9  1  0.81720400  0.81369100  0.07530900  1
  O  O10  1  0.81720400  0.81369100  0.42469100  1
  O  O11  1  0.85624200  0.57317000  0.75000000  1
loop_
_geom_bond_atom_site_label_1
_geom_bond_atom_site_label_2
_geom_bond_distance
_geom_bond_site_symmetry_2
O0 Tb2 2.240342 1_555
O0 Tm1 2.278514 1_555
O0 Tm0 2.278514 1_555
O0 Tb3 2.386369 1_455
O1 Tm3 2.198069 1_555
O1 Tm1 2.217905 1_555
O1 Tb0 2.244652 1_545
O1 Tb1 2.714950 1_555
O1 Tb3 3.039137 1_455
O2 Tm2 2.198069 1_556
O2 Tm0 2.217905 1_556
O2 Tb0 2.244652 1_545
O2 Tb1 2.714950 1_555
O2 Tb3 3.039137 1_456
O3 Tm0 2.198069 1_556
O3 Tm2 2.217905 1_566
O3 Tb1 2.244652 1_555
O3 Tb0 2.714950 1_555
O3 Tb2 3.039137 1_556
O4 Tm1 2.198069 1_555
O4 Tm3 2.217905 1_565
O4 Tb1 2.244652 1_555
O4 Tb0 2.714950 1_555
O4 Tb2 3.039137 1_555
O5 Tb3 2.240342 1_465
O5 Tm3 2.278514 1_565
O5 Tm2 2.278514 1_565
O5 Tb2 2.386369 1_555
O6 Tb0 2.240342 1_645
O6 Tm3 2.278514 1_555
O6 Tm2 2.278514 1_556
O6 Tb1 2.386369 1_555
O7 Tm1 2.198069 1_655
O7 Tm3 2.217905 1_555
O7 Tb2 2.244652 1_555
O7 Tb3 2.714950 1_555
O7 Tb1 3.039137 1_555
O8 Tm0 2.198069 1_655
O8 Tm2 2.217905 1_555
O8 Tb2 2.244652 1_555
O8 Tb3 2.714950 1_555
O8 Tb1 3.039137 1_554
O9 Tm2 2.198069 1_565
O9 Tm0 2.217905 1_655
O9 Tb3 2.244652 1_565
O9 Tb2 2.714950 1_555
O9 Tb0 3.039137 1_654
O10 Tm3 2.198069 1_565
O10 Tm1 2.217905 1_655
O10 Tb3 2.244652 1_565
O10 Tb2 2.714950 1_555
O10 Tb0 3.039137 1_655
O11 Tb1 2.240342 1_555
O11 Tm1 2.278514 1_655
O11 Tm0 2.278514 1_656
O11 Tb0 2.386369 1_655
