# generated using pymatgen
data_LiVSiO5
_symmetry_space_group_name_H-M   'P 1'
_cell_length_a   6.32951202
_cell_length_b   6.32951202
_cell_length_c   4.62912800
_cell_angle_alpha   90.00000000
_cell_angle_beta   90.00000000
_cell_angle_gamma   90.14060103
_symmetry_Int_Tables_number   1
_chemical_formula_structural   LiVSiO5
_chemical_formula_sum   'Li2 V2 Si2 O10'
_cell_volume   185.45491151
_cell_formula_units_Z   2
loop_
 _symmetry_equiv_pos_site_id
 _symmetry_equiv_pos_as_xyz
  1  'x, y, z'
loop_
 _atom_site_type_symbol
 _atom_site_label
 _atom_site_symmetry_multiplicity
 _atom_site_fract_x
 _atom_site_fract_y
 _atom_site_fract_z
 _atom_site_occupancy
  Li  Li0  1  0.50000000  0.00000000  0.50000000  1
  Li  Li1  1  0.00000000  0.50000000  0.50000000  1
  V  V0  1  0.75000000  0.25000000  0.10440100  1
  V  V1  1  0.25000000  0.75000000  0.89559900  1
  Si  Si0  1  0.25000000  0.25000000  0.00000000  1
  Si  Si1  1  0.75000000  0.75000000  0.00000000  1
  O  O0  1  0.25547700  0.04035800  0.78990800  1
  O  O1  1  0.75000000  0.25000000  0.75168600  1
  O  O2  1  0.45964200  0.24452300  0.21009200  1
  O  O3  1  0.04035800  0.25547700  0.21009200  1
  O  O4  1  0.24452300  0.45964200  0.78990800  1
  O  O5  1  0.75547700  0.54035800  0.21009200  1
  O  O6  1  0.95964200  0.74452300  0.78990800  1
  O  O7  1  0.54035800  0.75547700  0.78990800  1
  O  O8  1  0.25000000  0.75000000  0.24831400  1
  O  O9  1  0.74452300  0.95964200  0.21009200  1
loop_
_geom_bond_atom_site_label_1
_geom_bond_atom_site_label_2
_geom_bond_distance
_geom_bond_site_symmetry_2
Li0 O9 2.064855 1_545
Li0 O0 2.064855 1_555
Li0 O7 2.064855 1_545
Li0 O2 2.064855 1_555
Li0 O1 2.520512 1_555
Li0 O8 2.520512 1_545
Li1 O6 2.064855 1_455
Li1 O4 2.064855 1_555
Li1 O3 2.064855 1_555
Li1 O5 2.064855 1_455
Li1 O1 2.520512 1_455
Li1 O8 2.520512 1_555
O0 Si0 1.645605 1_556
O0 V1 1.902067 1_545
O1 V0 1.632763 1_556
O2 Si0 1.645605 1_555
O2 V0 1.902067 1_555
O3 Si0 1.645605 1_555
O3 V0 1.902067 1_455
O4 Si0 1.645605 1_556
O4 V1 1.902067 1_555
O5 Si1 1.645605 1_555
O5 V0 1.902067 1_555
O6 Si1 1.645605 1_556
O6 V1 1.902067 1_655
O7 Si1 1.645605 1_556
O7 V1 1.902067 1_555
O8 V1 1.632763 1_554
O9 Si1 1.645605 1_555
O9 V0 1.902067 1_565
