# generated using pymatgen
data_Li4Cr3Ni2Sb3O16
_symmetry_space_group_name_H-M   'P 1'
_cell_length_a   6.08260317
_cell_length_b   6.08260317
_cell_length_c   9.79254719
_cell_angle_alpha   89.38414353
_cell_angle_beta   89.38414353
_cell_angle_gamma   60.25327478
_symmetry_Int_Tables_number   1
_chemical_formula_structural   Li4Cr3Ni2Sb3O16
_chemical_formula_sum   'Li4 Cr3 Ni2 Sb3 O16'
_cell_volume   314.53898256
_cell_formula_units_Z   1
loop_
 _symmetry_equiv_pos_site_id
 _symmetry_equiv_pos_as_xyz
  1  'x, y, z'
loop_
 _atom_site_type_symbol
 _atom_site_label
 _atom_site_symmetry_multiplicity
 _atom_site_fract_x
 _atom_site_fract_y
 _atom_site_fract_z
 _atom_site_occupancy
  Li  Li0  1  0.67055800  0.67055800  0.90164400  1
  Li  Li1  1  0.01081000  0.01081000  0.00659100  1
  Li  Li2  1  0.01317300  0.01317300  0.49046100  1
  Li  Li3  1  0.33541700  0.33541700  0.37049000  1
  Cr  Cr0  1  0.82985600  0.33694000  0.21502400  1
  Cr  Cr1  1  0.33694000  0.82985600  0.21502400  1
  Cr  Cr2  1  0.16821500  0.16821500  0.71655000  1
  Ni  Ni0  1  0.65530900  0.65530900  0.47317500  1
  Ni  Ni1  1  0.32768100  0.32768100  0.01087000  1
  Sb  Sb0  1  0.82929000  0.82929000  0.21467900  1
  Sb  Sb1  1  0.66205300  0.16810900  0.71578500  1
  Sb  Sb2  1  0.16810900  0.66205300  0.71578500  1
  O  O0  1  0.83858400  0.31205000  0.60622700  1
  O  O1  1  0.51599800  0.51599800  0.33229000  1
  O  O2  1  0.66776700  0.66776700  0.10468000  1
  O  O3  1  0.99721100  0.99721100  0.31172000  1
  O  O4  1  0.99932300  0.99932300  0.82033400  1
  O  O5  1  0.31205000  0.83858400  0.60622700  1
  O  O6  1  0.96343700  0.51946400  0.33655500  1
  O  O7  1  0.51946400  0.96343700  0.33655500  1
  O  O8  1  0.15993400  0.15993400  0.10582200  1
  O  O9  1  0.84464800  0.84464800  0.60318100  1
  O  O10  1  0.48652800  0.03291300  0.83008800  1
  O  O11  1  0.03291300  0.48652800  0.83008800  1
  O  O12  1  0.33363600  0.33363600  0.60285400  1
  O  O13  1  0.68354300  0.15265100  0.10127100  1
  O  O14  1  0.48577700  0.48577700  0.83260500  1
  O  O15  1  0.15265100  0.68354300  0.10127100  1
loop_
_geom_bond_atom_site_label_1
_geom_bond_atom_site_label_2
_geom_bond_distance
_geom_bond_site_symmetry_2
Li0 O2 1.988092 1_556
Li0 O11 2.034034 1_655
Li0 O10 2.034034 1_565
Li0 O14 2.066359 1_555
Li1 O4 1.829429 1_444
Li1 O8 1.855834 1_555
Li1 O15 1.959554 1_545
Li1 O13 1.959554 1_455
Li2 O3 1.760445 1_445
Li2 O0 1.954606 1_455
Li2 O5 1.954606 1_545
Li2 O9 2.077021 1_445
Li3 O1 1.931963 1_555
Li3 O7 1.994416 1_545
Li3 O6 1.994416 1_455
Li3 O12 2.275280 1_555
Cr0 O1 2.016409 1_555
Cr0 O3 2.023427 1_545
Cr0 O8 2.041386 1_655
Cr0 O2 2.048498 1_555
Cr0 O6 2.062393 1_555
Cr0 O13 2.080274 1_555
Cr1 O1 2.016409 1_555
Cr1 O3 2.023427 1_455
Cr1 O8 2.041386 1_565
Cr1 O2 2.048498 1_555
Cr1 O7 2.062393 1_555
Cr1 O15 2.080274 1_555
Cr2 O11 2.026722 1_555
Cr2 O10 2.026722 1_555
Cr2 O4 2.036163 1_445
Cr2 O12 2.054490 1_555
Cr2 O5 2.058685 1_545
Cr2 O0 2.058685 1_455
Ni0 O1 2.025400 1_555
Ni0 O6 2.102000 1_555
Ni0 O7 2.102000 1_555
Ni0 O5 2.227717 1_555
Ni0 O0 2.227717 1_555
Ni0 O9 2.377538 1_555
Ni1 O8 1.984709 1_555
Ni1 O15 2.082451 1_555
Ni1 O13 2.082451 1_555
Ni1 O11 2.365300 1_554
Ni1 O10 2.365300 1_554
Ni1 O14 2.396314 1_554
O0 Sb1 1.989601 1_555
O2 Sb0 2.023413 1_555
O3 Sb0 2.016561 1_555
O4 Sb1 2.059926 1_565
O4 Sb2 2.059926 1_655
O5 Sb2 1.989601 1_555
O6 Sb0 2.021968 1_555
O7 Sb0 2.021968 1_555
O9 Sb2 2.042626 1_655
O9 Sb1 2.042626 1_565
O10 Sb1 1.973515 1_555
O11 Sb2 1.973515 1_555
O12 Sb1 2.062743 1_555
O12 Sb2 2.062743 1_555
O13 Sb0 2.032671 1_545
O14 Sb2 2.038905 1_555
O14 Sb1 2.038905 1_555
O15 Sb0 2.032671 1_455
