# generated using pymatgen
data_Na2V2O5
_symmetry_space_group_name_H-M   'P 1'
_cell_length_a   24.42260800
_cell_length_b   5.35747400
_cell_length_c   8.77648687
_cell_angle_alpha   89.61818795
_cell_angle_beta   90.00000000
_cell_angle_gamma   90.00000000
_symmetry_Int_Tables_number   1
_chemical_formula_structural   Na2V2O5
_chemical_formula_sum   'Na16 V16 O40'
_cell_volume   1148.32065148
_cell_formula_units_Z   8
loop_
 _symmetry_equiv_pos_site_id
 _symmetry_equiv_pos_as_xyz
  1  'x, y, z'
loop_
 _atom_site_type_symbol
 _atom_site_label
 _atom_site_symmetry_multiplicity
 _atom_site_fract_x
 _atom_site_fract_y
 _atom_site_fract_z
 _atom_site_occupancy
  Na  Na0  1  0.73870100  0.78887300  0.51846300  1
  Na  Na1  1  0.76129900  0.78887300  0.01846300  1
  Na  Na2  1  0.28090700  0.77265700  0.72952400  1
  Na  Na3  1  0.21909300  0.77265700  0.22952400  1
  Na  Na4  1  0.52959300  0.73313800  0.90645600  1
  Na  Na5  1  0.97040700  0.73313800  0.40645600  1
  Na  Na6  1  0.01538500  0.70338100  0.83959900  1
  Na  Na7  1  0.48461500  0.70338100  0.33959900  1
  Na  Na8  1  0.51538500  0.29661900  0.66040100  1
  Na  Na9  1  0.98461500  0.29661900  0.16040100  1
  Na  Na10  1  0.02959300  0.26686200  0.59354400  1
  Na  Na11  1  0.47040700  0.26686200  0.09354400  1
  Na  Na12  1  0.78090700  0.22734300  0.77047600  1
  Na  Na13  1  0.71909300  0.22734300  0.27047600  1
  Na  Na14  1  0.23870100  0.21112700  0.98153700  1
  Na  Na15  1  0.26129900  0.21112700  0.48153700  1
  V  V0  1  0.58807300  0.83053300  0.54037600  1
  V  V1  1  0.91192700  0.83053300  0.04037600  1
  V  V2  1  0.11276600  0.80218800  0.52045100  1
  V  V3  1  0.38723400  0.80218800  0.02045100  1
  V  V4  1  0.86444600  0.69535100  0.69898200  1
  V  V5  1  0.63555400  0.69535100  0.19898200  1
  V  V6  1  0.16303800  0.67056100  0.86106000  1
  V  V7  1  0.33696200  0.67056100  0.36106000  1
  V  V8  1  0.66303800  0.32943900  0.63894000  1
  V  V9  1  0.83696200  0.32943900  0.13894000  1
  V  V10  1  0.36444600  0.30464900  0.80101800  1
  V  V11  1  0.13555400  0.30464900  0.30101800  1
  V  V12  1  0.61276600  0.19781200  0.97954900  1
  V  V13  1  0.88723400  0.19781200  0.47954900  1
  V  V14  1  0.08807300  0.16946700  0.95962400  1
  V  V15  1  0.41192700  0.16946700  0.45962400  1
  O  O0  1  0.88651200  0.85734800  0.51939200  1
  O  O1  1  0.61348800  0.85734800  0.01939200  1
  O  O2  1  0.10122400  0.83746900  0.93246400  1
  O  O3  1  0.39877600  0.83746900  0.43246400  1
  O  O4  1  0.79707500  0.77964000  0.74409600  1
  O  O5  1  0.70292500  0.77964000  0.24409600  1
  O  O6  1  0.92014600  0.76101900  0.83524000  1
  O  O7  1  0.53080000  0.73378400  0.64023400  1
  O  O8  1  0.57985400  0.76101900  0.33524000  1
  O  O9  1  0.96920000  0.73378400  0.14023400  1
  O  O10  1  0.22118200  0.76597500  0.95780600  1
  O  O11  1  0.27881800  0.76597500  0.45780600  1
  O  O12  1  0.16879800  0.73954100  0.65627800  1
  O  O13  1  0.33120200  0.73954100  0.15627800  1
  O  O14  1  0.04579700  0.71924700  0.57190800  1
  O  O15  1  0.45420300  0.71924700  0.07190800  1
  O  O16  1  0.65095400  0.66335600  0.60905100  1
  O  O17  1  0.84904600  0.66335600  0.10905100  1
  O  O18  1  0.36593400  0.64270600  0.84086100  1
  O  O19  1  0.13406600  0.64270600  0.34086100  1
  O  O20  1  0.86593400  0.35729400  0.65913900  1
  O  O21  1  0.63406600  0.35729400  0.15913900  1
  O  O22  1  0.15095400  0.33664400  0.89094900  1
  O  O23  1  0.34904600  0.33664400  0.39094900  1
  O  O24  1  0.54579700  0.28075300  0.92809200  1
  O  O25  1  0.95420300  0.28075300  0.42809200  1
  O  O26  1  0.66879800  0.26045900  0.84372200  1
  O  O27  1  0.83120200  0.26045900  0.34372200  1
  O  O28  1  0.72118200  0.23402500  0.54219400  1
  O  O29  1  0.77881800  0.23402500  0.04219400  1
  O  O30  1  0.03080000  0.26621600  0.85976600  1
  O  O31  1  0.42014600  0.23898100  0.66476000  1
  O  O32  1  0.46920000  0.26621600  0.35976600  1
  O  O33  1  0.07985400  0.23898100  0.16476000  1
  O  O34  1  0.29707500  0.22036000  0.75590400  1
  O  O35  1  0.20292500  0.22036000  0.25590400  1
  O  O36  1  0.60122400  0.16253100  0.56753600  1
  O  O37  1  0.89877600  0.16253100  0.06753600  1
  O  O38  1  0.38651200  0.14265200  0.98060800  1
  O  O39  1  0.11348800  0.14265200  0.48060800  1
loop_
_geom_bond_atom_site_label_1
_geom_bond_atom_site_label_2
_geom_bond_distance
_geom_bond_site_symmetry_2
Na0 O16 2.381105 1_555
Na0 O28 2.433262 1_565
Na0 O4 2.440298 1_555
Na0 O5 2.562386 1_555
Na1 O17 2.381105 1_555
Na1 O29 2.433262 1_565
Na1 O5 2.440298 1_555
Na1 O4 2.562386 1_554
Na2 O11 2.385782 1_555
Na2 O18 2.396382 1_555
Na2 O34 2.443358 1_565
Na2 O10 2.478311 1_555
Na2 O12 2.818307 1_555
Na2 O34 2.992587 1_555
Na3 O10 2.385782 1_554
Na3 O19 2.396382 1_555
Na3 O35 2.443358 1_565
Na3 O11 2.478311 1_555
Na3 O13 2.818307 1_555
Na3 O35 2.992587 1_555
Na4 O7 2.336659 1_555
Na4 O15 2.345794 1_556
Na4 O1 2.373224 1_556
Na4 O24 2.461823 1_555
Na5 O9 2.336659 1_555
Na5 O14 2.345794 1_655
Na5 O0 2.373224 1_555
Na5 O25 2.461823 1_555
Na6 O6 2.346671 1_455
Na6 O2 2.362854 1_555
Na6 O30 2.377597 1_555
Na6 O14 2.464923 1_555
Na7 O8 2.346671 1_555
Na7 O3 2.362854 1_555
Na7 O32 2.377597 1_555
Na7 O15 2.464923 1_555
Na8 O31 2.346671 1_555
Na8 O36 2.362854 1_555
Na8 O7 2.377597 1_555
Na8 O24 2.464923 1_555
Na9 O33 2.346671 1_655
Na9 O37 2.362854 1_555
Na9 O9 2.377597 1_555
Na9 O25 2.464923 1_555
Na10 O30 2.336659 1_555
Na10 O25 2.345794 1_455
Na10 O39 2.373224 1_555
Na10 O14 2.461823 1_555
Na11 O32 2.336659 1_555
Na11 O24 2.345794 1_554
Na11 O38 2.373224 1_554
Na11 O15 2.461823 1_555
Na12 O29 2.385782 1_556
Na12 O20 2.396382 1_555
Na12 O4 2.443358 1_545
Na12 O28 2.478311 1_555
Na12 O26 2.818307 1_555
Na12 O4 2.992587 1_555
Na13 O28 2.385782 1_555
Na13 O21 2.396382 1_555
Na13 O5 2.443358 1_545
Na13 O29 2.478311 1_555
Na13 O27 2.818307 1_555
Na13 O5 2.992587 1_555
Na14 O22 2.381105 1_555
Na14 O10 2.433262 1_545
Na14 O34 2.440298 1_555
Na14 O35 2.562386 1_556
Na15 O23 2.381105 1_555
Na15 O11 2.433262 1_545
Na15 O35 2.440298 1_555
Na15 O34 2.562386 1_555
O0 V13 1.855037 1_565
O0 V4 1.873431 1_555
O1 V12 1.855037 1_564
O1 V5 1.873431 1_555
O2 V14 1.824636 1_565
O2 V6 1.865172 1_555
O3 V15 1.824636 1_565
O3 V7 1.865172 1_555
O4 V4 1.752237 1_555
O5 V5 1.752237 1_555
O6 V4 1.846619 1_555
O6 V1 1.851829 1_556
O7 V0 1.728355 1_555
O8 V5 1.846619 1_555
O8 V0 1.851829 1_555
O9 V1 1.728355 1_555
O10 V6 1.733356 1_555
O11 V7 1.733356 1_555
O12 V6 1.837846 1_555
O12 V2 1.844188 1_555
O13 V7 1.837846 1_555
O13 V3 1.844188 1_555
O14 V2 1.753219 1_555
O15 V3 1.753219 1_555
O16 V8 1.830301 1_555
O16 V0 1.875285 1_555
O17 V9 1.830301 1_555
O17 V1 1.875285 1_555
O18 V10 1.847224 1_555
O18 V3 1.871604 1_556
O19 V11 1.847224 1_555
O19 V2 1.871604 1_555
O20 V4 1.847224 1_555
O20 V13 1.871604 1_555
O21 V5 1.847224 1_555
O21 V12 1.871604 1_554
O22 V6 1.830301 1_555
O22 V14 1.875285 1_555
O23 V7 1.830301 1_555
O23 V15 1.875285 1_555
O24 V12 1.753219 1_555
O25 V13 1.753219 1_555
O26 V8 1.837846 1_555
O26 V12 1.844188 1_555
O27 V9 1.837846 1_555
O27 V13 1.844188 1_555
O28 V8 1.733356 1_555
O29 V9 1.733356 1_555
O30 V14 1.728355 1_555
O31 V10 1.846619 1_555
O31 V15 1.851829 1_555
O32 V15 1.728355 1_555
O33 V11 1.846619 1_555
O33 V14 1.851829 1_554
O34 V10 1.752237 1_555
O35 V11 1.752237 1_555
O36 V0 1.824636 1_545
O36 V8 1.865172 1_555
O37 V1 1.824636 1_545
O37 V9 1.865172 1_555
O38 V3 1.855037 1_546
O38 V10 1.873431 1_555
O39 V2 1.855037 1_545
O39 V11 1.873431 1_555
