# generated using pymatgen
data_Na5Cr2P(CO4)4
_symmetry_space_group_name_H-M   'P 1'
_cell_length_a   9.88716397
_cell_length_b   9.87910707
_cell_length_c   9.80412939
_cell_angle_alpha   60.30498320
_cell_angle_beta   60.22321361
_cell_angle_gamma   59.47180319
_symmetry_Int_Tables_number   1
_chemical_formula_structural   Na5Cr2P(CO4)4
_chemical_formula_sum   'Na10 Cr4 P2 C8 O32'
_cell_volume   677.06122359
_cell_formula_units_Z   2
loop_
 _symmetry_equiv_pos_site_id
 _symmetry_equiv_pos_as_xyz
  1  'x, y, z'
loop_
 _atom_site_type_symbol
 _atom_site_label
 _atom_site_symmetry_multiplicity
 _atom_site_fract_x
 _atom_site_fract_y
 _atom_site_fract_z
 _atom_site_occupancy
  Na  Na0  1  0.83337100  0.41074200  0.57261900  1
  Na  Na1  1  0.06726900  0.67847800  0.41582500  1
  Na  Na2  1  0.67847800  0.06726900  0.83842700  1
  Na  Na3  1  0.06673300  0.67738100  0.83925800  1
  Na  Na4  1  0.83417500  0.41157300  0.18273100  1
  Na  Na5  1  0.41074200  0.83337100  0.18326700  1
  Na  Na6  1  0.41157300  0.83417500  0.57152200  1
  Na  Na7  1  0.67175400  0.67175400  0.82824600  1
  Na  Na8  1  0.67738100  0.06673300  0.41662900  1
  Na  Na9  1  0.42175400  0.42175400  0.57824600  1
  Cr  Cr0  1  0.75250100  0.24727000  0.00068300  1
  Cr  Cr1  1  0.24931700  0.25045400  0.49749900  1
  Cr  Cr2  1  0.24727000  0.75250100  0.99954600  1
  Cr  Cr3  1  0.25045400  0.24931700  0.00273000  1
  P  P0  1  0.87344100  0.87344100  0.62655900  1
  P  P1  1  0.62344100  0.62344100  0.37655900  1
  C  C0  1  0.46610500  0.11277300  0.20954200  1
  C  C1  1  0.11277300  0.46610500  0.21158000  1
  C  C2  1  0.46302600  0.46292700  0.21400300  1
  C  C3  1  0.46292700  0.46302600  0.86004300  1
  C  C4  1  0.04045800  0.03842000  0.78389500  1
  C  C5  1  0.03842000  0.04045800  0.13722700  1
  C  C6  1  0.38995700  0.03599700  0.78707300  1
  C  C7  1  0.03599700  0.38995700  0.78697400  1
  O  O0  1  0.89487100  0.15510700  0.80844000  1
  O  O1  1  0.10673200  0.35198500  0.35567900  1
  O  O2  1  0.35198500  0.10673200  0.18560300  1
  O  O3  1  0.06024200  0.39387300  0.64233900  1
  O  O4  1  0.10841800  0.44156000  0.09489300  1
  O  O5  1  0.80736900  0.80711800  0.56352100  1
  O  O6  1  0.80711800  0.80736900  0.82199200  1
  O  O7  1  0.11708100  0.60535700  0.18568000  1
  O  O8  1  0.60535700  0.11708100  0.09188200  1
  O  O9  1  0.34693600  0.43795800  0.35681700  1
  O  O10  1  0.43795800  0.34693600  0.85829000  1
  O  O11  1  0.79971000  0.06579100  0.56705800  1
  O  O12  1  0.06579100  0.79971000  0.56744100  1
  O  O13  1  0.06439700  0.89432100  0.89801500  1
  O  O14  1  0.89432100  0.06439700  0.14326800  1
  O  O15  1  0.34645400  0.60766100  0.85612700  1
  O  O16  1  0.15510700  0.89487100  0.14158200  1
  O  O17  1  0.60606400  0.43737700  0.85832000  1
  O  O18  1  0.43737700  0.60606400  0.09823900  1
  O  O19  1  0.68647900  0.42800800  0.44263100  1
  O  O20  1  0.42800800  0.68647900  0.44288200  1
  O  O21  1  0.06432000  0.15811800  0.13291900  1
  O  O22  1  0.15811800  0.06432000  0.64464300  1
  O  O23  1  0.89318300  0.39171000  0.90306400  1
  O  O24  1  0.39171000  0.89318300  0.81204200  1
  O  O25  1  0.68255900  0.68294200  0.18420900  1
  O  O26  1  0.68294200  0.68255900  0.45029000  1
  O  O27  1  0.39387300  0.06024200  0.90354600  1
  O  O28  1  0.44156000  0.10841800  0.35512900  1
  O  O29  1  0.39168000  0.15176100  0.64393600  1
  O  O30  1  0.15176100  0.39168000  0.81262300  1
  O  O31  1  0.60766100  0.34645400  0.18975800  1
loop_
_geom_bond_atom_site_label_1
_geom_bond_atom_site_label_2
_geom_bond_distance
_geom_bond_site_symmetry_2
Na0 O19 2.265809 1_555
Na0 O26 2.320513 1_555
Na0 O1 2.466834 1_655
Na0 O0 2.478781 1_555
Na0 O3 2.560630 1_655
Na0 O17 2.615886 1_555
Na1 O5 2.263804 1_455
Na1 O12 2.317040 1_555
Na1 O7 2.450568 1_555
Na1 O16 2.534870 1_555
Na1 O3 2.588597 1_555
Na1 O9 2.593202 1_555
Na2 O6 2.263800 1_545
Na2 O11 2.317031 1_555
Na2 O8 2.450578 1_556
Na2 O0 2.534874 1_555
Na2 O27 2.588594 1_555
Na2 O10 2.593205 1_555
Na3 O6 2.265818 1_455
Na3 O12 2.320516 1_555
Na3 O13 2.466834 1_555
Na3 O4 2.478779 1_556
Na3 O15 2.560621 1_555
Na3 O30 2.615889 1_555
Na4 O19 2.263801 1_555
Na4 O25 2.317031 1_555
Na4 O21 2.450575 1_655
Na4 O4 2.534865 1_655
Na4 O31 2.588604 1_555
Na4 O23 2.593211 1_554
Na5 O20 2.265817 1_555
Na5 O25 2.320516 1_555
Na5 O2 2.466834 1_565
Na5 O16 2.478776 1_555
Na5 O27 2.560624 1_564
Na5 O18 2.615879 1_555
Na6 O20 2.263809 1_555
Na6 O26 2.317034 1_555
Na6 O22 2.450572 1_565
Na6 O28 2.534867 1_565
Na6 O15 2.588599 1_555
Na6 O24 2.593192 1_555
Na7 O5 2.290997 1_555
Na7 O6 2.290997 1_555
Na7 O23 2.533021 1_555
Na7 O24 2.533023 1_555
Na7 O18 2.555621 1_556
Na7 O17 2.555621 1_555
Na8 O5 2.265814 1_545
Na8 O11 2.320507 1_555
Na8 O14 2.466834 1_555
Na8 O28 2.478785 1_555
Na8 O31 2.560625 1_555
Na8 O29 2.615884 1_555
Na9 O20 2.290997 1_555
Na9 O19 2.290997 1_555
Na9 O9 2.533016 1_555
Na9 O10 2.533025 1_555
Na9 O29 2.555621 1_555
Na9 O30 2.555621 1_555
Cr0 O8 2.009913 1_555
Cr0 O14 2.013795 1_555
Cr0 O0 2.031213 1_554
Cr0 O31 2.045606 1_555
Cr0 O17 2.054054 1_554
Cr0 O23 2.056200 1_554
Cr1 O22 2.009913 1_555
Cr1 O1 2.013797 1_555
Cr1 O28 2.031213 1_555
Cr1 O3 2.045606 1_555
Cr1 O29 2.054054 1_555
Cr1 O9 2.056208 1_555
Cr2 O7 2.009913 1_556
Cr2 O13 2.013789 1_555
Cr2 O16 2.031213 1_556
Cr2 O15 2.045606 1_555
Cr2 O18 2.054054 1_556
Cr2 O24 2.056202 1_555
Cr3 O21 2.009913 1_555
Cr3 O2 2.013789 1_555
Cr3 O4 2.031213 1_555
Cr3 O27 2.045606 1_554
Cr3 O30 2.054054 1_554
Cr3 O10 2.056208 1_554
C0 O8 1.288989 1_555
C0 O2 1.295020 1_555
C0 O28 1.305296 1_555
C1 O7 1.288989 1_555
C1 O1 1.295014 1_555
C1 O4 1.305296 1_555
C2 O18 1.297501 1_555
C2 O31 1.298914 1_555
C2 O9 1.299212 1_555
C3 O17 1.297505 1_555
C3 O15 1.298914 1_555
C3 O10 1.299201 1_555
C4 O22 1.288989 1_555
C4 O13 1.295014 1_545
C4 O0 1.305296 1_455
C5 O21 1.288989 1_555
C5 O14 1.295010 1_455
C5 O16 1.305296 1_545
C6 O29 1.297502 1_555
C6 O27 1.298908 1_555
C6 O24 1.299221 1_545
C7 O30 1.297496 1_555
C7 O3 1.298918 1_555
C7 O23 1.299214 1_455
O5 P0 1.573239 1_555
O6 P0 1.573239 1_555
O11 P0 1.549016 1_545
O12 P0 1.549016 1_455
O19 P1 1.573239 1_555
O20 P1 1.573239 1_555
O25 P1 1.549016 1_555
O26 P1 1.549016 1_555
