# generated using pymatgen
data_Li4Ti2Cr3Co3O16
_symmetry_space_group_name_H-M   'P 1'
_cell_length_a   5.74915058
_cell_length_b   5.78049995
_cell_length_c   9.40792992
_cell_angle_alpha   90.01845044
_cell_angle_beta   89.33407610
_cell_angle_gamma   120.13004885
_symmetry_Int_Tables_number   1
_chemical_formula_structural   Li4Ti2Cr3Co3O16
_chemical_formula_sum   'Li4 Ti2 Cr3 Co3 O16'
_cell_volume   270.38650916
_cell_formula_units_Z   1
loop_
 _symmetry_equiv_pos_site_id
 _symmetry_equiv_pos_as_xyz
  1  'x, y, z'
loop_
 _atom_site_type_symbol
 _atom_site_label
 _atom_site_symmetry_multiplicity
 _atom_site_fract_x
 _atom_site_fract_y
 _atom_site_fract_z
 _atom_site_occupancy
  Li  Li0  1  0.33286400  0.66683800  0.88900000  1
  Li  Li1  1  0.99238300  0.99362400  0.99396200  1
  Li  Li2  1  0.99745200  0.99832600  0.49708100  1
  Li  Li3  1  0.66489000  0.33369000  0.39441500  1
  Ti  Ti0  1  0.33887800  0.66866300  0.50025000  1
  Ti  Ti1  1  0.67084600  0.33564200  0.99529500  1
  Cr  Cr0  1  0.17261100  0.82538500  0.21856800  1
  Cr  Cr1  1  0.17257200  0.34764000  0.21704000  1
  Cr  Cr2  1  0.34950000  0.17441400  0.72039400  1
  Co  Co0  1  0.65764900  0.82968200  0.21347300  1
  Co  Co1  1  0.82658600  0.65736800  0.71428400  1
  Co  Co2  1  0.82651300  0.16932600  0.71403600  1
  O  O0  1  0.16753700  0.83432800  0.59905600  1
  O  O1  1  0.03476100  0.51713700  0.34120100  1
  O  O2  1  0.33634100  0.66929800  0.10369400  1
  O  O3  1  0.99689500  0.99906100  0.30395100  1
  O  O4  1  0.99583800  0.99800600  0.80137400  1
  O  O5  1  0.16710000  0.33198100  0.59877000  1
  O  O6  1  0.48268100  0.96154300  0.33851300  1
  O  O7  1  0.48284500  0.52297100  0.33743600  1
  O  O8  1  0.33076800  0.16530800  0.09720400  1
  O  O9  1  0.66697100  0.83335800  0.60164000  1
  O  O10  1  0.51977500  0.48196300  0.84007000  1
  O  O11  1  0.51987800  0.03723600  0.84021900  1
  O  O12  1  0.67125900  0.33615600  0.60708700  1
  O  O13  1  0.83316000  0.66566500  0.09940800  1
  O  O14  1  0.95647500  0.47799500  0.83211500  1
  O  O15  1  0.83497300  0.16769400  0.09830500  1
loop_
_geom_bond_atom_site_label_1
_geom_bond_atom_site_label_2
_geom_bond_distance
_geom_bond_site_symmetry_2
Li0 O11 1.904978 1_565
Li0 O10 1.910431 1_555
Li0 O14 1.953373 1_455
Li0 O2 2.020132 1_556
Li1 O4 1.811778 1_555
Li1 O13 1.911520 1_556
Li1 O15 1.920408 1_566
Li1 O8 1.953978 1_666
Li2 O3 1.817004 1_555
Li2 O9 1.903982 1_555
Li2 O5 1.928306 1_665
Li2 O0 1.930876 1_655
Li3 O1 1.899659 1_655
Li3 O7 1.934663 1_555
Li3 O6 1.936837 1_545
Li3 O12 2.001479 1_555
Cr0 O3 1.916370 1_455
Cr0 O1 1.922618 1_555
Cr0 O2 1.922622 1_555
Cr0 O6 1.925684 1_555
Cr0 O13 2.039373 1_455
Cr0 O8 2.043286 1_565
Cr1 O3 1.920282 1_445
Cr1 O2 1.923844 1_555
Cr1 O1 1.925935 1_555
Cr1 O7 1.929596 1_555
Cr1 O15 2.029710 1_455
Cr1 O8 2.036375 1_555
Cr2 O4 1.907191 1_445
Cr2 O12 1.910724 1_555
Cr2 O10 1.914068 1_555
Cr2 O11 1.914444 1_555
Cr2 O0 2.055192 1_545
Cr2 O5 2.055710 1_555
Co0 O3 1.899500 1_555
Co0 O2 1.913875 1_555
Co0 O7 1.923208 1_555
Co0 O6 1.928304 1_555
Co0 O13 2.000809 1_555
Co0 O15 2.001713 1_565
Co1 O4 1.894545 1_555
Co1 O12 1.901901 1_555
Co1 O14 1.912827 1_555
Co1 O10 1.922644 1_555
Co1 O9 1.990118 1_555
Co1 O0 2.000545 1_655
Co2 O4 1.894854 1_545
Co2 O12 1.903868 1_555
Co2 O14 1.911945 1_555
Co2 O11 1.923706 1_555
Co2 O9 1.990967 1_545
Co2 O5 1.999276 1_655
O0 Ti0 1.917461 1_555
O1 Ti0 2.141413 1_555
O5 Ti0 1.916343 1_555
O6 Ti0 2.105297 1_555
O7 Ti0 2.100012 1_555
O8 Ti1 1.932800 1_554
O9 Ti0 1.900684 1_555
O10 Ti1 2.090483 1_555
O11 Ti1 2.093330 1_555
O13 Ti1 1.924151 1_554
O14 Ti1 2.077531 1_555
O15 Ti1 1.927060 1_554
