# generated using pymatgen
data_Li2MnAl2O6
_symmetry_space_group_name_H-M   'P 1'
_cell_length_a   4.96762900
_cell_length_b   4.91941804
_cell_length_c   10.15310500
_cell_angle_alpha   90.00095308
_cell_angle_beta   90.00267536
_cell_angle_gamma   59.67520129
_symmetry_Int_Tables_number   1
_chemical_formula_structural   Li2MnAl2O6
_chemical_formula_sum   'Li4 Mn2 Al4 O12'
_cell_volume   214.17149623
_cell_formula_units_Z   2
loop_
 _symmetry_equiv_pos_site_id
 _symmetry_equiv_pos_as_xyz
  1  'x, y, z'
loop_
 _atom_site_type_symbol
 _atom_site_label
 _atom_site_symmetry_multiplicity
 _atom_site_fract_x
 _atom_site_fract_y
 _atom_site_fract_z
 _atom_site_occupancy
  Li  Li0  1  0.15159800  0.49982300  0.75000600  1
  Li  Li1  1  0.84871000  0.49984900  0.25000700  1
  Li  Li2  1  0.34856000  0.50012400  0.25000700  1
  Li  Li3  1  0.65142300  0.50014900  0.75000700  1
  Mn  Mn0  1  0.49989400  0.99995800  0.49985900  1
  Mn  Mn1  1  0.00005600  0.00007900  0.00005400  1
  Al  Al0  1  0.66332500  0.67348200  0.00004700  1
  Al  Al1  1  0.16316000  0.67339600  0.49999600  1
  Al  Al2  1  0.33675800  0.32661100  0.00004600  1
  Al  Al3  1  0.83659400  0.32653000  0.49999600  1
  O  O0  1  0.50996000  0.65500000  0.39818300  1
  O  O1  1  0.01004500  0.65506000  0.10180700  1
  O  O2  1  0.33493000  0.65510700  0.89826800  1
  O  O3  1  0.83489600  0.65503000  0.60172200  1
  O  O4  1  0.99000600  0.34496100  0.89826200  1
  O  O5  1  0.48995600  0.34489300  0.60172000  1
  O  O6  1  0.66508000  0.34500300  0.10181000  1
  O  O7  1  0.16499600  0.34493700  0.39818800  1
  O  O8  1  0.33203500  0.00003800  0.09540300  1
  O  O9  1  0.16801800  0.99996600  0.59528800  1
  O  O10  1  0.66801100  0.00003700  0.90471200  1
  O  O11  1  0.83199000  0.99996800  0.40461300  1
loop_
_geom_bond_atom_site_label_1
_geom_bond_atom_site_label_2
_geom_bond_distance
_geom_bond_site_symmetry_2
Li0 O4 2.026883 1_455
Li0 O3 2.027706 1_455
Li0 O5 2.092700 1_555
Li0 O2 2.093161 1_555
Li1 O7 2.025741 1_655
Li1 O1 2.026702 1_655
Li1 O6 2.092345 1_555
Li1 O0 2.093059 1_555
Li2 O0 2.025686 1_555
Li2 O6 2.026617 1_555
Li2 O1 2.092460 1_555
Li2 O7 2.093085 1_555
Li3 O2 2.027033 1_555
Li3 O5 2.027795 1_555
Li3 O3 2.092684 1_555
Li3 O4 2.093019 1_555
Mn0 O9 1.912291 1_555
Mn0 O11 1.912331 1_555
Mn0 O0 1.965259 1_555
Mn0 O7 1.965275 1_565
Mn0 O3 1.966403 1_555
Mn0 O5 1.966411 1_565
Mn1 O8 1.912172 1_555
Mn1 O10 1.912596 1_454
Mn1 O4 1.965619 1_454
Mn1 O6 1.965822 1_455
Mn1 O2 1.965877 1_544
Mn1 O1 1.966109 1_545
Al0 O10 1.885734 1_564
Al0 O8 1.885963 1_565
Al0 O6 1.914326 1_555
Al0 O4 1.914453 1_554
Al0 O1 1.970906 1_655
Al0 O2 1.971310 1_554
Al1 O11 1.885821 1_455
Al1 O9 1.885923 1_555
Al1 O5 1.914270 1_555
Al1 O7 1.914292 1_555
Al1 O3 1.970536 1_455
Al1 O0 1.971659 1_555
Al2 O10 1.885804 1_554
Al2 O8 1.886006 1_555
Al2 O1 1.914241 1_555
Al2 O2 1.914326 1_554
Al2 O6 1.970961 1_555
Al2 O4 1.971309 1_454
Al3 O11 1.885805 1_545
Al3 O9 1.885889 1_645
Al3 O3 1.914301 1_555
Al3 O0 1.914351 1_555
Al3 O5 1.970565 1_555
Al3 O7 1.971649 1_655
