# generated using pymatgen
data_Li3AgF4
_symmetry_space_group_name_H-M   'P 1'
_cell_length_a   8.85312800
_cell_length_b   8.91054954
_cell_length_c   11.06890439
_cell_angle_alpha   99.48709964
_cell_angle_beta   97.80424923
_cell_angle_gamma   104.32696291
_symmetry_Int_Tables_number   1
_chemical_formula_structural   Li3AgF4
_chemical_formula_sum   'Li24 Ag8 F32'
_cell_volume   820.08829372
_cell_formula_units_Z   8
loop_
 _symmetry_equiv_pos_site_id
 _symmetry_equiv_pos_as_xyz
  1  'x, y, z'
loop_
 _atom_site_type_symbol
 _atom_site_label
 _atom_site_symmetry_multiplicity
 _atom_site_fract_x
 _atom_site_fract_y
 _atom_site_fract_z
 _atom_site_occupancy
  Li  Li0  1  0.00641800  0.89335500  0.35339200  1
  Li  Li1  1  0.00760500  0.63645100  0.20184300  1
  Li  Li2  1  0.12951500  0.86148000  0.73370100  1
  Li  Li3  1  0.01736500  0.12083900  0.68906000  1
  Li  Li4  1  0.13937500  0.50736400  0.69118600  1
  Li  Li5  1  0.13953100  0.39397200  0.24911200  1
  Li  Li6  1  0.16415600  0.01938000  0.19983800  1
  Li  Li7  1  0.37768900  0.49579900  0.85374400  1
  Li  Li8  1  0.50166500  0.89783400  0.92328500  1
  Li  Li9  1  0.39160600  0.64845400  0.24336300  1
  Li  Li10  1  0.37218400  0.11561600  0.74388900  1
  Li  Li11  1  0.51417500  0.65070700  0.69674400  1
  Li  Li12  1  0.41659200  0.02684700  0.43932800  1
  Li  Li13  1  0.50298200  0.38426800  0.35368500  1
  Li  Li14  1  0.64096400  0.89365100  0.24685600  1
  Li  Li15  1  0.60827200  0.37536700  0.72642500  1
  Li  Li16  1  0.51374400  0.13335700  0.19967700  1
  Li  Li17  1  0.65021600  0.51902200  0.19869500  1
  Li  Li18  1  0.87193100  0.98543900  0.84724000  1
  Li  Li19  1  0.62293000  0.00655200  0.69745600  1
  Li  Li20  1  0.87157500  0.61535300  0.73507500  1
  Li  Li21  1  0.90499800  0.52483800  0.43219200  1
  Li  Li22  1  0.98548900  0.36382900  0.84425000  1
  Li  Li23  1  0.89069800  0.14502500  0.24367500  1
  Ag  Ag0  1  0.16272100  0.74654600  0.99824200  1
  Ag  Ag1  1  0.25736900  0.69186500  0.48504200  1
  Ag  Ag2  1  0.20027800  0.27085900  0.49514900  1
  Ag  Ag3  1  0.26597100  0.19400200  0.00096100  1
  Ag  Ag4  1  0.68863300  0.76827000  0.49287600  1
  Ag  Ag5  1  0.76983700  0.68866300  0.99493300  1
  Ag  Ag6  1  0.68367100  0.26291600  0.99131000  1
  Ag  Ag7  1  0.76941700  0.19111500  0.50016100  1
  F  F0  1  0.02252600  0.69477900  0.37550800  1
  F  F1  1  0.03693000  0.64580200  0.63396800  1
  F  F2  1  0.03189900  0.17551800  0.86632100  1
  F  F3  1  0.17554000  0.52385800  0.86572100  1
  F  F4  1  0.32862900  0.95475500  0.84538400  1
  F  F5  1  0.07765500  0.18211500  0.16966700  1
  F  F6  1  0.17913000  0.56957000  0.16611200  1
  F  F7  1  0.17041600  0.03344900  0.64599800  1
  F  F8  1  0.32616600  0.98496700  0.11777800  1
  F  F9  1  0.33157200  0.47689800  0.66498800  1
  F  F10  1  0.20925400  0.03708300  0.37633600  1
  F  F11  1  0.33908400  0.47966400  0.35969200  1
  F  F12  1  0.47990000  0.81416500  0.62567300  1
  F  F13  1  0.47932400  0.85134100  0.35652100  1
  F  F14  1  0.52993700  0.69380300  0.87474700  1
  F  F15  1  0.46013200  0.32108400  0.84937000  1
  F  F16  1  0.48812100  0.32693400  0.16637500  1
  F  F17  1  0.57160900  0.68276700  0.16186200  1
  F  F18  1  0.53345900  0.15452000  0.63643900  1
  F  F19  1  0.53886700  0.19125100  0.37604800  1
  F  F20  1  0.66579900  0.55702800  0.64840900  1
  F  F21  1  0.81639700  0.97997400  0.66189800  1
  F  F22  1  0.69919500  0.53478500  0.37367900  1
  F  F23  1  0.67599400  0.02470700  0.87118400  1
  F  F24  1  0.84223500  0.98847300  0.35645700  1
  F  F25  1  0.81554800  0.45050800  0.83286900  1
  F  F26  1  0.67841600  0.05941900  0.15201300  1
  F  F27  1  0.96201600  0.81567400  0.84409800  1
  F  F28  1  0.81752700  0.49508700  0.12233900  1
  F  F29  1  0.99403000  0.83203400  0.16523400  1
  F  F30  1  0.99098400  0.30977200  0.65256100  1
  F  F31  1  0.97656900  0.34997300  0.36251900  1
loop_
_geom_bond_atom_site_label_1
_geom_bond_atom_site_label_2
_geom_bond_distance
_geom_bond_site_symmetry_2
Ag0 F3 2.301969 1_555
Ag0 F8 2.321603 1_556
Ag0 F27 2.551979 1_455
Ag0 F6 2.639426 1_556
Ag0 F29 2.660044 1_456
Ag1 F12 2.244406 1_555
Ag1 F0 2.268434 1_555
Ag1 F11 2.471527 1_555
Ag2 F10 2.298325 1_555
Ag2 F9 2.338481 1_555
Ag2 F31 2.610971 1_455
Ag3 F2 2.335362 1_554
Ag3 F16 2.403665 1_555
Ag3 F8 2.554083 1_545
Ag3 F5 2.664804 1_555
Ag3 F4 2.729907 1_544
Ag3 F15 2.738399 1_554
Ag4 F22 2.302784 1_555
Ag4 F21 2.354571 1_555
Ag4 F13 2.558754 1_555
Ag4 F12 2.579985 1_555
Ag5 F14 2.362959 1_555
Ag5 F29 2.461717 1_556
Ag5 F28 2.478469 1_556
Ag5 F25 2.693007 1_555
Ag5 F17 2.713603 1_556
Ag5 F27 2.721103 1_555
Ag6 F28 2.262404 1_556
Ag6 F23 2.291642 1_555
Ag6 F15 2.566177 1_555
Ag7 F19 2.300786 1_555
Ag7 F30 2.301787 1_555
Ag7 F24 2.472631 1_545
F0 Li0 1.862607 1_555
F0 Li21 1.865481 1_455
F0 Li1 1.884265 1_555
F1 Li4 1.844073 1_555
F1 Li20 1.953864 1_455
F1 Li2 1.964475 1_555
F1 Li21 2.321459 1_455
F2 Li22 1.868986 1_455
F2 Li18 1.879535 1_445
F2 Li3 1.920675 1_555
F3 Li22 1.874315 1_455
F3 Li7 1.886237 1_555
F3 Li4 1.889847 1_555
F4 Li8 1.875498 1_555
F4 Li2 1.915928 1_555
F4 Li10 1.959659 1_565
F5 Li6 1.854835 1_555
F5 Li5 1.856655 1_555
F5 Li23 1.925248 1_455
F6 Li1 1.830519 1_555
F6 Li9 1.863962 1_555
F6 Li5 1.924843 1_555
F7 Li3 1.801321 1_555
F7 Li10 1.861851 1_555
F7 Li2 1.932050 1_545
F8 Li16 1.853965 1_565
F8 Li6 1.859012 1_565
F9 Li4 1.841113 1_555
F9 Li11 1.887503 1_555
F9 Li7 2.044170 1_555
F10 Li0 1.886816 1_545
F10 Li12 1.902658 1_555
F10 Li6 1.912173 1_555
F11 Li13 1.857524 1_555
F11 Li5 1.907709 1_555
F11 Li9 2.142700 1_555
F12 Li11 1.834107 1_555
F12 Li19 1.837638 1_565
F13 Li12 1.920878 1_565
F13 Li9 1.932551 1_555
F13 Li14 2.004754 1_555
F14 Li7 1.893778 1_555
F14 Li8 1.896382 1_555
F14 Li11 1.923123 1_555
F15 Li7 1.872383 1_555
F15 Li10 1.914245 1_555
F15 Li15 2.047852 1_555
F16 Li16 1.882306 1_555
F16 Li17 1.886811 1_555
F16 Li13 2.029884 1_555
F17 Li17 1.844163 1_555
F17 Li14 1.866124 1_555
F17 Li9 1.920171 1_555
F18 Li19 1.867373 1_555
F18 Li15 1.957787 1_555
F18 Li10 1.981275 1_555
F18 Li12 2.260784 1_555
F19 Li13 1.873398 1_555
F19 Li12 1.888867 1_555
F19 Li16 1.902658 1_555
F20 Li11 1.840456 1_555
F20 Li20 1.844350 1_555
F20 Li15 1.948724 1_555
F21 Li3 1.859166 1_665
F21 Li19 1.870226 1_565
F21 Li18 2.033267 1_555
F22 Li13 1.873498 1_555
F22 Li21 1.877602 1_555
F22 Li17 1.900355 1_555
F23 Li19 1.886588 1_555
F23 Li8 1.893599 1_545
F23 Li18 1.896411 1_545
F24 Li0 1.856306 1_655
F24 Li14 1.921109 1_555
F24 Li23 2.027748 1_565
F25 Li22 1.852472 1_555
F25 Li15 1.936123 1_555
F25 Li20 1.970966 1_555
F26 Li16 1.845920 1_555
F26 Li23 1.913322 1_555
F26 Li14 1.938333 1_545
F27 Li18 1.874245 1_555
F27 Li20 1.898337 1_555
F27 Li2 2.053231 1_655
F28 Li1 1.837450 1_655
F28 Li17 1.841400 1_555
F29 Li1 1.881240 1_655
F29 Li6 1.894765 1_665
F29 Li0 2.044848 1_655
F30 Li3 1.856099 1_655
F30 Li4 1.860953 1_655
F30 Li22 2.106913 1_555
F31 Li21 1.910301 1_555
F31 Li23 1.973018 1_555
F31 Li5 2.045740 1_655
