# generated using pymatgen
data_Li5Mn3O5F3
_symmetry_space_group_name_H-M   'P 1'
_cell_length_a   5.80098800
_cell_length_b   5.93328085
_cell_length_c   6.09865446
_cell_angle_alpha   118.06320608
_cell_angle_beta   117.84032386
_cell_angle_gamma   90.93312737
_symmetry_Int_Tables_number   1
_chemical_formula_structural   Li5Mn3O5F3
_chemical_formula_sum   'Li5 Mn3 O5 F3'
_cell_volume   156.11955976
_cell_formula_units_Z   1
loop_
 _symmetry_equiv_pos_site_id
 _symmetry_equiv_pos_as_xyz
  1  'x, y, z'
loop_
 _atom_site_type_symbol
 _atom_site_label
 _atom_site_symmetry_multiplicity
 _atom_site_fract_x
 _atom_site_fract_y
 _atom_site_fract_z
 _atom_site_occupancy
  Li  Li0  1  0.87413300  0.12461100  0.24750600  1
  Li  Li1  1  0.86424000  0.13260500  0.74296500  1
  Li  Li2  1  0.86159000  0.61147200  0.73849100  1
  Li  Li3  1  0.39365200  0.14307800  0.28093000  1
  Li  Li4  1  0.38110000  0.61341100  0.74256000  1
  Mn  Mn0  1  0.85816900  0.60825800  0.21511900  1
  Mn  Mn1  1  0.37582300  0.62512000  0.25034900  1
  Mn  Mn2  1  0.37754700  0.12835200  0.74410000  1
  O  O0  1  0.61018400  0.39129300  0.23447900  1
  O  O1  1  0.12443000  0.40575500  0.25110300  1
  O  O2  1  0.62978300  0.84774100  0.25519100  1
  O  O3  1  0.62389000  0.37458900  0.74557200  1
  O  O4  1  0.14006100  0.85873900  0.27076600  1
  F  F0  1  0.65190300  0.87842800  0.78227700  1
  F  F1  1  0.13622600  0.88482100  0.78011900  1
  F  F2  1  0.09727000  0.37172500  0.71847400  1
loop_
_geom_bond_atom_site_label_1
_geom_bond_atom_site_label_2
_geom_bond_distance
_geom_bond_site_symmetry_2
Li0 O1 2.179038 1_655
Li0 O2 2.183733 1_545
Li0 O0 2.222165 1_555
Li0 O4 2.230197 1_645
Li1 O3 2.017441 1_555
Li1 O2 2.229624 1_545
Li1 O1 2.309604 1_656
Li2 O3 1.981976 1_555
Li2 O0 2.292268 1_555
Li2 O4 2.417330 1_656
Li3 O3 2.107941 1_555
Li3 O0 2.119345 1_555
Li3 O4 2.179380 1_545
Li3 O1 2.232013 1_555
Li3 O2 2.234233 1_545
Li4 O3 2.014250 1_555
Li4 O1 2.239599 1_555
Li4 O2 2.328231 1_556
Mn0 O1 1.967088 1_655
Mn0 O2 1.967487 1_555
Mn0 O4 1.981385 1_655
Mn0 O0 1.995471 1_555
Mn0 O3 2.130155 1_554
Mn1 O1 1.941869 1_555
Mn1 O2 1.942997 1_555
Mn1 O0 1.959705 1_555
Mn1 O4 1.966148 1_555
Mn2 O3 2.020988 1_555
Mn2 O4 2.158438 1_545
Mn2 O0 2.229567 1_556
F0 Li2 2.006966 1_555
F0 Li4 2.050552 1_555
F0 Li1 2.098719 1_565
F0 Li0 2.113898 1_566
F0 Mn2 2.200388 1_565
F0 Mn1 2.414356 1_555
F1 Li2 2.093725 1_455
F1 Mn2 2.148442 1_565
F1 Li4 2.166774 1_555
F1 Li1 2.181107 1_465
F1 Li3 2.273437 1_566
F1 Mn0 2.563217 1_455
F2 Li2 1.990825 1_455
F2 Li1 2.046481 1_455
F2 Li4 2.070715 1_555
F2 Li0 2.139716 1_455
F2 Mn2 2.191924 1_555
F2 Mn1 2.414518 1_556
