# generated using pymatgen
data_YbPrO2
_symmetry_space_group_name_H-M   'P 1'
_cell_length_a   5.96274271
_cell_length_b   5.96274271
_cell_length_c   5.96274271
_cell_angle_alpha   131.25854401
_cell_angle_beta   131.25854401
_cell_angle_gamma   71.40262748
_symmetry_Int_Tables_number   1
_chemical_formula_structural   YbPrO2
_chemical_formula_sum   'Yb2 Pr2 O4'
_cell_volume   117.25531363
_cell_formula_units_Z   2
loop_
 _symmetry_equiv_pos_site_id
 _symmetry_equiv_pos_as_xyz
  1  'x, y, z'
loop_
 _atom_site_type_symbol
 _atom_site_label
 _atom_site_symmetry_multiplicity
 _atom_site_fract_x
 _atom_site_fract_y
 _atom_site_fract_z
 _atom_site_occupancy
  Yb  Yb0  1  0.50000000  0.50000000  0.00000000  1
  Yb  Yb1  1  0.25000000  0.75000000  0.50000000  1
  Pr  Pr0  1  0.75000000  0.25000000  0.50000000  1
  Pr  Pr1  1  0.00000000  0.00000000  0.00000000  1
  O  O0  1  0.48231428  0.98231428  0.50000000  1
  O  O1  1  0.26768572  0.26768572  0.00000000  1
  O  O2  1  0.73231428  0.73231428  0.00000000  1
  O  O3  1  0.01768572  0.51768572  0.50000000  1
loop_
_geom_bond_atom_site_label_1
_geom_bond_atom_site_label_2
_geom_bond_distance
_geom_bond_site_symmetry_2
O0 Yb1 2.249808 1_555
O0 Yb0 2.466415 1_555
O0 Pr1 2.466415 1_666
O0 Yb0 2.466415 1_566
O0 Pr1 2.466415 1_565
O0 Pr0 2.592357 1_565
O1 Yb0 2.249808 1_555
O1 Pr0 2.466415 1_454
O1 Yb1 2.466415 1_544
O1 Pr0 2.466415 1_555
O1 Yb1 2.466415 1_555
O1 Pr1 2.592357 1_555
O2 Yb0 2.249808 1_555
O2 Pr0 2.466415 1_554
O2 Yb1 2.466415 1_554
O2 Pr0 2.466415 1_565
O2 Yb1 2.466415 1_655
O2 Pr1 2.592357 1_665
O3 Yb1 2.249808 1_555
O3 Yb0 2.466415 1_455
O3 Yb0 2.466415 1_556
O3 Pr1 2.466415 1_566
O3 Pr1 2.466415 1_555
O3 Pr0 2.592357 1_455
