# generated using pymatgen
data_V2O3F
_symmetry_space_group_name_H-M   'P 1'
_cell_length_a   4.62679008
_cell_length_b   4.62679008
_cell_length_c   5.93686769
_cell_angle_alpha   89.99986978
_cell_angle_beta   90.00013022
_cell_angle_gamma   94.82482528
_symmetry_Int_Tables_number   1
_chemical_formula_structural   V2O3F
_chemical_formula_sum   'V4 O6 F2'
_cell_volume   126.64128575
_cell_formula_units_Z   2
loop_
 _symmetry_equiv_pos_site_id
 _symmetry_equiv_pos_as_xyz
  1  'x, y, z'
loop_
 _atom_site_type_symbol
 _atom_site_label
 _atom_site_symmetry_multiplicity
 _atom_site_fract_x
 _atom_site_fract_y
 _atom_site_fract_z
 _atom_site_occupancy
  V  V0  1  -0.00000000  0.00000000  0.00000000  1
  V  V1  1  -0.00000000  0.00000000  0.50000000  1
  V  V2  1  0.54922024  0.45077976  0.24999633  1
  V  V3  1  0.45077976  0.54922024  0.75000367  1
  O  O0  1  0.19338116  0.80661884  0.75000617  1
  O  O1  1  0.30464747  0.30464747  0.00000000  1
  O  O2  1  0.30464200  0.30464200  0.50000000  1
  O  O3  1  0.69535253  0.69535253  0.00000000  1
  O  O4  1  0.69535800  0.69535800  0.50000000  1
  O  O5  1  0.80661884  0.19338116  0.24999383  1
  F  F0  1  0.19681001  0.80318999  0.24999048  1
  F  F1  1  0.80318999  0.19681001  0.75000952  1
loop_
_geom_bond_atom_site_label_1
_geom_bond_atom_site_label_2
_geom_bond_distance
_geom_bond_site_symmetry_2
O0 V3 1.753628 1_555
O0 V0 1.984583 1_566
O0 V1 1.984632 1_565
O1 V0 1.907718 1_555
O1 V3 1.952373 1_554
O1 V2 1.952373 1_555
O2 V1 1.907684 1_555
O2 V2 1.952429 1_555
O2 V3 1.952429 1_555
O3 V0 1.907718 1_665
O3 V3 1.952373 1_554
O3 V2 1.952373 1_555
O4 V1 1.907684 1_665
O4 V3 1.952429 1_555
O4 V2 1.952429 1_555
O5 V2 1.753628 1_555
O5 V0 1.984583 1_655
O5 V1 1.984632 1_655
F0 V0 2.000146 1_565
F0 V1 2.000236 1_565
F0 V2 2.400932 1_555
F1 V0 2.000146 1_656
F1 V1 2.000236 1_655
F1 V3 2.400932 1_555
