# generated using pymatgen
data_LiVB2O5
_symmetry_space_group_name_H-M   'P 1'
_cell_length_a   9.63027200
_cell_length_b   5.80959900
_cell_length_c   6.94083152
_cell_angle_alpha   73.33935572
_cell_angle_beta   90.00000000
_cell_angle_gamma   90.00000000
_symmetry_Int_Tables_number   1
_chemical_formula_structural   LiVB2O5
_chemical_formula_sum   'Li4 V4 B8 O20'
_cell_volume   372.02372000
_cell_formula_units_Z   4
loop_
 _symmetry_equiv_pos_site_id
 _symmetry_equiv_pos_as_xyz
  1  'x, y, z'
loop_
 _atom_site_type_symbol
 _atom_site_label
 _atom_site_symmetry_multiplicity
 _atom_site_fract_x
 _atom_site_fract_y
 _atom_site_fract_z
 _atom_site_occupancy
  Li  Li0  1  0.44226700  0.66417200  0.78421200  1
  Li  Li1  1  0.05773300  0.16417200  0.78421200  1
  Li  Li2  1  0.94226700  0.83582800  0.21578800  1
  Li  Li3  1  0.55773300  0.33582800  0.21578800  1
  V  V0  1  0.82381600  0.78941800  0.75599900  1
  V  V1  1  0.67618400  0.28941800  0.75599900  1
  V  V2  1  0.32381600  0.71058200  0.24400100  1
  V  V3  1  0.17618400  0.21058200  0.24400100  1
  B  B0  1  0.11579200  0.67255500  0.90986900  1
  B  B1  1  0.38420800  0.17255500  0.90986900  1
  B  B2  1  0.08793700  0.73782200  0.54654500  1
  B  B3  1  0.58793700  0.76217800  0.45345500  1
  B  B4  1  0.41206300  0.23782200  0.54654500  1
  B  B5  1  0.91206300  0.26217800  0.45345500  1
  B  B6  1  0.61579200  0.82744500  0.09013100  1
  B  B7  1  0.88420800  0.32744500  0.09013100  1
  O  O0  1  0.70001300  0.92605300  0.92636300  1
  O  O1  1  0.99848900  0.79858100  0.92329500  1
  O  O2  1  0.79998700  0.42605300  0.92636300  1
  O  O3  1  0.50151100  0.29858100  0.92329500  1
  O  O4  1  0.16166400  0.64303900  0.72729400  1
  O  O5  1  0.66397000  0.66901200  0.62698600  1
  O  O6  1  0.33833600  0.14303900  0.72729400  1
  O  O7  1  0.94789400  0.74385000  0.53478300  1
  O  O8  1  0.83603000  0.16901200  0.62698600  1
  O  O9  1  0.44789400  0.75615000  0.46521700  1
  O  O10  1  0.55210600  0.24385000  0.53478300  1
  O  O11  1  0.16397000  0.83098800  0.37301400  1
  O  O12  1  0.05210600  0.25615000  0.46521700  1
  O  O13  1  0.66166400  0.85696100  0.27270600  1
  O  O14  1  0.33603000  0.33098800  0.37301400  1
  O  O15  1  0.83833600  0.35696100  0.27270600  1
  O  O16  1  0.49848900  0.70141900  0.07670500  1
  O  O17  1  0.20001300  0.57394700  0.07363700  1
  O  O18  1  0.00151100  0.20141900  0.07670500  1
  O  O19  1  0.29998700  0.07394700  0.07363700  1
loop_
_geom_bond_atom_site_label_1
_geom_bond_atom_site_label_2
_geom_bond_distance
_geom_bond_site_symmetry_2
Li0 O9 2.124210 1_555
Li0 O3 2.143092 1_555
Li0 O16 2.171028 1_556
Li0 O5 2.394278 1_555
Li1 O12 2.124210 1_555
Li1 O1 2.143092 1_445
Li1 O18 2.171028 1_556
Li1 O8 2.394278 1_455
Li2 O7 2.124210 1_555
Li2 O18 2.143092 1_665
Li2 O1 2.171028 1_554
Li2 O11 2.394278 1_655
Li3 O10 2.124210 1_555
Li3 O16 2.143092 1_555
Li3 O3 2.171028 1_554
Li3 O14 2.394278 1_555
B0 O1 1.363817 1_455
B0 O17 1.380104 1_556
B0 O4 1.398216 1_555
B1 O3 1.363817 1_555
B1 O19 1.380104 1_556
B1 O6 1.398216 1_555
B2 O7 1.350968 1_455
B2 O11 1.380576 1_555
B2 O4 1.408938 1_555
B3 O9 1.350968 1_555
B3 O5 1.380576 1_555
B3 O13 1.408938 1_555
B4 O10 1.350968 1_555
B4 O14 1.380576 1_555
B4 O6 1.408938 1_555
B5 O12 1.350968 1_655
B5 O8 1.380576 1_555
B5 O15 1.408938 1_555
B6 O16 1.363817 1_555
B6 O0 1.380104 1_554
B6 O13 1.398216 1_555
B7 O18 1.363817 1_655
B7 O2 1.380104 1_554
B7 O15 1.398216 1_555
O0 V0 1.997006 1_555
O0 V1 2.115633 1_565
O1 V0 2.053345 1_555
O2 V1 1.997006 1_555
O2 V0 2.115633 1_555
O3 V1 2.053345 1_555
O5 V0 2.004984 1_555
O5 V1 2.132288 1_555
O7 V0 2.021999 1_555
O8 V1 2.004984 1_555
O8 V0 2.132288 1_545
O9 V2 2.021999 1_555
O10 V1 2.021999 1_555
O11 V2 2.004984 1_555
O11 V3 2.132288 1_565
O12 V3 2.021999 1_555
O14 V3 2.004984 1_555
O14 V2 2.132288 1_555
O16 V2 2.053345 1_555
O17 V2 1.997006 1_555
O17 V3 2.115633 1_555
O18 V3 2.053345 1_555
O19 V3 1.997006 1_555
O19 V2 2.115633 1_545
