# generated using pymatgen
data_Ba4Y2Cu5O14
_symmetry_space_group_name_H-M   'P 1'
_cell_length_a   5.49651948
_cell_length_b   5.49651948
_cell_length_c   12.70226782
_cell_angle_alpha   77.60329749
_cell_angle_beta   77.60329749
_cell_angle_gamma   90.17818394
_symmetry_Int_Tables_number   1
_chemical_formula_structural   Ba4Y2Cu5O14
_chemical_formula_sum   'Ba4 Y2 Cu5 O14'
_cell_volume   365.58398903
_cell_formula_units_Z   1
loop_
 _symmetry_equiv_pos_site_id
 _symmetry_equiv_pos_as_xyz
  1  'x, y, z'
loop_
 _atom_site_type_symbol
 _atom_site_label
 _atom_site_symmetry_multiplicity
 _atom_site_fract_x
 _atom_site_fract_y
 _atom_site_fract_z
 _atom_site_occupancy
  Ba  Ba0  1  0.59815200  0.09847500  0.80155700  1
  Ba  Ba1  1  0.90369700  0.40368600  0.19001300  1
  Ba  Ba2  1  0.09847500  0.59815200  0.80155700  1
  Ba  Ba3  1  0.40368600  0.90369700  0.19001300  1
  Y  Y0  1  0.74468000  0.24458100  0.50998500  1
  Y  Y1  1  0.24458100  0.74468000  0.50998500  1
  Cu  Cu0  1  0.99530900  0.99530900  0.00601600  1
  Cu  Cu1  1  0.49742200  0.49742200  0.00199100  1
  Cu  Cu2  1  0.82049700  0.82049700  0.35776200  1
  Cu  Cu3  1  0.31986400  0.31986400  0.35908500  1
  Cu  Cu4  1  0.68801600  0.68801600  0.62319500  1
  O  O0  1  0.23599200  0.73683900  0.00025500  1
  O  O1  1  0.45429200  0.92703500  0.61784700  1
  O  O2  1  0.57526200  0.57526200  0.85030700  1
  O  O3  1  0.45352300  0.45352300  0.61822000  1
  O  O4  1  0.73683900  0.23599200  0.00025500  1
  O  O5  1  0.06126600  0.55883900  0.37831200  1
  O  O6  1  0.92703500  0.45429200  0.61784700  1
  O  O7  1  0.92023200  0.92023200  0.15949900  1
  O  O8  1  0.07256900  0.07256900  0.85574600  1
  O  O9  1  0.06152900  0.06152900  0.37761900  1
  O  O10  1  0.92746600  0.92746600  0.61819500  1
  O  O11  1  0.55883900  0.06126600  0.37831200  1
  O  O12  1  0.42249600  0.42249600  0.15552900  1
  O  O13  1  0.55971900  0.55971900  0.37761800  1
loop_
_geom_bond_atom_site_label_1
_geom_bond_atom_site_label_2
_geom_bond_distance
_geom_bond_site_symmetry_2
Ba0 O2 2.805260 1_545
Ba0 O2 2.816479 1_555
Ba0 O8 2.818025 1_555
Ba0 O8 2.832798 1_655
Ba0 O1 2.947941 1_545
Ba0 O3 2.952442 1_555
Ba0 O10 2.953830 1_545
Ba0 O6 2.957277 1_555
Ba0 O4 3.027237 1_556
Ba0 O0 3.154046 1_546
Ba1 O7 2.765576 1_545
Ba1 O12 2.770903 1_555
Ba1 O7 2.780351 1_555
Ba1 O12 2.788645 1_655
Ba1 O0 2.948372 1_655
Ba1 O9 2.990293 1_655
Ba1 O13 2.990329 1_555
Ba1 O11 2.992416 1_555
Ba1 O5 2.993126 1_655
Ba1 O4 3.065674 1_555
Ba2 O2 2.805260 1_455
Ba2 O2 2.816479 1_555
Ba2 O8 2.818025 1_555
Ba2 O8 2.832798 1_565
Ba2 O6 2.947941 1_455
Ba2 O3 2.952442 1_555
Ba2 O10 2.953830 1_455
Ba2 O1 2.957277 1_555
Ba2 O0 3.027237 1_556
Ba2 O4 3.154046 1_456
Ba3 O7 2.765576 1_455
Ba3 O12 2.770903 1_555
Ba3 O7 2.780351 1_555
Ba3 O12 2.788645 1_565
Ba3 O4 2.948372 1_565
Ba3 O9 2.990293 1_565
Ba3 O13 2.990329 1_555
Ba3 O5 2.992416 1_555
Ba3 O11 2.993126 1_565
Ba3 O0 3.065674 1_555
Cu0 O8 1.818487 1_664
Cu0 O7 1.857293 1_555
Cu0 O0 1.946427 1_655
Cu0 O4 1.946427 1_565
Cu1 O2 1.835587 1_554
Cu1 O12 1.857967 1_555
Cu1 O0 1.951918 1_555
Cu1 O4 1.951918 1_555
Cu2 O13 1.962014 1_555
Cu2 O9 1.962152 1_665
Cu2 O11 1.971526 1_565
Cu2 O5 1.971526 1_655
Cu2 O7 2.399153 1_555
Cu3 O13 1.946100 1_555
Cu3 O9 1.946356 1_555
Cu3 O5 1.950810 1_555
Cu3 O11 1.950810 1_555
Cu3 O12 2.463210 1_555
Cu4 O10 1.840092 1_555
Cu4 O3 1.840137 1_555
Cu4 O6 1.841368 1_555
Cu4 O1 1.841368 1_555
O1 Y1 2.339013 1_555
O1 Y0 2.342683 1_565
O3 Y1 2.348383 1_555
O3 Y0 2.348383 1_555
O5 Y0 2.510048 1_455
O5 Y1 2.511333 1_555
O6 Y0 2.339013 1_555
O6 Y1 2.342683 1_655
O9 Y1 2.520381 1_545
O9 Y0 2.520381 1_455
O10 Y1 2.347761 1_655
O10 Y0 2.347761 1_565
O11 Y1 2.510048 1_545
O11 Y0 2.511333 1_555
O13 Y1 2.520979 1_555
O13 Y0 2.520979 1_555
