# generated using pymatgen
data_Li13Mn8O24
_symmetry_space_group_name_H-M   'P 1'
_cell_length_a   4.98005941
_cell_length_b   4.98005941
_cell_length_c   19.26638911
_cell_angle_alpha   87.18832349
_cell_angle_beta   87.18832349
_cell_angle_gamma   119.68047249
_symmetry_Int_Tables_number   1
_chemical_formula_structural   Li13Mn8O24
_chemical_formula_sum   'Li13 Mn8 O24'
_cell_volume   413.15158652
_cell_formula_units_Z   1
loop_
 _symmetry_equiv_pos_site_id
 _symmetry_equiv_pos_as_xyz
  1  'x, y, z'
loop_
 _atom_site_type_symbol
 _atom_site_label
 _atom_site_symmetry_multiplicity
 _atom_site_fract_x
 _atom_site_fract_y
 _atom_site_fract_z
 _atom_site_occupancy
  Li  Li0  1  0.50805100  0.00686100  0.24960700  1
  Li  Li1  1  0.37483200  0.86756100  0.62389200  1
  Li  Li2  1  0.99313900  0.49194900  0.75039300  1
  Li  Li3  1  0.75395300  0.24604700  0.50000000  1
  Li  Li4  1  0.90228000  0.09772000  0.00000000  1
  Li  Li5  1  0.25009100  0.74990900  0.00000000  1
  Li  Li6  1  0.34628200  0.16051400  0.74971700  1
  Li  Li7  1  0.15387900  0.33930000  0.25025700  1
  Li  Li8  1  0.83948600  0.65371800  0.25028300  1
  Li  Li9  1  0.66070000  0.84612100  0.74974300  1
  Li  Li10  1  0.09272600  0.90727400  0.50000000  1
  Li  Li11  1  0.13243900  0.62516800  0.37610800  1
  Li  Li12  1  0.59787100  0.40212900  0.00000000  1
  Mn  Mn0  1  0.45459800  0.29316500  0.37515600  1
  Mn  Mn1  1  0.95794400  0.79240000  0.87501200  1
  Mn  Mn2  1  0.78576700  0.95397200  0.37549100  1
  Mn  Mn3  1  0.29301500  0.45746800  0.87499600  1
  Mn  Mn4  1  0.70683500  0.54540200  0.62484400  1
  Mn  Mn5  1  0.20760000  0.04205600  0.12498800  1
  Mn  Mn6  1  0.04602800  0.21423300  0.62450900  1
  Mn  Mn7  1  0.54253200  0.70698500  0.12500400  1
  O  O0  1  0.46331900  0.97186500  0.43050400  1
  O  O1  1  0.78630200  0.28739800  0.31720700  1
  O  O2  1  0.97694300  0.47651700  0.93342200  1
  O  O3  1  0.35424800  0.50210600  0.68160600  1
  O  O4  1  0.49789400  0.64575200  0.31839400  1
  O  O5  1  0.27124400  0.77099700  0.81695900  1
  O  O6  1  0.39623300  0.24689100  0.57151100  1
  O  O7  1  0.85404200  0.98143900  0.18210400  1
  O  O8  1  0.01856100  0.14595800  0.81789600  1
  O  O9  1  0.76147300  0.90404400  0.57024200  1
  O  O10  1  0.75310900  0.60376700  0.42848900  1
  O  O11  1  0.89612200  0.76918000  0.06788100  1
  O  O12  1  0.09595600  0.23852700  0.42975800  1
  O  O13  1  0.26930500  0.39623600  0.06790000  1
  O  O14  1  0.23082000  0.10387800  0.93211900  1
  O  O15  1  0.99787700  0.85656400  0.68125300  1
  O  O16  1  0.14343600  0.00212300  0.31874700  1
  O  O17  1  0.60376400  0.73069500  0.93210000  1
  O  O18  1  0.71260200  0.21369800  0.68279300  1
  O  O19  1  0.48146200  0.35409800  0.18213500  1
  O  O20  1  0.64590200  0.51853800  0.81786500  1
  O  O21  1  0.02813500  0.53668100  0.56949600  1
  O  O22  1  0.22900300  0.72875600  0.18304100  1
  O  O23  1  0.52348300  0.02305700  0.06657800  1
loop_
_geom_bond_atom_site_label_1
_geom_bond_atom_site_label_2
_geom_bond_distance
_geom_bond_site_symmetry_2
Li0 O22 1.984237 1_545
Li0 O1 2.001663 1_555
Li0 O4 2.159278 1_545
Li0 O7 2.165339 1_545
Li0 O19 2.172749 1_555
Li0 O16 2.188452 1_555
Li1 O3 2.040782 1_555
Li1 O6 2.049756 1_565
Li1 O9 2.061267 1_555
Li1 O21 2.079437 1_555
Li1 O15 2.106453 1_455
Li1 O18 2.143914 1_565
Li2 O5 1.984237 1_655
Li2 O18 2.001663 1_555
Li2 O3 2.159278 1_655
Li2 O8 2.165339 1_655
Li2 O20 2.172749 1_555
Li2 O15 2.188452 1_555
Li3 O0 2.040681 1_545
Li3 O21 2.040681 1_655
Li3 O12 2.139096 1_655
Li3 O9 2.139096 1_545
Li3 O6 2.199784 1_555
Li3 O10 2.199784 1_555
Li4 O11 2.030952 1_545
Li4 O14 2.030952 1_654
Li4 O2 2.088880 1_554
Li4 O23 2.088880 1_555
Li4 O13 2.235329 1_655
Li4 O17 2.235329 1_544
Li5 O23 1.964142 1_565
Li5 O2 1.964142 1_454
Li5 O13 2.185376 1_555
Li5 O17 2.185376 1_554
Li5 O11 2.186482 1_455
Li5 O14 2.186482 1_564
Li6 O8 2.014330 1_555
Li6 O18 2.077964 1_555
Li6 O3 2.080034 1_555
Li6 O5 2.137513 1_545
Li6 O15 2.204793 1_445
Li6 O20 2.217322 1_555
Li7 O19 2.012659 1_555
Li7 O16 2.062261 1_555
Li7 O1 2.085332 1_455
Li7 O22 2.136865 1_555
Li7 O4 2.194409 1_555
Li7 O7 2.217309 1_445
Li8 O7 2.014330 1_555
Li8 O1 2.077964 1_555
Li8 O4 2.080034 1_555
Li8 O22 2.137513 1_655
Li8 O16 2.204793 1_665
Li8 O19 2.217322 1_555
Li9 O20 2.012659 1_555
Li9 O15 2.062261 1_555
Li9 O18 2.085332 1_565
Li9 O5 2.136865 1_555
Li9 O3 2.194409 1_555
Li9 O8 2.217309 1_665
Li10 O9 2.075005 1_455
Li10 O12 2.075005 1_565
Li10 O21 2.104701 1_555
Li10 O0 2.104701 1_555
Li10 O6 2.223644 1_565
Li10 O10 2.223644 1_455
Li11 O4 2.040782 1_555
Li11 O10 2.049756 1_455
Li11 O12 2.061267 1_555
Li11 O0 2.079437 1_555
Li11 O16 2.106453 1_565
Li11 O1 2.143914 1_455
Li12 O17 2.031821 1_554
Li12 O13 2.031821 1_555
Li12 O23 2.090365 1_555
Li12 O2 2.090365 1_554
Li12 O11 2.234774 1_555
Li12 O14 2.234774 1_554
Mn0 O0 1.898754 1_545
Mn0 O12 1.917554 1_555
Mn0 O10 1.920155 1_555
Mn0 O4 1.933698 1_555
Mn0 O16 1.943880 1_555
Mn0 O1 1.960946 1_555
Mn1 O8 1.911334 1_665
Mn1 O17 1.911813 1_555
Mn1 O14 1.920930 1_665
Mn1 O5 1.924036 1_655
Mn1 O20 1.924442 1_555
Mn1 O2 1.932415 1_555
Mn2 O12 1.903548 1_665
Mn2 O10 1.907572 1_555
Mn2 O0 1.921966 1_555
Mn2 O4 1.939742 1_555
Mn2 O16 1.945678 1_665
Mn2 O1 1.957181 1_565
Mn3 O20 1.908029 1_555
Mn3 O14 1.908983 1_555
Mn3 O17 1.919722 1_555
Mn3 O8 1.923571 1_555
Mn3 O5 1.925682 1_555
Mn3 O2 1.933465 1_455
Mn4 O21 1.898754 1_655
Mn4 O9 1.917554 1_555
Mn4 O6 1.920155 1_555
Mn4 O3 1.933698 1_555
Mn4 O15 1.943880 1_555
Mn4 O18 1.960946 1_555
Mn5 O7 1.911334 1_445
Mn5 O13 1.911813 1_555
Mn5 O11 1.920930 1_445
Mn5 O22 1.924036 1_545
Mn5 O19 1.924442 1_555
Mn5 O23 1.932415 1_555
Mn6 O9 1.903548 1_445
Mn6 O6 1.907572 1_555
Mn6 O21 1.921966 1_555
Mn6 O3 1.939742 1_555
Mn6 O15 1.945678 1_445
Mn6 O18 1.957181 1_455
Mn7 O19 1.908029 1_555
Mn7 O11 1.908983 1_555
Mn7 O13 1.919722 1_555
Mn7 O7 1.923571 1_555
Mn7 O22 1.925682 1_555
Mn7 O23 1.933465 1_565
