# generated using pymatgen
data_NaLuO2
_symmetry_space_group_name_H-M   'P 1'
_cell_length_a   3.29402805
_cell_length_b   5.77286289
_cell_length_c   3.29402700
_cell_angle_alpha   106.57694473
_cell_angle_beta   59.99999959
_cell_angle_gamma   106.57694483
_symmetry_Int_Tables_number   1
_chemical_formula_structural   NaLuO2
_chemical_formula_sum   'Na1 Lu1 O2'
_cell_volume   51.21882834
_cell_formula_units_Z   1
loop_
 _symmetry_equiv_pos_site_id
 _symmetry_equiv_pos_as_xyz
  1  'x, y, z'
loop_
 _atom_site_type_symbol
 _atom_site_label
 _atom_site_symmetry_multiplicity
 _atom_site_fract_x
 _atom_site_fract_y
 _atom_site_fract_z
 _atom_site_occupancy
  Na  Na0  1  -0.00000000  -0.00000000  -0.00000000  1
  Lu  Lu0  1  0.50000000  0.50000000  0.50000000  1
  O  O0  1  0.23627967  0.70883902  0.23627967  1
  O  O1  1  0.76372033  0.29116098  0.76372033  1
loop_
_geom_bond_atom_site_label_1
_geom_bond_atom_site_label_2
_geom_bond_distance
_geom_bond_site_symmetry_2
Na0 O1 2.476984 1_455
Na0 O0 2.476984 1_544
Na0 O1 2.476984 1_454
Na0 O0 2.476984 1_545
Na0 O1 2.476985 1_554
Na0 O0 2.476985 1_445
Lu0 O1 2.216437 1_554
Lu0 O0 2.216437 1_556
Lu0 O1 2.216438 1_555
Lu0 O0 2.216438 1_555
Lu0 O1 2.216438 1_455
Lu0 O0 2.216438 1_655
