# generated using pymatgen
data_Li2FeNi3O8
_symmetry_space_group_name_H-M   'P 1'
_cell_length_a   5.72209974
_cell_length_b   5.86286552
_cell_length_c   10.07731631
_cell_angle_alpha   74.21492756
_cell_angle_beta   90.00119239
_cell_angle_gamma   119.20651450
_symmetry_Int_Tables_number   1
_chemical_formula_structural   Li2FeNi3O8
_chemical_formula_sum   'Li4 Fe2 Ni6 O16'
_cell_volume   280.39701898
_cell_formula_units_Z   2
loop_
 _symmetry_equiv_pos_site_id
 _symmetry_equiv_pos_as_xyz
  1  'x, y, z'
loop_
 _atom_site_type_symbol
 _atom_site_label
 _atom_site_symmetry_multiplicity
 _atom_site_fract_x
 _atom_site_fract_y
 _atom_site_fract_z
 _atom_site_occupancy
  Li  Li0  1  0.49903100  0.49804700  0.00149800  1
  Li  Li1  1  0.00097900  0.50194900  0.49850800  1
  Li  Li2  1  0.00153800  0.50308800  0.99676600  1
  Li  Li3  1  0.49846800  0.49691300  0.50323600  1
  Fe  Fe0  1  0.25000500  0.99998300  0.74999000  1
  Fe  Fe1  1  0.74999300  0.00000700  0.24999500  1
  Ni  Ni0  1  0.24997700  0.99998700  0.25002900  1
  Ni  Ni1  1  0.74998600  0.99998100  0.75002000  1
  Ni  Ni2  1  0.49742700  0.99645600  0.00070900  1
  Ni  Ni3  1  0.00256300  0.00354800  0.49929000  1
  Ni  Ni4  1  0.99902700  0.99645000  0.00070700  1
  Ni  Ni5  1  0.50098700  0.00355600  0.49929000  1
  O  O0  1  0.14345500  0.78687100  0.10199000  1
  O  O1  1  0.64738700  0.79474200  0.60246500  1
  O  O2  1  0.35655400  0.21315600  0.39800100  1
  O  O3  1  0.85262100  0.20527600  0.89752300  1
  O  O4  1  0.64597700  0.79192200  0.10625900  1
  O  O5  1  0.14862200  0.79721800  0.60496500  1
  O  O6  1  0.85402800  0.20808800  0.39373900  1
  O  O7  1  0.35137200  0.20277300  0.89502200  1
  O  O8  1  0.38779200  0.79462700  0.37537900  1
  O  O9  1  0.88891000  0.78820100  0.87667000  1
  O  O10  1  0.90681300  0.79459200  0.37538500  1
  O  O11  1  0.39930400  0.78817800  0.87667400  1
  O  O12  1  0.59318200  0.20540600  0.12461200  1
  O  O13  1  0.10069500  0.21179800  0.62332800  1
  O  O14  1  0.11220400  0.20538000  0.12462300  1
  O  O15  1  0.61110400  0.21180700  0.62332800  1
loop_
_geom_bond_atom_site_label_1
_geom_bond_atom_site_label_2
_geom_bond_distance
_geom_bond_site_symmetry_2
Li0 O4 2.089456 1_555
Li0 O7 2.108361 1_554
Li0 O12 2.125347 1_555
Li0 O14 2.125652 1_555
Li0 O11 2.141141 1_554
Li0 O9 2.141366 1_554
Li1 O6 2.089452 1_455
Li1 O5 2.108199 1_555
Li1 O10 2.125445 1_455
Li1 O8 2.125624 1_555
Li1 O13 2.141174 1_555
Li1 O15 2.141313 1_455
Li2 O0 2.047746 1_556
Li2 O3 2.067111 1_455
Li2 O9 2.150552 1_455
Li2 O11 2.150737 1_555
Li2 O12 2.227705 1_456
Li2 O14 2.227712 1_556
Li3 O2 2.047712 1_555
Li3 O1 2.067088 1_555
Li3 O15 2.150537 1_555
Li3 O13 2.150780 1_555
Li3 O10 2.227680 1_555
Li3 O8 2.227777 1_555
Fe0 O15 2.018495 1_565
Fe0 O13 2.018502 1_565
Fe0 O11 2.018521 1_555
Fe0 O9 2.018576 1_455
Fe0 O5 2.039064 1_555
Fe0 O7 2.039220 1_565
Fe1 O12 2.019512 1_555
Fe1 O14 2.019579 1_655
Fe1 O8 2.019590 1_545
Fe1 O10 2.019642 1_545
Fe1 O4 2.047780 1_545
Fe1 O6 2.047835 1_555
Ni0 O8 1.940682 1_555
Ni0 O10 1.940756 1_455
Ni0 O14 1.940908 1_565
Ni0 O12 1.941211 1_565
Ni0 O2 2.104160 1_565
Ni0 O0 2.104547 1_555
Ni1 O9 1.975742 1_555
Ni1 O11 1.975767 1_555
Ni1 O15 1.975948 1_565
Ni1 O13 1.976055 1_665
Ni1 O3 2.070406 1_565
Ni1 O1 2.070655 1_555
Ni2 O11 1.878821 1_554
Ni2 O12 1.880714 1_565
Ni2 O0 1.882274 1_555
Ni2 O7 1.892502 1_564
Ni2 O3 1.894756 1_564
Ni2 O4 1.895429 1_555
Ni3 O13 1.878733 1_555
Ni3 O10 1.880756 1_445
Ni3 O2 1.882383 1_555
Ni3 O5 1.892526 1_545
Ni3 O1 1.894639 1_445
Ni3 O6 1.895393 1_455
Ni4 O9 1.878721 1_554
Ni4 O14 1.880744 1_665
Ni4 O0 1.882334 1_655
Ni4 O7 1.892476 1_664
Ni4 O3 1.894812 1_564
Ni4 O4 1.895391 1_555
Ni5 O15 1.878737 1_555
Ni5 O8 1.880701 1_545
Ni5 O2 1.882467 1_555
Ni5 O5 1.892521 1_545
Ni5 O1 1.894702 1_545
Ni5 O6 1.895347 1_555
