# generated using pymatgen
data_V3O5F
_symmetry_space_group_name_H-M   'P 1'
_cell_length_a   2.90382307
_cell_length_b   4.57729956
_cell_length_c   13.75941541
_cell_angle_alpha   87.74398314
_cell_angle_beta   90.00000000
_cell_angle_gamma   90.00000000
_symmetry_Int_Tables_number   1
_chemical_formula_structural   V3O5F
_chemical_formula_sum   'V6 O10 F2'
_cell_volume   182.74382933
_cell_formula_units_Z   2
loop_
 _symmetry_equiv_pos_site_id
 _symmetry_equiv_pos_as_xyz
  1  'x, y, z'
loop_
 _atom_site_type_symbol
 _atom_site_label
 _atom_site_symmetry_multiplicity
 _atom_site_fract_x
 _atom_site_fract_y
 _atom_site_fract_z
 _atom_site_occupancy
  V  V0  1  0.00000000  0.00000000  0.00000000  1
  V  V1  1  0.00000000  0.02245075  0.34155386  1
  V  V2  1  -0.00000000  0.97754925  0.65844614  1
  V  V3  1  0.50000000  0.47303644  0.15831817  1
  V  V4  1  0.50000000  0.50000000  0.50000000  1
  V  V5  1  0.50000000  0.52696356  0.84168183  1
  O  O0  1  0.50000000  0.79966267  0.59871402  1
  O  O1  1  0.50000000  0.79751100  0.93467956  1
  O  O2  1  -0.00000000  0.70009202  0.10297657  1
  O  O3  1  -0.00000000  0.70664857  0.76551014  1
  O  O4  1  -0.00000000  0.70045045  0.43129659  1
  O  O5  1  -0.00000000  0.29335143  0.23448986  1
  O  O6  1  -0.00000000  0.29954955  0.56870341  1
  O  O7  1  0.00000000  0.29990798  0.89702343  1
  O  O8  1  0.50000000  0.20248900  0.06532044  1
  O  O9  1  0.50000000  0.20033733  0.40128598  1
  F  F0  1  0.50000000  0.79794585  0.26771027  1
  F  F1  1  0.50000000  0.20205415  0.73228973  1
loop_
_geom_bond_atom_site_label_1
_geom_bond_atom_site_label_2
_geom_bond_distance
_geom_bond_site_symmetry_2
O0 V2 1.870616 1_655
O0 V2 1.870616 1_555
O0 V4 1.967974 1_555
O1 V5 1.815405 1_555
O1 V0 1.959713 1_666
O1 V0 1.959713 1_566
O2 V3 1.925025 1_455
O2 V3 1.925025 1_555
O2 V0 1.933638 1_565
O3 V2 1.887831 1_555
O3 V5 1.953230 1_555
O3 V5 1.953230 1_455
O4 V1 1.885158 1_565
O4 V4 1.942996 1_455
O4 V4 1.942996 1_555
O5 V1 1.887831 1_555
O5 V3 1.953230 1_455
O5 V3 1.953230 1_555
O6 V2 1.885158 1_545
O6 V4 1.942996 1_555
O6 V4 1.942996 1_455
O7 V5 1.925025 1_455
O7 V5 1.925025 1_555
O7 V0 1.933638 1_556
O8 V3 1.815405 1_555
O8 V0 1.959713 1_655
O8 V0 1.959713 1_555
O9 V1 1.870616 1_555
O9 V1 1.870616 1_655
O9 V4 1.967974 1_555
F0 V1 2.068481 1_665
F0 V1 2.068481 1_565
F0 V3 2.157212 1_555
F1 V2 2.068481 1_645
F1 V2 2.068481 1_545
F1 V5 2.157212 1_555
