# generated using pymatgen
data_Li4Cr3CuO8
_symmetry_space_group_name_H-M   'P 1'
_cell_length_a   10.25053994
_cell_length_b   10.25053997
_cell_length_c   14.49703110
_cell_angle_alpha   19.46583660
_cell_angle_beta   19.46582692
_cell_angle_gamma   33.54878102
_symmetry_Int_Tables_number   1
_chemical_formula_structural   Li4Cr3CuO8
_chemical_formula_sum   'Li4 Cr3 Cu1 O8'
_cell_volume   146.49166473
_cell_formula_units_Z   1
loop_
 _symmetry_equiv_pos_site_id
 _symmetry_equiv_pos_as_xyz
  1  'x, y, z'
loop_
 _atom_site_type_symbol
 _atom_site_label
 _atom_site_symmetry_multiplicity
 _atom_site_fract_x
 _atom_site_fract_y
 _atom_site_fract_z
 _atom_site_occupancy
  Li  Li0  1  0.00000000  0.00000000  0.50000000  1
  Li  Li1  1  0.00000000  0.50000000  0.50000000  1
  Li  Li2  1  0.50000000  0.00000000  0.50000000  1
  Li  Li3  1  0.50000000  0.50000000  0.50000000  1
  Cr  Cr0  1  0.99999200  0.49999100  0.00001200  1
  Cr  Cr1  1  0.50000200  0.00000400  0.99999600  1
  Cr  Cr2  1  0.50000100  0.50000200  0.99999800  1
  Cu  Cu0  1  0.00000300  0.00000100  0.99999800  1
  O  O0  1  0.99999600  0.99999600  0.25797600  1
  O  O1  1  0.00004300  0.49578300  0.26109100  1
  O  O2  1  0.49578400  0.00004400  0.26109100  1
  O  O3  1  0.00000400  0.00000500  0.74202400  1
  O  O4  1  0.50411600  0.50411700  0.25284900  1
  O  O5  1  0.99995700  0.50421700  0.73890800  1
  O  O6  1  0.50421600  0.99995600  0.73890800  1
  O  O7  1  0.49588500  0.49588400  0.74715000  1
loop_
_geom_bond_atom_site_label_1
_geom_bond_atom_site_label_2
_geom_bond_distance
_geom_bond_site_symmetry_2
Li0 O1 2.152399 1_555
Li0 O5 2.152408 1_445
Li0 O2 2.152412 1_555
Li0 O6 2.152421 1_445
Li0 O7 2.152972 1_554
Li0 O4 2.152972 1_446
Li1 O3 2.160793 1_555
Li1 O0 2.160802 1_455
Li1 O2 2.169468 1_456
Li1 O6 2.169477 1_554
Li1 O7 2.169650 1_455
Li1 O4 2.169654 1_555
Li2 O3 2.160797 1_555
Li2 O0 2.160801 1_545
Li2 O1 2.169459 1_546
Li2 O5 2.169467 1_554
Li2 O7 2.169655 1_545
Li2 O4 2.169659 1_555
Li3 O3 2.160795 1_664
Li3 O0 2.160799 1_446
Li3 O1 2.169651 1_655
Li3 O5 2.169660 1_455
Li3 O2 2.169665 1_565
Li3 O6 2.169674 1_545
Cr0 O4 2.018736 1_555
Cr0 O7 2.018750 1_654
Cr0 O6 2.018811 1_545
Cr0 O2 2.018879 1_664
Cr0 O0 2.027488 1_545
Cr0 O3 2.027514 1_664
Cr1 O7 2.018733 1_555
Cr1 O4 2.018746 1_546
Cr1 O1 2.018848 1_655
Cr1 O5 2.018857 1_446
Cr1 O0 2.027496 1_446
Cr1 O3 2.027500 1_655
Cr2 O6 2.018676 1_555
Cr2 O5 2.018692 1_555
Cr2 O2 2.018693 1_556
Cr2 O1 2.018700 1_556
Cr2 O0 2.027444 1_555
Cr2 O3 2.027457 1_556
Cu0 O4 2.036473 1_555
Cu0 O7 2.036474 1_446
Cu0 O6 2.037053 1_545
Cu0 O5 2.037074 1_455
Cu0 O2 2.037085 1_456
Cu0 O1 2.037089 1_546
