# generated using pymatgen
data_LiCoPO4
_symmetry_space_group_name_H-M   'P 1'
_cell_length_a   5.13927123
_cell_length_b   9.55536345
_cell_length_c   6.07681800
_cell_angle_alpha   89.99989455
_cell_angle_beta   90.00026583
_cell_angle_gamma   83.89328715
_symmetry_Int_Tables_number   1
_chemical_formula_structural   LiCoPO4
_chemical_formula_sum   'Li4 Co4 P4 O16'
_cell_volume   296.72459829
_cell_formula_units_Z   4
loop_
 _symmetry_equiv_pos_site_id
 _symmetry_equiv_pos_as_xyz
  1  'x, y, z'
loop_
 _atom_site_type_symbol
 _atom_site_label
 _atom_site_symmetry_multiplicity
 _atom_site_fract_x
 _atom_site_fract_y
 _atom_site_fract_z
 _atom_site_occupancy
  Li  Li0  1  0.15883400  0.92835200  0.63909900  1
  Li  Li1  1  0.34116800  0.57165100  0.13909200  1
  Li  Li2  1  0.65883500  0.42835200  0.86090100  1
  Li  Li3  1  0.84116800  0.07165200  0.36090800  1
  Co  Co0  1  0.29605400  0.15826200  0.11187300  1
  Co  Co1  1  0.79605600  0.65826200  0.38812800  1
  Co  Co2  1  0.20400100  0.34170200  0.61189500  1
  Co  Co3  1  0.70399400  0.84170000  0.88811000  1
  P  P0  1  0.25680700  0.63702100  0.64929300  1
  P  P1  1  0.24316200  0.86297800  0.14927500  1
  P  P2  1  0.75680500  0.13702400  0.85070500  1
  P  P3  1  0.74316600  0.36297700  0.35072600  1
  O  O0  1  0.00561500  0.74507300  0.66516100  1
  O  O1  1  0.50561300  0.24507300  0.83483800  1
  O  O2  1  0.49438700  0.75495300  0.16512200  1
  O  O3  1  0.99439200  0.25495600  0.33487800  1
  O  O4  1  0.99974800  0.77873500  0.13867700  1
  O  O5  1  0.49975200  0.27873600  0.36132500  1
  O  O6  1  0.50024900  0.72124500  0.63872000  1
  O  O7  1  0.00024700  0.22124400  0.86127800  1
  O  O8  1  0.21758600  0.55311700  0.43367300  1
  O  O9  1  0.28242000  0.94693100  0.93370900  1
  O  O10  1  0.71758700  0.05311900  0.06632700  1
  O  O11  1  0.78242000  0.44692800  0.56629000  1
  O  O12  1  0.28134500  0.52494000  0.83449700  1
  O  O13  1  0.21861900  0.97503800  0.33453800  1
  O  O14  1  0.78135100  0.02494200  0.66550000  1
  O  O15  1  0.71861900  0.47503800  0.16546200  1
loop_
_geom_bond_atom_site_label_1
_geom_bond_atom_site_label_2
_geom_bond_distance
_geom_bond_site_symmetry_2
Li0 O9 1.914170 1_555
Li0 O13 1.935948 1_555
Li0 O0 2.001395 1_555
Li0 O14 2.064021 1_465
Li0 O6 2.501259 1_555
Li1 O8 1.913948 1_555
Li1 O12 1.936239 1_554
Li1 O2 2.001581 1_555
Li1 O15 2.063934 1_555
Li1 O4 2.501118 1_455
Li2 O11 1.914175 1_555
Li2 O15 1.935946 1_556
Li2 O1 2.001403 1_555
Li2 O12 2.064046 1_555
Li2 O7 2.501257 1_655
Li3 O10 1.913940 1_555
Li3 O14 1.936215 1_555
Li3 O3 2.001611 1_555
Li3 O13 2.063939 1_645
Li3 O5 2.501105 1_555
Co0 O3 2.188356 1_455
Co0 O7 2.190340 1_554
Co0 O1 2.207307 1_554
Co0 O5 2.230556 1_555
Co0 O13 2.280937 1_545
Co0 O9 2.298902 1_544
Co0 O10 2.305664 1_555
Co1 O2 2.188362 1_555
Co1 O6 2.190341 1_555
Co1 O0 2.207292 1_655
Co1 O4 2.230534 1_555
Co1 O15 2.280945 1_555
Co1 O11 2.298919 1_555
Co1 O8 2.305653 1_655
Co2 O1 2.187725 1_555
Co2 O5 2.190024 1_555
Co2 O3 2.207088 1_455
Co2 O7 2.230340 1_555
Co2 O12 2.280697 1_555
Co2 O8 2.299741 1_555
Co2 O11 2.306191 1_455
Co3 O0 2.187783 1_655
Co3 O4 2.190008 1_556
Co3 O2 2.207069 1_556
Co3 O6 2.230324 1_555
Co3 O14 2.280771 1_565
Co3 O10 2.299768 1_566
Co3 O9 2.306173 1_555
O0 P0 1.567884 1_555
O1 P2 1.567866 1_555
O2 P1 1.567856 1_555
O3 P3 1.567839 1_555
O4 P1 1.559264 1_655
O5 P3 1.559253 1_555
O6 P0 1.559272 1_555
O7 P2 1.559249 1_455
O8 P0 1.560331 1_555
O9 P1 1.560337 1_556
O10 P2 1.560342 1_554
O11 P3 1.560313 1_555
O12 P0 1.549448 1_555
O13 P1 1.549575 1_555
O14 P2 1.549463 1_555
O15 P3 1.549583 1_555
