# generated using pymatgen
data_HfO2
_symmetry_space_group_name_H-M   'P 1'
_cell_length_a   10.09373135
_cell_length_b   5.14134738
_cell_length_c   5.25900202
_cell_angle_alpha   90.00000000
_cell_angle_beta   90.00000000
_cell_angle_gamma   90.00000000
_symmetry_Int_Tables_number   1
_chemical_formula_structural   HfO2
_chemical_formula_sum   'Hf8 O16'
_cell_volume   272.91790420
_cell_formula_units_Z   8
loop_
 _symmetry_equiv_pos_site_id
 _symmetry_equiv_pos_as_xyz
  1  'x, y, z'
loop_
 _atom_site_type_symbol
 _atom_site_label
 _atom_site_symmetry_multiplicity
 _atom_site_fract_x
 _atom_site_fract_y
 _atom_site_fract_z
 _atom_site_occupancy
  Hf  Hf0  1  0.13811216  0.95931184  0.34269293  1
  Hf  Hf1  1  0.13811216  0.54068816  0.84269293  1
  Hf  Hf2  1  0.36188784  0.45931184  0.34269293  1
  Hf  Hf3  1  0.36188784  0.04068816  0.84269293  1
  Hf  Hf4  1  0.63811216  0.95931184  0.15730707  1
  Hf  Hf5  1  0.63811216  0.54068816  0.65730707  1
  Hf  Hf6  1  0.86188784  0.45931184  0.15730707  1
  Hf  Hf7  1  0.86188784  0.04068816  0.65730707  1
  O  O0  1  0.03364634  0.83141708  0.66708938  1
  O  O1  1  0.03364634  0.66858292  0.16708938  1
  O  O2  1  0.22371351  0.24759954  0.08750211  1
  O  O3  1  0.22371351  0.25240046  0.58750211  1
  O  O4  1  0.27628649  0.74759954  0.08750211  1
  O  O5  1  0.27628649  0.75240046  0.58750211  1
  O  O6  1  0.46635366  0.16858292  0.16708938  1
  O  O7  1  0.46635366  0.33141708  0.66708938  1
  O  O8  1  0.53364634  0.66858292  0.33291062  1
  O  O9  1  0.53364634  0.83141708  0.83291062  1
  O  O10  1  0.72371351  0.24759954  0.41249789  1
  O  O11  1  0.72371351  0.25240046  0.91249789  1
  O  O12  1  0.77628649  0.74759954  0.41249789  1
  O  O13  1  0.77628649  0.75240046  0.91249789  1
  O  O14  1  0.96635366  0.16858292  0.33291062  1
  O  O15  1  0.96635366  0.33141708  0.83291062  1
loop_
_geom_bond_atom_site_label_1
_geom_bond_atom_site_label_2
_geom_bond_distance
_geom_bond_site_symmetry_2
Hf0 O14 2.041064 1_465
Hf0 O1 2.049136 1_555
Hf0 O0 2.110611 1_555
Hf0 O3 2.162117 1_565
Hf0 O5 2.175864 1_555
Hf0 O2 2.178195 1_565
Hf0 O4 2.220602 1_555
Hf1 O15 2.041064 1_455
Hf1 O0 2.049136 1_555
Hf1 O1 2.110611 1_556
Hf1 O2 2.162117 1_556
Hf1 O4 2.175864 1_556
Hf1 O3 2.178195 1_555
Hf1 O5 2.220602 1_555
Hf2 O8 2.041064 1_555
Hf2 O6 2.049136 1_555
Hf2 O7 2.110611 1_555
Hf2 O5 2.162117 1_555
Hf2 O3 2.175864 1_555
Hf2 O4 2.178195 1_555
Hf2 O2 2.220602 1_555
Hf3 O9 2.041064 1_545
Hf3 O7 2.049136 1_555
Hf3 O6 2.110611 1_556
Hf3 O4 2.162117 1_546
Hf3 O2 2.175864 1_556
Hf3 O5 2.178195 1_545
Hf3 O3 2.220602 1_555
Hf4 O6 2.041064 1_565
Hf4 O8 2.049136 1_555
Hf4 O9 2.110611 1_554
Hf4 O11 2.162117 1_564
Hf4 O13 2.175864 1_554
Hf4 O10 2.178195 1_565
Hf4 O12 2.220602 1_555
Hf5 O7 2.041064 1_555
Hf5 O9 2.049136 1_555
Hf5 O8 2.110611 1_555
Hf5 O10 2.162117 1_555
Hf5 O12 2.175864 1_555
Hf5 O11 2.178195 1_555
Hf5 O13 2.220602 1_555
Hf6 O1 2.041064 1_655
Hf6 O14 2.049136 1_555
Hf6 O15 2.110611 1_554
Hf6 O13 2.162117 1_554
Hf6 O11 2.175864 1_554
Hf6 O12 2.178195 1_555
Hf6 O10 2.220602 1_555
Hf7 O0 2.041064 1_645
Hf7 O15 2.049136 1_555
Hf7 O14 2.110611 1_555
Hf7 O12 2.162117 1_545
Hf7 O10 2.175864 1_555
Hf7 O13 2.178195 1_545
Hf7 O11 2.220602 1_555
