# generated using pymatgen
data_Li6Sn3P8O29
_symmetry_space_group_name_H-M   'P 1'
_cell_length_a   9.88732500
_cell_length_b   9.88784158
_cell_length_c   14.05507890
_cell_angle_alpha   89.40832200
_cell_angle_beta   89.56631551
_cell_angle_gamma   60.37391875
_symmetry_Int_Tables_number   1
_chemical_formula_structural   Li6Sn3P8O29
_chemical_formula_sum   'Li12 Sn6 P16 O58'
_cell_volume   1194.38236904
_cell_formula_units_Z   2
loop_
 _symmetry_equiv_pos_site_id
 _symmetry_equiv_pos_as_xyz
  1  'x, y, z'
loop_
 _atom_site_type_symbol
 _atom_site_label
 _atom_site_symmetry_multiplicity
 _atom_site_fract_x
 _atom_site_fract_y
 _atom_site_fract_z
 _atom_site_occupancy
  Li  Li0  1  0.01610900  0.03808700  0.50562800  1
  Li  Li1  1  0.00322600  0.00303100  0.00429500  1
  Li  Li2  1  0.08931400  0.68109700  0.05824200  1
  Li  Li3  1  0.32881000  0.32611700  0.88798200  1
  Li  Li4  1  0.23220900  0.66611000  0.55690400  1
  Li  Li5  1  0.66214400  0.10510600  0.55726100  1
  Li  Li6  1  0.33966800  0.76805500  0.94605500  1
  Li  Li7  1  0.67637500  0.23031800  0.05848900  1
  Li  Li8  1  0.33081300  0.90406400  0.44053400  1
  Li  Li9  1  0.77011500  0.33454900  0.44398300  1
  Li  Li10  1  0.89628800  0.33575600  0.94242600  1
  Li  Li11  1  0.89804200  0.77185400  0.44405600  1
  Sn  Sn0  1  0.00031800  0.43251100  0.74579800  1
  Sn  Sn1  1  0.99795000  0.56190200  0.24959300  1
  Sn  Sn2  1  0.43446200  0.00168400  0.24487300  1
  Sn  Sn3  1  0.56699900  0.99430600  0.75187700  1
  Sn  Sn4  1  0.43760100  0.56601600  0.74871600  1
  Sn  Sn5  1  0.56489700  0.43602300  0.25172300  1
  P  P0  1  0.08222700  0.21615800  0.33923100  1
  P  P1  1  0.21703100  0.08320600  0.84097200  1
  P  P2  1  0.08942700  0.68705600  0.84733600  1
  P  P3  1  0.33183900  0.33770500  0.12431000  1
  P  P4  1  0.33718800  0.33251600  0.62444300  1
  P  P5  1  0.22297800  0.68911400  0.34394700  1
  P  P6  1  0.30819400  0.77768100  0.15642500  1
  P  P7  1  0.69029500  0.08227300  0.34676400  1
  P  P8  1  0.30575700  0.92005900  0.65051100  1
  P  P9  1  0.68496200  0.22174000  0.84426800  1
  P  P10  1  0.77624100  0.30835000  0.65568300  1
  P  P11  1  0.67072700  0.66144100  0.87690800  1
  P  P12  1  0.66457400  0.66932800  0.37819400  1
  P  P13  1  0.91593000  0.30641900  0.15084600  1
  P  P14  1  0.78250800  0.91906900  0.15760400  1
  P  P15  1  0.91828600  0.77593200  0.65825700  1
  O  O0  1  0.01300100  0.19866000  0.23917800  1
  O  O1  1  0.98779600  0.22107000  0.06027500  1
  O  O2  1  0.07519100  0.25003600  0.84494800  1
  O  O3  1  0.20078200  0.01716700  0.73965100  1
  O  O4  1  0.21815500  0.99460800  0.56082800  1
  O  O5  1  0.25005500  0.07622600  0.34225900  1
  O  O6  1  0.08265000  0.37143900  0.33785000  1
  O  O7  1  0.20544700  0.31268400  0.67353500  1
  O  O8  1  0.10893400  0.52126900  0.83601300  1
  O  O9  1  0.00685900  0.78034600  0.57115500  1
  O  O10  1  0.00293800  0.78728300  0.75310500  1
  O  O11  1  0.07704700  0.66867200  0.34632800  1
  O  O12  1  0.31222900  0.20466500  0.16890900  1
  O  O13  1  0.36654100  0.09954800  0.83804900  1
  O  O14  1  0.19189900  0.49624400  0.16136000  1
  O  O15  1  0.33446500  0.34062600  0.01730200  1
  O  O16  1  0.33978600  0.33659700  0.51885200  1
  O  O17  1  0.31884500  0.49176300  0.66393700  1
  O  O18  1  0.53161200  0.09276900  0.33488100  1
  O  O19  1  0.49612400  0.19305700  0.66513600  1
  O  O20  1  0.25494800  0.66880900  0.84521300  1
  O  O21  1  0.20419800  0.79084800  0.24960700  1
  O  O22  1  0.21748800  0.78061800  0.06904600  1
  O  O23  1  0.22222200  0.77927700  0.43046700  1
  O  O24  1  0.37054800  0.52973200  0.33575400  1
  O  O25  1  0.48954000  0.32149500  0.16143100  1
  O  O26  1  0.32428000  0.75439600  0.65761300  1
  O  O27  1  0.51933400  0.36686200  0.83479900  1
  O  O28  1  0.66754000  0.07627700  0.84679000  1
  O  O29  1  0.20853500  0.98451100  0.91922900  1
  O  O30  1  0.80092300  0.01135500  0.07840800  1
  O  O31  1  0.79979700  0.99051900  0.25812600  1
  O  O32  1  0.32748000  0.92203100  0.15613100  1
  O  O33  1  0.46623000  0.62815000  0.16494900  1
  O  O34  1  0.67168000  0.24795400  0.34654400  1
  O  O35  1  0.51229700  0.67822600  0.83707200  1
  O  O36  1  0.62718200  0.46749500  0.66105800  1
  O  O37  1  0.78109300  0.21614600  0.56872300  1
  O  O38  1  0.77176900  0.22897100  0.93021500  1
  O  O39  1  0.78481200  0.20976500  0.75034700  1
  O  O40  1  0.74941300  0.32684400  0.15909200  1
  O  O41  1  0.50873200  0.80609000  0.33564100  1
  O  O42  1  0.46545000  0.90983100  0.65986200  1
  O  O43  1  0.68435400  0.50986100  0.33962200  1
  O  O44  1  0.66781400  0.65687200  0.98248200  1
  O  O45  1  0.66390500  0.67084500  0.48441400  1
  O  O46  1  0.80960400  0.50363100  0.83635400  1
  O  O47  1  0.62981200  0.91404000  0.16083000  1
  O  O48  1  0.68766600  0.79535600  0.82873300  1
  O  O49  1  0.92219800  0.32474300  0.65620000  1
  O  O50  1  0.98723400  0.20028200  0.41796700  1
  O  O51  1  0.90449600  0.46674200  0.16075400  1
  O  O52  1  0.80450300  0.68680700  0.33649500  1
  O  O53  1  0.90485100  0.62790800  0.66365500  1
  O  O54  1  0.75479900  0.92271600  0.65780900  1
  O  O55  1  0.77459500  0.99829100  0.43682600  1
  O  O56  1  0.92326100  0.75086000  0.15713900  1
  O  O57  1  0.00612400  0.77328300  0.93464600  1
loop_
_geom_bond_atom_site_label_1
_geom_bond_atom_site_label_2
_geom_bond_distance
_geom_bond_site_symmetry_2
Li0 O50 1.919221 1_455
Li0 O4 1.986203 1_545
Li0 O37 2.289532 1_455
Li1 O30 2.213649 1_455
Li1 O1 2.235715 1_455
Li1 O29 2.276840 1_544
Li1 O22 2.352508 1_545
Li1 O57 2.470007 1_544
Li1 O38 2.499122 1_454
Li2 O57 1.942365 1_554
Li2 O22 1.958676 1_555
Li2 O56 1.992251 1_455
Li2 O14 2.145882 1_555
Li3 O15 1.828180 1_556
Li3 O8 2.197877 1_555
Li3 O13 2.202902 1_555
Li3 O27 2.234381 1_555
Li4 O9 1.946825 1_555
Li4 O23 2.066937 1_555
Li4 O26 2.103579 1_555
Li4 O17 2.115349 1_555
Li5 O37 1.974284 1_555
Li5 O55 2.016044 1_545
Li5 O19 2.080343 1_555
Li5 O54 2.102938 1_545
Li6 O29 1.910809 1_555
Li6 O22 2.070618 1_556
Li6 O20 2.129069 1_555
Li6 O35 2.130300 1_555
Li7 O30 1.907642 1_555
Li7 O38 2.025481 1_554
Li7 O40 2.038765 1_555
Li7 O25 2.158381 1_555
Li8 O4 1.979314 1_555
Li8 O23 2.002729 1_555
Li8 O5 2.016825 1_565
Li8 O41 2.124130 1_555
Li9 O50 1.919659 1_555
Li9 O37 2.071498 1_555
Li9 O43 2.094869 1_555
Li9 O34 2.103388 1_555
Li10 O1 1.953880 1_556
Li10 O38 1.988026 1_555
Li10 O2 2.056546 1_655
Li10 O46 2.067418 1_555
Li11 O55 1.951517 1_555
Li11 O11 2.065663 1_655
Li11 O9 2.115968 1_655
Li11 O52 2.159708 1_555
O0 P13 1.605451 1_455
O0 P0 1.616368 1_555
O1 P13 1.501069 1_555
O2 P1 1.550660 1_555
O2 Sn0 2.094899 1_555
O3 P8 1.608966 1_545
O3 P1 1.614489 1_555
O4 P8 1.499514 1_555
O5 P0 1.549079 1_555
O5 Sn2 2.096563 1_555
O6 P0 1.537388 1_555
O6 Sn1 2.048159 1_455
O7 P4 1.564403 1_555
O7 Sn0 2.041258 1_555
O8 P2 1.562717 1_555
O8 Sn0 2.122906 1_555
O9 P15 1.512622 1_455
O10 P15 1.613424 1_455
O10 P2 1.618540 1_555
O11 P5 1.552839 1_555
O11 Sn1 2.106362 1_455
O12 P3 1.547355 1_555
O12 Sn2 2.050828 1_555
O13 P1 1.564653 1_555
O13 Sn3 2.104431 1_545
O14 P3 1.582570 1_555
O14 Sn1 2.094393 1_455
O15 P3 1.504259 1_555
O16 P4 1.484595 1_555
O17 P4 1.598311 1_555
O17 Sn4 2.056495 1_555
O18 P7 1.530651 1_555
O18 Sn2 2.057047 1_555
O19 P4 1.597806 1_555
O19 Sn3 2.107457 1_545
O20 P2 1.555382 1_555
O20 Sn4 2.076201 1_555
O21 P5 1.611224 1_555
O21 P6 1.624893 1_555
O22 P6 1.517771 1_555
O23 P5 1.513040 1_555
O24 P5 1.534138 1_555
O24 Sn5 2.043006 1_555
O25 P3 1.578808 1_555
O25 Sn5 2.079967 1_555
O26 P8 1.557887 1_555
O26 Sn4 2.067267 1_555
O27 P9 1.560335 1_555
O27 Sn4 2.094504 1_555
O28 P9 1.530845 1_555
O28 Sn3 2.064877 1_545
O29 P1 1.492206 1_565
O30 P14 1.498348 1_545
O31 P7 1.605970 1_565
O31 P14 1.633446 1_555
O32 P6 1.530538 1_555
O32 Sn2 2.039312 1_565
O33 P6 1.535268 1_555
O33 Sn5 2.045966 1_555
O34 P7 1.555465 1_555
O34 Sn5 2.092351 1_555
O35 P11 1.596595 1_555
O35 Sn4 2.042339 1_555
O36 P10 1.536836 1_555
O36 Sn4 2.040824 1_555
O37 P10 1.518626 1_555
O38 P9 1.509691 1_555
O39 P9 1.612199 1_555
O39 P10 1.618922 1_555
O40 P13 1.560042 1_555
O40 Sn5 2.057830 1_555
O41 P12 1.580440 1_555
O41 Sn2 2.113353 1_565
O42 P8 1.538030 1_555
O42 Sn3 2.061430 1_555
O43 P12 1.590463 1_555
O43 Sn5 2.085096 1_555
O44 P11 1.484567 1_555
O45 P12 1.493092 1_555
O46 P11 1.591655 1_555
O46 Sn0 2.083576 1_655
O47 P14 1.535262 1_555
O47 Sn2 2.051507 1_565
O48 P11 1.561686 1_555
O48 Sn3 2.028625 1_555
O49 P10 1.529832 1_555
O49 Sn0 2.043066 1_655
O50 P0 1.502628 1_655
O51 P13 1.540234 1_555
O51 Sn1 2.049280 1_555
O52 P12 1.584153 1_555
O52 Sn1 2.082261 1_555
O53 P15 1.534736 1_555
O53 Sn0 2.030795 1_655
O54 P15 1.549161 1_555
O54 Sn3 2.092754 1_555
O55 P7 1.515445 1_565
O56 P14 1.553945 1_555
O56 Sn1 2.079671 1_555
O57 P2 1.491050 1_555
