# generated using pymatgen
data_Li10FeCo9O20
_symmetry_space_group_name_H-M   'P 1'
_cell_length_a   5.05063200
_cell_length_b   7.69708545
_cell_length_c   9.84718796
_cell_angle_alpha   80.32650229
_cell_angle_beta   85.19101056
_cell_angle_gamma   71.19292751
_symmetry_Int_Tables_number   1
_chemical_formula_structural   Li10FeCo9O20
_chemical_formula_sum   'Li10 Fe1 Co9 O20'
_cell_volume   357.03940236
_cell_formula_units_Z   1
loop_
 _symmetry_equiv_pos_site_id
 _symmetry_equiv_pos_as_xyz
  1  'x, y, z'
loop_
 _atom_site_type_symbol
 _atom_site_label
 _atom_site_symmetry_multiplicity
 _atom_site_fract_x
 _atom_site_fract_y
 _atom_site_fract_z
 _atom_site_occupancy
  Li  Li0  1  0.14900900  0.45040500  0.75109200  1
  Li  Li1  1  0.85099100  0.54959500  0.24890800  1
  Li  Li2  1  0.44369700  0.35192900  0.24912100  1
  Li  Li3  1  0.55630300  0.64807100  0.75087900  1
  Li  Li4  1  0.75549300  0.24907400  0.75148500  1
  Li  Li5  1  0.05313100  0.14864400  0.24898900  1
  Li  Li6  1  0.34242600  0.05011400  0.75191100  1
  Li  Li7  1  0.65757400  0.94988600  0.24808900  1
  Li  Li8  1  0.24450700  0.75092600  0.24851500  1
  Li  Li9  1  0.94686900  0.85135600  0.75101100  1
  Fe  Fe0  1  0.50000000  0.50000000  0.50000000  1
  Co  Co0  1  0.19593900  0.60340400  0.00017400  1
  Co  Co1  1  0.80406100  0.39659600  0.99982600  1
  Co  Co2  1  0.40103700  0.20002900  0.99896500  1
  Co  Co3  1  0.00000000  0.00000000  0.00000000  1
  Co  Co4  1  0.59896300  0.79997100  0.00103500  1
  Co  Co5  1  0.09955300  0.30002700  0.49933200  1
  Co  Co6  1  0.69837300  0.10006000  0.50019200  1
  Co  Co7  1  0.30162700  0.89994000  0.49980800  1
  Co  Co8  1  0.90044700  0.69997300  0.50066800  1
  O  O0  1  0.50922400  0.58212900  0.11097000  1
  O  O1  1  0.16278000  0.52399500  0.38019300  1
  O  O2  1  0.88303200  0.62708600  0.88794500  1
  O  O3  1  0.83722000  0.47600500  0.61980700  1
  O  O4  1  0.49077600  0.41787100  0.88903000  1
  O  O5  1  0.42383700  0.28006600  0.61342100  1
  O  O6  1  0.11696800  0.37291400  0.11205500  1
  O  O7  1  0.77107200  0.32681200  0.38628700  1
  O  O8  1  0.37552900  0.12153300  0.38164800  1
  O  O9  1  0.07267600  0.21420000  0.88758300  1
  O  O10  1  0.02856900  0.07467200  0.61641200  1
  O  O11  1  0.73896600  0.16971700  0.11247700  1
  O  O12  1  0.31606100  0.97946100  0.11141600  1
  O  O13  1  0.97143100  0.92532800  0.38358800  1
  O  O14  1  0.62447100  0.87846700  0.61835200  1
  O  O15  1  0.68393900  0.02053900  0.88858400  1
  O  O16  1  0.22892800  0.67318800  0.61371300  1
  O  O17  1  0.26103400  0.83028300  0.88752300  1
  O  O18  1  0.92732400  0.78580000  0.11241700  1
  O  O19  1  0.57616300  0.71993400  0.38657900  1
loop_
_geom_bond_atom_site_label_1
_geom_bond_atom_site_label_2
_geom_bond_distance
_geom_bond_site_symmetry_2
Li0 O3 2.060478 1_455
Li0 O16 2.123344 1_555
Li0 O5 2.142892 1_555
Li0 O2 2.145819 1_455
Li0 O9 2.191894 1_555
Li0 O4 2.210736 1_555
Li1 O1 2.060478 1_655
Li1 O7 2.123344 1_555
Li1 O19 2.142892 1_555
Li1 O6 2.145819 1_655
Li1 O18 2.191894 1_555
Li1 O0 2.210736 1_555
Li2 O1 2.118683 1_555
Li2 O8 2.122982 1_555
Li2 O0 2.142958 1_555
Li2 O7 2.162466 1_555
Li2 O6 2.167778 1_555
Li2 O11 2.225018 1_555
Li3 O3 2.118683 1_555
Li3 O14 2.122982 1_555
Li3 O4 2.142958 1_555
Li3 O16 2.162466 1_555
Li3 O2 2.167778 1_555
Li3 O17 2.225018 1_555
Li4 O9 2.096732 1_655
Li4 O4 2.116086 1_555
Li4 O3 2.125246 1_555
Li4 O10 2.138242 1_655
Li4 O15 2.139502 1_555
Li4 O5 2.174013 1_555
Li5 O6 2.098985 1_555
Li5 O8 2.108879 1_555
Li5 O11 2.114113 1_455
Li5 O12 2.114408 1_545
Li5 O13 2.116965 1_445
Li5 O7 2.185983 1_455
Li6 O9 2.094892 1_555
Li6 O10 2.098929 1_555
Li6 O17 2.100573 1_545
Li6 O14 2.135601 1_545
Li6 O5 2.173854 1_555
Li6 O15 2.207112 1_555
Li7 O18 2.094892 1_555
Li7 O13 2.098929 1_555
Li7 O11 2.100573 1_565
Li7 O8 2.135601 1_565
Li7 O19 2.173854 1_555
Li7 O12 2.207112 1_555
Li8 O18 2.096732 1_455
Li8 O0 2.116086 1_555
Li8 O1 2.125246 1_555
Li8 O13 2.138242 1_455
Li8 O12 2.139502 1_555
Li8 O19 2.174013 1_555
Li9 O2 2.098985 1_555
Li9 O14 2.108879 1_555
Li9 O17 2.114113 1_655
Li9 O15 2.114408 1_565
Li9 O10 2.116965 1_665
Li9 O16 2.185983 1_655
Fe0 O16 1.993267 1_555
Fe0 O7 1.993267 1_555
Fe0 O19 1.993378 1_555
Fe0 O5 1.993378 1_555
Fe0 O3 2.094662 1_555
Fe0 O1 2.094662 1_555
Co0 O0 1.945029 1_555
Co0 O2 1.947192 1_454
Co0 O17 2.011524 1_554
Co0 O18 2.018711 1_455
Co0 O6 2.060581 1_555
Co0 O4 2.082193 1_554
Co1 O4 1.945029 1_555
Co1 O6 1.947192 1_656
Co1 O11 2.011524 1_556
Co1 O9 2.018711 1_655
Co1 O2 2.060581 1_555
Co1 O0 2.082193 1_556
Co2 O4 1.996633 1_555
Co2 O12 2.012707 1_546
Co2 O6 2.017057 1_556
Co2 O15 2.025631 1_555
Co2 O9 2.028152 1_555
Co2 O11 2.047521 1_556
Co3 O9 1.946056 1_554
Co3 O18 1.946056 1_445
Co3 O11 1.949958 1_455
Co3 O17 1.949958 1_544
Co3 O12 1.962024 1_545
Co3 O15 1.962024 1_454
Co4 O0 1.996633 1_555
Co4 O15 2.012707 1_564
Co4 O2 2.017057 1_554
Co4 O12 2.025631 1_555
Co4 O18 2.028152 1_555
Co4 O17 2.047521 1_554
Co5 O7 2.011481 1_455
Co5 O5 2.014084 1_555
Co5 O1 2.015595 1_555
Co5 O3 2.029028 1_455
Co5 O10 2.031274 1_555
Co5 O8 2.050084 1_555
Co6 O14 2.018168 1_545
Co6 O13 2.021573 1_545
Co6 O5 2.026509 1_555
Co6 O7 2.031089 1_555
Co6 O8 2.032055 1_555
Co6 O10 2.040558 1_655
Co7 O8 2.018168 1_565
Co7 O10 2.021573 1_565
Co7 O19 2.026509 1_555
Co7 O16 2.031089 1_555
Co7 O14 2.032055 1_555
Co7 O13 2.040558 1_455
Co8 O16 2.011481 1_655
Co8 O19 2.014084 1_555
Co8 O3 2.015595 1_555
Co8 O1 2.029028 1_655
Co8 O13 2.031274 1_555
Co8 O14 2.050084 1_555
