# generated using pymatgen
data_Li2FeAsCO7
_symmetry_space_group_name_H-M   'P 1'
_cell_length_a   5.18065181
_cell_length_b   8.66636843
_cell_length_c   13.22067119
_cell_angle_alpha   89.98503534
_cell_angle_beta   90.01154596
_cell_angle_gamma   86.52928368
_symmetry_Int_Tables_number   1
_chemical_formula_structural   Li2FeAsCO7
_chemical_formula_sum   'Li8 Fe4 As4 C4 O28'
_cell_volume   592.48552818
_cell_formula_units_Z   4
loop_
 _symmetry_equiv_pos_site_id
 _symmetry_equiv_pos_as_xyz
  1  'x, y, z'
loop_
 _atom_site_type_symbol
 _atom_site_label
 _atom_site_symmetry_multiplicity
 _atom_site_fract_x
 _atom_site_fract_y
 _atom_site_fract_z
 _atom_site_occupancy
  Li  Li0  1  0.20628600  0.20578300  0.25669700  1
  Li  Li1  1  0.20629800  0.20578100  0.75669100  1
  Li  Li2  1  0.20641200  0.20577600  0.49330400  1
  Li  Li3  1  0.20642500  0.20575900  0.99331000  1
  Li  Li4  1  0.79370600  0.79421200  0.24330400  1
  Li  Li5  1  0.79370800  0.79421700  0.74330800  1
  Li  Li6  1  0.79358700  0.79422700  0.00669700  1
  Li  Li7  1  0.79357800  0.79424100  0.50669000  1
  Fe  Fe0  1  0.78747300  0.34247700  0.87501800  1
  Fe  Fe1  1  0.21250700  0.65752200  0.62498000  1
  Fe  Fe2  1  0.78746500  0.34248000  0.37502000  1
  Fe  Fe3  1  0.21253100  0.65752000  0.12498000  1
  As  As0  1  0.72288500  0.42201500  0.12500900  1
  As  As1  1  0.72288000  0.42203000  0.62501100  1
  As  As2  1  0.27711400  0.57798500  0.37499100  1
  As  As3  1  0.27712600  0.57796800  0.87498900  1
  C  C0  1  0.73819700  0.05381700  0.37498700  1
  C  C1  1  0.73821500  0.05380600  0.87498900  1
  C  C2  1  0.26179600  0.94618300  0.12501300  1
  C  C3  1  0.26179300  0.94619300  0.62501100  1
  O  O0  1  0.29029700  0.09039600  0.12502500  1
  O  O1  1  0.29029500  0.09041000  0.62501700  1
  O  O2  1  0.70969300  0.90960400  0.37497600  1
  O  O3  1  0.70970500  0.90959200  0.87498300  1
  O  O4  1  0.96688100  0.11258900  0.37503700  1
  O  O5  1  0.96690100  0.11257700  0.87503400  1
  O  O6  1  0.03311300  0.88740900  0.12496300  1
  O  O7  1  0.03310300  0.88742300  0.62496600  1
  O  O8  1  0.54178000  0.15816800  0.37500000  1
  O  O9  1  0.54180000  0.15815700  0.87500400  1
  O  O10  1  0.45821500  0.84183300  0.12499900  1
  O  O11  1  0.45820600  0.84184500  0.62499600  1
  O  O12  1  0.16619300  0.39401400  0.37506400  1
  O  O13  1  0.16621200  0.39399300  0.87505700  1
  O  O14  1  0.83380600  0.60598600  0.12493600  1
  O  O15  1  0.83379300  0.60600500  0.62494300  1
  O  O16  1  0.38977200  0.44965300  0.12501600  1
  O  O17  1  0.38976500  0.44966000  0.62501600  1
  O  O18  1  0.61022800  0.55034700  0.37498400  1
  O  O19  1  0.61024400  0.55034400  0.87498400  1
  O  O20  1  0.82887400  0.31554300  0.02320600  1
  O  O21  1  0.82884700  0.31556400  0.52320400  1
  O  O22  1  0.82943300  0.31555600  0.22677600  1
  O  O23  1  0.82942100  0.31556700  0.72677600  1
  O  O24  1  0.17056300  0.68444400  0.27322400  1
  O  O25  1  0.17059000  0.68443200  0.77322400  1
  O  O26  1  0.17113000  0.68445500  0.47679400  1
  O  O27  1  0.17115900  0.68443900  0.97679400  1
loop_
_geom_bond_atom_site_label_1
_geom_bond_atom_site_label_2
_geom_bond_distance
_geom_bond_site_symmetry_2
Li0 O0 2.041636 1_555
Li0 O22 2.155870 1_455
Li0 O4 2.181687 1_455
Li0 O12 2.261314 1_555
Li0 O8 2.355665 1_555
Li1 O1 2.041579 1_555
Li1 O23 2.156008 1_455
Li1 O5 2.181726 1_455
Li1 O13 2.261185 1_555
Li1 O9 2.355793 1_555
Li2 O1 2.041294 1_555
Li2 O21 2.159347 1_455
Li2 O4 2.181300 1_455
Li2 O12 2.259579 1_555
Li2 O8 2.355800 1_555
Li3 O0 2.041294 1_556
Li3 O20 2.159260 1_456
Li3 O5 2.181346 1_455
Li3 O13 2.259672 1_555
Li3 O9 2.355837 1_555
Li4 O2 2.041658 1_555
Li4 O24 2.155869 1_655
Li4 O6 2.181713 1_655
Li4 O14 2.261293 1_555
Li4 O10 2.355678 1_555
Li5 O3 2.041612 1_555
Li5 O25 2.156030 1_655
Li5 O7 2.181717 1_655
Li5 O15 2.261175 1_555
Li5 O11 2.355789 1_555
Li6 O3 2.041301 1_554
Li6 O27 2.159386 1_654
Li6 O6 2.181258 1_655
Li6 O14 2.259589 1_555
Li6 O10 2.355795 1_555
Li7 O2 2.041295 1_555
Li7 O26 2.159272 1_655
Li7 O7 2.181349 1_655
Li7 O15 2.259685 1_555
Li7 O11 2.355828 1_555
Fe0 O19 1.971798 1_555
Fe0 O20 1.982994 1_556
Fe0 O23 1.984171 1_555
Fe0 O13 2.038451 1_655
Fe0 O9 2.101828 1_555
Fe0 O5 2.146970 1_555
Fe1 O17 1.971821 1_555
Fe1 O26 1.982955 1_555
Fe1 O25 1.984181 1_555
Fe1 O15 2.038327 1_455
Fe1 O11 2.101936 1_555
Fe1 O7 2.146931 1_555
Fe2 O18 1.971815 1_555
Fe2 O21 1.982915 1_555
Fe2 O22 1.984221 1_555
Fe2 O12 2.038438 1_655
Fe2 O8 2.101813 1_555
Fe2 O4 2.146877 1_555
Fe3 O16 1.971823 1_555
Fe3 O27 1.982939 1_554
Fe3 O24 1.984221 1_555
Fe3 O14 2.038423 1_455
Fe3 O10 2.101816 1_555
Fe3 O6 2.146865 1_555
As0 O22 1.703958 1_555
As0 O20 1.704108 1_555
As0 O14 1.727174 1_555
As0 O16 1.727863 1_555
As1 O23 1.703945 1_555
As1 O21 1.704090 1_555
As1 O15 1.727190 1_555
As1 O17 1.727868 1_555
As2 O24 1.703963 1_555
As2 O26 1.704091 1_555
As2 O12 1.727174 1_555
As2 O18 1.727868 1_555
As3 O25 1.703942 1_555
As3 O27 1.704091 1_555
As3 O13 1.727192 1_555
As3 O19 1.727879 1_555
C0 O2 1.267343 1_545
C0 O4 1.317604 1_555
C0 O8 1.319797 1_555
C1 O3 1.267358 1_545
C1 O5 1.317609 1_555
C1 O9 1.319790 1_555
C2 O0 1.267341 1_565
C2 O6 1.317606 1_555
C2 O10 1.319799 1_555
C3 O1 1.267376 1_565
C3 O7 1.317625 1_555
C3 O11 1.319766 1_555
