# generated using pymatgen
data_Li13Co15O28
_symmetry_space_group_name_H-M   'P 1'
_cell_length_a   7.76922000
_cell_length_b   8.25594667
_cell_length_c   8.89005300
_cell_angle_alpha   103.93882633
_cell_angle_beta   104.98161179
_cell_angle_gamma   104.53702030
_symmetry_Int_Tables_number   1
_chemical_formula_structural   Li13Co15O28
_chemical_formula_sum   'Li13 Co15 O28'
_cell_volume   503.89669352
_cell_formula_units_Z   1
loop_
 _symmetry_equiv_pos_site_id
 _symmetry_equiv_pos_as_xyz
  1  'x, y, z'
loop_
 _atom_site_type_symbol
 _atom_site_label
 _atom_site_symmetry_multiplicity
 _atom_site_fract_x
 _atom_site_fract_y
 _atom_site_fract_z
 _atom_site_occupancy
  Li  Li0  1  0.07155300  0.71101700  0.78479600  1
  Li  Li1  1  0.35532100  0.57157300  0.92733800  1
  Li  Li2  1  0.14570100  0.42953400  0.57225900  1
  Li  Li3  1  0.28353900  0.85363700  0.14264500  1
  Li  Li4  1  0.78229600  0.85355900  0.63978000  1
  Li  Li5  1  0.42999200  0.28753400  0.71354400  1
  Li  Li6  1  0.57000800  0.71246600  0.28645600  1
  Li  Li7  1  0.71646100  0.14636300  0.85735500  1
  Li  Li8  1  0.85429900  0.57046600  0.42774100  1
  Li  Li9  1  0.21770400  0.14644100  0.36022000  1
  Li  Li10  1  0.50000000  0.00000000  0.50000000  1
  Li  Li11  1  0.64467900  0.42842700  0.07266200  1
  Li  Li12  1  0.92844700  0.28898300  0.21520400  1
  Co  Co0  1  0.14095800  0.92845800  0.56610600  1
  Co  Co1  1  0.42840900  0.78604900  0.71279900  1
  Co  Co2  1  0.06609100  0.21564200  0.78652600  1
  Co  Co3  1  0.71227800  0.63959000  0.85313600  1
  Co  Co4  1  0.21192200  0.64324000  0.35967400  1
  Co  Co5  1  0.64679900  0.93182700  0.07672400  1
  Co  Co6  1  0.00000000  0.50000000  0.00000000  1
  Co  Co7  1  0.35320100  0.06817300  0.92327600  1
  Co  Co8  1  0.50000000  0.50000000  0.50000000  1
  Co  Co9  1  0.78807800  0.35676000  0.64032600  1
  Co  Co10  1  0.93390900  0.78435800  0.21347400  1
  Co  Co11  1  0.28772200  0.36041000  0.14686400  1
  Co  Co12  1  0.57159100  0.21395100  0.28720100  1
  Co  Co13  1  0.00000000  0.00000000  0.00000000  1
  Co  Co14  1  0.85904200  0.07154200  0.43389400  1
  O  O0  1  0.07021800  0.96994200  0.80105600  1
  O  O1  1  0.36771900  0.83341500  0.92516300  1
  O  O2  1  0.14311600  0.69464400  0.56023400  1
  O  O3  1  0.06837900  0.45827400  0.78907100  1
  O  O4  1  0.20380900  0.88556700  0.34878800  1
  O  O5  1  0.00492900  0.23696000  0.99771100  1
  O  O6  1  0.72794000  0.89000300  0.87084200  1
  O  O7  1  0.43961000  0.54373000  0.70292500  1
  O  O8  1  0.59598200  0.97639700  0.29485500  1
  O  O9  1  0.34650700  0.30744900  0.92523900  1
  O  O10  1  0.49069600  0.73389800  0.50463300  1
  O  O11  1  0.87574700  0.84253100  0.43127900  1
  O  O12  1  0.72106300  0.40584100  0.85042200  1
  O  O13  1  0.76541700  0.59505100  0.63583100  1
  O  O14  1  0.23458300  0.40494900  0.36416900  1
  O  O15  1  0.27893700  0.59415900  0.14957800  1
  O  O16  1  0.12425300  0.15746900  0.56872100  1
  O  O17  1  0.65349300  0.69255100  0.07476100  1
  O  O18  1  0.40401800  0.02360300  0.70514500  1
  O  O19  1  0.50930400  0.26610200  0.49536700  1
  O  O20  1  0.56039000  0.45627000  0.29707500  1
  O  O21  1  0.85688400  0.30535600  0.43976600  1
  O  O22  1  0.79619100  0.11443300  0.65121200  1
  O  O23  1  0.27206000  0.10999700  0.12915800  1
  O  O24  1  0.93162100  0.54172600  0.21092900  1
  O  O25  1  0.99507100  0.76304000  0.00228900  1
  O  O26  1  0.63228100  0.16658500  0.07483700  1
  O  O27  1  0.92978200  0.03005800  0.19894400  1
loop_
_geom_bond_atom_site_label_1
_geom_bond_atom_site_label_2
_geom_bond_distance
_geom_bond_site_symmetry_2
Li0 O3 2.090203 1_555
Li0 O0 2.110373 1_555
Li0 O25 2.144320 1_456
Li0 O1 2.147912 1_555
Li0 O2 2.189627 1_555
Li0 O13 2.223714 1_455
Li1 O3 2.082834 1_555
Li1 O1 2.144621 1_555
Li1 O9 2.159815 1_555
Li1 O17 2.172517 1_556
Li1 O15 2.185107 1_556
Li1 O7 2.234274 1_555
Li2 O21 2.090536 1_455
Li2 O7 2.114851 1_555
Li2 O14 2.119016 1_555
Li2 O3 2.140606 1_555
Li2 O16 2.202118 1_555
Li2 O2 2.221727 1_555
Li3 O4 2.061031 1_555
Li3 O25 2.098153 1_455
Li3 O15 2.149547 1_555
Li3 O23 2.171029 1_565
Li3 O1 2.178717 1_554
Li3 O8 2.270827 1_555
Li4 O13 2.096278 1_555
Li4 O22 2.105428 1_565
Li4 O10 2.109341 1_555
Li4 O0 2.140526 1_655
Li4 O11 2.149157 1_555
Li4 O6 2.168627 1_555
Li5 O12 2.108195 1_555
Li5 O18 2.118354 1_555
Li5 O7 2.123397 1_555
Li5 O9 2.127241 1_555
Li5 O19 2.163420 1_555
Li5 O16 2.219302 1_555
Li6 O15 2.108195 1_555
Li6 O8 2.118354 1_555
Li6 O20 2.123397 1_555
Li6 O17 2.127241 1_555
Li6 O10 2.163420 1_555
Li6 O11 2.219302 1_555
Li7 O22 2.061031 1_555
Li7 O5 2.098153 1_655
Li7 O12 2.149547 1_555
Li7 O6 2.171029 1_545
Li7 O26 2.178717 1_556
Li7 O18 2.270827 1_555
Li8 O2 2.090536 1_655
Li8 O20 2.114851 1_555
Li8 O13 2.119016 1_555
Li8 O24 2.140606 1_555
Li8 O11 2.202118 1_555
Li8 O21 2.221727 1_555
Li9 O14 2.096278 1_555
Li9 O4 2.105428 1_545
Li9 O19 2.109341 1_555
Li9 O27 2.140526 1_455
Li9 O16 2.149157 1_555
Li9 O23 2.168627 1_555
Li10 O18 2.127200 1_555
Li10 O8 2.127200 1_545
Li10 O22 2.166205 1_555
Li10 O4 2.166205 1_545
Li10 O10 2.190618 1_545
Li10 O19 2.190618 1_555
Li11 O24 2.082834 1_555
Li11 O26 2.144621 1_555
Li11 O17 2.159815 1_555
Li11 O9 2.172517 1_554
Li11 O12 2.185107 1_554
Li11 O20 2.234274 1_555
Li12 O24 2.090203 1_555
Li12 O27 2.110373 1_555
Li12 O5 2.144320 1_654
Li12 O26 2.147912 1_555
Li12 O21 2.189627 1_555
Li12 O14 2.223714 1_655
Co0 O16 1.922423 1_565
Co0 O2 1.922871 1_555
Co0 O18 1.934443 1_565
Co0 O11 1.940408 1_455
Co0 O4 2.083577 1_555
Co0 O0 2.263947 1_555
Co1 O7 2.006069 1_555
Co1 O10 2.006999 1_555
Co1 O18 2.032529 1_565
Co1 O1 2.033873 1_555
Co1 O2 2.105910 1_555
Co1 O6 2.202749 1_555
Co2 O22 1.968325 1_455
Co2 O3 1.993376 1_555
Co2 O5 2.031161 1_555
Co2 O9 2.042857 1_555
Co2 O0 2.071042 1_545
Co2 O16 2.073016 1_555
Co3 O12 1.942675 1_555
Co3 O6 2.005179 1_555
Co3 O7 2.020863 1_555
Co3 O13 2.045493 1_555
Co3 O25 2.083917 1_556
Co3 O17 2.105263 1_556
Co4 O2 1.971560 1_555
Co4 O14 2.027572 1_555
Co4 O15 2.041541 1_555
Co4 O4 2.041892 1_555
Co4 O10 2.047027 1_555
Co4 O24 2.062633 1_455
Co5 O26 1.973286 1_565
Co5 O17 1.985157 1_555
Co5 O27 2.029101 1_565
Co5 O8 2.043709 1_555
Co5 O1 2.062667 1_554
Co5 O6 2.065911 1_554
Co6 O24 2.052528 1_455
Co6 O3 2.052528 1_554
Co6 O15 2.057993 1_555
Co6 O12 2.057993 1_454
Co6 O5 2.176874 1_554
Co6 O25 2.176874 1_455
Co7 O1 1.973286 1_545
Co7 O9 1.985157 1_555
Co7 O0 2.029101 1_545
Co7 O18 2.043709 1_555
Co7 O26 2.062667 1_556
Co7 O23 2.065911 1_556
Co8 O19 1.941435 1_555
Co8 O10 1.941435 1_555
Co8 O14 1.941618 1_555
Co8 O13 1.941618 1_555
Co8 O7 1.952898 1_555
Co8 O20 1.952898 1_555
Co9 O21 1.971560 1_555
Co9 O13 2.027572 1_555
Co9 O12 2.041541 1_555
Co9 O22 2.041892 1_555
Co9 O19 2.047027 1_555
Co9 O3 2.062633 1_655
Co10 O4 1.968325 1_655
Co10 O24 1.993376 1_555
Co10 O25 2.031161 1_555
Co10 O17 2.042857 1_555
Co10 O27 2.071042 1_565
Co10 O11 2.073016 1_555
Co11 O15 1.942675 1_555
Co11 O23 2.005179 1_555
Co11 O20 2.020863 1_555
Co11 O14 2.045493 1_555
Co11 O5 2.083917 1_554
Co11 O9 2.105263 1_554
Co12 O20 2.006069 1_555
Co12 O19 2.006999 1_555
Co12 O8 2.032529 1_545
Co12 O26 2.033873 1_555
Co12 O21 2.105910 1_555
Co12 O23 2.202749 1_555
Co13 O25 1.952198 1_445
Co13 O5 1.952198 1_554
Co13 O27 1.960250 1_455
Co13 O0 1.960250 1_544
Co13 O6 1.972319 1_444
Co13 O23 1.972319 1_555
Co14 O11 1.922423 1_545
Co14 O21 1.922871 1_555
Co14 O8 1.934443 1_545
Co14 O16 1.940408 1_655
Co14 O22 2.083577 1_555
Co14 O27 2.263947 1_555
