# generated using pymatgen
data_Li5CuF6
_symmetry_space_group_name_H-M   'P 1'
_cell_length_a   5.13729529
_cell_length_b   5.13729529
_cell_length_c   5.14646913
_cell_angle_alpha   79.89385742
_cell_angle_beta   79.89385742
_cell_angle_gamma   119.62825863
_symmetry_Int_Tables_number   1
_chemical_formula_structural   Li5CuF6
_chemical_formula_sum   'Li5 Cu1 F6'
_cell_volume   110.64268597
_cell_formula_units_Z   1
loop_
 _symmetry_equiv_pos_site_id
 _symmetry_equiv_pos_as_xyz
  1  'x, y, z'
loop_
 _atom_site_type_symbol
 _atom_site_label
 _atom_site_symmetry_multiplicity
 _atom_site_fract_x
 _atom_site_fract_y
 _atom_site_fract_z
 _atom_site_occupancy
  Li  Li0  1  0.83429300  0.16570700  0.50000000  1
  Li  Li1  1  0.66715800  0.33284200  0.00000000  1
  Li  Li2  1  0.50000000  0.50000000  0.50000000  1
  Li  Li3  1  0.33284200  0.66715800  0.00000000  1
  Li  Li4  1  0.16570700  0.83429300  0.50000000  1
  Cu  Cu0  1  0.00000000  0.00000000  0.00000000  1
  F  F0  1  0.91448000  0.56017500  0.25448200  1
  F  F1  1  0.43982500  0.08552000  0.74551800  1
  F  F2  1  0.73380600  0.73380600  0.72952400  1
  F  F3  1  0.26619400  0.26619400  0.27047600  1
  F  F4  1  0.56017500  0.91448000  0.25448200  1
  F  F5  1  0.08552000  0.43982500  0.74551800  1
loop_
_geom_bond_atom_site_label_1
_geom_bond_atom_site_label_2
_geom_bond_distance
_geom_bond_site_symmetry_2
Cu0 F1 2.188995 1_554
Cu0 F5 2.188995 1_554
Cu0 F4 2.188995 1_445
Cu0 F0 2.188995 1_445
Cu0 F3 2.272645 1_555
Cu0 F2 2.272645 1_444
F0 Li0 1.991546 1_555
F0 Li3 2.056261 1_655
F0 Li1 2.084985 1_555
F0 Li2 2.119892 1_555
F0 Li4 2.155253 1_655
F1 Li0 1.991546 1_555
F1 Li3 2.056261 1_546
F1 Li1 2.084985 1_556
F1 Li2 2.119892 1_555
F1 Li4 2.155253 1_545
F2 Li2 1.962176 1_555
F2 Li0 2.078119 1_565
F2 Li4 2.078119 1_655
F2 Li3 2.104062 1_556
F2 Li1 2.104062 1_556
F3 Li2 1.962176 1_555
F3 Li0 2.078119 1_455
F3 Li4 2.078119 1_545
F3 Li3 2.104062 1_555
F3 Li1 2.104062 1_555
F4 Li4 1.991546 1_555
F4 Li1 2.056261 1_565
F4 Li3 2.084985 1_555
F4 Li2 2.119892 1_555
F4 Li0 2.155253 1_565
F5 Li4 1.991546 1_555
F5 Li1 2.056261 1_456
F5 Li3 2.084985 1_556
F5 Li2 2.119892 1_555
F5 Li0 2.155253 1_455
