# generated using pymatgen
data_Li2Co4OF8
_symmetry_space_group_name_H-M   'P 1'
_cell_length_a   5.26568916
_cell_length_b   5.26568916
_cell_length_c   14.15323333
_cell_angle_alpha   89.24878049
_cell_angle_beta   89.24878049
_cell_angle_gamma   58.77353476
_symmetry_Int_Tables_number   1
_chemical_formula_structural   Li2Co4OF8
_chemical_formula_sum   'Li4 Co8 O2 F16'
_cell_volume   335.54168451
_cell_formula_units_Z   2
loop_
 _symmetry_equiv_pos_site_id
 _symmetry_equiv_pos_as_xyz
  1  'x, y, z'
loop_
 _atom_site_type_symbol
 _atom_site_label
 _atom_site_symmetry_multiplicity
 _atom_site_fract_x
 _atom_site_fract_y
 _atom_site_fract_z
 _atom_site_occupancy
  Li  Li0  1  0.00501100  0.99659200  0.84795600  1
  Li  Li1  1  0.99068500  0.02245000  0.64296600  1
  Li  Li2  1  0.99659200  0.00501100  0.34795600  1
  Li  Li3  1  0.02245000  0.99068500  0.14296600  1
  Co  Co0  1  0.68741600  0.65407400  0.68113300  1
  Co  Co1  1  0.65109400  0.67343000  0.98519100  1
  Co  Co2  1  0.65407400  0.68741600  0.18113300  1
  Co  Co3  1  0.67343000  0.65109400  0.48519100  1
  Co  Co4  1  0.33562100  0.32918400  0.81443300  1
  Co  Co5  1  0.32918400  0.33562100  0.31443300  1
  Co  Co6  1  0.34664600  0.30252300  0.02681300  1
  Co  Co7  1  0.30252300  0.34664600  0.52681300  1
  O  O0  1  0.38149300  0.95124600  0.08151500  1
  O  O1  1  0.95124600  0.38149300  0.58151500  1
  F  F0  1  0.30816700  0.69449500  0.25254700  1
  F  F1  1  0.33989100  0.68138100  0.58244300  1
  F  F2  1  0.69449500  0.30816700  0.75254700  1
  F  F3  1  0.68138100  0.33989100  0.08244300  1
  F  F4  1  0.98960000  0.32568900  0.25189000  1
  F  F5  1  0.02106000  0.33791000  0.91624400  1
  F  F6  1  0.66061800  0.98971600  0.58551000  1
  F  F7  1  0.32568900  0.98960000  0.75189000  1
  F  F8  1  0.33791000  0.02106000  0.41624400  1
  F  F9  1  0.98971600  0.66061800  0.08551000  1
  F  F10  1  0.00544100  0.69335500  0.75271200  1
  F  F11  1  0.02180400  0.64793900  0.41165900  1
  F  F12  1  0.33239400  0.62387700  0.91699300  1
  F  F13  1  0.64793900  0.02180400  0.91165900  1
  F  F14  1  0.69335500  0.00544100  0.25271200  1
  F  F15  1  0.62387700  0.33239400  0.41699300  1
loop_
_geom_bond_atom_site_label_1
_geom_bond_atom_site_label_2
_geom_bond_distance
_geom_bond_site_symmetry_2
Li1 O1 1.982041 1_555
Li3 O0 1.982041 1_555
Co0 O1 1.977940 1_555
Co0 F2 2.054979 1_555
Co0 F7 2.063869 1_555
Co0 F10 2.069440 1_655
Co0 F6 2.158447 1_555
Co0 F1 2.260389 1_555
Co1 O0 1.965261 1_556
Co1 F5 2.072563 1_655
Co1 F12 2.078247 1_555
Co1 F13 2.089806 1_565
Co1 F3 2.157910 1_556
Co1 F9 2.266938 1_556
Co2 O0 1.977940 1_555
Co2 F0 2.054979 1_555
Co2 F4 2.063869 1_555
Co2 F14 2.069440 1_565
Co2 F9 2.158447 1_555
Co2 F3 2.260389 1_555
Co3 O1 1.965261 1_555
Co3 F8 2.072563 1_565
Co3 F15 2.078247 1_555
Co3 F11 2.089806 1_655
Co3 F1 2.157910 1_555
Co3 F6 2.266938 1_555
Co4 F10 2.000549 1_555
Co4 F2 2.023058 1_555
Co4 F7 2.030623 1_545
Co4 F13 2.111619 1_555
Co4 F12 2.132216 1_555
Co4 F5 2.163862 1_555
Co5 F14 2.000549 1_555
Co5 F0 2.023058 1_555
Co5 F4 2.030623 1_455
Co5 F11 2.111619 1_555
Co5 F15 2.132216 1_555
Co5 F8 2.163862 1_555
Co6 O0 1.915405 1_545
Co6 F9 2.025766 1_455
Co6 F3 2.040951 1_555
Co6 F13 2.218582 1_554
Co6 F12 2.255505 1_554
Co6 F5 2.270335 1_554
Co7 O1 1.915405 1_455
Co7 F6 2.025766 1_545
Co7 F1 2.040951 1_555
Co7 F11 2.218582 1_555
Co7 F15 2.255505 1_555
Co7 F8 2.270335 1_555
F0 Li2 2.099294 1_465
F0 Li3 2.160138 1_555
F1 Li1 1.978735 1_465
F2 Li0 2.099294 1_645
F2 Li1 2.160138 1_555
F3 Li3 1.978735 1_645
F4 Li2 2.139621 1_555
F4 Li3 2.294834 1_645
F5 Li0 2.092038 1_545
F6 Li1 2.015710 1_565
F7 Li0 2.139621 1_555
F7 Li1 2.294834 1_465
F8 Li2 2.092038 1_455
F9 Li3 2.015710 1_655
F10 Li0 2.102229 1_555
F10 Li1 2.283553 1_465
F11 Li2 2.016346 1_465
F12 Li0 2.065006 1_555
F13 Li0 2.016346 1_645
F14 Li2 2.102229 1_555
F14 Li3 2.283553 1_645
F15 Li2 2.065006 1_555
