# generated using pymatgen
data_LaS2NO8
_symmetry_space_group_name_H-M   'P 1'
_cell_length_a   8.86454300
_cell_length_b   5.63637000
_cell_length_c   8.89903907
_cell_angle_alpha   50.96807801
_cell_angle_beta   90.00000000
_cell_angle_gamma   90.00000000
_symmetry_Int_Tables_number   1
_chemical_formula_structural   LaS2NO8
_chemical_formula_sum   'La2 S4 N2 O16'
_cell_volume   345.38661488
_cell_formula_units_Z   2
loop_
 _symmetry_equiv_pos_site_id
 _symmetry_equiv_pos_as_xyz
  1  'x, y, z'
loop_
 _atom_site_type_symbol
 _atom_site_label
 _atom_site_symmetry_multiplicity
 _atom_site_fract_x
 _atom_site_fract_y
 _atom_site_fract_z
 _atom_site_occupancy
  La  La0  1  0.56430100  0.00104900  0.75174000  1
  La  La1  1  0.43569900  0.00104900  0.25174000  1
  S  S0  1  0.66528500  0.49794600  0.21487000  1
  S  S1  1  0.33471500  0.49794600  0.71487000  1
  S  S2  1  0.78551500  0.62936100  0.58868200  1
  S  S3  1  0.21448500  0.62936100  0.08868200  1
  N  N0  1  0.93439500  0.15902800  0.05973000  1
  N  N1  1  0.06560500  0.15902800  0.55973000  1
  O  O0  1  0.54986000  0.30000200  0.37309100  1
  O  O1  1  0.45014000  0.30000200  0.87309100  1
  O  O2  1  0.81720700  0.43163600  0.28932200  1
  O  O3  1  0.18279300  0.43163600  0.78932200  1
  O  O4  1  0.63847300  0.43748000  0.07290900  1
  O  O5  1  0.36152700  0.43748000  0.57290900  1
  O  O6  1  0.62039900  0.82798900  0.10390400  1
  O  O7  1  0.37960100  0.82798900  0.60390400  1
  O  O8  1  0.92487900  0.76624600  0.47361800  1
  O  O9  1  0.07512100  0.76624600  0.97361800  1
  O  O10  1  0.79234400  0.28921000  0.72816800  1
  O  O11  1  0.20765600  0.28921000  0.22816800  1
  O  O12  1  0.75737600  0.75169700  0.69284600  1
  O  O13  1  0.24262400  0.75169700  0.19284600  1
  O  O14  1  0.34639300  0.70735500  0.95912000  1
  O  O15  1  0.65360700  0.70735500  0.45912000  1
loop_
_geom_bond_atom_site_label_1
_geom_bond_atom_site_label_2
_geom_bond_distance
_geom_bond_site_symmetry_2
La0 O14 2.455526 1_545
La0 O12 2.471233 1_545
La0 O10 2.517797 1_555
La0 O5 2.623748 1_555
La0 O7 2.641826 1_545
La0 O0 2.656815 1_555
La0 O6 2.677686 1_546
La0 O4 2.693769 1_546
La0 O1 2.705816 1_555
La1 O15 2.455526 1_545
La1 O13 2.471233 1_545
La1 O11 2.517797 1_555
La1 O4 2.623748 1_555
La1 O6 2.641826 1_545
La1 O1 2.656815 1_554
La1 O7 2.677686 1_545
La1 O5 2.693769 1_545
La1 O0 2.705816 1_555
O0 S0 1.515129 1_555
O1 S1 1.515129 1_555
O2 S0 1.442368 1_555
O3 S1 1.442368 1_555
O4 S0 1.520161 1_555
O5 S1 1.520161 1_555
O6 S0 1.510062 1_555
O7 S1 1.510062 1_555
O8 S2 1.474765 1_555
O9 S3 1.474765 1_556
O10 S2 1.490901 1_555
O11 S3 1.490901 1_555
O12 S2 1.483901 1_555
O13 S3 1.483901 1_555
O14 S3 1.500499 1_556
O15 S2 1.500499 1_555
