# generated using pymatgen
data_LiTiSiO4
_symmetry_space_group_name_H-M   'P 1'
_cell_length_a   5.72528749
_cell_length_b   5.72528749
_cell_length_c   5.72528749
_cell_angle_alpha   120.53056980
_cell_angle_beta   119.12251982
_cell_angle_gamma   90.30499936
_symmetry_Int_Tables_number   1
_chemical_formula_structural   LiTiSiO4
_chemical_formula_sum   'Li2 Ti2 Si2 O8'
_cell_volume   133.02275181
_cell_formula_units_Z   2
loop_
 _symmetry_equiv_pos_site_id
 _symmetry_equiv_pos_as_xyz
  1  'x, y, z'
loop_
 _atom_site_type_symbol
 _atom_site_label
 _atom_site_symmetry_multiplicity
 _atom_site_fract_x
 _atom_site_fract_y
 _atom_site_fract_z
 _atom_site_occupancy
  Li  Li0  1  0.50000000  0.50000000  0.00000000  1
  Li  Li1  1  0.00000000  0.50000000  0.50000000  1
  Ti  Ti0  1  0.00000000  0.50000000  0.00000000  1
  Ti  Ti1  1  0.00000000  0.00000000  0.50000000  1
  Si  Si0  1  0.63381500  0.88381500  0.75000000  1
  Si  Si1  1  0.36618500  0.11618500  0.25000000  1
  O  O0  1  0.24655700  0.23319100  0.48663500  1
  O  O1  1  0.24655700  0.75992200  0.01336500  1
  O  O2  1  0.72198400  0.23766100  0.48432300  1
  O  O3  1  0.25333900  0.23766100  0.01567700  1
  O  O4  1  0.27801600  0.76233900  0.51567700  1
  O  O5  1  0.74666100  0.76233900  0.98432300  1
  O  O6  1  0.75344300  0.24007800  0.98663500  1
  O  O7  1  0.75344300  0.76680900  0.51336500  1
loop_
_geom_bond_atom_site_label_1
_geom_bond_atom_site_label_2
_geom_bond_distance
_geom_bond_site_symmetry_2
Li0 O1 2.083567 1_555
Li0 O6 2.083567 1_554
Li0 O7 2.083567 1_555
Li0 O0 2.083567 1_554
Li0 O5 2.120387 1_554
Li0 O3 2.120387 1_555
Li1 O1 2.083567 1_556
Li1 O6 2.083567 1_454
Li1 O7 2.083571 1_455
Li1 O0 2.083571 1_555
Li1 O4 2.120391 1_555
Li1 O2 2.120391 1_455
O0 Si1 1.655091 1_555
O0 Ti1 1.992440 1_555
O1 Si1 1.655091 1_565
O1 Ti0 1.992443 1_555
O2 Si1 1.676306 1_555
O2 Ti1 2.097894 1_655
O2 Ti0 2.097894 1_656
O3 Si1 1.676306 1_555
O3 Ti1 2.097894 1_554
O3 Ti0 2.097897 1_555
O4 Si0 1.676306 1_555
O4 Ti0 2.097894 1_555
O4 Ti1 2.097894 1_565
O5 Si0 1.676306 1_555
O5 Ti1 2.097894 1_666
O5 Ti0 2.097897 1_656
O6 Si0 1.655091 1_545
O6 Ti0 1.992443 1_656
O7 Si0 1.655091 1_555
O7 Ti1 1.992440 1_665
