# generated using pymatgen
data_LiSi3BiO8
_symmetry_space_group_name_H-M   'P 1'
_cell_length_a   7.74983439
_cell_length_b   7.74983439
_cell_length_c   12.95761985
_cell_angle_alpha   83.61454607
_cell_angle_beta   83.61454607
_cell_angle_gamma   113.06547536
_symmetry_Int_Tables_number   1
_chemical_formula_structural   LiSi3BiO8
_chemical_formula_sum   'Li4 Si12 Bi4 O32'
_cell_volume   701.30736315
_cell_formula_units_Z   4
loop_
 _symmetry_equiv_pos_site_id
 _symmetry_equiv_pos_as_xyz
  1  'x, y, z'
loop_
 _atom_site_type_symbol
 _atom_site_label
 _atom_site_symmetry_multiplicity
 _atom_site_fract_x
 _atom_site_fract_y
 _atom_site_fract_z
 _atom_site_occupancy
  Li  Li0  1  0.58694600  0.86305000  0.82344500  1
  Li  Li1  1  0.86305000  0.58694600  0.32344500  1
  Li  Li2  1  0.19800700  0.06523900  0.62339500  1
  Li  Li3  1  0.06523900  0.19800700  0.12339500  1
  Si  Si0  1  0.37290500  0.10989600  0.83801700  1
  Si  Si1  1  0.93562700  0.82416800  0.87700000  1
  Si  Si2  1  0.27611300  0.44849000  0.89606100  1
  Si  Si3  1  0.10989600  0.37290500  0.33801700  1
  Si  Si4  1  0.55244200  0.72350700  0.59849000  1
  Si  Si5  1  0.82416800  0.93562700  0.37700000  1
  Si  Si6  1  0.44849000  0.27611300  0.39606100  1
  Si  Si7  1  0.12702100  0.41186900  0.67136200  1
  Si  Si8  1  0.88419400  0.64806800  0.66489100  1
  Si  Si9  1  0.72350700  0.55244200  0.09849000  1
  Si  Si10  1  0.64806800  0.88419400  0.16489100  1
  Si  Si11  1  0.41186900  0.12702100  0.17136200  1
  Bi  Bi0  1  0.64332200  0.18276200  0.58402200  1
  Bi  Bi1  1  0.80684200  0.21063500  0.93380900  1
  Bi  Bi2  1  0.18276200  0.64332200  0.08402200  1
  Bi  Bi3  1  0.21063500  0.80684200  0.43380900  1
  O  O0  1  0.16589600  0.92204000  0.87038800  1
  O  O1  1  0.42184000  0.65008900  0.91387200  1
  O  O2  1  0.56934100  0.88449900  0.67189500  1
  O  O3  1  0.42381000  0.16632200  0.70879300  1
  O  O4  1  0.52745000  0.05160300  0.88965200  1
  O  O5  1  0.36201500  0.28824900  0.89052700  1
  O  O6  1  0.84191600  0.97684300  0.87239100  1
  O  O7  1  0.65008900  0.42184000  0.41387200  1
  O  O8  1  0.92204000  0.16589600  0.37038800  1
  O  O9  1  0.16632200  0.42381000  0.20879300  1
  O  O10  1  0.88449900  0.56934100  0.17189500  1
  O  O11  1  0.06676300  0.21150800  0.63677400  1
  O  O12  1  0.67077100  0.59493100  0.63285700  1
  O  O13  1  0.05160300  0.52744900  0.38965200  1
  O  O14  1  0.65120200  0.85055200  0.47998800  1
  O  O15  1  0.38891900  0.10159800  0.49992300  1
  O  O16  1  0.92772400  0.45586500  0.66764900  1
  O  O17  1  0.97684300  0.84191600  0.37239100  1
  O  O18  1  0.28824900  0.36201500  0.39052700  1
  O  O19  1  0.87854500  0.70639000  0.78046200  1
  O  O20  1  0.15654400  0.43303300  0.79524200  1
  O  O21  1  0.32502400  0.58746300  0.59658500  1
  O  O22  1  0.05607900  0.81407300  0.58251100  1
  O  O23  1  0.21150800  0.06676300  0.13677400  1
  O  O24  1  0.59493100  0.67077100  0.13285700  1
  O  O25  1  0.10159800  0.38891900  0.99992300  1
  O  O26  1  0.85055200  0.65120200  0.97998800  1
  O  O27  1  0.45586500  0.92772400  0.16764900  1
  O  O28  1  0.43303300  0.15654400  0.29524200  1
  O  O29  1  0.70639000  0.87854500  0.28046200  1
  O  O30  1  0.81407300  0.05607900  0.08251100  1
  O  O31  1  0.58746300  0.32502400  0.09658500  1
loop_
_geom_bond_atom_site_label_1
_geom_bond_atom_site_label_2
_geom_bond_distance
_geom_bond_site_symmetry_2
Li0 O1 1.820899 1_555
Li0 O4 1.950031 1_565
Li0 O2 1.976671 1_555
Li0 O6 2.030314 1_555
Li1 O7 1.820899 1_555
Li1 O13 1.950035 1_655
Li1 O10 1.976671 1_555
Li1 O17 2.030314 1_555
Li2 O11 1.804843 1_555
Li2 O15 1.968412 1_555
Li2 O22 1.990146 1_545
Li2 O3 2.109454 1_555
Li3 O23 1.804843 1_555
Li3 O25 1.968412 1_554
Li3 O30 1.990146 1_455
Li3 O9 2.109454 1_555
Bi0 O3 2.167179 1_555
Bi0 O15 2.264709 1_555
Bi0 O2 2.280153 1_545
Bi0 O7 2.699270 1_555
Bi0 O16 2.810307 1_555
Bi1 O6 2.156049 1_545
Bi1 O30 2.171113 1_556
Bi1 O4 2.208176 1_555
Bi1 O25 2.467082 1_655
Bi2 O9 2.167179 1_555
Bi2 O25 2.264709 1_554
Bi2 O10 2.280153 1_455
Bi2 O1 2.699270 1_554
Bi2 O27 2.810307 1_555
Bi3 O17 2.156049 1_455
Bi3 O22 2.171113 1_555
Bi3 O13 2.208182 1_555
Bi3 O15 2.467082 1_565
O0 Si1 1.630395 1_455
O0 Si0 1.659388 1_565
O1 Si2 1.589115 1_555
O2 Si4 1.625467 1_555
O3 Si0 1.644875 1_555
O4 Si0 1.619011 1_555
O5 Si2 1.627110 1_555
O5 Si0 1.633520 1_555
O6 Si1 1.611899 1_555
O7 Si6 1.589115 1_555
O8 Si5 1.630395 1_545
O8 Si3 1.659388 1_655
O9 Si3 1.644875 1_555
O10 Si9 1.625467 1_555
O11 Si7 1.569454 1_555
O12 Si8 1.653663 1_555
O12 Si4 1.655379 1_555
O13 Si3 1.619005 1_555
O14 Si4 1.650697 1_555
O14 Si5 1.651138 1_555
O15 Si6 1.679634 1_555
O16 Si8 1.648756 1_555
O16 Si7 1.711616 1_655
O17 Si5 1.611899 1_555
O18 Si6 1.627110 1_555
O18 Si3 1.633520 1_555
O19 Si8 1.612534 1_555
O19 Si1 1.629187 1_555
O20 Si7 1.663350 1_555
O20 Si2 1.672340 1_555
O21 Si4 1.666700 1_555
O21 Si7 1.698560 1_555
O22 Si8 1.613822 1_455
O23 Si11 1.569454 1_555
O24 Si10 1.653663 1_555
O24 Si9 1.655379 1_555
O25 Si2 1.679634 1_555
O26 Si9 1.650697 1_556
O26 Si1 1.651138 1_555
O27 Si10 1.648756 1_555
O27 Si11 1.711616 1_565
O28 Si11 1.663350 1_555
O28 Si6 1.672340 1_555
O29 Si10 1.612534 1_555
O29 Si5 1.629187 1_555
O30 Si10 1.613822 1_545
O31 Si9 1.666700 1_555
O31 Si11 1.698560 1_555
