# generated using pymatgen
data_Li32Mn3Cr13O48
_symmetry_space_group_name_H-M   'P 1'
_cell_length_a   5.03006500
_cell_length_b   8.70810660
_cell_length_c   19.48256582
_cell_angle_alpha   97.91390423
_cell_angle_beta   94.89726433
_cell_angle_gamma   89.51607191
_symmetry_Int_Tables_number   1
_chemical_formula_structural   Li32Mn3Cr13O48
_chemical_formula_sum   'Li32 Mn3 Cr13 O48'
_cell_volume   842.16403360
_cell_formula_units_Z   1
loop_
 _symmetry_equiv_pos_site_id
 _symmetry_equiv_pos_as_xyz
  1  'x, y, z'
loop_
 _atom_site_type_symbol
 _atom_site_label
 _atom_site_symmetry_multiplicity
 _atom_site_fract_x
 _atom_site_fract_y
 _atom_site_fract_z
 _atom_site_occupancy
  Li  Li0  1  0.98905300  0.16981200  0.24993600  1
  Li  Li1  1  0.87544000  0.37490800  0.37510700  1
  Li  Li2  1  0.75093900  0.24973700  0.99981400  1
  Li  Li3  1  0.74372700  0.92053200  0.99967900  1
  Li  Li4  1  0.99257500  0.16872600  0.74970600  1
  Li  Li5  1  0.75859000  0.57921000  0.49954300  1
  Li  Li6  1  0.87469100  0.37493600  0.87493300  1
  Li  Li7  1  0.75319000  0.24932600  0.50045500  1
  Li  Li8  1  0.74137900  0.92038300  0.49951900  1
  Li  Li9  1  0.62623500  0.12641400  0.12481100  1
  Li  Li10  1  0.76047300  0.57926100  0.99973900  1
  Li  Li11  1  0.51098600  0.33083200  0.25028800  1
  Li  Li12  1  0.62493300  0.12550900  0.62491500  1
  Li  Li13  1  0.49770400  0.00076300  0.25056500  1
  Li  Li14  1  0.49499000  0.67014300  0.25007200  1
  Li  Li15  1  0.50695400  0.33015800  0.74978500  1
  Li  Li16  1  0.37547200  0.87625400  0.37514800  1
  Li  Li17  1  0.50302900  0.00104100  0.75049400  1
  Li  Li18  1  0.25177900  0.74885200  0.99950000  1
  Li  Li19  1  0.48992500  0.66857200  0.74941700  1
  Li  Li20  1  0.23971500  0.42035400  0.99998400  1
  Li  Li21  1  0.37508000  0.87463900  0.87478000  1
  Li  Li22  1  0.25928400  0.08141100  0.50060600  1
  Li  Li23  1  0.24852400  0.74955000  0.49961100  1
  Li  Li24  1  0.12372600  0.62372200  0.12517400  1
  Li  Li25  1  0.24088600  0.41954700  0.50041400  1
  Li  Li26  1  0.00707500  0.83054500  0.25070600  1
  Li  Li27  1  0.25458600  0.07909300  0.99967800  1
  Li  Li28  1  0.12352800  0.62326000  0.62503900  1
  Li  Li29  1  0.99874900  0.49985500  0.25013200  1
  Li  Li30  1  0.00728000  0.83107800  0.75065600  1
  Li  Li31  1  0.99929400  0.50032500  0.74916300  1
  Mn  Mn0  1  0.87496700  0.70842100  0.37531600  1
  Mn  Mn1  1  0.87316200  0.04140300  0.87413300  1
  Mn  Mn2  1  0.12398000  0.29031800  0.62453400  1
  Cr  Cr0  1  0.87646900  0.03814500  0.37472700  1
  Cr  Cr1  1  0.87770300  0.71193900  0.87527300  1
  Cr  Cr2  1  0.62707400  0.79706100  0.12572100  1
  Cr  Cr3  1  0.62109000  0.46176900  0.12533500  1
  Cr  Cr4  1  0.62962700  0.79635300  0.62612200  1
  Cr  Cr5  1  0.61777000  0.45767900  0.62434300  1
  Cr  Cr6  1  0.38146800  0.54452300  0.37544000  1
  Cr  Cr7  1  0.36960500  0.21183300  0.37468800  1
  Cr  Cr8  1  0.38378500  0.54056500  0.87591100  1
  Cr  Cr9  1  0.36565700  0.20728700  0.87438000  1
  Cr  Cr10  1  0.12124900  0.95282000  0.12419200  1
  Cr  Cr11  1  0.13030800  0.28855900  0.12493900  1
  Cr  Cr12  1  0.12622400  0.95415100  0.62501600  1
  O  O0  1  0.96449100  0.10242000  0.06861600  1
  O  O1  1  0.93607400  0.78717400  0.06870000  1
  O  O2  1  0.92522600  0.42627900  0.06793100  1
  O  O3  1  0.96454400  0.10739800  0.56947200  1
  O  O4  1  0.81394000  0.96213900  0.18118700  1
  O  O5  1  0.82469000  0.32300500  0.18213200  1
  O  O6  1  0.93629300  0.78989900  0.56889800  1
  O  O7  1  0.93048300  0.42736000  0.56767100  1
  O  O8  1  0.78612500  0.64714400  0.18116800  1
  O  O9  1  0.71132500  0.85454700  0.31890500  1
  O  O10  1  0.81469100  0.96230300  0.68151300  1
  O  O11  1  0.82323200  0.32407100  0.68164000  1
  O  O12  1  0.68109300  0.53643800  0.31950600  1
  O  O13  1  0.67258300  0.17708400  0.31757200  1
  O  O14  1  0.78332900  0.64511200  0.68132000  1
  O  O15  1  0.71147300  0.85939100  0.81916500  1
  O  O16  1  0.46844600  0.60662000  0.06956600  1
  O  O17  1  0.57490000  0.71592900  0.43107300  1
  O  O18  1  0.57881300  0.07348300  0.43212700  1
  O  O19  1  0.67311200  0.53753100  0.81908900  1
  O  O20  1  0.67988200  0.17816900  0.81799200  1
  O  O21  1  0.43315800  0.92350200  0.06725100  1
  O  O22  1  0.41887500  0.28457200  0.06862700  1
  O  O23  1  0.53159700  0.39722300  0.43133300  1
  O  O24  1  0.47008200  0.60540200  0.56918400  1
  O  O25  1  0.57890700  0.71499700  0.93144300  1
  O  O26  1  0.57358800  0.07344300  0.93151700  1
  O  O27  1  0.31632900  0.82683400  0.18273000  1
  O  O28  1  0.33183300  0.46546500  0.18143400  1
  O  O29  1  0.43405400  0.92279500  0.56730200  1
  O  O30  1  0.42584400  0.28390100  0.56919200  1
  O  O31  1  0.53184400  0.39582400  0.93146000  1
  O  O32  1  0.28183000  0.14391400  0.18045600  1
  O  O33  1  0.21738400  0.35657700  0.31868500  1
  O  O34  1  0.31684400  0.82633100  0.68294700  1
  O  O35  1  0.32007300  0.46309200  0.68072400  1
  O  O36  1  0.17578800  0.67692900  0.31832000  1
  O  O37  1  0.16857000  0.03534900  0.31851100  1
  O  O38  1  0.28573500  0.14290300  0.68062000  1
  O  O39  1  0.21897800  0.35244200  0.81879700  1
  O  O40  1  0.06913900  0.57228000  0.43210300  1
  O  O41  1  0.08001400  0.21335700  0.43094800  1
  O  O42  1  0.17275000  0.67454400  0.81812600  1
  O  O43  1  0.17452200  0.03279300  0.81885500  1
  O  O44  1  0.03635100  0.89143900  0.43088700  1
  O  O45  1  0.07415200  0.57187000  0.93263300  1
  O  O46  1  0.07097200  0.21291400  0.93045100  1
  O  O47  1  0.03610900  0.89423800  0.93078700  1
loop_
_geom_bond_atom_site_label_1
_geom_bond_atom_site_label_2
_geom_bond_distance
_geom_bond_site_symmetry_2
Li0 O37 2.044091 1_655
Li0 O32 2.074301 1_655
Li0 O5 2.118569 1_555
Li0 O13 2.146603 1_555
Li0 O33 2.219736 1_655
Li0 O4 2.235796 1_545
Li1 O12 2.079236 1_555
Li1 O41 2.104143 1_655
Li1 O40 2.110548 1_655
Li1 O33 2.112364 1_655
Li1 O23 2.118551 1_555
Li1 O13 2.137273 1_555
Li2 O2 2.038501 1_556
Li2 O26 2.044769 1_555
Li2 O46 2.182617 1_655
Li2 O31 2.190568 1_555
Li2 O0 2.191062 1_556
Li2 O22 2.222853 1_556
Li3 O47 2.064845 1_655
Li3 O1 2.069260 1_556
Li3 O21 2.124916 1_556
Li3 O26 2.131343 1_565
Li3 O0 2.175998 1_566
Li3 O25 2.199953 1_555
Li4 O43 2.064960 1_655
Li4 O38 2.070417 1_655
Li4 O20 2.139056 1_555
Li4 O11 2.143767 1_555
Li4 O39 2.200973 1_655
Li4 O10 2.227888 1_545
Li5 O24 2.060166 1_555
Li5 O17 2.063724 1_555
Li5 O40 2.120634 1_655
Li5 O7 2.127425 1_555
Li5 O23 2.184654 1_555
Li5 O6 2.264887 1_555
Li6 O46 2.085601 1_655
Li6 O19 2.104321 1_555
Li6 O20 2.108596 1_555
Li6 O31 2.117495 1_555
Li6 O39 2.119488 1_655
Li6 O45 2.125301 1_655
Li7 O18 2.036719 1_555
Li7 O7 2.044172 1_555
Li7 O3 2.158037 1_555
Li7 O30 2.202797 1_555
Li7 O41 2.211121 1_655
Li7 O23 2.216231 1_555
Li8 O6 2.063307 1_555
Li8 O44 2.071835 1_655
Li8 O18 2.109573 1_565
Li8 O29 2.115291 1_555
Li8 O17 2.197742 1_555
Li8 O3 2.219941 1_565
Li9 O4 2.092131 1_545
Li9 O22 2.092572 1_555
Li9 O0 2.094344 1_555
Li9 O32 2.114323 1_555
Li9 O5 2.118120 1_555
Li9 O21 2.149508 1_545
Li10 O25 2.051596 1_555
Li10 O16 2.076346 1_556
Li10 O2 2.123037 1_556
Li10 O45 2.128446 1_655
Li10 O31 2.197374 1_555
Li10 O1 2.240056 1_556
Li11 O28 2.048151 1_555
Li11 O33 2.062800 1_555
Li11 O13 2.110590 1_555
Li11 O5 2.142144 1_555
Li11 O12 2.218190 1_555
Li11 O32 2.232302 1_555
Li12 O30 2.070576 1_555
Li12 O3 2.091268 1_555
Li12 O10 2.091824 1_545
Li12 O38 2.092455 1_555
Li12 O11 2.126211 1_555
Li12 O29 2.144033 1_545
Li13 O13 2.027397 1_555
Li13 O27 2.034510 1_545
Li13 O4 2.168704 1_545
Li13 O9 2.178987 1_545
Li13 O32 2.188950 1_555
Li13 O37 2.199984 1_555
Li14 O8 2.059960 1_555
Li14 O12 2.064212 1_555
Li14 O27 2.159097 1_555
Li14 O36 2.165801 1_555
Li14 O9 2.179109 1_555
Li14 O28 2.195348 1_555
Li15 O39 2.049297 1_555
Li15 O35 2.056354 1_555
Li15 O20 2.131130 1_555
Li15 O11 2.153188 1_555
Li15 O38 2.209646 1_555
Li15 O19 2.223518 1_555
Li16 O9 2.084224 1_555
Li16 O17 2.085956 1_555
Li16 O44 2.092708 1_555
Li16 O37 2.102522 1_565
Li16 O18 2.130504 1_565
Li16 O36 2.134913 1_555
Li17 O20 2.040763 1_555
Li17 O34 2.045935 1_545
Li17 O10 2.145577 1_545
Li17 O15 2.145667 1_545
Li17 O38 2.181785 1_555
Li17 O43 2.201673 1_555
Li18 O45 2.035267 1_555
Li18 O21 2.037830 1_556
Li18 O1 2.164137 1_456
Li18 O47 2.183437 1_555
Li18 O16 2.184948 1_556
Li18 O25 2.193002 1_555
Li19 O19 2.046688 1_555
Li19 O14 2.057806 1_555
Li19 O34 2.144639 1_555
Li19 O42 2.164263 1_555
Li19 O35 2.212226 1_555
Li19 O15 2.236183 1_555
Li20 O22 2.051917 1_556
Li20 O31 2.058700 1_555
Li20 O45 2.104235 1_555
Li20 O2 2.143554 1_456
Li20 O16 2.225343 1_556
Li20 O46 2.230345 1_555
Li21 O43 2.074530 1_565
Li21 O15 2.079520 1_555
Li21 O47 2.094851 1_555
Li21 O25 2.099459 1_555
Li21 O26 2.128322 1_565
Li21 O42 2.144471 1_555
Li22 O41 2.044027 1_555
Li22 O3 2.073564 1_455
Li22 O29 2.155879 1_545
Li22 O18 2.169528 1_555
Li22 O30 2.186703 1_555
Li22 O44 2.234203 1_545
Li23 O29 2.037619 1_555
Li23 O40 2.046654 1_555
Li23 O6 2.152743 1_455
Li23 O44 2.155850 1_555
Li23 O17 2.195996 1_555
Li23 O24 2.200437 1_555
Li24 O1 2.087750 1_455
Li24 O8 2.089159 1_455
Li24 O28 2.095730 1_555
Li24 O16 2.115298 1_555
Li24 O2 2.123143 1_455
Li24 O27 2.149807 1_555
Li25 O23 2.060741 1_555
Li25 O30 2.064170 1_555
Li25 O7 2.117166 1_455
Li25 O40 2.134994 1_555
Li25 O41 2.208787 1_555
Li25 O24 2.216812 1_555
Li26 O4 2.067679 1_455
Li26 O9 2.068319 1_455
Li26 O27 2.124579 1_555
Li26 O36 2.126053 1_555
Li26 O37 2.185901 1_565
Li26 O8 2.190516 1_455
Li27 O0 2.056427 1_456
Li27 O46 2.057179 1_555
Li27 O21 2.155101 1_546
Li27 O26 2.164511 1_555
Li27 O47 2.187116 1_545
Li27 O22 2.205141 1_556
Li28 O35 2.076052 1_555
Li28 O7 2.102355 1_455
Li28 O14 2.103381 1_455
Li28 O6 2.104078 1_455
Li28 O24 2.125975 1_555
Li28 O34 2.153565 1_555
Li29 O5 2.038696 1_555
Li29 O36 2.047606 1_655
Li29 O12 2.173221 1_555
Li29 O33 2.175973 1_655
Li29 O8 2.190939 1_555
Li29 O28 2.225339 1_655
Li30 O10 2.059435 1_455
Li30 O15 2.073281 1_455
Li30 O34 2.121581 1_555
Li30 O42 2.136859 1_555
Li30 O43 2.179454 1_565
Li30 O14 2.210171 1_455
Li31 O42 2.031993 1_655
Li31 O11 2.034370 1_555
Li31 O14 2.169656 1_555
Li31 O35 2.173925 1_655
Li31 O19 2.214498 1_555
Li31 O39 2.218344 1_655
Mn0 O9 1.928101 1_555
Mn0 O17 1.929035 1_555
Mn0 O40 1.934055 1_655
Mn0 O44 1.941081 1_655
Mn0 O12 1.942018 1_555
Mn0 O36 1.947792 1_655
Mn1 O20 1.928092 1_555
Mn1 O43 1.928178 1_655
Mn1 O15 1.930324 1_545
Mn1 O47 1.936419 1_645
Mn1 O26 1.947578 1_555
Mn1 O46 1.952435 1_655
Mn2 O38 1.928917 1_555
Mn2 O30 1.932012 1_555
Mn2 O3 1.932715 1_455
Mn2 O7 1.938841 1_455
Mn2 O11 1.950006 1_455
Mn2 O35 1.955022 1_555
Cr0 O37 1.904137 1_655
Cr0 O44 1.921800 1_645
Cr0 O18 1.941730 1_555
Cr0 O9 1.954054 1_545
Cr0 O13 1.977527 1_555
Cr0 O41 1.987630 1_655
Cr1 O42 1.929333 1_655
Cr1 O47 1.930327 1_655
Cr1 O25 1.931139 1_555
Cr1 O15 1.937812 1_555
Cr1 O45 1.969644 1_655
Cr1 O19 1.984981 1_555
Cr2 O4 1.881312 1_555
Cr2 O21 1.897089 1_555
Cr2 O8 1.932473 1_555
Cr2 O1 1.980802 1_555
Cr2 O27 1.988539 1_555
Cr2 O16 1.989349 1_555
Cr3 O28 1.890393 1_555
Cr3 O16 1.892020 1_555
Cr3 O8 1.965489 1_555
Cr3 O2 1.968654 1_555
Cr3 O5 1.971612 1_555
Cr3 O22 2.000356 1_555
Cr4 O10 1.881817 1_555
Cr4 O29 1.905263 1_555
Cr4 O14 1.928632 1_555
Cr4 O6 1.974959 1_555
Cr4 O34 1.994998 1_555
Cr4 O24 2.000541 1_555
Cr5 O24 1.894660 1_555
Cr5 O35 1.927825 1_555
Cr5 O30 1.943281 1_555
Cr5 O11 1.951468 1_555
Cr5 O14 1.988964 1_555
Cr5 O7 1.993049 1_555
Cr6 O23 1.905059 1_555
Cr6 O12 1.929102 1_555
Cr6 O17 1.936068 1_555
Cr6 O36 1.942888 1_555
Cr6 O33 1.987750 1_555
Cr6 O40 1.990348 1_555
Cr7 O33 1.893466 1_555
Cr7 O41 1.895185 1_555
Cr7 O13 1.959955 1_555
Cr7 O23 1.966268 1_555
Cr7 O37 1.989075 1_555
Cr7 O18 1.989957 1_555
Cr8 O31 1.880611 1_555
Cr8 O19 1.900159 1_555
Cr8 O25 1.957661 1_555
Cr8 O42 1.972860 1_555
Cr8 O45 1.981162 1_555
Cr8 O39 1.993126 1_555
Cr9 O39 1.881369 1_555
Cr9 O46 1.911393 1_555
Cr9 O43 1.948829 1_555
Cr9 O26 1.956893 1_555
Cr9 O20 1.995590 1_555
Cr9 O31 1.998168 1_555
Cr10 O1 1.881075 1_455
Cr10 O27 1.898017 1_555
Cr10 O0 1.927830 1_465
Cr10 O4 1.973620 1_455
Cr10 O21 1.992431 1_555
Cr10 O32 1.998090 1_565
Cr11 O32 1.885611 1_555
Cr11 O22 1.890047 1_555
Cr11 O2 1.971361 1_455
Cr11 O5 1.971656 1_455
Cr11 O0 1.975838 1_455
Cr11 O28 1.995289 1_555
Cr12 O6 1.888921 1_455
Cr12 O34 1.890836 1_555
Cr12 O3 1.960193 1_465
Cr12 O38 1.975483 1_565
Cr12 O29 1.985449 1_555
Cr12 O10 1.985770 1_455
