# generated using pymatgen
data_V6O13
_symmetry_space_group_name_H-M   'P 1'
_cell_length_a   11.73510832
_cell_length_b   11.73510832
_cell_length_c   3.75843100
_cell_angle_alpha   90.00000000
_cell_angle_beta   90.00000000
_cell_angle_gamma   117.92840604
_symmetry_Int_Tables_number   1
_chemical_formula_structural   V6O13
_chemical_formula_sum   'V12 O26'
_cell_volume   457.30276078
_cell_formula_units_Z   2
loop_
 _symmetry_equiv_pos_site_id
 _symmetry_equiv_pos_as_xyz
  1  'x, y, z'
loop_
 _atom_site_type_symbol
 _atom_site_label
 _atom_site_symmetry_multiplicity
 _atom_site_fract_x
 _atom_site_fract_y
 _atom_site_fract_z
 _atom_site_occupancy
  V  V0  1  0.58504500  0.21998800  0.75000000  1
  V  V1  1  0.71078900  0.07774900  0.25000000  1
  V  V2  1  0.07774900  0.71078900  0.25000000  1
  V  V3  1  0.92225100  0.28921100  0.75000000  1
  V  V4  1  0.41495500  0.78001200  0.25000000  1
  V  V5  1  0.78001200  0.41495500  0.25000000  1
  V  V6  1  0.21998800  0.58504500  0.75000000  1
  V  V7  1  0.28921100  0.92225100  0.75000000  1
  V  V8  1  0.90066000  0.90066000  0.25000000  1
  V  V9  1  0.09934000  0.09934000  0.75000000  1
  V  V10  1  0.39778700  0.39778700  0.75000000  1
  V  V11  1  0.60221300  0.60221300  0.25000000  1
  O  O0  1  0.80252100  0.00298800  0.25000000  1
  O  O1  1  0.00298800  0.80252100  0.25000000  1
  O  O2  1  0.30446200  0.50172400  0.75000000  1
  O  O3  1  0.50172400  0.30446200  0.75000000  1
  O  O4  1  0.19747900  0.99701200  0.75000000  1
  O  O5  1  0.99701200  0.19747900  0.75000000  1
  O  O6  1  0.69553800  0.49827600  0.25000000  1
  O  O7  1  0.49827600  0.69553800  0.25000000  1
  O  O8  1  0.56833400  0.56833400  0.75000000  1
  O  O9  1  0.92713300  0.92713300  0.75000000  1
  O  O10  1  0.07286700  0.07286700  0.25000000  1
  O  O11  1  0.43166600  0.43166600  0.25000000  1
  O  O12  1  0.36828700  0.77513200  0.75000000  1
  O  O13  1  0.87180500  0.27524400  0.25000000  1
  O  O14  1  0.22486800  0.63171300  0.25000000  1
  O  O15  1  0.72475600  0.12819500  0.75000000  1
  O  O16  1  0.12819500  0.72475600  0.75000000  1
  O  O17  1  0.77513200  0.36828700  0.75000000  1
  O  O18  1  0.63171300  0.22486800  0.25000000  1
  O  O19  1  0.27524400  0.87180500  0.25000000  1
  O  O20  1  0.55731300  0.95279400  0.25000000  1
  O  O21  1  0.95279400  0.55731300  0.25000000  1
  O  O22  1  0.44268700  0.04720600  0.75000000  1
  O  O23  1  0.04720600  0.44268700  0.75000000  1
  O  O24  1  0.74535100  0.74535100  0.25000000  1
  O  O25  1  0.25464900  0.25464900  0.75000000  1
loop_
_geom_bond_atom_site_label_1
_geom_bond_atom_site_label_2
_geom_bond_distance
_geom_bond_site_symmetry_2
O0 V1 1.677262 1_555
O0 V8 2.015890 1_545
O1 V2 1.677262 1_555
O1 V8 2.015890 1_455
O2 V6 1.687222 1_555
O2 V10 1.984542 1_555
O3 V0 1.687222 1_555
O3 V10 1.984542 1_555
O4 V7 1.677262 1_555
O4 V9 2.015890 1_565
O5 V3 1.677262 1_555
O5 V9 2.015890 1_655
O6 V5 1.687222 1_555
O6 V11 1.984542 1_555
O7 V4 1.687222 1_555
O7 V11 1.984542 1_555
O8 V11 1.923412 1_556
O8 V11 1.923412 1_555
O8 V10 2.063725 1_555
O9 V8 1.906323 1_555
O9 V8 1.906323 1_556
O9 V9 2.083812 1_665
O10 V9 1.906323 1_554
O10 V9 1.906323 1_555
O10 V8 2.083812 1_445
O11 V10 1.923412 1_554
O11 V10 1.923412 1_555
O11 V11 2.063725 1_555
O12 V4 1.950712 1_556
O12 V4 1.950712 1_555
O12 V6 2.090014 1_555
O12 V7 2.311388 1_555
O13 V3 1.953939 1_555
O13 V3 1.953939 1_554
O13 V1 2.199898 1_555
O13 V5 2.345797 1_555
O14 V6 1.950712 1_554
O14 V6 1.950712 1_555
O14 V4 2.090014 1_555
O14 V2 2.311388 1_555
O15 V1 1.953939 1_556
O15 V1 1.953939 1_555
O15 V3 2.199898 1_555
O15 V0 2.345797 1_555
O16 V2 1.953939 1_555
O16 V2 1.953939 1_556
O16 V7 2.199898 1_555
O16 V6 2.345797 1_555
O17 V5 1.950712 1_556
O17 V5 1.950712 1_555
O17 V0 2.090014 1_555
O17 V3 2.311388 1_555
O18 V0 1.950712 1_555
O18 V0 1.950712 1_554
O18 V5 2.090014 1_555
O18 V1 2.311388 1_555
O19 V7 1.953939 1_555
O19 V7 1.953939 1_554
O19 V2 2.199898 1_555
O19 V4 2.345797 1_555
O20 V1 1.708831 1_565
O20 V4 1.931081 1_555
O21 V2 1.708831 1_655
O21 V5 1.931081 1_555
O22 V7 1.708831 1_545
O22 V0 1.931081 1_555
O23 V3 1.708831 1_455
O23 V6 1.931081 1_555
O24 V11 1.732059 1_555
O24 V8 1.879336 1_555
O25 V10 1.732059 1_555
O25 V9 1.879336 1_555
