# generated using pymatgen
data_Li4Mn3Fe(BO3)4
_symmetry_space_group_name_H-M   'P 1'
_cell_length_a   5.24338900
_cell_length_b   6.23634771
_cell_length_c   9.05196787
_cell_angle_alpha   105.80902625
_cell_angle_beta   91.28990154
_cell_angle_gamma   114.66248412
_symmetry_Int_Tables_number   1
_chemical_formula_structural   Li4Mn3Fe(BO3)4
_chemical_formula_sum   'Li4 Mn3 Fe1 B4 O12'
_cell_volume   255.66217775
_cell_formula_units_Z   1
loop_
 _symmetry_equiv_pos_site_id
 _symmetry_equiv_pos_as_xyz
  1  'x, y, z'
loop_
 _atom_site_type_symbol
 _atom_site_label
 _atom_site_symmetry_multiplicity
 _atom_site_fract_x
 _atom_site_fract_y
 _atom_site_fract_z
 _atom_site_occupancy
  Li  Li0  1  0.51244600  0.32764600  0.88343400  1
  Li  Li1  1  0.01385700  0.32917500  0.38197200  1
  Li  Li2  1  0.98604500  0.67177800  0.61747700  1
  Li  Li3  1  0.48534000  0.67035900  0.11850000  1
  Mn  Mn0  1  0.55006800  0.76580200  0.80271700  1
  Mn  Mn1  1  0.94968100  0.23432500  0.69690100  1
  Mn  Mn2  1  0.05090100  0.76982100  0.30272800  1
  Fe  Fe0  1  0.45719500  0.23499500  0.19849200  1
  B  B0  1  0.03923800  0.73959200  0.96555500  1
  B  B1  1  0.46304400  0.26364100  0.53348000  1
  B  B2  1  0.53753600  0.73654800  0.46426800  1
  B  B3  1  0.95980600  0.25948000  0.03566300  1
  O  O0  1  0.76151300  0.70252200  0.97512600  1
  O  O1  1  0.12358500  0.67603000  0.82151300  1
  O  O2  1  0.76927500  0.17447900  0.89822700  1
  O  O3  1  0.37560500  0.32290500  0.67712300  1
  O  O4  1  0.73914600  0.29708700  0.52464800  1
  O  O5  1  0.27073900  0.17795800  0.39607800  1
  O  O6  1  0.73215300  0.82571200  0.60091000  1
  O  O7  1  0.26084400  0.70238900  0.47380900  1
  O  O8  1  0.62352600  0.67470700  0.32087100  1
  O  O9  1  0.23449800  0.82945300  0.10183200  1
  O  O10  1  0.86703900  0.31823400  0.17822200  1
  O  O11  1  0.23692300  0.29536200  0.03045700  1
loop_
_geom_bond_atom_site_label_1
_geom_bond_atom_site_label_2
_geom_bond_distance
_geom_bond_site_symmetry_2
Li0 O2 1.969490 1_555
Li0 O11 1.971951 1_556
Li0 O3 1.973629 1_555
Li0 O0 2.050841 1_555
Li1 O4 1.940833 1_455
Li1 O10 1.955132 1_455
Li1 O5 1.959024 1_555
Li1 O7 2.041382 1_555
Li2 O7 1.947792 1_655
Li2 O1 1.956866 1_655
Li2 O6 1.962725 1_555
Li2 O4 2.049110 1_555
Li3 O8 1.943760 1_555
Li3 O0 1.950783 1_554
Li3 O9 1.974524 1_555
Li3 O11 2.048533 1_555
Mn0 O1 2.089801 1_555
Mn0 O0 2.107922 1_555
Mn0 O6 2.130927 1_555
Mn0 O2 2.207748 1_565
Mn0 O3 2.427323 1_555
Mn1 O3 2.089757 1_655
Mn1 O4 2.102057 1_555
Mn1 O2 2.123393 1_555
Mn1 O6 2.207458 1_545
Mn1 O1 2.419975 1_655
Mn2 O8 2.088247 1_455
Mn2 O7 2.109804 1_555
Mn2 O9 2.126151 1_555
Mn2 O5 2.203855 1_565
Mn2 O10 2.467135 1_455
Fe0 O10 2.014918 1_555
Fe0 O11 2.094052 1_555
Fe0 O5 2.101517 1_555
Fe0 O9 2.192970 1_545
Fe0 O8 2.410997 1_555
B0 O0 1.384619 1_455
B0 O1 1.394075 1_555
B0 O9 1.404146 1_556
B1 O4 1.381324 1_555
B1 O3 1.394225 1_555
B1 O5 1.407466 1_555
B2 O7 1.383984 1_555
B2 O8 1.391260 1_555
B2 O6 1.405446 1_555
B3 O11 1.378795 1_655
B3 O10 1.398377 1_555
B3 O2 1.403396 1_554
