# generated using pymatgen
data_Li2MnOF3
_symmetry_space_group_name_H-M   'P 1'
_cell_length_a   5.27460452
_cell_length_b   5.82611500
_cell_length_c   9.84699626
_cell_angle_alpha   90.00007472
_cell_angle_beta   90.75391744
_cell_angle_gamma   89.99991717
_symmetry_Int_Tables_number   1
_chemical_formula_structural   Li2MnOF3
_chemical_formula_sum   'Li8 Mn4 O4 F12'
_cell_volume   302.57645501
_cell_formula_units_Z   4
loop_
 _symmetry_equiv_pos_site_id
 _symmetry_equiv_pos_as_xyz
  1  'x, y, z'
loop_
 _atom_site_type_symbol
 _atom_site_label
 _atom_site_symmetry_multiplicity
 _atom_site_fract_x
 _atom_site_fract_y
 _atom_site_fract_z
 _atom_site_occupancy
  Li  Li0  1  0.75630500  0.64994600  0.31583500  1
  Li  Li1  1  0.75630200  0.14994600  0.81583300  1
  Li  Li2  1  0.74369400  0.64994700  0.68416400  1
  Li  Li3  1  0.74369700  0.14994600  0.18416700  1
  Li  Li4  1  0.27720400  0.36577100  0.29350500  1
  Li  Li5  1  0.27720900  0.86577700  0.79350400  1
  Li  Li6  1  0.22279600  0.36577100  0.70649500  1
  Li  Li7  1  0.22279000  0.86577600  0.20649500  1
  Mn  Mn0  1  0.75000000  0.11372700  0.50000000  1
  Mn  Mn1  1  0.24999100  0.86667900  0.50000100  1
  Mn  Mn2  1  0.75000700  0.61370500  0.99999800  1
  Mn  Mn3  1  0.25001100  0.36668000  0.00000700  1
  O  O0  1  0.94254800  0.39099900  0.09697100  1
  O  O1  1  0.94255800  0.89101900  0.59697400  1
  O  O2  1  0.55745300  0.39099900  0.90302900  1
  O  O3  1  0.55744400  0.89101700  0.40302700  1
  F  F0  1  0.87539900  0.85227800  0.13115900  1
  F  F1  1  0.87537600  0.35225700  0.63118500  1
  F  F2  1  0.62459900  0.85228000  0.86883900  1
  F  F3  1  0.62462200  0.35225500  0.36881500  1
  F  F4  1  0.38665800  0.63998900  0.64033100  1
  F  F5  1  0.38665400  0.13996000  0.14030300  1
  F  F6  1  0.11334100  0.63998900  0.35966700  1
  F  F7  1  0.11334600  0.13995800  0.85969500  1
  F  F8  1  0.41664200  0.61084500  0.13478600  1
  F  F9  1  0.41665800  0.11081900  0.63480600  1
  F  F10  1  0.08335500  0.61084300  0.86521400  1
  F  F11  1  0.08334000  0.11081600  0.36519400  1
loop_
_geom_bond_atom_site_label_1
_geom_bond_atom_site_label_2
_geom_bond_distance
_geom_bond_site_symmetry_2
Li0 O3 1.957986 1_555
Li1 O2 1.957894 1_555
Li2 O1 1.957994 1_555
Li3 O0 1.957904 1_555
Mn0 O3 1.897749 1_545
Mn0 O1 1.897751 1_545
Mn1 O1 1.897952 1_455
Mn1 O3 1.898048 1_555
Mn2 O0 1.897691 1_556
Mn2 O2 1.897708 1_555
Mn3 O2 1.898010 1_554
Mn3 O0 1.898034 1_455
F0 Li3 1.942210 1_565
F0 Li7 1.969324 1_655
F0 Mn2 2.003749 1_554
F0 Li0 2.263011 1_555
F1 Li2 1.942208 1_555
F1 Li6 1.969376 1_655
F1 Mn0 2.003700 1_555
F1 Li1 2.262695 1_555
F2 Li1 1.942199 1_565
F2 Li5 1.969315 1_555
F2 Mn2 2.003773 1_555
F2 Li2 2.263004 1_555
F3 Li0 1.942221 1_555
F3 Li4 1.969367 1_555
F3 Mn0 2.003696 1_555
F3 Li3 2.262687 1_555
F4 Li2 1.927383 1_555
F4 Li6 1.933581 1_555
F4 Mn1 2.036466 1_555
F4 Li5 2.088441 1_555
F5 Li3 1.927488 1_555
F5 Li7 1.933516 1_545
F5 Mn3 2.036310 1_555
F5 Li4 2.088734 1_555
F6 Li0 1.927381 1_455
F6 Li4 1.933573 1_555
F6 Mn1 2.036460 1_555
F6 Li7 2.088434 1_555
F7 Li1 1.927490 1_455
F7 Li5 1.933493 1_545
F7 Mn3 2.036462 1_556
F7 Li6 2.088731 1_555
F8 Li7 1.941411 1_555
F8 Mn3 2.127620 1_555
F8 Mn2 2.217017 1_554
F8 Li4 2.247790 1_555
F8 Li0 2.521104 1_555
F9 Li6 1.941460 1_555
F9 Mn1 2.127758 1_545
F9 Mn0 2.217030 1_555
F9 Li5 2.247546 1_545
F9 Li1 2.520896 1_555
F10 Li5 1.941437 1_555
F10 Mn3 2.127751 1_556
F10 Mn2 2.216921 1_455
F10 Li6 2.247784 1_555
F10 Li2 2.521105 1_455
F11 Li4 1.941482 1_555
F11 Mn1 2.127725 1_545
F11 Mn0 2.217022 1_455
F11 Li7 2.247544 1_545
F11 Li3 2.520894 1_455
