# generated using pymatgen
data_LiMn2O4
_symmetry_space_group_name_H-M   'P 1'
_cell_length_a   5.86603943
_cell_length_b   5.86603943
_cell_length_c   9.76392000
_cell_angle_alpha   90.00000000
_cell_angle_beta   90.00000000
_cell_angle_gamma   119.99999356
_symmetry_Int_Tables_number   1
_chemical_formula_structural   LiMn2O4
_chemical_formula_sum   'Li4 Mn8 O16'
_cell_volume   290.96773131
_cell_formula_units_Z   4
loop_
 _symmetry_equiv_pos_site_id
 _symmetry_equiv_pos_as_xyz
  1  'x, y, z'
loop_
 _atom_site_type_symbol
 _atom_site_label
 _atom_site_symmetry_multiplicity
 _atom_site_fract_x
 _atom_site_fract_y
 _atom_site_fract_z
 _atom_site_occupancy
  Li  Li0  1  0.33333300  0.66666700  0.88673600  1
  Li  Li1  1  0.00000000  0.00000000  0.99735700  1
  Li  Li2  1  0.00000000  0.00000000  0.49735700  1
  Li  Li3  1  0.66666700  0.33333300  0.38673600  1
  Mn  Mn0  1  0.16886100  0.83113900  0.21530800  1
  Mn  Mn1  1  0.33333300  0.66666700  0.49315000  1
  Mn  Mn2  1  0.16886100  0.33772200  0.21530800  1
  Mn  Mn3  1  0.66227800  0.83113900  0.21530800  1
  Mn  Mn4  1  0.33772200  0.16886100  0.71530800  1
  Mn  Mn5  1  0.66666700  0.33333300  0.99315000  1
  Mn  Mn6  1  0.83113900  0.66227800  0.71530800  1
  Mn  Mn7  1  0.83113900  0.16886100  0.71530800  1
  O  O0  1  0.15807600  0.84192400  0.60683400  1
  O  O1  1  0.03361500  0.51680700  0.32968100  1
  O  O2  1  0.33333300  0.66666700  0.10943900  1
  O  O3  1  0.00000000  0.00000000  0.31175800  1
  O  O4  1  0.00000000  0.00000000  0.81175800  1
  O  O5  1  0.15807600  0.31615200  0.60683400  1
  O  O6  1  0.48319300  0.96638500  0.32968100  1
  O  O7  1  0.48319300  0.51680700  0.32968100  1
  O  O8  1  0.31615200  0.15807600  0.10683400  1
  O  O9  1  0.68384800  0.84192400  0.60683400  1
  O  O10  1  0.51680700  0.48319300  0.82968100  1
  O  O11  1  0.51680700  0.03361500  0.82968100  1
  O  O12  1  0.66666700  0.33333300  0.60943900  1
  O  O13  1  0.84192400  0.68384800  0.10683400  1
  O  O14  1  0.96638500  0.48319300  0.82968100  1
  O  O15  1  0.84192400  0.15807600  0.10683400  1
loop_
_geom_bond_atom_site_label_1
_geom_bond_atom_site_label_2
_geom_bond_distance
_geom_bond_site_symmetry_2
Li0 O10 1.945606 1_555
Li0 O14 1.945606 1_455
Li0 O11 1.945606 1_565
Li0 O2 2.174454 1_556
Li1 O4 1.812174 1_555
Li1 O15 1.929286 1_456
Li1 O8 1.929286 1_556
Li1 O13 1.929286 1_446
Li2 O3 1.812174 1_555
Li2 O0 1.929286 1_545
Li2 O5 1.929286 1_555
Li2 O9 1.929286 1_445
Li3 O7 1.945606 1_555
Li3 O1 1.945606 1_655
Li3 O6 1.945606 1_545
Li3 O12 2.174454 1_555
Mn0 O6 1.952831 1_555
Mn0 O1 1.952831 1_555
Mn0 O3 1.957140 1_565
Mn0 O2 1.964953 1_555
Mn0 O8 1.972132 1_565
Mn0 O13 1.972132 1_455
Mn1 O0 2.098298 1_555
Mn1 O9 2.098302 1_555
Mn1 O5 2.098302 1_555
Mn1 O1 2.205871 1_555
Mn1 O6 2.205871 1_555
Mn1 O7 2.205878 1_555
Mn2 O1 1.952826 1_555
Mn2 O7 1.952830 1_555
Mn2 O3 1.957140 1_555
Mn2 O2 1.964958 1_555
Mn2 O8 1.972132 1_555
Mn2 O15 1.972132 1_455
Mn3 O6 1.952826 1_555
Mn3 O7 1.952830 1_555
Mn3 O3 1.957140 1_665
Mn3 O2 1.964958 1_555
Mn3 O13 1.972132 1_555
Mn3 O15 1.972132 1_565
Mn4 O11 1.952826 1_555
Mn4 O10 1.952830 1_555
Mn4 O4 1.957140 1_555
Mn4 O12 1.964958 1_555
Mn4 O5 1.972132 1_555
Mn4 O0 1.972132 1_545
Mn5 O15 2.098298 1_556
Mn5 O13 2.098302 1_556
Mn5 O8 2.098302 1_556
Mn5 O11 2.205871 1_555
Mn5 O14 2.205871 1_555
Mn5 O10 2.205878 1_555
Mn6 O14 1.952826 1_555
Mn6 O10 1.952830 1_555
Mn6 O4 1.957140 1_665
Mn6 O12 1.964958 1_555
Mn6 O9 1.972132 1_555
Mn6 O0 1.972132 1_655
Mn7 O11 1.952831 1_555
Mn7 O14 1.952831 1_555
Mn7 O4 1.957140 1_655
Mn7 O12 1.964953 1_555
Mn7 O5 1.972132 1_655
Mn7 O9 1.972132 1_545
