# generated using pymatgen
data_LiMnF3
_symmetry_space_group_name_H-M   'P 1'
_cell_length_a   5.03512400
_cell_length_b   8.90254900
_cell_length_c   10.77542900
_cell_angle_alpha   90.00000000
_cell_angle_beta   90.00000000
_cell_angle_gamma   90.00000000
_symmetry_Int_Tables_number   1
_chemical_formula_structural   LiMnF3
_chemical_formula_sum   'Li8 Mn8 F24'
_cell_volume   483.01332598
_cell_formula_units_Z   8
loop_
 _symmetry_equiv_pos_site_id
 _symmetry_equiv_pos_as_xyz
  1  'x, y, z'
loop_
 _atom_site_type_symbol
 _atom_site_label
 _atom_site_symmetry_multiplicity
 _atom_site_fract_x
 _atom_site_fract_y
 _atom_site_fract_z
 _atom_site_occupancy
  Li  Li0  1  0.50318500  0.78615800  0.09870000  1
  Li  Li1  1  0.99681500  0.78615800  0.59870000  1
  Li  Li2  1  0.50318500  0.71384200  0.59870000  1
  Li  Li3  1  0.99681500  0.71384200  0.09870000  1
  Li  Li4  1  0.00318500  0.28615800  0.90130000  1
  Li  Li5  1  0.49681500  0.28615800  0.40130000  1
  Li  Li6  1  0.00318500  0.21384200  0.40130000  1
  Li  Li7  1  0.49681500  0.21384200  0.90130000  1
  Mn  Mn0  1  0.99525500  0.91377900  0.86216500  1
  Mn  Mn1  1  0.50474500  0.91377900  0.36216500  1
  Mn  Mn2  1  0.99525500  0.58622100  0.36216500  1
  Mn  Mn3  1  0.50474500  0.58622100  0.86216500  1
  Mn  Mn4  1  0.00474500  0.41377900  0.63783500  1
  Mn  Mn5  1  0.49525500  0.41377900  0.13783500  1
  Mn  Mn6  1  0.00474500  0.08622100  0.13783500  1
  Mn  Mn7  1  0.49525500  0.08622100  0.63783500  1
  F  F0  1  0.22188600  0.91304100  0.69603500  1
  F  F1  1  0.27811400  0.91304100  0.19603500  1
  F  F2  1  0.80599900  0.90191700  0.04461400  1
  F  F3  1  0.69400100  0.90191700  0.54461400  1
  F  F4  1  0.75000000  0.75000000  0.77600400  1
  F  F5  1  0.75000000  0.75000000  0.27600400  1
  F  F6  1  0.25000000  0.75000000  0.95825600  1
  F  F7  1  0.25000000  0.75000000  0.45825600  1
  F  F8  1  0.69400100  0.59808300  0.04461400  1
  F  F9  1  0.80599900  0.59808300  0.54461400  1
  F  F10  1  0.22188600  0.58695900  0.19603500  1
  F  F11  1  0.27811400  0.58695900  0.69603500  1
  F  F12  1  0.77811400  0.41304100  0.80396500  1
  F  F13  1  0.72188600  0.41304100  0.30396500  1
  F  F14  1  0.30599900  0.40191700  0.95538600  1
  F  F15  1  0.19400100  0.40191700  0.45538600  1
  F  F16  1  0.75000000  0.25000000  0.54174400  1
  F  F17  1  0.75000000  0.25000000  0.04174400  1
  F  F18  1  0.25000000  0.25000000  0.72399600  1
  F  F19  1  0.25000000  0.25000000  0.22399600  1
  F  F20  1  0.30599900  0.09808300  0.45538600  1
  F  F21  1  0.19400100  0.09808300  0.95538600  1
  F  F22  1  0.77811400  0.08695900  0.30396500  1
  F  F23  1  0.72188600  0.08695900  0.80396500  1
loop_
_geom_bond_atom_site_label_1
_geom_bond_atom_site_label_2
_geom_bond_distance
_geom_bond_site_symmetry_2
F0 Li1 1.913184 1_455
F0 Mn0 2.122905 1_455
F0 Mn7 2.159831 1_565
F0 Li2 2.500206 1_555
F1 Li0 1.913184 1_555
F1 Mn1 2.122905 1_555
F1 Mn6 2.159831 1_565
F1 Li3 2.500206 1_455
F2 Li0 1.930393 1_555
F2 Li3 2.016481 1_555
F2 Mn6 2.168543 1_665
F2 Mn0 2.187292 1_554
F3 Li1 1.930393 1_555
F3 Li2 2.016481 1_555
F3 Mn7 2.168543 1_565
F3 Mn1 2.187292 1_555
F4 Mn3 2.124342 1_555
F4 Mn0 2.124342 1_555
F4 Li2 2.301770 1_555
F4 Li1 2.301770 1_555
F5 Mn2 2.124342 1_555
F5 Mn1 2.124342 1_555
F5 Li3 2.301770 1_555
F5 Li0 2.301770 1_555
F6 Li3 2.004742 1_456
F6 Li0 2.004742 1_556
F6 Mn3 2.200741 1_555
F6 Mn0 2.200741 1_455
F7 Li2 2.004742 1_555
F7 Li1 2.004742 1_455
F7 Mn1 2.200741 1_555
F7 Mn2 2.200741 1_455
F8 Li3 1.930393 1_555
F8 Li0 2.016481 1_555
F8 Mn5 2.168543 1_555
F8 Mn3 2.187292 1_554
F9 Li2 1.930393 1_555
F9 Li1 2.016481 1_555
F9 Mn4 2.168543 1_655
F9 Mn2 2.187292 1_555
F10 Li3 1.913184 1_455
F10 Mn2 2.122905 1_455
F10 Mn5 2.159831 1_555
F10 Li0 2.500206 1_555
F11 Li2 1.913184 1_555
F11 Mn3 2.122905 1_555
F11 Mn4 2.159831 1_555
F11 Li1 2.500206 1_455
F12 Li4 1.913184 1_655
F12 Mn4 2.122905 1_655
F12 Mn3 2.159831 1_555
F12 Li7 2.500206 1_555
F13 Li5 1.913184 1_555
F13 Mn5 2.122905 1_555
F13 Mn2 2.159831 1_555
F13 Li6 2.500206 1_655
F14 Li4 1.930393 1_555
F14 Li7 2.016481 1_555
F14 Mn3 2.168543 1_555
F14 Mn5 2.187292 1_556
F15 Li5 1.930393 1_555
F15 Li6 2.016481 1_555
F15 Mn2 2.168543 1_455
F15 Mn4 2.187292 1_555
F16 Li6 2.004742 1_655
F16 Li5 2.004742 1_555
F16 Mn7 2.200741 1_555
F16 Mn4 2.200741 1_655
F17 Li7 2.004742 1_554
F17 Li4 2.004742 1_654
F17 Mn5 2.200741 1_555
F17 Mn6 2.200741 1_655
F18 Mn4 2.124342 1_555
F18 Mn7 2.124342 1_555
F18 Li4 2.301770 1_555
F18 Li7 2.301770 1_555
F19 Mn6 2.124342 1_555
F19 Mn5 2.124342 1_555
F19 Li6 2.301770 1_555
F19 Li5 2.301770 1_555
F20 Li6 1.930393 1_555
F20 Li5 2.016481 1_555
F20 Mn1 2.168543 1_545
F20 Mn7 2.187292 1_555
F21 Li7 1.930393 1_555
F21 Li4 2.016481 1_555
F21 Mn0 2.168543 1_445
F21 Mn6 2.187292 1_556
F22 Li6 1.913184 1_655
F22 Mn6 2.122905 1_655
F22 Mn1 2.159831 1_545
F22 Li5 2.500206 1_555
F23 Li7 1.913184 1_555
F23 Mn7 2.122905 1_555
F23 Mn0 2.159831 1_545
F23 Li4 2.500206 1_655
