# generated using pymatgen
data_Li10Mn5Fe3O16
_symmetry_space_group_name_H-M   'P 1'
_cell_length_a   5.96791100
_cell_length_b   6.03020652
_cell_length_c   10.02190736
_cell_angle_alpha   90.91735023
_cell_angle_beta   90.46842055
_cell_angle_gamma   118.87560980
_symmetry_Int_Tables_number   1
_chemical_formula_structural   Li10Mn5Fe3O16
_chemical_formula_sum   'Li10 Mn5 Fe3 O16'
_cell_volume   315.73164678
_cell_formula_units_Z   1
loop_
 _symmetry_equiv_pos_site_id
 _symmetry_equiv_pos_as_xyz
  1  'x, y, z'
loop_
 _atom_site_type_symbol
 _atom_site_label
 _atom_site_symmetry_multiplicity
 _atom_site_fract_x
 _atom_site_fract_y
 _atom_site_fract_z
 _atom_site_occupancy
  Li  Li0  1  0.20582100  0.39464500  0.06636400  1
  Li  Li1  1  0.68735500  0.34125500  0.77587800  1
  Li  Li2  1  0.81846800  0.18678600  0.56393500  1
  Li  Li3  1  0.40355400  0.18557700  0.56413400  1
  Li  Li4  1  0.35003600  0.67336600  0.27379400  1
  Li  Li5  1  0.21331800  0.81226300  0.05809800  1
  Li  Li6  1  0.80414100  0.60273600  0.55467100  1
  Li  Li7  1  0.61768900  0.79101900  0.05642000  1
  Li  Li8  1  0.01932700  0.99582700  0.47951600  1
  Li  Li9  1  0.01645600  0.01377000  0.98458600  1
  Mn  Mn0  1  0.34569700  0.65973800  0.52325100  1
  Mn  Mn1  1  0.84434800  0.16712500  0.28638100  1
  Mn  Mn2  1  0.68191100  0.33330900  0.02662000  1
  Mn  Mn3  1  0.68175500  0.83664000  0.78469800  1
  Mn  Mn4  1  0.84563500  0.66214800  0.28463400  1
  Fe  Fe0  1  0.18752300  0.34214900  0.78636200  1
  Fe  Fe1  1  0.34941100  0.16688000  0.28629600  1
  Fe  Fe2  1  0.18422400  0.83499500  0.78509900  1
  O  O0  1  0.33232000  0.16119200  0.90294400  1
  O  O1  1  0.16617900  0.31001100  0.39669800  1
  O  O2  1  0.02525700  0.50810800  0.66839700  1
  O  O3  1  0.52446800  0.01646000  0.17372200  1
  O  O4  1  0.84952700  0.16057800  0.89568900  1
  O  O5  1  0.32780400  0.66012300  0.90954600  1
  O  O6  1  0.17990300  0.84313600  0.39013400  1
  O  O7  1  0.51137900  0.50778200  0.67412200  1
  O  O8  1  0.66695100  0.29965300  0.40552800  1
  O  O9  1  0.51605300  0.48687100  0.17627400  1
  O  O10  1  0.51055400  0.98019800  0.67228100  1
  O  O11  1  0.84948300  0.69444100  0.90056200  1
  O  O12  1  0.00326900  0.51750300  0.16421700  1
  O  O13  1  0.69236900  0.80435600  0.40804900  1
  O  O14  1  0.04098900  0.01573500  0.66592600  1
  O  O15  1  0.02609400  0.03279000  0.17091200  1
loop_
_geom_bond_atom_site_label_1
_geom_bond_atom_site_label_2
_geom_bond_distance
_geom_bond_site_symmetry_2
Li0 O12 1.957776 1_555
Li0 O9 1.975602 1_555
Li0 O5 2.129897 1_554
Li0 O15 2.200178 1_555
Li0 O0 2.491366 1_554
Li1 O7 2.045765 1_555
Li1 O2 2.085611 1_655
Li1 O4 2.146351 1_555
Li1 O10 2.150023 1_545
Li1 O11 2.222238 1_555
Li1 O0 2.270777 1_555
Li2 O10 1.993168 1_545
Li2 O2 1.994461 1_655
Li2 O8 2.099212 1_555
Li2 O14 2.281838 1_655
Li2 O1 2.504958 1_655
Li2 O13 2.552359 1_545
Li3 O10 1.977823 1_545
Li3 O7 2.028918 1_555
Li3 O8 2.121859 1_555
Li3 O14 2.168112 1_555
Li3 O1 2.532543 1_555
Li4 O9 2.063574 1_555
Li4 O3 2.091255 1_565
Li4 O12 2.103163 1_555
Li4 O6 2.103204 1_555
Li4 O13 2.229484 1_555
Li4 O1 2.304033 1_555
Li5 O12 1.947352 1_555
Li5 O3 2.004466 1_565
Li5 O5 2.025650 1_554
Li5 O15 2.388040 1_565
Li5 O0 2.455417 1_564
Li5 O11 2.475921 1_454
Li6 O7 1.975734 1_555
Li6 O2 2.022248 1_655
Li6 O8 2.166117 1_555
Li6 O13 2.215137 1_555
Li6 O14 2.434948 1_665
Li7 O9 2.045129 1_555
Li7 O3 2.056604 1_565
Li7 O5 2.094019 1_554
Li7 O11 2.340274 1_554
Li7 O15 2.418971 1_665
Li8 O6 1.846183 1_555
Li8 O13 1.851555 1_455
Li8 O14 1.869523 1_565
Li8 O1 1.872173 1_565
Li9 O4 1.852684 1_455
Li9 O0 1.855580 1_555
Li9 O15 1.867738 1_556
Li9 O11 1.868472 1_445
Mn0 O13 2.168545 1_555
Mn0 O1 2.216736 1_555
Mn0 O10 2.231666 1_555
Mn0 O7 2.235735 1_555
Mn0 O2 2.237945 1_555
Mn0 O6 2.250416 1_555
Mn1 O1 1.997524 1_655
Mn1 O8 1.998148 1_555
Mn1 O3 2.000334 1_555
Mn1 O15 2.002730 1_655
Mn1 O12 2.242550 1_655
Mn1 O13 2.298284 1_545
Mn2 O12 2.159569 1_655
Mn2 O4 2.188927 1_554
Mn2 O0 2.188933 1_554
Mn2 O9 2.225257 1_555
Mn2 O3 2.255178 1_555
Mn2 O11 2.311686 1_554
Mn3 O11 1.981784 1_555
Mn3 O10 1.982237 1_555
Mn3 O4 2.019614 1_565
Mn3 O7 2.039190 1_555
Mn3 O14 2.241900 1_665
Mn3 O5 2.252739 1_555
Mn4 O13 1.960593 1_555
Mn4 O12 1.969659 1_655
Mn4 O9 2.021309 1_555
Mn4 O6 2.028394 1_655
Mn4 O15 2.287155 1_665
Mn4 O8 2.288655 1_555
Fe0 O7 2.050729 1_555
Fe0 O0 2.058543 1_555
Fe0 O5 2.063610 1_555
Fe0 O2 2.071753 1_555
Fe0 O14 2.083305 1_555
Fe0 O4 2.099902 1_455
Fe1 O1 2.016358 1_555
Fe1 O3 2.022080 1_555
Fe1 O6 2.022976 1_545
Fe1 O8 2.031514 1_555
Fe1 O15 2.034893 1_555
Fe1 O9 2.039823 1_555
Fe2 O2 2.062871 1_555
Fe2 O10 2.063635 1_555
Fe2 O14 2.066359 1_565
Fe2 O0 2.067526 1_565
Fe2 O5 2.073419 1_555
Fe2 O11 2.117097 1_455
