# generated using pymatgen
data_Fe5(O4F)2
_symmetry_space_group_name_H-M   'P 1'
_cell_length_a   4.63453000
_cell_length_b   7.58441593
_cell_length_c   9.71754658
_cell_angle_alpha   70.44816875
_cell_angle_beta   88.45641065
_cell_angle_gamma   88.97360311
_symmetry_Int_Tables_number   1
_chemical_formula_structural   Fe5(O4F)2
_chemical_formula_sum   'Fe10 O16 F4'
_cell_volume   321.74714117
_cell_formula_units_Z   2
loop_
 _symmetry_equiv_pos_site_id
 _symmetry_equiv_pos_as_xyz
  1  'x, y, z'
loop_
 _atom_site_type_symbol
 _atom_site_label
 _atom_site_symmetry_multiplicity
 _atom_site_fract_x
 _atom_site_fract_y
 _atom_site_fract_z
 _atom_site_occupancy
  Fe  Fe0  1  0.51244200  0.68555300  0.90305200  1
  Fe  Fe1  1  0.52444200  0.90698900  0.31281700  1
  Fe  Fe2  1  0.51982600  0.10950300  0.69287500  1
  Fe  Fe3  1  0.46303400  0.29007400  0.09294800  1
  Fe  Fe4  1  0.48691000  0.50135800  0.48957800  1
  Fe  Fe5  1  0.01025300  0.39621500  0.80474200  1
  Fe  Fe6  1  0.01863700  0.81035400  0.60812000  1
  Fe  Fe7  1  0.01571900  0.19934500  0.40740400  1
  Fe  Fe8  1  0.99507300  0.59515800  0.19334300  1
  Fe  Fe9  1  0.96102200  0.00449000  0.00035400  1
  O  O0  1  0.20233300  0.23363700  0.98535500  1
  O  O1  1  0.21421200  0.04164600  0.58119900  1
  O  O2  1  0.18045100  0.43798800  0.36899100  1
  O  O3  1  0.19183000  0.63958000  0.77810900  1
  O  O4  1  0.30836400  0.34984900  0.66840100  1
  O  O5  1  0.29489100  0.52604900  0.07884700  1
  O  O6  1  0.30673500  0.14045800  0.27672700  1
  O  O7  1  0.31494600  0.73844000  0.47870500  1
  O  O8  1  0.70257200  0.86018800  0.72379900  1
  O  O9  1  0.69969300  0.27300000  0.51098600  1
  O  O10  1  0.69124600  0.66324700  0.31958300  1
  O  O11  1  0.67613600  0.06580200  0.12778800  1
  O  O12  1  0.68444900  0.44401900  0.92791200  1
  O  O13  1  0.82628600  0.96432800  0.42920800  1
  O  O14  1  0.81304900  0.16365100  0.81951700  1
  O  O15  1  0.80309100  0.75967000  0.02391100  1
  F  F0  1  0.19234000  0.84111200  0.17829700  1
  F  F1  1  0.30167200  0.93986200  0.88309200  1
  F  F2  1  0.80643900  0.56497200  0.61979300  1
  F  F3  1  0.78190900  0.35346300  0.21454500  1
loop_
_geom_bond_atom_site_label_1
_geom_bond_atom_site_label_2
_geom_bond_distance
_geom_bond_site_symmetry_2
Fe0 O12 1.926534 1_555
Fe0 O5 1.991484 1_556
Fe0 O8 1.994962 1_555
Fe0 O15 2.015948 1_556
Fe0 O3 2.050043 1_555
Fe1 O11 1.921108 1_565
Fe1 O7 1.938125 1_555
Fe1 O6 1.953431 1_565
Fe1 O13 1.965083 1_555
Fe1 O10 1.972207 1_555
Fe2 O9 1.961461 1_555
Fe2 O1 1.982786 1_555
Fe2 O8 1.989764 1_545
Fe2 O14 1.994561 1_555
Fe2 O4 1.999576 1_555
Fe3 O0 1.767007 1_554
Fe3 O11 1.885661 1_555
Fe3 O6 1.898711 1_555
Fe3 O5 1.902843 1_555
Fe3 O12 1.920729 1_554
Fe4 O4 1.909168 1_555
Fe4 O7 1.925001 1_555
Fe4 O9 1.929809 1_555
Fe4 O10 1.932115 1_555
Fe4 O2 2.027918 1_555
Fe5 O14 1.961710 1_455
Fe5 O3 1.976419 1_555
Fe5 O4 1.995915 1_555
Fe5 O0 1.997413 1_555
Fe5 O12 2.004362 1_455
Fe6 O3 1.911208 1_555
Fe6 O1 1.924654 1_565
Fe6 O8 1.930802 1_455
Fe6 O13 1.966826 1_455
Fe6 O7 2.025855 1_555
Fe7 O2 1.892123 1_555
Fe7 O9 1.933391 1_455
Fe7 O13 1.945792 1_445
Fe7 O1 1.954823 1_555
Fe7 O6 1.974037 1_555
Fe8 O15 1.929626 1_555
Fe8 O5 1.929861 1_655
Fe8 O2 1.937256 1_655
Fe8 O10 2.014751 1_555
Fe9 O14 1.905521 1_554
Fe9 O11 1.941214 1_555
Fe9 O15 1.947066 1_545
Fe9 O0 2.045420 1_654
F0 Fe8 2.051424 1_455
F0 Fe9 2.071934 1_465
F0 Fe1 2.213698 1_555
F1 Fe9 2.068908 1_466
F1 Fe0 2.098647 1_555
F1 Fe2 2.109138 1_565
F2 Fe5 2.066164 1_655
F2 Fe6 2.088515 1_655
F2 Fe4 2.135904 1_555
F3 Fe8 2.044471 1_555
F3 Fe3 2.076328 1_555
F3 Fe7 2.156526 1_655
