# generated using pymatgen
data_Li3Mn(Si2O5)3
_symmetry_space_group_name_H-M   'P 1'
_cell_length_a   11.19034585
_cell_length_b   11.19034585
_cell_length_c   10.06164400
_cell_angle_alpha   90.00000000
_cell_angle_beta   90.00000000
_cell_angle_gamma   101.20488944
_symmetry_Int_Tables_number   1
_chemical_formula_structural   Li3Mn(Si2O5)3
_chemical_formula_sum   'Li12 Mn4 Si24 O60'
_cell_volume   1235.94111431
_cell_formula_units_Z   4
loop_
 _symmetry_equiv_pos_site_id
 _symmetry_equiv_pos_as_xyz
  1  'x, y, z'
loop_
 _atom_site_type_symbol
 _atom_site_label
 _atom_site_symmetry_multiplicity
 _atom_site_fract_x
 _atom_site_fract_y
 _atom_site_fract_z
 _atom_site_occupancy
  Li  Li0  1  0.23826400  0.23826400  0.00000000  1
  Li  Li1  1  0.48919600  0.01080400  0.25000000  1
  Li  Li2  1  0.01080400  0.48919600  0.75000000  1
  Li  Li3  1  0.26173600  0.26173600  0.50000000  1
  Li  Li4  1  0.06809000  0.93191000  0.77220900  1
  Li  Li5  1  0.56809000  0.43191000  0.72779100  1
  Li  Li6  1  0.43191000  0.56809000  0.27220900  1
  Li  Li7  1  0.93191000  0.06809000  0.22779100  1
  Li  Li8  1  0.73826400  0.73826400  0.50000000  1
  Li  Li9  1  0.51080400  0.98919600  0.75000000  1
  Li  Li10  1  0.98919600  0.51080400  0.25000000  1
  Li  Li11  1  0.76173600  0.76173600  0.00000000  1
  Mn  Mn0  1  0.16021900  0.33978100  0.25000000  1
  Mn  Mn1  1  0.33978100  0.16021900  0.75000000  1
  Mn  Mn2  1  0.83978100  0.66021900  0.75000000  1
  Mn  Mn3  1  0.66021900  0.83978100  0.25000000  1
  Si  Si0  1  0.18823700  0.04033300  0.19726900  1
  Si  Si1  1  0.04033300  0.18823700  0.80273100  1
  Si  Si2  1  0.31176300  0.45966700  0.69726900  1
  Si  Si3  1  0.45966700  0.31176300  0.30273100  1
  Si  Si4  1  0.51987500  0.25973800  0.00768300  1
  Si  Si5  1  0.01987500  0.75973800  0.49231700  1
  Si  Si6  1  0.25973800  0.51987500  0.99231700  1
  Si  Si7  1  0.75973800  0.01987500  0.50768300  1
  Si  Si8  1  0.20069500  0.57988600  0.45759500  1
  Si  Si9  1  0.70069500  0.07988600  0.04240500  1
  Si  Si10  1  0.07988600  0.70069500  0.95759500  1
  Si  Si11  1  0.57988600  0.20069500  0.54240500  1
  Si  Si12  1  0.42011400  0.79930500  0.45759500  1
  Si  Si13  1  0.29930500  0.92011400  0.95759500  1
  Si  Si14  1  0.92011400  0.29930500  0.04240500  1
  Si  Si15  1  0.79930500  0.42011400  0.54240500  1
  Si  Si16  1  0.74026200  0.48012500  0.00768300  1
  Si  Si17  1  0.24026200  0.98012500  0.49231700  1
  Si  Si18  1  0.48012500  0.74026200  0.99231700  1
  Si  Si19  1  0.98012500  0.24026200  0.50768300  1
  Si  Si20  1  0.54033300  0.68823700  0.69726900  1
  Si  Si21  1  0.68823700  0.54033300  0.30273100  1
  Si  Si22  1  0.95966700  0.81176300  0.19726900  1
  Si  Si23  1  0.81176300  0.95966700  0.80273100  1
  O  O0  1  0.28074600  0.00813600  0.08284200  1
  O  O1  1  0.00813600  0.28074600  0.91715800  1
  O  O2  1  0.02842000  0.26065500  0.66243100  1
  O  O3  1  0.26065500  0.02842000  0.33756900  1
  O  O4  1  0.15046800  0.16783800  0.16497200  1
  O  O5  1  0.16783800  0.15046800  0.83502800  1
  O  O6  1  0.25666200  0.09653300  0.58846400  1
  O  O7  1  0.09653300  0.25666200  0.41153600  1
  O  O8  1  0.64555100  0.00974700  0.17300000  1
  O  O9  1  0.00974700  0.64555100  0.82700000  1
  O  O10  1  0.14555100  0.50974700  0.32700000  1
  O  O11  1  0.50974700  0.14555100  0.67300000  1
  O  O12  1  0.24333800  0.40346700  0.08846400  1
  O  O13  1  0.40346700  0.24333800  0.91153600  1
  O  O14  1  0.34953200  0.33216200  0.66497200  1
  O  O15  1  0.33216200  0.34953200  0.33502800  1
  O  O16  1  0.23934500  0.47158000  0.83756900  1
  O  O17  1  0.47158000  0.23934500  0.16243100  1
  O  O18  1  0.49186400  0.21925400  0.41715800  1
  O  O19  1  0.21925400  0.49186400  0.58284200  1
  O  O20  1  0.10929700  0.66346000  0.51938800  1
  O  O21  1  0.16346000  0.60929700  0.01938800  1
  O  O22  1  0.66346000  0.10929700  0.48061200  1
  O  O23  1  0.60929700  0.16346000  0.98061200  1
  O  O24  1  0.60175800  0.39824200  0.98388400  1
  O  O25  1  0.33672400  0.66327600  0.41977600  1
  O  O26  1  0.05938800  0.94061200  0.20338100  1
  O  O27  1  0.16327600  0.83672400  0.91977600  1
  O  O28  1  0.10175800  0.89824200  0.51611600  1
  O  O29  1  0.44061200  0.55938800  0.70338100  1
  O  O30  1  0.39824200  0.60175800  0.01611600  1
  O  O31  1  0.55938800  0.44061200  0.29661900  1
  O  O32  1  0.66327600  0.33672400  0.58022400  1
  O  O33  1  0.94061200  0.05938800  0.79661900  1
  O  O34  1  0.83672400  0.16327600  0.08022400  1
  O  O35  1  0.89824200  0.10175800  0.48388400  1
  O  O36  1  0.89070300  0.33654000  0.48061200  1
  O  O37  1  0.33654000  0.89070300  0.51938800  1
  O  O38  1  0.39070300  0.83654000  0.01938800  1
  O  O39  1  0.83654000  0.39070300  0.98061200  1
  O  O40  1  0.50813600  0.78074600  0.58284200  1
  O  O41  1  0.78074600  0.50813600  0.41715800  1
  O  O42  1  0.52842000  0.76065500  0.83756900  1
  O  O43  1  0.76065500  0.52842000  0.16243100  1
  O  O44  1  0.66783800  0.65046800  0.66497200  1
  O  O45  1  0.65046800  0.66783800  0.33502800  1
  O  O46  1  0.59653300  0.75666200  0.08846400  1
  O  O47  1  0.75666200  0.59653300  0.91153600  1
  O  O48  1  0.35444900  0.99025300  0.82700000  1
  O  O49  1  0.49025300  0.85444900  0.32700000  1
  O  O50  1  0.99025300  0.35444900  0.17300000  1
  O  O51  1  0.85444900  0.49025300  0.67300000  1
  O  O52  1  0.74333800  0.90346700  0.41153600  1
  O  O53  1  0.90346700  0.74333800  0.58846400  1
  O  O54  1  0.84953200  0.83216200  0.83502800  1
  O  O55  1  0.83216200  0.84953200  0.16497200  1
  O  O56  1  0.73934500  0.97158000  0.66243100  1
  O  O57  1  0.97158000  0.73934500  0.33756900  1
  O  O58  1  0.71925400  0.99186400  0.91715800  1
  O  O59  1  0.99186400  0.71925400  0.08284200  1
loop_
_geom_bond_atom_site_label_1
_geom_bond_atom_site_label_2
_geom_bond_distance
_geom_bond_site_symmetry_2
Li0 O4 2.010138 1_555
Li0 O5 2.010138 1_554
Li0 O13 2.042623 1_554
Li0 O12 2.042623 1_555
Li1 O8 1.915659 1_555
Li1 O49 1.915659 1_545
Li2 O9 1.915659 1_555
Li2 O51 1.915659 1_455
Li3 O14 2.010138 1_555
Li3 O15 2.010138 1_555
Li3 O7 2.042623 1_555
Li3 O6 2.042623 1_555
Li4 O27 2.216894 1_555
Li4 O33 2.218359 1_465
Li4 O54 2.562443 1_455
Li4 O5 2.562443 1_565
Li4 O28 2.641690 1_555
Li5 O32 2.216894 1_555
Li5 O29 2.218359 1_555
Li5 O14 2.562443 1_555
Li5 O44 2.562443 1_555
Li5 O24 2.641690 1_555
Li6 O25 2.216894 1_555
Li6 O31 2.218359 1_555
Li6 O15 2.562443 1_555
Li6 O45 2.562443 1_555
Li6 O30 2.641690 1_555
Li7 O34 2.216894 1_555
Li7 O26 2.218359 1_645
Li7 O4 2.562443 1_655
Li7 O55 2.562443 1_545
Li7 O35 2.641690 1_555
Li8 O45 2.010138 1_555
Li8 O44 2.010138 1_555
Li8 O53 2.042623 1_555
Li8 O52 2.042623 1_555
Li9 O11 1.915659 1_565
Li9 O48 1.915659 1_555
Li10 O50 1.915659 1_555
Li10 O10 1.915659 1_655
Li11 O54 2.010138 1_554
Li11 O55 2.010138 1_555
Li11 O46 2.042623 1_555
Li11 O47 2.042623 1_554
Mn0 O7 1.938319 1_555
Mn0 O12 1.938319 1_555
Mn0 O15 2.089114 1_555
Mn0 O4 2.089114 1_555
Mn0 O10 2.089503 1_555
Mn0 O50 2.089503 1_455
Mn1 O6 1.938319 1_555
Mn1 O13 1.938319 1_555
Mn1 O14 2.089114 1_555
Mn1 O5 2.089114 1_555
Mn1 O11 2.089503 1_555
Mn1 O48 2.089503 1_545
Mn2 O53 1.938319 1_555
Mn2 O47 1.938319 1_555
Mn2 O44 2.089114 1_555
Mn2 O54 2.089114 1_555
Mn2 O9 2.089503 1_655
Mn2 O51 2.089503 1_555
Mn3 O52 1.938319 1_555
Mn3 O46 1.938319 1_555
Mn3 O45 2.089114 1_555
Mn3 O55 2.089114 1_555
Mn3 O8 2.089503 1_565
Mn3 O49 2.089503 1_555
O0 Si0 1.634616 1_555
O0 Si13 1.637355 1_544
O1 Si1 1.634616 1_555
O1 Si14 1.637355 1_456
O2 Si1 1.645973 1_555
O2 Si19 1.649403 1_455
O3 Si0 1.645973 1_555
O3 Si17 1.649403 1_545
O4 Si0 1.598257 1_555
O5 Si1 1.598257 1_555
O6 Si17 1.604218 1_545
O7 Si19 1.604218 1_455
O8 Si9 1.592229 1_555
O9 Si10 1.592229 1_555
O10 Si8 1.592229 1_555
O11 Si11 1.592229 1_555
O12 Si6 1.604218 1_554
O13 Si4 1.604218 1_556
O14 Si2 1.598257 1_555
O15 Si3 1.598257 1_555
O16 Si2 1.645973 1_555
O16 Si6 1.649403 1_555
O17 Si3 1.645973 1_555
O17 Si4 1.649403 1_555
O18 Si3 1.634616 1_555
O18 Si11 1.637355 1_555
O19 Si2 1.634616 1_555
O19 Si8 1.637355 1_555
O20 Si5 1.629497 1_555
O20 Si8 1.636767 1_555
O21 Si6 1.629497 1_554
O21 Si10 1.636767 1_554
O22 Si7 1.629497 1_555
O22 Si11 1.636767 1_555
O23 Si4 1.629497 1_556
O23 Si9 1.636767 1_556
O24 Si16 1.657475 1_556
O24 Si4 1.657475 1_556
O25 Si8 1.667534 1_555
O25 Si12 1.667534 1_555
O26 Si0 1.643990 1_565
O26 Si22 1.643990 1_455
O27 Si13 1.667534 1_555
O27 Si10 1.667534 1_555
O28 Si5 1.657475 1_555
O28 Si17 1.657475 1_555
O29 Si20 1.643990 1_555
O29 Si2 1.643990 1_555
O30 Si6 1.657475 1_554
O30 Si18 1.657475 1_554
O31 Si21 1.643990 1_555
O31 Si3 1.643990 1_555
O32 Si11 1.667534 1_555
O32 Si15 1.667534 1_555
O33 Si1 1.643990 1_655
O33 Si23 1.643990 1_545
O34 Si14 1.667534 1_555
O34 Si9 1.667534 1_555
O35 Si7 1.657475 1_555
O35 Si19 1.657475 1_555
O36 Si19 1.629497 1_555
O36 Si15 1.636767 1_555
O37 Si17 1.629497 1_555
O37 Si12 1.636767 1_555
O38 Si18 1.629497 1_554
O38 Si13 1.636767 1_554
O39 Si16 1.629497 1_556
O39 Si14 1.636767 1_556
O40 Si20 1.634616 1_555
O40 Si12 1.637355 1_555
O41 Si21 1.634616 1_555
O41 Si15 1.637355 1_555
O42 Si20 1.645973 1_555
O42 Si18 1.649403 1_555
O43 Si21 1.645973 1_555
O43 Si16 1.649403 1_555
O44 Si20 1.598257 1_555
O45 Si21 1.598257 1_555
O46 Si18 1.604218 1_554
O47 Si16 1.604218 1_556
O48 Si13 1.592229 1_555
O49 Si12 1.592229 1_555
O50 Si14 1.592229 1_555
O51 Si15 1.592229 1_555
O52 Si7 1.604218 1_565
O53 Si5 1.604218 1_655
O54 Si23 1.598257 1_555
O55 Si22 1.598257 1_555
O56 Si23 1.645973 1_555
O56 Si7 1.649403 1_565
O57 Si22 1.645973 1_555
O57 Si5 1.649403 1_655
O58 Si23 1.634616 1_555
O58 Si9 1.637355 1_566
O59 Si22 1.634616 1_555
O59 Si10 1.637355 1_654
