# generated using pymatgen
data_NaHoO2
_symmetry_space_group_name_H-M   'P 1'
_cell_length_a   6.01099233
_cell_length_b   6.01099233
_cell_length_c   6.01099233
_cell_angle_alpha   135.34426687
_cell_angle_beta   135.34426687
_cell_angle_gamma   64.99575473
_symmetry_Int_Tables_number   1
_chemical_formula_structural   NaHoO2
_chemical_formula_sum   'Na2 Ho2 O4'
_cell_volume   105.75246384
_cell_formula_units_Z   2
loop_
 _symmetry_equiv_pos_site_id
 _symmetry_equiv_pos_as_xyz
  1  'x, y, z'
loop_
 _atom_site_type_symbol
 _atom_site_label
 _atom_site_symmetry_multiplicity
 _atom_site_fract_x
 _atom_site_fract_y
 _atom_site_fract_z
 _atom_site_occupancy
  Na  Na0  1  -0.00000000  -0.00000000  0.00000000  1
  Na  Na1  1  0.75000000  0.25000000  0.50000000  1
  Ho  Ho0  1  0.50000000  0.50000000  0.00000000  1
  Ho  Ho1  1  0.25000000  0.75000000  0.50000000  1
  O  O0  1  0.47302350  0.97302350  0.50000000  1
  O  O1  1  0.27697650  0.27697650  -0.00000000  1
  O  O2  1  0.72302350  0.72302350  0.00000000  1
  O  O3  1  0.02697650  0.52697650  0.50000000  1
loop_
_geom_bond_atom_site_label_1
_geom_bond_atom_site_label_2
_geom_bond_distance
_geom_bond_site_symmetry_2
Na0 O0 2.299936 1_444
Na0 O3 2.299936 1_544
Na0 O3 2.299936 1_555
Na0 O0 2.299936 1_545
Na0 O1 2.808397 1_555
Na0 O2 2.808397 1_445
Na1 O1 2.299936 1_555
Na1 O1 2.299936 1_656
Na1 O2 2.299936 1_556
Na1 O2 2.299936 1_545
Na1 O3 2.808397 1_655
Na1 O0 2.808397 1_545
Ho0 O2 2.261342 1_555
Ho0 O1 2.261342 1_555
Ho0 O0 2.299936 1_555
Ho0 O3 2.299936 1_655
Ho0 O3 2.299936 1_554
Ho0 O0 2.299936 1_544
Ho1 O0 2.261342 1_555
Ho1 O3 2.261342 1_555
Ho1 O1 2.299936 1_555
Ho1 O1 2.299936 1_566
Ho1 O2 2.299936 1_455
Ho1 O2 2.299936 1_556
