# generated using pymatgen
data_CoPH4ClO3
_symmetry_space_group_name_H-M   'P 1'
_cell_length_a   7.46609800
_cell_length_b   9.56186400
_cell_length_c   13.40354600
_cell_angle_alpha   90.00000000
_cell_angle_beta   90.00000000
_cell_angle_gamma   90.00000000
_symmetry_Int_Tables_number   1
_chemical_formula_structural   CoPH4ClO3
_chemical_formula_sum   'Co8 P8 H32 Cl8 O24'
_cell_volume   956.87665168
_cell_formula_units_Z   8
loop_
 _symmetry_equiv_pos_site_id
 _symmetry_equiv_pos_as_xyz
  1  'x, y, z'
loop_
 _atom_site_type_symbol
 _atom_site_label
 _atom_site_symmetry_multiplicity
 _atom_site_fract_x
 _atom_site_fract_y
 _atom_site_fract_z
 _atom_site_occupancy
  Co  Co0  1  0.61850800  0.35481400  0.50121200  1
  Co  Co1  1  0.11850800  0.64518600  0.99878800  1
  Co  Co2  1  0.38149200  0.14518600  0.00121200  1
  Co  Co3  1  0.88149200  0.85481400  0.49878800  1
  Co  Co4  1  0.38149200  0.64518600  0.49878800  1
  Co  Co5  1  0.88149200  0.35481400  0.00121200  1
  Co  Co6  1  0.61850800  0.85481400  0.99878800  1
  Co  Co7  1  0.11850800  0.14518600  0.50121200  1
  P  P0  1  0.72507400  0.11014100  0.15144400  1
  P  P1  1  0.22507400  0.88985900  0.34855600  1
  P  P2  1  0.27492600  0.38985900  0.65144400  1
  P  P3  1  0.77492600  0.61014100  0.84855600  1
  P  P4  1  0.27492600  0.88985900  0.84855600  1
  P  P5  1  0.77492600  0.11014100  0.65144400  1
  P  P6  1  0.72507400  0.61014100  0.34855600  1
  P  P7  1  0.22507400  0.38985900  0.15144400  1
  H  H0  1  0.79877700  0.01007200  0.21683300  1
  H  H1  1  0.29877700  0.98992800  0.28316700  1
  H  H2  1  0.20122300  0.48992800  0.71683300  1
  H  H3  1  0.70122300  0.51007200  0.78316700  1
  H  H4  1  0.20122300  0.98992800  0.78316700  1
  H  H5  1  0.70122300  0.01007200  0.71683300  1
  H  H6  1  0.79877700  0.51007200  0.28316700  1
  H  H7  1  0.29877700  0.48992800  0.21683300  1
  H  H8  1  0.63190700  0.20704400  0.21162800  1
  H  H9  1  0.13190700  0.79295600  0.28837200  1
  H  H10  1  0.36809300  0.29295600  0.71162800  1
  H  H11  1  0.86809300  0.70704400  0.78837200  1
  H  H12  1  0.36809300  0.79295600  0.78837200  1
  H  H13  1  0.86809300  0.20704400  0.71162800  1
  H  H14  1  0.63190700  0.70704400  0.28837200  1
  H  H15  1  0.13190700  0.29295600  0.21162800  1
  H  H16  1  0.07152200  0.07689400  0.08888000  1
  H  H17  1  0.57152200  0.92310600  0.41112000  1
  H  H18  1  0.92847800  0.42310600  0.58888000  1
  H  H19  1  0.42847800  0.57689400  0.91112000  1
  H  H20  1  0.92847800  0.92310600  0.91112000  1
  H  H21  1  0.42847800  0.07689400  0.58888000  1
  H  H22  1  0.07152200  0.57689400  0.41112000  1
  H  H23  1  0.57152200  0.42310600  0.08888000  1
  H  H24  1  0.20616000  0.94326800  0.09473800  1
  H  H25  1  0.70616000  0.05673200  0.40526200  1
  H  H26  1  0.79384000  0.55673200  0.59473800  1
  H  H27  1  0.29384000  0.44326800  0.90526200  1
  H  H28  1  0.79384000  0.05673200  0.90526200  1
  H  H29  1  0.29384000  0.94326800  0.59473800  1
  H  H30  1  0.20616000  0.44326800  0.40526200  1
  H  H31  1  0.70616000  0.55673200  0.09473800  1
  Cl  Cl0  1  0.37524100  0.23775000  0.40094900  1
  Cl  Cl1  1  0.87524100  0.76225000  0.09905100  1
  Cl  Cl2  1  0.62475900  0.26225000  0.90094900  1
  Cl  Cl3  1  0.12475900  0.73775000  0.59905100  1
  Cl  Cl4  1  0.62475900  0.76225000  0.59905100  1
  Cl  Cl5  1  0.12475900  0.23775000  0.90094900  1
  Cl  Cl6  1  0.37524100  0.73775000  0.09905100  1
  Cl  Cl7  1  0.87524100  0.26225000  0.40094900  1
  O  O0  1  0.58443800  0.03643400  0.08564200  1
  O  O1  1  0.08443800  0.96356600  0.41435800  1
  O  O2  1  0.41556200  0.46356600  0.58564200  1
  O  O3  1  0.91556200  0.53643400  0.91435800  1
  O  O4  1  0.41556200  0.96356600  0.91435800  1
  O  O5  1  0.91556200  0.03643400  0.58564200  1
  O  O6  1  0.58443800  0.53643400  0.41435800  1
  O  O7  1  0.08443800  0.46356600  0.08564200  1
  O  O8  1  0.19809700  0.04584100  0.09554500  1
  O  O9  1  0.69809700  0.95415900  0.40445500  1
  O  O10  1  0.80190300  0.45415900  0.59554500  1
  O  O11  1  0.30190300  0.54584100  0.90445500  1
  O  O12  1  0.80190300  0.95415900  0.90445500  1
  O  O13  1  0.30190300  0.04584100  0.59554500  1
  O  O14  1  0.19809700  0.54584100  0.40445500  1
  O  O15  1  0.69809700  0.45415900  0.09554500  1
  O  O16  1  0.88045100  0.18094800  0.09616100  1
  O  O17  1  0.38045100  0.81905200  0.40383900  1
  O  O18  1  0.11954900  0.31905200  0.59616100  1
  O  O19  1  0.61954900  0.68094800  0.90383900  1
  O  O20  1  0.11954900  0.81905200  0.90383900  1
  O  O21  1  0.61954900  0.18094800  0.59616100  1
  O  O22  1  0.88045100  0.68094800  0.40383900  1
  O  O23  1  0.38045100  0.31905200  0.09616100  1
loop_
_geom_bond_atom_site_label_1
_geom_bond_atom_site_label_2
_geom_bond_distance
_geom_bond_site_symmetry_2
Co0 O10 2.091862 1_555
Co0 O21 2.093695 1_555
Co0 O6 2.106139 1_555
Co0 O2 2.158209 1_555
Co1 O11 2.091862 1_555
Co1 O20 2.093695 1_555
Co1 O7 2.106139 1_556
Co1 O3 2.158209 1_455
Co2 O8 2.091862 1_555
Co2 O23 2.093695 1_555
Co2 O4 2.106139 1_544
Co2 O0 2.158209 1_555
Co3 O9 2.091862 1_555
Co3 O22 2.093695 1_555
Co3 O5 2.106139 1_565
Co3 O1 2.158209 1_655
Co4 O14 2.091862 1_555
Co4 O17 2.093695 1_555
Co4 O2 2.106139 1_555
Co4 O6 2.158209 1_555
Co5 O15 2.091862 1_555
Co5 O16 2.093695 1_555
Co5 O3 2.106139 1_554
Co5 O7 2.158209 1_655
Co6 O12 2.091862 1_555
Co6 O19 2.093695 1_555
Co6 O0 2.106139 1_566
Co6 O4 2.158209 1_555
Co7 O13 2.091862 1_555
Co7 O18 2.093695 1_555
Co7 O1 2.106139 1_545
Co7 O5 2.158209 1_455
H0 P0 1.409436 1_555
H1 P1 1.409436 1_555
H2 P2 1.409436 1_555
H3 P3 1.409436 1_555
H4 P4 1.409436 1_555
H5 P5 1.409436 1_555
H6 P6 1.409436 1_555
H7 P7 1.409436 1_555
H8 P0 1.411779 1_555
H9 P1 1.411779 1_555
H10 P2 1.411779 1_555
H11 P3 1.411779 1_555
H12 P4 1.411779 1_555
H13 P5 1.411779 1_555
H14 P6 1.411779 1_555
H15 P7 1.411779 1_555
H16 O8 0.994590 1_555
H16 O16 1.741984 1_455
H17 O9 0.994590 1_555
H17 O17 1.741984 1_555
H18 O10 0.994590 1_555
H18 O18 1.741984 1_655
H19 O11 0.994590 1_555
H19 O19 1.741984 1_555
H20 O12 0.994590 1_555
H20 O20 1.741984 1_655
H21 O13 0.994590 1_555
H21 O21 1.741984 1_555
H22 O14 0.994590 1_555
H22 O22 1.741984 1_455
H23 O15 0.994590 1_555
H23 O23 1.741984 1_555
H24 O8 0.982694 1_565
H25 O9 0.982694 1_545
H26 O10 0.982694 1_555
H27 O11 0.982694 1_555
H28 O12 0.982694 1_545
H29 O13 0.982694 1_565
H30 O14 0.982694 1_555
H31 O15 0.982694 1_555
Cl0 Co7 2.502696 1_555
Cl0 Co0 2.521456 1_555
Cl1 Co6 2.502696 1_554
Cl1 Co1 2.521456 1_654
Cl2 Co5 2.502696 1_556
Cl2 Co2 2.521456 1_556
Cl3 Co4 2.502696 1_555
Cl3 Co3 2.521456 1_455
Cl4 Co3 2.502696 1_555
Cl4 Co4 2.521456 1_555
Cl5 Co2 2.502696 1_556
Cl5 Co5 2.521456 1_456
Cl6 Co1 2.502696 1_554
Cl6 Co6 2.521456 1_554
Cl7 Co0 2.502696 1_555
Cl7 Co7 2.521456 1_655
O0 P0 1.541786 1_555
O1 P1 1.541786 1_555
O2 P2 1.541786 1_555
O3 P3 1.541786 1_555
O4 P4 1.541786 1_555
O5 P5 1.541786 1_555
O6 P6 1.541786 1_555
O7 P7 1.541786 1_555
O16 P0 1.534013 1_555
O17 P1 1.534013 1_555
O18 P2 1.534013 1_555
O19 P3 1.534013 1_555
O20 P4 1.534013 1_555
O21 P5 1.534013 1_555
O22 P6 1.534013 1_555
O23 P7 1.534013 1_555
