# generated using pymatgen
data_Ca11Tl9O24
_symmetry_space_group_name_H-M   'P 1'
_cell_length_a   6.75746600
_cell_length_b   11.38991100
_cell_length_c   16.84262786
_cell_angle_alpha   89.85111868
_cell_angle_beta   90.00000000
_cell_angle_gamma   90.00000000
_symmetry_Int_Tables_number   1
_chemical_formula_structural   Ca11Tl9O24
_chemical_formula_sum   'Ca22 Tl18 O48'
_cell_volume   1296.32108972
_cell_formula_units_Z   2
loop_
 _symmetry_equiv_pos_site_id
 _symmetry_equiv_pos_as_xyz
  1  'x, y, z'
loop_
 _atom_site_type_symbol
 _atom_site_label
 _atom_site_symmetry_multiplicity
 _atom_site_fract_x
 _atom_site_fract_y
 _atom_site_fract_z
 _atom_site_occupancy
  Ca  Ca0  1  0.75000000  0.89640200  0.14135200  1
  Ca  Ca1  1  0.25000000  0.89449600  0.14486700  1
  Ca  Ca2  1  0.25000000  0.86601300  0.54133000  1
  Ca  Ca3  1  0.75000000  0.86540600  0.54092900  1
  Ca  Ca4  1  0.75000000  0.83099000  0.77590000  1
  Ca  Ca5  1  0.25000000  0.83114900  0.77639000  1
  Ca  Ca6  1  0.75000000  0.66890100  0.27529700  1
  Ca  Ca7  1  0.75000000  0.63356900  0.04068500  1
  Ca  Ca8  1  0.25000000  0.63517200  0.03974500  1
  Ca  Ca9  1  0.75000000  0.60684900  0.64792100  1
  Ca  Ca10  1  0.25000000  0.60914900  0.64779500  1
  Ca  Ca11  1  0.75000000  0.39085100  0.35220500  1
  Ca  Ca12  1  0.25000000  0.39315100  0.35207900  1
  Ca  Ca13  1  0.75000000  0.36482800  0.96025500  1
  Ca  Ca14  1  0.25000000  0.36643100  0.95931500  1
  Ca  Ca15  1  0.25000000  0.33109900  0.72470300  1
  Ca  Ca16  1  0.75000000  0.16885100  0.22361000  1
  Ca  Ca17  1  0.25000000  0.16901000  0.22410000  1
  Ca  Ca18  1  0.75000000  0.13398700  0.45867000  1
  Ca  Ca19  1  0.25000000  0.13459400  0.45907100  1
  Ca  Ca20  1  0.75000000  0.10550400  0.85513300  1
  Ca  Ca21  1  0.25000000  0.10359800  0.85864800  1
  Tl  Tl0  1  0.99943800  0.91704300  0.35378700  1
  Tl  Tl1  1  0.50056200  0.91704300  0.35378700  1
  Tl  Tl2  1  0.50032200  0.86510000  0.95464100  1
  Tl  Tl3  1  0.99967800  0.86510000  0.95464100  1
  Tl  Tl4  1  0.25000000  0.66990900  0.27339800  1
  Tl  Tl5  1  0.99930800  0.63487800  0.45615400  1
  Tl  Tl6  1  0.50069200  0.63487800  0.45615400  1
  Tl  Tl7  1  0.00127100  0.58579700  0.85235600  1
  Tl  Tl8  1  0.49872900  0.58579700  0.85235600  1
  Tl  Tl9  1  0.99872900  0.41420300  0.14764400  1
  Tl  Tl10  1  0.50127100  0.41420300  0.14764400  1
  Tl  Tl11  1  0.00069200  0.36512200  0.54384600  1
  Tl  Tl12  1  0.49930800  0.36512200  0.54384600  1
  Tl  Tl13  1  0.75000000  0.33009100  0.72660200  1
  Tl  Tl14  1  0.00032200  0.13490000  0.04535900  1
  Tl  Tl15  1  0.49967800  0.13490000  0.04535900  1
  Tl  Tl16  1  0.00056200  0.08295700  0.64621300  1
  Tl  Tl17  1  0.49943800  0.08295700  0.64621300  1
  O  O0  1  0.75000000  0.99971300  0.00079000  1
  O  O1  1  0.25000000  0.00028700  0.99921000  1
  O  O2  1  0.00000000  0.00000000  0.50000000  1
  O  O3  1  0.50000000  0.00000000  0.50000000  1
  O  O4  1  0.25000000  0.95562500  0.66622800  1
  O  O5  1  0.75000000  0.95637200  0.66591700  1
  O  O6  1  0.00000500  0.95088700  0.83949400  1
  O  O7  1  0.49999500  0.95088700  0.83949400  1
  O  O8  1  0.49595900  0.80570800  0.24115400  1
  O  O9  1  0.00404100  0.80570800  0.24115400  1
  O  O10  1  0.75000000  0.78088500  0.40560300  1
  O  O11  1  0.25000000  0.77846500  0.40364100  1
  O  O12  1  0.50063700  0.78039200  0.06958100  1
  O  O13  1  0.99936300  0.78039200  0.06958100  1
  O  O14  1  0.00070600  0.72084900  0.57056200  1
  O  O15  1  0.49929400  0.72084900  0.57056200  1
  O  O16  1  0.75000000  0.71785400  0.90569600  1
  O  O17  1  0.25000000  0.72029400  0.90641600  1
  O  O18  1  0.00024900  0.69361400  0.74000800  1
  O  O19  1  0.49975100  0.69361400  0.74000800  1
  O  O20  1  0.00243400  0.55181000  0.33919600  1
  O  O21  1  0.49756600  0.55181000  0.33919600  1
  O  O22  1  0.75000000  0.54335200  0.16653700  1
  O  O23  1  0.25000000  0.54654200  0.16724400  1
  O  O24  1  0.00000000  0.50000000  0.00000000  1
  O  O25  1  0.50000000  0.50000000  0.00000000  1
  O  O26  1  0.75000000  0.49952600  0.49877800  1
  O  O27  1  0.25000000  0.50047400  0.50122200  1
  O  O28  1  0.75000000  0.45345800  0.83275600  1
  O  O29  1  0.25000000  0.45664800  0.83346300  1
  O  O30  1  0.99756600  0.44819000  0.66080400  1
  O  O31  1  0.50243400  0.44819000  0.66080400  1
  O  O32  1  0.99975100  0.30638600  0.25999200  1
  O  O33  1  0.50024900  0.30638600  0.25999200  1
  O  O34  1  0.75000000  0.27970600  0.09358400  1
  O  O35  1  0.25000000  0.28214600  0.09430400  1
  O  O36  1  0.99929400  0.27915100  0.42943800  1
  O  O37  1  0.50070600  0.27915100  0.42943800  1
  O  O38  1  0.00063700  0.21960800  0.93041900  1
  O  O39  1  0.49936300  0.21960800  0.93041900  1
  O  O40  1  0.75000000  0.22153500  0.59635900  1
  O  O41  1  0.25000000  0.21911500  0.59439700  1
  O  O42  1  0.99595900  0.19429200  0.75884600  1
  O  O43  1  0.50404100  0.19429200  0.75884600  1
  O  O44  1  0.99999500  0.04911300  0.16050600  1
  O  O45  1  0.50000500  0.04911300  0.16050600  1
  O  O46  1  0.75000000  0.04437500  0.33377200  1
  O  O47  1  0.25000000  0.04362800  0.33408300  1
loop_
_geom_bond_atom_site_label_1
_geom_bond_atom_site_label_2
_geom_bond_distance
_geom_bond_site_symmetry_2
Ca0 O45 2.446676 1_565
Ca0 O44 2.446676 1_565
Ca0 O12 2.460673 1_555
Ca0 O13 2.460673 1_555
Ca0 O9 2.613531 1_655
Ca0 O8 2.613531 1_555
Ca0 O0 2.641002 1_555
Ca1 O44 2.455045 1_465
Ca1 O45 2.455045 1_565
Ca1 O13 2.484753 1_455
Ca1 O12 2.484753 1_555
Ca1 O9 2.531130 1_555
Ca1 O8 2.531130 1_555
Ca1 O1 2.730378 1_564
Ca2 O4 2.340536 1_555
Ca2 O2 2.379492 1_565
Ca2 O3 2.379492 1_565
Ca2 O14 2.410349 1_555
Ca2 O15 2.410349 1_555
Ca2 O11 2.526721 1_555
Ca3 O5 2.348698 1_555
Ca3 O3 2.381975 1_565
Ca3 O2 2.381975 1_665
Ca3 O15 2.413682 1_555
Ca3 O14 2.413682 1_655
Ca3 O10 2.476515 1_555
Ca4 O5 2.336041 1_555
Ca4 O18 2.382916 1_655
Ca4 O19 2.382916 1_555
Ca4 O7 2.423596 1_555
Ca4 O6 2.423596 1_655
Ca4 O16 2.534745 1_555
Ca5 O4 2.332161 1_555
Ca5 O18 2.383843 1_555
Ca5 O19 2.383843 1_555
Ca5 O6 2.418877 1_555
Ca5 O7 2.418877 1_555
Ca5 O17 2.525049 1_555
Ca6 O22 2.326800 1_555
Ca6 O9 2.387687 1_655
Ca6 O8 2.387687 1_555
Ca6 O20 2.416453 1_655
Ca6 O21 2.416453 1_555
Ca6 O10 2.541280 1_555
Ca7 O22 2.353211 1_555
Ca7 O25 2.375585 1_555
Ca7 O24 2.375585 1_655
Ca7 O13 2.424276 1_555
Ca7 O12 2.424276 1_555
Ca7 O16 2.465638 1_554
Ca8 O23 2.370486 1_555
Ca8 O24 2.382810 1_555
Ca8 O25 2.382810 1_555
Ca8 O12 2.420996 1_555
Ca8 O13 2.420996 1_455
Ca8 O17 2.443654 1_554
Ca9 O31 2.471711 1_555
Ca9 O30 2.471711 1_555
Ca9 O15 2.498981 1_555
Ca9 O14 2.498981 1_655
Ca9 O18 2.499961 1_655
Ca9 O19 2.499961 1_555
Ca9 O26 2.796455 1_555
Ca10 O14 2.477900 1_555
Ca10 O15 2.477900 1_555
Ca10 O18 2.488720 1_555
Ca10 O19 2.488720 1_555
Ca10 O31 2.513313 1_555
Ca10 O30 2.513313 1_455
Ca10 O27 2.764485 1_555
Ca11 O36 2.477900 1_555
Ca11 O37 2.477900 1_555
Ca11 O32 2.488720 1_555
Ca11 O33 2.488720 1_555
Ca11 O21 2.513313 1_555
Ca11 O20 2.513313 1_655
Ca11 O26 2.764485 1_555
Ca12 O21 2.471711 1_555
Ca12 O20 2.471711 1_555
Ca12 O36 2.498981 1_455
Ca12 O37 2.498981 1_555
Ca12 O33 2.499961 1_555
Ca12 O32 2.499961 1_455
Ca12 O27 2.796455 1_555
Ca13 O28 2.370486 1_555
Ca13 O25 2.382810 1_556
Ca13 O24 2.382810 1_656
Ca13 O39 2.420996 1_555
Ca13 O38 2.420996 1_655
Ca13 O34 2.443654 1_556
Ca14 O29 2.353211 1_555
Ca14 O25 2.375585 1_556
Ca14 O24 2.375585 1_556
Ca14 O38 2.424276 1_555
Ca14 O39 2.424276 1_555
Ca14 O35 2.465638 1_556
Ca15 O29 2.326800 1_555
Ca15 O43 2.387687 1_555
Ca15 O42 2.387687 1_455
Ca15 O30 2.416453 1_455
Ca15 O31 2.416453 1_555
Ca15 O41 2.541280 1_555
Ca16 O46 2.332161 1_555
Ca16 O32 2.383843 1_555
Ca16 O33 2.383843 1_555
Ca16 O44 2.418877 1_555
Ca16 O45 2.418877 1_555
Ca16 O34 2.525049 1_555
Ca17 O47 2.336041 1_555
Ca17 O33 2.382916 1_555
Ca17 O32 2.382916 1_455
Ca17 O45 2.423596 1_555
Ca17 O44 2.423596 1_455
Ca17 O35 2.534745 1_555
Ca18 O46 2.340536 1_555
Ca18 O2 2.379492 1_655
Ca18 O3 2.379492 1_555
Ca18 O37 2.410349 1_555
Ca18 O36 2.410349 1_555
Ca18 O40 2.526721 1_555
Ca19 O47 2.348698 1_555
Ca19 O2 2.381975 1_555
Ca19 O3 2.381975 1_555
Ca19 O36 2.413682 1_455
Ca19 O37 2.413682 1_555
Ca19 O41 2.476515 1_555
Ca20 O7 2.455045 1_545
Ca20 O6 2.455045 1_645
Ca20 O38 2.484753 1_655
Ca20 O39 2.484753 1_555
Ca20 O43 2.531130 1_555
Ca20 O42 2.531130 1_555
Ca20 O0 2.730378 1_546
Ca21 O6 2.446676 1_545
Ca21 O7 2.446676 1_545
Ca21 O38 2.460673 1_555
Ca21 O39 2.460673 1_555
Ca21 O43 2.613531 1_555
Ca21 O42 2.613531 1_455
Ca21 O1 2.641002 1_555
O0 Tl14 2.408671 1_665
O0 Tl15 2.408671 1_565
O0 Tl3 2.409927 1_554
O0 Tl2 2.409927 1_554
O1 Tl2 2.408671 1_545
O1 Tl3 2.408671 1_445
O1 Tl15 2.409927 1_556
O1 Tl14 2.409927 1_556
O2 Tl0 2.639952 1_445
O2 Tl16 2.639952 1_555
O3 Tl1 2.639952 1_545
O3 Tl17 2.639952 1_555
O4 Tl16 2.248469 1_565
O4 Tl17 2.248469 1_565
O5 Tl16 2.247936 1_665
O5 Tl17 2.247936 1_565
O6 Tl3 2.169350 1_455
O7 Tl2 2.169350 1_555
O8 Tl1 2.284793 1_555
O8 Tl4 2.333539 1_555
O9 Tl0 2.284793 1_455
O9 Tl4 2.333539 1_555
O10 Tl0 2.449655 1_555
O10 Tl1 2.449655 1_555
O10 Tl5 2.514223 1_555
O10 Tl6 2.514223 1_555
O11 Tl0 2.460952 1_455
O11 Tl1 2.460952 1_555
O11 Tl5 2.513802 1_455
O11 Tl6 2.513802 1_555
O11 Tl4 2.520897 1_555
O12 Tl2 2.160751 1_554
O13 Tl3 2.160751 1_554
O14 Tl5 2.163746 1_455
O15 Tl6 2.163746 1_555
O16 Tl7 2.441217 1_655
O16 Tl8 2.441217 1_555
O16 Tl2 2.519146 1_555
O16 Tl3 2.519146 1_555
O17 Tl7 2.451130 1_555
O17 Tl8 2.451130 1_555
O17 Tl2 2.499657 1_555
O17 Tl3 2.499657 1_455
O18 Tl7 2.253126 1_555
O19 Tl8 2.253126 1_555
O20 Tl5 2.187632 1_455
O20 Tl4 2.414215 1_555
O21 Tl6 2.187632 1_555
O21 Tl4 2.414215 1_555
O22 Tl10 2.256664 1_555
O22 Tl9 2.256664 1_555
O23 Tl4 2.276862 1_555
O23 Tl9 2.294920 1_455
O23 Tl10 2.294920 1_555
O24 Tl7 2.669484 1_554
O24 Tl9 2.669484 1_455
O25 Tl8 2.669484 1_554
O25 Tl10 2.669484 1_555
O26 Tl5 2.392590 1_555
O26 Tl6 2.392590 1_555
O26 Tl11 2.404874 1_655
O26 Tl12 2.404874 1_555
O27 Tl12 2.392590 1_555
O27 Tl11 2.392590 1_555
O27 Tl6 2.404874 1_555
O27 Tl5 2.404874 1_455
O28 Tl13 2.276862 1_555
O28 Tl7 2.294920 1_655
O28 Tl8 2.294920 1_555
O29 Tl8 2.256664 1_555
O29 Tl7 2.256664 1_555
O30 Tl11 2.187632 1_655
O30 Tl13 2.414215 1_555
O31 Tl12 2.187632 1_555
O31 Tl13 2.414215 1_555
O32 Tl9 2.253126 1_555
O33 Tl10 2.253126 1_555
O34 Tl10 2.451130 1_555
O34 Tl9 2.451130 1_555
O34 Tl14 2.499657 1_655
O34 Tl15 2.499657 1_555
O35 Tl10 2.441217 1_555
O35 Tl9 2.441217 1_455
O35 Tl14 2.519146 1_555
O35 Tl15 2.519146 1_555
O36 Tl11 2.163746 1_655
O37 Tl12 2.163746 1_555
O38 Tl14 2.160751 1_556
O39 Tl15 2.160751 1_556
O40 Tl16 2.460952 1_655
O40 Tl17 2.460952 1_555
O40 Tl11 2.513802 1_655
O40 Tl12 2.513802 1_555
O40 Tl13 2.520897 1_555
O41 Tl17 2.449655 1_555
O41 Tl16 2.449655 1_555
O41 Tl11 2.514223 1_555
O41 Tl12 2.514223 1_555
O42 Tl16 2.284793 1_655
O42 Tl13 2.333539 1_555
O43 Tl17 2.284793 1_555
O43 Tl13 2.333539 1_555
O44 Tl14 2.169350 1_655
O45 Tl15 2.169350 1_555
O46 Tl1 2.248469 1_545
O46 Tl0 2.248469 1_545
O47 Tl0 2.247936 1_445
O47 Tl1 2.247936 1_545
