# generated using pymatgen
data_Li2Cr3NiO8
_symmetry_space_group_name_H-M   'P 1'
_cell_length_a   5.82798023
_cell_length_b   5.82798023
_cell_length_c   9.63609500
_cell_angle_alpha   90.00000000
_cell_angle_beta   90.00000000
_cell_angle_gamma   120.00000263
_symmetry_Int_Tables_number   1
_chemical_formula_structural   Li2Cr3NiO8
_chemical_formula_sum   'Li4 Cr6 Ni2 O16'
_cell_volume   283.44436869
_cell_formula_units_Z   2
loop_
 _symmetry_equiv_pos_site_id
 _symmetry_equiv_pos_as_xyz
  1  'x, y, z'
loop_
 _atom_site_type_symbol
 _atom_site_label
 _atom_site_symmetry_multiplicity
 _atom_site_fract_x
 _atom_site_fract_y
 _atom_site_fract_z
 _atom_site_occupancy
  Li  Li0  1  0.33333300  0.66666700  0.89358700  1
  Li  Li1  1  0.00000000  0.00000000  0.99788600  1
  Li  Li2  1  0.00000000  0.00000000  0.49788600  1
  Li  Li3  1  0.66666700  0.33333300  0.39358700  1
  Cr  Cr0  1  0.16861500  0.83138500  0.21381600  1
  Cr  Cr1  1  0.16861500  0.33722900  0.21381600  1
  Cr  Cr2  1  0.66277100  0.83138500  0.21381600  1
  Cr  Cr3  1  0.33722900  0.16861500  0.71381600  1
  Cr  Cr4  1  0.83138500  0.66277100  0.71381600  1
  Cr  Cr5  1  0.83138500  0.16861500  0.71381600  1
  Ni  Ni0  1  0.33333300  0.66666700  0.49000700  1
  Ni  Ni1  1  0.66666700  0.33333300  0.99000700  1
  O  O0  1  0.15967100  0.84032900  0.61027300  1
  O  O1  1  0.03825400  0.51912700  0.32743100  1
  O  O2  1  0.33333300  0.66666700  0.10264300  1
  O  O3  1  0.00000000  0.00000000  0.31533400  1
  O  O4  1  0.00000000  0.00000000  0.81533400  1
  O  O5  1  0.15967100  0.31934100  0.61027300  1
  O  O6  1  0.48087300  0.96174600  0.32743100  1
  O  O7  1  0.48087300  0.51912700  0.32743100  1
  O  O8  1  0.31934100  0.15967100  0.11027300  1
  O  O9  1  0.68065900  0.84032900  0.61027300  1
  O  O10  1  0.51912700  0.48087300  0.82743100  1
  O  O11  1  0.51912700  0.03825400  0.82743100  1
  O  O12  1  0.66666700  0.33333300  0.60264300  1
  O  O13  1  0.84032900  0.68065900  0.11027300  1
  O  O14  1  0.96174600  0.48087300  0.82743100  1
  O  O15  1  0.84032900  0.15967100  0.11027300  1
loop_
_geom_bond_atom_site_label_1
_geom_bond_atom_site_label_2
_geom_bond_distance
_geom_bond_site_symmetry_2
Li0 O14 1.980848 1_455
Li0 O11 1.980848 1_565
Li0 O10 1.980853 1_555
Li0 O2 2.014483 1_556
Li1 O4 1.759088 1_555
Li1 O8 1.941812 1_556
Li1 O13 1.941812 1_446
Li1 O15 1.941816 1_456
Li2 O3 1.759088 1_555
Li2 O9 1.941812 1_445
Li2 O5 1.941812 1_555
Li2 O0 1.941816 1_545
Li3 O6 1.980848 1_545
Li3 O1 1.980848 1_655
Li3 O7 1.980853 1_555
Li3 O12 2.014483 1_555
Cr0 O6 1.924837 1_555
Cr0 O1 1.924837 1_555
Cr0 O8 1.935716 1_565
Cr0 O13 1.935716 1_455
Cr0 O3 1.963150 1_565
Cr0 O2 1.977947 1_555
Cr1 O7 1.924837 1_555
Cr1 O1 1.924841 1_555
Cr1 O8 1.935707 1_555
Cr1 O15 1.935716 1_455
Cr1 O3 1.963145 1_555
Cr1 O2 1.977955 1_555
Cr2 O7 1.924837 1_555
Cr2 O6 1.924841 1_555
Cr2 O13 1.935707 1_555
Cr2 O15 1.935716 1_565
Cr2 O3 1.963145 1_665
Cr2 O2 1.977955 1_555
Cr3 O10 1.924837 1_555
Cr3 O11 1.924841 1_555
Cr3 O5 1.935707 1_555
Cr3 O0 1.935716 1_545
Cr3 O4 1.963145 1_555
Cr3 O12 1.977955 1_555
Cr4 O10 1.924837 1_555
Cr4 O14 1.924841 1_555
Cr4 O9 1.935707 1_555
Cr4 O0 1.935716 1_655
Cr4 O4 1.963145 1_665
Cr4 O12 1.977955 1_555
Cr5 O11 1.924837 1_555
Cr5 O14 1.924837 1_555
Cr5 O5 1.935716 1_655
Cr5 O9 1.935716 1_545
Cr5 O4 1.963150 1_655
Cr5 O12 1.977947 1_555
Ni0 O0 2.101444 1_555
Ni0 O5 2.101453 1_555
Ni0 O9 2.101453 1_555
Ni0 O6 2.161549 1_555
Ni0 O1 2.161549 1_555
Ni0 O7 2.161552 1_555
Ni1 O15 2.101444 1_556
Ni1 O13 2.101453 1_556
Ni1 O8 2.101453 1_556
Ni1 O11 2.161549 1_555
Ni1 O14 2.161549 1_555
Ni1 O10 2.161552 1_555
