# generated using pymatgen
data_ZnH6C2(NO)4
_symmetry_space_group_name_H-M   'P 1'
_cell_length_a   5.20365200
_cell_length_b   6.95075100
_cell_length_c   9.35014566
_cell_angle_alpha   67.62748004
_cell_angle_beta   90.00000000
_cell_angle_gamma   90.00000000
_symmetry_Int_Tables_number   1
_chemical_formula_structural   ZnH6C2(NO)4
_chemical_formula_sum   'Zn2 H12 C4 N8 O8'
_cell_volume   312.73226257
_cell_formula_units_Z   2
loop_
 _symmetry_equiv_pos_site_id
 _symmetry_equiv_pos_as_xyz
  1  'x, y, z'
loop_
 _atom_site_type_symbol
 _atom_site_label
 _atom_site_symmetry_multiplicity
 _atom_site_fract_x
 _atom_site_fract_y
 _atom_site_fract_z
 _atom_site_occupancy
  Zn  Zn0  1  0.20410900  0.00373600  0.74963600  1
  Zn  Zn1  1  0.79589100  0.00373600  0.24963600  1
  H  H0  1  0.05844300  0.50085700  0.09392500  1
  H  H1  1  0.94155700  0.50085700  0.59392500  1
  H  H2  1  0.96478200  0.64848000  0.80456800  1
  H  H3  1  0.03521800  0.64848000  0.30456800  1
  H  H4  1  0.82239700  0.76723800  0.90903600  1
  H  H5  1  0.17760300  0.76723800  0.40903600  1
  H  H6  1  0.41752800  0.37135200  0.34363300  1
  H  H7  1  0.58247200  0.37135200  0.84363300  1
  H  H8  1  0.60720200  0.07701300  0.55626000  1
  H  H9  1  0.39279800  0.07701300  0.05626000  1
  H  H10  1  0.56643000  0.28099900  0.60641300  1
  H  H11  1  0.43357000  0.28099900  0.10641300  1
  C  C0  1  0.37989800  0.68894400  0.02880900  1
  C  C1  1  0.62010200  0.68894400  0.52880900  1
  C  C2  1  0.10609400  0.17222900  0.42558900  1
  C  C3  1  0.89390600  0.17222900  0.92558900  1
  N  N0  1  0.14862200  0.61011000  0.00127300  1
  N  N1  1  0.85137800  0.61011000  0.50127300  1
  N  N2  1  0.99775300  0.73047900  0.87344600  1
  N  N3  1  0.00224700  0.73047900  0.37344600  1
  N  N4  1  0.32550500  0.27215500  0.44180500  1
  N  N5  1  0.67449500  0.27215500  0.94180500  1
  N  N6  1  0.47120500  0.17103200  0.57792700  1
  N  N7  1  0.52879500  0.17103200  0.07792700  1
  O  O0  1  0.46814800  0.85656400  0.92130200  1
  O  O1  1  0.53185200  0.85656400  0.42130200  1
  O  O2  1  0.49584400  0.58797400  0.15310400  1
  O  O3  1  0.50415600  0.58797400  0.65310400  1
  O  O4  1  0.00884400  0.03100000  0.54445100  1
  O  O5  1  0.99115600  0.03100000  0.04445100  1
  O  O6  1  0.00721600  0.23123600  0.28882200  1
  O  O7  1  0.99278400  0.23123600  0.78882200  1
loop_
_geom_bond_atom_site_label_1
_geom_bond_atom_site_label_2
_geom_bond_distance
_geom_bond_site_symmetry_2
H0 N0 1.023019 1_555
H1 N1 1.023019 1_555
H2 N2 1.023949 1_555
H3 N3 1.023949 1_555
H4 N2 1.036043 1_555
H5 N3 1.036043 1_555
H6 N4 1.032224 1_555
H7 N5 1.032224 1_555
H8 N6 1.034266 1_555
H9 N7 1.034266 1_555
H10 N6 1.027470 1_555
H11 N7 1.027470 1_555
C0 O2 1.259491 1_555
C0 O0 1.298924 1_554
C0 N0 1.386472 1_555
C1 O3 1.259491 1_555
C1 O1 1.298924 1_555
C1 N1 1.386472 1_555
C2 O4 1.274508 1_555
C2 O6 1.291896 1_555
C2 N4 1.374459 1_555
C3 O5 1.274508 1_556
C3 O7 1.291896 1_555
C3 N5 1.374459 1_555
N2 Zn0 2.104014 1_665
N3 Zn1 2.104014 1_465
N6 Zn0 2.107217 1_555
N7 Zn1 2.107217 1_555
O0 Zn0 2.064131 1_565
O1 Zn1 2.064131 1_565
O4 Zn0 2.114773 1_555
O5 Zn1 2.114773 1_555
O6 Zn1 2.070037 1_455
O7 Zn0 2.070037 1_655
