# generated using pymatgen
data_Fe2(MoO4)3
_symmetry_space_group_name_H-M   'P 1'
_cell_length_a   9.41047900
_cell_length_b   16.00988700
_cell_length_c   16.07196331
_cell_angle_alpha   70.65914868
_cell_angle_beta   90.00000000
_cell_angle_gamma   90.00000000
_symmetry_Int_Tables_number   1
_chemical_formula_structural   Fe2(MoO4)3
_chemical_formula_sum   'Fe16 Mo24 O96'
_cell_volume   2284.76100982
_cell_formula_units_Z   8
loop_
 _symmetry_equiv_pos_site_id
 _symmetry_equiv_pos_as_xyz
  1  'x, y, z'
loop_
 _atom_site_type_symbol
 _atom_site_label
 _atom_site_symmetry_multiplicity
 _atom_site_fract_x
 _atom_site_fract_y
 _atom_site_fract_z
 _atom_site_occupancy
  Fe  Fe0  1  0.46679300  0.18785300  0.67984100  1
  Fe  Fe1  1  0.51821600  0.94120300  0.41565000  1
  Fe  Fe2  1  0.01821600  0.05879700  0.58435000  1
  Fe  Fe3  1  0.98444300  0.43853400  0.41570300  1
  Fe  Fe4  1  0.54103600  0.42305600  0.95400500  1
  Fe  Fe5  1  0.02721300  0.18310800  0.18427100  1
  Fe  Fe6  1  0.47484600  0.68270800  0.18587600  1
  Fe  Fe7  1  0.04103600  0.57694400  0.04599500  1
  Fe  Fe8  1  0.46067000  0.07392500  0.04568700  1
  Fe  Fe9  1  0.97484600  0.31729200  0.81412400  1
  Fe  Fe10  1  0.96067000  0.92607500  0.95431300  1
  Fe  Fe11  1  0.03634400  0.68829100  0.68179200  1
  Fe  Fe12  1  0.52721300  0.81689200  0.81572900  1
  Fe  Fe13  1  0.53634400  0.31170900  0.31820800  1
  Fe  Fe14  1  0.96679300  0.81214700  0.32015900  1
  Fe  Fe15  1  0.48444300  0.56146600  0.58429700  1
  Mo  Mo0  1  0.88600600  0.01661300  0.38420500  1
  Mo  Mo1  1  0.11267200  0.63987900  0.24884500  1
  Mo  Mo2  1  0.61267200  0.36012100  0.75115500  1
  Mo  Mo3  1  0.12851300  0.97242500  0.13803600  1
  Mo  Mo4  1  0.38722000  0.13969200  0.24900500  1
  Mo  Mo5  1  0.37415500  0.47533700  0.13534100  1
  Mo  Mo6  1  0.25348200  0.75726000  0.48805400  1
  Mo  Mo7  1  0.13247900  0.11228900  0.78675900  1
  Mo  Mo8  1  0.74640300  0.73323400  0.01983400  1
  Mo  Mo9  1  0.75810000  0.23207800  0.01891600  1
  Mo  Mo10  1  0.87354600  0.38779900  0.21298200  1
  Mo  Mo11  1  0.38600600  0.98338700  0.61579500  1
  Mo  Mo12  1  0.87415500  0.52466300  0.86465900  1
  Mo  Mo13  1  0.24679500  0.25460800  0.48684700  1
  Mo  Mo14  1  0.62851300  0.02757500  0.86196400  1
  Mo  Mo15  1  0.75348200  0.24274000  0.51194600  1
  Mo  Mo16  1  0.88722000  0.86030800  0.75099500  1
  Mo  Mo17  1  0.25810000  0.76792200  0.98108400  1
  Mo  Mo18  1  0.61698300  0.51354600  0.38710000  1
  Mo  Mo19  1  0.24640300  0.26676600  0.98016600  1
  Mo  Mo20  1  0.11698300  0.48645400  0.61290000  1
  Mo  Mo21  1  0.37354600  0.61220100  0.78701800  1
  Mo  Mo22  1  0.63247900  0.88771100  0.21324100  1
  Mo  Mo23  1  0.74679500  0.74539200  0.51315300  1
  O  O0  1  0.21411800  0.18770200  0.24484800  1
  O  O1  1  0.10884700  0.75682700  0.41575900  1
  O  O2  1  0.78710600  0.31397200  0.75435900  1
  O  O3  1  0.89310900  0.96430500  0.66295900  1
  O  O4  1  0.05857100  0.58259000  0.63730700  1
  O  O5  1  0.61533800  0.16442700  0.00395700  1
  O  O6  1  0.19545700  0.98334700  0.60956800  1
  O  O7  1  0.98400600  0.70864400  0.27665900  1
  O  O8  1  0.60884700  0.24317300  0.58424100  1
  O  O9  1  0.64632100  0.64558100  0.55452500  1
  O  O10  1  0.49677000  0.47178300  0.05086600  1
  O  O11  1  0.00161300  0.96786400  0.05616400  1
  O  O12  1  0.11868800  0.87537400  0.23463500  1
  O  O13  1  0.63608600  0.84050200  0.49815400  1
  O  O14  1  0.11533800  0.83557300  0.99604300  1
  O  O15  1  0.12023400  0.24533300  0.06782800  1
  O  O16  1  0.44008000  0.60541900  0.68545200  1
  O  O17  1  0.42441900  0.12319700  0.14596900  1
  O  O18  1  0.57250000  0.36704600  0.85809200  1
  O  O19  1  0.18655000  0.75294400  0.59433700  1
  O  O20  1  0.40274100  0.50946700  0.87421400  1
  O  O21  1  0.43920800  0.88424300  0.70091500  1
  O  O22  1  0.34485300  0.82585800  0.87893500  1
  O  O23  1  0.28710600  0.68602800  0.24564100  1
  O  O24  1  0.15575200  0.32444600  0.87952600  1
  O  O25  1  0.54307800  0.51117500  0.49087400  1
  O  O26  1  0.65575200  0.67555400  0.12047400  1
  O  O27  1  0.44519400  0.07963000  0.63912400  1
  O  O28  1  0.04307800  0.48882500  0.50912600  1
  O  O29  1  0.62023400  0.75466700  0.93217200  1
  O  O30  1  0.07250000  0.63295400  0.14190800  1
  O  O31  1  0.81394000  0.75143300  0.40693900  1
  O  O32  1  0.31304000  0.16261000  0.97608400  1
  O  O33  1  0.50161300  0.03213600  0.94383600  1
  O  O34  1  0.94008000  0.39458100  0.31454800  1
  O  O35  1  0.90274100  0.49053300  0.12578600  1
  O  O36  1  0.46330900  0.70084600  0.80996500  1
  O  O37  1  0.56852200  0.90475500  0.31102900  1
  O  O38  1  0.10200200  0.01417800  0.87953500  1
  O  O39  1  0.38742300  0.33260500  0.00134700  1
  O  O40  1  0.69273600  0.33674200  0.02265700  1
  O  O41  1  0.10650300  0.53094100  0.32894800  1
  O  O42  1  0.69474100  0.51414400  0.90453800  1
  O  O43  1  0.09264400  0.06600000  0.17185700  1
  O  O44  1  0.46577900  0.98295700  0.51478700  1
  O  O45  1  0.31969400  0.13331300  0.77331400  1
  O  O46  1  0.60200200  0.98582200  0.12046500  1
  O  O47  1  0.19474100  0.48585600  0.09546200  1
  O  O48  1  0.88331900  0.25034700  0.93074500  1
  O  O49  1  0.06232100  0.38789500  0.69779900  1
  O  O50  1  0.92441900  0.87680300  0.85403100  1
  O  O51  1  0.38864500  0.37689700  0.22994000  1
  O  O52  1  0.38331900  0.74965300  0.06925500  1
  O  O53  1  0.93920800  0.11575700  0.29908500  1
  O  O54  1  0.86273000  0.33838500  0.49777500  1
  O  O55  1  0.04153400  0.20498800  0.80083000  1
  O  O56  1  0.81969400  0.86668700  0.22668600  1
  O  O57  1  0.71411800  0.81229800  0.75515200  1
  O  O58  1  0.14632100  0.35441900  0.44547500  1
  O  O59  1  0.96577900  0.01704300  0.48521300  1
  O  O60  1  0.81304000  0.83739000  0.02391600  1
  O  O61  1  0.99677000  0.52821700  0.94913400  1
  O  O62  1  0.01668200  0.78727200  0.73093000  1
  O  O63  1  0.31394000  0.24856700  0.59306100  1
  O  O64  1  0.96330900  0.29915400  0.19003500  1
  O  O65  1  0.94519400  0.92037000  0.36087600  1
  O  O66  1  0.06852200  0.09524500  0.68897100  1
  O  O67  1  0.80789200  0.51278200  0.39147400  1
  O  O68  1  0.41157100  0.56809000  0.17021500  1
  O  O69  1  0.88766000  0.74356400  0.58916000  1
  O  O70  1  0.85348800  0.14314600  0.55756800  1
  O  O71  1  0.19273600  0.66325800  0.97734300  1
  O  O72  1  0.18641200  0.63408300  0.77309000  1
  O  O73  1  0.51668200  0.21272800  0.26907000  1
  O  O74  1  0.54153400  0.79501200  0.19917000  1
  O  O75  1  0.30789200  0.48721800  0.60852600  1
  O  O76  1  0.13608600  0.15949800  0.50184600  1
  O  O77  1  0.55857100  0.41741000  0.36269300  1
  O  O78  1  0.59264400  0.93400000  0.82814300  1
  O  O79  1  0.48400600  0.29135600  0.72334100  1
  O  O80  1  0.91157100  0.43191000  0.82978500  1
  O  O81  1  0.68655000  0.24705600  0.40566300  1
  O  O82  1  0.68641200  0.36591700  0.22691000  1
  O  O83  1  0.80565800  0.01584100  0.90604100  1
  O  O84  1  0.38766000  0.25643600  0.41084000  1
  O  O85  1  0.84485300  0.17414200  0.12106500  1
  O  O86  1  0.88864500  0.62310300  0.77006000  1
  O  O87  1  0.39310900  0.03569500  0.33704100  1
  O  O88  1  0.35348800  0.85685400  0.44243200  1
  O  O89  1  0.61868800  0.12462600  0.76536500  1
  O  O90  1  0.30565800  0.98415900  0.09395900  1
  O  O91  1  0.56232100  0.61210500  0.30220100  1
  O  O92  1  0.88742300  0.66739500  0.99865300  1
  O  O93  1  0.60650300  0.46905900  0.67105200  1
  O  O94  1  0.36273000  0.66161500  0.50222500  1
  O  O95  1  0.69545700  0.01665300  0.39043200  1
loop_
_geom_bond_atom_site_label_1
_geom_bond_atom_site_label_2
_geom_bond_distance
_geom_bond_site_symmetry_2
Fe0 O79 2.007056 1_555
Fe0 O8 2.007694 1_555
Fe0 O89 2.008880 1_555
Fe0 O63 2.015231 1_555
Fe0 O45 2.016595 1_555
Fe0 O27 2.054901 1_555
Fe1 O44 1.983569 1_555
Fe1 O87 2.001214 1_565
Fe1 O88 2.006717 1_555
Fe1 O37 2.010435 1_555
Fe1 O95 2.020169 1_565
Fe1 O13 2.042508 1_555
Fe2 O59 1.983569 1_455
Fe2 O3 2.001214 1_445
Fe2 O70 2.006717 1_455
Fe2 O66 2.010435 1_555
Fe2 O6 2.020169 1_545
Fe2 O76 2.042508 1_555
Fe3 O58 1.984000 1_655
Fe3 O28 2.001993 1_655
Fe3 O67 2.004593 1_555
Fe3 O34 2.017503 1_555
Fe3 O41 2.021354 1_655
Fe3 O54 2.054684 1_555
Fe4 O10 2.002493 1_556
Fe4 O39 2.008933 1_556
Fe4 O20 2.019158 1_555
Fe4 O42 2.020634 1_555
Fe4 O40 2.038390 1_556
Fe4 O18 2.045389 1_555
Fe5 O53 1.983856 1_455
Fe5 O64 1.983925 1_455
Fe5 O15 2.006537 1_555
Fe5 O85 2.023392 1_455
Fe5 O0 2.023445 1_555
Fe5 O43 2.044972 1_555
Fe6 O74 1.981579 1_555
Fe6 O91 2.012669 1_555
Fe6 O52 2.018182 1_555
Fe6 O23 2.020048 1_555
Fe6 O68 2.022660 1_555
Fe6 O26 2.023848 1_555
Fe7 O61 2.002493 1_454
Fe7 O92 2.008933 1_454
Fe7 O35 2.019158 1_455
Fe7 O47 2.020634 1_555
Fe7 O71 2.038390 1_554
Fe7 O30 2.045389 1_555
Fe8 O33 2.000267 1_554
Fe8 O5 2.005993 1_555
Fe8 O90 2.014118 1_545
Fe8 O46 2.019902 1_545
Fe8 O32 2.036011 1_554
Fe8 O17 2.044126 1_555
Fe9 O55 1.981579 1_655
Fe9 O49 2.012669 1_655
Fe9 O48 2.018182 1_555
Fe9 O2 2.020048 1_555
Fe9 O80 2.022660 1_555
Fe9 O24 2.023848 1_655
Fe10 O11 2.000267 1_656
Fe10 O14 2.005993 1_655
Fe10 O83 2.014118 1_565
Fe10 O38 2.019902 1_665
Fe10 O60 2.036011 1_556
Fe10 O50 2.044126 1_555
Fe11 O62 1.999520 1_555
Fe11 O86 2.013190 1_455
Fe11 O72 2.014227 1_555
Fe11 O19 2.020240 1_555
Fe11 O69 2.021044 1_455
Fe11 O4 2.054282 1_555
Fe12 O21 1.983856 1_555
Fe12 O36 1.983925 1_555
Fe12 O29 2.006537 1_555
Fe12 O22 2.023392 1_555
Fe12 O57 2.023445 1_555
Fe12 O78 2.044972 1_555
Fe13 O73 1.999520 1_555
Fe13 O51 2.013190 1_555
Fe13 O82 2.014227 1_555
Fe13 O81 2.020240 1_555
Fe13 O84 2.021044 1_555
Fe13 O77 2.054282 1_555
Fe14 O7 2.007056 1_555
Fe14 O1 2.007694 1_655
Fe14 O12 2.008880 1_655
Fe14 O31 2.015231 1_555
Fe14 O56 2.016595 1_555
Fe14 O65 2.054901 1_555
Fe15 O9 1.984000 1_555
Fe15 O25 2.001993 1_555
Fe15 O75 2.004593 1_555
Fe15 O16 2.017503 1_555
Fe15 O93 2.021354 1_555
Fe15 O94 2.054684 1_555
Mo0 O53 1.789789 1_555
Mo0 O59 1.790648 1_555
Mo0 O65 1.790998 1_545
Mo0 O95 1.795960 1_555
Mo1 O7 1.789943 1_455
Mo1 O41 1.793144 1_555
Mo1 O23 1.793846 1_555
Mo1 O30 1.798696 1_555
Mo2 O79 1.789943 1_555
Mo2 O93 1.793144 1_555
Mo2 O2 1.793846 1_555
Mo2 O18 1.798696 1_555
Mo3 O43 1.786947 1_565
Mo3 O11 1.796249 1_555
Mo3 O90 1.796645 1_555
Mo3 O12 1.798692 1_555
Mo4 O73 1.790328 1_555
Mo4 O0 1.792986 1_555
Mo4 O87 1.793539 1_555
Mo4 O17 1.795622 1_555
Mo5 O68 1.787331 1_555
Mo5 O47 1.793951 1_555
Mo5 O51 1.796343 1_555
Mo5 O10 1.796971 1_555
Mo6 O88 1.786421 1_555
Mo6 O1 1.791089 1_555
Mo6 O94 1.795155 1_555
Mo6 O19 1.800329 1_555
Mo7 O66 1.786291 1_555
Mo7 O55 1.791219 1_555
Mo7 O45 1.793234 1_555
Mo7 O38 1.794851 1_555
Mo8 O29 1.786681 1_554
Mo8 O26 1.790914 1_555
Mo8 O92 1.796035 1_554
Mo8 O60 1.802955 1_555
Mo9 O48 1.791002 1_554
Mo9 O5 1.791155 1_555
Mo9 O85 1.792616 1_555
Mo9 O40 1.804588 1_555
Mo10 O34 1.784888 1_555
Mo10 O64 1.791749 1_555
Mo10 O35 1.793852 1_555
Mo10 O82 1.795018 1_555
Mo11 O21 1.789789 1_555
Mo11 O44 1.790648 1_555
Mo11 O27 1.790998 1_565
Mo11 O6 1.795960 1_555
Mo12 O80 1.787331 1_555
Mo12 O42 1.793951 1_555
Mo12 O86 1.796343 1_555
Mo12 O61 1.796971 1_555
Mo13 O58 1.784883 1_555
Mo13 O63 1.792577 1_555
Mo13 O76 1.794155 1_555
Mo13 O84 1.796294 1_555
Mo14 O78 1.786947 1_545
Mo14 O33 1.796249 1_555
Mo14 O83 1.796645 1_555
Mo14 O89 1.798692 1_555
Mo15 O70 1.786421 1_555
Mo15 O8 1.791089 1_555
Mo15 O54 1.795155 1_555
Mo15 O81 1.800329 1_555
Mo16 O62 1.790328 1_655
Mo16 O57 1.792986 1_555
Mo16 O3 1.793539 1_555
Mo16 O50 1.795622 1_555
Mo17 O52 1.791002 1_556
Mo17 O14 1.791155 1_555
Mo17 O22 1.792616 1_555
Mo17 O71 1.804588 1_555
Mo18 O91 1.786096 1_555
Mo18 O77 1.795786 1_555
Mo18 O25 1.795809 1_555
Mo18 O67 1.797803 1_555
Mo19 O15 1.786681 1_556
Mo19 O24 1.790914 1_555
Mo19 O39 1.796035 1_556
Mo19 O32 1.802955 1_555
Mo20 O49 1.786096 1_555
Mo20 O4 1.795786 1_555
Mo20 O28 1.795809 1_555
Mo20 O75 1.797803 1_555
Mo21 O16 1.784888 1_555
Mo21 O36 1.791749 1_555
Mo21 O20 1.793852 1_555
Mo21 O72 1.795018 1_555
Mo22 O37 1.786291 1_555
Mo22 O74 1.791219 1_555
Mo22 O56 1.793234 1_555
Mo22 O46 1.794851 1_555
Mo23 O9 1.784883 1_555
Mo23 O31 1.792577 1_555
Mo23 O13 1.794155 1_555
Mo23 O69 1.796294 1_555
