# generated using pymatgen
data_NaP3H10(NO5)2
_symmetry_space_group_name_H-M   'P 1'
_cell_length_a   11.79001600
_cell_length_b   6.89512000
_cell_length_c   13.81727137
_cell_angle_alpha   72.66411477
_cell_angle_beta   90.00000000
_cell_angle_gamma   90.00000000
_symmetry_Int_Tables_number   1
_chemical_formula_structural   NaP3H10(NO5)2
_chemical_formula_sum   'Na4 P12 H40 N8 O40'
_cell_volume   1072.23079524
_cell_formula_units_Z   4
loop_
 _symmetry_equiv_pos_site_id
 _symmetry_equiv_pos_as_xyz
  1  'x, y, z'
loop_
 _atom_site_type_symbol
 _atom_site_label
 _atom_site_symmetry_multiplicity
 _atom_site_fract_x
 _atom_site_fract_y
 _atom_site_fract_z
 _atom_site_occupancy
  Na  Na0  1  0.29843400  0.13981700  0.28237800  1
  Na  Na1  1  0.20156600  0.13981700  0.78237800  1
  Na  Na2  1  0.70156600  0.86018300  0.71762200  1
  Na  Na3  1  0.79843400  0.86018300  0.21762200  1
  P  P0  1  0.03949500  0.16890000  0.15123000  1
  P  P1  1  0.46050500  0.16890000  0.65123000  1
  P  P2  1  0.96050500  0.83110000  0.84877000  1
  P  P3  1  0.53949500  0.83110000  0.34877000  1
  P  P4  1  0.16828000  0.59307500  0.85696000  1
  P  P5  1  0.33172000  0.59307500  0.35696000  1
  P  P6  1  0.83172000  0.40692500  0.14304000  1
  P  P7  1  0.66828000  0.40692500  0.64304000  1
  P  P8  1  0.24493400  0.22729700  0.01943700  1
  P  P9  1  0.25506600  0.22729700  0.51943700  1
  P  P10  1  0.75506600  0.77270300  0.98056300  1
  P  P11  1  0.74493400  0.77270300  0.48056300  1
  H  H0  1  0.13266200  0.52690000  0.16187100  1
  H  H1  1  0.36733800  0.52690000  0.66187100  1
  H  H2  1  0.86733800  0.47310000  0.83812900  1
  H  H3  1  0.63266200  0.47310000  0.33812900  1
  H  H4  1  0.15903500  0.74454500  0.06568500  1
  H  H5  1  0.34096500  0.74454500  0.56568500  1
  H  H6  1  0.84096500  0.25545500  0.93431500  1
  H  H7  1  0.65903500  0.25545500  0.43431500  1
  H  H8  1  0.19851200  0.72747300  0.18694700  1
  H  H9  1  0.30148800  0.72747300  0.68694700  1
  H  H10  1  0.80148800  0.27252700  0.81305300  1
  H  H11  1  0.69851200  0.27252700  0.31305300  1
  H  H12  1  0.56224900  0.25045500  0.34563800  1
  H  H13  1  0.93775100  0.25045500  0.84563800  1
  H  H14  1  0.43775100  0.74954500  0.65436200  1
  H  H15  1  0.06224900  0.74954500  0.15436200  1
  H  H16  1  0.10687600  0.95234900  0.43404900  1
  H  H17  1  0.39312400  0.95234900  0.93404900  1
  H  H18  1  0.89312400  0.04765100  0.56595100  1
  H  H19  1  0.60687600  0.04765100  0.06595100  1
  H  H20  1  0.54230900  0.27460300  0.00931900  1
  H  H21  1  0.95769100  0.27460300  0.50931900  1
  H  H22  1  0.45769100  0.72539700  0.99068100  1
  H  H23  1  0.04230900  0.72539700  0.49068100  1
  H  H24  1  0.98557400  0.87766100  0.38380600  1
  H  H25  1  0.51442600  0.87766100  0.88380600  1
  H  H26  1  0.01442600  0.12233900  0.61619400  1
  H  H27  1  0.48557400  0.12233900  0.11619400  1
  H  H28  1  0.61249700  0.22802000  0.12317000  1
  H  H29  1  0.88750300  0.22802000  0.62317000  1
  H  H30  1  0.38750300  0.77198000  0.87683000  1
  H  H31  1  0.11249700  0.77198000  0.37683000  1
  H  H32  1  0.94366700  0.46608600  0.32230800  1
  H  H33  1  0.55633300  0.46608600  0.82230800  1
  H  H34  1  0.05633300  0.53391400  0.67769200  1
  H  H35  1  0.44366700  0.53391400  0.17769200  1
  H  H36  1  0.05300900  0.33894500  0.34371400  1
  H  H37  1  0.44699100  0.33894500  0.84371400  1
  H  H38  1  0.94699100  0.66105500  0.65628600  1
  H  H39  1  0.55300900  0.66105500  0.15628600  1
  N  N0  1  0.13871200  0.68626400  0.14080400  1
  N  N1  1  0.36128800  0.68626400  0.64080400  1
  N  N2  1  0.86128800  0.31373600  0.85919600  1
  N  N3  1  0.63871200  0.31373600  0.35919600  1
  N  N4  1  0.56120900  0.16734000  0.07858800  1
  N  N5  1  0.93879100  0.16734000  0.57858800  1
  N  N6  1  0.43879100  0.83266000  0.92141200  1
  N  N7  1  0.06120900  0.83266000  0.42141200  1
  O  O0  1  0.49017100  0.03818900  0.30391900  1
  O  O1  1  0.00982900  0.03818900  0.80391900  1
  O  O2  1  0.50982900  0.96181100  0.69608100  1
  O  O3  1  0.99017100  0.96181100  0.19608100  1
  O  O4  1  0.60630200  0.73395200  0.28214700  1
  O  O5  1  0.89369800  0.73395200  0.78214700  1
  O  O6  1  0.39369800  0.26604800  0.71785300  1
  O  O7  1  0.10630200  0.26604800  0.21785300  1
  O  O8  1  0.94044100  0.32613100  0.09238400  1
  O  O9  1  0.55955900  0.32613100  0.59238400  1
  O  O10  1  0.05955900  0.67386900  0.90761600  1
  O  O11  1  0.44044100  0.67386900  0.40761600  1
  O  O12  1  0.61353800  0.83600100  0.44688600  1
  O  O13  1  0.88646200  0.83600100  0.94688600  1
  O  O14  1  0.38646200  0.16399900  0.55311400  1
  O  O15  1  0.11353800  0.16399900  0.05311400  1
  O  O16  1  0.75667000  0.22928200  0.19505700  1
  O  O17  1  0.74333000  0.22928200  0.69505700  1
  O  O18  1  0.24333000  0.77071800  0.80494300  1
  O  O19  1  0.25667000  0.77071800  0.30494300  1
  O  O20  1  0.86995700  0.54727000  0.20110200  1
  O  O21  1  0.63004300  0.54727000  0.70110200  1
  O  O22  1  0.13004300  0.45273000  0.79889800  1
  O  O23  1  0.36995700  0.45273000  0.29889800  1
  O  O24  1  0.26843500  0.47079200  0.46164800  1
  O  O25  1  0.23156500  0.47079200  0.96164800  1
  O  O26  1  0.73156500  0.52920800  0.53835200  1
  O  O27  1  0.76843500  0.52920800  0.03835200  1
  O  O28  1  0.72542800  0.88701400  0.05418800  1
  O  O29  1  0.77457200  0.88701400  0.55418800  1
  O  O30  1  0.27457200  0.11298600  0.94581200  1
  O  O31  1  0.22542800  0.11298600  0.44581200  1
  O  O32  1  0.31904000  0.20924000  0.10900700  1
  O  O33  1  0.18096000  0.20924000  0.60900700  1
  O  O34  1  0.68096000  0.79076000  0.89099300  1
  O  O35  1  0.81904000  0.79076000  0.39099300  1
  O  O36  1  0.50095100  0.58785900  0.12401800  1
  O  O37  1  0.99904900  0.58785900  0.62401800  1
  O  O38  1  0.49904900  0.41214100  0.87598200  1
  O  O39  1  0.00095100  0.41214100  0.37598200  1
loop_
_geom_bond_atom_site_label_1
_geom_bond_atom_site_label_2
_geom_bond_distance
_geom_bond_site_symmetry_2
Na0 O32 2.311554 1_555
Na0 O0 2.359144 1_555
Na0 O31 2.371846 1_555
Na0 O23 2.389938 1_555
Na0 O7 2.494252 1_555
Na0 O19 2.518675 1_545
Na1 O33 2.311554 1_555
Na1 O1 2.359144 1_555
Na1 O30 2.371846 1_555
Na1 O22 2.389938 1_555
Na1 O6 2.494252 1_555
Na1 O18 2.518675 1_545
Na2 O34 2.311554 1_555
Na2 O2 2.359144 1_555
Na2 O29 2.371846 1_555
Na2 O21 2.389938 1_555
Na2 O5 2.494252 1_555
Na2 O17 2.518675 1_565
Na3 O35 2.311554 1_555
Na3 O3 2.359144 1_555
Na3 O28 2.371846 1_555
Na3 O20 2.389938 1_555
Na3 O4 2.494252 1_555
Na3 O16 2.518675 1_565
H0 N0 1.051969 1_555
H0 O7 1.760906 1_555
H1 N1 1.051969 1_555
H1 O6 1.760906 1_555
H2 N2 1.051969 1_555
H2 O5 1.760906 1_555
H3 N3 1.051969 1_555
H3 O4 1.760906 1_555
H4 N0 1.023547 1_555
H5 N1 1.023547 1_555
H6 N2 1.023547 1_555
H7 N3 1.023547 1_555
H8 N0 1.045122 1_555
H9 N1 1.045122 1_555
H10 N2 1.045122 1_555
H11 N3 1.045122 1_555
H12 N3 1.042542 1_555
H13 N2 1.042542 1_555
H14 N1 1.042542 1_555
H15 N0 1.042542 1_555
H16 N7 1.042749 1_555
H17 N6 1.042749 1_555
H18 N5 1.042749 1_555
H19 N4 1.042749 1_555
H20 N4 1.044440 1_555
H21 N5 1.044440 1_555
H22 N6 1.044440 1_555
H23 N7 1.044440 1_555
H24 N7 1.032176 1_655
H25 N6 1.032176 1_555
H26 N5 1.032176 1_455
H27 N4 1.032176 1_555
H28 N4 1.036221 1_555
H29 N5 1.036221 1_555
H30 N6 1.036221 1_555
H31 N7 1.036221 1_555
H32 O39 0.990004 1_655
H33 O38 0.990004 1_555
H34 O37 0.990004 1_455
H35 O36 0.990004 1_555
H36 O39 0.981994 1_555
H37 O38 0.981994 1_555
H38 O37 0.981994 1_555
H39 O36 0.981994 1_555
O0 P3 1.494586 1_545
O1 P2 1.494586 1_445
O2 P1 1.494586 1_565
O3 P0 1.494586 1_665
O4 P3 1.511285 1_555
O5 P2 1.511285 1_555
O6 P1 1.511285 1_555
O7 P0 1.511285 1_555
O8 P0 1.635541 1_655
O8 P6 1.635751 1_555
O9 P1 1.635541 1_555
O9 P7 1.635751 1_555
O10 P2 1.635541 1_455
O10 P4 1.635751 1_555
O11 P3 1.635541 1_555
O11 P5 1.635751 1_555
O12 P3 1.621243 1_555
O12 P11 1.638866 1_555
O13 P2 1.621243 1_555
O13 P10 1.638866 1_555
O14 P1 1.621243 1_555
O14 P9 1.638866 1_555
O15 P0 1.621243 1_555
O15 P8 1.638866 1_555
O16 P6 1.508371 1_555
O17 P7 1.508371 1_555
O18 P4 1.508371 1_555
O19 P5 1.508371 1_555
O20 P6 1.498648 1_555
O21 P7 1.498648 1_555
O22 P4 1.498648 1_555
O23 P5 1.498648 1_555
O24 P5 1.622702 1_555
O24 P9 1.637772 1_555
O25 P4 1.622702 1_555
O25 P8 1.637772 1_556
O26 P7 1.622702 1_555
O26 P11 1.637772 1_555
O27 P6 1.622702 1_555
O27 P10 1.637772 1_554
O28 P10 1.502024 1_554
O29 P11 1.502024 1_555
O30 P8 1.502024 1_556
O31 P9 1.502024 1_555
O32 P8 1.489540 1_555
O33 P9 1.489540 1_555
O34 P10 1.489540 1_555
O35 P11 1.489540 1_555
