# generated using pymatgen
data_Eu2Y2O5
_symmetry_space_group_name_H-M   'P 1'
_cell_length_a   12.05384221
_cell_length_b   15.44035469
_cell_length_c   3.53660100
_cell_angle_alpha   89.99513570
_cell_angle_beta   89.99883019
_cell_angle_gamma   67.00232819
_symmetry_Int_Tables_number   1
_chemical_formula_structural   Eu2Y2O5
_chemical_formula_sum   'Eu8 Y8 O20'
_cell_volume   605.90203620
_cell_formula_units_Z   4
loop_
 _symmetry_equiv_pos_site_id
 _symmetry_equiv_pos_as_xyz
  1  'x, y, z'
loop_
 _atom_site_type_symbol
 _atom_site_label
 _atom_site_symmetry_multiplicity
 _atom_site_fract_x
 _atom_site_fract_y
 _atom_site_fract_z
 _atom_site_occupancy
  Eu  Eu0  1  0.15060300  0.94146100  0.57063500  1
  Eu  Eu1  1  0.65110800  0.94194100  0.62503400  1
  Eu  Eu2  1  0.09279000  0.55833700  0.07993600  1
  Eu  Eu3  1  0.59274000  0.55805500  0.11547000  1
  Eu  Eu4  1  0.40734800  0.44185700  0.11536100  1
  Eu  Eu5  1  0.90722400  0.44173800  0.07996600  1
  Eu  Eu6  1  0.34877600  0.05813800  0.62494500  1
  Eu  Eu7  1  0.84945900  0.05841000  0.57045000  1
  Y  Y0  1  0.47896300  0.82475300  0.12112900  1
  Y  Y1  1  0.30340800  0.67614400  0.61721900  1
  Y  Y2  1  0.97904900  0.82438400  0.08237200  1
  Y  Y3  1  0.80317500  0.67627800  0.58605100  1
  Y  Y4  1  0.19691000  0.32376200  0.58611400  1
  Y  Y5  1  0.02113000  0.17555400  0.08237600  1
  Y  Y6  1  0.69649400  0.32384700  0.61730700  1
  Y  Y7  1  0.52089000  0.17532200  0.12116600  1
  O  O0  1  0.36001700  0.89545400  0.62189500  1
  O  O1  1  0.12192100  0.79333600  0.58680400  1
  O  O2  1  0.62150600  0.79398600  0.61610000  1
  O  O3  1  0.99991200  0.49997700  0.57628700  1
  O  O4  1  0.86087700  0.89606900  0.58205100  1
  O  O5  1  0.41598200  0.70669700  0.12407800  1
  O  O6  1  0.25679700  0.60480000  0.11820800  1
  O  O7  1  0.24435500  0.39485200  0.08528700  1
  O  O8  1  0.08484000  0.29297800  0.08187400  1
  O  O9  1  0.50000300  0.50000600  0.61916200  1
  O  O10  1  0.91504600  0.70705700  0.08184600  1
  O  O11  1  0.75564500  0.60522900  0.08535500  1
  O  O12  1  0.74317900  0.39517300  0.11815200  1
  O  O13  1  0.58410900  0.29328000  0.12412800  1
  O  O14  1  0.13914700  0.10391900  0.58196800  1
  O  O15  1  0.37855100  0.20596800  0.61613000  1
  O  O16  1  0.00004100  0.99997200  0.06777400  1
  O  O17  1  0.87802100  0.20670900  0.58677700  1
  O  O18  1  0.63989100  0.10458600  0.62194700  1
  O  O19  1  0.50009400  0.99996800  0.12792600  1
loop_
_geom_bond_atom_site_label_1
_geom_bond_atom_site_label_2
_geom_bond_distance
_geom_bond_site_symmetry_2
Eu0 O0 2.346945 1_555
Eu0 O16 2.433117 1_556
Eu0 O1 2.443659 1_555
Eu0 O16 2.447722 1_555
Eu0 O14 2.458078 1_565
Eu1 O4 2.349215 1_555
Eu1 O19 2.435680 1_555
Eu1 O2 2.446244 1_555
Eu1 O19 2.450542 1_556
Eu1 O18 2.461643 1_565
Eu2 O6 2.355719 1_555
Eu2 O3 2.436120 1_455
Eu2 O10 2.453370 1_455
Eu2 O3 2.454926 1_454
Eu2 O7 2.471128 1_555
Eu3 O11 2.348470 1_555
Eu3 O9 2.432492 1_554
Eu3 O5 2.446820 1_555
Eu3 O9 2.451260 1_555
Eu3 O12 2.459643 1_555
Eu4 O7 2.347827 1_555
Eu4 O9 2.432321 1_554
Eu4 O13 2.446242 1_555
Eu4 O9 2.451932 1_555
Eu4 O6 2.460795 1_555
Eu5 O12 2.357125 1_555
Eu5 O3 2.433778 1_555
Eu5 O3 2.452469 1_554
Eu5 O8 2.452954 1_655
Eu5 O11 2.471257 1_555
Eu6 O14 2.347762 1_555
Eu6 O19 2.437890 1_545
Eu6 O15 2.445387 1_555
Eu6 O19 2.453080 1_546
Eu6 O0 2.462147 1_545
Eu7 O18 2.348483 1_555
Eu7 O16 2.433588 1_646
Eu7 O17 2.445611 1_555
Eu7 O16 2.447359 1_645
Eu7 O4 2.456440 1_545
O0 Y0 2.267476 1_556
O0 Y0 2.271796 1_555
O1 Y1 2.231223 1_555
O1 Y2 2.371129 1_456
O1 Y2 2.394385 1_455
O2 Y3 2.236044 1_555
O2 Y0 2.367350 1_555
O2 Y0 2.393780 1_556
O3 Y3 2.826808 1_555
O3 Y4 2.827421 1_655
O4 Y2 2.268313 1_555
O4 Y2 2.269982 1_556
O5 Y0 2.231688 1_555
O5 Y1 2.367595 1_555
O5 Y1 2.403656 1_554
O6 Y1 2.264431 1_555
O6 Y1 2.269723 1_554
O7 Y4 2.267012 1_554
O7 Y4 2.271406 1_555
O8 Y5 2.228212 1_555
O8 Y4 2.371993 1_554
O8 Y4 2.394346 1_555
O9 Y6 2.823838 1_555
O9 Y1 2.824212 1_555
O10 Y2 2.229134 1_555
O10 Y3 2.370599 1_554
O10 Y3 2.392582 1_555
O11 Y3 2.267293 1_554
O11 Y3 2.271292 1_555
O12 Y6 2.264893 1_555
O12 Y6 2.269718 1_554
O13 Y7 2.232146 1_555
O13 Y6 2.366403 1_555
O13 Y6 2.402085 1_554
O14 Y5 2.266968 1_555
O14 Y5 2.269319 1_556
O15 Y4 2.236377 1_555
O15 Y7 2.365903 1_555
O15 Y7 2.392371 1_556
O16 Y2 2.820105 1_455
O16 Y5 2.820566 1_565
O17 Y6 2.231217 1_555
O17 Y5 2.372917 1_656
O17 Y5 2.396011 1_655
O18 Y7 2.267955 1_556
O18 Y7 2.272159 1_555
O19 Y0 2.814783 1_555
O19 Y7 2.815037 1_565
