# generated using pymatgen
data_LiV2OF5
_symmetry_space_group_name_H-M   'P 1'
_cell_length_a   5.31163000
_cell_length_b   5.52418370
_cell_length_c   17.15506672
_cell_angle_alpha   84.66194786
_cell_angle_beta   81.78222298
_cell_angle_gamma   61.29242991
_symmetry_Int_Tables_number   1
_chemical_formula_structural   LiV2OF5
_chemical_formula_sum   'Li4 V8 O4 F20'
_cell_volume   436.79253302
_cell_formula_units_Z   4
loop_
 _symmetry_equiv_pos_site_id
 _symmetry_equiv_pos_as_xyz
  1  'x, y, z'
loop_
 _atom_site_type_symbol
 _atom_site_label
 _atom_site_symmetry_multiplicity
 _atom_site_fract_x
 _atom_site_fract_y
 _atom_site_fract_z
 _atom_site_occupancy
  Li  Li0  1  0.20034600  0.11043600  0.43737700  1
  Li  Li1  1  0.62976600  0.77828200  0.92759300  1
  Li  Li2  1  0.28256600  0.39662000  0.06443900  1
  Li  Li3  1  0.35956900  0.55707000  0.67303500  1
  V  V0  1  0.64826800  0.60675300  0.13181500  1
  V  V1  1  0.22688000  0.26571200  0.24541200  1
  V  V2  1  0.86130000  0.89912300  0.37502500  1
  V  V3  1  0.76436700  0.73261300  0.74630400  1
  V  V4  1  0.11402200  0.15009900  0.62844100  1
  V  V5  1  0.02056400  0.97779600  0.99814100  1
  V  V6  1  0.51466100  0.48329100  0.49455800  1
  V  V7  1  0.37594200  0.39114300  0.87702900  1
  O  O0  1  0.02627500  0.40951500  0.15565500  1
  O  O1  1  0.04947400  0.44334900  0.68726600  1
  O  O2  1  0.79579300  0.19241100  0.43662600  1
  O  O3  1  0.30154400  0.68592600  0.93641700  1
  F  F0  1  0.23883600  0.79965200  0.08920100  1
  F  F1  1  0.69283600  0.30092600  0.06059100  1
  F  F2  1  0.22378000  0.80163900  0.56939900  1
  F  F3  1  0.54000300  0.95212400  0.17933400  1
  F  F4  1  0.69516000  0.34536000  0.59749800  1
  F  F5  1  0.51625900  0.52720700  0.77534100  1
  F  F6  1  0.79099400  0.76144800  0.02489900  1
  F  F7  1  0.03205200  0.03453200  0.28298200  1
  F  F8  1  0.70740600  0.72697300  0.46412100  1
  F  F9  1  0.51871600  0.92051200  0.66274700  1
  F  F10  1  0.94688500  0.56959100  0.31691800  1
  F  F11  1  0.95999100  0.58090500  0.84755700  1
  F  F12  1  0.25730900  0.27826400  0.52668700  1
  F  F13  1  0.44782800  0.10130900  0.34336600  1
  F  F14  1  0.26238900  0.70656800  0.41494900  1
  F  F15  1  0.24980200  0.20255100  0.97376200  1
  F  F16  1  0.00058200  0.93932200  0.71496200  1
  F  F17  1  0.46049800  0.46258300  0.21942600  1
  F  F18  1  0.47795800  0.03778200  0.82270900  1
  F  F19  1  0.77453100  0.15929900  0.90976400  1
loop_
_geom_bond_atom_site_label_1
_geom_bond_atom_site_label_2
_geom_bond_distance
_geom_bond_site_symmetry_2
Li0 O2 1.973508 1_455
Li1 O3 2.021709 1_555
Li2 O0 1.904084 1_555
Li3 O1 2.004443 1_555
O0 V0 1.853646 1_455
O0 V1 1.888292 1_555
O1 V3 1.846746 1_455
O1 V4 1.852542 1_555
O2 V6 1.835029 1_555
O2 V2 1.880076 1_545
O3 V7 1.849679 1_555
O3 V5 1.871488 1_555
F0 V5 1.971935 1_554
F0 V0 2.117246 1_555
F0 Li2 2.200526 1_555
F1 Li2 1.972664 1_555
F1 V5 2.049856 1_644
F1 V0 2.078549 1_555
F2 V4 2.046241 1_565
F2 V6 2.090701 1_555
F2 Li3 2.118943 1_555
F3 V0 1.933040 1_555
F3 V1 2.027472 1_565
F4 Li3 1.960442 1_555
F4 V6 2.037196 1_555
F4 V4 2.078653 1_655
F5 Li3 2.007975 1_555
F5 V7 2.021421 1_555
F5 V3 2.101468 1_555
F6 Li1 1.957512 1_554
F6 V5 2.064935 1_654
F6 V0 2.145310 1_555
F7 V2 1.974331 1_445
F7 V1 2.010738 1_555
F8 V2 2.006963 1_555
F8 V6 2.042857 1_555
F9 V3 1.947144 1_555
F9 V4 2.044334 1_565
F10 V2 1.981730 1_555
F10 V1 1.999448 1_655
F11 Li1 1.975716 1_555
F11 V3 2.051281 1_555
F11 V7 2.057087 1_655
F12 Li0 1.991173 1_555
F12 V4 2.008868 1_555
F12 V6 2.147319 1_555
F13 Li0 1.917537 1_555
F13 V2 2.058495 1_545
F13 V1 2.069247 1_555
F14 V6 1.950373 1_555
F14 V2 2.060058 1_455
F14 Li0 2.156693 1_565
F15 Li2 2.041163 1_556
F15 V7 2.078259 1_555
F15 V5 2.099814 1_545
F15 Li1 2.353274 1_545
F16 V4 2.004661 1_565
F16 V3 2.058291 1_455
F16 Li3 2.152814 1_555
F17 V1 1.992344 1_555
F17 V0 1.999949 1_555
F18 V7 2.037244 1_555
F18 V3 2.061953 1_545
F18 Li1 2.183350 1_545
F19 V5 2.009108 1_645
F19 V7 2.009769 1_555
