# generated using pymatgen
data_Na2PH15O11
_symmetry_space_group_name_H-M   'P 1'
_cell_length_a   11.10670300
_cell_length_b   9.34749200
_cell_length_c   13.35047760
_cell_angle_alpha   51.56918173
_cell_angle_beta   90.00000000
_cell_angle_gamma   90.00000000
_symmetry_Int_Tables_number   1
_chemical_formula_structural   Na2PH15O11
_chemical_formula_sum   'Na8 P4 H60 O44'
_cell_volume   1085.77049114
_cell_formula_units_Z   4
loop_
 _symmetry_equiv_pos_site_id
 _symmetry_equiv_pos_as_xyz
  1  'x, y, z'
loop_
 _atom_site_type_symbol
 _atom_site_label
 _atom_site_symmetry_multiplicity
 _atom_site_fract_x
 _atom_site_fract_y
 _atom_site_fract_z
 _atom_site_occupancy
  Na  Na0  1  0.10545600  0.16601000  0.47498800  1
  Na  Na1  1  0.39454400  0.16601000  0.97498800  1
  Na  Na2  1  0.89454400  0.83399000  0.52501200  1
  Na  Na3  1  0.60545600  0.83399000  0.02501200  1
  Na  Na4  1  0.39415600  0.15737200  0.47604900  1
  Na  Na5  1  0.10584400  0.15737200  0.97604900  1
  Na  Na6  1  0.60584400  0.84262800  0.52395100  1
  Na  Na7  1  0.89415600  0.84262800  0.02395100  1
  P  P0  1  0.26267900  0.70834900  0.89527400  1
  P  P1  1  0.23732100  0.70834900  0.39527400  1
  P  P2  1  0.73732100  0.29165100  0.10472600  1
  P  P3  1  0.76267900  0.29165100  0.60472600  1
  H  H0  1  0.42944000  0.59471400  0.87019300  1
  H  H1  1  0.07056000  0.59471400  0.37019300  1
  H  H2  1  0.57056000  0.40528600  0.12980700  1
  H  H3  1  0.92944000  0.40528600  0.62980700  1
  H  H4  1  0.08383500  0.01595900  0.33330900  1
  H  H5  1  0.41616500  0.01595900  0.83330900  1
  H  H6  1  0.91616500  0.98404100  0.66669100  1
  H  H7  1  0.58383500  0.98404100  0.16669100  1
  H  H8  1  0.96923500  0.14929900  0.27909100  1
  H  H9  1  0.53076500  0.14929900  0.77909100  1
  H  H10  1  0.03076500  0.85070100  0.72090900  1
  H  H11  1  0.46923500  0.85070100  0.22090900  1
  H  H12  1  0.24425000  0.88300100  0.50410400  1
  H  H13  1  0.25575000  0.88300100  0.00410400  1
  H  H14  1  0.75575000  0.11699900  0.49589600  1
  H  H15  1  0.74425000  0.11699900  0.99589600  1
  H  H16  1  0.22828700  0.82631000  0.64462800  1
  H  H17  1  0.27171300  0.82631000  0.14462800  1
  H  H18  1  0.77171300  0.17369000  0.35537200  1
  H  H19  1  0.72828700  0.17369000  0.85537200  1
  H  H20  1  0.24142200  0.42783200  0.22439900  1
  H  H21  1  0.25857800  0.42783200  0.72439900  1
  H  H22  1  0.75857800  0.57216800  0.77560100  1
  H  H23  1  0.74142200  0.57216800  0.27560100  1
  H  H24  1  0.26610500  0.48797000  0.30952900  1
  H  H25  1  0.23389500  0.48797000  0.80952900  1
  H  H26  1  0.73389500  0.51203000  0.69047100  1
  H  H27  1  0.76610500  0.51203000  0.19047100  1
  H  H28  1  0.90985600  0.43840400  0.39997600  1
  H  H29  1  0.59014400  0.43840400  0.89997600  1
  H  H30  1  0.09014400  0.56159600  0.60002400  1
  H  H31  1  0.40985600  0.56159600  0.10002400  1
  H  H32  1  0.98910200  0.48344600  0.28268400  1
  H  H33  1  0.51089800  0.48344600  0.78268400  1
  H  H34  1  0.01089800  0.51655400  0.71731600  1
  H  H35  1  0.48910200  0.51655400  0.21731600  1
  H  H36  1  0.25124600  0.10652000  0.68323400  1
  H  H37  1  0.24875400  0.10652000  0.18323400  1
  H  H38  1  0.74875400  0.89348000  0.31676600  1
  H  H39  1  0.75124600  0.89348000  0.81676600  1
  H  H40  1  0.24951400  0.32495700  0.58200300  1
  H  H41  1  0.25048600  0.32495700  0.08200300  1
  H  H42  1  0.75048600  0.67504300  0.41799700  1
  H  H43  1  0.74951400  0.67504300  0.91799700  1
  H  H44  1  0.39234400  0.99099300  0.35231600  1
  H  H45  1  0.10765600  0.99099300  0.85231600  1
  H  H46  1  0.60765600  0.00900700  0.64768400  1
  H  H47  1  0.89234400  0.00900700  0.14768400  1
  H  H48  1  0.50723500  0.12249500  0.28500900  1
  H  H49  1  0.99276500  0.12249500  0.78500900  1
  H  H50  1  0.49276500  0.87750500  0.71499100  1
  H  H51  1  0.00723500  0.87750500  0.21499100  1
  H  H52  1  0.58038400  0.43655500  0.41882800  1
  H  H53  1  0.91961600  0.43655500  0.91882800  1
  H  H54  1  0.41961600  0.56344500  0.58117200  1
  H  H55  1  0.08038400  0.56344500  0.08117200  1
  H  H56  1  0.44534800  0.51932700  0.37919500  1
  H  H57  1  0.05465200  0.51932700  0.87919500  1
  H  H58  1  0.55465200  0.48067300  0.62080500  1
  H  H59  1  0.94534800  0.48067300  0.12080500  1
  O  O0  1  0.24899100  0.90261600  0.85435800  1
  O  O1  1  0.25100900  0.90261600  0.35435800  1
  O  O2  1  0.75100900  0.09738400  0.14564200  1
  O  O3  1  0.74899100  0.09738400  0.64564200  1
  O  O4  1  0.24786500  0.55819800  0.04083800  1
  O  O5  1  0.25213500  0.55819800  0.54083800  1
  O  O6  1  0.75213500  0.44180200  0.95916200  1
  O  O7  1  0.74786500  0.44180200  0.45916200  1
  O  O8  1  0.18181400  0.67384500  0.81797400  1
  O  O9  1  0.31818600  0.67384500  0.31797400  1
  O  O10  1  0.81818600  0.32615500  0.18202600  1
  O  O11  1  0.68181400  0.32615500  0.68202600  1
  O  O12  1  0.40168200  0.70653800  0.85888500  1
  O  O13  1  0.09831800  0.70653800  0.35888500  1
  O  O14  1  0.59831800  0.29346200  0.14111500  1
  O  O15  1  0.90168200  0.29346200  0.64111500  1
  O  O16  1  0.02122900  0.06864300  0.35384100  1
  O  O17  1  0.47877100  0.06864300  0.85384100  1
  O  O18  1  0.97877100  0.93135700  0.64615900  1
  O  O19  1  0.52122900  0.93135700  0.14615900  1
  O  O20  1  0.24687500  0.92748500  0.55446000  1
  O  O21  1  0.25312500  0.92748500  0.05446000  1
  O  O22  1  0.75312500  0.07251500  0.44554000  1
  O  O23  1  0.74687500  0.07251500  0.94554000  1
  O  O24  1  0.25077900  0.38027000  0.31340500  1
  O  O25  1  0.24922100  0.38027000  0.81340500  1
  O  O26  1  0.74922100  0.61973000  0.68659500  1
  O  O27  1  0.75077900  0.61973000  0.18659500  1
  O  O28  1  0.99234400  0.43630200  0.37289000  1
  O  O29  1  0.50765600  0.43630200  0.87289000  1
  O  O30  1  0.00765600  0.56369800  0.62711000  1
  O  O31  1  0.49234400  0.56369800  0.12711000  1
  O  O32  1  0.25025900  0.21164800  0.59093500  1
  O  O33  1  0.24974100  0.21164800  0.09093500  1
  O  O34  1  0.74974100  0.78835200  0.40906500  1
  O  O35  1  0.75025900  0.78835200  0.90906500  1
  O  O36  1  0.46301900  0.04088800  0.36659800  1
  O  O37  1  0.03698100  0.04088800  0.86659800  1
  O  O38  1  0.53698100  0.95911200  0.63340200  1
  O  O39  1  0.96301900  0.95911200  0.13340200  1
  O  O40  1  0.50162400  0.43061100  0.38685700  1
  O  O41  1  0.99837600  0.43061100  0.88685700  1
  O  O42  1  0.49837600  0.56938900  0.61314300  1
  O  O43  1  0.00162400  0.56938900  0.11314300  1
loop_
_geom_bond_atom_site_label_1
_geom_bond_atom_site_label_2
_geom_bond_distance
_geom_bond_site_symmetry_2
Na0 O28 2.353406 1_455
Na0 O20 2.371328 1_545
Na0 O18 2.404566 1_445
Na0 O24 2.428788 1_555
Na0 O32 2.446553 1_555
Na0 O16 2.479779 1_555
Na1 O29 2.353406 1_555
Na1 O21 2.371328 1_546
Na1 O19 2.404566 1_546
Na1 O25 2.428788 1_555
Na1 O33 2.446553 1_556
Na1 O17 2.479779 1_555
Na2 O30 2.353406 1_655
Na2 O22 2.371328 1_565
Na2 O16 2.404566 1_665
Na2 O26 2.428788 1_555
Na2 O34 2.446553 1_555
Na2 O18 2.479779 1_555
Na3 O31 2.353406 1_555
Na3 O23 2.371328 1_564
Na3 O17 2.404566 1_564
Na3 O27 2.428788 1_555
Na3 O35 2.446553 1_554
Na3 O19 2.479779 1_555
Na4 O38 2.350369 1_545
Na4 O40 2.363318 1_555
Na4 O20 2.364933 1_545
Na4 O36 2.425609 1_555
Na4 O24 2.442897 1_555
Na4 O32 2.476198 1_555
Na5 O39 2.350369 1_446
Na5 O41 2.363318 1_455
Na5 O21 2.364933 1_546
Na5 O37 2.425609 1_555
Na5 O25 2.442897 1_555
Na5 O33 2.476198 1_556
Na6 O36 2.350369 1_565
Na6 O42 2.363318 1_555
Na6 O22 2.364933 1_565
Na6 O38 2.425609 1_555
Na6 O26 2.442897 1_555
Na6 O34 2.476198 1_555
Na7 O37 2.350369 1_664
Na7 O43 2.363318 1_655
Na7 O23 2.364933 1_564
Na7 O39 2.425609 1_555
Na7 O27 2.442897 1_555
Na7 O35 2.476198 1_554
H0 O12 1.007109 1_555
H1 O13 1.007109 1_555
H2 O14 1.007109 1_555
H3 O15 1.007109 1_555
H4 O16 0.984365 1_555
H5 O17 0.984365 1_555
H6 O18 0.984365 1_555
H7 O19 0.984365 1_555
H8 O16 0.981061 1_655
H9 O17 0.981061 1_555
H10 O18 0.981061 1_455
H11 O19 0.981061 1_555
H12 O20 0.986517 1_555
H13 O21 0.986517 1_555
H14 O22 0.986517 1_555
H15 O23 0.986517 1_555
H16 O20 0.985327 1_555
H17 O21 0.985327 1_555
H18 O22 0.985327 1_555
H19 O23 0.985327 1_555
H20 O24 0.981689 1_555
H21 O25 0.981689 1_555
H22 O26 0.981689 1_555
H23 O27 0.981689 1_555
H24 O24 0.990145 1_555
H25 O25 0.990145 1_555
H26 O26 0.990145 1_555
H27 O27 0.990145 1_555
H28 O28 0.989620 1_555
H29 O29 0.989620 1_555
H30 O30 0.989620 1_555
H31 O31 0.989620 1_555
H32 O28 0.993013 1_555
H33 O29 0.993013 1_555
H34 O30 0.993013 1_555
H35 O31 0.993013 1_555
H36 O32 0.989383 1_555
H37 O33 0.989383 1_555
H38 O34 0.989383 1_555
H39 O35 0.989383 1_555
H40 O32 0.989489 1_555
H41 O33 0.989489 1_555
H42 O34 0.989489 1_555
H43 O35 0.989489 1_555
H44 O36 0.990252 1_565
H45 O37 0.990252 1_565
H46 O38 0.990252 1_545
H47 O39 0.990252 1_545
H48 O36 0.988236 1_555
H49 O37 0.988236 1_655
H50 O38 0.988236 1_555
H51 O39 0.988236 1_455
H52 O40 0.989931 1_555
H53 O41 0.989931 1_555
H54 O42 0.989931 1_555
H55 O43 0.989931 1_555
H56 O40 0.991655 1_555
H57 O41 0.991655 1_455
H58 O42 0.991655 1_555
H59 O43 0.991655 1_655
O0 P0 1.544639 1_555
O1 P1 1.544639 1_555
O2 P2 1.544639 1_555
O3 P3 1.544639 1_555
O4 P0 1.543650 1_554
O5 P1 1.543650 1_555
O6 P2 1.543650 1_556
O7 P3 1.543650 1_555
O8 P0 1.545789 1_555
O9 P1 1.545789 1_555
O10 P2 1.545789 1_555
O11 P3 1.545789 1_555
O12 P0 1.621740 1_555
O13 P1 1.621740 1_555
O14 P2 1.621740 1_555
O15 P3 1.621740 1_555
