# generated using pymatgen
data_VOF
_symmetry_space_group_name_H-M   'P 1'
_cell_length_a   3.10357600
_cell_length_b   4.75421400
_cell_length_c   14.19985200
_cell_angle_alpha   90.00000000
_cell_angle_beta   90.00000000
_cell_angle_gamma   90.00000000
_symmetry_Int_Tables_number   1
_chemical_formula_structural   VOF
_chemical_formula_sum   'V6 O6 F6'
_cell_volume   209.51973171
_cell_formula_units_Z   6
loop_
 _symmetry_equiv_pos_site_id
 _symmetry_equiv_pos_as_xyz
  1  'x, y, z'
loop_
 _atom_site_type_symbol
 _atom_site_label
 _atom_site_symmetry_multiplicity
 _atom_site_fract_x
 _atom_site_fract_y
 _atom_site_fract_z
 _atom_site_occupancy
  V  V0  1  0.00000000  0.72780800  0.00029400  1
  V  V1  1  0.00000000  0.82677900  0.33276300  1
  V  V2  1  0.00000000  0.73141800  0.66695500  1
  V  V3  1  0.50000000  0.26858200  0.16695500  1
  V  V4  1  0.50000000  0.27219200  0.50029400  1
  V  V5  1  0.50000000  0.17322100  0.83276300  1
  O  O0  1  0.50000000  0.98551900  0.26516000  1
  O  O1  1  0.50000000  0.91820500  0.93515500  1
  O  O2  1  0.00000000  0.01448100  0.76516000  1
  O  O3  1  0.00000000  0.08179500  0.43515500  1
  O  O4  1  0.00000000  0.45365000  0.56741600  1
  O  O5  1  0.50000000  0.54635000  0.06741600  1
  F  F0  1  0.50000000  0.94111200  0.60164300  1
  F  F1  1  0.00000000  0.05888800  0.10164300  1
  F  F2  1  0.00000000  0.47524900  0.23485600  1
  F  F3  1  0.00000000  0.41566200  0.89575900  1
  F  F4  1  0.50000000  0.58433800  0.39575900  1
  F  F5  1  0.50000000  0.52475100  0.73485600  1
loop_
_geom_bond_atom_site_label_1
_geom_bond_atom_site_label_2
_geom_bond_distance
_geom_bond_site_symmetry_2
O0 V3 1.937948 1_565
O0 V1 1.974615 1_555
O0 V1 1.974615 1_655
O1 V5 1.893116 1_565
O1 V0 2.020636 1_556
O1 V0 2.020636 1_656
O2 V2 1.937948 1_545
O2 V5 1.974615 1_555
O2 V5 1.974615 1_455
O3 V1 1.893116 1_545
O3 V4 2.020636 1_455
O3 V4 2.020636 1_555
O4 V2 1.934350 1_555
O4 V4 2.015124 1_555
O4 V4 2.015124 1_455
O5 V3 1.934350 1_555
O5 V0 2.015124 1_655
O5 V0 2.015124 1_555
F0 V2 2.064467 1_555
F0 V2 2.064467 1_655
F0 V4 2.132764 1_565
F1 V3 2.064467 1_555
F1 V3 2.064467 1_455
F1 V0 2.132764 1_545
F2 V3 2.074387 1_455
F2 V3 2.074387 1_555
F2 V1 2.173916 1_555
F3 V0 2.098969 1_556
F3 V5 2.129967 1_555
F3 V5 2.129967 1_455
F4 V4 2.098969 1_555
F4 V1 2.129967 1_555
F4 V1 2.129967 1_655
F5 V2 2.074387 1_555
F5 V2 2.074387 1_655
F5 V5 2.173916 1_555
