# generated using pymatgen
data_Li4V2Fe3O10
_symmetry_space_group_name_H-M   'P 1'
_cell_length_a   7.87177515
_cell_length_b   6.63311388
_cell_length_c   7.97839177
_cell_angle_alpha   114.64563002
_cell_angle_beta   83.71254912
_cell_angle_gamma   89.67215731
_symmetry_Int_Tables_number   1
_chemical_formula_structural   Li4V2Fe3O10
_chemical_formula_sum   'Li8 V4 Fe6 O20'
_cell_volume   375.75060629
_cell_formula_units_Z   2
loop_
 _symmetry_equiv_pos_site_id
 _symmetry_equiv_pos_as_xyz
  1  'x, y, z'
loop_
 _atom_site_type_symbol
 _atom_site_label
 _atom_site_symmetry_multiplicity
 _atom_site_fract_x
 _atom_site_fract_y
 _atom_site_fract_z
 _atom_site_occupancy
  Li  Li0  1  0.15310000  0.06077800  0.40653500  1
  Li  Li1  1  0.04812600  0.34541000  0.78397000  1
  Li  Li2  1  0.99689200  0.49506100  0.49140800  1
  Li  Li3  1  0.50310800  0.00493900  0.50859200  1
  Li  Li4  1  0.45187400  0.15459000  0.21603000  1
  Li  Li5  1  0.34690000  0.43922200  0.59346500  1
  Li  Li6  1  0.65571000  0.56220100  0.40272300  1
  Li  Li7  1  0.84429000  0.93779900  0.59727700  1
  V  V0  1  0.28566400  0.60298700  0.30335800  1
  V  V1  1  0.21433600  0.89701300  0.69664200  1
  V  V2  1  0.80035500  0.08805900  0.31305800  1
  V  V3  1  0.69964500  0.41194100  0.68694200  1
  Fe  Fe0  1  0.09178900  0.21749200  0.10922300  1
  Fe  Fe1  1  0.40821100  0.28250800  0.89077700  1
  Fe  Fe2  1  0.25000000  0.75000000  0.00000000  1
  Fe  Fe3  1  0.75000000  0.25000000  0.00000000  1
  Fe  Fe4  1  0.60689800  0.70854400  0.09683000  1
  Fe  Fe5  1  0.89310200  0.79145600  0.90317000  1
  O  O0  1  0.31113400  0.02412000  0.94243300  1
  O  O1  1  0.27763800  0.16531600  0.66660400  1
  O  O2  1  0.22236200  0.33468400  0.33339600  1
  O  O3  1  0.13561100  0.64513800  0.76648300  1
  O  O4  1  0.18886600  0.47588000  0.05756700  1
  O  O5  1  0.10047300  0.77588200  0.46127000  1
  O  O6  1  0.63195000  0.16217400  0.75082800  1
  O  O7  1  0.02746300  0.93790600  0.14342600  1
  O  O8  1  0.59236100  0.27855400  0.46029900  1
  O  O9  1  0.47253700  0.56209400  0.85657400  1
  O  O10  1  0.50650000  0.44082900  0.15576200  1
  O  O11  1  0.39952700  0.72411800  0.53873000  1
  O  O12  1  0.99350000  0.05917100  0.84423800  1
  O  O13  1  0.36438900  0.85486200  0.23351700  1
  O  O14  1  0.90763900  0.22144600  0.53970100  1
  O  O15  1  0.81461000  0.51069700  0.92644700  1
  O  O16  1  0.86805000  0.33782600  0.24917200  1
  O  O17  1  0.77790900  0.65680900  0.65991800  1
  O  O18  1  0.72209100  0.84319100  0.34008200  1
  O  O19  1  0.68539000  0.98930300  0.07355300  1
loop_
_geom_bond_atom_site_label_1
_geom_bond_atom_site_label_2
_geom_bond_distance
_geom_bond_site_symmetry_2
Li0 O13 2.106192 1_545
Li0 O14 2.140205 1_455
Li0 O5 2.142677 1_545
Li0 O2 2.182789 1_555
Li0 O1 2.236198 1_555
Li0 O7 2.255216 1_545
Li1 O1 2.059062 1_555
Li1 O15 2.086377 1_455
Li1 O3 2.161560 1_555
Li1 O12 2.178640 1_455
Li1 O14 2.200723 1_455
Li1 O4 2.388802 1_556
Li2 O17 2.048966 1_555
Li2 O2 2.059339 1_655
Li2 O14 2.115306 1_555
Li2 O5 2.130808 1_655
Li2 O16 2.147531 1_555
Li2 O3 2.390636 1_655
Li3 O18 2.048966 1_545
Li3 O1 2.059339 1_555
Li3 O8 2.115306 1_555
Li3 O11 2.130808 1_545
Li3 O6 2.147531 1_555
Li3 O13 2.390636 1_545
Li4 O2 2.059062 1_555
Li4 O19 2.086377 1_545
Li4 O13 2.161560 1_545
Li4 O10 2.178640 1_555
Li4 O8 2.200723 1_555
Li4 O0 2.388802 1_554
Li5 O3 2.106192 1_555
Li5 O8 2.140205 1_555
Li5 O11 2.142677 1_555
Li5 O1 2.182789 1_555
Li5 O2 2.236198 1_555
Li5 O9 2.255216 1_555
Li6 O16 2.124180 1_555
Li6 O8 2.163554 1_555
Li6 O18 2.174290 1_555
Li6 O17 2.212487 1_555
Li6 O11 2.218480 1_555
Li6 O10 2.259368 1_555
Li7 O6 2.124180 1_565
Li7 O14 2.163554 1_565
Li7 O17 2.174290 1_555
Li7 O18 2.212487 1_555
Li7 O5 2.218480 1_655
Li7 O12 2.259368 1_565
Fe0 O16 1.948235 1_455
Fe0 O2 2.027773 1_555
Fe0 O7 2.042714 1_545
Fe0 O4 2.055829 1_555
Fe0 O0 2.108351 1_554
Fe0 O12 2.164953 1_454
Fe1 O6 1.948235 1_555
Fe1 O1 2.027773 1_555
Fe1 O9 2.042714 1_555
Fe1 O0 2.055829 1_555
Fe1 O4 2.108351 1_556
Fe1 O10 2.164953 1_556
Fe2 O13 2.014831 1_555
Fe2 O3 2.014831 1_554
Fe2 O9 2.068346 1_554
Fe2 O7 2.068346 1_555
Fe2 O0 2.099222 1_564
Fe2 O4 2.099222 1_555
Fe3 O15 2.093875 1_554
Fe3 O19 2.093875 1_545
Fe3 O16 2.144752 1_555
Fe3 O6 2.144752 1_554
Fe3 O10 2.226926 1_555
Fe3 O12 2.226926 1_554
Fe4 O19 2.039833 1_555
Fe4 O15 2.060180 1_554
Fe4 O18 2.082202 1_555
Fe4 O13 2.101311 1_555
Fe4 O10 2.151765 1_555
Fe4 O9 2.153944 1_554
Fe5 O15 2.039833 1_555
Fe5 O19 2.060180 1_556
Fe5 O17 2.082202 1_555
Fe5 O3 2.101311 1_655
Fe5 O12 2.151765 1_565
Fe5 O7 2.153944 1_656
O0 V1 2.023055 1_545
O1 V1 1.952618 1_545
O2 V0 1.952618 1_555
O3 V1 2.049014 1_555
O4 V0 2.023055 1_555
O5 V0 1.844235 1_555
O5 V1 2.023346 1_555
O6 V3 1.985804 1_555
O7 V2 2.084499 1_465
O8 V3 1.942807 1_555
O8 V2 1.993588 1_555
O9 V3 2.084499 1_555
O10 V0 2.009832 1_555
O11 V1 1.844235 1_555
O11 V0 2.023346 1_555
O12 V1 2.009832 1_645
O13 V0 2.049014 1_555
O14 V2 1.942807 1_555
O14 V3 1.993588 1_555
O15 V3 2.059392 1_555
O16 V2 1.985804 1_555
O17 V3 1.827186 1_555
O18 V2 1.827186 1_565
O19 V2 2.059392 1_565
