# generated using pymatgen
data_Ti11H7O24
_symmetry_space_group_name_H-M   'P 1'
_cell_length_a   3.01129400
_cell_length_b   9.81478600
_cell_length_c   14.75625232
_cell_angle_alpha   89.54400530
_cell_angle_beta   90.00000000
_cell_angle_gamma   90.00000000
_symmetry_Int_Tables_number   1
_chemical_formula_structural   Ti11H7O24
_chemical_formula_sum   'Ti11 H7 O24'
_cell_volume   436.11026822
_cell_formula_units_Z   1
loop_
 _symmetry_equiv_pos_site_id
 _symmetry_equiv_pos_as_xyz
  1  'x, y, z'
loop_
 _atom_site_type_symbol
 _atom_site_label
 _atom_site_symmetry_multiplicity
 _atom_site_fract_x
 _atom_site_fract_y
 _atom_site_fract_z
 _atom_site_occupancy
  Ti  Ti0  1  0.00000000  0.85634500  0.66044400  1
  Ti  Ti1  1  0.00000000  0.85345600  0.98284700  1
  Ti  Ti2  1  0.50000000  0.65768200  0.16305200  1
  Ti  Ti3  1  0.50000000  0.66322200  0.48520900  1
  Ti  Ti4  1  0.50000000  0.63418000  0.82088500  1
  Ti  Ti5  1  0.00000000  0.34328400  0.17896100  1
  Ti  Ti6  1  0.00000000  0.36516600  0.50393100  1
  Ti  Ti7  1  0.00000000  0.36899400  0.84261600  1
  Ti  Ti8  1  0.50000000  0.14806400  0.67851800  1
  Ti  Ti9  1  0.50000000  0.14103700  0.00342400  1
  Ti  Ti10  1  0.50000000  0.12362100  0.34236100  1
  H  H0  1  0.00000000  0.00760300  0.14048900  1
  H  H1  1  0.00000000  0.93745900  0.41418400  1
  H  H2  1  0.50000000  0.47119400  0.30377800  1
  H  H3  1  0.50000000  0.46411300  0.64236700  1
  H  H4  1  0.00000000  0.52085700  0.03208300  1
  H  H5  1  0.50000000  0.03091400  0.18779500  1
  H  H6  1  0.50000000  0.97273200  0.52634700  1
  O  O0  1  0.50000000  0.96590600  0.93781300  1
  O  O1  1  0.50000000  0.99786500  0.25014900  1
  O  O2  1  0.50000000  0.96866100  0.59291000  1
  O  O3  1  0.50000000  0.77364700  0.05974400  1
  O  O4  1  0.50000000  0.78383500  0.73168500  1
  O  O5  1  0.50000000  0.80390400  0.41913200  1
  O  O6  1  0.00000000  0.71568500  0.22109700  1
  O  O7  1  0.00000000  0.72613400  0.57081600  1
  O  O8  1  0.00000000  0.71712000  0.89516400  1
  O  O9  1  0.00000000  0.54202100  0.43950700  1
  O  O10  1  0.00000000  0.52718700  0.09850800  1
  O  O11  1  0.00000000  0.53573000  0.76260800  1
  O  O12  1  0.50000000  0.46716800  0.23729500  1
  O  O13  1  0.50000000  0.46270300  0.90152900  1
  O  O14  1  0.50000000  0.46354500  0.57596800  1
  O  O15  1  0.50000000  0.26433900  0.11040800  1
  O  O16  1  0.50000000  0.29027600  0.44119300  1
  O  O17  1  0.50000000  0.28062500  0.77108500  1
  O  O18  1  0.00000000  0.23350400  0.28271500  1
  O  O19  1  0.00000000  0.22509700  0.94072800  1
  O  O20  1  0.00000000  0.23131400  0.60525900  1
  O  O21  1  0.00000000  0.04206100  0.72601400  1
  O  O22  1  0.00000000  0.02810300  0.07532500  1
  O  O23  1  0.00000000  0.03937400  0.41492700  1
loop_
_geom_bond_atom_site_label_1
_geom_bond_atom_site_label_2
_geom_bond_distance
_geom_bond_site_symmetry_2
H0 O22 0.980833 1_555
H1 O23 1.000421 1_565
H2 O12 0.982150 1_555
H3 O14 0.979861 1_555
H4 O10 0.982644 1_555
H5 O1 0.973175 1_545
H6 O2 0.982715 1_555
O0 Ti1 1.978635 1_555
O0 Ti1 1.978635 1_655
O0 Ti9 1.979488 1_566
O1 Ti10 1.844360 1_565
O2 Ti0 2.111348 1_555
O2 Ti0 2.111348 1_655
O2 Ti8 2.175233 1_565
O3 Ti2 1.895186 1_555
O3 Ti1 2.038128 1_654
O3 Ti1 2.038128 1_554
O4 Ti4 1.964492 1_555
O4 Ti0 1.966384 1_555
O4 Ti0 1.966384 1_655
O5 Ti3 1.683983 1_555
O6 Ti2 1.825503 1_555
O6 Ti2 1.825503 1_455
O7 Ti0 1.846448 1_555
O7 Ti3 2.063111 1_455
O7 Ti3 2.063111 1_555
O8 Ti1 1.868743 1_555
O8 Ti4 2.035982 1_455
O8 Ti4 2.035982 1_555
O9 Ti6 1.972426 1_555
O9 Ti3 2.037057 1_555
O9 Ti3 2.037057 1_455
O10 Ti5 2.152490 1_555
O10 Ti2 2.198615 1_555
O10 Ti2 2.198615 1_455
O11 Ti4 1.988311 1_555
O11 Ti4 1.988311 1_455
O11 Ti7 2.010266 1_555
O12 Ti5 2.122026 1_555
O12 Ti5 2.122026 1_655
O12 Ti2 2.159624 1_555
O13 Ti7 1.970115 1_555
O13 Ti7 1.970115 1_655
O13 Ti4 2.053473 1_555
O14 Ti6 2.084609 1_555
O14 Ti6 2.084609 1_655
O14 Ti3 2.364871 1_555
O15 Ti5 1.975630 1_655
O15 Ti5 1.975630 1_555
O15 Ti9 1.996795 1_555
O16 Ti6 1.917065 1_555
O16 Ti6 1.917065 1_655
O16 Ti10 2.200075 1_555
O17 Ti8 1.893895 1_555
O17 Ti7 2.036648 1_555
O17 Ti7 2.036648 1_655
O18 Ti5 1.865128 1_555
O18 Ti10 2.046862 1_455
O18 Ti10 2.046862 1_555
O19 Ti9 1.947156 1_456
O19 Ti9 1.947156 1_556
O19 Ti7 2.014478 1_555
O20 Ti6 1.982500 1_555
O20 Ti8 2.022166 1_555
O20 Ti8 2.022166 1_455
O21 Ti8 1.956783 1_455
O21 Ti8 1.956783 1_555
O21 Ti0 2.070440 1_545
O22 Ti9 2.145356 1_455
O22 Ti9 2.145356 1_555
O22 Ti1 2.199468 1_544
O23 Ti10 2.020694 1_555
O23 Ti10 2.020694 1_455
