# generated using pymatgen
data_Nd4Mo31O56
_symmetry_space_group_name_H-M   'P 1'
_cell_length_a   16.52592353
_cell_length_b   10.77278470
_cell_length_c   12.46970275
_cell_angle_alpha   64.69482278
_cell_angle_beta   49.01588714
_cell_angle_gamma   49.47044585
_symmetry_Int_Tables_number   1
_chemical_formula_structural   Nd4Mo31O56
_chemical_formula_sum   'Nd4 Mo31 O56'
_cell_volume   1273.75940898
_cell_formula_units_Z   1
loop_
 _symmetry_equiv_pos_site_id
 _symmetry_equiv_pos_as_xyz
  1  'x, y, z'
loop_
 _atom_site_type_symbol
 _atom_site_label
 _atom_site_symmetry_multiplicity
 _atom_site_fract_x
 _atom_site_fract_y
 _atom_site_fract_z
 _atom_site_occupancy
  Nd  Nd0  1  0.30089479  0.98047375  0.49502879  1
  Nd  Nd1  1  0.55377480  0.47352489  0.98892274  1
  Nd  Nd2  1  0.79876113  0.98070567  0.50774778  1
  Nd  Nd3  1  0.03291781  0.44340380  0.01445428  1
  Mo  Mo0  1  0.00719999  0.01074522  0.14116191  1
  Mo  Mo1  1  0.02478756  0.11735664  0.37243083  1
  Mo  Mo2  1  0.25068177  0.24674484  0.14755481  1
  Mo  Mo3  1  0.14131785  0.62176279  0.13220597  1
  Mo  Mo4  1  0.01520739  0.22966679  0.87142820  1
  Mo  Mo5  1  0.50235257  0.00828395  0.14377905  1
  Mo  Mo6  1  0.00197961  0.59978380  0.65178324  1
  Mo  Mo7  1  0.25566094  0.37359732  0.37527244  1
  Mo  Mo8  1  0.15549857  0.73913865  0.35376728  1
  Mo  Mo9  1  0.25607358  0.33351004  0.64480000  1
  Mo  Mo10  1  0.52646917  0.11976851  0.37124614  1
  Mo  Mo11  1  0.13022005  0.73590155  0.62807528  1
  Mo  Mo12  1  0.41009959  0.50576694  0.34876868  1
  Mo  Mo13  1  0.38599318  0.86544165  0.13361078  1
  Mo  Mo14  1  0.40050341  0.09905883  0.85662619  1
  Mo  Mo15  1  0.39045290  0.45916680  0.63556942  1
  Mo  Mo16  1  0.75625090  0.25824694  0.14037199  1
  Mo  Mo17  1  0.15155161  0.83410008  0.85557827  1
  Mo  Mo18  1  0.51046197  0.23813562  0.87518920  1
  Mo  Mo19  1  0.50635983  0.59928073  0.64214361  1
  Mo  Mo20  1  0.27789637  0.95833198  0.86935282  1
  Mo  Mo21  1  0.76536651  0.36889512  0.36892472  1
  Mo  Mo22  1  0.65692827  0.74237382  0.33718866  1
  Mo  Mo23  1  0.75473082  0.33316657  0.64468928  1
  Mo  Mo24  1  0.63511477  0.74068362  0.62147766  1
  Mo  Mo25  1  0.89840623  0.51002553  0.35774097  1
  Mo  Mo26  1  0.88332325  0.87482421  0.12999407  1
  Mo  Mo27  1  0.90534767  0.09466031  0.85182173  1
  Mo  Mo28  1  0.89364126  0.45717725  0.63233937  1
  Mo  Mo29  1  0.64972343  0.81706795  0.86957556  1
  Mo  Mo30  1  0.76979675  0.96347923  0.87446795  1
  O  O0  1  0.08234358  0.16611829  0.99099121  1
  O  O1  1  0.22144399  0.27662466  -0.00006364  1
  O  O2  1  0.20741191  0.07555609  0.24236890  1
  O  O3  1  0.07992205  0.45796224  0.24890954  1
  O  O4  1  0.31657388  0.39290363  0.03415182  1
  O  O5  1  0.07549574  0.42610299  0.53239781  1
  O  O6  1  0.30370898  0.18884160  0.28974212  1
  O  O7  1  0.18818166  0.81306864  0.00079567  1
  O  O8  1  0.20120525  0.01554894  0.74720414  1
  O  O9  1  0.20812937  0.56168888  0.25547882  1
  O  O10  1  0.05912842  0.40962634  0.78679513  1
  O  O11  1  0.07291759  0.95455798  0.26093320  1
  O  O12  1  0.32818554  0.17992710  0.49404874  1
  O  O13  1  0.57819120  0.16168481  0.00180601  1
  O  O14  1  0.43567694  0.34328900  0.26781903  1
  O  O15  1  0.09889445  0.89299038  0.48290954  1
  O  O16  1  0.33682550  0.12521533  0.74758420  1
  O  O17  1  0.35362378  0.67738618  0.20658701  1
  O  O18  1  0.19492881  0.51877755  0.74833713  1
  O  O19  1  0.73344722  0.27676338  0.99137109  1
  O  O20  1  0.43839747  0.31283506  0.49883191  1
  O  O21  1  0.09102249  0.90881697  0.71826600  1
  O  O22  1  0.06749800  0.69390472  0.00641167  1
  O  O23  1  0.71115834  0.08112877  0.24292162  1
  O  O24  1  0.32094095  0.65025814  0.50270901  1
  O  O25  1  0.57666783  0.46135895  0.21809059  1
  O  O26  1  0.45355674  0.25727329  0.75468634  1
  O  O27  1  0.41617479  0.86830639  0.26211899  1
  O  O28  1  0.33318636  0.63227105  0.74577069  1
  O  O29  1  0.84495498  0.37627625  0.02137049  1
  O  O30  1  0.57118921  0.43261724  0.53218796  1
  O  O31  1  0.80857533  0.18871643  0.28214553  1
  O  O32  1  0.47693218  0.77644854  0.49663525  1
  O  O33  1  0.68077242  0.82706064  0.99266222  1
  O  O34  1  0.69734783  0.00367069  0.75534615  1
  O  O35  1  0.74496916  0.56402836  0.23223148  1
  O  O36  1  0.55622511  0.41879901  0.78742142  1
  O  O37  1  0.57252584  0.96041163  0.25763952  1
  O  O38  1  0.82784015  0.17183292  0.50223276  1
  O  O39  1  0.46610121  0.75578143  0.74597169  1
  O  O40  1  0.95514642  0.32999039  0.24994266  1
  O  O41  1  0.60969528  0.88737680  0.46926306  1
  O  O42  1  0.34571376  0.93857314  0.97908990  1
  O  O43  1  0.82634707  0.13334073  0.75803885  1
  O  O44  1  0.85184408  0.68722762  0.20767360  1
  O  O45  1  0.69850014  0.51775638  0.74640002  1
  O  O46  1  0.93586055  0.31129247  0.50193751  1
  O  O47  1  0.59160429  0.90629663  0.72863414  1
  O  O48  1  0.56281560  0.69386445  0.98607861  1
  O  O49  1  0.82030711  0.66128217  0.51065597  1
  O  O50  1  0.96431539  0.25154358  0.75017532  1
  O  O51  1  0.94509508  0.84411809  0.24865774  1
  O  O52  1  0.83199243  0.62317073  0.75444043  1
  O  O53  1  0.97263274  0.77054787  0.50940682  1
  O  O54  1  0.95977906  0.75450917  0.75454022  1
  O  O55  1  0.84873644  0.93695390  0.97787474  1
loop_
_geom_bond_atom_site_label_1
_geom_bond_atom_site_label_2
_geom_bond_distance
_geom_bond_site_symmetry_2
Nd0 O32 2.241214 1_555
Nd0 O12 2.459699 1_565
Nd0 O8 2.481233 1_565
Nd0 O27 2.505026 1_555
Nd0 O6 2.580896 1_565
Nd0 O21 3.058221 1_555
Nd1 O19 2.279036 1_555
Nd1 O45 2.419675 1_555
Nd1 O48 2.457621 1_555
Nd1 O17 2.647519 1_556
Nd1 O36 2.786495 1_555
Nd1 O14 2.890799 1_556
Nd1 O13 3.055489 1_556
Nd1 O25 3.059412 1_556
Nd2 O53 2.228347 1_555
Nd2 O38 2.365716 1_565
Nd2 O34 2.393597 1_565
Nd2 O31 2.728835 1_565
Nd2 O51 2.764443 1_555
Nd3 O1 2.287059 1_555
Nd3 O40 2.406407 1_455
Nd3 O0 2.634070 1_554
Nd3 O44 2.719651 1_455
Nd3 O10 2.728433 1_554
Nd3 O18 2.776248 1_554
Nd3 O22 3.052346 1_555
Nd3 O35 3.120424 1_455
Mo0 O11 2.068056 1_545
Mo0 O7 2.141426 1_545
Mo0 O51 2.145977 1_445
Mo0 O31 2.161905 1_455
Mo0 O0 2.195913 1_554
Mo1 O2 2.092662 1_555
Mo1 O11 2.112451 1_545
Mo1 O15 2.181541 1_545
Mo1 O40 2.189298 1_455
Mo1 O46 2.216609 1_455
Mo1 O38 2.230910 1_455
Mo2 O4 1.992418 1_555
Mo2 O2 2.012753 1_555
Mo2 O3 2.042812 1_555
Mo2 O1 2.045347 1_555
Mo2 O6 2.163982 1_555
Mo3 O9 2.109017 1_555
Mo3 O3 2.110900 1_555
Mo3 O4 2.147852 1_555
Mo3 O22 2.188266 1_555
Mo3 O7 2.248339 1_555
Mo3 O51 2.250225 1_455
Mo4 O29 1.937854 1_456
Mo4 O50 2.038324 1_455
Mo4 O0 2.057301 1_555
Mo4 O10 2.115193 1_555
Mo4 O8 2.182291 1_555
Mo5 O37 2.093597 1_545
Mo5 O33 2.105154 1_544
Mo5 O27 2.147544 1_545
Mo5 O13 2.171698 1_555
Mo5 O6 2.182442 1_555
Mo6 O53 1.987258 1_455
Mo6 O54 2.012311 1_455
Mo6 O52 2.057333 1_455
Mo6 O5 2.060922 1_555
Mo6 O10 2.132040 1_555
Mo7 O9 1.958857 1_555
Mo7 O5 2.032326 1_555
Mo7 O6 2.092672 1_555
Mo7 O12 2.102359 1_555
Mo7 O14 2.152937 1_555
Mo8 O11 2.060955 1_555
Mo8 O9 2.087265 1_555
Mo8 O15 2.122752 1_555
Mo8 O53 2.133761 1_455
Mo8 O17 2.204979 1_555
Mo9 O16 2.086093 1_555
Mo9 O18 2.131153 1_555
Mo9 O10 2.148028 1_555
Mo9 O20 2.172977 1_555
Mo9 O12 2.202067 1_555
Mo10 O37 2.121272 1_545
Mo10 O23 2.135739 1_555
Mo10 O41 2.183377 1_545
Mo10 O20 2.198278 1_555
Mo10 O14 2.213719 1_555
Mo10 O12 2.238064 1_555
Mo11 O15 1.969862 1_555
Mo11 O54 2.042261 1_455
Mo11 O24 2.054202 1_555
Mo11 O21 2.102731 1_555
Mo11 O18 2.171982 1_555
Mo12 O25 1.879549 1_555
Mo12 O24 2.035264 1_555
Mo12 O14 2.061667 1_555
Mo12 O17 2.135013 1_555
Mo12 O20 2.144724 1_555
Mo13 O27 1.981993 1_555
Mo13 O48 2.043399 1_554
Mo13 O2 2.089191 1_565
Mo13 O17 2.100571 1_555
Mo13 O42 2.116491 1_554
Mo14 O26 1.979317 1_555
Mo14 O42 2.026004 1_545
Mo14 O16 2.049296 1_555
Mo14 O1 2.058689 1_556
Mo14 O47 2.128744 1_545
Mo15 O26 2.084811 1_555
Mo15 O28 2.110134 1_555
Mo15 O24 2.193051 1_555
Mo15 O30 2.195259 1_555
Mo15 O20 2.218672 1_555
Mo15 O18 2.223889 1_555
Mo16 O29 1.980862 1_555
Mo16 O25 2.033463 1_555
Mo16 O19 2.034174 1_554
Mo16 O23 2.084081 1_555
Mo16 O31 2.113176 1_555
Mo17 O28 2.069780 1_555
Mo17 O21 2.145284 1_555
Mo17 O7 2.146089 1_556
Mo17 O22 2.149256 1_556
Mo17 O8 2.166185 1_565
Mo18 O13 2.105298 1_556
Mo18 O26 2.126388 1_555
Mo18 O4 2.127613 1_556
Mo18 O36 2.136355 1_555
Mo18 O34 2.277229 1_555
Mo19 O30 1.982166 1_555
Mo19 O32 2.040114 1_555
Mo19 O28 2.050904 1_555
Mo19 O39 2.059043 1_555
Mo19 O36 2.146129 1_555
Mo20 O16 2.118550 1_565
Mo20 O39 2.138850 1_555
Mo20 O42 2.150919 1_555
Mo20 O0 2.196841 1_565
Mo20 O7 2.229060 1_556
Mo20 O8 2.240638 1_565
Mo21 O35 2.051230 1_555
Mo21 O31 2.104542 1_555
Mo21 O30 2.162360 1_555
Mo21 O38 2.172950 1_555
Mo21 O40 2.220996 1_555
Mo22 O35 1.881458 1_555
Mo22 O37 2.002909 1_555
Mo22 O32 2.093611 1_555
Mo22 O41 2.165666 1_555
Mo22 O44 2.201466 1_555
Mo23 O43 2.077123 1_555
Mo23 O36 2.142951 1_555
Mo23 O45 2.152882 1_555
Mo23 O46 2.153344 1_555
Mo23 O38 2.175080 1_555
Mo24 O41 1.973659 1_555
Mo24 O49 2.017030 1_555
Mo24 O39 2.043455 1_555
Mo24 O47 2.143813 1_555
Mo24 O45 2.228004 1_555
Mo25 O3 2.068534 1_655
Mo25 O46 2.155558 1_555
Mo25 O49 2.156739 1_555
Mo25 O40 2.158593 1_555
Mo25 O44 2.159582 1_555
Mo26 O22 2.035355 1_655
Mo26 O55 2.052424 1_554
Mo26 O23 2.054069 1_565
Mo26 O44 2.079671 1_555
Mo26 O51 2.113076 1_555
Mo27 O55 2.021454 1_545
Mo27 O50 2.025240 1_555
Mo27 O43 2.030949 1_555
Mo27 O19 2.034147 1_555
Mo27 O21 2.088126 1_645
Mo28 O52 2.116343 1_555
Mo28 O50 2.129853 1_555
Mo28 O49 2.168494 1_555
Mo28 O5 2.198505 1_655
Mo28 O46 2.207298 1_555
Mo28 O45 2.211447 1_555
Mo29 O33 1.968939 1_555
Mo29 O48 2.006772 1_555
Mo29 O52 2.052143 1_555
Mo29 O47 2.122578 1_555
Mo29 O34 2.197113 1_565
Mo30 O43 2.121649 1_565
Mo30 O33 2.147234 1_555
Mo30 O13 2.150119 1_566
Mo30 O54 2.166760 1_555
Mo30 O55 2.202997 1_555
Mo30 O34 2.221861 1_565
