# generated using pymatgen
data_LiSnP2O7
_symmetry_space_group_name_H-M   'P 1'
_cell_length_a   6.66296400
_cell_length_b   6.73658217
_cell_length_c   6.82123751
_cell_angle_alpha   66.61574315
_cell_angle_beta   80.89231618
_cell_angle_gamma   81.39541628
_symmetry_Int_Tables_number   1
_chemical_formula_structural   LiSnP2O7
_chemical_formula_sum   'Li2 Sn2 P4 O14'
_cell_volume   276.20895098
_cell_formula_units_Z   2
loop_
 _symmetry_equiv_pos_site_id
 _symmetry_equiv_pos_as_xyz
  1  'x, y, z'
loop_
 _atom_site_type_symbol
 _atom_site_label
 _atom_site_symmetry_multiplicity
 _atom_site_fract_x
 _atom_site_fract_y
 _atom_site_fract_z
 _atom_site_occupancy
  Li  Li0  1  0.88138800  0.33940700  0.14337900  1
  Li  Li1  1  0.11861200  0.66059300  0.85662100  1
  Sn  Sn0  1  0.67488500  0.11275000  0.74770900  1
  Sn  Sn1  1  0.32511500  0.88725000  0.25229100  1
  P  P0  1  0.84729800  0.77481600  0.23446500  1
  P  P1  1  0.60794100  0.64868700  0.67644900  1
  P  P2  1  0.39205900  0.35131300  0.32355100  1
  P  P3  1  0.15270200  0.22518400  0.76553500  1
  O  O0  1  0.01233000  0.08338800  0.72906600  1
  O  O1  1  0.94962300  0.62177100  0.13036500  1
  O  O2  1  0.74113600  0.62251500  0.46336900  1
  O  O3  1  0.72485400  0.78777200  0.74195600  1
  O  O4  1  0.66515800  0.93116900  0.11367700  1
  O  O5  1  0.60571200  0.41262600  0.83588800  1
  O  O6  1  0.60759500  0.24747100  0.38806900  1
  O  O7  1  0.39240500  0.75252900  0.61193100  1
  O  O8  1  0.39428800  0.58737400  0.16411200  1
  O  O9  1  0.33484200  0.06883100  0.88632300  1
  O  O10  1  0.27514600  0.21222800  0.25804400  1
  O  O11  1  0.25886400  0.37748500  0.53663100  1
  O  O12  1  0.05037700  0.37822900  0.86963500  1
  O  O13  1  0.98767000  0.91661200  0.27093400  1
loop_
_geom_bond_atom_site_label_1
_geom_bond_atom_site_label_2
_geom_bond_distance
_geom_bond_site_symmetry_2
Li0 O12 1.964121 1_654
Li0 O1 1.986150 1_555
Li0 O6 2.247437 1_555
Li1 O1 1.964121 1_456
Li1 O12 1.986150 1_555
Li1 O7 2.247437 1_555
O0 P3 1.542310 1_555
O0 Sn0 2.215152 1_455
O1 P0 1.499854 1_555
O2 P0 1.608372 1_555
O2 P1 1.636918 1_555
O3 P1 1.531440 1_555
O3 Sn0 2.179707 1_565
O4 P0 1.583115 1_555
O4 Sn0 2.298010 1_564
O4 Sn1 2.327067 1_555
O5 P1 1.530032 1_555
O5 Sn0 2.292017 1_555
O6 P2 1.549369 1_555
O6 Sn0 2.345626 1_555
O7 P1 1.549369 1_555
O7 Sn1 2.345626 1_555
O8 P2 1.530032 1_555
O8 Sn1 2.292017 1_555
O9 P3 1.583115 1_555
O9 Sn1 2.298010 1_546
O9 Sn0 2.327067 1_555
O10 P2 1.531440 1_555
O10 Sn1 2.179707 1_545
O11 P3 1.608372 1_555
O11 P2 1.636918 1_555
O12 P3 1.499854 1_555
O13 P0 1.542310 1_555
O13 Sn1 2.215152 1_655
