# generated using pymatgen
data_Li24Mn7Cr5O36
_symmetry_space_group_name_H-M   'P 1'
_cell_length_a   5.01502400
_cell_length_b   9.74686043
_cell_length_c   13.27839346
_cell_angle_alpha   97.20789452
_cell_angle_beta   100.76349028
_cell_angle_gamma   94.77816045
_symmetry_Int_Tables_number   1
_chemical_formula_structural   Li24Mn7Cr5O36
_chemical_formula_sum   'Li24 Mn7 Cr5 O36'
_cell_volume   628.79503648
_cell_formula_units_Z   1
loop_
 _symmetry_equiv_pos_site_id
 _symmetry_equiv_pos_as_xyz
  1  'x, y, z'
loop_
 _atom_site_type_symbol
 _atom_site_label
 _atom_site_symmetry_multiplicity
 _atom_site_fract_x
 _atom_site_fract_y
 _atom_site_fract_z
 _atom_site_occupancy
  Li  Li0  1  0.16512900  0.99976000  0.83464700  1
  Li  Li1  1  0.04748200  0.00075100  0.61360700  1
  Li  Li2  1  0.00123800  0.75018600  0.25020000  1
  Li  Li3  1  0.32945200  0.75066400  0.91745600  1
  Li  Li4  1  0.04938900  0.49882900  0.11190900  1
  Li  Li5  1  0.37853300  0.49961900  0.77705000  1
  Li  Li6  1  0.16505500  0.49944600  0.33285400  1
  Li  Li7  1  0.50204600  0.50002400  0.00099300  1
  Li  Li8  1  0.27902900  0.50022600  0.55518900  1
  Li  Li9  1  0.32950000  0.25061500  0.41571500  1
  Li  Li10  1  0.50583200  0.99902200  0.49888200  1
  Li  Li11  1  0.28180600  0.00002300  0.05332400  1
  Li  Li12  1  0.61939400  0.99998500  0.71987700  1
  Li  Li13  1  0.37973500  0.99890700  0.27863200  1
  Li  Li14  1  0.71884300  0.00081300  0.94733100  1
  Li  Li15  1  0.66905700  0.74878000  0.58382300  1
  Li  Li16  1  0.71933300  0.50069200  0.44639000  1
  Li  Li17  1  0.83607300  0.50066300  0.66687900  1
  Li  Li18  1  0.61932100  0.50216900  0.22123000  1
  Li  Li19  1  0.95312600  0.49928700  0.88752400  1
  Li  Li20  1  0.66470000  0.24907100  0.08327200  1
  Li  Li21  1  0.83237900  0.00023200  0.16688200  1
  Li  Li22  1  0.99804700  0.25006800  0.74955600  1
  Li  Li23  1  0.95256200  0.99827700  0.38629600  1
  Mn  Mn0  1  0.10947300  0.24907600  0.97308800  1
  Mn  Mn1  1  0.21806600  0.74722600  0.69400600  1
  Mn  Mn2  1  0.22005400  0.24840400  0.19339400  1
  Mn  Mn3  1  0.44481200  0.74977700  0.13882100  1
  Mn  Mn4  1  0.55714900  0.75149400  0.35998800  1
  Mn  Mn5  1  0.89384100  0.25179700  0.52829700  1
  Mn  Mn6  1  0.89248200  0.75139100  0.02873400  1
  Cr  Cr0  1  0.11732100  0.75024400  0.47361100  1
  Cr  Cr1  1  0.44671800  0.25140700  0.63663300  1
  Cr  Cr2  1  0.55072100  0.24927800  0.86094800  1
  Cr  Cr3  1  0.76967100  0.75049900  0.80716900  1
  Cr  Cr4  1  0.77036200  0.25026100  0.30599200  1
  O  O0  1  0.00319700  0.86364300  0.93178400  1
  O  O1  1  0.07063400  0.63643000  0.78567000  1
  O  O2  1  0.00562600  0.36411800  0.43111400  1
  O  O3  1  0.13769200  0.36284800  0.64320000  1
  O  O4  1  0.26446500  0.36422600  0.88345200  1
  O  O5  1  0.32802200  0.86155000  0.59500900  1
  O  O6  1  0.07074700  0.13588000  0.28473100  1
  O  O7  1  0.19252800  0.13828900  0.52511100  1
  O  O8  1  0.40074500  0.13522200  0.95270900  1
  O  O9  1  0.14428000  0.86135600  0.14348900  1
  O  O10  1  0.26813500  0.86603200  0.38018600  1
  O  O11  1  0.47860200  0.86138500  0.80876200  1
  O  O12  1  0.34132800  0.13780200  0.73880800  1
  O  O13  1  0.19139200  0.63831300  0.02365800  1
  O  O14  1  0.39856600  0.63690700  0.44988200  1
  O  O15  1  0.51611000  0.63704400  0.68802700  1
  O  O16  1  0.33323100  0.63846100  0.23763700  1
  O  O17  1  0.67222900  0.63835100  0.90404500  1
  O  O18  1  0.33407800  0.36149500  0.09567900  1
  O  O19  1  0.66203500  0.36305600  0.76017000  1
  O  O20  1  0.47771500  0.36189400  0.30861200  1
  O  O21  1  0.59715500  0.36344800  0.54785000  1
  O  O22  1  0.81114300  0.36243300  0.97547200  1
  O  O23  1  0.66879300  0.86196500  0.26133500  1
  O  O24  1  0.51687700  0.13663900  0.18880400  1
  O  O25  1  0.74236800  0.13445800  0.61707100  1
  O  O26  1  0.85955000  0.13738700  0.85792900  1
  O  O27  1  0.59723600  0.86302100  0.04799800  1
  O  O28  1  0.80982700  0.86195100  0.47529500  1
  O  O29  1  0.93052600  0.86373300  0.71604300  1
  O  O30  1  0.67272300  0.13860400  0.40364000  1
  O  O31  1  0.73695100  0.63598500  0.11845000  1
  O  O32  1  0.85491200  0.63805400  0.35739200  1
  O  O33  1  0.99549100  0.63711100  0.57312500  1
  O  O34  1  0.93169700  0.36376000  0.21620900  1
  O  O35  1  0.99566100  0.13818700  0.07145500  1
loop_
_geom_bond_atom_site_label_1
_geom_bond_atom_site_label_2
_geom_bond_distance
_geom_bond_site_symmetry_2
Li0 O8 2.031228 1_565
Li0 O29 2.036268 1_455
Li0 O26 2.158446 1_465
Li0 O0 2.173584 1_555
Li0 O11 2.201666 1_555
Li0 O12 2.205046 1_565
Li1 O5 2.060323 1_545
Li1 O7 2.063775 1_555
Li1 O25 2.094120 1_455
Li1 O29 2.144995 1_445
Li1 O28 2.216756 1_445
Li1 O12 2.218007 1_555
Li2 O9 2.081321 1_555
Li2 O23 2.083924 1_455
Li2 O16 2.084695 1_555
Li2 O32 2.098995 1_455
Li2 O10 2.107574 1_555
Li2 O31 2.110853 1_455
Li3 O0 2.071171 1_555
Li3 O13 2.071978 1_556
Li3 O1 2.099659 1_555
Li3 O27 2.101570 1_556
Li3 O11 2.113478 1_555
Li3 O17 2.136372 1_555
Li4 O18 2.058528 1_555
Li4 O13 2.068540 1_555
Li4 O31 2.149528 1_455
Li4 O34 2.152437 1_455
Li4 O22 2.190794 1_454
Li4 O16 2.210228 1_555
Li5 O19 2.050080 1_555
Li5 O15 2.053169 1_555
Li5 O1 2.132209 1_555
Li5 O4 2.169992 1_555
Li5 O3 2.174901 1_555
Li5 O17 2.238245 1_555
Li6 O34 2.017100 1_455
Li6 O14 2.029207 1_555
Li6 O2 2.174219 1_555
Li6 O32 2.186191 1_455
Li6 O16 2.187138 1_555
Li6 O20 2.188642 1_555
Li7 O31 2.027666 1_555
Li7 O4 2.032681 1_554
Li7 O22 2.178239 1_554
Li7 O18 2.178421 1_555
Li7 O13 2.181216 1_555
Li7 O17 2.203993 1_554
Li8 O3 2.050616 1_555
Li8 O33 2.054644 1_455
Li8 O2 2.158469 1_555
Li8 O15 2.159980 1_555
Li8 O21 2.170701 1_555
Li8 O14 2.176451 1_555
Li9 O2 2.066515 1_555
Li9 O6 2.094442 1_555
Li9 O20 2.097386 1_555
Li9 O7 2.104054 1_555
Li9 O21 2.116568 1_555
Li9 O30 2.133691 1_555
Li10 O10 2.028165 1_555
Li10 O25 2.033854 1_565
Li10 O28 2.149399 1_555
Li10 O30 2.188196 1_565
Li10 O7 2.207648 1_565
Li10 O5 2.207949 1_555
Li11 O9 2.072439 1_545
Li11 O35 2.073739 1_455
Li11 O8 2.117948 1_554
Li11 O0 2.152619 1_544
Li11 O27 2.158820 1_545
Li11 O24 2.178154 1_555
Li12 O12 2.042185 1_565
Li12 O11 2.066147 1_555
Li12 O29 2.135139 1_555
Li12 O25 2.142549 1_565
Li12 O26 2.212466 1_565
Li12 O5 2.215884 1_555
Li13 O24 2.062116 1_565
Li13 O23 2.074978 1_555
Li13 O10 2.099601 1_555
Li13 O6 2.134135 1_565
Li13 O9 2.180143 1_555
Li13 O30 2.226383 1_565
Li14 O0 2.054762 1_645
Li14 O26 2.057215 1_555
Li14 O27 2.140320 1_546
Li14 O8 2.152557 1_555
Li14 O35 2.172198 1_556
Li14 O11 2.226133 1_545
Li15 O33 2.056638 1_555
Li15 O15 2.079503 1_555
Li15 O28 2.107365 1_555
Li15 O29 2.111613 1_555
Li15 O5 2.126598 1_555
Li15 O14 2.134964 1_555
Li16 O32 2.048622 1_555
Li16 O2 2.057669 1_655
Li16 O21 2.145670 1_555
Li16 O14 2.172750 1_555
Li16 O33 2.186134 1_555
Li16 O20 2.218839 1_555
Li17 O1 2.036359 1_655
Li17 O21 2.053681 1_555
Li17 O33 2.137236 1_555
Li17 O3 2.145090 1_655
Li17 O19 2.172776 1_555
Li17 O15 2.202420 1_555
Li18 O16 2.057258 1_555
Li18 O20 2.064958 1_555
Li18 O31 2.128597 1_555
Li18 O34 2.155705 1_555
Li18 O32 2.181635 1_555
Li18 O18 2.216863 1_555
Li19 O22 2.047760 1_555
Li19 O17 2.056379 1_555
Li19 O4 2.128349 1_655
Li19 O1 2.140875 1_655
Li19 O13 2.200089 1_656
Li19 O19 2.223831 1_555
Li20 O35 2.073913 1_555
Li20 O18 2.082429 1_555
Li20 O24 2.086177 1_555
Li20 O8 2.098715 1_554
Li20 O22 2.112702 1_554
Li20 O34 2.128630 1_555
Li21 O6 2.035838 1_655
Li21 O27 2.045317 1_545
Li21 O23 2.164831 1_545
Li21 O35 2.171594 1_555
Li21 O24 2.186618 1_555
Li21 O9 2.191832 1_645
Li22 O3 2.079408 1_655
Li22 O26 2.098158 1_555
Li22 O25 2.104270 1_555
Li22 O19 2.105039 1_555
Li22 O12 2.132586 1_655
Li22 O4 2.133743 1_655
Li23 O28 2.055746 1_555
Li23 O30 2.062706 1_565
Li23 O10 2.129375 1_655
Li23 O6 2.142171 1_665
Li23 O23 2.189402 1_555
Li23 O7 2.230422 1_665
Mn0 O35 1.931304 1_456
Mn0 O26 1.932191 1_455
Mn0 O22 1.935062 1_455
Mn0 O8 1.944425 1_555
Mn0 O18 1.944508 1_556
Mn0 O4 1.953436 1_555
Mn1 O33 1.916545 1_455
Mn1 O15 1.919400 1_555
Mn1 O1 1.930621 1_555
Mn1 O29 1.949771 1_455
Mn1 O5 1.951834 1_555
Mn1 O11 1.963632 1_555
Mn2 O24 1.921886 1_555
Mn2 O35 1.929673 1_455
Mn2 O18 1.938178 1_555
Mn2 O6 1.941808 1_555
Mn2 O34 1.948397 1_455
Mn2 O20 1.957743 1_555
Mn3 O16 1.934506 1_555
Mn3 O9 1.936291 1_555
Mn3 O13 1.939354 1_555
Mn3 O23 1.941737 1_555
Mn3 O31 1.947619 1_555
Mn3 O27 1.948033 1_555
Mn4 O23 1.927772 1_555
Mn4 O32 1.933485 1_555
Mn4 O28 1.934809 1_555
Mn4 O10 1.938729 1_555
Mn4 O16 1.943586 1_555
Mn4 O14 1.961075 1_555
Mn5 O3 1.913927 1_655
Mn5 O2 1.923670 1_655
Mn5 O7 1.938447 1_655
Mn5 O25 1.950029 1_555
Mn5 O21 1.951573 1_555
Mn5 O30 1.959354 1_555
Mn6 O0 1.918806 1_654
Mn6 O9 1.926453 1_655
Mn6 O13 1.939267 1_655
Mn6 O27 1.944647 1_555
Mn6 O31 1.957034 1_555
Mn6 O17 1.957464 1_554
Cr0 O5 1.904191 1_555
Cr0 O14 1.909761 1_555
Cr0 O28 1.962268 1_455
Cr0 O32 1.971624 1_455
Cr0 O33 1.972368 1_455
Cr0 O10 1.986003 1_555
Cr1 O21 1.915610 1_555
Cr1 O7 1.919523 1_555
Cr1 O19 1.932810 1_555
Cr1 O12 1.973183 1_555
Cr1 O3 1.973925 1_555
Cr1 O25 1.978964 1_555
Cr2 O12 1.909242 1_555
Cr2 O4 1.936390 1_555
Cr2 O8 1.956796 1_555
Cr2 O22 1.957538 1_555
Cr2 O19 1.969885 1_555
Cr2 O26 1.970617 1_555
Cr3 O11 1.888904 1_555
Cr3 O17 1.893942 1_555
Cr3 O29 1.970875 1_555
Cr3 O15 1.979386 1_555
Cr3 O0 1.982128 1_655
Cr3 O1 1.989115 1_655
Cr4 O30 1.899430 1_555
Cr4 O20 1.901226 1_555
Cr4 O34 1.960064 1_555
Cr4 O24 1.964183 1_555
Cr4 O6 1.987868 1_655
Cr4 O2 1.992722 1_655
