# generated using pymatgen
data_W5O12F
_symmetry_space_group_name_H-M   'P 1'
_cell_length_a   3.87469300
_cell_length_b   6.41477700
_cell_length_c   18.17149800
_cell_angle_alpha   90.00000000
_cell_angle_beta   90.00000000
_cell_angle_gamma   90.00000000
_symmetry_Int_Tables_number   1
_chemical_formula_structural   W5O12F
_chemical_formula_sum   'W10 O24 F2'
_cell_volume   451.65788048
_cell_formula_units_Z   2
loop_
 _symmetry_equiv_pos_site_id
 _symmetry_equiv_pos_as_xyz
  1  'x, y, z'
loop_
 _atom_site_type_symbol
 _atom_site_label
 _atom_site_symmetry_multiplicity
 _atom_site_fract_x
 _atom_site_fract_y
 _atom_site_fract_z
 _atom_site_occupancy
  W  W0  1  0.00000000  0.23230900  0.64828300  1
  W  W1  1  0.00000000  0.23230900  0.85171700  1
  W  W2  1  0.00000000  0.22102000  0.25000000  1
  W  W3  1  0.00000000  0.30327300  0.06184900  1
  W  W4  1  0.00000000  0.30327300  0.43815100  1
  W  W5  1  0.00000000  0.69672700  0.56184900  1
  W  W6  1  0.00000000  0.69672700  0.93815100  1
  W  W7  1  0.00000000  0.77898000  0.75000000  1
  W  W8  1  0.00000000  0.76769100  0.35171700  1
  W  W9  1  0.00000000  0.76769100  0.14828300  1
  O  O0  1  0.00000000  0.08977100  0.14009100  1
  O  O1  1  0.00000000  0.08977100  0.35990900  1
  O  O2  1  0.00000000  0.10921400  0.75000000  1
  O  O3  1  0.50000000  0.22758300  0.64717200  1
  O  O4  1  0.50000000  0.22758300  0.85282800  1
  O  O5  1  0.50000000  0.22229100  0.25000000  1
  O  O6  1  0.50000000  0.29888700  0.05947700  1
  O  O7  1  0.50000000  0.29888700  0.44052300  1
  O  O8  1  0.00000000  0.37528900  0.54750900  1
  O  O9  1  0.00000000  0.37528900  0.95249100  1
  O  O10  1  0.00000000  0.45300700  0.16855700  1
  O  O11  1  0.00000000  0.45300700  0.33144300  1
  O  O12  1  0.00000000  0.54699300  0.66855700  1
  O  O13  1  0.00000000  0.54699300  0.83144300  1
  O  O14  1  0.00000000  0.62471100  0.04750900  1
  O  O15  1  0.00000000  0.62471100  0.45249100  1
  O  O16  1  0.50000000  0.70111300  0.55947700  1
  O  O17  1  0.50000000  0.70111300  0.94052300  1
  O  O18  1  0.50000000  0.77770900  0.75000000  1
  O  O19  1  0.50000000  0.77241700  0.35282800  1
  O  O20  1  0.50000000  0.77241700  0.14717200  1
  O  O21  1  0.00000000  0.89078600  0.25000000  1
  O  O22  1  0.00000000  0.91022900  0.64009100  1
  O  O23  1  0.00000000  0.91022900  0.85990900  1
  F  F0  1  0.00000000  0.00000000  0.00000000  1
  F  F1  1  0.00000000  0.00000000  0.50000000  1
loop_
_geom_bond_atom_site_label_1
_geom_bond_atom_site_label_2
_geom_bond_distance
_geom_bond_site_symmetry_2
O0 W3 1.974122 1_555
O0 W9 2.071427 1_545
O0 W2 2.167419 1_555
O1 W4 1.974122 1_555
O1 W8 2.071427 1_545
O1 W2 2.167419 1_555
O2 W0 2.009953 1_555
O2 W1 2.009953 1_555
O2 W7 2.118377 1_545
O3 W0 1.937689 1_555
O3 W0 1.937689 1_655
O4 W1 1.937689 1_655
O4 W1 1.937689 1_555
O5 W2 1.937364 1_655
O5 W2 1.937364 1_555
O6 W3 1.938030 1_555
O6 W3 1.938030 1_655
O7 W4 1.938030 1_555
O7 W4 1.938030 1_655
O8 W4 2.040189 1_555
O8 W0 2.048066 1_555
O8 W5 2.078353 1_555
O9 W3 2.040189 1_556
O9 W1 2.048066 1_555
O9 W6 2.078353 1_555
O10 W9 2.051970 1_555
O10 W2 2.098762 1_555
O10 W3 2.163902 1_555
O11 W8 2.051970 1_555
O11 W2 2.098762 1_555
O11 W4 2.163902 1_555
O12 W0 2.051970 1_555
O12 W7 2.098762 1_555
O12 W5 2.163902 1_555
O13 W1 2.051970 1_555
O13 W7 2.098762 1_555
O13 W6 2.163902 1_555
O14 W6 2.040189 1_554
O14 W9 2.048066 1_555
O14 W3 2.078353 1_555
O15 W5 2.040189 1_555
O15 W8 2.048066 1_555
O15 W4 2.078353 1_555
O16 W5 1.938030 1_555
O16 W5 1.938030 1_655
O17 W6 1.938030 1_655
O17 W6 1.938030 1_555
O18 W7 1.937364 1_555
O18 W7 1.937364 1_655
O19 W8 1.937689 1_655
O19 W8 1.937689 1_555
O20 W9 1.937689 1_655
O20 W9 1.937689 1_555
O21 W9 2.009953 1_555
O21 W8 2.009953 1_555
O21 W2 2.118377 1_565
O22 W5 1.974122 1_555
O22 W0 2.071427 1_565
O22 W7 2.167419 1_555
O23 W6 1.974122 1_555
O23 W1 2.071427 1_565
O23 W7 2.167419 1_555
F0 W3 2.246735 1_555
F0 W6 2.246735 1_544
F1 W4 2.246735 1_555
F1 W5 2.246735 1_545
