# generated using pymatgen
data_Cr23C6
_symmetry_space_group_name_H-M   'P 1'
_cell_length_a   7.41526312
_cell_length_b   7.41526571
_cell_length_c   7.41526423
_cell_angle_alpha   59.99910254
_cell_angle_beta   59.99913393
_cell_angle_gamma   59.99909309
_symmetry_Int_Tables_number   1
_chemical_formula_structural   Cr23C6
_chemical_formula_sum   'Cr23 C6'
_cell_volume   288.30764031
_cell_formula_units_Z   1
loop_
 _symmetry_equiv_pos_site_id
 _symmetry_equiv_pos_as_xyz
  1  'x, y, z'
loop_
 _atom_site_type_symbol
 _atom_site_label
 _atom_site_symmetry_multiplicity
 _atom_site_fract_x
 _atom_site_fract_y
 _atom_site_fract_z
 _atom_site_occupancy
  Cr  Cr0  1  0.61921012  0.14236121  0.61921233  1
  Cr  Cr1  1  0.85763620  0.38078768  0.38078314  1
  Cr  Cr2  1  0.38078711  0.85763649  0.38078601  1
  Cr  Cr3  1  0.38078284  0.38078757  0.85763649  1
  Cr  Cr4  1  0.61920917  0.61921665  0.61921149  1
  Cr  Cr5  1  0.65938947  0.34061038  0.00000425  1
  Cr  Cr6  1  0.65938643  -0.00000345  0.00000245  1
  Cr  Cr7  1  0.00000517  0.34060931  0.65939090  1
  Cr  Cr8  1  0.65938782  0.00000104  0.34061311  1
  Cr  Cr9  1  0.00000326  0.34060988  0.00000100  1
  Cr  Cr10  1  0.00000250  -0.00000386  0.65938850  1
  Cr  Cr11  1  0.00000191  0.00000129  0.34060682  1
  Cr  Cr12  1  0.00000172  0.65939263  0.34060795  1
  Cr  Cr13  1  0.34061283  0.00000053  0.65938979  1
  Cr  Cr14  1  0.00000021  0.65938623  -0.00000088  1
  Cr  Cr15  1  0.34060819  0.00000127  0.00000062  1
  Cr  Cr16  1  0.34060850  0.65939343  0.00000037  1
  Cr  Cr17  1  0.14236385  0.61921139  0.61921340  1
  Cr  Cr18  1  0.61921197  0.61921379  0.14236223  1
  Cr  Cr19  1  0.38078871  0.38078744  0.38078939  1
  Cr  Cr20  1  0.74999869  0.75000254  0.75000108  1
  Cr  Cr21  1  0.25000107  0.24999798  0.24999891  1
  Cr  Cr22  1  0.00000420  -0.00000096  0.00000209  1
  C  C0  1  0.27776500  0.72223410  0.72223398  1
  C  C1  1  0.27776707  0.72223534  0.27776585  1
  C  C2  1  0.72223153  0.27776605  0.72223289  1
  C  C3  1  0.27776606  0.27776514  0.72223590  1
  C  C4  1  0.72223278  0.72223484  0.27776447  1
  C  C5  1  0.72223462  0.27776606  0.27776646  1
loop_
_geom_bond_atom_site_label_1
_geom_bond_atom_site_label_2
_geom_bond_distance
_geom_bond_site_symmetry_2
Cr0 Cr20 2.375524 1_545
Cr1 Cr21 2.375561 1_655
Cr2 Cr21 2.375541 1_565
Cr10 Cr22 2.525757 1_556
Cr11 Cr22 2.525674 1_555
Cr12 Cr22 2.525650 1_565
Cr13 Cr22 2.525683 1_556
Cr14 Cr22 2.525760 1_565
Cr15 Cr22 2.525671 1_555
Cr16 Cr22 2.525641 1_565
Cr17 Cr20 2.375563 1_455
Cr18 Cr20 2.375539 1_554
Cr19 Cr21 2.375620 1_555
Cr20 Cr4 2.375605 1_555
Cr21 Cr3 2.375547 1_554
Cr22 Cr7 2.525685 1_554
Cr22 Cr5 2.525701 1_455
Cr22 Cr8 2.525707 1_455
Cr22 Cr9 2.525712 1_555
Cr22 Cr6 2.525778 1_455
C0 Cr4 2.071909 1_555
C0 Cr3 2.071920 1_555
C0 Cr2 2.071928 1_555
C0 Cr17 2.071945 1_555
C0 Cr10 2.111715 1_565
C0 Cr14 2.111739 1_556
C0 Cr16 2.111775 1_556
C0 Cr13 2.111785 1_565
C1 Cr18 2.071910 1_555
C1 Cr17 2.071926 1_555
C1 Cr2 2.071926 1_555
C1 Cr19 2.071931 1_555
C1 Cr11 2.111732 1_565
C1 Cr15 2.111733 1_565
C1 Cr16 2.111760 1_555
C1 Cr12 2.111760 1_555
C2 Cr3 2.071933 1_555
C2 Cr1 2.071940 1_555
C2 Cr4 2.071948 1_555
C2 Cr0 2.071960 1_555
C2 Cr6 2.111767 1_556
C2 Cr10 2.111771 1_655
C2 Cr5 2.111811 1_556
C2 Cr7 2.111823 1_655
C3 Cr0 2.071905 1_555
C3 Cr3 2.071917 1_555
C3 Cr17 2.071918 1_555
C3 Cr19 2.071922 1_555
C3 Cr15 2.111725 1_556
C3 Cr9 2.111729 1_556
C3 Cr7 2.111732 1_555
C3 Cr13 2.111757 1_555
C4 Cr2 2.071914 1_555
C4 Cr1 2.071924 1_555
C4 Cr4 2.071927 1_555
C4 Cr18 2.071943 1_555
C4 Cr6 2.111714 1_565
C4 Cr14 2.111749 1_655
C4 Cr8 2.111785 1_565
C4 Cr12 2.111789 1_655
C5 Cr0 2.071917 1_555
C5 Cr1 2.071918 1_555
C5 Cr19 2.071918 1_555
C5 Cr18 2.071927 1_555
C5 Cr11 2.111735 1_655
C5 Cr5 2.111742 1_555
C5 Cr9 2.111750 1_655
C5 Cr8 2.111764 1_555
