# generated using pymatgen
data_LiFe2(BO3)2
_symmetry_space_group_name_H-M   'P 1'
_cell_length_a   5.21643600
_cell_length_b   9.14071664
_cell_length_c   10.17925090
_cell_angle_alpha   88.84217079
_cell_angle_beta   88.88604154
_cell_angle_gamma   89.54309401
_symmetry_Int_Tables_number   1
_chemical_formula_structural   LiFe2(BO3)2
_chemical_formula_sum   'Li4 Fe8 B8 O24'
_cell_volume   485.16190121
_cell_formula_units_Z   4
loop_
 _symmetry_equiv_pos_site_id
 _symmetry_equiv_pos_as_xyz
  1  'x, y, z'
loop_
 _atom_site_type_symbol
 _atom_site_label
 _atom_site_symmetry_multiplicity
 _atom_site_fract_x
 _atom_site_fract_y
 _atom_site_fract_z
 _atom_site_occupancy
  Li  Li0  1  0.15224500  0.17318400  0.65111000  1
  Li  Li1  1  0.33219500  0.32992700  0.40034000  1
  Li  Li2  1  0.33201100  0.31571700  0.92514000  1
  Li  Li3  1  0.66085700  0.67516900  0.65490500  1
  Fe  Fe0  1  0.16077800  0.83734000  0.62953000  1
  Fe  Fe1  1  0.17608300  0.50311000  0.13783100  1
  Fe  Fe2  1  0.31409400  0.98941000  0.88170400  1
  Fe  Fe3  1  0.33484300  0.67192100  0.37125500  1
  Fe  Fe4  1  0.66286100  0.34203100  0.62811800  1
  Fe  Fe5  1  0.67029800  0.00324500  0.12593100  1
  Fe  Fe6  1  0.84362600  0.15090200  0.37268800  1
  Fe  Fe7  1  0.82909200  0.49981300  0.88883200  1
  B  B0  1  0.16124300  0.50505300  0.62386500  1
  B  B1  1  0.16579100  0.83658000  0.13190900  1
  B  B2  1  0.34412600  0.00119200  0.38431100  1
  B  B3  1  0.32535100  0.65689200  0.86446200  1
  B  B4  1  0.66501400  0.00011800  0.63185700  1
  B  B5  1  0.66873000  0.32791200  0.12342100  1
  B  B6  1  0.82725800  0.49494800  0.38237800  1
  B  B7  1  0.82740900  0.17547800  0.87816300  1
  O  O0  1  0.09568000  0.49893100  0.35580600  1
  O  O1  1  0.08888000  0.17120400  0.85736700  1
  O  O2  1  0.19905300  0.78280300  0.82220100  1
  O  O3  1  0.23618100  0.86841700  0.43260400  1
  O  O4  1  0.21586400  0.13030200  0.40261300  1
  O  O5  1  0.19149200  0.53616000  0.91562700  1
  O  O6  1  0.28523200  0.37251900  0.61350900  1
  O  O7  1  0.32364400  0.94620900  0.08120200  1
  O  O8  1  0.28952900  0.63537800  0.58602800  1
  O  O9  1  0.28186500  0.70961100  0.18381600  1
  O  O10  1  0.40766800  0.33469700  0.11812600  1
  O  O11  1  0.39944900  0.00093800  0.66284500  1
  O  O12  1  0.58369600  0.99453600  0.32453900  1
  O  O13  1  0.58595900  0.64741600  0.84989500  1
  O  O14  1  0.69136800  0.30708700  0.84475700  1
  O  O15  1  0.71477400  0.36135100  0.41557500  1
  O  O16  1  0.68467200  0.62023800  0.38114700  1
  O  O17  1  0.68360900  0.06045500  0.92673000  1
  O  O18  1  0.81467000  0.44899600  0.07989400  1
  O  O19  1  0.79686200  0.86895000  0.63285800  1
  O  O20  1  0.78756400  0.12950300  0.59996000  1
  O  O21  1  0.79647500  0.20131000  0.16410100  1
  O  O22  1  0.90821600  0.84875800  0.12779100  1
  O  O23  1  0.91066000  0.51387200  0.67175100  1
loop_
_geom_bond_atom_site_label_1
_geom_bond_atom_site_label_2
_geom_bond_distance
_geom_bond_site_symmetry_2
Li0 O6 1.982250 1_555
Li0 O20 2.026925 1_455
Li0 O11 2.030283 1_555
Li0 O1 2.118782 1_555
Li1 O4 1.927116 1_555
Li1 O0 2.019205 1_555
Li1 O15 2.027892 1_555
Li1 O6 2.220812 1_555
Li2 O1 1.981652 1_555
Li2 O10 2.022360 1_556
Li2 O14 2.032322 1_555
Li2 O5 2.139684 1_555
Li3 O19 1.920672 1_555
Li3 O23 1.966983 1_555
Li3 O13 2.026751 1_555
Li3 O8 2.109551 1_555
Fe0 O19 1.917679 1_455
Fe0 O11 1.991957 1_565
Fe0 O8 2.014166 1_555
Fe0 O2 2.027064 1_555
Fe0 O3 2.049823 1_555
Fe1 O10 1.960309 1_555
Fe1 O9 2.036878 1_555
Fe1 O18 2.053457 1_455
Fe1 O0 2.249708 1_555
Fe1 O5 2.275848 1_554
Fe2 O1 2.041186 1_565
Fe2 O7 2.062410 1_556
Fe2 O2 2.090932 1_555
Fe2 O17 2.100854 1_565
Fe2 O11 2.263897 1_565
Fe3 O16 1.885446 1_555
Fe3 O9 1.956502 1_555
Fe3 O3 1.974583 1_555
Fe3 O0 2.032408 1_555
Fe3 O8 2.213300 1_555
Fe4 O6 1.995283 1_555
Fe4 O20 2.067446 1_555
Fe4 O23 2.101978 1_555
Fe4 O15 2.178972 1_555
Fe4 O14 2.229500 1_555
Fe5 O22 1.872597 1_545
Fe5 O7 1.950819 1_545
Fe5 O21 1.979725 1_555
Fe5 O12 2.063049 1_545
Fe5 O17 2.083789 1_554
Fe6 O4 1.978259 1_655
Fe6 O12 2.051013 1_545
Fe6 O15 2.084399 1_555
Fe6 O21 2.181741 1_555
Fe6 O20 2.330707 1_555
Fe7 O13 1.885901 1_555
Fe7 O5 1.947371 1_655
Fe7 O14 1.971170 1_555
Fe7 O18 1.990551 1_556
Fe7 O23 2.243495 1_555
B0 O6 1.373709 1_555
B0 O23 1.388479 1_455
B0 O8 1.414010 1_555
B1 O22 1.348736 1_455
B1 O7 1.387216 1_555
B1 O9 1.403287 1_555
B2 O4 1.366229 1_555
B2 O12 1.380712 1_545
B2 O3 1.416940 1_545
B3 O13 1.366888 1_555
B3 O2 1.386592 1_555
B3 O5 1.397009 1_555
B4 O19 1.377423 1_545
B4 O20 1.378867 1_555
B4 O11 1.414765 1_555
B5 O10 1.364793 1_555
B5 O21 1.390604 1_555
B5 O18 1.407611 1_555
B6 O16 1.360571 1_555
B6 O15 1.391685 1_555
B6 O0 1.421532 1_655
B7 O17 1.374654 1_555
B7 O1 1.376571 1_655
B7 O14 1.430273 1_555
