# generated using pymatgen
data_Co3TeO8
_symmetry_space_group_name_H-M   'P 1'
_cell_length_a   5.75940010
_cell_length_b   5.75942719
_cell_length_c   9.69809295
_cell_angle_alpha   107.34754167
_cell_angle_beta   107.25953404
_cell_angle_gamma   59.99634744
_symmetry_Int_Tables_number   1
_chemical_formula_structural   Co3TeO8
_chemical_formula_sum   'Co6 Te2 O16'
_cell_volume   261.63946405
_cell_formula_units_Z   2
loop_
 _symmetry_equiv_pos_site_id
 _symmetry_equiv_pos_as_xyz
  1  'x, y, z'
loop_
 _atom_site_type_symbol
 _atom_site_label
 _atom_site_symmetry_multiplicity
 _atom_site_fract_x
 _atom_site_fract_y
 _atom_site_fract_z
 _atom_site_occupancy
  Co  Co0  1  0.99999900  0.50000000  0.50000000  1
  Co  Co1  1  0.50000000  0.99999900  0.50000000  1
  Co  Co2  1  0.99999900  0.99999900  0.49999900  1
  Co  Co3  1  0.50000100  -0.00000000  0.00000100  1
  Co  Co4  1  -0.00000000  0.50000000  0.00000100  1
  Co  Co5  1  0.50000100  0.50000000  0.00000100  1
  Te  Te0  1  -0.00000000  -0.00000000  0.99999900  1
  Te  Te1  1  0.50000000  0.50000000  0.50000000  1
  O  O0  1  0.13564863  0.13515364  0.40628001  1
  O  O1  1  0.63564736  0.63514722  0.90627685  1
  O  O2  1  0.36435364  0.36485278  0.09372415  1
  O  O3  1  0.86434937  0.86484636  0.59371999  1
  O  O4  1  0.63320746  0.63260156  0.39253038  1
  O  O5  1  0.13321237  0.13260609  0.89253502  1
  O  O6  1  0.12698569  0.63259073  0.39255966  1
  O  O7  1  0.62698209  0.13259328  0.89256082  1
  O  O8  1  0.63318593  0.12636820  0.39256157  1
  O  O9  1  0.13318491  0.62636891  0.89256022  1
  O  O10  1  0.86681509  0.37363109  0.10743978  1
  O  O11  1  0.36681407  0.87363280  0.60743843  1
  O  O12  1  0.37301891  0.86740872  0.10743918  1
  O  O13  1  0.87301431  0.36740827  0.60744034  1
  O  O14  1  0.86678863  0.86739391  0.10746598  1
  O  O15  1  0.36679154  0.36739744  0.60746862  1
loop_
_geom_bond_atom_site_label_1
_geom_bond_atom_site_label_2
_geom_bond_distance
_geom_bond_site_symmetry_2
Co0 O0 1.868837 1_655
Co0 O3 1.868837 1_555
Co0 O4 1.920110 1_555
Co0 O15 1.920111 1_655
Co0 O13 1.920679 1_555
Co0 O6 1.920683 1_655
Co1 O3 1.868679 1_555
Co1 O0 1.868687 1_565
Co1 O4 1.920442 1_555
Co1 O15 1.920443 1_565
Co1 O11 1.920564 1_555
Co1 O8 1.920577 1_565
Co2 O0 1.869189 1_665
Co2 O3 1.869194 1_555
Co2 O8 1.920097 1_565
Co2 O11 1.920112 1_655
Co2 O6 1.920385 1_655
Co2 O13 1.920396 1_565
Co3 O2 1.868874 1_555
Co3 O1 1.868877 1_544
Co3 O14 1.920079 1_545
Co3 O5 1.920086 1_554
Co3 O12 1.920649 1_545
Co3 O7 1.920669 1_554
Co4 O1 1.868704 1_454
Co4 O2 1.868706 1_555
Co4 O14 1.920412 1_455
Co4 O5 1.920415 1_554
Co4 O10 1.920574 1_455
Co4 O9 1.920589 1_554
Co5 O2 1.869175 1_555
Co5 O1 1.869178 1_554
Co5 O10 1.920106 1_555
Co5 O9 1.920121 1_554
Co5 O7 1.920381 1_554
Co5 O12 1.920383 1_555
O4 Te1 1.947629 1_555
O5 Te0 1.947628 1_555
O6 Te1 1.946697 1_555
O7 Te0 1.946706 1_655
O8 Te1 1.947073 1_555
O9 Te0 1.947071 1_565
O10 Te0 1.947077 1_654
O11 Te1 1.947077 1_555
O12 Te0 1.946716 1_564
O13 Te1 1.946697 1_555
O14 Te0 1.947646 1_664
O15 Te1 1.947631 1_555
