# generated using pymatgen
data_LuGaO3
_symmetry_space_group_name_H-M   'P 1'
_cell_length_a   5.90261744
_cell_length_b   5.90261585
_cell_length_c   11.57413725
_cell_angle_alpha   89.99999338
_cell_angle_beta   89.99995016
_cell_angle_gamma   119.99938731
_symmetry_Int_Tables_number   1
_chemical_formula_structural   LuGaO3
_chemical_formula_sum   'Lu6 Ga6 O18'
_cell_volume   349.22964111
_cell_formula_units_Z   6
loop_
 _symmetry_equiv_pos_site_id
 _symmetry_equiv_pos_as_xyz
  1  'x, y, z'
loop_
 _atom_site_type_symbol
 _atom_site_label
 _atom_site_symmetry_multiplicity
 _atom_site_fract_x
 _atom_site_fract_y
 _atom_site_fract_z
 _atom_site_occupancy
  Lu  Lu0  1  0.33333332  0.66666497  0.23195969  1
  Lu  Lu1  1  -0.00000050  0.00000213  0.27298811  1
  Lu  Lu2  1  0.99999538  -0.00000355  0.77299083  1
  Lu  Lu3  1  0.33333156  0.66666284  0.73195965  1
  Lu  Lu4  1  0.66666829  0.33333259  0.73195988  1
  Lu  Lu5  1  0.66666839  0.33333326  0.23195931  1
  Ga  Ga0  1  -0.00000068  0.66605515  0.49884447  1
  Ga  Ga1  1  0.00000023  0.33394341  0.99884667  1
  Ga  Ga2  1  0.33394687  0.33394718  0.49884424  1
  Ga  Ga3  1  0.66605415  0.66605306  0.99884672  1
  Ga  Ga4  1  0.33394417  0.00000009  0.99884516  1
  Ga  Ga5  1  0.66605462  -0.00000104  0.49884406  1
  O  O0  1  -0.00000060  0.69478637  0.66331082  1
  O  O1  1  -0.00000554  0.63859760  0.33570979  1
  O  O2  1  0.00000221  0.36140204  0.83571293  1
  O  O3  1  -0.00000068  0.30521236  0.16331341  1
  O  O4  1  0.33333155  0.66666418  0.01916189  1
  O  O5  1  0.00000259  0.00000476  0.47444858  1
  O  O6  1  -0.00000031  -0.00000087  0.97446087  1
  O  O7  1  0.33333257  0.66666936  0.51915060  1
  O  O8  1  0.30520855  0.30521323  0.66330667  1
  O  O9  1  0.36140630  0.36140070  0.33571056  1
  O  O10  1  0.30521131  0.00000103  0.16331093  1
  O  O11  1  0.63860067  0.63859845  0.83571481  1
  O  O12  1  0.69479518  0.69479403  0.16330913  1
  O  O13  1  0.36140475  0.00000846  0.83571175  1
  O  O14  1  0.66667028  0.33333514  0.51914995  1
  O  O15  1  0.66666774  0.33333203  0.01916017  1
  O  O16  1  0.63859118  -0.00000865  0.33570998  1
  O  O17  1  0.69478447  -0.00000129  0.66330937  1
loop_
_geom_bond_atom_site_label_1
_geom_bond_atom_site_label_2
_geom_bond_distance
_geom_bond_site_symmetry_2
Lu0 O3 2.203787 1_555
Lu0 O10 2.203799 1_565
Lu0 O12 2.203813 1_555
Lu0 O16 2.239322 1_565
Lu0 O9 2.239353 1_555
Lu0 O1 2.239371 1_555
Lu0 O4 2.462951 1_555
Lu1 O3 2.203836 1_555
Lu1 O12 2.203860 1_445
Lu1 O10 2.203862 1_555
Lu1 O1 2.253357 1_545
Lu1 O16 2.253363 1_455
Lu1 O9 2.253383 1_555
Lu1 O5 2.331731 1_555
Lu2 O0 2.203880 1_645
Lu2 O17 2.203891 1_555
Lu2 O8 2.203935 1_655
Lu2 O11 2.253352 1_545
Lu2 O2 2.253360 1_655
Lu2 O13 2.253363 1_655
Lu2 O6 2.331842 1_655
Lu3 O8 2.203771 1_555
Lu3 O0 2.203784 1_555
Lu3 O17 2.203808 1_565
Lu3 O2 2.239354 1_555
Lu3 O11 2.239381 1_555
Lu3 O13 2.239405 1_565
Lu3 O7 2.463081 1_555
Lu4 O17 2.203777 1_555
Lu4 O0 2.203794 1_655
Lu4 O8 2.203837 1_555
Lu4 O13 2.239336 1_555
Lu4 O2 2.239362 1_655
Lu4 O11 2.239371 1_555
Lu4 O14 2.463091 1_555
Lu5 O3 2.203755 1_655
Lu5 O10 2.203805 1_555
Lu5 O12 2.203811 1_555
Lu5 O9 2.239329 1_555
Lu5 O1 2.239337 1_655
Lu5 O16 2.239369 1_555
Lu5 O15 2.462966 1_555
Ga0 O1 1.895085 1_555
Ga0 O0 1.911096 1_555
Ga0 O7 1.979729 1_555
Ga0 O14 1.979736 1_455
Ga0 O5 1.991287 1_565
Ga1 O2 1.895075 1_555
Ga1 O3 1.911100 1_556
Ga1 O15 1.979742 1_456
Ga1 O4 1.979759 1_556
Ga1 O6 1.991248 1_555
Ga2 O9 1.895074 1_555
Ga2 O8 1.911053 1_555
Ga2 O7 1.979747 1_555
Ga2 O14 1.979747 1_555
Ga2 O5 1.991279 1_555
Ga3 O11 1.895053 1_555
Ga3 O12 1.911056 1_556
Ga3 O15 1.979748 1_556
Ga3 O4 1.979753 1_556
Ga3 O6 1.991276 1_665
Ga4 O13 1.895071 1_555
Ga4 O10 1.911090 1_556
Ga4 O4 1.979763 1_546
Ga4 O15 1.979768 1_556
Ga4 O6 1.991246 1_555
Ga5 O16 1.895080 1_555
Ga5 O17 1.911083 1_555
Ga5 O14 1.979741 1_555
Ga5 O7 1.979745 1_545
Ga5 O5 1.991270 1_655
