# generated using pymatgen
data_LiCo(CO3)2
_symmetry_space_group_name_H-M   'P 1'
_cell_length_a   5.00277310
_cell_length_b   5.00277310
_cell_length_c   6.14010462
_cell_angle_alpha   67.94880534
_cell_angle_beta   67.94880534
_cell_angle_gamma   59.49998484
_symmetry_Int_Tables_number   1
_chemical_formula_structural   LiCo(CO3)2
_chemical_formula_sum   'Li1 Co1 C2 O6'
_cell_volume   119.38897259
_cell_formula_units_Z   1
loop_
 _symmetry_equiv_pos_site_id
 _symmetry_equiv_pos_as_xyz
  1  'x, y, z'
loop_
 _atom_site_type_symbol
 _atom_site_label
 _atom_site_symmetry_multiplicity
 _atom_site_fract_x
 _atom_site_fract_y
 _atom_site_fract_z
 _atom_site_occupancy
  Li  Li0  1  0.00000000  0.00000000  0.50000000  1
  Co  Co0  1  0.00000000  0.00000000  0.00000000  1
  C  C0  1  0.59918900  0.59918900  0.21751400  1
  C  C1  1  0.40081100  0.40081100  0.78248600  1
  O  O0  1  0.29457400  0.74608900  0.23711500  1
  O  O1  1  0.25391100  0.70542600  0.76288500  1
  O  O2  1  0.75141600  0.75141600  0.20021700  1
  O  O3  1  0.24858400  0.24858400  0.79978300  1
  O  O4  1  0.74608900  0.29457400  0.23711500  1
  O  O5  1  0.70542600  0.25391100  0.76288500  1
loop_
_geom_bond_atom_site_label_1
_geom_bond_atom_site_label_2
_geom_bond_distance
_geom_bond_site_symmetry_2
Li0 O1 2.060102 1_545
Li0 O5 2.060102 1_455
Li0 O4 2.060102 1_455
Li0 O0 2.060102 1_545
Co0 O2 1.969367 1_445
Co0 O3 1.969367 1_554
Co0 O4 2.056012 1_455
Co0 O0 2.056012 1_545
Co0 O5 2.056012 1_454
Co0 O1 2.056012 1_544
C0 O2 1.280027 1_555
C0 O4 1.291812 1_555
C0 O0 1.291812 1_555
C1 O3 1.280027 1_555
C1 O1 1.291812 1_555
C1 O5 1.291812 1_555
