# generated using pymatgen
data_Li10V5Cr3O16
_symmetry_space_group_name_H-M   'P 1'
_cell_length_a   6.03617616
_cell_length_b   6.03617616
_cell_length_c   9.91802606
_cell_angle_alpha   89.44824164
_cell_angle_beta   89.44824164
_cell_angle_gamma   59.49207961
_symmetry_Int_Tables_number   1
_chemical_formula_structural   Li10V5Cr3O16
_chemical_formula_sum   'Li10 V5 Cr3 O16'
_cell_volume   311.32024348
_cell_formula_units_Z   1
loop_
 _symmetry_equiv_pos_site_id
 _symmetry_equiv_pos_as_xyz
  1  'x, y, z'
loop_
 _atom_site_type_symbol
 _atom_site_label
 _atom_site_symmetry_multiplicity
 _atom_site_fract_x
 _atom_site_fract_y
 _atom_site_fract_z
 _atom_site_occupancy
  Li  Li0  1  0.19855100  0.19855100  0.45802200  1
  Li  Li1  1  0.00635800  0.00635800  0.52772300  1
  Li  Li2  1  0.60806100  0.19309200  0.45297800  1
  Li  Li3  1  0.33361400  0.33361400  0.23946800  1
  Li  Li4  1  0.19309200  0.60806100  0.45297800  1
  Li  Li5  1  0.80776900  0.39633300  0.95732600  1
  Li  Li6  1  0.39633300  0.80776900  0.95732600  1
  Li  Li7  1  0.67164100  0.67164100  0.73874200  1
  Li  Li8  1  0.80342900  0.80342900  0.95547900  1
  Li  Li9  1  0.00002200  0.00002200  0.02706600  1
  V  V0  1  0.17247000  0.66664100  0.72874200  1
  V  V1  1  0.33534500  0.33534500  0.98688200  1
  V  V2  1  0.66664100  0.17247000  0.72874200  1
  V  V3  1  0.67057800  0.67057800  0.48587100  1
  V  V4  1  0.83129800  0.83129800  0.22920100  1
  Cr  Cr0  1  0.17099700  0.17099700  0.72746500  1
  Cr  Cr1  1  0.83088000  0.33620700  0.22744800  1
  Cr  Cr2  1  0.33620700  0.83088000  0.22744800  1
  O  O0  1  0.15884900  0.15884900  0.10906600  1
  O  O1  1  0.49376600  0.01626000  0.84535600  1
  O  O2  1  0.67824800  0.16103800  0.11358100  1
  O  O3  1  0.00541100  0.00541100  0.84090500  1
  O  O4  1  0.33350200  0.33350200  0.60905700  1
  O  O5  1  0.01626000  0.49376600  0.84535600  1
  O  O6  1  0.49606900  0.49606900  0.84515900  1
  O  O7  1  0.84537300  0.32574100  0.61143500  1
  O  O8  1  0.16103800  0.67824800  0.11358100  1
  O  O9  1  0.50952500  0.50952500  0.34594600  1
  O  O10  1  0.32574100  0.84537300  0.61143500  1
  O  O11  1  0.98704200  0.50361600  0.34292100  1
  O  O12  1  0.66331000  0.66331000  0.11091500  1
  O  O13  1  0.50361600  0.98704200  0.34292100  1
  O  O14  1  0.84587600  0.84587600  0.60901200  1
  O  O15  1  0.00237300  0.00237300  0.34043600  1
loop_
_geom_bond_atom_site_label_1
_geom_bond_atom_site_label_2
_geom_bond_distance
_geom_bond_site_symmetry_2
Li0 O13 1.981070 1_545
Li0 O11 1.981070 1_455
Li0 O4 2.071651 1_555
Li0 O15 2.375180 1_555
Li0 O10 2.397409 1_545
Li0 O7 2.397409 1_455
Li1 O14 1.857260 1_445
Li1 O15 1.858450 1_555
Li1 O7 1.861034 1_455
Li1 O10 1.861034 1_545
Li2 O9 1.987101 1_555
Li2 O13 1.992837 1_545
Li2 O4 2.100225 1_555
Li2 O15 2.329765 1_655
Li2 O14 2.402877 1_545
Li2 O7 2.528839 1_555
Li3 O13 2.069175 1_545
Li3 O11 2.069175 1_455
Li3 O9 2.134983 1_555
Li3 O8 2.178616 1_555
Li3 O2 2.178616 1_555
Li3 O0 2.254068 1_555
Li4 O9 1.987101 1_555
Li4 O11 1.992837 1_455
Li4 O4 2.100225 1_555
Li4 O15 2.329765 1_565
Li4 O14 2.402877 1_455
Li4 O10 2.528839 1_555
Li5 O5 1.968483 1_655
Li5 O6 2.004335 1_555
Li5 O12 2.067063 1_556
Li5 O3 2.343567 1_655
Li5 O0 2.397136 1_656
Li5 O2 2.468157 1_556
Li6 O1 1.968483 1_565
Li6 O6 2.004335 1_555
Li6 O12 2.067063 1_556
Li6 O3 2.343567 1_565
Li6 O0 2.397136 1_566
Li6 O8 2.468157 1_556
Li7 O1 2.085877 1_565
Li7 O5 2.085877 1_655
Li7 O6 2.111281 1_555
Li7 O7 2.203530 1_555
Li7 O10 2.203530 1_555
Li7 O14 2.222302 1_555
Li8 O5 1.977718 1_655
Li8 O1 1.977718 1_565
Li8 O12 2.117396 1_556
Li8 O3 2.391657 1_665
Li8 O2 2.464875 1_566
Li8 O8 2.464875 1_656
Li9 O3 1.846587 1_554
Li9 O0 1.860885 1_555
Li9 O2 1.876345 1_455
Li9 O8 1.876345 1_545
Cr0 O5 2.051973 1_555
Cr0 O1 2.051973 1_555
Cr0 O10 2.053994 1_545
Cr0 O7 2.053994 1_455
Cr0 O3 2.057881 1_555
Cr0 O4 2.058170 1_555
Cr1 O9 2.039057 1_555
Cr1 O12 2.051398 1_555
Cr1 O11 2.057059 1_555
Cr1 O15 2.061278 1_655
Cr1 O0 2.066735 1_655
Cr1 O2 2.067442 1_555
Cr2 O9 2.039057 1_555
Cr2 O12 2.051398 1_555
Cr2 O13 2.057059 1_555
Cr2 O15 2.061278 1_565
Cr2 O0 2.066735 1_565
Cr2 O8 2.067442 1_555
O0 V1 2.200262 1_554
O1 V2 2.066498 1_555
O1 V1 2.179581 1_555
O2 V4 2.059010 1_545
O2 V1 2.187179 1_554
O3 V2 2.089132 1_455
O3 V0 2.089132 1_545
O4 V0 2.106357 1_555
O4 V2 2.106357 1_555
O5 V0 2.066498 1_555
O5 V1 2.179581 1_555
O6 V0 2.046276 1_555
O6 V2 2.046276 1_555
O6 V1 2.182030 1_555
O7 V2 2.083749 1_555
O7 V3 2.177686 1_555
O8 V4 2.059010 1_455
O8 V1 2.187179 1_554
O9 V3 2.197173 1_555
O10 V0 2.083749 1_555
O10 V3 2.177686 1_555
O11 V4 2.039039 1_555
O11 V3 2.166910 1_555
O12 V4 2.126617 1_555
O13 V4 2.039039 1_555
O13 V3 2.166910 1_555
O14 V2 2.078896 1_565
O14 V0 2.078896 1_655
O14 V3 2.217533 1_555
O15 V4 2.115742 1_445
