# generated using pymatgen
data_Na3Mn8O16
_symmetry_space_group_name_H-M   'P 1'
_cell_length_a   6.16774207
_cell_length_b   12.37360853
_cell_length_c   8.43208646
_cell_angle_alpha   89.99793121
_cell_angle_beta   89.96210886
_cell_angle_gamma   90.00239689
_symmetry_Int_Tables_number   1
_chemical_formula_structural   Na3Mn8O16
_chemical_formula_sum   'Na6 Mn16 O32'
_cell_volume   643.51330543
_cell_formula_units_Z   2
loop_
 _symmetry_equiv_pos_site_id
 _symmetry_equiv_pos_as_xyz
  1  'x, y, z'
loop_
 _atom_site_type_symbol
 _atom_site_label
 _atom_site_symmetry_multiplicity
 _atom_site_fract_x
 _atom_site_fract_y
 _atom_site_fract_z
 _atom_site_occupancy
  Na  Na0  1  0.75014100  0.00001100  0.12149000  1
  Na  Na1  1  0.74990700  0.74915600  0.37320700  1
  Na  Na2  1  0.74990300  0.25081300  0.37315900  1
  Na  Na3  1  0.25006600  0.75083600  0.62680900  1
  Na  Na4  1  0.25007100  0.24917000  0.62684500  1
  Na  Na5  1  0.24986800  0.49997300  0.87852200  1
  Mn  Mn0  1  0.49980900  0.24987700  0.00011300  1
  Mn  Mn1  1  0.49985800  0.75013000  0.99997500  1
  Mn  Mn2  1  0.00012900  0.75012800  0.00000000  1
  Mn  Mn3  1  0.00011800  0.24985400  0.00012200  1
  Mn  Mn4  1  0.24999200  0.62317400  0.24792900  1
  Mn  Mn5  1  0.25006900  0.37710900  0.24773500  1
  Mn  Mn6  1  0.24994800  0.87555300  0.24771600  1
  Mn  Mn7  1  0.24995000  0.12436600  0.24773200  1
  Mn  Mn8  1  0.00163300  0.99999800  0.50254100  1
  Mn  Mn9  1  0.49822300  0.00000100  0.50255400  1
  Mn  Mn10  1  0.50176600  0.49998000  0.49696600  1
  Mn  Mn11  1  0.99847300  0.49998100  0.49700700  1
  Mn  Mn12  1  0.75005400  0.62438400  0.75274000  1
  Mn  Mn13  1  0.74998100  0.87750100  0.75214400  1
  Mn  Mn14  1  0.75009700  0.37551200  0.75274400  1
  Mn  Mn15  1  0.75003800  0.12262000  0.75210900  1
  O  O0  1  0.25028800  0.85585600  0.01679900  1
  O  O1  1  0.25030200  0.64740400  0.01411200  1
  O  O2  1  0.25028900  0.14411600  0.01682300  1
  O  O3  1  0.25032600  0.35260100  0.01419100  1
  O  O4  1  0.45969700  0.74710400  0.22894000  1
  O  O5  1  0.04030300  0.74712800  0.22891800  1
  O  O6  1  0.45969600  0.25287200  0.22893300  1
  O  O7  1  0.04027700  0.25286300  0.22890400  1
  O  O8  1  0.03872100  0.50005000  0.26325900  1
  O  O9  1  0.46133200  0.50004300  0.26328800  1
  O  O10  1  0.03370900  0.99996000  0.27278100  1
  O  O11  1  0.46626700  0.99995500  0.27276500  1
  O  O12  1  0.24945500  0.39368800  0.47601000  1
  O  O13  1  0.24964200  0.89315400  0.47866500  1
  O  O14  1  0.24947000  0.60630300  0.47603100  1
  O  O15  1  0.24964500  0.10683200  0.47866800  1
  O  O16  1  0.75061600  0.60684200  0.52128600  1
  O  O17  1  0.75030000  0.89370400  0.52397400  1
  O  O18  1  0.75060900  0.39311900  0.52129000  1
  O  O19  1  0.75031800  0.10628400  0.52397200  1
  O  O20  1  0.53869100  0.99996000  0.73668200  1
  O  O21  1  0.96122100  0.99995000  0.73668200  1
  O  O22  1  0.53368100  0.49993800  0.72724000  1
  O  O23  1  0.96638600  0.49992700  0.72721900  1
  O  O24  1  0.54027300  0.75296200  0.77105100  1
  O  O25  1  0.95968100  0.75293600  0.77107200  1
  O  O26  1  0.54031300  0.24715200  0.77107200  1
  O  O27  1  0.95967800  0.24715800  0.77110400  1
  O  O28  1  0.74969400  0.35586600  0.98320200  1
  O  O29  1  0.74968800  0.64415700  0.98319500  1
  O  O30  1  0.74967800  0.85261300  0.98587800  1
  O  O31  1  0.74966100  0.14737800  0.98583500  1
loop_
_geom_bond_atom_site_label_1
_geom_bond_atom_site_label_2
_geom_bond_distance
_geom_bond_site_symmetry_2
Na0 O31 2.152505 1_554
Na0 O30 2.152707 1_544
Na0 O10 2.165472 1_645
Na0 O11 2.165554 1_545
Na1 O16 2.158659 1_555
Na1 O5 2.164718 1_655
Na1 O4 2.164997 1_555
Na1 O17 2.194390 1_555
Na2 O18 2.158905 1_555
Na2 O7 2.164445 1_655
Na2 O6 2.164789 1_555
Na2 O19 2.194349 1_555
Na3 O13 2.159013 1_555
Na3 O25 2.164549 1_455
Na3 O24 2.164874 1_555
Na3 O14 2.194295 1_555
Na4 O15 2.159449 1_555
Na4 O27 2.164555 1_455
Na4 O26 2.164967 1_555
Na4 O12 2.194348 1_555
Na5 O3 2.152620 1_556
Na5 O1 2.152954 1_556
Na5 O23 2.165103 1_455
Na5 O22 2.165285 1_555
Mn0 O6 1.945420 1_555
Mn0 O26 1.947513 1_554
Mn0 O3 1.999344 1_555
Mn0 O31 1.999429 1_554
Mn0 O2 2.024940 1_555
Mn0 O28 2.028591 1_554
Mn1 O24 1.946486 1_555
Mn1 O4 1.946674 1_556
Mn1 O30 1.998973 1_555
Mn1 O1 1.999648 1_556
Mn1 O0 2.025051 1_556
Mn1 O29 2.028219 1_555
Mn2 O5 1.946610 1_555
Mn2 O25 1.946867 1_454
Mn2 O30 2.002206 1_454
Mn2 O1 2.002754 1_555
Mn2 O0 2.027874 1_555
Mn2 O29 2.031141 1_454
Mn3 O7 1.945466 1_555
Mn3 O27 1.947591 1_454
Mn3 O31 2.002171 1_454
Mn3 O3 2.003002 1_555
Mn3 O2 2.028029 1_555
Mn3 O28 2.031534 1_454
Mn4 O14 1.934664 1_555
Mn4 O1 1.994220 1_555
Mn4 O8 2.008806 1_555
Mn4 O9 2.009357 1_555
Mn4 O4 2.012358 1_555
Mn4 O5 2.012754 1_555
Mn5 O12 1.935744 1_555
Mn5 O3 1.992486 1_555
Mn5 O9 2.007232 1_555
Mn5 O8 2.007592 1_555
Mn5 O6 2.014912 1_555
Mn5 O7 2.015722 1_555
Mn6 O13 1.959530 1_555
Mn6 O0 1.962315 1_555
Mn6 O10 2.047658 1_555
Mn6 O11 2.048017 1_555
Mn6 O5 2.054839 1_555
Mn6 O4 2.055409 1_555
Mn7 O15 1.959313 1_555
Mn7 O2 1.962312 1_555
Mn7 O10 2.047548 1_545
Mn7 O11 2.048151 1_545
Mn7 O7 2.055731 1_555
Mn7 O6 2.055866 1_555
Mn8 O10 1.947301 1_555
Mn8 O21 1.989805 1_455
Mn8 O15 2.031577 1_565
Mn8 O13 2.031739 1_555
Mn8 O19 2.040763 1_465
Mn8 O17 2.040820 1_455
Mn9 O11 1.947729 1_545
Mn9 O20 1.990067 1_545
Mn9 O15 2.034478 1_555
Mn9 O13 2.034549 1_545
Mn9 O19 2.044483 1_555
Mn9 O17 2.044587 1_545
Mn10 O22 1.951772 1_555
Mn10 O9 1.986276 1_555
Mn10 O16 2.036285 1_555
Mn10 O18 2.036321 1_555
Mn10 O12 2.045226 1_555
Mn10 O14 2.045463 1_555
Mn11 O23 1.951100 1_555
Mn11 O8 1.986392 1_655
Mn11 O18 2.031459 1_555
Mn11 O16 2.031508 1_555
Mn11 O12 2.038940 1_655
Mn11 O14 2.039134 1_655
Mn12 O29 1.958567 1_555
Mn12 O16 1.963682 1_555
Mn12 O23 2.048896 1_555
Mn12 O22 2.049041 1_555
Mn12 O25 2.055683 1_555
Mn12 O24 2.056472 1_555
Mn13 O17 1.934360 1_555
Mn13 O30 1.994768 1_555
Mn13 O21 2.002426 1_555
Mn13 O20 2.002915 1_555
Mn13 O24 2.018063 1_555
Mn13 O25 2.018509 1_555
Mn14 O28 1.958379 1_555
Mn14 O18 1.963755 1_555
Mn14 O23 2.048240 1_555
Mn14 O22 2.049103 1_555
Mn14 O27 2.053703 1_555
Mn14 O26 2.054315 1_555
Mn15 O19 1.934269 1_555
Mn15 O31 1.994476 1_555
Mn15 O21 2.004338 1_545
Mn15 O20 2.004931 1_545
Mn15 O27 2.017988 1_555
Mn15 O26 2.018193 1_555
