# generated using pymatgen
data_Hf3Cu8
_symmetry_space_group_name_H-M   'P 1'
_cell_length_a   7.74830372
_cell_length_b   8.03335419
_cell_length_c   9.86411380
_cell_angle_alpha   90.00000000
_cell_angle_beta   90.00000000
_cell_angle_gamma   90.00000000
_symmetry_Int_Tables_number   1
_chemical_formula_structural   Hf3Cu8
_chemical_formula_sum   'Hf12 Cu32'
_cell_volume   613.99046294
_cell_formula_units_Z   4
loop_
 _symmetry_equiv_pos_site_id
 _symmetry_equiv_pos_as_xyz
  1  'x, y, z'
loop_
 _atom_site_type_symbol
 _atom_site_label
 _atom_site_symmetry_multiplicity
 _atom_site_fract_x
 _atom_site_fract_y
 _atom_site_fract_z
 _atom_site_occupancy
  Hf  Hf0  1  0.04050103  0.75000000  0.54739695  1
  Hf  Hf1  1  0.54050103  0.75000000  0.95260305  1
  Hf  Hf2  1  0.95949897  0.25000000  0.45260305  1
  Hf  Hf3  1  0.45949897  0.25000000  0.04739695  1
  Hf  Hf4  1  0.56240121  0.44644774  0.35906644  1
  Hf  Hf5  1  0.06240121  0.05355226  0.14093356  1
  Hf  Hf6  1  0.43759879  0.94644774  0.64093356  1
  Hf  Hf7  1  0.93759879  0.55355226  0.85906644  1
  Hf  Hf8  1  0.43759879  0.55355226  0.64093356  1
  Hf  Hf9  1  0.93759879  0.94644774  0.85906644  1
  Hf  Hf10  1  0.56240121  0.05355226  0.35906644  1
  Hf  Hf11  1  0.06240121  0.44644774  0.14093356  1
  Cu  Cu0  1  0.17637463  0.75000000  0.01685476  1
  Cu  Cu1  1  0.67637463  0.75000000  0.48314524  1
  Cu  Cu2  1  0.82362537  0.25000000  0.98314524  1
  Cu  Cu3  1  0.32362537  0.25000000  0.51685476  1
  Cu  Cu4  1  0.13018537  0.75000000  0.26558605  1
  Cu  Cu5  1  0.63018537  0.75000000  0.23441395  1
  Cu  Cu6  1  0.86981463  0.25000000  0.73441395  1
  Cu  Cu7  1  0.36981463  0.25000000  0.76558605  1
  Cu  Cu8  1  0.38390674  0.75000000  0.40277114  1
  Cu  Cu9  1  0.88390674  0.75000000  0.09722886  1
  Cu  Cu10  1  0.61609326  0.25000000  0.59722886  1
  Cu  Cu11  1  0.11609326  0.25000000  0.90277114  1
  Cu  Cu12  1  0.37861569  0.57780597  0.15971523  1
  Cu  Cu13  1  0.87861569  0.92219403  0.34028477  1
  Cu  Cu14  1  0.62138431  0.07780597  0.84028477  1
  Cu  Cu15  1  0.12138431  0.42219403  0.65971523  1
  Cu  Cu16  1  0.62138431  0.42219403  0.84028477  1
  Cu  Cu17  1  0.12138431  0.07780597  0.65971523  1
  Cu  Cu18  1  0.37861569  0.92219403  0.15971523  1
  Cu  Cu19  1  0.87861569  0.57780597  0.34028477  1
  Cu  Cu20  1  0.19939557  0.49946589  0.40729047  1
  Cu  Cu21  1  0.69939557  0.00053411  0.09270953  1
  Cu  Cu22  1  0.80060443  0.99946589  0.59270953  1
  Cu  Cu23  1  0.30060443  0.50053411  0.90729047  1
  Cu  Cu24  1  0.80060443  0.50053411  0.59270953  1
  Cu  Cu25  1  0.30060443  0.99946589  0.90729047  1
  Cu  Cu26  1  0.19939557  0.00053411  0.40729047  1
  Cu  Cu27  1  0.69939557  0.49946589  0.09270953  1
  Cu  Cu28  1  0.28416178  0.25000000  0.27355567  1
  Cu  Cu29  1  0.78416178  0.25000000  0.22644433  1
  Cu  Cu30  1  0.71583822  0.75000000  0.72644433  1
  Cu  Cu31  1  0.21583822  0.75000000  0.77355567  1
loop_
_geom_bond_atom_site_label_1
_geom_bond_atom_site_label_2
_geom_bond_distance
_geom_bond_site_symmetry_2
Cu0 Cu9 2.400814 1_455
Cu0 Cu31 2.419331 1_554
Cu0 Cu25 2.471999 1_554
Cu0 Cu23 2.471999 1_554
Cu0 Cu4 2.479479 1_555
Cu0 Cu18 2.520892 1_555
Cu0 Cu12 2.520892 1_555
Cu0 Hf5 2.867814 1_565
Cu0 Hf11 2.867814 1_555
Cu0 Hf9 2.887199 1_454
Cu0 Hf7 2.887199 1_454
Cu0 Hf1 2.891672 1_554
Cu1 Cu8 2.400814 1_555
Cu1 Cu30 2.419331 1_555
Cu1 Cu22 2.471999 1_555
Cu1 Cu24 2.471999 1_555
Cu1 Cu5 2.479479 1_555
Cu1 Cu13 2.520892 1_555
Cu1 Cu19 2.520892 1_555
Cu1 Hf4 2.867814 1_555
Cu1 Hf10 2.867814 1_565
Cu1 Hf6 2.887199 1_555
Cu1 Hf8 2.887199 1_555
Cu1 Hf0 2.891672 1_655
Cu2 Cu29 2.419331 1_556
Cu2 Cu21 2.471999 1_556
Cu2 Cu27 2.471999 1_556
Cu2 Cu6 2.479479 1_555
Cu2 Hf9 2.867814 1_545
Cu2 Hf7 2.867814 1_555
Cu2 Hf5 2.887199 1_656
Cu2 Hf11 2.887199 1_656
Cu2 Hf3 2.891672 1_556
Cu3 Cu7 2.479479 1_555
Cu3 Hf6 2.867814 1_545
Cu3 Hf8 2.867814 1_555
Cu3 Hf4 2.887199 1_555
Cu3 Hf10 2.887199 1_555
Cu3 Hf2 2.891672 1_455
Cu4 Cu8 2.386625 1_555
Cu4 Cu9 2.529682 1_455
Cu4 Hf5 2.781047 1_565
Cu4 Hf11 2.781047 1_555
Cu4 Hf0 2.865355 1_555
Cu5 Cu9 2.386625 1_555
Cu5 Cu8 2.529682 1_555
Cu5 Hf4 2.781047 1_555
Cu5 Hf10 2.781047 1_565
Cu5 Hf1 2.865355 1_554
Cu6 Hf9 2.781047 1_545
Cu6 Hf7 2.781047 1_555
Cu6 Hf2 2.865355 1_555
Cu7 Hf6 2.781047 1_545
Cu7 Hf8 2.781047 1_555
Cu7 Hf3 2.865355 1_556
Cu8 Hf4 2.836391 1_555
Cu8 Hf10 2.836391 1_565
Cu8 Hf6 2.860526 1_555
Cu8 Hf8 2.860526 1_555
Cu8 Hf0 3.019126 1_555
Cu9 Hf5 2.836391 1_665
Cu9 Hf11 2.836391 1_655
Cu9 Hf9 2.860526 1_554
Cu9 Hf7 2.860526 1_554
Cu9 Hf1 3.019126 1_554
Cu10 Cu6 2.386625 1_555
Cu10 Cu3 2.400814 1_555
Cu10 Cu24 2.469121 1_555
Cu10 Cu22 2.469121 1_545
Cu10 Cu7 2.529682 1_555
Cu10 Cu14 2.768274 1_555
Cu10 Cu16 2.768274 1_555
Cu10 Hf8 2.836391 1_555
Cu10 Hf6 2.836391 1_545
Cu10 Hf4 2.860526 1_555
Cu10 Hf10 2.860526 1_555
Cu10 Hf2 3.019126 1_555
Cu11 Cu7 2.386625 1_555
Cu11 Cu2 2.400814 1_455
Cu11 Cu25 2.469121 1_545
Cu11 Cu23 2.469121 1_555
Cu11 Cu6 2.529682 1_455
Cu11 Cu17 2.768274 1_555
Cu11 Cu15 2.768274 1_555
Cu11 Hf9 2.836391 1_445
Cu11 Hf7 2.836391 1_455
Cu11 Hf5 2.860526 1_556
Cu11 Hf11 2.860526 1_556
Cu11 Hf3 3.019126 1_556
Cu12 Cu5 2.501193 1_555
Cu12 Cu4 2.590252 1_555
Cu12 Cu23 2.636386 1_554
Cu12 Hf4 2.647304 1_555
Cu12 Cu27 2.647759 1_555
Cu12 Hf11 2.674133 1_555
Cu12 Cu18 2.766591 1_555
Cu12 Hf1 2.767784 1_554
Cu12 Cu8 2.768274 1_555
Cu12 Cu20 2.878944 1_555
Cu12 Hf3 2.924884 1_555
Cu12 Cu28 2.954877 1_555
Cu13 Cu4 2.501193 1_655
Cu13 Cu5 2.590252 1_555
Cu13 Cu22 2.636386 1_555
Cu13 Hf5 2.647304 1_665
Cu13 Cu26 2.647759 1_665
Cu13 Hf10 2.674133 1_565
Cu13 Cu19 2.766591 1_555
Cu13 Hf0 2.767784 1_655
Cu13 Cu9 2.768274 1_555
Cu13 Cu21 2.878944 1_565
Cu13 Hf2 2.924884 1_565
Cu13 Cu29 2.954877 1_565
Cu14 Cu7 2.501193 1_555
Cu14 Cu2 2.520892 1_555
Cu14 Cu6 2.590252 1_555
Cu14 Cu21 2.636386 1_556
Cu14 Hf6 2.647304 1_545
Cu14 Cu25 2.647759 1_545
Cu14 Hf9 2.674133 1_545
Cu14 Cu16 2.766591 1_555
Cu14 Hf3 2.767784 1_556
Cu14 Cu22 2.878944 1_545
Cu14 Hf1 2.924884 1_545
Cu14 Cu30 2.954877 1_545
Cu15 Cu6 2.501193 1_455
Cu15 Cu3 2.520892 1_555
Cu15 Cu7 2.590252 1_555
Cu15 Cu20 2.636386 1_555
Cu15 Hf7 2.647304 1_455
Cu15 Cu24 2.647759 1_455
Cu15 Hf8 2.674133 1_555
Cu15 Cu17 2.766591 1_555
Cu15 Hf2 2.767784 1_455
Cu15 Cu23 2.878944 1_555
Cu15 Hf0 2.924884 1_555
Cu15 Cu31 2.954877 1_555
Cu16 Cu7 2.501193 1_555
Cu16 Cu2 2.520892 1_555
Cu16 Cu6 2.590252 1_555
Cu16 Cu27 2.636386 1_556
Cu16 Hf8 2.647304 1_555
Cu16 Cu23 2.647759 1_555
Cu16 Hf7 2.674133 1_555
Cu16 Hf3 2.767784 1_556
Cu16 Cu24 2.878944 1_555
Cu16 Hf1 2.924884 1_555
Cu16 Cu30 2.954877 1_555
Cu17 Cu6 2.501193 1_455
Cu17 Cu3 2.520892 1_555
Cu17 Cu7 2.590252 1_555
Cu17 Cu26 2.636386 1_555
Cu17 Hf9 2.647304 1_445
Cu17 Cu22 2.647759 1_445
Cu17 Hf6 2.674133 1_545
Cu17 Hf2 2.767784 1_455
Cu17 Cu25 2.878944 1_545
Cu17 Hf0 2.924884 1_545
Cu17 Cu31 2.954877 1_545
Cu18 Cu5 2.501193 1_555
Cu18 Cu4 2.590252 1_555
Cu18 Cu25 2.636386 1_554
Cu18 Hf10 2.647304 1_565
Cu18 Cu21 2.647759 1_565
Cu18 Hf5 2.674133 1_565
Cu18 Hf1 2.767784 1_554
Cu18 Cu8 2.768274 1_555
Cu18 Cu26 2.878944 1_565
Cu18 Hf3 2.924884 1_565
Cu18 Cu28 2.954877 1_565
Cu19 Cu4 2.501193 1_655
Cu19 Cu5 2.590252 1_555
Cu19 Cu24 2.636386 1_555
Cu19 Hf11 2.647304 1_655
Cu19 Cu20 2.647759 1_655
Cu19 Hf4 2.674133 1_555
Cu19 Hf0 2.767784 1_655
Cu19 Cu9 2.768274 1_555
Cu19 Cu27 2.878944 1_555
Cu19 Hf2 2.924884 1_555
Cu19 Cu29 2.954877 1_555
Cu20 Cu8 2.469121 1_555
Cu20 Cu3 2.471999 1_555
Cu20 Cu28 2.487531 1_555
Cu20 Cu4 2.508399 1_555
Cu20 Hf0 2.734307 1_555
Cu20 Hf2 2.769674 1_455
Cu20 Hf11 2.865524 1_555
Cu20 Hf4 2.884240 1_555
Cu20 Hf8 2.984434 1_555
Cu21 Cu9 2.469121 1_545
Cu21 Cu29 2.487531 1_555
Cu21 Cu5 2.508399 1_545
Cu21 Hf1 2.734307 1_544
Cu21 Hf3 2.769674 1_555
Cu21 Hf10 2.865524 1_555
Cu21 Hf5 2.884240 1_655
Cu21 Hf9 2.984434 1_544
Cu22 Cu30 2.487531 1_555
Cu22 Cu6 2.508399 1_565
Cu22 Hf2 2.734307 1_565
Cu22 Hf0 2.769674 1_655
Cu22 Hf9 2.865524 1_555
Cu22 Hf6 2.884240 1_555
Cu22 Hf10 2.984434 1_565
Cu23 Cu31 2.487531 1_555
Cu23 Cu7 2.508399 1_555
Cu23 Hf3 2.734307 1_556
Cu23 Hf1 2.769674 1_555
Cu23 Hf8 2.865524 1_555
Cu23 Hf7 2.884240 1_455
Cu23 Hf11 2.984434 1_556
Cu24 Cu30 2.487531 1_555
Cu24 Cu6 2.508399 1_555
Cu24 Hf2 2.734307 1_555
Cu24 Hf0 2.769674 1_655
Cu24 Hf7 2.865524 1_555
Cu24 Hf8 2.884240 1_555
Cu24 Hf4 2.984434 1_555
Cu25 Cu31 2.487531 1_555
Cu25 Cu7 2.508399 1_565
Cu25 Hf3 2.734307 1_566
Cu25 Hf1 2.769674 1_555
Cu25 Hf6 2.865524 1_555
Cu25 Hf9 2.884240 1_455
Cu25 Hf5 2.984434 1_566
Cu26 Cu8 2.469121 1_545
Cu26 Cu3 2.471999 1_555
Cu26 Cu28 2.487531 1_555
Cu26 Cu4 2.508399 1_545
Cu26 Hf0 2.734307 1_545
Cu26 Hf2 2.769674 1_455
Cu26 Hf5 2.865524 1_555
Cu26 Hf10 2.884240 1_555
Cu26 Hf6 2.984434 1_545
Cu27 Cu9 2.469121 1_555
Cu27 Cu29 2.487531 1_555
Cu27 Cu5 2.508399 1_555
Cu27 Hf1 2.734307 1_554
Cu27 Hf3 2.769674 1_555
Cu27 Hf4 2.865524 1_555
Cu27 Hf11 2.884240 1_655
Cu27 Hf7 2.984434 1_554
Cu28 Cu3 2.419331 1_555
Cu28 Hf3 2.611976 1_555
Cu28 Hf11 2.674760 1_555
Cu28 Hf5 2.674760 1_555
Cu28 Hf4 2.801752 1_555
Cu28 Hf10 2.801752 1_555
Cu28 Hf2 3.073668 1_455
Cu29 Hf2 2.611976 1_555
Cu29 Hf4 2.674760 1_555
Cu29 Hf10 2.674760 1_555
Cu29 Hf5 2.801752 1_655
Cu29 Hf11 2.801752 1_655
Cu29 Hf3 3.073668 1_555
Cu30 Hf1 2.611976 1_555
Cu30 Hf9 2.674760 1_555
Cu30 Hf7 2.674760 1_555
Cu30 Hf6 2.801752 1_555
Cu30 Hf8 2.801752 1_555
Cu30 Hf0 3.073668 1_655
Cu31 Hf0 2.611976 1_555
Cu31 Hf6 2.674760 1_555
Cu31 Hf8 2.674760 1_555
Cu31 Hf9 2.801752 1_455
Cu31 Hf7 2.801752 1_455
Cu31 Hf1 3.073668 1_555
