# generated using pymatgen
data_Ba3(BrO)2
_symmetry_space_group_name_H-M   'P 1'
_cell_length_a   6.36713700
_cell_length_b   7.58459800
_cell_length_c   19.73879600
_cell_angle_alpha   90.00000000
_cell_angle_beta   90.00000000
_cell_angle_gamma   90.00000000
_symmetry_Int_Tables_number   1
_chemical_formula_structural   Ba3(BrO)2
_chemical_formula_sum   'Ba12 Br8 O8'
_cell_volume   953.22938196
_cell_formula_units_Z   4
loop_
 _symmetry_equiv_pos_site_id
 _symmetry_equiv_pos_as_xyz
  1  'x, y, z'
loop_
 _atom_site_type_symbol
 _atom_site_label
 _atom_site_symmetry_multiplicity
 _atom_site_fract_x
 _atom_site_fract_y
 _atom_site_fract_z
 _atom_site_occupancy
  Ba  Ba0  1  0.25000000  0.15280600  0.02198500  1
  Ba  Ba1  1  0.25000000  0.69411100  0.10864000  1
  Ba  Ba2  1  0.75000000  0.04899300  0.15855200  1
  Ba  Ba3  1  0.25000000  0.54899300  0.34144800  1
  Ba  Ba4  1  0.75000000  0.19411100  0.39136000  1
  Ba  Ba5  1  0.75000000  0.65280600  0.47801500  1
  Ba  Ba6  1  0.25000000  0.34719400  0.52198500  1
  Ba  Ba7  1  0.25000000  0.80588900  0.60864000  1
  Ba  Ba8  1  0.75000000  0.45100700  0.65855200  1
  Ba  Ba9  1  0.25000000  0.95100700  0.84144800  1
  Ba  Ba10  1  0.75000000  0.30588900  0.89136000  1
  Ba  Ba11  1  0.75000000  0.84719400  0.97801500  1
  Br  Br0  1  0.75000000  0.41839800  0.05925900  1
  Br  Br1  1  0.25000000  0.22613000  0.22697100  1
  Br  Br2  1  0.75000000  0.72613000  0.27302900  1
  Br  Br3  1  0.25000000  0.91839800  0.44074100  1
  Br  Br4  1  0.75000000  0.08160200  0.55925900  1
  Br  Br5  1  0.25000000  0.27387000  0.72697100  1
  Br  Br6  1  0.75000000  0.77387000  0.77302900  1
  Br  Br7  1  0.25000000  0.58160200  0.94074100  1
  O  O0  1  0.49965200  0.91977100  0.07934700  1
  O  O1  1  0.00034800  0.91977100  0.07934700  1
  O  O2  1  0.99965200  0.41977100  0.42065400  1
  O  O3  1  0.50034800  0.41977100  0.42065400  1
  O  O4  1  0.49965200  0.58022900  0.57934600  1
  O  O5  1  0.00034800  0.58022900  0.57934600  1
  O  O6  1  0.99965200  0.08022900  0.92065400  1
  O  O7  1  0.50034800  0.08022900  0.92065400  1
loop_
_geom_bond_atom_site_label_1
_geom_bond_atom_site_label_2
_geom_bond_distance
_geom_bond_site_symmetry_2
Ba0 O7 2.616192 1_554
Ba0 O6 2.616192 1_454
Ba0 O0 2.633004 1_545
Ba0 O1 2.633004 1_545
Ba0 Br7 3.626130 1_554
Ba0 Br0 3.838524 1_455
Ba0 Br0 3.838524 1_555
Ba1 O0 2.406330 1_555
Ba1 O1 2.406330 1_555
Ba1 Br7 3.422222 1_554
Ba1 Br0 3.931691 1_455
Ba1 Br0 3.931691 1_555
Ba2 O0 2.438377 1_545
Ba2 O1 2.438377 1_645
Ba2 Br2 3.332044 1_545
Ba2 Br0 3.419257 1_555
Ba2 Br1 3.709988 1_555
Ba2 Br1 3.709988 1_655
Ba3 O2 2.438389 1_455
Ba3 O3 2.438389 1_555
Ba3 Br1 3.332044 1_555
Ba3 Br3 3.419257 1_555
Ba3 Br2 3.709988 1_455
Ba3 Br2 3.709988 1_555
Ba4 O2 2.406335 1_555
Ba4 O3 2.406335 1_555
Ba4 Br4 3.422222 1_555
Ba4 Br3 3.931691 1_545
Ba4 Br3 3.931691 1_645
Ba5 O5 2.616192 1_655
Ba5 O4 2.616192 1_555
Ba5 O2 2.632995 1_555
Ba5 O3 2.632995 1_555
Ba5 Br4 3.626130 1_565
Ba5 Br3 3.838524 1_555
Ba5 Br3 3.838524 1_655
Ba6 O2 2.616192 1_455
Ba6 O3 2.616192 1_555
Ba6 O4 2.632995 1_555
Ba6 O5 2.632995 1_555
Ba6 Br3 3.626130 1_545
Ba6 Br4 3.838524 1_455
Ba6 Br4 3.838524 1_555
Ba7 O4 2.406335 1_555
Ba7 O5 2.406335 1_555
Ba7 Br3 3.422222 1_555
Ba7 Br4 3.931691 1_465
Ba7 Br4 3.931691 1_565
Ba8 O5 2.438389 1_655
Ba8 O4 2.438389 1_555
Ba8 Br6 3.332044 1_555
Ba8 Br4 3.419257 1_555
Ba8 Br5 3.709988 1_655
Ba8 Br5 3.709988 1_555
Ba9 O6 2.438389 1_465
Ba9 O7 2.438389 1_565
Ba9 Br5 3.332044 1_565
Ba9 Br7 3.419257 1_555
Ba9 Br6 3.709988 1_455
Ba9 Br6 3.709988 1_555
Ba10 O7 2.406335 1_555
Ba10 O6 2.406335 1_555
Ba10 Br0 3.422222 1_556
Ba10 Br7 3.931691 1_555
Ba10 Br7 3.931691 1_655
Ba11 O1 2.616207 1_656
Ba11 O0 2.616207 1_556
Ba11 O6 2.632995 1_565
Ba11 O7 2.632995 1_565
Ba11 Br0 3.626130 1_556
Ba11 Br7 3.838524 1_655
Ba11 Br7 3.838524 1_555
