# generated using pymatgen
data_Ba2CaI6
_symmetry_space_group_name_H-M   'P 1'
_cell_length_a   7.89828300
_cell_length_b   7.89828300
_cell_length_c   15.32772300
_cell_angle_alpha   90.00000000
_cell_angle_beta   90.00000000
_cell_angle_gamma   90.00000000
_symmetry_Int_Tables_number   1
_chemical_formula_structural   Ba2CaI6
_chemical_formula_sum   'Ba4 Ca2 I12'
_cell_volume   956.18741795
_cell_formula_units_Z   2
loop_
 _symmetry_equiv_pos_site_id
 _symmetry_equiv_pos_as_xyz
  1  'x, y, z'
loop_
 _atom_site_type_symbol
 _atom_site_label
 _atom_site_symmetry_multiplicity
 _atom_site_fract_x
 _atom_site_fract_y
 _atom_site_fract_z
 _atom_site_occupancy
  Ba  Ba0  1  0.00000000  0.00000000  0.33432100  1
  Ba  Ba1  1  0.00000000  0.00000000  0.66567900  1
  Ba  Ba2  1  0.50000000  0.50000000  0.16567900  1
  Ba  Ba3  1  0.50000000  0.50000000  0.83432100  1
  Ca  Ca0  1  0.00000000  0.00000000  0.00000000  1
  Ca  Ca1  1  0.50000000  0.50000000  0.50000000  1
  I  I0  1  0.18871200  0.81128800  0.15455600  1
  I  I1  1  0.18871200  0.81128800  0.84544400  1
  I  I2  1  0.21327600  0.78672400  0.50000000  1
  I  I3  1  0.28672400  0.28672400  0.00000000  1
  I  I4  1  0.31128800  0.31128800  0.34544400  1
  I  I5  1  0.31128800  0.31128800  0.65455600  1
  I  I6  1  0.68871200  0.68871200  0.34544400  1
  I  I7  1  0.68871200  0.68871200  0.65455600  1
  I  I8  1  0.71327600  0.71327600  0.00000000  1
  I  I9  1  0.78672400  0.21327600  0.50000000  1
  I  I10  1  0.81128800  0.18871200  0.15455600  1
  I  I11  1  0.81128800  0.18871200  0.84544400  1
loop_
_geom_bond_atom_site_label_1
_geom_bond_atom_site_label_2
_geom_bond_distance
_geom_bond_site_symmetry_2
Ba0 I10 3.469200 1_455
Ba0 I0 3.469200 1_545
Ba0 I6 3.481220 1_445
Ba0 I4 3.481220 1_555
Ba0 I2 3.481974 1_545
Ba0 I9 3.481974 1_455
Ba1 I11 3.469200 1_455
Ba1 I1 3.469200 1_545
Ba1 I7 3.481220 1_445
Ba1 I5 3.481220 1_555
Ba1 I2 3.481974 1_545
Ba1 I9 3.481974 1_455
Ba2 I4 3.469200 1_555
Ba2 I6 3.469200 1_555
Ba2 I0 3.481220 1_555
Ba2 I10 3.481220 1_555
Ba2 I8 3.481974 1_555
Ba2 I3 3.481974 1_555
Ba3 I5 3.469200 1_555
Ba3 I7 3.469200 1_555
Ba3 I11 3.481220 1_555
Ba3 I1 3.481220 1_555
Ba3 I3 3.481974 1_556
Ba3 I8 3.481974 1_556
Ca0 I0 3.171010 1_545
Ca0 I10 3.171010 1_455
Ca0 I11 3.171010 1_454
Ca0 I1 3.171010 1_544
Ca0 I3 3.202667 1_555
Ca0 I8 3.202667 1_445
Ca1 I5 3.171010 1_555
Ca1 I7 3.171010 1_555
Ca1 I6 3.171010 1_555
Ca1 I4 3.171010 1_555
Ca1 I2 3.202667 1_555
Ca1 I9 3.202667 1_555
