# generated using pymatgen
data_Li2CoSn(PO4)2
_symmetry_space_group_name_H-M   'P 1'
_cell_length_a   7.81655285
_cell_length_b   7.82224357
_cell_length_c   11.46113204
_cell_angle_alpha   88.17602593
_cell_angle_beta   88.15498739
_cell_angle_gamma   102.77848497
_symmetry_Int_Tables_number   1
_chemical_formula_structural   Li2CoSn(PO4)2
_chemical_formula_sum   'Li8 Co4 Sn4 P8 O32'
_cell_volume   682.51161854
_cell_formula_units_Z   4
loop_
 _symmetry_equiv_pos_site_id
 _symmetry_equiv_pos_as_xyz
  1  'x, y, z'
loop_
 _atom_site_type_symbol
 _atom_site_label
 _atom_site_symmetry_multiplicity
 _atom_site_fract_x
 _atom_site_fract_y
 _atom_site_fract_z
 _atom_site_occupancy
  Li  Li0  1  0.99997100  0.99998100  0.99999400  1
  Li  Li1  1  0.50004500  0.50004500  0.99998800  1
  Li  Li2  1  0.25275400  0.75137600  0.99891300  1
  Li  Li3  1  0.74717700  0.24860100  0.00107900  1
  Li  Li4  1  0.25037800  0.24975600  0.50012000  1
  Li  Li5  1  0.74962800  0.75023200  0.49988900  1
  Li  Li6  1  0.49999300  0.99997900  0.50000600  1
  Li  Li7  1  0.99997100  0.50001800  0.49999800  1
  Co  Co0  1  0.11260900  0.86195200  0.30176800  1
  Co  Co1  1  0.88733800  0.13795600  0.69819000  1
  Co  Co2  1  0.61157400  0.36192700  0.30139600  1
  Co  Co3  1  0.38814500  0.63802300  0.69850200  1
  Sn  Sn0  1  0.62417700  0.87309000  0.22163600  1
  Sn  Sn1  1  0.12704700  0.37737100  0.22187400  1
  Sn  Sn2  1  0.37568100  0.12676700  0.77836600  1
  Sn  Sn3  1  0.87305300  0.62272600  0.77809700  1
  P  P0  1  0.30686700  0.05656900  0.11277000  1
  P  P1  1  0.80636500  0.55643500  0.11299400  1
  P  P2  1  0.69313600  0.94344500  0.88724400  1
  P  P3  1  0.19367500  0.44351400  0.88700700  1
  P  P4  1  0.83595600  0.08556900  0.42158600  1
  P  P5  1  0.33555400  0.58605800  0.42406600  1
  P  P6  1  0.16404300  0.91444000  0.57834300  1
  P  P7  1  0.66445100  0.41397500  0.57600400  1
  O  O0  1  0.74342900  0.99247200  0.01395300  1
  O  O1  1  0.24268900  0.49449700  0.01356300  1
  O  O2  1  0.25652400  0.00757300  0.98606900  1
  O  O3  1  0.75740800  0.50542300  0.98643400  1
  O  O4  1  0.46494200  0.21014600  0.12130200  1
  O  O5  1  0.95943500  0.71467100  0.12185600  1
  O  O6  1  0.53522300  0.78972700  0.87871400  1
  O  O7  1  0.04036500  0.28552900  0.87813400  1
  O  O8  1  0.49364300  0.74422000  0.41622300  1
  O  O9  1  0.99410200  0.24346500  0.41390300  1
  O  O10  1  0.50637200  0.25581100  0.58382600  1
  O  O11  1  0.00587700  0.75654100  0.58604000  1
  O  O12  1  0.23010700  0.98097700  0.45168400  1
  O  O13  1  0.73191800  0.48016800  0.44952800  1
  O  O14  1  0.76988000  0.01906700  0.54824000  1
  O  O15  1  0.26814700  0.51985500  0.55053700  1
  O  O16  1  0.13468000  0.08602600  0.17771200  1
  O  O17  1  0.62958200  0.57981900  0.17603000  1
  O  O18  1  0.33084100  0.88053100  0.17618100  1
  O  O19  1  0.83602000  0.38443300  0.17807400  1
  O  O20  1  0.66902300  0.11940000  0.82381100  1
  O  O21  1  0.16448900  0.61585500  0.82205000  1
  O  O22  1  0.86544500  0.91414900  0.82234100  1
  O  O23  1  0.37021400  0.41971800  0.82390700  1
  O  O24  1  0.67020700  0.12643400  0.36017000  1
  O  O25  1  0.17077900  0.62794700  0.36250400  1
  O  O26  1  0.87712200  0.91983500  0.36029500  1
  O  O27  1  0.37757600  0.42119800  0.36296400  1
  O  O28  1  0.12283500  0.08015400  0.63963700  1
  O  O29  1  0.62255300  0.57893100  0.63717700  1
  O  O30  1  0.32972700  0.87353300  0.63974400  1
  O  O31  1  0.82925700  0.37208900  0.63756900  1
loop_
_geom_bond_atom_site_label_1
_geom_bond_atom_site_label_2
_geom_bond_distance
_geom_bond_site_symmetry_2
Li0 O2 1.994135 1_665
Li0 O0 1.994194 1_556
Li0 O22 2.369555 1_555
Li0 O16 2.371152 1_666
Li0 O5 2.547967 1_556
Li0 O7 2.549600 1_665
Li1 O1 2.003390 1_556
Li1 O3 2.003704 1_555
Li1 O17 2.327591 1_556
Li1 O23 2.329783 1_555
Li1 O6 2.577090 1_555
Li1 O4 2.578808 1_556
Li2 O1 1.994916 1_556
Li2 O2 1.998378 1_565
Li2 O18 2.336392 1_556
Li2 O21 2.368968 1_555
Li2 O6 2.519449 1_555
Li2 O5 2.607603 1_456
Li3 O3 1.994228 1_554
Li3 O0 1.997897 1_545
Li3 O20 2.336638 1_554
Li3 O19 2.372292 1_555
Li3 O4 2.517993 1_555
Li3 O7 2.606581 1_654
Li4 O27 2.105560 1_555
Li4 O28 2.118503 1_555
Li4 O12 2.164761 1_545
Li4 O15 2.184055 1_555
Li4 O10 2.238564 1_555
Li4 O9 2.253573 1_455
Li5 O29 2.105780 1_555
Li5 O26 2.119024 1_555
Li5 O14 2.164920 1_565
Li5 O13 2.183667 1_555
Li5 O8 2.238345 1_555
Li5 O11 2.253007 1_655
Li6 O30 2.119941 1_555
Li6 O24 2.120569 1_565
Li6 O14 2.172387 1_565
Li6 O12 2.172763 1_555
Li6 O8 2.237948 1_555
Li6 O10 2.238621 1_565
Li7 O25 2.107210 1_655
Li7 O31 2.107468 1_555
Li7 O13 2.165323 1_555
Li7 O15 2.166498 1_655
Li7 O11 2.255860 1_655
Li7 O9 2.256401 1_555
Co0 O25 2.085490 1_555
Co0 O26 2.086055 1_455
Co0 O12 2.118436 1_555
Co0 O18 2.172936 1_555
Co0 O16 2.194382 1_565
Co0 O5 2.590870 1_455
Co1 O31 2.085701 1_555
Co1 O28 2.085949 1_655
Co1 O14 2.118257 1_555
Co1 O20 2.173692 1_555
Co1 O22 2.193635 1_545
Co1 O7 2.591567 1_655
Co2 O27 2.090737 1_555
Co2 O24 2.090796 1_555
Co2 O13 2.107283 1_555
Co2 O17 2.171234 1_555
Co2 O19 2.189630 1_555
Co2 O4 2.586519 1_555
Co3 O30 2.090151 1_555
Co3 O29 2.092189 1_555
Co3 O15 2.104463 1_555
Co3 O23 2.174019 1_555
Co3 O21 2.186838 1_555
Co3 O6 2.588687 1_555
O0 P2 1.554383 1_554
O0 Sn0 2.595620 1_555
O1 P3 1.553937 1_554
O1 Sn1 2.590748 1_555
O2 P0 1.554331 1_556
O2 Sn2 2.595271 1_555
O3 P1 1.553935 1_556
O3 Sn3 2.591364 1_555
O4 P0 1.529075 1_555
O5 P1 1.527952 1_555
O6 P2 1.528939 1_555
O7 P3 1.527852 1_555
O8 P5 1.541156 1_555
O8 Sn0 2.507258 1_555
O9 P4 1.540125 1_555
O9 Sn1 2.499065 1_655
O10 P7 1.541115 1_555
O10 Sn2 2.507535 1_555
O11 P6 1.540238 1_555
O11 Sn3 2.498847 1_455
O12 P6 1.558716 1_555
O13 P7 1.558727 1_555
O14 P4 1.558622 1_555
O15 P5 1.558582 1_555
O16 P0 1.581821 1_555
O16 Sn1 2.363279 1_555
O17 P1 1.587708 1_555
O17 Sn0 2.378106 1_555
O18 P0 1.587033 1_565
O18 Sn0 2.380357 1_555
O19 P1 1.582879 1_555
O19 Sn1 2.357382 1_655
O20 P2 1.586925 1_545
O20 Sn2 2.380241 1_555
O21 P3 1.583271 1_555
O21 Sn3 2.360589 1_455
O22 P2 1.582010 1_555
O22 Sn3 2.364059 1_555
O23 P3 1.587385 1_555
O23 Sn2 2.375586 1_555
O24 P4 1.582338 1_555
O24 Sn0 2.549373 1_545
O25 P5 1.579416 1_555
O25 Sn1 2.548870 1_555
O26 P4 1.582918 1_565
O26 Sn0 2.547133 1_555
O27 P5 1.578406 1_555
O27 Sn1 2.551359 1_555
O28 P6 1.582919 1_545
O28 Sn2 2.547074 1_555
O29 P7 1.579079 1_555
O29 Sn3 2.549900 1_555
O30 P6 1.581934 1_555
O30 Sn2 2.549379 1_565
O31 P7 1.579636 1_555
O31 Sn3 2.548452 1_555
