# generated using pymatgen
data_Li6MnSn3(PO4)6
_symmetry_space_group_name_H-M   'P 1'
_cell_length_a   8.60685900
_cell_length_b   8.64029270
_cell_length_c   8.65457861
_cell_angle_alpha   64.13619457
_cell_angle_beta   64.45725343
_cell_angle_gamma   64.26856035
_symmetry_Int_Tables_number   1
_chemical_formula_structural   Li6MnSn3(PO4)6
_chemical_formula_sum   'Li6 Mn1 Sn3 P6 O24'
_cell_volume   497.95907544
_cell_formula_units_Z   1
loop_
 _symmetry_equiv_pos_site_id
 _symmetry_equiv_pos_as_xyz
  1  'x, y, z'
loop_
 _atom_site_type_symbol
 _atom_site_label
 _atom_site_symmetry_multiplicity
 _atom_site_fract_x
 _atom_site_fract_y
 _atom_site_fract_z
 _atom_site_occupancy
  Li  Li0  1  0.97845100  0.01899000  0.01460300  1
  Li  Li1  1  0.25274700  0.62852300  0.84448500  1
  Li  Li2  1  0.52383700  0.47782400  0.47876200  1
  Li  Li3  1  0.77840500  0.31906600  0.14125600  1
  Li  Li4  1  0.30958700  0.13642500  0.78052500  1
  Li  Li5  1  0.14114200  0.77984900  0.31409800  1
  Mn  Mn0  1  0.16066800  0.16209500  0.15957900  1
  Sn  Sn0  1  0.85351400  0.85607900  0.85182900  1
  Sn  Sn1  1  0.64072300  0.64569500  0.63752600  1
  Sn  Sn2  1  0.33613700  0.33729800  0.33898900  1
  P  P0  1  0.92565700  0.58222200  0.25410400  1
  P  P1  1  0.58303100  0.25464400  0.92873400  1
  P  P2  1  0.25175300  0.93363300  0.57616800  1
  P  P3  1  0.75695000  0.04127800  0.44593700  1
  P  P4  1  0.44031000  0.75540800  0.03398400  1
  P  P5  1  0.04557800  0.45091900  0.75862900  1
  O  O0  1  0.87851200  0.51230900  0.69698400  1
  O  O1  1  0.68009100  0.89125000  0.48446600  1
  O  O2  1  0.90082700  0.76185500  0.09404400  1
  O  O3  1  0.45419700  0.68456000  0.88767500  1
  O  O4  1  0.73707000  0.58260000  0.40152500  1
  O  O5  1  0.98689400  0.41565100  0.19587400  1
  O  O6  1  0.76239000  0.09767000  0.89658500  1
  O  O7  1  0.57574100  0.40748400  0.74228100  1
  O  O8  1  0.39461400  0.73907800  0.58642500  1
  O  O9  1  0.82906500  0.99070200  0.60199300  1
  O  O10  1  0.91428100  0.04910800  0.26641500  1
  O  O11  1  0.61422100  0.80682100  0.96699000  1
  O  O12  1  0.41261800  0.20092300  0.99004900  1
  O  O13  1  0.10108400  0.89664800  0.76221100  1
  O  O14  1  0.19488500  0.99067300  0.41058300  1
  O  O15  1  0.61473400  0.23175500  0.42376500  1
  O  O16  1  0.42087800  0.61572100  0.22434600  1
  O  O17  1  0.26890600  0.92231700  0.04326800  1
  O  O18  1  0.03151800  0.60598900  0.81652800  1
  O  O19  1  0.23046100  0.41489500  0.61308200  1
  O  O20  1  0.59853200  0.31870800  0.05941300  1
  O  O21  1  0.04343800  0.27425900  0.91946700  1
  O  O22  1  0.31821600  0.06539300  0.58659400  1
  O  O23  1  0.05833900  0.59269000  0.32123000  1
loop_
_geom_bond_atom_site_label_1
_geom_bond_atom_site_label_2
_geom_bond_distance
_geom_bond_site_symmetry_2
Li0 O10 2.110505 1_555
Li0 O6 2.213143 1_554
Li0 O21 2.223756 1_654
Li0 O2 2.327046 1_545
Li0 O17 2.355774 1_645
Li0 O13 2.461774 1_644
Li1 O8 2.047233 1_555
Li1 O13 2.077126 1_555
Li1 O18 2.117144 1_555
Li1 O3 2.196844 1_555
Li2 O15 2.115762 1_555
Li2 O4 2.119276 1_555
Li2 O7 2.281192 1_555
Li2 O16 2.351608 1_555
Li2 O8 2.441735 1_555
Li2 O19 2.476327 1_555
Li3 O20 1.962189 1_555
Li3 O10 2.121579 1_555
Li3 O15 2.207900 1_555
Li3 O21 2.267896 1_654
Li3 O5 2.552607 1_555
Li4 O22 1.987670 1_555
Li4 O21 2.148679 1_555
Li4 O19 2.176965 1_555
Li4 O17 2.218409 1_546
Li5 O23 2.000608 1_555
Li5 O17 2.157259 1_555
Li5 O16 2.189699 1_555
Li5 O10 2.303945 1_465
Li5 O14 2.573173 1_555
Mn0 O14 2.089330 1_545
Mn0 O12 2.103837 1_554
Mn0 O5 2.117861 1_455
Mn0 O21 2.340437 1_554
Mn0 O17 2.346969 1_545
Mn0 O10 2.371529 1_455
O0 P5 1.544662 1_655
O0 Sn1 2.030857 1_555
O1 P3 1.551253 1_565
O1 Sn1 2.038653 1_555
O2 P0 1.570035 1_555
O2 Sn0 2.045062 1_554
O3 P4 1.573089 1_556
O3 Sn1 2.132125 1_555
O4 P0 1.573397 1_555
O4 Sn1 2.067591 1_555
O5 P0 1.532388 1_555
O6 P1 1.562325 1_555
O6 Sn0 2.035772 1_545
O7 P1 1.583655 1_555
O7 Sn1 2.074907 1_555
O8 P2 1.585797 1_555
O8 Sn1 2.084706 1_555
O9 P3 1.540390 1_565
O9 Sn0 2.014454 1_555
O10 P3 1.557463 1_555
O11 P4 1.542149 1_556
O11 Sn0 2.009260 1_555
O12 P1 1.534066 1_555
O13 P2 1.576888 1_555
O13 Sn0 2.061767 1_455
O14 P2 1.521634 1_555
O15 P3 1.556114 1_555
O15 Sn2 2.480789 1_555
O16 P4 1.549758 1_555
O16 Sn2 2.473978 1_555
O17 P4 1.553747 1_555
O18 P5 1.566403 1_555
O18 Sn0 2.099423 1_455
O19 P5 1.548922 1_555
O19 Sn2 2.429280 1_555
O20 P1 1.530924 1_554
O20 Sn2 2.508469 1_555
O21 P5 1.554476 1_555
O22 P2 1.526772 1_545
O22 Sn2 2.402604 1_555
O23 P0 1.535394 1_455
O23 Sn2 2.459568 1_555
