# generated using pymatgen
data_Li5MnHO4
_symmetry_space_group_name_H-M   'P 1'
_cell_length_a   8.81467300
_cell_length_b   9.16164500
_cell_length_c   10.92114200
_cell_angle_alpha   90.00000000
_cell_angle_beta   90.00000000
_cell_angle_gamma   90.00000000
_symmetry_Int_Tables_number   1
_chemical_formula_structural   Li5MnHO4
_chemical_formula_sum   'Li40 Mn8 H8 O32'
_cell_volume   881.95762499
_cell_formula_units_Z   8
loop_
 _symmetry_equiv_pos_site_id
 _symmetry_equiv_pos_as_xyz
  1  'x, y, z'
loop_
 _atom_site_type_symbol
 _atom_site_label
 _atom_site_symmetry_multiplicity
 _atom_site_fract_x
 _atom_site_fract_y
 _atom_site_fract_z
 _atom_site_occupancy
  Li  Li0  1  0.97894500  0.58020800  0.19544800  1
  Li  Li1  1  0.97894500  0.91979200  0.19544800  1
  Li  Li2  1  0.06726300  0.07325700  0.43441300  1
  Li  Li3  1  0.06726300  0.42674300  0.43441300  1
  Li  Li4  1  0.07104500  0.75000000  0.43887800  1
  Li  Li5  1  0.11985200  0.25000000  0.98101700  1
  Li  Li6  1  0.11006800  0.56824900  0.99042300  1
  Li  Li7  1  0.11006800  0.93175100  0.99042300  1
  Li  Li8  1  0.20312500  0.57678500  0.63976400  1
  Li  Li9  1  0.20312500  0.92321500  0.63976400  1
  Li  Li10  1  0.29687500  0.07678500  0.13976400  1
  Li  Li11  1  0.29687500  0.42321500  0.13976400  1
  Li  Li12  1  0.38993200  0.06824900  0.49042300  1
  Li  Li13  1  0.38993200  0.43175100  0.49042300  1
  Li  Li14  1  0.38014800  0.75000000  0.48101700  1
  Li  Li15  1  0.42895500  0.25000000  0.93887800  1
  Li  Li16  1  0.43273700  0.57325700  0.93441300  1
  Li  Li17  1  0.43273700  0.92674300  0.93441300  1
  Li  Li18  1  0.52105500  0.08020800  0.69544800  1
  Li  Li19  1  0.52105500  0.41979200  0.69544800  1
  Li  Li20  1  0.47894500  0.58020800  0.30455200  1
  Li  Li21  1  0.47894500  0.91979200  0.30455200  1
  Li  Li22  1  0.56726300  0.07325700  0.06558700  1
  Li  Li23  1  0.56726300  0.42674300  0.06558700  1
  Li  Li24  1  0.57104500  0.75000000  0.06112200  1
  Li  Li25  1  0.61985200  0.25000000  0.51898300  1
  Li  Li26  1  0.61006800  0.56824900  0.50957700  1
  Li  Li27  1  0.61006800  0.93175100  0.50957700  1
  Li  Li28  1  0.70312500  0.57678500  0.86023600  1
  Li  Li29  1  0.70312500  0.92321500  0.86023600  1
  Li  Li30  1  0.79687500  0.07678500  0.36023600  1
  Li  Li31  1  0.79687500  0.42321500  0.36023600  1
  Li  Li32  1  0.88993200  0.06824900  0.00957700  1
  Li  Li33  1  0.88993200  0.43175100  0.00957700  1
  Li  Li34  1  0.88014800  0.75000000  0.01898300  1
  Li  Li35  1  0.92895500  0.25000000  0.56112200  1
  Li  Li36  1  0.93273700  0.92674300  0.56558700  1
  Li  Li37  1  0.93273700  0.57325700  0.56558700  1
  Li  Li38  1  0.02105500  0.08020800  0.80455200  1
  Li  Li39  1  0.02105500  0.41979200  0.80455200  1
  Mn  Mn0  1  0.01893100  0.25000000  0.21493900  1
  Mn  Mn1  1  0.20941500  0.25000000  0.65614900  1
  Mn  Mn2  1  0.29058500  0.75000000  0.15614900  1
  Mn  Mn3  1  0.48106900  0.75000000  0.71493900  1
  Mn  Mn4  1  0.51893100  0.25000000  0.28506100  1
  Mn  Mn5  1  0.70941500  0.25000000  0.84385100  1
  Mn  Mn6  1  0.79058500  0.75000000  0.34385100  1
  Mn  Mn7  1  0.98106900  0.75000000  0.78506100  1
  H  H0  1  0.17249000  0.57861000  0.33144400  1
  H  H1  1  0.17249000  0.92139000  0.33144400  1
  H  H2  1  0.32751000  0.07861000  0.83144400  1
  H  H3  1  0.32751000  0.42139000  0.83144400  1
  H  H4  1  0.67249000  0.57861000  0.16855600  1
  H  H5  1  0.67249000  0.92139000  0.16855600  1
  H  H6  1  0.82751000  0.07861000  0.66855600  1
  H  H7  1  0.82751000  0.42139000  0.66855600  1
  O  O0  1  0.06243500  0.75000000  0.61651200  1
  O  O1  1  0.07937500  0.41810700  0.11353300  1
  O  O2  1  0.07937500  0.08189300  0.11353300  1
  O  O3  1  0.06220700  0.41469000  0.61831900  1
  O  O4  1  0.06220700  0.08531000  0.61831900  1
  O  O5  1  0.07706300  0.75000000  0.10309700  1
  O  O6  1  0.23268200  0.06367700  0.87741700  1
  O  O7  1  0.23268200  0.43632300  0.87741700  1
  O  O8  1  0.26731800  0.56367700  0.37741700  1
  O  O9  1  0.26731800  0.93632300  0.37741700  1
  O  O10  1  0.42293700  0.25000000  0.60309700  1
  O  O11  1  0.43779300  0.58531000  0.11831900  1
  O  O12  1  0.43779300  0.91469000  0.11831900  1
  O  O13  1  0.42062500  0.58189300  0.61353300  1
  O  O14  1  0.42062500  0.91810700  0.61353300  1
  O  O15  1  0.43756500  0.25000000  0.11651200  1
  O  O16  1  0.56243500  0.75000000  0.88348800  1
  O  O17  1  0.57937500  0.08189300  0.38646700  1
  O  O18  1  0.57937500  0.41810700  0.38646700  1
  O  O19  1  0.56220700  0.08531000  0.88168100  1
  O  O20  1  0.56220700  0.41469000  0.88168100  1
  O  O21  1  0.57706300  0.75000000  0.39690300  1
  O  O22  1  0.73268200  0.06367700  0.62258300  1
  O  O23  1  0.73268200  0.43632300  0.62258300  1
  O  O24  1  0.76731800  0.56367700  0.12258300  1
  O  O25  1  0.76731800  0.93632300  0.12258300  1
  O  O26  1  0.92293700  0.25000000  0.89690300  1
  O  O27  1  0.93779300  0.91469000  0.38168100  1
  O  O28  1  0.93779300  0.58531000  0.38168100  1
  O  O29  1  0.92062500  0.91810700  0.88646700  1
  O  O30  1  0.92062500  0.58189300  0.88646700  1
  O  O31  1  0.93756500  0.25000000  0.38348800  1
loop_
_geom_bond_atom_site_label_1
_geom_bond_atom_site_label_2
_geom_bond_distance
_geom_bond_site_symmetry_2
Li0 O1 1.946678 1_655
Li0 O24 2.033713 1_555
Li0 O5 2.045741 1_655
Li0 O28 2.066500 1_555
Li1 O2 1.946678 1_665
Li1 O25 2.033713 1_555
Li1 O5 2.045741 1_655
Li1 O27 2.066500 1_555
Li2 O27 1.935074 1_445
Li2 O4 2.011990 1_555
Li2 O31 2.058717 1_455
Li2 O9 2.251883 1_545
Li3 O28 1.935074 1_455
Li3 O3 2.011990 1_555
Li3 O31 2.058717 1_455
Li3 O8 2.251883 1_555
Li4 O0 1.941450 1_555
Li4 O27 2.011564 1_455
Li4 O28 2.011564 1_455
Li5 O26 1.963839 1_455
Li5 O1 2.143312 1_556
Li5 O2 2.143312 1_556
Li5 O6 2.276668 1_555
Li5 O7 2.276668 1_555
Li6 O1 1.942425 1_556
Li6 O30 2.023133 1_455
Li6 O7 2.037677 1_555
Li6 O5 2.090819 1_556
Li7 O2 1.942425 1_566
Li7 O29 2.023133 1_455
Li7 O6 2.037677 1_565
Li7 O5 2.090819 1_556
Li8 O13 1.939041 1_555
Li8 O3 1.950172 1_555
Li8 O0 2.029971 1_555
Li9 O14 1.939041 1_555
Li9 O4 1.950172 1_565
Li9 O0 2.029971 1_555
Li10 O2 1.939041 1_555
Li10 O12 1.950172 1_545
Li10 O15 2.029971 1_555
Li11 O1 1.939041 1_555
Li11 O11 1.950172 1_555
Li11 O15 2.029971 1_555
Li12 O14 1.942425 1_545
Li12 O17 2.023133 1_555
Li12 O9 2.037677 1_545
Li12 O10 2.090819 1_555
Li13 O13 1.942425 1_555
Li13 O18 2.023133 1_555
Li13 O8 2.037677 1_555
Li13 O10 2.090819 1_555
Li14 O21 1.963839 1_555
Li14 O13 2.143312 1_555
Li14 O14 2.143312 1_555
Li14 O8 2.276668 1_555
Li14 O9 2.276668 1_555
Li15 O15 1.941450 1_556
Li15 O19 2.011564 1_555
Li15 O20 2.011564 1_555
Li16 O20 1.935074 1_555
Li16 O11 2.011990 1_556
Li16 O16 2.058717 1_555
Li16 O7 2.251883 1_555
Li17 O19 1.935074 1_565
Li17 O12 2.011990 1_556
Li17 O16 2.058717 1_555
Li17 O6 2.251883 1_565
Li18 O14 1.946678 1_545
Li18 O22 2.033713 1_555
Li18 O10 2.045741 1_555
Li18 O19 2.066500 1_555
Li19 O13 1.946678 1_555
Li19 O23 2.033713 1_555
Li19 O10 2.045741 1_555
Li19 O20 2.066500 1_555
Li20 O18 1.946678 1_555
Li20 O8 2.033713 1_555
Li20 O21 2.045741 1_555
Li20 O11 2.066500 1_555
Li21 O17 1.946678 1_565
Li21 O9 2.033713 1_555
Li21 O21 2.045741 1_555
Li21 O12 2.066500 1_555
Li22 O12 1.935074 1_545
Li22 O19 2.011990 1_554
Li22 O15 2.058717 1_555
Li22 O25 2.251883 1_545
Li23 O11 1.935074 1_555
Li23 O20 2.011990 1_554
Li23 O15 2.058717 1_555
Li23 O24 2.251883 1_555
Li24 O16 1.941450 1_554
Li24 O11 2.011564 1_555
Li24 O12 2.011564 1_555
Li25 O10 1.963839 1_555
Li25 O17 2.143312 1_555
Li25 O18 2.143312 1_555
Li25 O22 2.276668 1_555
Li25 O23 2.276668 1_555
Li26 O18 1.942425 1_555
Li26 O13 2.023133 1_555
Li26 O23 2.037677 1_555
Li26 O21 2.090819 1_555
Li27 O17 1.942425 1_565
Li27 O14 2.023133 1_555
Li27 O22 2.037677 1_565
Li27 O21 2.090819 1_555
Li28 O30 1.939041 1_555
Li28 O20 1.950172 1_555
Li28 O16 2.029971 1_555
Li29 O29 1.939041 1_555
Li29 O19 1.950172 1_565
Li29 O16 2.029971 1_555
Li30 O17 1.939041 1_555
Li30 O27 1.950172 1_545
Li30 O31 2.029971 1_555
Li31 O18 1.939041 1_555
Li31 O28 1.950172 1_555
Li31 O31 2.029971 1_555
Li32 O29 1.942425 1_544
Li32 O2 2.023133 1_655
Li32 O25 2.037677 1_545
Li32 O26 2.090819 1_554
Li33 O30 1.942425 1_554
Li33 O1 2.023133 1_655
Li33 O24 2.037677 1_555
Li33 O26 2.090819 1_554
Li34 O5 1.963839 1_655
Li34 O30 2.143312 1_554
Li34 O29 2.143312 1_554
Li34 O25 2.276668 1_555
Li34 O24 2.276668 1_555
Li35 O31 1.941450 1_555
Li35 O3 2.011564 1_655
Li35 O4 2.011564 1_655
Li36 O4 1.935074 1_665
Li36 O27 2.011990 1_555
Li36 O0 2.058717 1_655
Li36 O22 2.251883 1_565
Li37 O3 1.935074 1_655
Li37 O28 2.011990 1_555
Li37 O0 2.058717 1_655
Li37 O23 2.251883 1_555
Li38 O29 1.946678 1_445
Li38 O6 2.033713 1_555
Li38 O26 2.045741 1_455
Li38 O4 2.066500 1_555
Li39 O30 1.946678 1_455
Li39 O7 2.033713 1_555
Li39 O26 2.045741 1_455
Li39 O3 2.066500 1_555
Mn0 O2 1.970375 1_555
Mn0 O1 1.970375 1_555
Mn0 O31 1.975538 1_455
Mn1 O10 1.969287 1_555
Mn1 O3 2.032487 1_555
Mn1 O4 2.032487 1_555
Mn2 O5 1.969287 1_555
Mn2 O11 2.032487 1_555
Mn2 O12 2.032487 1_555
Mn3 O13 1.970375 1_555
Mn3 O14 1.970375 1_555
Mn3 O16 1.975538 1_555
Mn4 O17 1.970375 1_555
Mn4 O18 1.970375 1_555
Mn4 O15 1.975538 1_555
Mn5 O26 1.969287 1_555
Mn5 O19 2.032487 1_555
Mn5 O20 2.032487 1_555
Mn6 O21 1.969287 1_555
Mn6 O28 2.032487 1_555
Mn6 O27 2.032487 1_555
Mn7 O30 1.970375 1_555
Mn7 O29 1.970375 1_555
Mn7 O0 1.975538 1_655
H0 O8 0.984627 1_555
H0 Li3 2.015138 1_555
H0 Li4 2.154487 1_555
H1 O9 0.984627 1_555
H1 Li2 2.015138 1_565
H1 Li4 2.154487 1_555
H2 O6 0.984627 1_555
H2 Li17 2.015138 1_545
H2 Li15 2.154487 1_555
H3 O7 0.984627 1_555
H3 Li16 2.015138 1_555
H3 Li15 2.154487 1_555
H4 O24 0.984627 1_555
H4 Li23 2.015138 1_555
H4 Li24 2.154487 1_555
H5 O25 0.984627 1_555
H5 Li22 2.015138 1_565
H5 Li24 2.154487 1_555
H6 O22 0.984627 1_555
H6 Li36 2.015138 1_545
H6 Li35 2.154487 1_555
H7 O23 0.984627 1_555
H7 Li37 2.015138 1_555
H7 Li35 2.154487 1_555
