# generated using pymatgen
data_Li10Sn(PSe6)2
_symmetry_space_group_name_H-M   'P 1'
_cell_length_a   9.08308200
_cell_length_b   9.43421850
_cell_length_c   13.79637072
_cell_angle_alpha   92.05967153
_cell_angle_beta   90.71512510
_cell_angle_gamma   90.17597089
_symmetry_Int_Tables_number   1
_chemical_formula_structural   Li10Sn(PSe6)2
_chemical_formula_sum   'Li20 Sn2 P4 Se24'
_cell_volume   1181.37241612
_cell_formula_units_Z   2
loop_
 _symmetry_equiv_pos_site_id
 _symmetry_equiv_pos_as_xyz
  1  'x, y, z'
loop_
 _atom_site_type_symbol
 _atom_site_label
 _atom_site_symmetry_multiplicity
 _atom_site_fract_x
 _atom_site_fract_y
 _atom_site_fract_z
 _atom_site_occupancy
  Li  Li0  1  0.98903400  0.51629300  0.95232400  1
  Li  Li1  1  0.96464100  0.51746400  0.42754900  1
  Li  Li2  1  0.50951800  0.96471800  0.54474800  1
  Li  Li3  1  0.49703500  0.99352200  0.05163300  1
  Li  Li4  1  0.25944600  0.28912000  0.15852700  1
  Li  Li5  1  0.74260500  0.74826100  0.28344800  1
  Li  Li6  1  0.21520500  0.81646900  0.75464600  1
  Li  Li7  1  0.23325600  0.75842300  0.25294300  1
  Li  Li8  1  0.75215600  0.21703700  0.35133800  1
  Li  Li9  1  0.46176800  0.51262500  0.75132400  1
  Li  Li10  1  0.23098800  0.22492300  0.36557400  1
  Li  Li11  1  0.73605000  0.25909900  0.85727400  1
  Li  Li12  1  0.24785300  0.75953000  0.00645200  1
  Li  Li13  1  0.74034600  0.26177900  0.13204600  1
  Li  Li14  1  0.76488900  0.72464000  0.68829200  1
  Li  Li15  1  0.22179200  0.26183700  0.91995900  1
  Li  Li16  1  0.74570300  0.75955100  0.00893500  1
  Li  Li17  1  0.24220300  0.72064700  0.48430900  1
  Li  Li18  1  0.78522500  0.21552700  0.62493500  1
  Li  Li19  1  0.24026300  0.21290800  0.64874000  1
  Sn  Sn0  1  0.99592300  0.48964300  0.18335400  1
  Sn  Sn1  1  0.51051100  0.99089200  0.81605700  1
  P  P0  1  0.99246500  0.96607600  0.50177400  1
  P  P1  1  0.49234600  0.51531500  0.99274700  1
  P  P2  1  0.00879300  0.48161300  0.68381500  1
  P  P3  1  0.48781600  0.01035700  0.31094300  1
  Se  Se0  1  0.98808400  0.18177200  0.44362100  1
  Se  Se1  1  0.00569900  0.79012800  0.38702700  1
  Se  Se2  1  0.29017000  0.53393300  0.89852300  1
  Se  Se3  1  0.68937500  0.53431400  0.89706200  1
  Se  Se4  1  0.49642600  0.69835600  0.10046500  1
  Se  Se5  1  0.48566300  0.30552400  0.05966700  1
  Se  Se6  1  0.20143900  0.94539300  0.59002800  1
  Se  Se7  1  0.79633000  0.94604300  0.59284400  1
  Se  Se8  1  0.00601200  0.28149500  0.05839900  1
  Se  Se9  1  0.00085200  0.72619000  0.09848300  1
  Se  Se10  1  0.21709700  0.48501700  0.59912400  1
  Se  Se11  1  0.81078900  0.49160600  0.58709900  1
  Se  Se12  1  0.48625300  0.79666600  0.37526000  1
  Se  Se13  1  0.49589700  0.18212800  0.42623100  1
  Se  Se14  1  0.26794000  0.98894700  0.91053800  1
  Se  Se15  1  0.73152300  0.00336400  0.93000000  1
  Se  Se16  1  0.99132700  0.66456700  0.79115300  1
  Se  Se17  1  0.00374300  0.27588600  0.76036800  1
  Se  Se18  1  0.76210100  0.46575700  0.28033300  1
  Se  Se19  1  0.21682400  0.47892300  0.29917700  1
  Se  Se20  1  0.51943400  0.21617500  0.71545000  1
  Se  Se21  1  0.48868800  0.78151300  0.69219800  1
  Se  Se22  1  0.69027300  0.01385300  0.21949400  1
  Se  Se23  1  0.28762800  0.03128500  0.21696300  1
loop_
_geom_bond_atom_site_label_1
_geom_bond_atom_site_label_2
_geom_bond_distance
_geom_bond_site_symmetry_2
Li0 Se16 2.669467 1_555
Li0 Se8 2.702180 1_656
Li0 Se9 2.775818 1_656
Li0 Se3 2.824692 1_555
Li0 Se2 2.849028 1_655
Li1 Se11 2.640265 1_555
Li1 Se1 2.677948 1_655
Li1 Se18 2.752737 1_555
Li1 Se19 2.928451 1_655
Li2 Se13 2.670849 1_565
Li2 Se7 2.688150 1_555
Li2 Se21 2.724290 1_555
Li2 Se12 2.783009 1_555
Li2 Se6 2.881440 1_555
Li3 Se15 2.731334 1_564
Li3 Se14 2.830813 1_554
Li3 Se4 2.888441 1_555
Li3 Se22 2.888825 1_565
Li3 Se5 2.943776 1_565
Li3 Se23 3.000260 1_565
Li4 Se5 2.487843 1_555
Li4 Se23 2.602316 1_555
Li4 Se19 2.625816 1_555
Li4 Se8 2.669258 1_555
Li5 Se18 2.670464 1_555
Li5 Se12 2.696911 1_555
Li5 Se22 2.727364 1_565
Li5 Se1 2.788757 1_655
Li6 Se16 2.549915 1_455
Li6 Se6 2.616382 1_555
Li6 Se21 2.657003 1_555
Li6 Se14 2.687162 1_555
Li7 Se23 2.684619 1_565
Li7 Se19 2.739170 1_555
Li7 Se1 2.800557 1_555
Li7 Se12 2.848340 1_555
Li7 Se9 2.987784 1_555
Li8 Se0 2.508111 1_555
Li8 Se18 2.576799 1_555
Li8 Se13 2.583347 1_555
Li8 Se22 2.648822 1_555
Li9 Se2 2.577897 1_555
Li9 Se21 2.703737 1_555
Li9 Se3 2.867526 1_555
Li9 Se20 2.873539 1_555
Li9 Se10 3.042465 1_555
Li10 Se0 2.505649 1_455
Li10 Se13 2.575472 1_555
Li10 Se19 2.598966 1_555
Li10 Se23 2.751096 1_555
Li11 Se15 2.646463 1_555
Li11 Se3 2.670707 1_555
Li11 Se20 2.775925 1_555
Li11 Se17 2.796176 1_655
Li12 Se14 2.584238 1_554
Li12 Se2 2.585779 1_554
Li12 Se9 2.615332 1_555
Li12 Se4 2.664920 1_555
Li13 Se5 2.548857 1_555
Li13 Se8 2.638541 1_655
Li13 Se22 2.709850 1_555
Li13 Se18 2.762649 1_555
Li14 Se7 2.526259 1_555
Li14 Se16 2.560746 1_555
Li14 Se21 2.567920 1_555
Li14 Se11 2.599194 1_555
Li15 Se14 2.608563 1_545
Li15 Se2 2.666856 1_555
Li15 Se8 2.755719 1_556
Li15 Se17 2.949869 1_555
Li15 Se5 3.074242 1_556
Li16 Se15 2.582977 1_564
Li16 Se3 2.626250 1_554
Li16 Se9 2.637672 1_655
Li16 Se4 2.677739 1_555
Li17 Se6 2.560493 1_555
Li17 Se1 2.616416 1_555
Li17 Se10 2.786006 1_555
Li17 Se12 2.800486 1_555
Li18 Se7 2.567416 1_545
Li18 Se11 2.684646 1_555
Li18 Se20 2.731785 1_555
Li18 Se17 2.752998 1_655
Li18 Se0 3.132939 1_555
Li19 Se6 2.643951 1_545
Li19 Se20 2.686480 1_555
Li19 Se10 2.688692 1_555
Li19 Se17 2.713813 1_555
P0 Se7 2.204315 1_555
P0 Se0 2.214325 1_565
P0 Se6 2.255026 1_655
P0 Se1 2.256788 1_655
P1 Se5 2.214809 1_556
P1 Se4 2.237340 1_556
P1 Se3 2.247575 1_555
P1 Se2 2.247625 1_555
P2 Se11 2.230260 1_455
P2 Se10 2.236870 1_555
P2 Se16 2.240792 1_455
P2 Se17 2.243337 1_555
P3 Se13 2.229896 1_555
P3 Se12 2.231723 1_545
P3 Se23 2.233421 1_555
P3 Se22 2.243902 1_555
Se8 Sn0 2.568696 1_455
Se9 Sn0 2.557687 1_455
Se14 Sn1 2.574314 1_555
Se15 Sn1 2.534057 1_545
Se18 Sn0 2.537953 1_555
Se19 Sn0 2.553889 1_455
Se20 Sn1 2.581499 1_545
Se21 Sn1 2.570551 1_555
