# generated using pymatgen
data_Ti3V2Fe(PO4)6
_symmetry_space_group_name_H-M   'P 1'
_cell_length_a   8.54931685
_cell_length_b   8.54931685
_cell_length_c   8.54931683
_cell_angle_alpha   61.20229255
_cell_angle_beta   61.20229255
_cell_angle_gamma   61.20229916
_symmetry_Int_Tables_number   1
_chemical_formula_structural   Ti3V2Fe(PO4)6
_chemical_formula_sum   'Ti3 V2 Fe1 P6 O24'
_cell_volume   453.80406683
_cell_formula_units_Z   1
loop_
 _symmetry_equiv_pos_site_id
 _symmetry_equiv_pos_as_xyz
  1  'x, y, z'
loop_
 _atom_site_type_symbol
 _atom_site_label
 _atom_site_symmetry_multiplicity
 _atom_site_fract_x
 _atom_site_fract_y
 _atom_site_fract_z
 _atom_site_occupancy
  Ti  Ti0  1  0.35525700  0.35525700  0.35525700  1
  Ti  Ti1  1  0.14224100  0.14224100  0.14224100  1
  Ti  Ti2  1  0.64506800  0.64506800  0.64506800  1
  V  V0  1  0.99876900  0.99876900  0.99876900  1
  V  V1  1  0.49900400  0.49900400  0.49900400  1
  Fe  Fe0  1  0.85654600  0.85654600  0.85654600  1
  P  P0  1  0.75141800  0.04616900  0.45590400  1
  P  P1  1  0.04616900  0.45590400  0.75141800  1
  P  P2  1  0.45590400  0.75141800  0.04616900  1
  P  P3  1  0.54282500  0.25161100  0.95528000  1
  P  P4  1  0.95528000  0.54282500  0.25161100  1
  P  P5  1  0.25161100  0.95528000  0.54282500  1
  O  O0  1  0.88167800  0.50290600  0.68549900  1
  O  O1  1  0.50290600  0.68549900  0.88167800  1
  O  O2  1  0.68549900  0.88167800  0.50290600  1
  O  O3  1  0.90862300  0.05807700  0.25739100  1
  O  O4  1  0.81715100  0.01591800  0.60474300  1
  O  O5  1  0.58939200  0.24179000  0.43278600  1
  O  O6  1  0.05807700  0.25739100  0.90862300  1
  O  O7  1  0.24179000  0.43278600  0.58939200  1
  O  O8  1  0.38120700  0.18490700  0.00008700  1
  O  O9  1  0.43278600  0.58939200  0.24179000  1
  O  O10  1  0.73540100  0.09892100  0.94819700  1
  O  O11  1  0.00008700  0.38120700  0.18490700  1
  O  O12  1  0.01591800  0.60474300  0.81715100  1
  O  O13  1  0.25739100  0.90862300  0.05807700  1
  O  O14  1  0.55385900  0.41271800  0.76019300  1
  O  O15  1  0.60474300  0.81715100  0.01591800  1
  O  O16  1  0.76019300  0.55385900  0.41271800  1
  O  O17  1  0.94819700  0.73540100  0.09892100  1
  O  O18  1  0.41271800  0.76019300  0.55385900  1
  O  O19  1  0.18490700  0.00008700  0.38120700  1
  O  O20  1  0.09892100  0.94819700  0.73540100  1
  O  O21  1  0.32888300  0.11276500  0.48680500  1
  O  O22  1  0.48680500  0.32888300  0.11276500  1
  O  O23  1  0.11276500  0.48680500  0.32888300  1
loop_
_geom_bond_atom_site_label_1
_geom_bond_atom_site_label_2
_geom_bond_distance
_geom_bond_site_symmetry_2
Fe0 O15 2.008658 1_556
Fe0 O4 2.008658 1_565
Fe0 O12 2.008658 1_655
Fe0 O20 2.166831 1_655
Fe0 O17 2.166831 1_556
Fe0 O10 2.166832 1_565
O0 P1 1.567691 1_655
O0 Ti2 1.894420 1_555
O1 P2 1.567691 1_556
O1 Ti2 1.894420 1_555
O2 P0 1.567690 1_565
O2 Ti2 1.894420 1_555
O3 P0 1.569970 1_555
O3 Ti1 2.069731 1_655
O3 V0 2.191268 1_544
O4 P0 1.494572 1_555
O5 P0 1.571061 1_555
O5 Ti0 2.043317 1_555
O5 V1 2.212239 1_555
O6 P1 1.569970 1_555
O6 Ti1 2.069732 1_556
O6 V0 2.191268 1_445
O7 P1 1.571061 1_555
O7 Ti0 2.043317 1_555
O7 V1 2.212239 1_555
O8 P3 1.555588 1_554
O8 Ti1 1.919022 1_555
O9 P2 1.571061 1_555
O9 Ti0 2.043317 1_555
O9 V1 2.212239 1_555
O10 P3 1.525722 1_555
O10 V0 2.171099 1_545
O11 P4 1.555588 1_455
O11 Ti1 1.919022 1_555
O12 P1 1.494572 1_555
O13 P2 1.569970 1_555
O13 Ti1 2.069732 1_565
O13 V0 2.191268 1_454
O14 P3 1.564647 1_555
O14 Ti2 2.095702 1_555
O14 V1 2.199761 1_555
O15 P2 1.494572 1_555
O16 P4 1.564647 1_555
O16 Ti2 2.095702 1_555
O16 V1 2.199761 1_555
O17 P4 1.525722 1_555
O17 V0 2.171099 1_554
O18 P5 1.564647 1_555
O18 Ti2 2.095702 1_555
O18 V1 2.199761 1_555
O19 P5 1.555588 1_545
O19 Ti1 1.919022 1_555
O20 P5 1.525722 1_555
O20 V0 2.171099 1_455
O21 P5 1.552230 1_545
O21 Ti0 1.890325 1_555
O22 P3 1.552230 1_554
O22 Ti0 1.890325 1_555
O23 P4 1.552230 1_455
O23 Ti0 1.890325 1_555
