# generated using pymatgen
data_LiCoPO4
_symmetry_space_group_name_H-M   'P 1'
_cell_length_a   9.70972567
_cell_length_b   9.70972567
_cell_length_c   23.02188700
_cell_angle_alpha   90.00000000
_cell_angle_beta   90.00000000
_cell_angle_gamma   119.99999776
_symmetry_Int_Tables_number   1
_chemical_formula_structural   LiCoPO4
_chemical_formula_sum   'Li24 Co24 P24 O96'
_cell_volume   1879.68674678
_cell_formula_units_Z   24
loop_
 _symmetry_equiv_pos_site_id
 _symmetry_equiv_pos_as_xyz
  1  'x, y, z'
loop_
 _atom_site_type_symbol
 _atom_site_label
 _atom_site_symmetry_multiplicity
 _atom_site_fract_x
 _atom_site_fract_y
 _atom_site_fract_z
 _atom_site_occupancy
  Li  Li0  1  0.09498000  0.82090600  0.27486000  1
  Li  Li1  1  0.08932500  0.75408400  0.91947800  1
  Li  Li2  1  0.12810600  0.75955200  0.59453100  1
  Li  Li3  1  0.31090000  0.66827200  0.75555500  1
  Li  Li4  1  0.33172800  0.64262800  0.08888900  1
  Li  Li5  1  0.35737200  0.68910000  0.42222200  1
  Li  Li6  1  0.17909400  0.27407500  0.60819400  1
  Li  Li7  1  0.24044800  0.36855400  0.92786400  1
  Li  Li8  1  0.24591600  0.33524100  0.25281100  1
  Li  Li9  1  0.63144600  0.87189400  0.26119800  1
  Li  Li10  1  0.66475900  0.91067500  0.58614500  1
  Li  Li11  1  0.27407500  0.09498000  0.44152700  1
  Li  Li12  1  0.72592500  0.90502000  0.94152700  1
  Li  Li13  1  0.33524100  0.08932500  0.08614500  1
  Li  Li14  1  0.36855400  0.12810600  0.76119800  1
  Li  Li15  1  0.75408400  0.66475900  0.75281100  1
  Li  Li16  1  0.75955200  0.63144600  0.42786400  1
  Li  Li17  1  0.82090600  0.72592500  0.10819400  1
  Li  Li18  1  0.64262800  0.31090000  0.92222200  1
  Li  Li19  1  0.66827200  0.35737200  0.58888900  1
  Li  Li20  1  0.68910000  0.33172800  0.25555500  1
  Li  Li21  1  0.87189400  0.24044800  0.09453100  1
  Li  Li22  1  0.91067500  0.24591600  0.41947800  1
  Li  Li23  1  0.90502000  0.17909400  0.77486000  1
  Co  Co0  1  0.99747200  0.01168200  0.70446400  1
  Co  Co1  1  0.02446900  0.57152400  0.04598500  1
  Co  Co2  1  0.06257700  0.46162100  0.19482000  1
  Co  Co3  1  0.04807000  0.48720800  0.84940600  1
  Co  Co4  1  0.39904400  0.93742300  0.86148700  1
  Co  Co5  1  0.43913800  0.95193000  0.51607300  1
  Co  Co6  1  0.98831800  0.98579000  0.03779700  1
  Co  Co7  1  0.98579000  0.99747200  0.87113000  1
  Co  Co8  1  0.54705400  0.97553100  0.71265200  1
  Co  Co9  1  0.42847600  0.45294600  0.37931800  1
  Co  Co10  1  0.51279200  0.56086200  0.18273900  1
  Co  Co11  1  0.53837900  0.60095600  0.52815400  1
  Co  Co12  1  0.46162100  0.39904400  0.02815400  1
  Co  Co13  1  0.48720800  0.43913800  0.68273900  1
  Co  Co14  1  0.57152400  0.54705400  0.87931800  1
  Co  Co15  1  0.45294600  0.02446900  0.21265200  1
  Co  Co16  1  0.01421000  0.00252800  0.37113000  1
  Co  Co17  1  0.01168200  0.01421000  0.53779700  1
  Co  Co18  1  0.56086200  0.04807000  0.01607300  1
  Co  Co19  1  0.60095600  0.06257700  0.36148700  1
  Co  Co20  1  0.95193000  0.51279200  0.34940600  1
  Co  Co21  1  0.93742300  0.53837900  0.69482000  1
  Co  Co22  1  0.97553100  0.42847600  0.54598500  1
  Co  Co23  1  0.00252800  0.98831800  0.20446400  1
  P  P0  1  0.08762600  0.78812900  0.78822000  1
  P  P1  1  0.08126800  0.74667200  0.46936800  1
  P  P2  1  0.13713000  0.79278100  0.13849700  1
  P  P3  1  0.29123500  0.65615600  0.29291600  1
  P  P4  1  0.36492100  0.70876500  0.95958300  1
  P  P5  1  0.34384400  0.63507900  0.62624900  1
  P  P6  1  0.20721900  0.34434900  0.47183000  1
  P  P7  1  0.21187100  0.29949700  0.12155300  1
  P  P8  1  0.25332800  0.33459600  0.80270100  1
  P  P9  1  0.65565100  0.86287000  0.80516400  1
  P  P10  1  0.66540400  0.91873200  0.13603500  1
  P  P11  1  0.70050300  0.91237400  0.45488600  1
  P  P12  1  0.29949700  0.08762600  0.95488600  1
  P  P13  1  0.33459600  0.08126800  0.63603500  1
  P  P14  1  0.34434900  0.13713000  0.30516400  1
  P  P15  1  0.74667200  0.66540400  0.30270100  1
  P  P16  1  0.78812900  0.70050300  0.62155300  1
  P  P17  1  0.79278100  0.65565100  0.97183000  1
  P  P18  1  0.65615600  0.36492100  0.12624900  1
  P  P19  1  0.63507900  0.29123500  0.45958300  1
  P  P20  1  0.70876500  0.34384400  0.79291600  1
  P  P21  1  0.86287000  0.20721900  0.63849700  1
  P  P22  1  0.91873200  0.25332800  0.96936800  1
  P  P23  1  0.91237400  0.21187100  0.28822000  1
  O  O0  1  0.04909600  0.78860700  0.08121500  1
  O  O1  1  0.07493400  0.90661400  0.47470100  1
  O  O2  1  0.01513000  0.67747900  0.84161900  1
  O  O3  1  0.12865300  0.97035300  0.93067100  1
  O  O4  1  0.03582200  0.79991000  0.18969500  1
  O  O5  1  0.01264900  0.64924100  0.52516100  1
  O  O6  1  0.24028800  0.94005000  0.80715900  1
  O  O7  1  0.13308200  0.65878700  0.30140700  1
  O  O8  1  0.11930800  0.69089100  0.74195600  1
  O  O9  1  0.32129300  0.97517200  0.58320500  1
  O  O10  1  0.31080000  0.92892900  0.13978200  1
  O  O11  1  0.13975400  0.63206800  0.13691200  1
  O  O12  1  0.25784800  0.79144500  0.46180500  1
  O  O13  1  0.17282300  0.59304600  0.61093100  1
  O  O14  1  0.07107100  0.38187100  0.47311500  1
  O  O15  1  0.27710600  0.73494100  0.90671600  1
  O  O16  1  0.02482800  0.34612000  0.91653800  1
  O  O17  1  0.05995000  0.30023800  0.14049200  1
  O  O18  1  0.02964700  0.15830000  0.26400400  1
  O  O19  1  0.09338600  0.16832000  0.80803500  1
  O  O20  1  0.25894100  0.67066900  0.01391200  1
  O  O21  1  0.26505900  0.54216500  0.24004900  1
  O  O22  1  0.32933100  0.58827200  0.34724500  1
  O  O23  1  0.20855500  0.46640300  0.79513800  1
  O  O24  1  0.41172800  0.74105900  0.68057800  1
  O  O25  1  0.42022300  0.82717700  0.27759800  1
  O  O26  1  0.49231400  0.86024600  0.80357900  1
  O  O27  1  0.30910900  0.42841700  0.07528900  1
  O  O28  1  0.34121300  0.47429500  0.63474100  1
  O  O29  1  0.36793200  0.50768600  0.47024500  1
  O  O30  1  0.20009000  0.23591200  0.52302800  1
  O  O31  1  0.40695400  0.57977700  0.94426400  1
  O  O32  1  0.45783500  0.72289400  0.57338200  1
  O  O33  1  0.52570500  0.86691800  0.96807400  1
  O  O34  1  0.57158300  0.88069200  0.40862300  1
  O  O35  1  0.15830000  0.12865300  0.09733800  1
  O  O36  1  0.21139300  0.26048800  0.41454800  1
  O  O37  1  0.32252100  0.33765100  0.17495200  1
  O  O38  1  0.16832000  0.07493400  0.64136800  1
  O  O39  1  0.35075900  0.36340800  0.85849400  1
  O  O40  1  0.53359700  0.74215200  0.12847100  1
  O  O41  1  0.30023800  0.24028800  0.97382500  1
  O  O42  1  0.63659200  0.98735100  0.19182800  1
  O  O43  1  0.34612000  0.32129300  0.74987200  1
  O  O44  1  0.38187100  0.31080000  0.30644800  1
  O  O45  1  0.66234900  0.98487000  0.50828500  1
  O  O46  1  0.76408800  0.96417800  0.85636200  1
  O  O47  1  0.26048800  0.04909600  0.24788200  1
  O  O48  1  0.73951200  0.95090400  0.74788200  1
  O  O49  1  0.23591200  0.03582200  0.35636200  1
  O  O50  1  0.33765100  0.01513000  0.00828500  1
  O  O51  1  0.61812900  0.68920000  0.80644800  1
  O  O52  1  0.65388000  0.67870700  0.24987200  1
  O  O53  1  0.36340800  0.01264900  0.69182800  1
  O  O54  1  0.69976200  0.75971200  0.47382500  1
  O  O55  1  0.46640300  0.25784800  0.62847100  1
  O  O56  1  0.64924100  0.63659200  0.35849400  1
  O  O57  1  0.83168000  0.92506600  0.14136800  1
  O  O58  1  0.67747900  0.66234900  0.67495200  1
  O  O59  1  0.78860700  0.73951200  0.91454800  1
  O  O60  1  0.84170000  0.87134700  0.59733800  1
  O  O61  1  0.42841700  0.11930800  0.90862300  1
  O  O62  1  0.47429500  0.13308200  0.46807400  1
  O  O63  1  0.54216500  0.27710600  0.07338200  1
  O  O64  1  0.59304600  0.42022300  0.44426400  1
  O  O65  1  0.79991000  0.76408800  0.02302800  1
  O  O66  1  0.63206800  0.49231400  0.97024500  1
  O  O67  1  0.65878700  0.52570500  0.13474100  1
  O  O68  1  0.69089100  0.57158300  0.57528900  1
  O  O69  1  0.50768600  0.13975400  0.30357900  1
  O  O70  1  0.57977700  0.17282300  0.77759800  1
  O  O71  1  0.58827200  0.25894100  0.18057800  1
  O  O72  1  0.79144500  0.53359700  0.29513800  1
  O  O73  1  0.67066900  0.41172800  0.84724500  1
  O  O74  1  0.73494100  0.45783500  0.74004900  1
  O  O75  1  0.74105900  0.32933100  0.51391200  1
  O  O76  1  0.90661400  0.83168000  0.30803500  1
  O  O77  1  0.97035300  0.84170000  0.76400400  1
  O  O78  1  0.94005000  0.69976200  0.64049200  1
  O  O79  1  0.97517200  0.65388000  0.41653800  1
  O  O80  1  0.72289400  0.26505900  0.40671600  1
  O  O81  1  0.92892900  0.61812900  0.97311500  1
  O  O82  1  0.82717700  0.40695400  0.11093100  1
  O  O83  1  0.74215200  0.20855500  0.96180500  1
  O  O84  1  0.86024600  0.36793200  0.63691200  1
  O  O85  1  0.68920000  0.07107100  0.63978200  1
  O  O86  1  0.67870700  0.02482800  0.08320500  1
  O  O87  1  0.88069200  0.30910900  0.24195600  1
  O  O88  1  0.86691800  0.34121300  0.80140700  1
  O  O89  1  0.75971200  0.05995000  0.30715900  1
  O  O90  1  0.98735100  0.35075900  0.02516100  1
  O  O91  1  0.96417800  0.20009000  0.68969500  1
  O  O92  1  0.87134700  0.02964700  0.43067100  1
  O  O93  1  0.98487000  0.32252100  0.34161900  1
  O  O94  1  0.92506600  0.09338600  0.97470100  1
  O  O95  1  0.95090400  0.21139300  0.58121500  1
loop_
_geom_bond_atom_site_label_1
_geom_bond_atom_site_label_2
_geom_bond_distance
_geom_bond_site_symmetry_2
Li0 O7 1.889615 1_555
Li0 O4 2.024497 1_555
Li0 O76 2.032430 1_455
Li0 O47 2.077696 1_565
Li1 O81 1.907096 1_455
Li1 O2 1.936315 1_555
Li1 O15 1.945303 1_555
Li1 O3 1.954475 1_555
Li2 O13 1.909672 1_555
Li2 O78 1.931513 1_455
Li2 O5 1.937459 1_555
Li2 O9 2.010625 1_555
Li3 O23 1.926677 1_555
Li3 O24 1.935330 1_555
Li3 O8 2.003885 1_555
Li3 O26 2.125158 1_555
Li4 O40 1.926666 1_555
Li4 O20 1.935330 1_555
Li4 O27 2.003889 1_555
Li4 O11 2.125146 1_555
Li5 O12 1.926677 1_555
Li5 O22 1.935330 1_555
Li5 O34 2.003885 1_555
Li5 O29 2.125146 1_555
Li6 O28 1.889609 1_555
Li6 O30 2.024521 1_555
Li6 O38 2.032430 1_555
Li6 O95 2.077703 1_455
Li7 O31 1.909672 1_555
Li7 O41 1.931513 1_555
Li7 O39 1.937459 1_555
Li7 O16 2.010621 1_555
Li8 O44 1.907096 1_555
Li8 O37 1.936315 1_555
Li8 O21 1.945303 1_555
Li8 O18 1.954475 1_555
Li9 O25 1.909672 1_555
Li9 O89 1.931513 1_565
Li9 O42 1.937459 1_555
Li9 O52 2.010631 1_555
Li10 O85 1.907096 1_565
Li10 O45 1.936337 1_555
Li10 O32 1.945307 1_555
Li10 O60 1.954475 1_555
Li11 O62 1.889606 1_555
Li11 O49 2.024497 1_555
Li11 O1 2.032426 1_545
Li11 O36 2.077703 1_555
Li12 O33 1.889606 1_555
Li12 O46 2.024497 1_555
Li12 O94 2.032426 1_565
Li12 O59 2.077703 1_555
Li13 O10 1.907096 1_545
Li13 O50 1.936337 1_555
Li13 O63 1.945307 1_555
Li13 O35 1.954475 1_555
Li14 O70 1.909672 1_555
Li14 O6 1.931513 1_545
Li14 O53 1.937459 1_555
Li14 O43 2.010631 1_555
Li15 O51 1.907096 1_555
Li15 O58 1.936315 1_555
Li15 O74 1.945303 1_555
Li15 O77 1.954475 1_555
Li16 O64 1.909672 1_555
Li16 O54 1.931513 1_555
Li16 O56 1.937459 1_555
Li16 O79 2.010621 1_555
Li17 O67 1.889609 1_555
Li17 O65 2.024521 1_555
Li17 O57 2.032430 1_555
Li17 O0 2.077703 1_655
Li18 O83 1.926677 1_555
Li18 O73 1.935330 1_555
Li18 O61 2.003885 1_555
Li18 O66 2.125146 1_555
Li19 O55 1.926666 1_555
Li19 O75 1.935330 1_555
Li19 O68 2.003889 1_555
Li19 O84 2.125146 1_555
Li20 O72 1.926677 1_555
Li20 O71 1.935330 1_555
Li20 O87 2.003885 1_555
Li20 O69 2.125158 1_555
Li21 O82 1.909672 1_555
Li21 O17 1.931513 1_655
Li21 O90 1.937459 1_555
Li21 O86 2.010625 1_555
Li22 O14 1.907096 1_655
Li22 O93 1.936315 1_555
Li22 O80 1.945303 1_555
Li22 O92 1.954475 1_555
Li23 O88 1.889615 1_555
Li23 O91 2.024497 1_555
Li23 O19 2.032430 1_655
Li23 O48 2.077696 1_545
Co0 O91 2.039161 1_555
Co0 O38 2.054335 1_655
Co0 O77 2.058567 1_545
Co0 O48 2.478485 1_545
Co1 O90 2.045007 1_455
Co1 O81 2.073521 1_454
Co1 O20 2.112686 1_555
Co1 O0 2.157282 1_555
Co1 O11 2.307057 1_555
Co1 O82 2.323270 1_455
Co2 O11 1.958992 1_555
Co2 O87 1.968292 1_455
Co2 O17 1.995108 1_555
Co2 O21 2.005891 1_555
Co3 O88 1.957303 1_455
Co3 O16 2.001763 1_555
Co3 O2 2.034333 1_555
Co3 O23 2.084386 1_555
Co4 O26 1.958992 1_555
Co4 O61 1.968292 1_565
Co4 O6 1.995108 1_555
Co4 O15 2.005891 1_555
Co5 O62 1.957303 1_565
Co5 O9 2.001757 1_555
Co5 O45 2.034335 1_555
Co5 O12 2.084386 1_555
Co6 O65 2.039161 1_555
Co6 O94 2.054335 1_564
Co6 O35 2.058582 1_665
Co6 O0 2.478494 1_655
Co7 O46 2.039158 1_555
Co7 O19 2.054319 1_665
Co7 O3 2.058582 1_655
Co7 O59 2.478488 1_555
Co8 O53 2.044997 1_565
Co8 O85 2.073526 1_565
Co8 O24 2.112694 1_555
Co8 O48 2.157300 1_555
Co8 O26 2.307057 1_555
Co8 O70 2.323268 1_565
Co9 O56 2.045003 1_555
Co9 O44 2.073527 1_555
Co9 O22 2.112678 1_555
Co9 O36 2.157289 1_555
Co9 O29 2.307054 1_555
Co9 O64 2.323275 1_555
Co10 O67 1.957290 1_555
Co10 O52 2.001779 1_555
Co10 O37 2.034333 1_555
Co10 O40 2.084386 1_555
Co11 O29 1.959008 1_555
Co11 O68 1.968279 1_555
Co11 O54 1.995122 1_555
Co11 O32 2.005879 1_555
Co12 O66 1.959008 1_554
Co12 O27 1.968279 1_555
Co12 O41 1.995122 1_554
Co12 O63 2.005879 1_555
Co13 O28 1.957290 1_555
Co13 O43 2.001779 1_555
Co13 O58 2.034333 1_555
Co13 O55 2.084386 1_555
Co14 O39 2.045003 1_555
Co14 O51 2.073527 1_555
Co14 O73 2.112678 1_555
Co14 O59 2.157289 1_555
Co14 O66 2.307054 1_555
Co14 O31 2.323275 1_555
Co15 O42 2.044997 1_545
Co15 O10 2.073526 1_545
Co15 O71 2.112694 1_555
Co15 O47 2.157300 1_555
Co15 O69 2.307057 1_555
Co15 O25 2.323268 1_545
Co16 O49 2.039158 1_555
Co16 O76 2.054319 1_445
Co16 O92 2.058582 1_455
Co16 O36 2.478488 1_555
Co17 O30 2.039161 1_555
Co17 O1 2.054335 1_545
Co17 O60 2.058582 1_445
Co17 O95 2.478494 1_455
Co18 O33 1.957303 1_544
Co18 O86 2.001757 1_555
Co18 O50 2.034335 1_555
Co18 O83 2.084386 1_554
Co19 O69 1.958992 1_555
Co19 O34 1.968292 1_545
Co19 O89 1.995108 1_555
Co19 O80 2.005891 1_555
Co20 O7 1.957303 1_655
Co20 O79 2.001763 1_555
Co20 O93 2.034333 1_555
Co20 O72 2.084386 1_555
Co21 O84 1.958992 1_555
Co21 O8 1.968292 1_655
Co21 O78 1.995108 1_555
Co21 O74 2.005891 1_555
Co22 O5 2.045007 1_655
Co22 O14 2.073521 1_655
Co22 O75 2.112686 1_555
Co22 O95 2.157282 1_555
Co22 O84 2.307057 1_555
Co22 O13 2.323270 1_655
Co23 O4 2.039161 1_555
Co23 O57 2.054335 1_455
Co23 O18 2.058567 1_565
Co23 O47 2.478485 1_565
O0 P2 1.561004 1_555
O1 P1 1.589388 1_555
O2 P0 1.550745 1_555
O3 P12 1.571705 1_565
O4 P2 1.558771 1_555
O5 P1 1.535713 1_555
O6 P0 1.541663 1_555
O7 P3 1.560843 1_555
O8 P0 1.552710 1_555
O9 P13 1.556956 1_565
O10 P2 1.537145 1_555
O11 P2 1.573796 1_555
O12 P1 1.553576 1_555
O13 P5 1.539704 1_555
O14 P6 1.537145 1_555
O15 P4 1.577868 1_555
O16 P22 1.556953 1_455
O17 P7 1.541663 1_555
O18 P23 1.571713 1_455
O19 P8 1.589390 1_555
O20 P4 1.542560 1_554
O21 P3 1.577868 1_555
O22 P3 1.542560 1_555
O23 P8 1.553576 1_555
O24 P5 1.542560 1_555
O25 P3 1.539704 1_555
O26 P9 1.573796 1_555
O27 P7 1.552710 1_555
O28 P5 1.560846 1_555
O29 P6 1.573796 1_555
O30 P6 1.558771 1_555
O31 P4 1.539709 1_555
O32 P5 1.577868 1_555
O33 P4 1.560843 1_555
O34 P11 1.552694 1_555
O35 P7 1.571705 1_555
O36 P6 1.561009 1_555
O37 P7 1.550745 1_555
O38 P13 1.589388 1_555
O39 P8 1.535713 1_555
O40 P10 1.553579 1_555
O41 P12 1.541663 1_555
O42 P10 1.535713 1_555
O43 P8 1.556932 1_555
O44 P14 1.537145 1_555
O45 P11 1.550745 1_555
O46 P9 1.558771 1_555
O47 P14 1.561006 1_555
O48 P9 1.561006 1_555
O49 P14 1.558771 1_555
O50 P12 1.550745 1_554
O51 P9 1.537145 1_555
O52 P15 1.556932 1_555
O53 P13 1.535713 1_555
O54 P11 1.541663 1_555
O55 P13 1.553579 1_555
O56 P15 1.535713 1_555
O57 P10 1.589388 1_555
O58 P16 1.550745 1_555
O59 P17 1.561009 1_555
O60 P16 1.571705 1_555
O61 P12 1.552694 1_555
O62 P19 1.560843 1_555
O63 P18 1.577868 1_555
O64 P19 1.539709 1_555
O65 P17 1.558771 1_554
O66 P17 1.573796 1_555
O67 P18 1.560846 1_555
O68 P16 1.552710 1_555
O69 P14 1.573796 1_555
O70 P20 1.539704 1_555
O71 P18 1.542560 1_555
O72 P15 1.553576 1_555
O73 P20 1.542560 1_555
O74 P20 1.577868 1_555
O75 P19 1.542560 1_555
O76 P15 1.589390 1_555
O77 P0 1.571713 1_655
O78 P16 1.541663 1_555
O79 P1 1.556953 1_655
O80 P19 1.577868 1_555
O81 P17 1.537145 1_555
O82 P18 1.539704 1_555
O83 P22 1.553576 1_555
O84 P21 1.573796 1_555
O85 P21 1.537145 1_555
O86 P10 1.556956 1_545
O87 P23 1.552710 1_555
O88 P20 1.560843 1_555
O89 P23 1.541663 1_555
O90 P22 1.535713 1_554
O91 P21 1.558771 1_555
O92 P11 1.571705 1_545
O93 P23 1.550745 1_555
O94 P22 1.589388 1_555
O95 P21 1.561004 1_555
