# generated using pymatgen
data_Li2Fe(PO4)2
_symmetry_space_group_name_H-M   'P 1'
_cell_length_a   8.03984200
_cell_length_b   5.13569200
_cell_length_c   8.94731227
_cell_angle_alpha   57.93802340
_cell_angle_beta   90.00000000
_cell_angle_gamma   90.00000000
_symmetry_Int_Tables_number   1
_chemical_formula_structural   Li2Fe(PO4)2
_chemical_formula_sum   'Li4 Fe2 P4 O16'
_cell_volume   313.08745160
_cell_formula_units_Z   2
loop_
 _symmetry_equiv_pos_site_id
 _symmetry_equiv_pos_as_xyz
  1  'x, y, z'
loop_
 _atom_site_type_symbol
 _atom_site_label
 _atom_site_symmetry_multiplicity
 _atom_site_fract_x
 _atom_site_fract_y
 _atom_site_fract_z
 _atom_site_occupancy
  Li  Li0  1  0.63867000  0.01027000  0.90450600  1
  Li  Li1  1  0.13867000  0.98973000  0.59549400  1
  Li  Li2  1  0.86133000  0.01027000  0.40450600  1
  Li  Li3  1  0.36133000  0.98973000  0.09549400  1
  Fe  Fe0  1  0.00000000  0.00000000  0.00000000  1
  Fe  Fe1  1  0.50000000  0.00000000  0.50000000  1
  P  P0  1  0.80421700  0.66529500  0.80692300  1
  P  P1  1  0.30421700  0.33470500  0.69307700  1
  P  P2  1  0.69578300  0.66529500  0.30692300  1
  P  P3  1  0.19578300  0.33470500  0.19307700  1
  O  O0  1  0.14375800  0.24956800  0.05641200  1
  O  O1  1  0.80795100  0.31022800  0.89832700  1
  O  O2  1  0.42616500  0.19863600  0.84824500  1
  O  O3  1  0.62644100  0.79639500  0.74514600  1
  O  O4  1  0.12644100  0.20360500  0.75485400  1
  O  O5  1  0.92616500  0.80136400  0.65175500  1
  O  O6  1  0.30795100  0.68977200  0.60167300  1
  O  O7  1  0.64375800  0.75043200  0.44358800  1
  O  O8  1  0.35624200  0.24956800  0.55641200  1
  O  O9  1  0.69204900  0.31022800  0.39832700  1
  O  O10  1  0.07383500  0.19863600  0.34824500  1
  O  O11  1  0.87355900  0.79639500  0.24514600  1
  O  O12  1  0.37355900  0.20360500  0.25485400  1
  O  O13  1  0.57383500  0.80136400  0.15175500  1
  O  O14  1  0.19204900  0.68977200  0.10167300  1
  O  O15  1  0.85624200  0.75043200  0.94358800  1
loop_
_geom_bond_atom_site_label_1
_geom_bond_atom_site_label_2
_geom_bond_distance
_geom_bond_site_symmetry_2
Li0 O2 1.895055 1_555
Li0 O13 1.948554 1_546
Li0 O1 2.034221 1_555
Li0 O15 2.113641 1_545
Li0 O3 2.216281 1_545
Li1 O5 1.895055 1_455
Li1 O10 1.948554 1_565
Li1 O6 2.034221 1_555
Li1 O8 2.113641 1_565
Li1 O4 2.216281 1_565
Li2 O10 1.895055 1_655
Li2 O5 1.948554 1_545
Li2 O9 2.034221 1_555
Li2 O7 2.113641 1_545
Li2 O11 2.216281 1_545
Li3 O13 1.895055 1_555
Li3 O2 1.948554 1_564
Li3 O14 2.034221 1_555
Li3 O0 2.113641 1_565
Li3 O12 2.216281 1_565
Fe0 O0 1.979949 1_555
Fe0 O15 1.979949 1_444
Fe0 O1 2.052138 1_454
Fe0 O14 2.052138 1_545
Fe0 O11 2.121982 1_445
Fe0 O4 2.121982 1_554
Fe1 O7 1.979949 1_545
Fe1 O8 1.979949 1_555
Fe1 O9 2.052138 1_555
Fe1 O6 2.052138 1_545
Fe1 O3 2.121982 1_545
Fe1 O12 2.121982 1_555
O0 P3 1.558509 1_555
O1 P0 1.552951 1_555
O2 P1 1.532013 1_555
O3 P0 1.551324 1_555
O4 P1 1.551324 1_555
O5 P0 1.532013 1_555
O6 P1 1.552951 1_555
O7 P2 1.558509 1_555
O8 P1 1.558509 1_555
O9 P2 1.552951 1_555
O10 P3 1.532013 1_555
O11 P2 1.551324 1_555
O12 P3 1.551324 1_555
O13 P2 1.532013 1_555
O14 P3 1.552951 1_555
O15 P0 1.558509 1_555
