# generated using pymatgen
data_Li2Co4O3F8
_symmetry_space_group_name_H-M   'P 1'
_cell_length_a   5.05438900
_cell_length_b   6.53874446
_cell_length_c   6.84121119
_cell_angle_alpha   108.76494041
_cell_angle_beta   104.14120473
_cell_angle_gamma   96.74081459
_symmetry_Int_Tables_number   1
_chemical_formula_structural   Li2Co4O3F8
_chemical_formula_sum   'Li2 Co4 O3 F8'
_cell_volume   202.80866132
_cell_formula_units_Z   1
loop_
 _symmetry_equiv_pos_site_id
 _symmetry_equiv_pos_as_xyz
  1  'x, y, z'
loop_
 _atom_site_type_symbol
 _atom_site_label
 _atom_site_symmetry_multiplicity
 _atom_site_fract_x
 _atom_site_fract_y
 _atom_site_fract_z
 _atom_site_occupancy
  Li  Li0  1  0.67786900  0.18400100  0.40518500  1
  Li  Li1  1  0.32213100  0.81599900  0.59481500  1
  Co  Co0  1  0.90153800  0.24847700  0.96938200  1
  Co  Co1  1  0.34564600  0.37679500  0.77208800  1
  Co  Co2  1  0.65435400  0.62320500  0.22791200  1
  Co  Co3  1  0.09846200  0.75152300  0.03061800  1
  O  O0  1  0.00000000  0.00000000  0.00000000  1
  O  O1  1  0.73815800  0.53604800  0.95621200  1
  O  O2  1  0.26184200  0.46395200  0.04378800  1
  F  F0  1  0.49251500  0.10966400  0.80725000  1
  F  F1  1  0.94571100  0.19904900  0.66728100  1
  F  F2  1  0.37923400  0.29347500  0.49924900  1
  F  F3  1  0.80520300  0.35049800  0.24864300  1
  F  F4  1  0.19479700  0.64950200  0.75135700  1
  F  F5  1  0.62076600  0.70652500  0.50075100  1
  F  F6  1  0.05428900  0.80095100  0.33271900  1
  F  F7  1  0.50748500  0.89033600  0.19275000  1
loop_
_geom_bond_atom_site_label_1
_geom_bond_atom_site_label_2
_geom_bond_distance
_geom_bond_site_symmetry_2
Co0 O0 1.813593 1_656
Co0 F3 2.010691 1_556
Co0 O2 2.010959 1_656
Co0 F0 2.029637 1_555
Co0 F1 2.058729 1_555
Co0 O1 2.159383 1_555
Co1 F2 1.825359 1_555
Co1 O2 1.928479 1_556
Co1 O1 2.014189 1_555
Co1 F0 2.036506 1_555
Co1 F1 2.038427 1_455
Co1 F4 2.051864 1_555
Co2 F5 1.825359 1_555
Co2 O1 1.928479 1_554
Co2 O2 2.014189 1_555
Co2 F7 2.036506 1_555
Co2 F6 2.038427 1_655
Co2 F3 2.051864 1_555
Co3 O0 1.813593 1_565
Co3 F4 2.010691 1_554
Co3 O1 2.010959 1_454
Co3 F7 2.029637 1_555
Co3 F6 2.058729 1_555
Co3 O2 2.159383 1_555
F0 Li1 1.935393 1_545
F1 Li0 1.930433 1_555
F2 Li0 1.907027 1_555
F3 Li0 1.915401 1_555
F4 Li1 1.915401 1_555
F5 Li1 1.907027 1_555
F6 Li1 1.930433 1_555
F7 Li0 1.935393 1_565
