# generated using pymatgen
data_LiV(CO3)2
_symmetry_space_group_name_H-M   'P 1'
_cell_length_a   5.78628988
_cell_length_b   6.13426650
_cell_length_c   12.27139044
_cell_angle_alpha   88.85774025
_cell_angle_beta   77.74249951
_cell_angle_gamma   102.19561198
_symmetry_Int_Tables_number   1
_chemical_formula_structural   LiV(CO3)2
_chemical_formula_sum   'Li4 V4 C8 O24'
_cell_volume   415.07525877
_cell_formula_units_Z   4
loop_
 _symmetry_equiv_pos_site_id
 _symmetry_equiv_pos_as_xyz
  1  'x, y, z'
loop_
 _atom_site_type_symbol
 _atom_site_label
 _atom_site_symmetry_multiplicity
 _atom_site_fract_x
 _atom_site_fract_y
 _atom_site_fract_z
 _atom_site_occupancy
  Li  Li0  1  0.75048200  0.38081100  0.18983800  1
  Li  Li1  1  0.75059900  0.38071700  0.68982300  1
  Li  Li2  1  0.24957200  0.61915300  0.31019500  1
  Li  Li3  1  0.24939600  0.61929500  0.81015100  1
  V  V0  1  0.75012800  0.80889000  0.90418000  1
  V  V1  1  0.24973800  0.19097700  0.59580700  1
  V  V2  1  0.75047000  0.80878700  0.40415400  1
  V  V3  1  0.24944300  0.19130700  0.09581900  1
  C  C0  1  0.72295800  0.31229100  0.44010700  1
  C  C1  1  0.72279400  0.31245500  0.94009600  1
  C  C2  1  0.22279400  0.11988500  0.34386600  1
  C  C3  1  0.22265200  0.11993200  0.84389700  1
  C  C4  1  0.77728000  0.88014900  0.15613300  1
  C  C5  1  0.77732900  0.88005900  0.65610200  1
  C  C6  1  0.27701900  0.68775400  0.05991800  1
  C  C7  1  0.27725500  0.68751300  0.55989200  1
  O  O0  1  0.71762200  0.12580700  0.39527100  1
  O  O1  1  0.71740800  0.12592700  0.89524700  1
  O  O2  1  0.21790700  0.20911000  0.43717400  1
  O  O3  1  0.21764600  0.20931200  0.93716400  1
  O  O4  1  0.78212600  0.79087800  0.06281700  1
  O  O5  1  0.78236500  0.79070900  0.56282900  1
  O  O6  1  0.28240000  0.87426300  0.10471000  1
  O  O7  1  0.28260800  0.87404900  0.60476200  1
  O  O8  1  0.88958300  0.08639000  0.16201700  1
  O  O9  1  0.88976300  0.08631500  0.66198700  1
  O  O10  1  0.39009500  0.67597000  0.45680900  1
  O  O11  1  0.38983900  0.67604200  0.95681300  1
  O  O12  1  0.60994300  0.32402900  0.04318900  1
  O  O13  1  0.61010700  0.32392200  0.54319900  1
  O  O14  1  0.11046700  0.91360300  0.33798400  1
  O  O15  1  0.11018500  0.91367800  0.83803900  1
  O  O16  1  0.83706500  0.49455700  0.37885000  1
  O  O17  1  0.83688300  0.49470600  0.87884900  1
  O  O18  1  0.33585600  0.24282400  0.25274100  1
  O  O19  1  0.33598300  0.24271000  0.75274900  1
  O  O20  1  0.66420100  0.75717200  0.24724700  1
  O  O21  1  0.66397700  0.75725300  0.74725300  1
  O  O22  1  0.16293300  0.50550400  0.12117700  1
  O  O23  1  0.16313400  0.50529700  0.62114500  1
loop_
_geom_bond_atom_site_label_1
_geom_bond_atom_site_label_2
_geom_bond_distance
_geom_bond_site_symmetry_2
Li0 O12 2.132565 1_555
Li0 O8 2.132675 1_555
Li0 O22 2.310818 1_655
Li0 O18 2.323323 1_555
Li0 O20 2.545216 1_555
Li0 O16 2.554974 1_555
Li1 O13 2.132146 1_555
Li1 O9 2.132775 1_555
Li1 O23 2.311204 1_655
Li1 O19 2.323319 1_555
Li1 O21 2.546955 1_555
Li1 O17 2.554939 1_555
Li2 O10 2.132139 1_555
Li2 O14 2.132814 1_555
Li2 O16 2.311032 1_455
Li2 O20 2.323424 1_555
Li2 O18 2.545174 1_555
Li2 O22 2.555003 1_555
Li3 O11 2.132400 1_555
Li3 O15 2.132870 1_555
Li3 O17 2.311131 1_455
Li3 O21 2.323061 1_555
Li3 O19 2.547088 1_555
Li3 O23 2.554676 1_555
C0 O0 1.276582 1_555
C0 O16 1.301896 1_555
C0 O13 1.305540 1_555
C1 O1 1.276876 1_555
C1 O17 1.301752 1_555
C1 O12 1.305488 1_556
C2 O2 1.276407 1_555
C2 O18 1.301715 1_555
C2 O14 1.305734 1_545
C3 O3 1.276330 1_555
C3 O19 1.301783 1_555
C3 O15 1.305779 1_545
C4 O4 1.276641 1_555
C4 O20 1.301740 1_555
C4 O8 1.305478 1_565
C5 O5 1.276300 1_555
C5 O21 1.301912 1_555
C5 O9 1.305791 1_565
C6 O6 1.276456 1_555
C6 O22 1.301810 1_555
C6 O11 1.305713 1_554
C7 O7 1.277051 1_555
C7 O23 1.301664 1_555
C7 O10 1.305329 1_555
O0 V2 1.996577 1_545
O1 V0 1.996483 1_545
O2 V1 1.996997 1_555
O3 V3 1.997160 1_556
O4 V0 1.997305 1_554
O5 V2 1.997605 1_555
O6 V3 1.996926 1_565
O7 V1 1.996106 1_565
O8 V3 2.025985 1_655
O9 V1 2.026384 1_655
O10 V2 2.029437 1_555
O11 V0 2.029011 1_555
O12 V3 2.029938 1_555
O13 V1 2.029494 1_555
O14 V2 2.026561 1_455
O15 V0 2.026787 1_455
O16 V2 2.104490 1_555
O17 V0 2.104625 1_555
O18 V3 2.103413 1_555
O19 V1 2.103420 1_555
O20 V2 2.102973 1_555
O21 V0 2.102954 1_555
O22 V3 2.104173 1_555
O23 V1 2.105094 1_555
