# generated using pymatgen
data_HfO3F4
_symmetry_space_group_name_H-M   'P 1'
_cell_length_a   10.03098800
_cell_length_b   6.79029500
_cell_length_c   7.04816255
_cell_angle_alpha   76.75609329
_cell_angle_beta   90.00000000
_cell_angle_gamma   90.00000000
_symmetry_Int_Tables_number   1
_chemical_formula_structural   HfO3F4
_chemical_formula_sum   'Hf4 O12 F16'
_cell_volume   467.30585831
_cell_formula_units_Z   4
loop_
 _symmetry_equiv_pos_site_id
 _symmetry_equiv_pos_as_xyz
  1  'x, y, z'
loop_
 _atom_site_type_symbol
 _atom_site_label
 _atom_site_symmetry_multiplicity
 _atom_site_fract_x
 _atom_site_fract_y
 _atom_site_fract_z
 _atom_site_occupancy
  Hf  Hf0  1  0.03454200  0.73633500  0.05195300  1
  Hf  Hf1  1  0.53454200  0.26366500  0.44804700  1
  Hf  Hf2  1  0.96545800  0.26366500  0.94804700  1
  Hf  Hf3  1  0.46545800  0.73633500  0.55195300  1
  O  O0  1  0.16523900  0.25090500  0.43110900  1
  O  O1  1  0.66523900  0.74909500  0.06889100  1
  O  O2  1  0.83476100  0.74909500  0.56889100  1
  O  O3  1  0.33476100  0.25090500  0.93110900  1
  O  O4  1  0.15428400  0.23110000  0.76512100  1
  O  O5  1  0.65428400  0.76890000  0.73487900  1
  O  O6  1  0.84571600  0.76890000  0.23487900  1
  O  O7  1  0.34571600  0.23110000  0.26512100  1
  O  O8  1  0.25553800  0.80417600  0.00687800  1
  O  O9  1  0.75553800  0.19582400  0.49312200  1
  O  O10  1  0.74446200  0.19582400  0.99312200  1
  O  O11  1  0.24446200  0.80417600  0.50687800  1
  F  F0  1  0.09422800  0.01798600  0.10173500  1
  F  F1  1  0.59422800  0.98201400  0.39826500  1
  F  F2  1  0.90577200  0.98201400  0.89826500  1
  F  F3  1  0.40577200  0.01798600  0.60173500  1
  F  F4  1  0.11364800  0.44685400  0.02276900  1
  F  F5  1  0.61364800  0.55314600  0.47723100  1
  F  F6  1  0.88635200  0.55314600  0.97723100  1
  F  F7  1  0.38635200  0.44685400  0.52276900  1
  F  F8  1  0.10474100  0.80844100  0.77804200  1
  F  F9  1  0.60474100  0.19155900  0.72195800  1
  F  F10  1  0.89525900  0.19155900  0.22195800  1
  F  F11  1  0.39525900  0.80844100  0.27804200  1
  F  F12  1  0.08506600  0.61176500  0.32027000  1
  F  F13  1  0.58506600  0.38823500  0.17973000  1
  F  F14  1  0.91493400  0.38823500  0.67973000  1
  F  F15  1  0.41493400  0.61176500  0.82027000  1
loop_
_geom_bond_atom_site_label_1
_geom_bond_atom_site_label_2
_geom_bond_distance
_geom_bond_site_symmetry_2
Hf0 O8 2.271634 1_555
Hf0 O6 2.330120 1_455
Hf1 O9 2.271634 1_555
Hf1 O7 2.330120 1_555
Hf2 O10 2.271634 1_555
Hf2 O4 2.330120 1_655
Hf3 O11 2.271634 1_555
Hf3 O5 2.330120 1_555
F0 Hf0 2.108711 1_545
F0 Hf2 2.190170 1_454
F1 Hf1 2.108711 1_565
F1 Hf3 2.190170 1_555
F2 Hf2 2.108711 1_565
F2 Hf0 2.190170 1_656
F3 Hf3 2.108711 1_545
F3 Hf1 2.190170 1_555
F4 Hf2 2.081945 1_454
F4 Hf0 2.172799 1_555
F5 Hf3 2.081945 1_555
F5 Hf1 2.172799 1_555
F6 Hf0 2.081945 1_656
F6 Hf2 2.172799 1_555
F7 Hf1 2.081945 1_555
F7 Hf3 2.172799 1_555
F8 Hf0 2.007379 1_556
F9 Hf1 2.007379 1_555
F10 Hf2 2.007379 1_554
F11 Hf3 2.007379 1_555
F12 Hf0 1.953410 1_555
F13 Hf1 1.953410 1_555
F14 Hf2 1.953410 1_555
F15 Hf3 1.953410 1_555
