# generated using pymatgen
data_Na3Cr(BO3)2
_symmetry_space_group_name_H-M   'P 1'
_cell_length_a   9.21372500
_cell_length_b   5.52375500
_cell_length_c   11.41931396
_cell_angle_alpha   65.50554872
_cell_angle_beta   90.00000000
_cell_angle_gamma   90.00000000
_symmetry_Int_Tables_number   1
_chemical_formula_structural   Na3Cr(BO3)2
_chemical_formula_sum   'Na12 Cr4 B8 O24'
_cell_volume   528.87341941
_cell_formula_units_Z   4
loop_
 _symmetry_equiv_pos_site_id
 _symmetry_equiv_pos_as_xyz
  1  'x, y, z'
loop_
 _atom_site_type_symbol
 _atom_site_label
 _atom_site_symmetry_multiplicity
 _atom_site_fract_x
 _atom_site_fract_y
 _atom_site_fract_z
 _atom_site_occupancy
  Na  Na0  1  0.93899200  0.50651800  0.36394500  1
  Na  Na1  1  0.63061400  0.44550700  0.37511300  1
  Na  Na2  1  0.95571100  0.94297100  0.87660700  1
  Na  Na3  1  0.13061400  0.55449300  0.12488700  1
  Na  Na4  1  0.45571100  0.05702900  0.62339300  1
  Na  Na5  1  0.43899200  0.49348200  0.13605500  1
  Na  Na6  1  0.56100800  0.50651800  0.86394500  1
  Na  Na7  1  0.54428900  0.94297100  0.37660700  1
  Na  Na8  1  0.86938600  0.44550700  0.87511300  1
  Na  Na9  1  0.04428900  0.05702900  0.12339300  1
  Na  Na10  1  0.36938600  0.55449300  0.62488700  1
  Na  Na11  1  0.06100800  0.49348200  0.63605500  1
  Cr  Cr0  1  0.28540300  0.02828200  0.87708800  1
  Cr  Cr1  1  0.78540300  0.97171800  0.62291200  1
  Cr  Cr2  1  0.21459700  0.02828200  0.37708800  1
  Cr  Cr3  1  0.71459700  0.97171800  0.12291200  1
  B  B0  1  0.29671400  0.45740500  0.38342000  1
  B  B1  1  0.63511600  0.96967200  0.86418500  1
  B  B2  1  0.79671400  0.54259500  0.11658000  1
  B  B3  1  0.13511600  0.03032800  0.63581500  1
  B  B4  1  0.86488400  0.96967200  0.36418500  1
  B  B5  1  0.20328600  0.45740500  0.88342000  1
  B  B6  1  0.36488400  0.03032800  0.13581500  1
  B  B7  1  0.70328600  0.54259500  0.61658000  1
  O  O0  1  0.31160200  0.88396500  0.07125300  1
  O  O1  1  0.67133300  0.32327900  0.59356800  1
  O  O2  1  0.89881600  0.74156100  0.10399100  1
  O  O3  1  0.23620100  0.15604900  0.68516000  1
  O  O4  1  0.66167600  0.59805700  0.15281100  1
  O  O5  1  0.16167600  0.40194300  0.34718900  1
  O  O6  1  0.98952300  0.07024100  0.65255300  1
  O  O7  1  0.48952300  0.92975900  0.84744700  1
  O  O8  1  0.73620100  0.84395100  0.81484000  1
  O  O9  1  0.39881600  0.25843900  0.39600900  1
  O  O10  1  0.81160200  0.11603500  0.42874700  1
  O  O11  1  0.17133300  0.67672100  0.90643200  1
  O  O12  1  0.82866700  0.32327900  0.09356800  1
  O  O13  1  0.18839800  0.88396500  0.57125300  1
  O  O14  1  0.60118400  0.74156100  0.60399100  1
  O  O15  1  0.26379900  0.15604900  0.18516000  1
  O  O16  1  0.51047700  0.07024100  0.15255300  1
  O  O17  1  0.01047700  0.92975900  0.34744700  1
  O  O18  1  0.83832400  0.59805700  0.65281100  1
  O  O19  1  0.33832400  0.40194300  0.84718900  1
  O  O20  1  0.76379900  0.84395100  0.31484000  1
  O  O21  1  0.10118400  0.25843900  0.89600900  1
  O  O22  1  0.32866700  0.67672100  0.40643200  1
  O  O23  1  0.68839800  0.11603500  0.92874700  1
loop_
_geom_bond_atom_site_label_1
_geom_bond_atom_site_label_2
_geom_bond_distance
_geom_bond_site_symmetry_2
Na0 O5 2.161391 1_655
Na0 O10 2.292180 1_555
Na0 O20 2.351055 1_555
Na0 O17 2.360034 1_655
Na0 O2 2.727418 1_555
Na1 O1 2.328745 1_555
Na1 O4 2.337172 1_555
Na1 O9 2.341269 1_555
Na1 O10 2.354520 1_555
Na1 O20 2.359544 1_555
Na2 O21 2.280856 1_665
Na2 O8 2.281906 1_555
Na2 O6 2.376118 1_565
Na2 O11 2.410501 1_655
Na2 O2 2.420600 1_556
Na3 O11 2.328745 1_554
Na3 O5 2.337172 1_555
Na3 O2 2.341269 1_455
Na3 O0 2.354520 1_555
Na3 O15 2.359544 1_555
Na4 O14 2.280856 1_545
Na4 O3 2.281906 1_555
Na4 O7 2.376118 1_545
Na4 O1 2.410501 1_555
Na4 O9 2.420600 1_555
Na5 O4 2.161391 1_555
Na5 O0 2.292180 1_555
Na5 O15 2.351055 1_555
Na5 O16 2.360034 1_555
Na5 O9 2.727418 1_555
Na6 O19 2.161391 1_555
Na6 O23 2.292180 1_555
Na6 O8 2.351055 1_555
Na6 O7 2.360034 1_555
Na6 O14 2.727418 1_555
Na7 O9 2.280856 1_565
Na7 O20 2.281906 1_555
Na7 O16 2.376118 1_565
Na7 O22 2.410501 1_555
Na7 O14 2.420600 1_555
Na8 O12 2.328745 1_556
Na8 O18 2.337172 1_555
Na8 O21 2.341269 1_655
Na8 O23 2.354520 1_555
Na8 O8 2.359544 1_555
Na9 O2 2.280856 1_445
Na9 O15 2.281906 1_555
Na9 O17 2.376118 1_545
Na9 O12 2.410501 1_455
Na9 O21 2.420600 1_554
Na10 O22 2.328745 1_555
Na10 O19 2.337172 1_555
Na10 O14 2.341269 1_555
Na10 O13 2.354520 1_555
Na10 O3 2.359544 1_555
Na11 O18 2.161391 1_455
Na11 O13 2.292180 1_555
Na11 O3 2.351055 1_555
Na11 O6 2.360034 1_455
Na11 O21 2.727418 1_555
Cr0 O19 2.007516 1_555
Cr0 O7 2.024979 1_545
Cr0 O0 2.035737 1_546
Cr0 O3 2.055352 1_555
Cr0 O11 2.109133 1_545
Cr0 O21 2.184426 1_555
Cr1 O18 2.007516 1_555
Cr1 O6 2.024979 1_565
Cr1 O10 2.035737 1_565
Cr1 O8 2.055352 1_555
Cr1 O1 2.109133 1_565
Cr1 O14 2.184426 1_555
Cr2 O5 2.007516 1_555
Cr2 O17 2.024979 1_545
Cr2 O13 2.035737 1_545
Cr2 O15 2.055352 1_555
Cr2 O22 2.109133 1_545
Cr2 O9 2.184426 1_555
Cr3 O4 2.007516 1_555
Cr3 O16 2.024979 1_565
Cr3 O23 2.035737 1_564
Cr3 O20 2.055352 1_555
Cr3 O12 2.109133 1_565
Cr3 O2 2.184426 1_555
B0 O22 1.373794 1_555
B0 O5 1.384982 1_555
B0 O9 1.408025 1_555
B1 O7 1.385490 1_555
B1 O23 1.390119 1_565
B1 O8 1.411280 1_555
B2 O12 1.373794 1_555
B2 O4 1.384982 1_555
B2 O2 1.408025 1_555
B3 O6 1.385490 1_455
B3 O13 1.390119 1_545
B3 O3 1.411280 1_555
B4 O17 1.385490 1_655
B4 O10 1.390119 1_565
B4 O20 1.411280 1_555
B5 O11 1.373794 1_555
B5 O19 1.384982 1_555
B5 O21 1.408025 1_555
B6 O16 1.385490 1_555
B6 O0 1.390119 1_545
B6 O15 1.411280 1_555
B7 O1 1.373794 1_555
B7 O18 1.384982 1_555
B7 O14 1.408025 1_555
