# generated using pymatgen
data_Y2HfO5
_symmetry_space_group_name_H-M   'P 1'
_cell_length_a   4.08176614
_cell_length_b   5.94818387
_cell_length_c   10.80718587
_cell_angle_alpha   90.00000000
_cell_angle_beta   90.00000000
_cell_angle_gamma   110.06699114
_symmetry_Int_Tables_number   1
_chemical_formula_structural   Y2HfO5
_chemical_formula_sum   'Y4 Hf2 O10'
_cell_volume   246.45962658
_cell_formula_units_Z   2
loop_
 _symmetry_equiv_pos_site_id
 _symmetry_equiv_pos_as_xyz
  1  'x, y, z'
loop_
 _atom_site_type_symbol
 _atom_site_label
 _atom_site_symmetry_multiplicity
 _atom_site_fract_x
 _atom_site_fract_y
 _atom_site_fract_z
 _atom_site_occupancy
  Y  Y0  1  0.13940375  0.27885644  0.56646249  1
  Y  Y1  1  0.13940375  0.27885644  0.93353751  1
  Y  Y2  1  0.86059625  0.72114356  0.06646249  1
  Y  Y3  1  0.86059625  0.72114356  0.43353751  1
  Hf  Hf0  1  0.17680593  0.35349455  0.25000000  1
  Hf  Hf1  1  0.82319407  0.64650545  0.75000000  1
  O  O0  1  0.04886822  0.09747605  0.11939455  1
  O  O1  1  0.29052922  0.58102172  0.41176893  1
  O  O2  1  0.04886822  0.09747605  0.38060545  1
  O  O3  1  0.29052922  0.58102172  0.08823107  1
  O  O4  1  0.26639697  0.53291478  0.75000000  1
  O  O5  1  0.95113178  0.90252395  0.61939455  1
  O  O6  1  0.73360303  0.46708522  0.25000000  1
  O  O7  1  0.70947078  0.41897828  0.58823107  1
  O  O8  1  0.95113178  0.90252395  0.88060545  1
  O  O9  1  0.70947078  0.41897828  0.91176893  1
loop_
_geom_bond_atom_site_label_1
_geom_bond_atom_site_label_2
_geom_bond_distance
_geom_bond_site_symmetry_2
Hf0 O0 2.009553 1_555
Hf0 O2 2.009553 1_555
Hf0 O6 2.137280 1_455
Hf0 O6 2.137283 1_555
Hf0 O3 2.161578 1_555
Hf0 O1 2.161578 1_555
Hf1 O5 2.009553 1_555
Hf1 O8 2.009553 1_555
Hf1 O4 2.137280 1_655
Hf1 O4 2.137283 1_555
Hf1 O7 2.161578 1_555
Hf1 O9 2.161578 1_555
O0 Y2 2.179029 1_445
O0 Y1 2.249754 1_554
O1 Y3 2.198492 1_455
O1 Y3 2.198525 1_555
O1 Y0 2.375924 1_555
O2 Y3 2.179029 1_445
O2 Y0 2.249754 1_555
O3 Y2 2.198492 1_455
O3 Y2 2.198525 1_555
O3 Y1 2.375924 1_554
O4 Y0 2.439096 1_555
O4 Y1 2.439096 1_555
O5 Y0 2.179029 1_665
O5 Y3 2.249754 1_555
O6 Y3 2.439096 1_555
O6 Y2 2.439096 1_555
O7 Y0 2.198492 1_655
O7 Y0 2.198525 1_555
O7 Y3 2.375924 1_555
O8 Y1 2.179029 1_665
O8 Y2 2.249754 1_556
O9 Y1 2.198492 1_655
O9 Y1 2.198525 1_555
O9 Y2 2.375924 1_556
