# generated using pymatgen
data_LiCrB2O5
_symmetry_space_group_name_H-M   'P 1'
_cell_length_a   9.58283300
_cell_length_b   5.64160300
_cell_length_c   6.94574371
_cell_angle_alpha   72.90978458
_cell_angle_beta   90.00000000
_cell_angle_gamma   90.00000000
_symmetry_Int_Tables_number   1
_chemical_formula_structural   LiCrB2O5
_chemical_formula_sum   'Li4 Cr4 B8 O20'
_cell_volume   358.92346971
_cell_formula_units_Z   4
loop_
 _symmetry_equiv_pos_site_id
 _symmetry_equiv_pos_as_xyz
  1  'x, y, z'
loop_
 _atom_site_type_symbol
 _atom_site_label
 _atom_site_symmetry_multiplicity
 _atom_site_fract_x
 _atom_site_fract_y
 _atom_site_fract_z
 _atom_site_occupancy
  Li  Li0  1  0.43728300  0.67721200  0.78552200  1
  Li  Li1  1  0.06271700  0.17721200  0.78552200  1
  Li  Li2  1  0.93728300  0.82278800  0.21447800  1
  Li  Li3  1  0.56271700  0.32278800  0.21447800  1
  Cr  Cr0  1  0.82680000  0.78483700  0.75409200  1
  Cr  Cr1  1  0.67320000  0.28483700  0.75409200  1
  Cr  Cr2  1  0.32680000  0.71516300  0.24590800  1
  Cr  Cr3  1  0.17320000  0.21516300  0.24590800  1
  B  B0  1  0.11471600  0.67101400  0.91338500  1
  B  B1  1  0.38528400  0.17101400  0.91338500  1
  B  B2  1  0.08789000  0.73880100  0.54800500  1
  B  B3  1  0.58789000  0.76119900  0.45199500  1
  B  B4  1  0.41211000  0.23880100  0.54800500  1
  B  B5  1  0.91211000  0.26119900  0.45199500  1
  B  B6  1  0.61471600  0.82898600  0.08661500  1
  B  B7  1  0.88528400  0.32898600  0.08661500  1
  O  O0  1  0.70073100  0.92822800  0.92462400  1
  O  O1  1  0.99468900  0.79374500  0.92896100  1
  O  O2  1  0.79926900  0.42822800  0.92462400  1
  O  O3  1  0.50531100  0.29374500  0.92896100  1
  O  O4  1  0.16286500  0.64737900  0.72933300  1
  O  O5  1  0.66140600  0.66528800  0.62775400  1
  O  O6  1  0.33713500  0.14737900  0.72933300  1
  O  O7  1  0.94688500  0.73684700  0.53707300  1
  O  O8  1  0.83859400  0.16528800  0.62775400  1
  O  O9  1  0.44688500  0.76315300  0.46292700  1
  O  O10  1  0.55311500  0.23684700  0.53707300  1
  O  O11  1  0.16140600  0.83471200  0.37224600  1
  O  O12  1  0.05311500  0.26315300  0.46292700  1
  O  O13  1  0.66286500  0.85262100  0.27066700  1
  O  O14  1  0.33859400  0.33471200  0.37224600  1
  O  O15  1  0.83713500  0.35262100  0.27066700  1
  O  O16  1  0.49468900  0.70625500  0.07103900  1
  O  O17  1  0.20073100  0.57177200  0.07537600  1
  O  O18  1  0.00531100  0.20625500  0.07103900  1
  O  O19  1  0.29926900  0.07177200  0.07537600  1
loop_
_geom_bond_atom_site_label_1
_geom_bond_atom_site_label_2
_geom_bond_distance
_geom_bond_site_symmetry_2
Li0 O16 2.110272 1_556
Li0 O9 2.150718 1_555
Li0 O3 2.197936 1_555
Li0 O5 2.421038 1_555
Li1 O18 2.110272 1_556
Li1 O12 2.150718 1_555
Li1 O1 2.197936 1_445
Li1 O8 2.421038 1_455
Li2 O1 2.110272 1_554
Li2 O7 2.150718 1_555
Li2 O18 2.197936 1_665
Li2 O11 2.421038 1_655
Li3 O3 2.110272 1_554
Li3 O10 2.150718 1_555
Li3 O16 2.197936 1_555
Li3 O14 2.421038 1_555
Cr0 O7 1.977253 1_555
Cr0 O0 2.019916 1_555
Cr0 O5 2.021090 1_555
Cr0 O1 2.025352 1_555
Cr0 O2 2.029655 1_555
Cr0 O8 2.069451 1_565
Cr1 O10 1.977253 1_555
Cr1 O2 2.019916 1_555
Cr1 O8 2.021090 1_555
Cr1 O3 2.025352 1_555
Cr1 O0 2.029655 1_545
Cr1 O5 2.069451 1_555
Cr2 O9 1.977253 1_555
Cr2 O17 2.019916 1_555
Cr2 O11 2.021090 1_555
Cr2 O16 2.025352 1_555
Cr2 O19 2.029655 1_565
Cr2 O14 2.069451 1_555
Cr3 O12 1.977253 1_555
Cr3 O19 2.019916 1_555
Cr3 O14 2.021090 1_555
Cr3 O18 2.025352 1_555
Cr3 O17 2.029655 1_555
Cr3 O11 2.069451 1_545
B0 O1 1.363124 1_455
B0 O17 1.374259 1_556
B0 O4 1.401824 1_555
B1 O3 1.363124 1_555
B1 O19 1.374259 1_556
B1 O6 1.401824 1_555
B2 O7 1.353586 1_455
B2 O11 1.375188 1_555
B2 O4 1.409488 1_555
B3 O9 1.353586 1_555
B3 O5 1.375188 1_555
B3 O13 1.409488 1_555
B4 O10 1.353586 1_555
B4 O14 1.375188 1_555
B4 O6 1.409488 1_555
B5 O12 1.353586 1_655
B5 O8 1.375188 1_555
B5 O15 1.409488 1_555
B6 O16 1.363124 1_555
B6 O0 1.374259 1_554
B6 O13 1.401824 1_555
B7 O18 1.363124 1_655
B7 O2 1.374259 1_554
B7 O15 1.401824 1_555
