# generated using pymatgen
data_LiCr2(PO4)2
_symmetry_space_group_name_H-M   'P 1'
_cell_length_a   4.90266700
_cell_length_b   6.55387900
_cell_length_c   8.82179700
_cell_angle_alpha   90.00000000
_cell_angle_beta   90.00000000
_cell_angle_gamma   90.00000000
_symmetry_Int_Tables_number   1
_chemical_formula_structural   LiCr2(PO4)2
_chemical_formula_sum   'Li2 Cr4 P4 O16'
_cell_volume   283.45744941
_cell_formula_units_Z   2
loop_
 _symmetry_equiv_pos_site_id
 _symmetry_equiv_pos_as_xyz
  1  'x, y, z'
loop_
 _atom_site_type_symbol
 _atom_site_label
 _atom_site_symmetry_multiplicity
 _atom_site_fract_x
 _atom_site_fract_y
 _atom_site_fract_z
 _atom_site_occupancy
  Li  Li0  1  0.19781600  0.00000000  0.33678000  1
  Li  Li1  1  0.80218400  0.00000000  0.83678000  1
  Cr  Cr0  1  0.25535700  0.74140500  0.99813100  1
  Cr  Cr1  1  0.25535700  0.25859500  0.99813100  1
  Cr  Cr2  1  0.74464300  0.74140500  0.49813100  1
  Cr  Cr3  1  0.74464300  0.25859500  0.49813100  1
  P  P0  1  0.71265900  0.00000000  0.17824100  1
  P  P1  1  0.22353800  0.50000000  0.32013500  1
  P  P2  1  0.28734100  0.00000000  0.67824100  1
  P  P3  1  0.77646200  0.50000000  0.82013500  1
  O  O0  1  0.57248000  0.80578000  0.12341500  1
  O  O1  1  0.57248000  0.19422000  0.12341500  1
  O  O2  1  0.19440600  0.50000000  0.14091400  1
  O  O3  1  0.02062600  0.00000000  0.13021400  1
  O  O4  1  0.52457000  0.50000000  0.37689800  1
  O  O5  1  0.68293000  0.00000000  0.35984500  1
  O  O6  1  0.08101800  0.30271900  0.37535400  1
  O  O7  1  0.08101800  0.69728100  0.37535400  1
  O  O8  1  0.42752000  0.80578000  0.62341500  1
  O  O9  1  0.42752000  0.19422000  0.62341500  1
  O  O10  1  0.80559400  0.50000000  0.64091400  1
  O  O11  1  0.97937400  0.00000000  0.63021400  1
  O  O12  1  0.47543000  0.50000000  0.87689800  1
  O  O13  1  0.31707000  0.00000000  0.85984500  1
  O  O14  1  0.91898200  0.30271900  0.87535400  1
  O  O15  1  0.91898200  0.69728100  0.87535400  1
loop_
_geom_bond_atom_site_label_1
_geom_bond_atom_site_label_2
_geom_bond_distance
_geom_bond_site_symmetry_2
Li0 O3 2.018753 1_555
Li0 O7 2.092818 1_545
Li0 O6 2.092818 1_555
Li0 O5 2.387040 1_555
Li0 O5 2.532502 1_455
Li1 O11 2.018753 1_555
Li1 O15 2.092818 1_545
Li1 O14 2.092818 1_555
Li1 O13 2.387040 1_555
Li1 O13 2.532502 1_655
Cr0 O0 1.953658 1_556
Cr0 O15 1.994093 1_455
Cr0 O2 2.044274 1_556
Cr0 O13 2.110005 1_565
Cr0 O12 2.193422 1_555
Cr0 O3 2.356782 1_566
Cr1 O1 1.953658 1_556
Cr1 O14 1.994093 1_455
Cr1 O2 2.044274 1_556
Cr1 O13 2.110005 1_555
Cr1 O12 2.193422 1_555
Cr1 O3 2.356782 1_556
Cr2 O8 1.953658 1_555
Cr2 O7 1.994093 1_655
Cr2 O10 2.044274 1_555
Cr2 O5 2.110005 1_565
Cr2 O4 2.193422 1_555
Cr2 O11 2.356782 1_565
Cr3 O9 1.953658 1_555
Cr3 O6 1.994093 1_655
Cr3 O10 2.044274 1_555
Cr3 O5 2.110005 1_555
Cr3 O4 2.193422 1_555
Cr3 O11 2.356782 1_555
O0 P0 1.525288 1_565
O1 P0 1.525288 1_555
O2 P1 1.587489 1_555
O3 P0 1.568179 1_455
O4 P1 1.558497 1_555
O5 P0 1.608690 1_555
O6 P1 1.548306 1_555
O7 P1 1.548306 1_555
O8 P2 1.525288 1_565
O9 P2 1.525288 1_555
O10 P3 1.587489 1_555
O11 P2 1.568179 1_655
O12 P3 1.558497 1_555
O13 P2 1.608690 1_555
O14 P3 1.548306 1_555
O15 P3 1.548306 1_555
