# generated using pymatgen
data_Ba2YBr7
_symmetry_space_group_name_H-M   'P 1'
_cell_length_a   18.23874800
_cell_length_b   7.68580600
_cell_length_c   14.66278223
_cell_angle_alpha   58.73409853
_cell_angle_beta   90.00000000
_cell_angle_gamma   90.00000000
_symmetry_Int_Tables_number   1
_chemical_formula_structural   Ba2YBr7
_chemical_formula_sum   'Ba8 Y4 Br28'
_cell_volume   1756.90795729
_cell_formula_units_Z   4
loop_
 _symmetry_equiv_pos_site_id
 _symmetry_equiv_pos_as_xyz
  1  'x, y, z'
loop_
 _atom_site_type_symbol
 _atom_site_label
 _atom_site_symmetry_multiplicity
 _atom_site_fract_x
 _atom_site_fract_y
 _atom_site_fract_z
 _atom_site_occupancy
  Ba  Ba0  1  0.51012700  0.37929100  0.82251600  1
  Ba  Ba1  1  0.77163700  0.26170300  0.98266400  1
  Ba  Ba2  1  0.27163700  0.73829700  0.51733600  1
  Ba  Ba3  1  0.01012700  0.62070900  0.67748400  1
  Ba  Ba4  1  0.98987300  0.37929100  0.32251600  1
  Ba  Ba5  1  0.72836300  0.26170300  0.48266400  1
  Ba  Ba6  1  0.22836300  0.73829700  0.01733600  1
  Ba  Ba7  1  0.48987300  0.62070900  0.17748400  1
  Y  Y0  1  0.83807400  0.87833900  0.35748900  1
  Y  Y1  1  0.33807400  0.12166100  0.14251100  1
  Y  Y2  1  0.66192600  0.87833900  0.85748900  1
  Y  Y3  1  0.16192600  0.12166100  0.64251100  1
  Br  Br0  1  0.71822400  0.27059200  0.76243100  1
  Br  Br1  1  0.70515900  0.70573700  0.45408300  1
  Br  Br2  1  0.10462900  0.52457600  0.51718300  1
  Br  Br3  1  0.47560500  0.96513100  0.23444500  1
  Br  Br4  1  0.81073100  0.81792900  0.19116400  1
  Br  Br5  1  0.38227600  0.05307900  0.97592900  1
  Br  Br6  1  0.92761100  0.32004800  0.88252400  1
  Br  Br7  1  0.42761100  0.67995200  0.61747600  1
  Br  Br8  1  0.88227600  0.94692100  0.52407100  1
  Br  Br9  1  0.31073100  0.18207100  0.30883600  1
  Br  Br10  1  0.60462900  0.47542400  0.98281700  1
  Br  Br11  1  0.97560500  0.03486900  0.26555500  1
  Br  Br12  1  0.21822400  0.72940800  0.73756900  1
  Br  Br13  1  0.20515900  0.29426300  0.04591700  1
  Br  Br14  1  0.79484100  0.70573700  0.95408300  1
  Br  Br15  1  0.78177600  0.27059200  0.26243100  1
  Br  Br16  1  0.02439500  0.96513100  0.73444500  1
  Br  Br17  1  0.39537100  0.52457600  0.01718300  1
  Br  Br18  1  0.68926900  0.81792900  0.69116400  1
  Br  Br19  1  0.11772400  0.05307900  0.47592900  1
  Br  Br20  1  0.57238900  0.32004800  0.38252400  1
  Br  Br21  1  0.07238900  0.67995200  0.11747600  1
  Br  Br22  1  0.61772400  0.94692100  0.02407100  1
  Br  Br23  1  0.18926900  0.18207100  0.80883600  1
  Br  Br24  1  0.52439500  0.03486900  0.76555500  1
  Br  Br25  1  0.89537100  0.47542400  0.48281700  1
  Br  Br26  1  0.29484100  0.29426300  0.54591700  1
  Br  Br27  1  0.28177600  0.72940800  0.23756900  1
loop_
_geom_bond_atom_site_label_1
_geom_bond_atom_site_label_2
_geom_bond_distance
_geom_bond_site_symmetry_2
Ba0 Br7 3.071179 1_555
Ba0 Br24 3.172970 1_555
Ba0 Br10 3.293030 1_555
Ba0 Br5 3.305955 1_555
Ba0 Br22 3.665238 1_546
Ba1 Br6 3.125112 1_555
Ba1 Br14 3.243004 1_555
Ba1 Br4 3.265625 1_546
Ba1 Br0 3.339553 1_555
Ba1 Br10 3.461249 1_555
Ba1 Br22 3.546465 1_546
Ba2 Br7 3.125112 1_555
Ba2 Br26 3.243004 1_555
Ba2 Br9 3.265625 1_565
Ba2 Br12 3.339553 1_555
Ba2 Br2 3.461249 1_555
Ba2 Br19 3.546465 1_565
Ba3 Br6 3.071179 1_455
Ba3 Br16 3.172970 1_555
Ba3 Br2 3.293030 1_555
Ba3 Br8 3.305955 1_455
Ba3 Br19 3.665238 1_565
Ba4 Br21 3.071179 1_655
Ba4 Br11 3.172970 1_555
Ba4 Br25 3.293030 1_555
Ba4 Br19 3.305955 1_655
Ba4 Br8 3.665238 1_545
Ba5 Br20 3.125112 1_555
Ba5 Br1 3.243004 1_555
Ba5 Br18 3.265625 1_545
Ba5 Br15 3.339553 1_555
Ba5 Br25 3.461249 1_555
Ba5 Br8 3.546465 1_545
Ba6 Br21 3.125112 1_555
Ba6 Br13 3.243004 1_555
Ba6 Br23 3.265625 1_564
Ba6 Br27 3.339553 1_555
Ba6 Br17 3.461249 1_555
Ba6 Br5 3.546465 1_564
Ba7 Br20 3.071179 1_555
Ba7 Br3 3.172970 1_555
Ba7 Br17 3.293030 1_555
Ba7 Br22 3.305955 1_555
Ba7 Br5 3.665238 1_564
Br0 Y2 2.779233 1_545
Br1 Y0 2.773494 1_555
Br2 Y3 2.855116 1_555
Br3 Y1 2.805908 1_565
Br4 Y0 2.754513 1_555
Br5 Y1 2.868851 1_556
Br8 Y0 2.868851 1_555
Br9 Y1 2.754513 1_555
Br10 Y2 2.855116 1_555
Br11 Y0 2.805908 1_545
Br12 Y3 2.779233 1_565
Br13 Y1 2.773494 1_555
Br14 Y2 2.773494 1_555
Br15 Y0 2.779233 1_545
Br16 Y3 2.805908 1_565
Br17 Y1 2.855116 1_555
Br18 Y2 2.754513 1_555
Br19 Y3 2.868851 1_555
Br22 Y2 2.868851 1_554
Br23 Y3 2.754513 1_555
Br24 Y2 2.805908 1_545
Br25 Y0 2.855116 1_555
Br26 Y3 2.773494 1_555
Br27 Y1 2.779233 1_565
