# generated using pymatgen
data_Be3Fe4Si3TeO12
_symmetry_space_group_name_H-M   'P 1'
_cell_length_a   8.44512200
_cell_length_b   8.44512200
_cell_length_c   8.44512200
_cell_angle_alpha   90.00000000
_cell_angle_beta   90.00000000
_cell_angle_gamma   90.00000000
_symmetry_Int_Tables_number   1
_chemical_formula_structural   Be3Fe4Si3TeO12
_chemical_formula_sum   'Be6 Fe8 Si6 Te2 O24'
_cell_volume   602.30682390
_cell_formula_units_Z   2
loop_
 _symmetry_equiv_pos_site_id
 _symmetry_equiv_pos_as_xyz
  1  'x, y, z'
loop_
 _atom_site_type_symbol
 _atom_site_label
 _atom_site_symmetry_multiplicity
 _atom_site_fract_x
 _atom_site_fract_y
 _atom_site_fract_z
 _atom_site_occupancy
  Be  Be0  1  0.50000000  0.25000000  0.00000000  1
  Be  Be1  1  0.75000000  0.00000000  0.50000000  1
  Be  Be2  1  0.00000000  0.50000000  0.25000000  1
  Be  Be3  1  0.00000000  0.50000000  0.75000000  1
  Be  Be4  1  0.50000000  0.75000000  0.00000000  1
  Be  Be5  1  0.25000000  0.00000000  0.50000000  1
  Fe  Fe0  1  0.31450800  0.31450800  0.68549200  1
  Fe  Fe1  1  0.18549200  0.81450800  0.81450800  1
  Fe  Fe2  1  0.68549200  0.31450800  0.31450800  1
  Fe  Fe3  1  0.31450800  0.68549200  0.31450800  1
  Fe  Fe4  1  0.81450800  0.18549200  0.81450800  1
  Fe  Fe5  1  0.18549200  0.18549200  0.18549200  1
  Fe  Fe6  1  0.68549200  0.68549200  0.68549200  1
  Fe  Fe7  1  0.81450800  0.81450800  0.18549200  1
  Si  Si0  1  0.50000000  0.00000000  0.75000000  1
  Si  Si1  1  0.00000000  0.75000000  0.50000000  1
  Si  Si2  1  0.00000000  0.25000000  0.50000000  1
  Si  Si3  1  0.50000000  0.00000000  0.25000000  1
  Si  Si4  1  0.25000000  0.50000000  0.00000000  1
  Si  Si5  1  0.75000000  0.50000000  0.00000000  1
  Te  Te0  1  0.00000000  0.00000000  0.00000000  1
  Te  Te1  1  0.50000000  0.50000000  0.50000000  1
  O  O0  1  0.92261500  0.35872500  0.35592900  1
  O  O1  1  0.85592900  0.85872500  0.42261500  1
  O  O2  1  0.64407100  0.92261500  0.64127500  1
  O  O3  1  0.14407100  0.14127500  0.42261500  1
  O  O4  1  0.64127500  0.35592900  0.07738500  1
  O  O5  1  0.35872500  0.64407100  0.07738500  1
  O  O6  1  0.42261500  0.14407100  0.14127500  1
  O  O7  1  0.35592900  0.92261500  0.35872500  1
  O  O8  1  0.85872500  0.57738500  0.14407100  1
  O  O9  1  0.35872500  0.35592900  0.92261500  1
  O  O10  1  0.64407100  0.07738500  0.35872500  1
  O  O11  1  0.14127500  0.42261500  0.14407100  1
  O  O12  1  0.57738500  0.85592900  0.14127500  1
  O  O13  1  0.92261500  0.64127500  0.64407100  1
  O  O14  1  0.07738500  0.64127500  0.35592900  1
  O  O15  1  0.85872500  0.42261500  0.85592900  1
  O  O16  1  0.57738500  0.14407100  0.85872500  1
  O  O17  1  0.64127500  0.64407100  0.92261500  1
  O  O18  1  0.14407100  0.85872500  0.57738500  1
  O  O19  1  0.35592900  0.07738500  0.64127500  1
  O  O20  1  0.42261500  0.85592900  0.85872500  1
  O  O21  1  0.85592900  0.14127500  0.57738500  1
  O  O22  1  0.14127500  0.57738500  0.85592900  1
  O  O23  1  0.07738500  0.35872500  0.64407100  1
loop_
_geom_bond_atom_site_label_1
_geom_bond_atom_site_label_2
_geom_bond_distance
_geom_bond_site_symmetry_2
Be0 O9 1.628136 1_554
Be0 O6 1.628136 1_555
Be0 O4 1.628136 1_555
Be0 O16 1.628136 1_554
Be1 O10 1.628136 1_555
Be1 O1 1.628136 1_545
Be1 O21 1.628136 1_555
Be1 O2 1.628136 1_545
Be2 O0 1.628136 1_455
Be2 O14 1.628136 1_555
Be2 O11 1.628136 1_555
Be2 O8 1.628136 1_455
Be3 O23 1.628136 1_555
Be3 O13 1.628136 1_455
Be3 O15 1.628136 1_455
Be3 O22 1.628136 1_555
Be4 O5 1.628136 1_555
Be4 O20 1.628136 1_554
Be4 O17 1.628136 1_554
Be4 O12 1.628136 1_555
Be5 O7 1.628136 1_545
Be5 O19 1.628136 1_555
Be5 O3 1.628136 1_555
Be5 O18 1.628136 1_545
Fe0 O9 2.066868 1_555
Fe0 O19 2.066868 1_555
Fe0 O23 2.066868 1_555
Fe0 Te1 2.713262 1_555
Fe1 O18 2.066868 1_555
Fe1 O22 2.066868 1_555
Fe1 O20 2.066868 1_555
Fe1 Te0 2.713262 1_566
Fe2 O4 2.066868 1_555
Fe2 O0 2.066868 1_555
Fe2 O10 2.066868 1_555
Fe2 Te1 2.713262 1_555
Fe3 O7 2.066868 1_555
Fe3 O14 2.066868 1_555
Fe3 O5 2.066868 1_555
Fe3 Te1 2.713262 1_555
Fe4 O16 2.066868 1_555
Fe4 O21 2.066868 1_555
Fe4 O15 2.066868 1_555
Fe4 Te0 2.713262 1_656
Fe5 O6 2.066868 1_555
Fe5 O11 2.066868 1_555
Fe5 O3 2.066868 1_555
Fe5 Te0 2.713262 1_555
Fe6 O17 2.066868 1_555
Fe6 O13 2.066868 1_555
Fe6 O2 2.066868 1_555
Fe6 Te1 2.713262 1_555
Fe7 O8 2.066868 1_555
Fe7 O12 2.066868 1_555
Fe7 O1 2.066868 1_555
Fe7 Te0 2.713262 1_665
O0 Si2 1.658473 1_655
O1 Si1 1.658473 1_655
O2 Si0 1.658473 1_565
O3 Si2 1.658473 1_555
O4 Si5 1.658473 1_555
O5 Si4 1.658473 1_555
O6 Si3 1.658473 1_555
O7 Si3 1.658473 1_565
O8 Si5 1.658473 1_555
O9 Si4 1.658473 1_556
O10 Si3 1.658473 1_555
O11 Si4 1.658473 1_555
O12 Si3 1.658473 1_565
O13 Si1 1.658473 1_655
O14 Si1 1.658473 1_555
O15 Si5 1.658473 1_556
O16 Si0 1.658473 1_555
O17 Si5 1.658473 1_556
O18 Si1 1.658473 1_555
O19 Si0 1.658473 1_555
O20 Si0 1.658473 1_565
O21 Si2 1.658473 1_655
O22 Si4 1.658473 1_556
O23 Si2 1.658473 1_555
