# generated using pymatgen
data_Li3(NiO2)4
_symmetry_space_group_name_H-M   'P 1'
_cell_length_a   5.58343000
_cell_length_b   5.67402283
_cell_length_c   5.71751264
_cell_angle_alpha   118.23184208
_cell_angle_beta   118.30903353
_cell_angle_gamma   91.46071003
_symmetry_Int_Tables_number   1
_chemical_formula_structural   Li3(NiO2)4
_chemical_formula_sum   'Li3 Ni4 O8'
_cell_volume   133.01366532
_cell_formula_units_Z   1
loop_
 _symmetry_equiv_pos_site_id
 _symmetry_equiv_pos_as_xyz
  1  'x, y, z'
loop_
 _atom_site_type_symbol
 _atom_site_label
 _atom_site_symmetry_multiplicity
 _atom_site_fract_x
 _atom_site_fract_y
 _atom_site_fract_z
 _atom_site_occupancy
  Li  Li0  1  0.00000000  0.50000000  0.00000000  1
  Li  Li1  1  0.50000000  0.00000000  0.00000000  1
  Li  Li2  1  0.50000000  0.00000000  0.50000000  1
  Ni  Ni0  1  0.50000000  0.50000000  0.00000000  1
  Ni  Ni1  1  0.50000000  0.50000000  0.50000000  1
  Ni  Ni2  1  0.00000000  0.00000000  0.00000000  1
  Ni  Ni3  1  0.00000000  0.50000000  0.50000000  1
  O  O0  1  0.76475100  0.28436500  0.04776800  1
  O  O1  1  0.75701200  0.72543900  0.50760600  1
  O  O2  1  0.28734400  0.28933200  0.05611700  1
  O  O3  1  0.25843800  0.72234600  0.49937800  1
  O  O4  1  0.74156200  0.27765400  0.50062200  1
  O  O5  1  0.71265600  0.71066800  0.94388300  1
  O  O6  1  0.24298800  0.27456100  0.49239400  1
  O  O7  1  0.23524900  0.71563500  0.95223200  1
loop_
_geom_bond_atom_site_label_1
_geom_bond_atom_site_label_2
_geom_bond_distance
_geom_bond_site_symmetry_2
Li0 O7 1.967565 1_554
Li0 O0 1.967565 1_455
Li0 O5 2.019442 1_454
Li0 O2 2.019442 1_555
Li0 O3 2.101822 1_555
Li0 O4 2.101822 1_454
Li1 O7 1.985363 1_544
Li1 O0 1.985363 1_555
Li1 O2 2.042111 1_555
Li1 O5 2.042111 1_544
Li1 O4 2.111356 1_555
Li1 O3 2.111356 1_544
Li2 O3 2.045208 1_545
Li2 O4 2.045208 1_555
Li2 O6 2.146385 1_555
Li2 O1 2.146385 1_545
Li2 O0 2.302991 1_556
Li2 O7 2.302991 1_544
Ni0 O5 1.895621 1_554
Ni0 O2 1.895621 1_555
Ni0 O7 1.944777 1_554
Ni0 O0 1.944777 1_555
Ni0 O6 2.136026 1_554
Ni0 O1 2.136026 1_555
Ni1 O5 1.865236 1_555
Ni1 O2 1.865236 1_555
Ni1 O6 1.868678 1_555
Ni1 O1 1.868678 1_555
Ni1 O3 1.870079 1_555
Ni1 O4 1.870079 1_555
Ni2 O2 2.061843 1_555
Ni2 O5 2.061843 1_444
Ni2 O1 2.076929 1_444
Ni2 O6 2.076929 1_555
Ni2 O7 2.105851 1_544
Ni2 O0 2.105851 1_455
Ni3 O1 1.889594 1_455
Ni3 O6 1.889594 1_555
Ni3 O4 1.894756 1_455
Ni3 O3 1.894756 1_555
Ni3 O0 1.900450 1_455
Ni3 O7 1.900450 1_555
