# generated using pymatgen
data_V12PbO30
_symmetry_space_group_name_H-M   'P 1'
_cell_length_a   7.34633900
_cell_length_b   8.13168916
_cell_length_c   10.29579899
_cell_angle_alpha   108.68226838
_cell_angle_beta   89.97107330
_cell_angle_gamma   103.03508128
_symmetry_Int_Tables_number   1
_chemical_formula_structural   V12PbO30
_chemical_formula_sum   'V12 Pb1 O30'
_cell_volume   565.91335177
_cell_formula_units_Z   1
loop_
 _symmetry_equiv_pos_site_id
 _symmetry_equiv_pos_as_xyz
  1  'x, y, z'
loop_
 _atom_site_type_symbol
 _atom_site_label
 _atom_site_symmetry_multiplicity
 _atom_site_fract_x
 _atom_site_fract_y
 _atom_site_fract_z
 _atom_site_occupancy
  V  V0  1  0.83231500  0.32975200  0.90307500  1
  V  V1  1  0.33193600  0.32735600  0.90083800  1
  V  V2  1  0.85760900  0.43041600  0.59377500  1
  V  V3  1  0.35729500  0.42960000  0.59279400  1
  V  V4  1  0.55501300  0.22358800  0.11240000  1
  V  V5  1  0.05815600  0.22820900  0.11316900  1
  V  V6  1  0.94213400  0.76923400  0.88598700  1
  V  V7  1  0.43989000  0.75896000  0.88076500  1
  V  V8  1  0.14091800  0.56626000  0.40457700  1
  V  V9  1  0.64245400  0.56668600  0.40451700  1
  V  V10  1  0.66941400  0.67278600  0.10224200  1
  V  V11  1  0.16729600  0.67383100  0.10205100  1
  Pb  Pb0  1  0.49567600  0.00129200  0.60259700  1
  O  O0  1  0.77270800  0.13208000  0.78386800  1
  O  O1  1  0.29586400  0.12806200  0.78027600  1
  O  O2  1  0.60137600  0.37607000  0.94906000  1
  O  O3  1  0.08575700  0.37141800  0.94574500  1
  O  O4  1  0.79754000  0.21387500  0.53664800  1
  O  O5  1  0.30982200  0.21264700  0.53501400  1
  O  O6  1  0.00023500  0.00106200  0.00177000  1
  O  O7  1  0.50050500  0.00187200  0.00455100  1
  O  O8  1  0.55452000  0.21861100  0.26957100  1
  O  O9  1  0.05521600  0.21997000  0.26889400  1
  O  O10  1  0.86889100  0.47685700  0.77919300  1
  O  O11  1  0.36980400  0.47867300  0.77610000  1
  O  O12  1  0.62356300  0.48995500  0.57278000  1
  O  O13  1  0.12061600  0.48672000  0.57125600  1
  O  O14  1  0.31546000  0.26923600  0.07589100  1
  O  O15  1  0.81877200  0.26860500  0.07514300  1
  O  O16  1  0.69027300  0.73359100  0.92964300  1
  O  O17  1  0.17658400  0.73358200  0.92964800  1
  O  O18  1  0.87802000  0.51098800  0.42457100  1
  O  O19  1  0.37755700  0.51103700  0.42516000  1
  O  O20  1  0.63026900  0.52614800  0.22010000  1
  O  O21  1  0.13253100  0.52532300  0.21962700  1
  O  O22  1  0.94601600  0.78404800  0.73231500  1
  O  O23  1  0.44576900  0.78343700  0.72476600  1
  O  O24  1  0.69319700  0.78407600  0.46548600  1
  O  O25  1  0.19897100  0.78408900  0.46561300  1
  O  O26  1  0.90752000  0.62826000  0.05684800  1
  O  O27  1  0.40677900  0.62822400  0.04931200  1
  O  O28  1  0.71451300  0.86805900  0.21619900  1
  O  O29  1  0.21954800  0.86865500  0.21646800  1
loop_
_geom_bond_atom_site_label_1
_geom_bond_atom_site_label_2
_geom_bond_distance
_geom_bond_site_symmetry_2
O0 V0 1.643476 1_555
O0 Pb0 2.551873 1_555
O1 V1 1.659887 1_555
O1 Pb0 2.456751 1_555
O2 V0 1.848653 1_555
O2 V1 1.960287 1_555
O2 V10 2.361723 1_556
O2 V4 2.372005 1_556
O3 V0 1.842625 1_455
O3 V1 1.948898 1_555
O3 V5 2.355365 1_556
O3 V11 2.407725 1_556
O4 V2 1.620956 1_555
O4 Pb0 2.718125 1_555
O5 V3 1.624259 1_555
O5 Pb0 2.669794 1_555
O6 V5 1.788023 1_555
O6 V6 1.831640 1_444
O7 V4 1.742443 1_555
O7 V7 1.927523 1_544
O8 V4 1.631597 1_555
O9 V5 1.625945 1_555
O10 V2 1.821551 1_555
O10 V0 1.990486 1_555
O10 V6 2.213566 1_555
O11 V3 1.797408 1_555
O11 V1 2.024450 1_555
O11 V7 2.125758 1_555
O12 V2 1.918419 1_555
O12 V3 1.934156 1_555
O12 V9 2.015684 1_555
O13 V2 1.914430 1_455
O13 V3 1.928409 1_555
O13 V8 2.013175 1_555
O14 V5 1.904850 1_555
O14 V4 1.939288 1_555
O14 V1 2.001501 1_554
O15 V5 1.922892 1_655
O15 V4 1.950621 1_555
O15 V0 1.984302 1_554
O16 V6 1.884195 1_555
O16 V7 1.979344 1_555
O16 V10 1.988541 1_556
O17 V6 1.887359 1_455
O17 V7 1.980663 1_555
O17 V11 1.982143 1_556
O18 V8 1.908337 1_655
O18 V9 1.912171 1_555
O18 V2 2.042859 1_555
O19 V8 1.918903 1_555
O19 V9 1.923775 1_555
O19 V3 2.031503 1_555
O20 V9 1.818709 1_555
O20 V10 1.936212 1_555
O20 V4 2.286413 1_555
O21 V8 1.823566 1_555
O21 V11 1.945783 1_555
O21 V5 2.246277 1_555
O22 V6 1.624534 1_555
O23 V7 1.679882 1_555
O23 Pb0 2.447230 1_565
O24 V9 1.627887 1_555
O24 Pb0 2.602882 1_565
O25 V8 1.631179 1_555
O25 Pb0 2.555458 1_565
O26 V11 1.888734 1_655
O26 V10 1.893599 1_555
O26 V6 2.373475 1_554
O26 V0 2.374419 1_554
O27 V11 1.921444 1_555
O27 V10 1.926152 1_555
O27 V7 2.294670 1_554
O27 V1 2.371257 1_554
O28 V10 1.605399 1_555
O29 V11 1.604817 1_555
