# generated using pymatgen
data_Zn2AsO5
_symmetry_space_group_name_H-M   'P 1'
_cell_length_a   6.07099600
_cell_length_b   8.48002800
_cell_length_c   8.62337500
_cell_angle_alpha   90.00000000
_cell_angle_beta   90.00000000
_cell_angle_gamma   90.00000000
_symmetry_Int_Tables_number   1
_chemical_formula_structural   Zn2AsO5
_chemical_formula_sum   'Zn8 As4 O20'
_cell_volume   443.95045498
_cell_formula_units_Z   4
loop_
 _symmetry_equiv_pos_site_id
 _symmetry_equiv_pos_as_xyz
  1  'x, y, z'
loop_
 _atom_site_type_symbol
 _atom_site_label
 _atom_site_symmetry_multiplicity
 _atom_site_fract_x
 _atom_site_fract_y
 _atom_site_fract_z
 _atom_site_occupancy
  Zn  Zn0  1  0.00000000  0.85616100  0.12633000  1
  Zn  Zn1  1  0.00000000  0.14383900  0.87367000  1
  Zn  Zn2  1  0.50000000  0.64383900  0.62633000  1
  Zn  Zn3  1  0.50000000  0.35616100  0.37367000  1
  Zn  Zn4  1  0.24542800  0.50000000  0.00000000  1
  Zn  Zn5  1  0.25457200  0.00000000  0.50000000  1
  Zn  Zn6  1  0.75457200  0.50000000  0.00000000  1
  Zn  Zn7  1  0.74542800  0.00000000  0.50000000  1
  As  As0  1  0.50000000  0.74140400  0.25106200  1
  As  As1  1  0.50000000  0.25859600  0.74893800  1
  As  As2  1  0.00000000  0.75859600  0.75106200  1
  As  As3  1  0.00000000  0.24140400  0.24893800  1
  O  O0  1  0.50000000  0.59814000  0.39392900  1
  O  O1  1  0.50000000  0.40186000  0.60607100  1
  O  O2  1  0.00000000  0.90186000  0.89392900  1
  O  O3  1  0.00000000  0.09814000  0.10607100  1
  O  O4  1  0.50000000  0.63599500  0.07692300  1
  O  O5  1  0.50000000  0.36400500  0.92307700  1
  O  O6  1  0.00000000  0.86400500  0.57692300  1
  O  O7  1  0.00000000  0.13599500  0.42307700  1
  O  O8  1  0.26826200  0.85722900  0.26450500  1
  O  O9  1  0.26826200  0.14277100  0.73549500  1
  O  O10  1  0.23173800  0.64277100  0.76450500  1
  O  O11  1  0.23173800  0.35722900  0.23549500  1
  O  O12  1  0.73173800  0.14277100  0.73549500  1
  O  O13  1  0.73173800  0.85722900  0.26450500  1
  O  O14  1  0.76826200  0.35722900  0.23549500  1
  O  O15  1  0.76826200  0.64277100  0.76450500  1
  O  O16  1  0.00000000  0.62989500  0.07620500  1
  O  O17  1  0.00000000  0.37010500  0.92379500  1
  O  O18  1  0.50000000  0.87010500  0.57620500  1
  O  O19  1  0.50000000  0.12989500  0.42379500  1
loop_
_geom_bond_atom_site_label_1
_geom_bond_atom_site_label_2
_geom_bond_distance
_geom_bond_site_symmetry_2
As0 O13 1.719729 1_555
As0 O8 1.719729 1_555
As0 O0 1.730247 1_555
As0 O4 1.747572 1_555
As1 O12 1.719729 1_555
As1 O9 1.719729 1_555
As1 O1 1.730247 1_555
As1 O5 1.747572 1_555
As2 O15 1.719729 1_455
As2 O10 1.719729 1_555
As2 O2 1.730247 1_555
As2 O6 1.747572 1_555
As3 O14 1.719729 1_455
As3 O11 1.719729 1_555
As3 O3 1.730247 1_555
As3 O7 1.747572 1_555
O0 Zn2 2.041205 1_555
O0 Zn3 2.059412 1_555
O1 Zn3 2.041205 1_555
O1 Zn2 2.059412 1_555
O2 Zn0 2.041205 1_556
O2 Zn1 2.059412 1_565
O3 Zn1 2.041205 1_554
O3 Zn0 2.059412 1_545
O4 Zn4 2.039257 1_555
O4 Zn6 2.039257 1_555
O5 Zn4 2.039257 1_556
O5 Zn6 2.039257 1_556
O6 Zn5 2.039257 1_565
O6 Zn7 2.039257 1_465
O7 Zn7 2.039257 1_455
O7 Zn5 2.039257 1_555
O8 Zn0 2.017977 1_555
O8 Zn5 2.365735 1_565
O9 Zn1 2.017977 1_555
O9 Zn5 2.365735 1_555
O10 Zn2 2.017977 1_555
O10 Zn4 2.365735 1_556
O11 Zn3 2.017977 1_555
O11 Zn4 2.365735 1_555
O12 Zn1 2.017977 1_655
O12 Zn7 2.365735 1_555
O13 Zn0 2.017977 1_655
O13 Zn7 2.365735 1_565
O14 Zn3 2.017977 1_555
O14 Zn6 2.365735 1_555
O15 Zn2 2.017977 1_555
O15 Zn6 2.365735 1_556
O16 Zn6 1.966023 1_455
O16 Zn4 1.966023 1_555
O16 Zn0 1.966827 1_555
O17 Zn6 1.966023 1_456
O17 Zn4 1.966023 1_556
O17 Zn1 1.966827 1_555
O18 Zn7 1.966023 1_565
O18 Zn5 1.966023 1_565
O18 Zn2 1.966827 1_555
O19 Zn7 1.966023 1_555
O19 Zn5 1.966023 1_555
O19 Zn3 1.966827 1_555
