# generated using pymatgen
data_Li4V2(PO4)3
_symmetry_space_group_name_H-M   'P 1'
_cell_length_a   8.83391213
_cell_length_b   8.83391213
_cell_length_c   8.62406292
_cell_angle_alpha   61.43804912
_cell_angle_beta   61.43804912
_cell_angle_gamma   62.17659528
_symmetry_Int_Tables_number   1
_chemical_formula_structural   Li4V2(PO4)3
_chemical_formula_sum   'Li8 V4 P6 O24'
_cell_volume   493.80218094
_cell_formula_units_Z   2
loop_
 _symmetry_equiv_pos_site_id
 _symmetry_equiv_pos_as_xyz
  1  'x, y, z'
loop_
 _atom_site_type_symbol
 _atom_site_label
 _atom_site_symmetry_multiplicity
 _atom_site_fract_x
 _atom_site_fract_y
 _atom_site_fract_z
 _atom_site_occupancy
  Li  Li0  1  0.20605200  0.20948600  0.45233700  1
  Li  Li1  1  0.79051400  0.79394800  0.04766300  1
  Li  Li2  1  0.42736700  0.80674700  0.70108500  1
  Li  Li3  1  0.80674700  0.42736700  0.20108500  1
  Li  Li4  1  0.19325300  0.57263300  0.79891500  1
  Li  Li5  1  0.57263300  0.19325300  0.29891500  1
  Li  Li6  1  0.20948600  0.20605200  0.95233700  1
  Li  Li7  1  0.79394800  0.79051400  0.54766300  1
  V  V0  1  0.13953800  0.64046600  0.14526900  1
  V  V1  1  0.35953400  0.86046200  0.35473100  1
  V  V2  1  0.64046600  0.13953800  0.64526900  1
  V  V3  1  0.86046200  0.35953400  0.85473100  1
  P  P0  1  0.73984700  0.55392100  0.46078200  1
  P  P1  1  0.44607900  0.26015300  0.03921800  1
  P  P2  1  0.03523600  0.96476400  0.75000000  1
  P  P3  1  0.96476400  0.03523600  0.25000000  1
  P  P4  1  0.55392100  0.73984700  0.96078200  1
  P  P5  1  0.26015300  0.44607900  0.53921800  1
  O  O0  1  0.57037400  0.72655100  0.46927500  1
  O  O1  1  0.87938700  0.59069400  0.25636900  1
  O  O2  1  0.70297600  0.38529000  0.49297700  1
  O  O3  1  0.61471000  0.29702400  0.00702300  1
  O  O4  1  0.40930600  0.12061300  0.24363100  1
  O  O5  1  0.27344900  0.42962600  0.03072500  1
  O  O6  1  0.01318000  0.12960300  0.78437800  1
  O  O7  1  0.05862600  0.77832600  0.91008000  1
  O  O8  1  0.12960300  0.01318000  0.28437800  1
  O  O9  1  0.77832600  0.05862600  0.41008000  1
  O  O10  1  0.81187100  0.53240100  0.60445900  1
  O  O11  1  0.53240100  0.81187100  0.10445900  1
  O  O12  1  0.46759900  0.18812900  0.89554100  1
  O  O13  1  0.18812900  0.46759900  0.39554100  1
  O  O14  1  0.22167400  0.94137400  0.58992000  1
  O  O15  1  0.87039700  0.98682000  0.71562200  1
  O  O16  1  0.94137400  0.22167400  0.08992000  1
  O  O17  1  0.98682000  0.87039700  0.21562200  1
  O  O18  1  0.72655100  0.57037400  0.96927500  1
  O  O19  1  0.59069400  0.87938700  0.75636900  1
  O  O20  1  0.38529000  0.70297600  0.99297700  1
  O  O21  1  0.29702400  0.61471000  0.50702300  1
  O  O22  1  0.12061300  0.40930600  0.74363100  1
  O  O23  1  0.42962600  0.27344900  0.53072500  1
loop_
_geom_bond_atom_site_label_1
_geom_bond_atom_site_label_2
_geom_bond_distance
_geom_bond_site_symmetry_2
Li0 O4 2.006229 1_555
Li0 O13 2.033042 1_555
Li0 O14 2.049588 1_545
Li0 O6 2.475000 1_555
Li1 O1 2.006229 1_555
Li1 O11 2.033042 1_555
Li1 O7 2.049588 1_654
Li1 O15 2.475000 1_554
Li2 O14 2.047793 1_555
Li2 O0 2.048967 1_555
Li2 O20 2.128864 1_555
Li2 O19 2.129649 1_555
Li3 O16 2.047793 1_555
Li3 O18 2.048967 1_554
Li3 O2 2.128864 1_555
Li3 O1 2.129649 1_555
Li4 O7 2.047793 1_555
Li4 O5 2.048967 1_556
Li4 O21 2.128864 1_555
Li4 O22 2.129649 1_555
Li5 O9 2.047793 1_555
Li5 O23 2.048967 1_555
Li5 O3 2.128864 1_555
Li5 O4 2.129649 1_555
Li6 O22 2.006229 1_555
Li6 O12 2.033042 1_555
Li6 O16 2.049588 1_456
Li6 O8 2.475000 1_556
Li7 O19 2.006229 1_555
Li7 O10 2.033042 1_555
Li7 O9 2.049588 1_565
Li7 O17 2.475000 1_555
O0 P0 1.563016 1_555
O0 V1 2.104617 1_555
O1 P0 1.575132 1_555
O1 V0 2.197211 1_655
O2 P0 1.540541 1_555
O2 V2 2.107622 1_555
O3 P1 1.540541 1_555
O3 V3 2.107622 1_554
O4 P1 1.575132 1_555
O4 V1 2.197211 1_545
O5 P1 1.563016 1_555
O5 V0 2.104617 1_555
O6 P2 1.529390 1_545
O6 V3 2.037550 1_455
O7 P2 1.562703 1_555
O7 V0 2.078386 1_556
O8 P3 1.529390 1_455
O8 V1 2.037550 1_545
O9 P3 1.562703 1_555
O9 V2 2.078386 1_555
O10 P0 1.546601 1_555
O10 V3 2.072940 1_555
O11 P4 1.546601 1_554
O11 V1 2.072940 1_555
O12 P1 1.546601 1_556
O12 V2 2.072940 1_555
O13 P5 1.546601 1_555
O13 V0 2.072940 1_555
O14 P2 1.562703 1_555
O14 V1 2.078386 1_555
O15 P2 1.529390 1_655
O15 V2 2.037550 1_565
O16 P3 1.562703 1_555
O16 V3 2.078386 1_554
O17 P3 1.529390 1_565
O17 V0 2.037550 1_655
O18 P4 1.563016 1_555
O18 V3 2.104617 1_555
O19 P4 1.575132 1_555
O19 V2 2.197211 1_565
O20 P4 1.540541 1_555
O20 V0 2.107622 1_556
O21 P5 1.540541 1_555
O21 V1 2.107622 1_555
O22 P5 1.575132 1_555
O22 V3 2.197211 1_455
O23 P5 1.563016 1_555
O23 V2 2.104617 1_555
