# generated using pymatgen
data_Be(CoO2)2
_symmetry_space_group_name_H-M   'P 1'
_cell_length_a   2.89340000
_cell_length_b   8.99803500
_cell_length_c   9.30374100
_cell_angle_alpha   90.00000000
_cell_angle_beta   90.00000000
_cell_angle_gamma   90.00000000
_symmetry_Int_Tables_number   1
_chemical_formula_structural   Be(CoO2)2
_chemical_formula_sum   'Be4 Co8 O16'
_cell_volume   242.22210118
_cell_formula_units_Z   4
loop_
 _symmetry_equiv_pos_site_id
 _symmetry_equiv_pos_as_xyz
  1  'x, y, z'
loop_
 _atom_site_type_symbol
 _atom_site_label
 _atom_site_symmetry_multiplicity
 _atom_site_fract_x
 _atom_site_fract_y
 _atom_site_fract_z
 _atom_site_occupancy
  Be  Be0  1  0.75000000  0.64595600  0.11064700  1
  Be  Be1  1  0.25000000  0.85404400  0.61064700  1
  Be  Be2  1  0.75000000  0.14595600  0.38935300  1
  Be  Be3  1  0.25000000  0.35404400  0.88935300  1
  Co  Co0  1  0.75000000  0.62916800  0.79874600  1
  Co  Co1  1  0.75000000  0.61903100  0.42974000  1
  Co  Co2  1  0.25000000  0.88096900  0.92974000  1
  Co  Co3  1  0.25000000  0.87083200  0.29874600  1
  Co  Co4  1  0.75000000  0.12916800  0.70125400  1
  Co  Co5  1  0.75000000  0.11903100  0.07026000  1
  Co  Co6  1  0.25000000  0.38096900  0.57026000  1
  Co  Co7  1  0.25000000  0.37083200  0.20125400  1
  O  O0  1  0.75000000  0.51663200  0.61463500  1
  O  O1  1  0.75000000  0.47927000  0.12537400  1
  O  O2  1  0.25000000  0.76558000  0.75177000  1
  O  O3  1  0.75000000  0.74503200  0.97325400  1
  O  O4  1  0.25000000  0.75496800  0.47325400  1
  O  O5  1  0.75000000  0.73442000  0.25177000  1
  O  O6  1  0.25000000  0.02073000  0.62537400  1
  O  O7  1  0.25000000  0.98336800  0.11463500  1
  O  O8  1  0.75000000  0.01663200  0.88536500  1
  O  O9  1  0.75000000  0.97927000  0.37462600  1
  O  O10  1  0.25000000  0.26558000  0.74823000  1
  O  O11  1  0.75000000  0.24503200  0.52674600  1
  O  O12  1  0.25000000  0.25496800  0.02674600  1
  O  O13  1  0.75000000  0.23442000  0.24823000  1
  O  O14  1  0.25000000  0.52073000  0.87462600  1
  O  O15  1  0.25000000  0.48336800  0.38536500  1
loop_
_geom_bond_atom_site_label_1
_geom_bond_atom_site_label_2
_geom_bond_distance
_geom_bond_site_symmetry_2
Be0 O1 1.506092 1_555
Be0 O5 1.535420 1_555
Be0 O3 1.558437 1_554
Be1 O6 1.506092 1_565
Be1 O2 1.535420 1_555
Be1 O4 1.558437 1_555
Be2 O9 1.506092 1_545
Be2 O13 1.535420 1_555
Be2 O11 1.558437 1_555
Be3 O14 1.506092 1_555
Be3 O10 1.535420 1_555
Be3 O12 1.558437 1_556
Co0 O14 1.882386 1_655
Co0 O14 1.882386 1_555
Co0 O3 1.929484 1_555
Co0 O2 1.946937 1_555
Co0 O2 1.946937 1_655
Co0 O0 1.989840 1_555
Co1 O4 1.937259 1_555
Co1 O4 1.937259 1_655
Co1 O15 1.937395 1_655
Co1 O15 1.937395 1_555
Co1 O0 1.951435 1_555
Co1 O5 1.954391 1_555
Co2 O3 1.937259 1_555
Co2 O3 1.937259 1_455
Co2 O8 1.937395 1_565
Co2 O8 1.937395 1_465
Co2 O7 1.951435 1_556
Co2 O2 1.954391 1_555
Co3 O9 1.882386 1_455
Co3 O9 1.882386 1_555
Co3 O4 1.929484 1_555
Co3 O5 1.946937 1_555
Co3 O5 1.946937 1_455
Co3 O7 1.989840 1_555
Co4 O6 1.882386 1_655
Co4 O6 1.882386 1_555
Co4 O11 1.929484 1_555
Co4 O10 1.946937 1_555
Co4 O10 1.946937 1_655
Co4 O8 1.989840 1_555
Co5 O12 1.937259 1_555
Co5 O12 1.937259 1_655
Co5 O7 1.937395 1_545
Co5 O7 1.937395 1_645
Co5 O8 1.951435 1_554
Co5 O13 1.954391 1_555
Co6 O11 1.937259 1_455
Co6 O11 1.937259 1_555
Co6 O0 1.937395 1_455
Co6 O0 1.937395 1_555
Co6 O15 1.951435 1_555
Co6 O10 1.954391 1_555
Co7 O1 1.882386 1_555
Co7 O1 1.882386 1_455
Co7 O12 1.929484 1_555
Co7 O13 1.946937 1_455
Co7 O13 1.946937 1_555
Co7 O15 1.989840 1_555
