# generated using pymatgen
data_Na2PHO4
_symmetry_space_group_name_H-M   'P 1'
_cell_length_a   6.92729600
_cell_length_b   5.50679900
_cell_length_c   11.08073815
_cell_angle_alpha   63.67625642
_cell_angle_beta   90.00000000
_cell_angle_gamma   90.00000000
_symmetry_Int_Tables_number   1
_chemical_formula_structural   Na2PHO4
_chemical_formula_sum   'Na8 P4 H4 O16'
_cell_volume   378.86665868
_cell_formula_units_Z   4
loop_
 _symmetry_equiv_pos_site_id
 _symmetry_equiv_pos_as_xyz
  1  'x, y, z'
loop_
 _atom_site_type_symbol
 _atom_site_label
 _atom_site_symmetry_multiplicity
 _atom_site_fract_x
 _atom_site_fract_y
 _atom_site_fract_z
 _atom_site_occupancy
  Na  Na0  1  0.50000000  0.00000000  0.50000000  1
  Na  Na1  1  0.00000000  0.00000000  0.00000000  1
  Na  Na2  1  0.00000000  0.00000000  0.50000000  1
  Na  Na3  1  0.50000000  0.00000000  0.00000000  1
  Na  Na4  1  0.73567300  0.60809800  0.88836500  1
  Na  Na5  1  0.23567300  0.39190200  0.61163500  1
  Na  Na6  1  0.26432700  0.39190200  0.11163500  1
  Na  Na7  1  0.76432700  0.60809800  0.38836500  1
  P  P0  1  0.75393600  0.33457800  0.69149100  1
  P  P1  1  0.25393600  0.66542200  0.80850900  1
  P  P2  1  0.24606400  0.66542200  0.30850900  1
  P  P3  1  0.74606400  0.33457800  0.19149100  1
  H  H0  1  0.00920800  0.96294400  0.75869200  1
  H  H1  1  0.50920800  0.03705600  0.74130800  1
  H  H2  1  0.99079200  0.03705600  0.24130800  1
  H  H3  1  0.49079200  0.96294400  0.25869200  1
  O  O0  1  0.74590800  0.64022800  0.60503400  1
  O  O1  1  0.24590800  0.35977200  0.89496600  1
  O  O2  1  0.25409200  0.35977200  0.39496600  1
  O  O3  1  0.75409200  0.64022800  0.10503400  1
  O  O4  1  0.75393100  0.23693700  0.84447900  1
  O  O5  1  0.25393100  0.76306300  0.65552100  1
  O  O6  1  0.24606900  0.76306300  0.15552100  1
  O  O7  1  0.74606900  0.23693700  0.34447900  1
  O  O8  1  0.92410500  0.20941300  0.64540400  1
  O  O9  1  0.42410500  0.79058700  0.85459600  1
  O  O10  1  0.07589500  0.79058700  0.35459600  1
  O  O11  1  0.57589500  0.20941300  0.14540400  1
  O  O12  1  0.94241300  0.21071200  0.15844100  1
  O  O13  1  0.44241300  0.78928800  0.34155900  1
  O  O14  1  0.05758700  0.78928800  0.84155900  1
  O  O15  1  0.55758700  0.21071200  0.65844100  1
loop_
_geom_bond_atom_site_label_1
_geom_bond_atom_site_label_2
_geom_bond_distance
_geom_bond_site_symmetry_2
Na0 O7 2.362968 1_555
Na0 O5 2.362968 1_545
Na0 O0 2.477200 1_545
Na0 O2 2.477200 1_555
Na0 O15 2.528746 1_555
Na0 O13 2.528746 1_545
Na1 O6 2.362968 1_545
Na1 O4 2.362968 1_454
Na1 O3 2.477200 1_445
Na1 O1 2.477200 1_554
Na1 O12 2.528746 1_455
Na1 O14 2.528746 1_544
Na2 O5 2.402552 1_545
Na2 O7 2.402552 1_455
Na2 O8 2.418682 1_455
Na2 O10 2.418682 1_545
Na2 O2 2.516522 1_555
Na2 O0 2.516522 1_445
Na3 O4 2.402552 1_554
Na3 O6 2.402552 1_545
Na3 O11 2.418682 1_555
Na3 O9 2.418682 1_544
Na3 O3 2.516522 1_545
Na3 O1 2.516522 1_554
Na4 O4 2.304678 1_555
Na4 O9 2.339822 1_555
Na4 O14 2.403844 1_655
Na4 O3 2.487653 1_556
Na5 O5 2.304678 1_555
Na5 O8 2.339822 1_455
Na5 O15 2.403844 1_555
Na5 O2 2.487653 1_555
Na6 O6 2.304678 1_555
Na6 O11 2.339822 1_555
Na6 O12 2.403844 1_455
Na6 O1 2.487653 1_554
Na7 O7 2.304678 1_555
Na7 O10 2.339822 1_655
Na7 O13 2.403844 1_555
Na7 O0 2.487653 1_555
H0 O14 1.044596 1_555
H0 O8 1.501482 1_465
H1 O15 1.044596 1_555
H1 O9 1.501482 1_545
H2 O12 1.044596 1_555
H2 O10 1.501482 1_645
H3 O13 1.044596 1_555
H3 O11 1.501482 1_565
O0 P0 1.524400 1_555
O1 P1 1.524400 1_555
O2 P2 1.524400 1_555
O3 P3 1.524400 1_555
O4 P0 1.534432 1_555
O5 P1 1.534432 1_555
O6 P2 1.534432 1_555
O7 P3 1.534432 1_555
O8 P0 1.561294 1_555
O9 P1 1.561294 1_555
O10 P2 1.561294 1_555
O11 P3 1.561294 1_555
O12 P3 1.634314 1_555
O13 P2 1.634314 1_555
O14 P1 1.634314 1_555
O15 P0 1.634314 1_555
