# generated using pymatgen
data_Li3CrO4
_symmetry_space_group_name_H-M   'P 1'
_cell_length_a   5.76112882
_cell_length_b   9.90854895
_cell_length_c   5.76112297
_cell_angle_alpha   105.39242919
_cell_angle_beta   61.46466972
_cell_angle_gamma   105.39223278
_symmetry_Int_Tables_number   1
_chemical_formula_structural   Li3CrO4
_chemical_formula_sum   'Li12 Cr4 O16'
_cell_volume   274.80041202
_cell_formula_units_Z   4
loop_
 _symmetry_equiv_pos_site_id
 _symmetry_equiv_pos_as_xyz
  1  'x, y, z'
loop_
 _atom_site_type_symbol
 _atom_site_label
 _atom_site_symmetry_multiplicity
 _atom_site_fract_x
 _atom_site_fract_y
 _atom_site_fract_z
 _atom_site_occupancy
  Li  Li0  1  0.00011500  0.00015500  0.50013100  1
  Li  Li1  1  0.74981300  0.74981100  0.24979900  1
  Li  Li2  1  0.50014700  0.50015200  0.00015500  1
  Li  Li3  1  0.24976200  0.24981100  0.74974700  1
  Li  Li4  1  0.00047000  0.99991100  0.99963600  1
  Li  Li5  1  0.74926900  0.75002700  0.75060600  1
  Li  Li6  1  0.50009600  0.49988800  0.49982200  1
  Li  Li7  1  0.24946600  0.25008600  0.25046400  1
  Li  Li8  1  0.49963700  0.99991100  0.50047200  1
  Li  Li9  1  0.25060700  0.75002700  0.24926800  1
  Li  Li10  1  0.99982500  0.49988700  0.00009100  1
  Li  Li11  1  0.75046700  0.25008600  0.74946400  1
  Cr  Cr0  1  0.50051800  0.00058000  0.00055900  1
  Cr  Cr1  1  0.24975900  0.74974900  0.74973100  1
  Cr  Cr2  1  0.00030600  0.50038000  0.50034200  1
  Cr  Cr3  1  0.74982700  0.24974800  0.24979200  1
  O  O0  1  0.14825500  0.87499500  0.10173100  1
  O  O1  1  0.89668700  0.62493000  0.85343500  1
  O  O2  1  0.64824500  0.37499900  0.60175200  1
  O  O3  1  0.39654300  0.12505100  0.35331000  1
  O  O4  1  0.85331000  0.12505400  0.89654900  1
  O  O5  1  0.60173400  0.87499700  0.64825200  1
  O  O6  1  0.35344300  0.62493400  0.39668800  1
  O  O7  1  0.10172100  0.37498800  0.14823700  1
  O  O8  1  0.13820700  0.86079700  0.63821200  1
  O  O9  1  0.88869600  0.61141500  0.38868600  1
  O  O10  1  0.63813500  0.36090000  0.13814000  1
  O  O11  1  0.38861800  0.11144300  0.88860800  1
  O  O12  1  0.86126900  0.13855600  0.36127600  1
  O  O13  1  0.61182100  0.88913400  0.11181700  1
  O  O14  1  0.36137800  0.63854700  0.86138100  1
  O  O15  1  0.11185000  0.38905200  0.61184500  1
loop_
_geom_bond_atom_site_label_1
_geom_bond_atom_site_label_2
_geom_bond_distance
_geom_bond_site_symmetry_2
Li0 O4 2.161598 1_455
Li0 O3 2.161639 1_555
Li0 O5 2.171034 1_445
Li0 O0 2.171117 1_545
Li0 O12 2.221812 1_455
Li0 O8 2.223374 1_545
Li1 O1 2.161319 1_554
Li1 O6 2.161339 1_555
Li1 O0 2.171376 1_655
Li1 O5 2.171424 1_555
Li1 O9 2.222048 1_555
Li1 O13 2.222297 1_555
Li2 O6 2.161593 1_555
Li2 O1 2.161617 1_554
Li2 O2 2.171092 1_554
Li2 O7 2.171234 1_555
Li2 O14 2.221130 1_554
Li2 O10 2.221723 1_555
Li3 O3 2.161126 1_555
Li3 O4 2.161189 1_455
Li3 O7 2.171533 1_556
Li3 O2 2.171544 1_555
Li3 O15 2.220999 1_555
Li3 O11 2.221611 1_555
Li4 O0 2.006785 1_556
Li4 O4 2.009754 1_465
Li4 O13 2.079727 1_456
Li4 O11 2.080319 1_565
Li4 O12 2.083329 1_466
Li4 O8 2.084159 1_555
Li5 O5 2.007153 1_555
Li5 O1 2.009485 1_555
Li5 O14 2.079080 1_555
Li5 O8 2.080939 1_655
Li5 O13 2.083206 1_556
Li5 O9 2.084309 1_555
Li6 O6 2.007035 1_555
Li6 O2 2.007470 1_555
Li6 O15 2.078145 1_555
Li6 O9 2.082313 1_555
Li6 O14 2.082872 1_555
Li6 O10 2.084631 1_555
Li7 O7 2.007007 1_555
Li7 O3 2.007626 1_555
Li7 O10 2.079885 1_555
Li7 O12 2.080616 1_455
Li7 O15 2.083217 1_555
Li7 O11 2.084094 1_554
Li8 O5 2.006756 1_555
Li8 O3 2.009766 1_565
Li8 O13 2.079746 1_555
Li8 O11 2.080261 1_565
Li8 O12 2.083305 1_565
Li8 O8 2.084190 1_555
Li9 O0 2.007138 1_555
Li9 O6 2.009488 1_555
Li9 O14 2.079057 1_554
Li9 O8 2.080957 1_555
Li9 O13 2.083226 1_555
Li9 O9 2.084279 1_455
Li10 O1 2.007039 1_554
Li10 O7 2.007408 1_655
Li10 O15 2.078134 1_654
Li10 O9 2.082289 1_555
Li10 O14 2.082858 1_654
Li10 O10 2.084667 1_555
Li11 O2 2.006938 1_555
Li11 O4 2.007624 1_555
Li11 O10 2.079907 1_556
Li11 O12 2.080572 1_555
Li11 O15 2.083233 1_655
Li11 O11 2.084072 1_555
Cr0 O13 1.784865 1_545
Cr0 O11 1.785369 1_554
Cr0 O3 1.976993 1_555
Cr0 O4 1.977178 1_554
Cr0 O0 1.980173 1_545
Cr0 O5 1.980332 1_544
Cr1 O8 1.783719 1_555
Cr1 O14 1.785746 1_555
Cr1 O5 1.977483 1_555
Cr1 O0 1.977567 1_556
Cr1 O6 1.979710 1_555
Cr1 O1 1.979851 1_455
Cr2 O9 1.784397 1_455
Cr2 O15 1.785866 1_555
Cr2 O2 1.978422 1_455
Cr2 O7 1.978643 1_555
Cr2 O1 1.978793 1_455
Cr2 O6 1.978994 1_555
Cr3 O12 1.784291 1_555
Cr3 O10 1.785647 1_555
Cr3 O7 1.977102 1_655
Cr3 O2 1.977411 1_555
Cr3 O4 1.980047 1_554
Cr3 O3 1.980232 1_555
