# generated using pymatgen
data_Li3Fe(BO3)2
_symmetry_space_group_name_H-M   'P 1'
_cell_length_a   7.80786000
_cell_length_b   5.92590600
_cell_length_c   10.96933540
_cell_angle_alpha   62.84151498
_cell_angle_beta   90.00000000
_cell_angle_gamma   90.00000000
_symmetry_Int_Tables_number   1
_chemical_formula_structural   Li3Fe(BO3)2
_chemical_formula_sum   'Li12 Fe4 B8 O24'
_cell_volume   451.57905463
_cell_formula_units_Z   4
loop_
 _symmetry_equiv_pos_site_id
 _symmetry_equiv_pos_as_xyz
  1  'x, y, z'
loop_
 _atom_site_type_symbol
 _atom_site_label
 _atom_site_symmetry_multiplicity
 _atom_site_fract_x
 _atom_site_fract_y
 _atom_site_fract_z
 _atom_site_occupancy
  Li  Li0  1  0.71611400  0.62005300  0.87755600  1
  Li  Li1  1  0.79742800  0.05734800  0.42391600  1
  Li  Li2  1  0.55312400  0.72875400  0.61521900  1
  Li  Li3  1  0.05312400  0.27124600  0.88478100  1
  Li  Li4  1  0.21611400  0.37994700  0.62244400  1
  Li  Li5  1  0.70257200  0.05734800  0.92391600  1
  Li  Li6  1  0.29742800  0.94265200  0.07608400  1
  Li  Li7  1  0.78388600  0.62005300  0.37755600  1
  Li  Li8  1  0.94687600  0.72875400  0.11521900  1
  Li  Li9  1  0.44687600  0.27124600  0.38478100  1
  Li  Li10  1  0.20257200  0.94265200  0.57608400  1
  Li  Li11  1  0.28388600  0.37994700  0.12244400  1
  Fe  Fe0  1  0.62318800  0.10156300  0.16612700  1
  Fe  Fe1  1  0.12318800  0.89843700  0.33387300  1
  Fe  Fe2  1  0.87681200  0.10156300  0.66612700  1
  Fe  Fe3  1  0.37681200  0.89843700  0.83387300  1
  B  B0  1  0.90693600  0.63510800  0.62799200  1
  B  B1  1  0.93986500  0.19387700  0.10794100  1
  B  B2  1  0.40693600  0.36489200  0.87200800  1
  B  B3  1  0.43986500  0.80612300  0.39205900  1
  B  B4  1  0.56013500  0.19387700  0.60794100  1
  B  B5  1  0.59306400  0.63510800  0.12799200  1
  B  B6  1  0.06013500  0.80612300  0.89205900  1
  B  B7  1  0.09306400  0.36489200  0.37200800  1
  O  O0  1  0.79703100  0.76192000  0.67659300  1
  O  O1  1  0.44749200  0.61883800  0.79220100  1
  O  O2  1  0.97170100  0.76814600  0.49708500  1
  O  O3  1  0.81615700  0.27996100  0.00591600  1
  O  O4  1  0.88284300  0.11953300  0.24119400  1
  O  O5  1  0.47170100  0.23185400  0.00291500  1
  O  O6  1  0.10670900  0.15050700  0.08701600  1
  O  O7  1  0.60670900  0.84949300  0.41298400  1
  O  O8  1  0.38284300  0.88046700  0.25880600  1
  O  O9  1  0.31615700  0.72003900  0.49408400  1
  O  O10  1  0.94749200  0.38116200  0.70779900  1
  O  O11  1  0.29703100  0.23808000  0.82340700  1
  O  O12  1  0.70296900  0.76192000  0.17659300  1
  O  O13  1  0.05250800  0.61883800  0.29220100  1
  O  O14  1  0.68384300  0.27996100  0.50591600  1
  O  O15  1  0.61715700  0.11953300  0.74119400  1
  O  O16  1  0.39329100  0.15050700  0.58701600  1
  O  O17  1  0.89329100  0.84949300  0.91298400  1
  O  O18  1  0.52829900  0.76814600  0.99708500  1
  O  O19  1  0.11715700  0.88046700  0.75880600  1
  O  O20  1  0.18384300  0.72003900  0.99408400  1
  O  O21  1  0.02829900  0.23185400  0.50291500  1
  O  O22  1  0.55250800  0.38116200  0.20779900  1
  O  O23  1  0.20296900  0.23808000  0.32340700  1
loop_
_geom_bond_atom_site_label_1
_geom_bond_atom_site_label_2
_geom_bond_distance
_geom_bond_site_symmetry_2
Li0 O3 2.015889 1_556
Li0 O0 2.067267 1_555
Li0 O17 2.096601 1_555
Li0 O1 2.298211 1_555
Li0 O18 2.385402 1_555
Li1 O7 1.970741 1_545
Li1 O4 1.980823 1_555
Li1 O2 2.043780 1_545
Li1 O14 2.102160 1_555
Li1 O21 2.426476 1_655
Li1 O0 2.513454 1_545
Li2 O1 1.928481 1_555
Li2 O7 2.039413 1_555
Li2 O0 2.058973 1_555
Li2 O9 2.292205 1_555
Li3 O10 1.928481 1_455
Li3 O6 2.039413 1_556
Li3 O11 2.058973 1_555
Li3 O3 2.292205 1_456
Li4 O9 2.015889 1_555
Li4 O11 2.067267 1_555
Li4 O16 2.096601 1_555
Li4 O10 2.298211 1_455
Li4 O21 2.385402 1_555
Li5 O17 1.970741 1_545
Li5 O15 1.980823 1_555
Li5 O18 2.043780 1_545
Li5 O3 2.102160 1_556
Li5 O5 2.426476 1_556
Li5 O12 2.513454 1_546
Li6 O6 1.970741 1_565
Li6 O8 1.980823 1_555
Li6 O5 2.043780 1_565
Li6 O20 2.102160 1_554
Li6 O18 2.426476 1_554
Li6 O11 2.513454 1_564
Li7 O14 2.015889 1_555
Li7 O12 2.067267 1_555
Li7 O7 2.096601 1_555
Li7 O13 2.298211 1_655
Li7 O2 2.385402 1_555
Li8 O13 1.928481 1_655
Li8 O17 2.039413 1_554
Li8 O12 2.058973 1_555
Li8 O20 2.292205 1_654
Li9 O22 1.928481 1_555
Li9 O16 2.039413 1_555
Li9 O23 2.058973 1_555
Li9 O14 2.292205 1_555
Li10 O16 1.970741 1_565
Li10 O19 1.980823 1_555
Li10 O21 2.043780 1_565
Li10 O9 2.102160 1_555
Li10 O2 2.426476 1_455
Li10 O23 2.513454 1_565
Li11 O20 2.015889 1_554
Li11 O23 2.067267 1_555
Li11 O6 2.096601 1_555
Li11 O22 2.298211 1_555
Li11 O5 2.385402 1_555
Fe0 O5 1.984560 1_555
Fe0 O22 1.987502 1_555
Fe0 O12 2.059416 1_545
Fe0 O3 2.186342 1_555
Fe0 O4 2.208978 1_555
Fe0 O8 2.248493 1_545
Fe0 O7 2.426469 1_545
Fe1 O2 1.984560 1_455
Fe1 O13 1.987502 1_555
Fe1 O23 2.059416 1_565
Fe1 O9 2.186342 1_555
Fe1 O8 2.208978 1_555
Fe1 O4 2.248493 1_465
Fe1 O6 2.426469 1_565
Fe2 O21 1.984560 1_655
Fe2 O10 1.987502 1_555
Fe2 O0 2.059416 1_545
Fe2 O14 2.186342 1_555
Fe2 O15 2.208978 1_555
Fe2 O19 2.248493 1_645
Fe2 O17 2.426469 1_545
Fe3 O18 1.984560 1_555
Fe3 O1 1.987502 1_555
Fe3 O11 2.059416 1_565
Fe3 O20 2.186342 1_555
Fe3 O19 2.208978 1_555
Fe3 O15 2.248493 1_565
Fe3 O16 2.426469 1_565
B0 O2 1.380489 1_555
B0 O10 1.388737 1_555
B0 O0 1.396798 1_555
B1 O6 1.367335 1_655
B1 O3 1.387259 1_555
B1 O4 1.393195 1_555
B2 O5 1.380489 1_556
B2 O1 1.388737 1_555
B2 O11 1.396798 1_555
B3 O7 1.367335 1_555
B3 O9 1.387259 1_555
B3 O8 1.393195 1_555
B4 O16 1.367335 1_555
B4 O14 1.387259 1_555
B4 O15 1.393195 1_555
B5 O18 1.380489 1_554
B5 O22 1.388737 1_555
B5 O12 1.396798 1_555
B6 O17 1.367335 1_455
B6 O20 1.387259 1_555
B6 O19 1.393195 1_555
B7 O21 1.380489 1_555
B7 O13 1.388737 1_555
B7 O23 1.396798 1_555
