# generated using pymatgen
data_Li3FePO5
_symmetry_space_group_name_H-M   'P 1'
_cell_length_a   4.98073800
_cell_length_b   5.52206700
_cell_length_c   15.90947300
_cell_angle_alpha   90.00000000
_cell_angle_beta   90.00000000
_cell_angle_gamma   90.00000000
_symmetry_Int_Tables_number   1
_chemical_formula_structural   Li3FePO5
_chemical_formula_sum   'Li12 Fe4 P4 O20'
_cell_volume   437.57365133
_cell_formula_units_Z   4
loop_
 _symmetry_equiv_pos_site_id
 _symmetry_equiv_pos_as_xyz
  1  'x, y, z'
loop_
 _atom_site_type_symbol
 _atom_site_label
 _atom_site_symmetry_multiplicity
 _atom_site_fract_x
 _atom_site_fract_y
 _atom_site_fract_z
 _atom_site_occupancy
  Li  Li0  1  0.00609200  0.65928200  0.59344500  1
  Li  Li1  1  0.00609200  0.15928200  0.90655500  1
  Li  Li2  1  0.00650300  0.66908000  0.00292400  1
  Li  Li3  1  0.00650300  0.16908000  0.49707600  1
  Li  Li4  1  0.49264200  0.33039800  0.80389800  1
  Li  Li5  1  0.49264200  0.83039800  0.69610200  1
  Li  Li6  1  0.50609200  0.34071800  0.40655500  1
  Li  Li7  1  0.50609200  0.84071800  0.09344500  1
  Li  Li8  1  0.50650300  0.33092000  0.99707600  1
  Li  Li9  1  0.50650300  0.83092000  0.50292400  1
  Li  Li10  1  0.99264200  0.16960200  0.30389800  1
  Li  Li11  1  0.99264200  0.66960200  0.19610200  1
  Fe  Fe0  1  0.01443500  0.16893400  0.70480500  1
  Fe  Fe1  1  0.01443500  0.66893400  0.79519500  1
  Fe  Fe2  1  0.51443500  0.33106600  0.20480500  1
  Fe  Fe3  1  0.51443500  0.83106600  0.29519500  1
  P  P0  1  0.99936400  0.16527700  0.09808600  1
  P  P1  1  0.99936400  0.66527700  0.40191400  1
  P  P2  1  0.49936400  0.33472300  0.59808600  1
  P  P3  1  0.49936400  0.83472300  0.90191400  1
  O  O0  1  0.10185300  0.33109700  0.80962100  1
  O  O1  1  0.10185300  0.83109700  0.69037900  1
  O  O2  1  0.10719100  0.31018500  0.02083900  1
  O  O3  1  0.10719100  0.81018500  0.47916100  1
  O  O4  1  0.10146700  0.39957200  0.40217600  1
  O  O5  1  0.10146700  0.89957200  0.09782400  1
  O  O6  1  0.09017200  0.29456700  0.18154300  1
  O  O7  1  0.09017200  0.79456700  0.31845700  1
  O  O8  1  0.18407900  0.33133500  0.59477100  1
  O  O9  1  0.18407900  0.83133500  0.90522900  1
  O  O10  1  0.60185300  0.16890300  0.30962100  1
  O  O11  1  0.60185300  0.66890300  0.19037900  1
  O  O12  1  0.60719100  0.18981500  0.52083900  1
  O  O13  1  0.60719100  0.68981500  0.97916100  1
  O  O14  1  0.60146700  0.10042800  0.90217600  1
  O  O15  1  0.60146700  0.60042800  0.59782400  1
  O  O16  1  0.59017200  0.20543300  0.68154300  1
  O  O17  1  0.59017200  0.70543300  0.81845700  1
  O  O18  1  0.68407900  0.16866500  0.09477100  1
  O  O19  1  0.68407900  0.66866500  0.40522900  1
loop_
_geom_bond_atom_site_label_1
_geom_bond_atom_site_label_2
_geom_bond_distance
_geom_bond_site_symmetry_2
Li0 O1 1.872418 1_555
Li0 O8 2.016398 1_555
Li0 O15 2.042556 1_455
Li0 O3 2.062471 1_555
Li1 O0 1.872418 1_555
Li1 O9 2.016398 1_545
Li1 O14 2.042556 1_455
Li1 O2 2.062471 1_556
Li2 O9 2.000207 1_554
Li2 O13 2.027717 1_454
Li2 O5 2.030577 1_555
Li2 O2 2.064083 1_555
Li3 O8 2.000207 1_555
Li3 O12 2.027717 1_455
Li3 O4 2.030577 1_555
Li3 O3 2.064083 1_545
Li4 O0 1.948550 1_555
Li4 O14 2.085943 1_555
Li4 O16 2.121657 1_555
Li4 O17 2.139751 1_555
Li5 O1 1.948550 1_555
Li5 O15 2.085943 1_555
Li5 O17 2.121657 1_555
Li5 O16 2.139751 1_565
Li6 O10 1.872418 1_555
Li6 O19 2.016398 1_555
Li6 O4 2.042556 1_555
Li6 O12 2.062471 1_555
Li7 O11 1.872418 1_555
Li7 O18 2.016398 1_565
Li7 O5 2.042556 1_555
Li7 O13 2.062471 1_554
Li8 O18 2.000207 1_556
Li8 O2 2.027717 1_556
Li8 O14 2.030577 1_555
Li8 O13 2.064083 1_555
Li9 O19 2.000207 1_555
Li9 O3 2.027717 1_555
Li9 O15 2.030577 1_555
Li9 O12 2.064083 1_565
Li10 O10 1.948550 1_555
Li10 O4 2.085943 1_655
Li10 O6 2.121657 1_655
Li10 O7 2.139751 1_645
Li11 O11 1.948550 1_555
Li11 O5 2.085943 1_655
Li11 O7 2.121657 1_655
Li11 O6 2.139751 1_655
Fe0 O1 1.929394 1_545
Fe0 O0 1.942224 1_555
Fe0 O8 2.140728 1_555
Fe0 O16 2.154753 1_455
Fe1 O0 1.929394 1_555
Fe1 O1 1.942224 1_555
Fe1 O9 2.140728 1_555
Fe1 O17 2.154753 1_455
Fe2 O11 1.929394 1_555
Fe2 O10 1.942224 1_555
Fe2 O18 2.140728 1_555
Fe2 O6 2.154753 1_555
Fe3 O10 1.929394 1_565
Fe3 O11 1.942224 1_555
Fe3 O19 2.140728 1_555
Fe3 O7 2.154753 1_555
O2 P0 1.561755 1_455
O3 P1 1.561755 1_455
O4 P1 1.552879 1_455
O5 P0 1.552879 1_465
O6 P0 1.573921 1_455
O7 P1 1.573921 1_455
O8 P2 1.571349 1_555
O9 P3 1.571349 1_555
O12 P2 1.561755 1_555
O13 P3 1.561755 1_555
O14 P3 1.552879 1_545
O15 P2 1.552879 1_555
O16 P2 1.573921 1_555
O17 P3 1.573921 1_555
O18 P0 1.571349 1_555
O19 P1 1.571349 1_555
