# generated using pymatgen
data_Na3Ca18Fe(PO4)14
_symmetry_space_group_name_H-M   'P 1'
_cell_length_a   10.49254700
_cell_length_b   10.49675764
_cell_length_c   13.87098146
_cell_angle_alpha   90.04425688
_cell_angle_beta   112.15516380
_cell_angle_gamma   119.86456957
_symmetry_Int_Tables_number   1
_chemical_formula_structural   Na3Ca18Fe(PO4)14
_chemical_formula_sum   'Na3 Ca18 Fe1 P14 O56'
_cell_volume   1192.73318338
_cell_formula_units_Z   1
loop_
 _symmetry_equiv_pos_site_id
 _symmetry_equiv_pos_as_xyz
  1  'x, y, z'
loop_
 _atom_site_type_symbol
 _atom_site_label
 _atom_site_symmetry_multiplicity
 _atom_site_fract_x
 _atom_site_fract_y
 _atom_site_fract_z
 _atom_site_occupancy
  Na  Na0  1  0.63501700  0.81731800  0.45061500  1
  Na  Na1  1  0.47234100  0.53053500  0.02362700  1
  Na  Na2  1  0.63065300  0.32043700  0.95097700  1
  Ca  Ca0  1  0.85591500  0.91878100  0.20208400  1
  Ca  Ca1  1  0.27042200  0.34616600  0.20179600  1
  Ca  Ca2  1  0.28153700  0.93742200  0.20317700  1
  Ca  Ca3  1  0.49293100  0.93768300  0.02383000  1
  Ca  Ca4  1  0.08818800  0.55345300  0.02499500  1
  Ca  Ca5  1  0.27159500  0.42857200  0.70708300  1
  Ca  Ca6  1  0.27821300  0.84249300  0.70425700  1
  Ca  Ca7  1  0.86164000  0.43518400  0.70448600  1
  Ca  Ca8  1  0.99889100  0.49972400  0.49844000  1
  Ca  Ca9  1  0.15616600  0.56334400  0.30488200  1
  Ca  Ca10  1  0.71225700  0.14912700  0.30486400  1
  Ca  Ca11  1  0.73757900  0.58941900  0.30003300  1
  Ca  Ca12  1  0.71195500  0.06129700  0.80705900  1
  Ca  Ca13  1  0.74283900  0.65006400  0.80756500  1
  Ca  Ca14  1  0.15713800  0.09727300  0.80740900  1
  Ca  Ca15  1  0.49547700  0.05347200  0.52380400  1
  Ca  Ca16  1  0.08156900  0.02848400  0.52405200  1
  Ca  Ca17  1  0.46997800  0.44146200  0.52390100  1
  Fe  Fe0  1  0.99874200  0.00017300  0.99865600  1
  P  P0  1  0.46750200  0.73524300  0.20131000  1
  P  P1  1  0.59574200  0.77743200  0.90965400  1
  P  P2  1  0.08978500  0.31329500  0.90839100  1
  P  P3  1  0.13065700  0.81762700  0.90821900  1
  P  P4  1  0.42718600  0.69379500  0.59964600  1
  P  P5  1  0.86632000  0.17241900  0.59997200  1
  P  P6  1  0.08822000  0.27153300  0.40228000  1
  P  P7  1  0.90671500  0.73399600  0.60053400  1
  P  P8  1  0.13110400  0.81669500  0.40256400  1
  P  P9  1  0.58634100  0.31511900  0.40273600  1
  P  P10  1  0.86571500  0.18953400  0.09361900  1
  P  P11  1  0.90748300  0.67769300  0.09473600  1
  P  P12  1  0.41561700  0.22450000  0.09290100  1
  P  P13  1  0.46703200  0.23323700  0.70025600  1
  O  O0  1  0.63452400  0.74759200  0.24553600  1
  O  O1  1  0.35178100  0.60919200  0.24161000  1
  O  O2  1  0.49802900  0.89069200  0.24422500  1
  O  O3  1  0.38477400  0.69713300  0.07808800  1
  O  O4  1  0.64281500  0.81772700  0.02929700  1
  O  O5  1  0.19488800  0.38858300  0.02831000  1
  O  O6  1  0.52208600  0.60859800  0.86863600  1
  O  O7  1  0.75615400  0.86914700  0.89059400  1
  O  O8  1  0.00064300  0.13438500  0.89108600  1
  O  O9  1  0.19139600  0.35820600  0.84464600  1
  O  O10  1  0.21633900  0.82901200  0.02847800  1
  O  O11  1  0.95539000  0.35112100  0.86888900  1
  O  O12  1  0.48347300  0.83427200  0.84885400  1
  O  O13  1  0.50648200  0.60973600  0.66383600  1
  O  O14  1  0.26364600  0.91038300  0.86953700  1
  O  O15  1  0.01525100  0.64921700  0.84911300  1
  O  O16  1  0.97687800  0.10909500  0.63908300  1
  O  O17  1  0.02220000  0.88753700  0.88907400  1
  O  O18  1  0.76843700  0.15806300  0.66519100  1
  O  O19  1  0.52931500  0.86725100  0.64005100  1
  O  O20  1  0.19427100  0.31384700  0.52511700  1
  O  O21  1  0.26786900  0.63146500  0.61596800  1
  O  O22  1  0.97900800  0.34766500  0.61559600  1
  O  O23  1  0.39265700  0.64885100  0.48124600  1
  O  O24  1  0.98526500  0.63661400  0.61646500  1
  O  O25  1  0.73647300  0.08890600  0.48183200  1
  O  O26  1  0.05533300  0.89656900  0.66575300  1
  O  O27  1  0.95823600  0.09943000  0.36863900  1
  O  O28  1  0.20328500  0.32258300  0.34697300  1
  O  O29  1  0.77324600  0.66220900  0.64077900  1
  O  O30  1  0.21163400  0.88019100  0.52544900  1
  O  O31  1  0.64520000  0.33141800  0.52555500  1
  O  O32  1  0.99590300  0.35555000  0.37198500  1
  O  O33  1  0.26991200  0.85883800  0.36881400  1
  O  O34  1  0.01694400  0.64091600  0.37199400  1
  O  O35  1  0.73167300  0.37617300  0.37213300  1
  O  O36  1  0.83449000  0.74534400  0.48236800  1
  O  O37  1  0.46667400  0.14506600  0.34804000  1
  O  O38  1  0.97162800  0.11853300  0.09784800  1
  O  O39  1  0.77487000  0.10731700  0.16232400  1
  O  O40  1  0.51049400  0.41181700  0.36933500  1
  O  O41  1  0.02662300  0.88248700  0.34807600  1
  O  O42  1  0.98683500  0.36145300  0.13847200  1
  O  O43  1  0.06017300  0.66996200  0.16170500  1
  O  O44  1  0.50878500  0.14517100  0.13899900  1
  O  O45  1  0.73306500  0.15155500  0.97915800  1
  O  O46  1  0.49318600  0.38179500  0.16268000  1
  O  O47  1  0.78621300  0.63091900  0.14338400  1
  O  O48  1  0.98115800  0.85401900  0.09709000  1
  O  O49  1  0.24186500  0.12395900  0.09698600  1
  O  O50  1  0.83018600  0.58251800  0.98023800  1
  O  O51  1  0.39339500  0.23557500  0.97753500  1
  O  O52  1  0.49672600  0.10761600  0.74091200  1
  O  O53  1  0.63284200  0.38841300  0.74113800  1
  O  O54  1  0.35237300  0.24445000  0.74087500  1
  O  O55  1  0.38454900  0.19185800  0.57599200  1
loop_
_geom_bond_atom_site_label_1
_geom_bond_atom_site_label_2
_geom_bond_distance
_geom_bond_site_symmetry_2
Na0 O36 2.454651 1_555
Na0 O25 2.464924 1_565
Na0 O23 2.472235 1_555
Na1 O6 2.447236 1_554
Na1 O46 2.496454 1_555
Na1 O5 2.553864 1_555
Na1 O3 2.567991 1_555
Na1 O4 2.610898 1_555
Na1 O47 2.670356 1_555
Na1 O9 2.699653 1_554
Na1 O51 2.779253 1_554
Na2 O51 2.368597 1_555
Na2 O50 2.395283 1_555
Na2 O45 2.455880 1_555
Ca0 O41 2.323631 1_655
Ca0 O4 2.336896 1_555
Ca0 O0 2.426713 1_555
Ca0 O27 2.486108 1_565
Ca0 O39 2.503549 1_565
Ca0 O48 2.577140 1_555
Ca0 O38 2.598916 1_565
Ca0 O47 2.770247 1_555
Ca1 O28 2.347279 1_555
Ca1 O5 2.351987 1_555
Ca1 O1 2.439516 1_555
Ca1 O46 2.446177 1_555
Ca1 O40 2.464608 1_555
Ca1 O49 2.571748 1_555
Ca1 O38 2.596543 1_455
Ca1 O42 2.855805 1_455
Ca2 O37 2.322576 1_565
Ca2 O10 2.367530 1_555
Ca2 O2 2.420607 1_555
Ca2 O33 2.467412 1_555
Ca2 O43 2.470470 1_555
Ca2 O49 2.555492 1_565
Ca2 O48 2.572421 1_455
Ca2 O44 2.767471 1_565
Ca3 O14 2.424746 1_554
Ca3 O4 2.438603 1_555
Ca3 O3 2.454238 1_555
Ca3 O39 2.464713 1_565
Ca3 O10 2.563624 1_555
Ca3 O44 2.599336 1_565
Ca3 O12 2.604968 1_554
Ca3 O45 2.705314 1_564
Ca4 O11 2.431245 1_454
Ca4 O43 2.439850 1_555
Ca4 O3 2.469160 1_555
Ca4 O5 2.478176 1_555
Ca4 O10 2.500838 1_555
Ca4 O42 2.608297 1_455
Ca4 O15 2.628645 1_554
Ca4 O50 2.713321 1_454
Ca5 O9 2.342835 1_555
Ca5 O20 2.440696 1_555
Ca5 O54 2.450810 1_555
Ca5 O6 2.470908 1_555
Ca5 O21 2.486839 1_555
Ca5 O22 2.493964 1_455
Ca5 O13 2.549410 1_555
Ca6 O12 2.365592 1_555
Ca6 O30 2.401291 1_555
Ca6 O52 2.454403 1_565
Ca6 O21 2.464629 1_555
Ca6 O14 2.481418 1_555
Ca6 O24 2.481644 1_455
Ca6 O26 2.541026 1_555
Ca7 O15 2.370192 1_655
Ca7 O31 2.405208 1_555
Ca7 O53 2.451508 1_555
Ca7 O24 2.472021 1_555
Ca7 O11 2.474315 1_555
Ca7 O22 2.480113 1_555
Ca7 O18 2.545087 1_555
Ca8 O24 2.267773 1_555
Ca8 O22 2.271581 1_555
Ca8 O21 2.274788 1_655
Ca8 O32 2.296763 1_555
Ca8 O35 2.298456 1_555
Ca8 O34 2.298621 1_655
Ca9 O1 2.364359 1_555
Ca9 O43 2.414227 1_555
Ca9 O34 2.423342 1_555
Ca9 O32 2.445894 1_455
Ca9 O42 2.474931 1_455
Ca9 O23 2.479438 1_555
Ca9 O33 2.709673 1_555
Ca9 O28 2.828602 1_555
Ca10 O2 2.369972 1_545
Ca10 O39 2.408095 1_555
Ca10 O32 2.429818 1_555
Ca10 O35 2.441655 1_555
Ca10 O44 2.461671 1_555
Ca10 O25 2.486307 1_555
Ca10 O27 2.708412 1_555
Ca10 O37 2.838123 1_555
Ca11 O0 2.381312 1_555
Ca11 O46 2.387102 1_555
Ca11 O47 2.405811 1_555
Ca11 O35 2.434439 1_555
Ca11 O34 2.468833 1_655
Ca11 O36 2.550666 1_555
Ca11 O40 2.717224 1_555
Ca11 O41 2.878610 1_655
Ca12 O18 2.353413 1_555
Ca12 O52 2.389463 1_555
Ca12 O19 2.438180 1_545
Ca12 O45 2.456422 1_555
Ca12 O8 2.478667 1_655
Ca12 O7 2.481057 1_545
Ca12 O11 2.668294 1_555
Ca12 O12 2.668908 1_545
Ca13 O13 2.351231 1_555
Ca13 O53 2.400288 1_555
Ca13 O29 2.446817 1_555
Ca13 O50 2.464448 1_555
Ca13 O7 2.487759 1_555
Ca13 O17 2.510617 1_655
Ca13 O6 2.597798 1_555
Ca13 O15 2.699067 1_655
Ca14 O26 2.368463 1_545
Ca14 O54 2.389805 1_555
Ca14 O51 2.412456 1_555
Ca14 O16 2.438787 1_455
Ca14 O17 2.498767 1_545
Ca14 O8 2.503801 1_555
Ca14 O9 2.602908 1_555
Ca14 O14 2.701768 1_545
Ca15 O33 2.395285 1_545
Ca15 O18 2.425500 1_555
Ca15 O55 2.511262 1_555
Ca15 O31 2.527264 1_555
Ca15 O37 2.587838 1_555
Ca15 O19 2.609837 1_545
Ca15 O30 2.614421 1_545
Ca15 O25 2.654327 1_555
Ca16 O27 2.394694 1_455
Ca16 O26 2.426751 1_545
Ca16 O30 2.526165 1_545
Ca16 O55 2.531289 1_555
Ca16 O41 2.586913 1_545
Ca16 O16 2.591155 1_455
Ca16 O20 2.613440 1_555
Ca16 O36 2.661152 1_445
Ca17 O40 2.385868 1_555
Ca17 O13 2.407166 1_555
Ca17 O20 2.518122 1_555
Ca17 O55 2.518464 1_555
Ca17 O28 2.597796 1_555
Ca17 O31 2.607333 1_555
Ca17 O29 2.623573 1_555
Ca17 O23 2.673208 1_555
Fe0 O49 2.031772 1_656
Fe0 O38 2.040137 1_556
Fe0 O48 2.040400 1_546
Fe0 O8 2.051625 1_655
Fe0 O7 2.061555 1_545
Fe0 O17 2.082809 1_645
O0 P0 1.557924 1_555
O1 P0 1.565423 1_555
O2 P0 1.566400 1_555
O3 P0 1.539160 1_555
O4 P1 1.532854 1_554
O5 P2 1.534292 1_554
O6 P1 1.537692 1_555
O7 P1 1.597475 1_555
O8 P2 1.593703 1_555
O9 P2 1.533578 1_555
O10 P3 1.538412 1_554
O11 P2 1.556137 1_655
O12 P1 1.551227 1_555
O13 P4 1.561138 1_555
O14 P3 1.547725 1_555
O15 P3 1.542917 1_555
O16 P5 1.541307 1_555
O17 P3 1.583693 1_555
O18 P5 1.562935 1_555
O19 P4 1.542669 1_555
O20 P6 1.554113 1_555
O21 P4 1.571677 1_555
O22 P5 1.571250 1_555
O23 P4 1.559122 1_555
O24 P7 1.573218 1_555
O25 P5 1.560283 1_555
O26 P7 1.563850 1_455
O27 P6 1.551234 1_655
O28 P6 1.545389 1_555
O29 P7 1.542720 1_555
O30 P8 1.553935 1_555
O31 P9 1.553633 1_555
O32 P6 1.561066 1_655
O33 P8 1.552104 1_555
O34 P8 1.560019 1_555
O35 P9 1.559366 1_555
O36 P7 1.558335 1_555
O37 P9 1.544582 1_555
O38 P10 1.602997 1_555
O39 P10 1.558447 1_555
O40 P9 1.550920 1_555
O41 P8 1.542674 1_555
O42 P10 1.541636 1_555
O43 P11 1.563123 1_455
O44 P12 1.548529 1_555
O45 P10 1.548100 1_556
O46 P12 1.546096 1_555
O47 P11 1.530174 1_555
O48 P11 1.606318 1_555
O49 P12 1.613243 1_555
O50 P11 1.548327 1_556
O51 P12 1.540945 1_556
O52 P13 1.559365 1_555
O53 P13 1.560053 1_555
O54 P13 1.559113 1_555
O55 P13 1.551784 1_555
