# generated using pymatgen
data_LiMn3(P3O10)2
_symmetry_space_group_name_H-M   'P 1'
_cell_length_a   8.61391153
_cell_length_b   8.61391153
_cell_length_c   12.31518200
_cell_angle_alpha   90.00000000
_cell_angle_beta   90.00000000
_cell_angle_gamma   106.45724471
_symmetry_Int_Tables_number   1
_chemical_formula_structural   LiMn3(P3O10)2
_chemical_formula_sum   'Li2 Mn6 P12 O40'
_cell_volume   876.34371911
_cell_formula_units_Z   2
loop_
 _symmetry_equiv_pos_site_id
 _symmetry_equiv_pos_as_xyz
  1  'x, y, z'
loop_
 _atom_site_type_symbol
 _atom_site_label
 _atom_site_symmetry_multiplicity
 _atom_site_fract_x
 _atom_site_fract_y
 _atom_site_fract_z
 _atom_site_occupancy
  Li  Li0  1  0.10466200  0.10466200  0.00000000  1
  Li  Li1  1  0.60466200  0.60466200  0.50000000  1
  Mn  Mn0  1  0.38010900  0.38010900  0.00000000  1
  Mn  Mn1  1  0.77047700  0.32364700  0.78688400  1
  Mn  Mn2  1  0.32364700  0.77047700  0.21311600  1
  Mn  Mn3  1  0.82364700  0.27047700  0.28688400  1
  Mn  Mn4  1  0.27047700  0.82364700  0.71311600  1
  Mn  Mn5  1  0.88010900  0.88010900  0.50000000  1
  P  P0  1  0.13780100  0.40783600  0.69637500  1
  P  P1  1  0.40783600  0.13780100  0.30362500  1
  P  P2  1  0.22068400  0.35636400  0.21824400  1
  P  P3  1  0.35636400  0.22068400  0.78175600  1
  P  P4  1  0.75797900  0.37379400  0.05354000  1
  P  P5  1  0.37379400  0.75797900  0.94646000  1
  P  P6  1  0.87379400  0.25797900  0.55354000  1
  P  P7  1  0.25797900  0.87379400  0.44646000  1
  P  P8  1  0.90783600  0.63780100  0.19637500  1
  P  P9  1  0.63780100  0.90783600  0.80362500  1
  P  P10  1  0.85636400  0.72068400  0.71824400  1
  P  P11  1  0.72068400  0.85636400  0.28175600  1
  O  O0  1  0.01416000  0.32731500  0.77986700  1
  O  O1  1  0.32731500  0.01416000  0.22013300  1
  O  O2  1  0.34796100  0.06403400  0.72478400  1
  O  O3  1  0.06403400  0.34796100  0.27521600  1
  O  O4  1  0.05871900  0.37073900  0.57691100  1
  O  O5  1  0.37073900  0.05871900  0.42308900  1
  O  O6  1  0.25812000  0.20492600  0.88938300  1
  O  O7  1  0.20492600  0.25812000  0.11061700  1
  O  O8  1  0.31893100  0.27846100  0.30579200  1
  O  O9  1  0.27846100  0.31893100  0.69420800  1
  O  O10  1  0.08556800  0.72009500  0.20125000  1
  O  O11  1  0.22009500  0.58556800  0.70125000  1
  O  O12  1  0.72009500  0.08556800  0.79875000  1
  O  O13  1  0.58556800  0.22009500  0.29875000  1
  O  O14  1  0.32683800  0.52720900  0.19206900  1
  O  O15  1  0.52720900  0.32683800  0.80793200  1
  O  O16  1  0.02720900  0.82683800  0.69206900  1
  O  O17  1  0.82683800  0.02720900  0.30793100  1
  O  O18  1  0.37222800  0.58326400  0.92948400  1
  O  O19  1  0.08326400  0.87222800  0.42948400  1
  O  O20  1  0.87222800  0.08326400  0.57051600  1
  O  O21  1  0.58326400  0.37222800  0.07051600  1
  O  O22  1  0.31155800  0.75754300  0.36831900  1
  O  O23  1  0.75754300  0.31155800  0.63168100  1
  O  O24  1  0.25754300  0.81155800  0.86831900  1
  O  O25  1  0.81155800  0.25754300  0.13168100  1
  O  O26  1  0.30631000  0.83532300  0.55895800  1
  O  O27  1  0.80631000  0.33532300  0.94104200  1
  O  O28  1  0.83532300  0.30631000  0.44104200  1
  O  O29  1  0.33532300  0.80631000  0.05895800  1
  O  O30  1  0.82731500  0.51416000  0.27986700  1
  O  O31  1  0.51416000  0.82731500  0.72013300  1
  O  O32  1  0.84796100  0.56403400  0.77521600  1
  O  O33  1  0.56403400  0.84796100  0.22478400  1
  O  O34  1  0.55871900  0.87073900  0.92308900  1
  O  O35  1  0.87073900  0.55871900  0.07691100  1
  O  O36  1  0.70492600  0.75812000  0.38938300  1
  O  O37  1  0.75812000  0.70492600  0.61061700  1
  O  O38  1  0.77846100  0.81893100  0.80579200  1
  O  O39  1  0.81893100  0.77846100  0.19420800  1
loop_
_geom_bond_atom_site_label_1
_geom_bond_atom_site_label_2
_geom_bond_distance
_geom_bond_site_symmetry_2
Li0 O6 1.924105 1_554
Li0 O7 1.924105 1_555
Li1 O37 1.924105 1_555
Li1 O36 1.924105 1_555
Mn0 O21 1.971909 1_555
Mn0 O18 1.971909 1_554
Mn0 O6 2.082939 1_554
Mn0 O7 2.082939 1_555
Mn1 O23 1.915712 1_555
Mn1 O27 1.921468 1_555
Mn1 O12 1.977666 1_555
Mn1 O32 1.992671 1_555
Mn1 O0 2.092118 1_655
Mn1 O15 2.119352 1_555
Mn2 O22 1.915712 1_555
Mn2 O29 1.921468 1_555
Mn2 O10 1.977666 1_555
Mn2 O33 1.992671 1_555
Mn2 O1 2.092118 1_565
Mn2 O14 2.119351 1_555
Mn3 O25 1.915712 1_555
Mn3 O28 1.921468 1_555
Mn3 O13 1.977666 1_555
Mn3 O3 1.992671 1_655
Mn3 O30 2.092118 1_555
Mn3 O17 2.119351 1_555
Mn4 O24 1.915712 1_555
Mn4 O26 1.921468 1_555
Mn4 O11 1.977666 1_555
Mn4 O2 1.992671 1_565
Mn4 O31 2.092118 1_555
Mn4 O16 2.119351 1_555
Mn5 O20 1.971909 1_565
Mn5 O19 1.971909 1_655
Mn5 O37 2.082939 1_555
Mn5 O36 2.082939 1_555
O0 P0 1.501353 1_555
O1 P1 1.501353 1_555
O2 P3 1.504316 1_555
O3 P2 1.504316 1_555
O4 P0 1.614716 1_555
O4 P6 1.639219 1_455
O5 P1 1.614716 1_555
O5 P7 1.639219 1_545
O6 P3 1.557662 1_555
O7 P2 1.557662 1_555
O8 P1 1.606546 1_555
O8 P2 1.628109 1_555
O9 P0 1.606546 1_555
O9 P3 1.628109 1_555
O10 P8 1.495011 1_455
O11 P0 1.495011 1_555
O12 P9 1.495011 1_545
O13 P1 1.495011 1_555
O14 P2 1.530790 1_555
O15 P3 1.530792 1_555
O16 P10 1.530790 1_455
O17 P11 1.530790 1_545
O18 P5 1.515701 1_555
O19 P7 1.515701 1_555
O20 P6 1.515701 1_555
O21 P4 1.515701 1_555
O22 P7 1.550380 1_555
O23 P6 1.550380 1_555
O24 P5 1.550380 1_555
O25 P4 1.550380 1_555
O26 P7 1.510210 1_555
O27 P4 1.510210 1_556
O28 P6 1.510210 1_555
O29 P5 1.510210 1_554
O30 P8 1.501353 1_555
O31 P9 1.501353 1_555
O32 P10 1.504316 1_555
O33 P11 1.504316 1_555
O34 P9 1.614716 1_555
O34 P5 1.639219 1_555
O35 P8 1.614716 1_555
O35 P4 1.639219 1_555
O36 P11 1.557662 1_555
O37 P10 1.557662 1_555
O38 P9 1.606546 1_555
O38 P10 1.628109 1_555
O39 P8 1.606546 1_555
O39 P11 1.628109 1_555
