# generated using pymatgen
data_V2OF5
_symmetry_space_group_name_H-M   'P 1'
_cell_length_a   4.63215452
_cell_length_b   8.43586296
_cell_length_c   4.99669425
_cell_angle_alpha   89.90655387
_cell_angle_beta   90.27252980
_cell_angle_gamma   89.06297138
_symmetry_Int_Tables_number   1
_chemical_formula_structural   V2OF5
_chemical_formula_sum   'V4 O2 F10'
_cell_volume   195.22332341
_cell_formula_units_Z   2
loop_
 _symmetry_equiv_pos_site_id
 _symmetry_equiv_pos_as_xyz
  1  'x, y, z'
loop_
 _atom_site_type_symbol
 _atom_site_label
 _atom_site_symmetry_multiplicity
 _atom_site_fract_x
 _atom_site_fract_y
 _atom_site_fract_z
 _atom_site_occupancy
  V  V0  1  0.98064500  0.18327300  0.49192000  1
  V  V1  1  0.50262300  0.33347500  0.01189900  1
  V  V2  1  0.97958400  0.68440900  0.99035300  1
  V  V3  1  0.50105000  0.83349900  0.50655800  1
  O  O0  1  0.75581800  0.81179400  0.82893900  1
  O  O1  1  0.75909900  0.31202800  0.32930200  1
  F  F0  1  0.24793700  0.67637300  0.67710100  1
  F  F1  1  0.25072200  0.17582600  0.17956000  1
  F  F2  1  0.25247800  0.31838900  0.67634300  1
  F  F3  1  0.25036700  0.82215900  0.17358000  1
  F  F4  1  0.24685400  0.50724300  0.12924100  1
  F  F5  1  0.24304100  0.00362800  0.63359100  1
  F  F6  1  0.75801300  0.49721300  0.86354600  1
  F  F7  1  0.75742200  0.99782500  0.36131800  1
  F  F8  1  0.75786800  0.67495800  0.32709200  1
  F  F9  1  0.75562200  0.17522700  0.82394100  1
loop_
_geom_bond_atom_site_label_1
_geom_bond_atom_site_label_2
_geom_bond_distance
_geom_bond_site_symmetry_2
O0 V2 1.682983 1_555
O0 V3 1.998727 1_555
O1 V0 1.686972 1_555
O1 V1 1.983321 1_555
F0 V3 1.978485 1_555
F0 V2 2.003947 1_455
F1 V1 1.971908 1_555
F1 V0 2.005334 1_455
F2 V0 1.942474 1_455
F2 V1 2.038889 1_556
F3 V2 1.949882 1_454
F3 V3 2.027686 1_555
F4 V1 1.961850 1_555
F4 V2 2.043512 1_454
F5 V3 1.960892 1_545
F5 V0 2.050155 1_455
F6 V1 1.978724 1_556
F6 V2 1.999675 1_555
F7 V3 1.979231 1_555
F7 V0 1.998057 1_565
F8 V2 1.977598 1_554
F8 V3 1.992505 1_555
F9 V0 1.965143 1_555
F9 V1 2.000241 1_556
