# generated using pymatgen
data_PuPt5
_symmetry_space_group_name_H-M   'P 1'
_cell_length_a   5.36299597
_cell_length_b   5.35580557
_cell_length_c   4.41051689
_cell_angle_alpha   90.01114847
_cell_angle_beta   89.99923835
_cell_angle_gamma   120.03965401
_symmetry_Int_Tables_number   1
_chemical_formula_structural   PuPt5
_chemical_formula_sum   'Pu1 Pt5'
_cell_volume   109.66769345
_cell_formula_units_Z   1
loop_
 _symmetry_equiv_pos_site_id
 _symmetry_equiv_pos_as_xyz
  1  'x, y, z'
loop_
 _atom_site_type_symbol
 _atom_site_label
 _atom_site_symmetry_multiplicity
 _atom_site_fract_x
 _atom_site_fract_y
 _atom_site_fract_z
 _atom_site_occupancy
  Pu  Pu0  1  0.00000000  -0.00000044  -0.00000089  1
  Pt  Pt0  1  -0.00000219  0.50000192  0.50000308  1
  Pt  Pt1  1  0.33304130  0.66612363  -0.00032789  1
  Pt  Pt2  1  0.66695845  0.33387640  0.00032853  1
  Pt  Pt3  1  0.49999889  -0.00000166  0.50000029  1
  Pt  Pt4  1  0.50000355  0.50000016  0.49999688  1
loop_
_geom_bond_atom_site_label_1
_geom_bond_atom_site_label_2
_geom_bond_distance
_geom_bond_site_symmetry_2
Pt0 Pt3 2.678089 1_565
Pt0 Pt3 2.678103 1_455
Pt0 Pt4 2.681462 1_455
Pt0 Pt4 2.681533 1_555
Pt0 Pt1 2.691992 1_556
Pt0 Pt2 2.692001 1_455
Pt0 Pt2 2.694596 1_456
Pt0 Pt1 2.694627 1_555
Pt0 Pu0 3.468696 1_566
Pt0 Pu0 3.468747 1_555
Pt0 Pu0 3.469381 1_565
Pt0 Pu0 3.469387 1_556
Pt1 Pt4 2.692034 1_554
Pt1 Pt3 2.693419 1_564
Pt1 Pt4 2.694683 1_555
Pt1 Pt3 2.695238 1_565
Pt1 Pu0 3.088424 1_555
Pt1 Pt2 3.092393 1_455
Pt1 Pt2 3.092550 1_555
Pt1 Pt2 3.095976 1_565
Pt1 Pu0 3.096030 1_565
Pt1 Pu0 3.096446 1_665
Pt2 Pt4 2.691990 1_555
Pt2 Pt3 2.693428 1_555
Pt2 Pt4 2.694689 1_554
Pt2 Pt3 2.695247 1_554
Pt2 Pu0 3.088420 1_665
Pt2 Pu0 3.096036 1_655
Pt2 Pu0 3.096445 1_555
Pt3 Pt4 2.677900 1_555
Pt3 Pt4 2.677906 1_545
Pt3 Pu0 3.471801 1_556
Pt3 Pu0 3.471812 1_655
Pt3 Pu0 3.471850 1_656
Pt3 Pu0 3.471853 1_555
Pt4 Pu0 3.468891 1_666
Pt4 Pu0 3.468896 1_555
Pt4 Pu0 3.469496 1_665
Pt4 Pu0 3.469525 1_556
