# generated using pymatgen
data_LiVFeO4
_symmetry_space_group_name_H-M   'P 1'
_cell_length_a   5.95331000
_cell_length_b   5.95287100
_cell_length_c   8.32078700
_cell_angle_alpha   89.99991204
_cell_angle_beta   89.99798811
_cell_angle_gamma   89.99949952
_symmetry_Int_Tables_number   1
_chemical_formula_structural   LiVFeO4
_chemical_formula_sum   'Li4 V4 Fe4 O16'
_cell_volume   294.88275391
_cell_formula_units_Z   4
loop_
 _symmetry_equiv_pos_site_id
 _symmetry_equiv_pos_as_xyz
  1  'x, y, z'
loop_
 _atom_site_type_symbol
 _atom_site_label
 _atom_site_symmetry_multiplicity
 _atom_site_fract_x
 _atom_site_fract_y
 _atom_site_fract_z
 _atom_site_occupancy
  Li  Li0  1  0.00001100  0.23315900  0.99996200  1
  Li  Li1  1  0.00001000  0.76686500  0.50003500  1
  Li  Li2  1  0.23332200  0.00001800  0.25001400  1
  Li  Li3  1  0.76670300  0.00001400  0.74998800  1
  V  V0  1  0.22915300  0.50000100  0.25000000  1
  V  V1  1  0.50000500  0.22919000  0.00000000  1
  V  V2  1  0.49999900  0.77080400  0.50001000  1
  V  V3  1  0.77082000  0.49999700  0.74999200  1
  Fe  Fe0  1  0.25646200  0.25646200  0.62502600  1
  Fe  Fe1  1  0.25642500  0.74356100  0.87499100  1
  Fe  Fe2  1  0.74354400  0.25644400  0.37497200  1
  Fe  Fe3  1  0.74354900  0.74354600  0.12501000  1
  O  O0  1  0.01712500  0.26880000  0.25877500  1
  O  O1  1  0.01712400  0.73118500  0.24121200  1
  O  O2  1  0.26884200  0.01712600  0.99122100  1
  O  O3  1  0.26885300  0.98289100  0.50880700  1
  O  O4  1  0.26802900  0.48599500  0.01559100  1
  O  O5  1  0.26802500  0.51401000  0.48440100  1
  O  O6  1  0.48597000  0.26801700  0.23439800  1
  O  O7  1  0.48598400  0.73196900  0.26560900  1
  O  O8  1  0.51403900  0.26800500  0.76559500  1
  O  O9  1  0.51399500  0.73197800  0.73440400  1
  O  O10  1  0.73198100  0.51399300  0.51560100  1
  O  O11  1  0.73197900  0.48598700  0.98440200  1
  O  O12  1  0.73116500  0.01711100  0.00877900  1
  O  O13  1  0.73116700  0.98287500  0.49120100  1
  O  O14  1  0.98287200  0.26879900  0.74121100  1
  O  O15  1  0.98284600  0.73119900  0.75879300  1
loop_
_geom_bond_atom_site_label_1
_geom_bond_atom_site_label_2
_geom_bond_distance
_geom_bond_site_symmetry_2
Li0 O2 2.054379 1_555
Li0 O12 2.054545 1_456
Li0 O14 2.165848 1_455
Li0 O0 2.166355 1_556
Li0 O11 2.197295 1_455
Li0 O4 2.197320 1_556
Li1 O13 2.054381 1_455
Li1 O3 2.054440 1_555
Li1 O15 2.165921 1_455
Li1 O1 2.166453 1_555
Li1 O5 2.197361 1_555
Li1 O10 2.197477 1_455
Li2 O0 2.054737 1_555
Li2 O1 2.055010 1_545
Li2 O2 2.166107 1_554
Li2 O3 2.166134 1_545
Li2 O6 2.196449 1_555
Li2 O7 2.196699 1_545
Li3 O14 2.054669 1_555
Li3 O15 2.054705 1_545
Li3 O13 2.166091 1_545
Li3 O12 2.166098 1_556
Li3 O8 2.196456 1_555
Li3 O9 2.196844 1_545
Fe0 O3 1.895445 1_545
Fe0 O14 1.895460 1_455
Fe0 O8 1.929856 1_555
Fe0 O5 1.929880 1_555
Fe1 O2 1.895471 1_565
Fe1 O15 1.895524 1_455
Fe1 O4 1.929850 1_556
Fe1 O9 1.929856 1_555
Fe2 O0 1.895470 1_655
Fe2 O13 1.895473 1_545
Fe2 O6 1.929872 1_555
Fe2 O10 1.929907 1_555
Fe3 O12 1.895464 1_565
Fe3 O1 1.895519 1_655
Fe3 O11 1.929854 1_554
Fe3 O7 1.929892 1_555
O0 V0 1.868931 1_555
O1 V0 1.868852 1_555
O2 V1 1.868927 1_556
O3 V2 1.868930 1_555
O4 V0 1.965911 1_555
O4 V1 2.064223 1_555
O5 V0 1.965860 1_555
O5 V2 2.064200 1_555
O6 V1 1.965797 1_555
O6 V0 2.064329 1_555
O7 V2 1.965829 1_555
O7 V0 2.064355 1_555
O8 V1 1.965846 1_556
O8 V3 2.064220 1_555
O9 V2 1.965759 1_555
O9 V3 2.064351 1_555
O10 V3 1.965750 1_555
O10 V2 2.064279 1_555
O11 V3 1.965896 1_555
O11 V1 2.064201 1_556
O12 V1 1.868957 1_555
O13 V2 1.868982 1_555
O14 V3 1.869001 1_555
O15 V3 1.868940 1_555
