# generated using pymatgen
data_Li6Co3Ni5O16
_symmetry_space_group_name_H-M   'P 1'
_cell_length_a   5.72132869
_cell_length_b   5.73343348
_cell_length_c   9.25513616
_cell_angle_alpha   88.11243713
_cell_angle_beta   91.54672348
_cell_angle_gamma   121.64476753
_symmetry_Int_Tables_number   1
_chemical_formula_structural   Li6Co3Ni5O16
_chemical_formula_sum   'Li6 Co3 Ni5 O16'
_cell_volume   258.29852375
_cell_formula_units_Z   1
loop_
 _symmetry_equiv_pos_site_id
 _symmetry_equiv_pos_as_xyz
  1  'x, y, z'
loop_
 _atom_site_type_symbol
 _atom_site_label
 _atom_site_symmetry_multiplicity
 _atom_site_fract_x
 _atom_site_fract_y
 _atom_site_fract_z
 _atom_site_occupancy
  Li  Li0  1  0.83054200  0.16948400  0.55000500  1
  Li  Li1  1  0.82719500  0.66536300  0.55411400  1
  Li  Li2  1  0.33491700  0.17216800  0.55415700  1
  Li  Li3  1  0.66005900  0.82699400  0.04893400  1
  Li  Li4  1  0.17272400  0.34113900  0.04994300  1
  Li  Li5  1  0.16854500  0.83023700  0.05298200  1
  Co  Co0  1  0.83462800  0.16750500  0.28899200  1
  Co  Co1  1  0.66359600  0.83030200  0.78439200  1
  Co  Co2  1  0.16846200  0.33166200  0.78737200  1
  Ni  Ni0  1  0.66983600  0.33239500  0.01128400  1
  Ni  Ni1  1  0.83099600  0.66338800  0.28503100  1
  Ni  Ni2  1  0.33599500  0.16889300  0.28551400  1
  Ni  Ni3  1  0.32717200  0.67376000  0.51414200  1
  Ni  Ni4  1  0.16882100  0.82984100  0.78573700  1
  O  O0  1  0.85187700  0.15961100  0.89234000  1
  O  O1  1  0.97201300  0.47062200  0.15715100  1
  O  O2  1  0.52964200  0.02850400  0.15531300  1
  O  O3  1  0.67257700  0.32792300  0.39731300  1
  O  O4  1  0.84236600  0.68440900  0.90294100  1
  O  O5  1  0.52017600  0.48003300  0.16092300  1
  O  O6  1  0.67162800  0.85082400  0.40304100  1
  O  O7  1  0.31633400  0.15990100  0.90054600  1
  O  O8  1  0.47917100  0.51292500  0.66947500  1
  O  O9  1  0.14554700  0.32691800  0.40232400  1
  O  O10  1  0.48885000  0.96854500  0.66523800  1
  O  O11  1  0.34327200  0.65430600  0.90039700  1
  O  O12  1  0.03342300  0.51193400  0.66459100  1
  O  O13  1  0.15095700  0.84802700  0.40415600  1
  O  O14  1  0.99251300  0.00716200  0.18055000  1
  O  O15  1  0.99268600  0.00916400  0.67493300  1
loop_
_geom_bond_atom_site_label_1
_geom_bond_atom_site_label_2
_geom_bond_distance
_geom_bond_site_symmetry_2
Li0 O15 1.951711 1_555
Li0 O10 1.988667 1_545
Li0 O12 2.001583 1_655
Li0 O9 2.067786 1_655
Li0 O3 2.084952 1_555
Li0 O6 2.090126 1_545
Li1 O8 2.023799 1_555
Li1 O15 2.040098 1_565
Li1 O12 2.043568 1_655
Li1 O13 2.112267 1_655
Li1 O6 2.169280 1_555
Li1 O3 2.225177 1_555
Li2 O8 2.008756 1_555
Li2 O15 2.021369 1_455
Li2 O10 2.036284 1_545
Li2 O13 2.127796 1_545
Li2 O9 2.186347 1_555
Li2 O3 2.211901 1_555
Li3 O2 1.969792 1_565
Li3 O5 1.977478 1_555
Li3 O14 2.016162 1_565
Li3 O11 2.056043 1_554
Li3 O4 2.150701 1_554
Li3 O0 2.156243 1_564
Li4 O1 1.964403 1_455
Li4 O5 1.980766 1_555
Li4 O14 2.008480 1_455
Li4 O11 2.040214 1_554
Li4 O0 2.128678 1_454
Li4 O7 2.172219 1_554
Li5 O1 1.984906 1_455
Li5 O2 1.989568 1_565
Li5 O4 2.099852 1_454
Li5 O7 2.118872 1_564
Li5 O14 2.156930 1_465
Li5 O11 2.288932 1_554
Co0 O9 1.832035 1_655
Co0 O6 1.852208 1_545
Co0 O1 1.898878 1_555
Co0 O14 1.910370 1_555
Co0 O2 1.923494 1_555
Co0 O3 1.927769 1_555
Co1 O10 1.886352 1_555
Co1 O8 1.899454 1_555
Co1 O11 1.903685 1_555
Co1 O15 1.905646 1_565
Co1 O0 1.911906 1_565
Co1 O4 1.930363 1_555
Co2 O0 1.831576 1_455
Co2 O8 1.876765 1_555
Co2 O7 1.881785 1_555
Co2 O15 1.905848 1_455
Co2 O11 1.909493 1_555
Co2 O12 1.915632 1_555
Ni0 O4 1.970493 1_554
Ni0 O2 1.973400 1_555
Ni0 O1 1.986544 1_555
Ni0 O7 1.993751 1_554
Ni0 O5 2.066275 1_555
Ni0 O0 2.119993 1_554
Ni1 O5 1.895923 1_555
Ni1 O13 1.903103 1_655
Ni1 O14 1.919730 1_565
Ni1 O3 1.921119 1_555
Ni1 O6 2.082884 1_555
Ni1 O1 2.084845 1_555
Ni2 O5 1.892081 1_555
Ni2 O13 1.896554 1_545
Ni2 O14 1.926047 1_455
Ni2 O3 1.929375 1_555
Ni2 O9 2.083487 1_555
Ni2 O2 2.097419 1_555
Ni3 O6 1.978148 1_555
Ni3 O13 1.996374 1_555
Ni3 O9 2.003630 1_555
Ni3 O12 2.007300 1_555
Ni3 O10 2.028090 1_555
Ni3 O8 2.088065 1_555
Ni4 O10 1.937169 1_555
Ni4 O4 1.943209 1_455
Ni4 O12 1.945668 1_555
Ni4 O7 1.957202 1_565
Ni4 O11 2.015362 1_555
Ni4 O15 2.021424 1_465
