# generated using pymatgen
data_NbCo3O8
_symmetry_space_group_name_H-M   'P 1'
_cell_length_a   5.68936079
_cell_length_b   5.68936079
_cell_length_c   9.22778414
_cell_angle_alpha   89.91450500
_cell_angle_beta   89.91450500
_cell_angle_gamma   120.03884500
_symmetry_Int_Tables_number   1
_chemical_formula_structural   NbCo3O8
_chemical_formula_sum   'Nb2 Co6 O16'
_cell_volume   258.57286338
_cell_formula_units_Z   2
loop_
 _symmetry_equiv_pos_site_id
 _symmetry_equiv_pos_as_xyz
  1  'x, y, z'
loop_
 _atom_site_type_symbol
 _atom_site_label
 _atom_site_symmetry_multiplicity
 _atom_site_fract_x
 _atom_site_fract_y
 _atom_site_fract_z
 _atom_site_occupancy
  Nb  Nb0  1  0.66583300  0.33222400  0.50092300  1
  Nb  Nb1  1  0.33222400  0.66583300  0.00092300  1
  Co  Co0  1  0.33775500  0.16892800  0.78430800  1
  Co  Co1  1  0.83111800  0.66233400  0.78436300  1
  Co  Co2  1  0.83140400  0.16891400  0.78432100  1
  Co  Co3  1  0.16891400  0.83140400  0.28432100  1
  Co  Co4  1  0.16892800  0.33775500  0.28430800  1
  Co  Co5  1  0.66233400  0.83111800  0.28436300  1
  O  O0  1  0.32572500  0.16305700  0.39864000  1
  O  O1  1  0.51884300  0.48286900  0.67108700  1
  O  O2  1  0.66599000  0.33248900  0.88758600  1
  O  O3  1  0.00058100  0.00066500  0.69249200  1
  O  O4  1  0.00066500  0.00058100  0.19249200  1
  O  O5  1  0.83654200  0.67359200  0.39851100  1
  O  O6  1  0.51867200  0.03625900  0.67079600  1
  O  O7  1  0.96394500  0.48246900  0.67094900  1
  O  O8  1  0.16314200  0.83644700  0.89816600  1
  O  O9  1  0.83644700  0.16314200  0.39816600  1
  O  O10  1  0.03625900  0.51867200  0.17079600  1
  O  O11  1  0.48246900  0.96394500  0.17094900  1
  O  O12  1  0.33248900  0.66599000  0.38758600  1
  O  O13  1  0.16305700  0.32572500  0.89864000  1
  O  O14  1  0.48286900  0.51884300  0.17108700  1
  O  O15  1  0.67359200  0.83654200  0.89851100  1
loop_
_geom_bond_atom_site_label_1
_geom_bond_atom_site_label_2
_geom_bond_distance
_geom_bond_site_symmetry_2
Nb0 O9 1.923947 1_555
Nb0 O0 1.924839 1_555
Nb0 O5 1.926569 1_555
Nb0 O6 2.137828 1_555
Nb0 O1 2.148784 1_555
Nb0 O7 2.151608 1_555
Nb1 O8 1.923947 1_554
Nb1 O13 1.924839 1_554
Nb1 O15 1.926569 1_554
Nb1 O10 2.137828 1_555
Nb1 O14 2.148784 1_555
Nb1 O11 2.151608 1_555
Co0 O3 1.866249 1_555
Co0 O1 1.868723 1_555
Co0 O6 1.871722 1_555
Co0 O2 1.878752 1_555
Co0 O8 1.943842 1_545
Co0 O13 1.945286 1_555
Co1 O1 1.866598 1_555
Co1 O3 1.867649 1_665
Co1 O7 1.867783 1_555
Co1 O2 1.881080 1_555
Co1 O15 1.945426 1_555
Co1 O8 1.946283 1_655
Co2 O3 1.866326 1_655
Co2 O7 1.868364 1_555
Co2 O6 1.869829 1_555
Co2 O2 1.880587 1_555
Co2 O15 1.945173 1_545
Co2 O13 1.947438 1_655
Co3 O4 1.866326 1_565
Co3 O11 1.868364 1_555
Co3 O10 1.869829 1_555
Co3 O12 1.880587 1_555
Co3 O5 1.945173 1_455
Co3 O0 1.947438 1_565
Co4 O4 1.866249 1_555
Co4 O14 1.868723 1_555
Co4 O10 1.871722 1_555
Co4 O12 1.878752 1_555
Co4 O9 1.943842 1_455
Co4 O0 1.945286 1_555
Co5 O14 1.866598 1_555
Co5 O4 1.867649 1_665
Co5 O11 1.867783 1_555
Co5 O12 1.881080 1_555
Co5 O5 1.945426 1_555
Co5 O9 1.946283 1_565
