# generated using pymatgen
data_Li2TiVO4
_symmetry_space_group_name_H-M   'P 1'
_cell_length_a   5.13816755
_cell_length_b   5.95946114
_cell_length_c   10.46079000
_cell_angle_alpha   106.54288182
_cell_angle_beta   80.32967507
_cell_angle_gamma   89.99631721
_symmetry_Int_Tables_number   1
_chemical_formula_structural   Li2TiVO4
_chemical_formula_sum   'Li8 Ti4 V4 O16'
_cell_volume   302.30579730
_cell_formula_units_Z   4
loop_
 _symmetry_equiv_pos_site_id
 _symmetry_equiv_pos_as_xyz
  1  'x, y, z'
loop_
 _atom_site_type_symbol
 _atom_site_label
 _atom_site_symmetry_multiplicity
 _atom_site_fract_x
 _atom_site_fract_y
 _atom_site_fract_z
 _atom_site_occupancy
  Li  Li0  1  0.99998700  0.50000200  0.50000400  1
  Li  Li1  1  0.50000700  0.74999900  0.99999700  1
  Li  Li2  1  0.99998700  0.00000200  0.50000400  1
  Li  Li3  1  0.50001200  0.24999800  0.99999600  1
  Li  Li4  1  0.50001400  0.25000800  0.49999600  1
  Li  Li5  1  0.99999000  0.50001200  0.00000600  1
  Li  Li6  1  0.50001300  0.75000600  0.49999600  1
  Li  Li7  1  0.99999100  0.00001200  0.00000600  1
  Ti  Ti0  1  0.24998500  0.62497200  0.25001100  1
  Ti  Ti1  1  0.75002600  0.87495900  0.74998300  1
  Ti  Ti2  1  0.24998400  0.12496700  0.25001100  1
  Ti  Ti3  1  0.75002500  0.37495300  0.74998300  1
  V  V0  1  0.74998100  0.37500800  0.24999300  1
  V  V1  1  0.25002100  0.62501200  0.75000000  1
  V  V2  1  0.74998000  0.87500800  0.24999300  1
  V  V3  1  0.25002200  0.12501200  0.75000100  1
  O  O0  1  0.89517100  0.68401900  0.36800900  1
  O  O1  1  0.39524700  0.93401900  0.86801400  1
  O  O2  1  0.89517000  0.18401100  0.36800900  1
  O  O3  1  0.39524700  0.43401400  0.86801400  1
  O  O4  1  0.60476300  0.06599900  0.13198900  1
  O  O5  1  0.10482500  0.31599600  0.63198600  1
  O  O6  1  0.60476300  0.56600400  0.13198900  1
  O  O7  1  0.10482500  0.81600500  0.63198700  1
  O  O8  1  0.36484300  0.43224900  0.36453300  1
  O  O9  1  0.86483800  0.68225100  0.86453600  1
  O  O10  1  0.36482500  0.93225100  0.36453700  1
  O  O11  1  0.86482200  0.18225100  0.86453700  1
  O  O12  1  0.13516600  0.31774900  0.13547200  1
  O  O13  1  0.63516100  0.56774900  0.63547200  1
  O  O14  1  0.13518300  0.81774800  0.13547000  1
  O  O15  1  0.63517900  0.06774600  0.63546700  1
loop_
_geom_bond_atom_site_label_1
_geom_bond_atom_site_label_2
_geom_bond_distance
_geom_bond_site_symmetry_2
Li0 O13 2.113462 1_555
Li0 O8 2.113596 1_655
Li0 O5 2.123851 1_655
Li0 O0 2.123970 1_555
Li0 O2 2.124155 1_555
Li0 O7 2.124189 1_655
Li1 O9 2.113447 1_555
Li1 O14 2.113478 1_556
Li1 O6 2.123740 1_556
Li1 O1 2.123773 1_555
Li1 O3 2.123968 1_555
Li1 O4 2.124065 1_566
Li2 O15 2.113366 1_555
Li2 O10 2.113505 1_645
Li2 O7 2.123822 1_645
Li2 O2 2.123939 1_555
Li2 O0 2.124120 1_545
Li2 O5 2.124147 1_655
Li3 O11 2.113354 1_555
Li3 O12 2.113580 1_556
Li3 O4 2.123756 1_556
Li3 O3 2.123757 1_555
Li3 O1 2.123948 1_545
Li3 O6 2.124086 1_556
Li4 O8 2.208366 1_555
Li4 O15 2.208507 1_555
Li4 O13 2.208804 1_555
Li4 O10 2.208879 1_545
Li4 O2 2.220875 1_555
Li4 O5 2.221025 1_555
Li5 O9 2.208378 1_554
Li5 O12 2.208492 1_655
Li5 O14 2.208827 1_655
Li5 O11 2.208897 1_554
Li5 O6 2.221153 1_555
Li5 O3 2.221317 1_654
Li6 O10 2.208384 1_555
Li6 O13 2.208494 1_555
Li6 O15 2.208817 1_565
Li6 O8 2.208857 1_555
Li6 O0 2.220883 1_555
Li6 O7 2.221026 1_555
Li7 O11 2.208406 1_554
Li7 O14 2.208513 1_645
Li7 O12 2.208801 1_655
Li7 O9 2.208869 1_544
Li7 O4 2.221157 1_555
Li7 O1 2.221313 1_644
O0 Ti0 1.991901 1_655
O0 V2 2.117922 1_555
O0 V0 2.118212 1_555
O1 Ti1 1.991899 1_555
O1 V3 2.117993 1_565
O1 V1 2.118270 1_555
O2 Ti2 1.991901 1_655
O2 V0 2.117951 1_555
O2 V2 2.118178 1_545
O3 Ti3 1.991895 1_555
O3 V1 2.118024 1_555
O3 V3 2.118243 1_555
O4 Ti2 1.991860 1_555
O4 V2 2.117891 1_545
O4 V0 2.118219 1_555
O5 Ti3 1.991839 1_455
O5 V3 2.117907 1_555
O5 V1 2.118238 1_555
O6 Ti0 1.991856 1_555
O6 V0 2.117914 1_555
O6 V2 2.118195 1_555
O7 Ti1 1.991830 1_455
O7 V1 2.117926 1_555
O7 V3 2.118203 1_565
O8 Ti0 2.030654 1_555
O8 Ti2 2.031076 1_555
O8 V0 2.106806 1_555
O9 Ti1 2.030756 1_555
O9 Ti3 2.031177 1_555
O9 V1 2.106986 1_655
O10 Ti2 2.030623 1_565
O10 Ti0 2.031040 1_555
O10 V2 2.106895 1_555
O11 Ti3 2.030708 1_555
O11 Ti1 2.031121 1_545
O11 V3 2.107060 1_655
O12 Ti0 2.030805 1_555
O12 Ti2 2.030975 1_555
O12 V0 2.106937 1_455
O13 Ti1 2.030729 1_555
O13 Ti3 2.030894 1_555
O13 V1 2.106769 1_555
O14 Ti2 2.030760 1_565
O14 Ti0 2.030933 1_555
O14 V2 2.107023 1_455
O15 Ti3 2.030698 1_555
O15 Ti1 2.030862 1_545
O15 V3 2.106866 1_555
