# generated using pymatgen
data_Li2MnBO4
_symmetry_space_group_name_H-M   'P 1'
_cell_length_a   5.16350900
_cell_length_b   6.66194100
_cell_length_c   10.50619572
_cell_angle_alpha   85.23138421
_cell_angle_beta   90.00000000
_cell_angle_gamma   90.00000000
_symmetry_Int_Tables_number   1
_chemical_formula_structural   Li2MnBO4
_chemical_formula_sum   'Li8 Mn4 B4 O16'
_cell_volume   360.15156727
_cell_formula_units_Z   4
loop_
 _symmetry_equiv_pos_site_id
 _symmetry_equiv_pos_as_xyz
  1  'x, y, z'
loop_
 _atom_site_type_symbol
 _atom_site_label
 _atom_site_symmetry_multiplicity
 _atom_site_fract_x
 _atom_site_fract_y
 _atom_site_fract_z
 _atom_site_occupancy
  Li  Li0  1  0.65377200  0.90318700  0.79242200  1
  Li  Li1  1  0.84622800  0.90318700  0.29242200  1
  Li  Li2  1  0.82698700  0.79133200  0.56874000  1
  Li  Li3  1  0.67301300  0.79133200  0.06874000  1
  Li  Li4  1  0.32698700  0.20866800  0.93126000  1
  Li  Li5  1  0.17301300  0.20866800  0.43126000  1
  Li  Li6  1  0.15377200  0.09681300  0.70757800  1
  Li  Li7  1  0.34622800  0.09681300  0.20757800  1
  Mn  Mn0  1  0.84711700  0.49270500  0.84652400  1
  Mn  Mn1  1  0.34711700  0.50729500  0.65347600  1
  Mn  Mn2  1  0.65288300  0.49270500  0.34652400  1
  Mn  Mn3  1  0.15288300  0.50729500  0.15347600  1
  B  B0  1  0.17599600  0.81128900  0.93787200  1
  B  B1  1  0.32400400  0.81128900  0.43787200  1
  B  B2  1  0.67599600  0.18871100  0.56212800  1
  B  B3  1  0.82400400  0.18871100  0.06212800  1
  O  O0  1  0.30537300  0.94594200  0.85766600  1
  O  O1  1  0.19462700  0.94594200  0.35766600  1
  O  O2  1  0.91496400  0.76009800  0.91978200  1
  O  O3  1  0.58503600  0.76009800  0.41978200  1
  O  O4  1  0.19343400  0.71822300  0.54437400  1
  O  O5  1  0.64779900  0.62363000  0.71042300  1
  O  O6  1  0.30656600  0.71822300  0.04437400  1
  O  O7  1  0.85220100  0.62363000  0.21042300  1
  O  O8  1  0.14779900  0.37637000  0.78957700  1
  O  O9  1  0.69343400  0.28177700  0.95562600  1
  O  O10  1  0.35220100  0.37637000  0.28957700  1
  O  O11  1  0.80656600  0.28177700  0.45562600  1
  O  O12  1  0.41496400  0.23990200  0.58021800  1
  O  O13  1  0.08503600  0.23990200  0.08021800  1
  O  O14  1  0.80537300  0.05405800  0.64233400  1
  O  O15  1  0.69462700  0.05405800  0.14233400  1
loop_
_geom_bond_atom_site_label_1
_geom_bond_atom_site_label_2
_geom_bond_distance
_geom_bond_site_symmetry_2
Li0 O0 1.954410 1_555
Li0 O14 1.961106 1_565
Li0 O2 2.075077 1_555
Li0 O5 2.116222 1_555
Li1 O1 1.954410 1_655
Li1 O15 1.961106 1_565
Li1 O3 2.075077 1_555
Li1 O7 2.116222 1_555
Li2 O14 1.974516 1_565
Li2 O4 1.975783 1_655
Li2 O5 2.010852 1_555
Li2 O3 2.026672 1_555
Li3 O15 1.974516 1_565
Li3 O6 1.975783 1_555
Li3 O7 2.010852 1_555
Li3 O2 2.026672 1_554
Li4 O0 1.974516 1_545
Li4 O9 1.975783 1_555
Li4 O8 2.010852 1_555
Li4 O13 2.026672 1_556
Li5 O1 1.974516 1_545
Li5 O11 1.975783 1_455
Li5 O10 2.010852 1_555
Li5 O12 2.026672 1_555
Li6 O14 1.954410 1_455
Li6 O0 1.961106 1_545
Li6 O12 2.075077 1_555
Li6 O8 2.116222 1_555
Li7 O15 1.954410 1_555
Li7 O1 1.961106 1_545
Li7 O13 2.075077 1_555
Li7 O10 2.116222 1_555
Mn0 O8 1.856392 1_655
Mn0 O9 1.910589 1_555
Mn0 O5 1.912389 1_555
Mn0 O2 2.028866 1_555
Mn1 O5 1.856392 1_555
Mn1 O4 1.910589 1_555
Mn1 O8 1.912389 1_555
Mn1 O12 2.028866 1_555
Mn2 O10 1.856392 1_555
Mn2 O11 1.910589 1_555
Mn2 O7 1.912389 1_555
Mn2 O3 2.028866 1_555
Mn3 O7 1.856392 1_455
Mn3 O6 1.910589 1_555
Mn3 O10 1.912389 1_555
Mn3 O13 2.028866 1_555
B0 O0 1.354759 1_555
B0 O6 1.405563 1_556
B0 O2 1.407081 1_455
B1 O1 1.354759 1_555
B1 O4 1.405563 1_555
B1 O3 1.407081 1_555
B2 O14 1.354759 1_555
B2 O11 1.405563 1_555
B2 O12 1.407081 1_555
B3 O15 1.354759 1_555
B3 O9 1.405563 1_554
B3 O13 1.407081 1_655
