# generated using pymatgen
data_K2In2P2HO10
_symmetry_space_group_name_H-M   'P 1'
_cell_length_a   9.44768000
_cell_length_b   9.53041300
_cell_length_c   11.31399700
_cell_angle_alpha   90.00000000
_cell_angle_beta   90.00000000
_cell_angle_gamma   90.00000000
_symmetry_Int_Tables_number   1
_chemical_formula_structural   K2In2P2HO10
_chemical_formula_sum   'K8 In8 P8 H4 O40'
_cell_volume   1018.71559687
_cell_formula_units_Z   4
loop_
 _symmetry_equiv_pos_site_id
 _symmetry_equiv_pos_as_xyz
  1  'x, y, z'
loop_
 _atom_site_type_symbol
 _atom_site_label
 _atom_site_symmetry_multiplicity
 _atom_site_fract_x
 _atom_site_fract_y
 _atom_site_fract_z
 _atom_site_occupancy
  K  K0  1  0.98461700  0.97393500  0.40550900  1
  K  K1  1  0.51538300  0.02606500  0.90550900  1
  K  K2  1  0.48461700  0.52606500  0.59449100  1
  K  K3  1  0.01538300  0.47393500  0.09449100  1
  K  K4  1  0.25990400  0.63096400  0.33514300  1
  K  K5  1  0.24009600  0.36903600  0.83514300  1
  K  K6  1  0.75990400  0.86903600  0.66485700  1
  K  K7  1  0.74009600  0.13096400  0.16485700  1
  In  In0  1  0.85428300  0.60723700  0.37972500  1
  In  In1  1  0.64571700  0.39276300  0.87972500  1
  In  In2  1  0.35428300  0.89276300  0.62027500  1
  In  In3  1  0.14571700  0.10723700  0.12027500  1
  In  In4  1  0.60152200  0.65500700  0.12085100  1
  In  In5  1  0.89847800  0.34499300  0.62085100  1
  In  In6  1  0.10152200  0.84499300  0.87914900  1
  In  In7  1  0.39847800  0.15500700  0.37914900  1
  P  P0  1  0.06789000  0.65979200  0.62339900  1
  P  P1  1  0.43211000  0.34020800  0.12339900  1
  P  P2  1  0.56789000  0.84020800  0.37660100  1
  P  P3  1  0.93211000  0.15979200  0.87660100  1
  P  P4  1  0.92072200  0.81253300  0.13310000  1
  P  P5  1  0.57927800  0.18746700  0.63310000  1
  P  P6  1  0.42072200  0.68746700  0.86690000  1
  P  P7  1  0.07927800  0.31253300  0.36690000  1
  H  H0  1  0.66742300  0.43365700  0.26295400  1
  H  H1  1  0.83257700  0.56634300  0.76295400  1
  H  H2  1  0.16742300  0.06634300  0.73704600  1
  H  H3  1  0.33257700  0.93365700  0.23704600  1
  O  O0  1  0.97174000  0.71064600  0.51953500  1
  O  O1  1  0.52826000  0.28935400  0.01953500  1
  O  O2  1  0.47174000  0.78935400  0.48046500  1
  O  O3  1  0.02826000  0.21064600  0.98046500  1
  O  O4  1  0.50224600  0.77174800  0.26336600  1
  O  O5  1  0.99775400  0.22825200  0.76336600  1
  O  O6  1  0.00224600  0.72825200  0.73663400  1
  O  O7  1  0.49775400  0.27174800  0.23663400  1
  O  O8  1  0.42927800  0.50203500  0.13622600  1
  O  O9  1  0.07072200  0.49796500  0.63622600  1
  O  O10  1  0.92927800  0.99796500  0.86377400  1
  O  O11  1  0.57072200  0.00203500  0.36377400  1
  O  O12  1  0.75761700  0.82097000  0.12008900  1
  O  O13  1  0.74238300  0.17903000  0.62008900  1
  O  O14  1  0.25761700  0.67903000  0.87991100  1
  O  O15  1  0.24238300  0.32097000  0.37991100  1
  O  O16  1  0.72584100  0.51412700  0.24089800  1
  O  O17  1  0.77415900  0.48587300  0.74089800  1
  O  O18  1  0.22584100  0.98587300  0.75910200  1
  O  O19  1  0.27415900  0.01412700  0.25910200  1
  O  O20  1  0.75953300  0.47206700  0.50867700  1
  O  O21  1  0.74046700  0.52793300  0.00867700  1
  O  O22  1  0.25953300  0.02793300  0.49132300  1
  O  O23  1  0.24046700  0.97206700  0.99132300  1
  O  O24  1  0.49157200  0.75393200  0.97736400  1
  O  O25  1  0.00842800  0.24606800  0.47736400  1
  O  O26  1  0.99157200  0.74606800  0.02263600  1
  O  O27  1  0.50842800  0.25393200  0.52263600  1
  O  O28  1  0.96650100  0.72072900  0.24099100  1
  O  O29  1  0.53349900  0.27927100  0.74099100  1
  O  O30  1  0.46650100  0.77927100  0.75900900  1
  O  O31  1  0.03349900  0.22072900  0.25900900  1
  O  O32  1  0.02953200  0.46499400  0.34424400  1
  O  O33  1  0.47046800  0.53500600  0.84424400  1
  O  O34  1  0.52953200  0.03500600  0.65575600  1
  O  O35  1  0.97046800  0.96499400  0.15575600  1
  O  O36  1  0.72133800  0.79243100  0.40305100  1
  O  O37  1  0.77866200  0.20756900  0.90305100  1
  O  O38  1  0.22133800  0.70756900  0.59694900  1
  O  O39  1  0.27866200  0.29243100  0.09694900  1
loop_
_geom_bond_atom_site_label_1
_geom_bond_atom_site_label_2
_geom_bond_distance
_geom_bond_site_symmetry_2
K0 O25 2.727264 1_665
K0 O22 2.820203 1_665
K0 O0 2.824090 1_555
K0 O35 2.830148 1_555
K0 O31 2.914227 1_665
K0 O36 3.029859 1_555
K0 O28 3.052420 1_555
K0 O19 3.220793 1_665
K1 O24 2.727264 1_545
K1 O23 2.820203 1_545
K1 O1 2.824090 1_556
K1 O34 2.830148 1_555
K1 O30 2.914227 1_545
K1 O37 3.029859 1_555
K1 O29 3.052420 1_555
K1 O18 3.220793 1_545
K2 O27 2.727264 1_555
K2 O20 2.820203 1_555
K2 O2 2.824090 1_555
K2 O33 2.830148 1_555
K2 O29 2.914227 1_555
K2 O38 3.029859 1_555
K2 O30 3.052420 1_555
K2 O17 3.220793 1_555
K3 O26 2.727264 1_455
K3 O21 2.820203 1_455
K3 O3 2.824090 1_554
K3 O32 2.830148 1_555
K3 O28 2.914227 1_455
K3 O39 3.029859 1_555
K3 O31 3.052420 1_555
K3 O16 3.220793 1_455
K4 O32 2.692516 1_555
K4 O4 2.775221 1_555
K4 O2 2.997899 1_555
K4 O15 3.002042 1_555
K4 O8 3.022481 1_555
K4 O38 3.072400 1_555
K4 O28 3.090382 1_455
K5 O33 2.692516 1_555
K5 O5 2.775221 1_455
K5 O3 2.997899 1_555
K5 O14 3.002042 1_555
K5 O9 3.022481 1_555
K5 O39 3.072400 1_556
K5 O29 3.090382 1_555
K6 O34 2.692516 1_565
K6 O6 2.775221 1_655
K6 O0 2.997899 1_555
K6 O13 3.002042 1_565
K6 O10 3.022481 1_555
K6 O36 3.072400 1_555
K6 O30 3.090382 1_555
K7 O35 2.692516 1_545
K7 O7 2.775221 1_555
K7 O1 2.997899 1_555
K7 O12 3.002042 1_545
K7 O11 3.022481 1_555
K7 O37 3.072400 1_554
K7 O31 3.090382 1_655
In0 O20 2.142294 1_555
In0 O0 2.169059 1_555
In0 O16 2.174173 1_555
In0 O32 2.177205 1_655
In0 O28 2.181214 1_555
In0 O36 2.182287 1_555
In1 O21 2.142294 1_556
In1 O1 2.169059 1_556
In1 O17 2.174173 1_555
In1 O33 2.177205 1_555
In1 O29 2.181214 1_555
In1 O37 2.182287 1_555
In2 O22 2.142294 1_565
In2 O2 2.169059 1_555
In2 O18 2.174173 1_555
In2 O34 2.177205 1_565
In2 O30 2.181214 1_555
In2 O38 2.182287 1_555
In3 O23 2.142294 1_544
In3 O3 2.169059 1_554
In3 O19 2.174173 1_555
In3 O35 2.177205 1_445
In3 O31 2.181214 1_555
In3 O39 2.182287 1_555
In4 O24 2.145548 1_554
In4 O12 2.162564 1_555
In4 O4 2.171968 1_555
In4 O21 2.191026 1_555
In4 O8 2.191761 1_555
In4 O16 2.242085 1_555
In5 O25 2.145548 1_655
In5 O13 2.162564 1_555
In5 O5 2.171968 1_555
In5 O20 2.191026 1_555
In5 O9 2.191761 1_655
In5 O17 2.242085 1_555
In6 O26 2.145548 1_456
In6 O14 2.162564 1_555
In6 O6 2.171968 1_555
In6 O23 2.191026 1_555
In6 O10 2.191761 1_455
In6 O18 2.242085 1_555
In7 O27 2.145548 1_555
In7 O15 2.162564 1_555
In7 O7 2.171968 1_555
In7 O22 2.191026 1_555
In7 O11 2.191761 1_555
In7 O19 2.242085 1_555
H0 O16 0.977259 1_555
H1 O17 0.977259 1_555
H2 O18 0.977259 1_545
H3 O19 0.977259 1_565
O0 P0 1.562362 1_655
O1 P1 1.562362 1_555
O2 P2 1.562362 1_555
O3 P3 1.562362 1_455
O4 P2 1.565772 1_555
O5 P3 1.565772 1_555
O6 P0 1.565772 1_555
O7 P1 1.565772 1_555
O8 P1 1.549322 1_555
O9 P0 1.549322 1_555
O10 P3 1.549322 1_565
O11 P2 1.549322 1_545
O12 P4 1.550066 1_555
O13 P5 1.550066 1_555
O14 P6 1.550066 1_555
O15 P7 1.550066 1_555
O24 P6 1.552827 1_555
O25 P7 1.552827 1_555
O26 P4 1.552827 1_555
O27 P5 1.552827 1_555
O28 P4 1.562888 1_555
O29 P5 1.562888 1_555
O30 P6 1.562888 1_555
O31 P7 1.562888 1_555
O32 P7 1.548498 1_555
O33 P6 1.548498 1_555
O34 P5 1.548498 1_555
O35 P4 1.548498 1_555
O36 P2 1.548739 1_555
O37 P3 1.548739 1_555
O38 P0 1.548739 1_555
O39 P1 1.548739 1_555
