# generated using pymatgen
data_Na4Fe2As(CO4)4
_symmetry_space_group_name_H-M   'P 1'
_cell_length_a   10.04868727
_cell_length_b   10.01363345
_cell_length_c   9.84077449
_cell_angle_alpha   60.80388395
_cell_angle_beta   60.44817463
_cell_angle_gamma   58.74794142
_symmetry_Int_Tables_number   1
_chemical_formula_structural   Na4Fe2As(CO4)4
_chemical_formula_sum   'Na8 Fe4 As2 C8 O32'
_cell_volume   699.67968497
_cell_formula_units_Z   2
loop_
 _symmetry_equiv_pos_site_id
 _symmetry_equiv_pos_as_xyz
  1  'x, y, z'
loop_
 _atom_site_type_symbol
 _atom_site_label
 _atom_site_symmetry_multiplicity
 _atom_site_fract_x
 _atom_site_fract_y
 _atom_site_fract_z
 _atom_site_occupancy
  Na  Na0  1  0.96397900  0.53602100  0.96397900  1
  Na  Na1  1  0.53604000  0.96396000  0.96396000  1
  Na  Na2  1  0.28604000  0.71396000  0.71396000  1
  Na  Na3  1  0.71397900  0.28602100  0.71397900  1
  Na  Na4  1  0.53602100  0.96397900  0.53602100  1
  Na  Na5  1  0.96396000  0.53604000  0.53604000  1
  Na  Na6  1  0.71396000  0.28604000  0.28604000  1
  Na  Na7  1  0.28602100  0.71397900  0.28602100  1
  Fe  Fe0  1  0.12500000  0.12500000  0.12500000  1
  Fe  Fe1  1  0.12500000  0.12500000  0.62500000  1
  Fe  Fe2  1  0.12500000  0.62500000  0.12500000  1
  Fe  Fe3  1  0.62500000  0.12500000  0.12500000  1
  As  As0  1  0.50000000  0.50000000  0.50000000  1
  As  As1  1  0.75000000  0.75000000  0.75000000  1
  C  C0  1  0.91740300  0.91338200  0.90495500  1
  C  C1  1  0.33661800  0.33259700  0.98574100  1
  C  C2  1  0.90495500  0.26425900  0.91740300  1
  C  C3  1  0.26425900  0.90495500  0.91338200  1
  C  C4  1  0.98574100  0.34504500  0.33661800  1
  C  C5  1  0.34504500  0.98574100  0.33259700  1
  C  C6  1  0.91338200  0.91740300  0.26425900  1
  C  C7  1  0.33259700  0.33661800  0.34504500  1
  O  O0  1  0.94758200  0.76896900  0.01407300  1
  O  O1  1  0.28837200  0.58397200  0.56351100  1
  O  O2  1  0.03061300  0.94366900  0.76624200  1
  O  O3  1  0.30633100  0.21938700  0.99052300  1
  O  O4  1  0.76624200  0.25947700  0.03061300  1
  O  O5  1  0.22339900  0.47931600  0.98077800  1
  O  O6  1  0.56351100  0.56414500  0.28837200  1
  O  O7  1  0.58397200  0.28837200  0.56414500  1
  O  O8  1  0.31650700  0.98077800  0.47931600  1
  O  O9  1  0.25947700  0.76624200  0.94366900  1
  O  O10  1  0.48103100  0.30241800  0.98062400  1
  O  O11  1  0.56414500  0.56351100  0.58397200  1
  O  O12  1  0.01407300  0.26937600  0.94758200  1
  O  O13  1  0.26937600  0.01407300  0.76896900  1
  O  O14  1  0.77068400  0.02660100  0.93349300  1
  O  O15  1  0.98077800  0.31650700  0.22339900  1
  O  O16  1  0.26922200  0.93349300  0.02660100  1
  O  O17  1  0.47931600  0.22339900  0.31650700  1
  O  O18  1  0.98062400  0.23592700  0.48103100  1
  O  O19  1  0.23592700  0.98062400  0.30241800  1
  O  O20  1  0.68585500  0.68648900  0.66602800  1
  O  O21  1  0.76896900  0.94758200  0.26937600  1
  O  O22  1  0.99052300  0.48375800  0.30633100  1
  O  O23  1  0.93349300  0.26922200  0.77068400  1
  O  O24  1  0.66602800  0.96162800  0.68585500  1
  O  O25  1  0.68648900  0.68585500  0.96162800  1
  O  O26  1  0.02660100  0.77068400  0.26922200  1
  O  O27  1  0.48375800  0.99052300  0.21938700  1
  O  O28  1  0.94366900  0.03061300  0.25947700  1
  O  O29  1  0.21938700  0.30633100  0.48375800  1
  O  O30  1  0.96162800  0.66602800  0.68648900  1
  O  O31  1  0.30241800  0.48103100  0.23592700  1
loop_
_geom_bond_atom_site_label_1
_geom_bond_atom_site_label_2
_geom_bond_distance
_geom_bond_site_symmetry_2
Na0 O30 2.390745 1_555
Na0 O25 2.390745 1_555
Na0 O5 2.437816 1_655
Na0 O15 2.437816 1_556
Na0 O12 2.520789 1_655
Na0 O0 2.520789 1_556
Na1 O24 2.387693 1_555
Na1 O25 2.387693 1_555
Na1 O27 2.422726 1_556
Na1 O3 2.422730 1_565
Na1 O16 2.587796 1_556
Na1 O14 2.587796 1_565
Na2 O11 2.387693 1_555
Na2 O1 2.387693 1_555
Na2 O2 2.422731 1_555
Na2 O9 2.422736 1_555
Na2 O5 2.587796 1_555
Na2 O8 2.587796 1_555
Na3 O11 2.390745 1_555
Na3 O7 2.390745 1_555
Na3 O23 2.437816 1_555
Na3 O14 2.437816 1_555
Na3 O18 2.520789 1_555
Na3 O10 2.520789 1_555
Na4 O24 2.390745 1_555
Na4 O20 2.390745 1_555
Na4 O17 2.437816 1_565
Na4 O8 2.437816 1_555
Na4 O13 2.520789 1_565
Na4 O21 2.520789 1_555
Na5 O20 2.387693 1_555
Na5 O30 2.387693 1_555
Na5 O29 2.422731 1_655
Na5 O22 2.422736 1_555
Na5 O23 2.587796 1_555
Na5 O26 2.587796 1_655
Na6 O7 2.387693 1_555
Na6 O6 2.387693 1_555
Na6 O4 2.422726 1_555
Na6 O28 2.422730 1_555
Na6 O15 2.587796 1_555
Na6 O17 2.587796 1_555
Na7 O1 2.390745 1_555
Na7 O6 2.390745 1_555
Na7 O16 2.437816 1_555
Na7 O26 2.437816 1_555
Na7 O19 2.520789 1_555
Na7 O31 2.520789 1_555
Fe0 O28 2.037867 1_455
Fe0 O3 2.037867 1_554
Fe0 O12 2.041062 1_554
Fe0 O19 2.041062 1_545
Fe0 O16 2.063758 1_545
Fe0 O15 2.063758 1_455
Fe1 O2 2.037867 1_545
Fe1 O29 2.037867 1_555
Fe1 O18 2.041062 1_455
Fe1 O13 2.041062 1_555
Fe1 O8 2.063758 1_545
Fe1 O23 2.063758 1_455
Fe2 O22 2.037873 1_455
Fe2 O9 2.037873 1_554
Fe2 O0 2.041062 1_455
Fe2 O31 2.041062 1_555
Fe2 O5 2.063758 1_554
Fe2 O26 2.063758 1_555
Fe3 O27 2.037875 1_545
Fe3 O4 2.037875 1_555
Fe3 O21 2.041062 1_545
Fe3 O10 2.041062 1_554
Fe3 O14 2.063758 1_554
Fe3 O17 2.063758 1_555
As0 O7 1.722286 1_555
As0 O6 1.722286 1_555
As0 O1 1.722286 1_555
As0 O11 1.722286 1_555
As1 O20 1.722286 1_555
As1 O30 1.722286 1_555
As1 O24 1.722286 1_555
As1 O25 1.722286 1_555
C0 O2 1.292974 1_655
C0 O0 1.299026 1_556
C0 O14 1.306031 1_565
C1 O3 1.292984 1_555
C1 O10 1.299022 1_555
C1 O5 1.306030 1_555
C2 O4 1.292971 1_556
C2 O12 1.299032 1_655
C2 O23 1.306027 1_555
C3 O9 1.292964 1_555
C3 O13 1.299026 1_565
C3 O16 1.306037 1_556
C4 O22 1.292964 1_555
C4 O18 1.299026 1_555
C4 O15 1.306037 1_555
C5 O27 1.292971 1_555
C5 O19 1.299032 1_555
C5 O8 1.306027 1_555
C6 O28 1.292984 1_565
C6 O21 1.299022 1_555
C6 O26 1.306030 1_655
C7 O29 1.292974 1_555
C7 O31 1.299026 1_555
C7 O17 1.306031 1_555
