# generated using pymatgen
data_LiMn3(BO3)3
_symmetry_space_group_name_H-M   'P 1'
_cell_length_a   5.78681700
_cell_length_b   8.18038391
_cell_length_c   9.15868933
_cell_angle_alpha   110.46847544
_cell_angle_beta   105.14312713
_cell_angle_gamma   100.73047227
_symmetry_Int_Tables_number   1
_chemical_formula_structural   LiMn3(BO3)3
_chemical_formula_sum   'Li2 Mn6 B6 O18'
_cell_volume   373.15946065
_cell_formula_units_Z   2
loop_
 _symmetry_equiv_pos_site_id
 _symmetry_equiv_pos_as_xyz
  1  'x, y, z'
loop_
 _atom_site_type_symbol
 _atom_site_label
 _atom_site_symmetry_multiplicity
 _atom_site_fract_x
 _atom_site_fract_y
 _atom_site_fract_z
 _atom_site_occupancy
  Li  Li0  1  0.15078600  0.83539300  0.21865300  1
  Li  Li1  1  0.50514300  0.17388200  0.89297000  1
  Mn  Mn0  1  0.57885800  0.82680300  0.80035000  1
  Mn  Mn1  1  0.76291900  0.50692800  0.84790700  1
  Mn  Mn2  1  0.07860400  0.82164300  0.54614400  1
  Mn  Mn3  1  0.90344700  0.14975400  0.47913900  1
  Mn  Mn4  1  0.22879700  0.47921900  0.11878400  1
  Mn  Mn5  1  0.45456300  0.18463400  0.21165600  1
  B  B0  1  0.43398700  0.17538700  0.55309800  1
  B  B1  1  0.90823400  0.15546500  0.12836500  1
  B  B2  1  0.77253100  0.52029500  0.20368300  1
  B  B3  1  0.22256000  0.47497400  0.77127400  1
  B  B4  1  0.11942000  0.86420400  0.89509100  1
  B  B5  1  0.54035100  0.81212500  0.44941300  1
  O  O0  1  0.79300400  0.08949800  0.96126100  1
  O  O1  1  0.41281600  0.79131200  0.55522500  1
  O  O2  1  0.16017000  0.26925400  0.20825700  1
  O  O3  1  0.52882600  0.25418100  0.72358400  1
  O  O4  1  0.18907100  0.05094100  0.46287400  1
  O  O5  1  0.89626000  0.57561800  0.11091500  1
  O  O6  1  0.24056300  0.92497500  0.80113100  1
  O  O7  1  0.46903500  0.59535100  0.85323000  1
  O  O8  1  0.86282800  0.59483500  0.37334200  1
  O  O9  1  0.12674600  0.39350000  0.60253400  1
  O  O10  1  0.54750700  0.37168400  0.11842300  1
  O  O11  1  0.77564500  0.12919300  0.23049800  1
  O  O12  1  0.08322400  0.44993800  0.86948900  1
  O  O13  1  0.79478500  0.92770500  0.53190100  1
  O  O14  1  0.43087600  0.74412900  0.28351700  1
  O  O15  1  0.89180800  0.72377500  0.80793000  1
  O  O16  1  0.57945200  0.20305400  0.45973900  1
  O  O17  1  0.22246300  0.93266200  0.06478500  1
loop_
_geom_bond_atom_site_label_1
_geom_bond_atom_site_label_2
_geom_bond_distance
_geom_bond_site_symmetry_2
Li0 O17 1.938512 1_555
Li0 O14 1.948102 1_555
Li0 O5 2.065807 1_455
Li0 O4 2.235730 1_565
Li1 O3 1.909773 1_555
Li1 O0 1.956628 1_555
Li1 O6 2.041096 1_545
Li1 O10 2.047690 1_556
Mn0 O0 2.040781 1_565
Mn0 O1 2.088277 1_555
Mn0 O15 2.130355 1_555
Mn0 O7 2.139472 1_555
Mn0 O6 2.250807 1_555
Mn1 O12 1.971512 1_655
Mn1 O7 1.973459 1_555
Mn1 O3 1.977643 1_555
Mn1 O15 1.985267 1_555
Mn1 O5 2.152745 1_556
Mn2 O8 1.886126 1_455
Mn2 O1 1.979397 1_555
Mn2 O13 1.991271 1_455
Mn2 O6 2.056110 1_555
Mn2 O4 2.305945 1_565
Mn3 O9 1.903762 1_655
Mn3 O16 1.980271 1_555
Mn3 O4 1.987323 1_655
Mn3 O13 2.067778 1_545
Mn3 O11 2.137029 1_555
Mn4 O14 2.046421 1_555
Mn4 O12 2.125456 1_554
Mn4 O2 2.163273 1_555
Mn4 O10 2.186469 1_555
Mn4 O5 2.205102 1_455
Mn5 O2 1.951638 1_555
Mn5 O11 1.972004 1_555
Mn5 O17 1.986970 1_545
Mn5 O10 2.051104 1_555
Mn5 O16 2.137662 1_555
B0 O3 1.367986 1_555
B0 O16 1.389737 1_555
B0 O4 1.410810 1_555
B1 O0 1.354009 1_554
B1 O11 1.401442 1_555
B1 O2 1.410074 1_655
B2 O8 1.361545 1_555
B2 O5 1.380374 1_555
B2 O10 1.413738 1_555
B3 O9 1.354376 1_555
B3 O12 1.395533 1_555
B3 O7 1.402906 1_555
B4 O17 1.366523 1_556
B4 O15 1.391992 1_455
B4 O6 1.401337 1_555
B5 O14 1.339436 1_555
B5 O1 1.398248 1_555
B5 O13 1.425987 1_555
