# generated using pymatgen
data_Li2AlVO4
_symmetry_space_group_name_H-M   'P 1'
_cell_length_a   4.99265600
_cell_length_b   6.44350600
_cell_length_c   11.07945900
_cell_angle_alpha   90.00000000
_cell_angle_beta   90.00000000
_cell_angle_gamma   90.00000000
_symmetry_Int_Tables_number   1
_chemical_formula_structural   Li2AlVO4
_chemical_formula_sum   'Li8 Al4 V4 O16'
_cell_volume   356.42851044
_cell_formula_units_Z   4
loop_
 _symmetry_equiv_pos_site_id
 _symmetry_equiv_pos_as_xyz
  1  'x, y, z'
loop_
 _atom_site_type_symbol
 _atom_site_label
 _atom_site_symmetry_multiplicity
 _atom_site_fract_x
 _atom_site_fract_y
 _atom_site_fract_z
 _atom_site_occupancy
  Li  Li0  1  0.75320900  0.00341000  0.16900500  1
  Li  Li1  1  0.75450800  0.24858300  0.91208200  1
  Li  Li2  1  0.75450800  0.25141700  0.41208200  1
  Li  Li3  1  0.75320900  0.49659000  0.66900500  1
  Li  Li4  1  0.25320900  0.50341000  0.33099500  1
  Li  Li5  1  0.25450800  0.74858300  0.58791800  1
  Li  Li6  1  0.25450800  0.75141700  0.08791800  1
  Li  Li7  1  0.25320900  0.99659000  0.83099500  1
  Al  Al0  1  0.26070900  0.00523900  0.33201100  1
  Al  Al1  1  0.26070900  0.49476100  0.83201100  1
  Al  Al2  1  0.76070900  0.50523900  0.16798900  1
  Al  Al3  1  0.76070900  0.99476100  0.66798900  1
  V  V0  1  0.25369400  0.24555000  0.58260800  1
  V  V1  1  0.25369400  0.25445000  0.08260800  1
  V  V2  1  0.75369400  0.74555000  0.91739200  1
  V  V3  1  0.75369400  0.75445000  0.41739200  1
  O  O0  1  0.11885500  0.00403600  0.66453600  1
  O  O1  1  0.15703800  0.01261500  0.17765100  1
  O  O2  1  0.15883200  0.26631200  0.91292500  1
  O  O3  1  0.64627900  0.22453100  0.59258200  1
  O  O4  1  0.64627900  0.27546900  0.09258200  1
  O  O5  1  0.15883200  0.23368800  0.41292500  1
  O  O6  1  0.15703800  0.48738500  0.67765100  1
  O  O7  1  0.11885500  0.49596400  0.16453600  1
  O  O8  1  0.61885500  0.50403600  0.83546400  1
  O  O9  1  0.65703800  0.51261500  0.32234900  1
  O  O10  1  0.65883200  0.76631200  0.58707500  1
  O  O11  1  0.14627900  0.72453100  0.90741800  1
  O  O12  1  0.14627900  0.77546900  0.40741800  1
  O  O13  1  0.65883200  0.73368800  0.08707500  1
  O  O14  1  0.65703800  0.98738500  0.82234900  1
  O  O15  1  0.61885500  0.99596400  0.33546400  1
loop_
_geom_bond_atom_site_label_1
_geom_bond_atom_site_label_2
_geom_bond_distance
_geom_bond_site_symmetry_2
Li0 O15 1.963060 1_545
Li0 O13 2.016557 1_545
Li0 O4 2.018666 1_555
Li0 O1 2.019325 1_655
Li1 O8 1.971968 1_555
Li1 O14 2.014405 1_545
Li1 O2 2.021902 1_655
Li1 O4 2.078788 1_556
Li2 O15 1.971968 1_545
Li2 O9 2.014405 1_555
Li2 O5 2.021902 1_655
Li2 O3 2.078788 1_555
Li3 O8 1.963060 1_555
Li3 O10 2.016557 1_555
Li3 O3 2.018666 1_555
Li3 O6 2.019325 1_655
Li4 O7 1.963060 1_555
Li4 O5 2.016557 1_555
Li4 O12 2.018666 1_555
Li4 O9 2.019325 1_555
Li5 O0 1.971968 1_565
Li5 O6 2.014405 1_555
Li5 O10 2.021902 1_555
Li5 O12 2.078788 1_555
Li6 O7 1.971968 1_555
Li6 O1 2.014405 1_565
Li6 O13 2.021902 1_555
Li6 O11 2.078788 1_554
Li7 O0 1.963060 1_565
Li7 O2 2.016557 1_565
Li7 O11 2.018666 1_555
Li7 O14 2.019325 1_555
Al0 O1 1.787465 1_555
Al0 O15 1.789507 1_545
Al0 O12 1.793420 1_545
Al0 O5 1.797002 1_555
Al1 O6 1.787465 1_555
Al1 O8 1.789507 1_555
Al1 O11 1.793420 1_555
Al1 O2 1.797002 1_555
Al2 O9 1.787465 1_555
Al2 O7 1.789507 1_655
Al2 O4 1.793420 1_555
Al2 O13 1.797002 1_555
Al3 O14 1.787465 1_555
Al3 O0 1.789507 1_665
Al3 O3 1.793420 1_565
Al3 O10 1.797002 1_555
O0 V0 1.923254 1_555
O1 V1 1.941630 1_555
O2 V1 1.940241 1_556
O3 V0 1.967821 1_555
O4 V1 1.967821 1_555
O5 V0 1.940241 1_555
O6 V0 1.941630 1_555
O7 V1 1.923254 1_555
O8 V2 1.923254 1_555
O9 V3 1.941630 1_555
O10 V3 1.940241 1_555
O11 V2 1.967821 1_455
O12 V3 1.967821 1_455
O13 V2 1.940241 1_554
O14 V2 1.941630 1_555
O15 V3 1.923254 1_555
