# generated using pymatgen
data_Li8TiO6
_symmetry_space_group_name_H-M   'P 1'
_cell_length_a   5.51465004
_cell_length_b   5.51462606
_cell_length_c   10.67435296
_cell_angle_alpha   90.00033623
_cell_angle_beta   90.00086429
_cell_angle_gamma   119.99577926
_symmetry_Int_Tables_number   1
_chemical_formula_structural   Li8TiO6
_chemical_formula_sum   'Li16 Ti2 O12'
_cell_volume   281.14132428
_cell_formula_units_Z   2
loop_
 _symmetry_equiv_pos_site_id
 _symmetry_equiv_pos_as_xyz
  1  'x, y, z'
loop_
 _atom_site_type_symbol
 _atom_site_label
 _atom_site_symmetry_multiplicity
 _atom_site_fract_x
 _atom_site_fract_y
 _atom_site_fract_z
 _atom_site_occupancy
  Li  Li0  1  0.99989187  0.68616608  0.76782283  1
  Li  Li1  1  0.00003555  0.59911405  0.12827431  1
  Li  Li2  1  0.99987742  0.40076664  0.62828284  1
  Li  Li3  1  -0.00006351  0.31358239  0.26774579  1
  Li  Li4  1  0.33340447  0.66672118  0.40553483  1
  Li  Li5  1  0.33332438  0.66662469  0.90568542  1
  Li  Li6  1  0.31351208  0.31352507  0.76781404  1
  Li  Li7  1  0.40092896  0.40092392  0.12832874  1
  Li  Li8  1  0.59901309  0.59901160  0.62833389  1
  Li  Li9  1  0.31358622  -0.00005593  0.26774192  1
  Li  Li10  1  0.68643421  0.68642906  0.26771421  1
  Li  Li11  1  0.40077407  0.99985957  0.62828485  1
  Li  Li12  1  0.66662927  0.33332051  0.90568511  1
  Li  Li13  1  0.66671067  0.33338824  0.40553731  1
  Li  Li14  1  0.59910689  0.00002701  0.12827353  1
  Li  Li15  1  0.68617781  0.99990222  0.76783137  1
  Ti  Ti0  1  -0.00011401  -0.00010632  0.99669243  1
  Ti  Ti1  1  1.00000048  1.00003139  0.49657583  1
  O  O0  1  0.00000558  0.68440342  0.94929056  1
  O  O1  1  1.00012253  0.31576387  0.44924426  1
  O  O2  1  0.33356555  0.66682885  0.21585911  1
  O  O3  1  1.00007631  1.00008038  0.17003012  1
  O  O4  1  -0.00003620  -0.00002362  0.66989338  1
  O  O5  1  0.33346121  0.66674772  0.71585205  1
  O  O6  1  0.31542744  0.31543398  0.94937445  1
  O  O7  1  0.31572712  1.00013774  0.44925975  1
  O  O8  1  0.68439595  0.68439377  0.44932357  1
  O  O9  1  0.66675996  0.33343138  0.71584991  1
  O  O10  1  0.66685205  0.33353093  0.21586648  1
  O  O11  1  0.68441157  0.00004021  0.94929112  1
loop_
_geom_bond_atom_site_label_1
_geom_bond_atom_site_label_2
_geom_bond_distance
_geom_bond_site_symmetry_2
Li0 O0 1.937077 1_655
Li0 O9 1.973173 1_555
Li0 O5 1.974851 1_655
Li0 O4 2.021595 1_665
Li1 O10 1.924740 1_455
Li1 O2 1.926065 1_555
Li1 O0 1.967601 1_554
Li1 O3 2.255542 1_455
Li2 O9 1.924645 1_555
Li2 O5 1.926476 1_655
Li2 O1 1.967929 1_555
Li2 O4 2.254633 1_655
Li3 O1 1.937413 1_455
Li3 O10 1.973520 1_455
Li3 O2 1.975607 1_555
Li3 O3 2.019450 1_445
Li4 O1 1.945459 1_455
Li4 O8 1.945729 1_555
Li4 O7 1.946087 1_555
Li4 O2 2.024666 1_555
Li5 O0 1.945566 1_555
Li5 O11 1.945879 1_565
Li5 O6 1.945988 1_555
Li5 O5 2.026349 1_555
Li6 O6 1.938068 1_555
Li6 O5 1.974786 1_555
Li6 O9 1.975042 1_555
Li6 O4 2.020555 1_555
Li7 O2 1.925062 1_555
Li7 O10 1.925276 1_555
Li7 O6 1.967543 1_554
Li7 O3 2.255053 1_445
Li8 O5 1.924524 1_555
Li8 O9 1.924668 1_555
Li8 O8 1.967994 1_555
Li8 O4 2.255329 1_665
Li9 O7 1.937618 1_545
Li9 O2 1.973779 1_545
Li9 O10 1.975528 1_555
Li9 O3 2.019456 1_445
Li10 O8 1.938595 1_555
Li10 O2 1.973433 1_555
Li10 O10 1.973607 1_555
Li10 O3 2.019751 1_555
Li11 O5 1.924640 1_555
Li11 O9 1.926423 1_565
Li11 O7 1.967865 1_555
Li11 O4 2.254832 1_565
Li12 O11 1.945361 1_555
Li12 O0 1.945769 1_655
Li12 O6 1.946087 1_555
Li12 O9 2.026368 1_555
Li13 O7 1.945491 1_545
Li13 O8 1.945762 1_555
Li13 O1 1.945866 1_555
Li13 O10 2.024614 1_555
Li14 O2 1.924682 1_545
Li14 O10 1.925936 1_555
Li14 O11 1.967584 1_554
Li14 O3 2.255531 1_545
Li15 O11 1.936992 1_565
Li15 O5 1.973196 1_555
Li15 O9 1.974657 1_565
Li15 O4 2.021537 1_665
O0 Ti0 1.812208 1_565
O1 Ti1 1.812648 1_545
O3 Ti0 1.850268 1_664
O4 Ti1 1.850053 1_445
O6 Ti0 1.812033 1_555
O7 Ti1 1.812624 1_455
O8 Ti1 1.812242 1_555
O11 Ti0 1.812197 1_655
