# generated using pymatgen
data_SrSi(OF3)2
_symmetry_space_group_name_H-M   'P 1'
_cell_length_a   9.91398100
_cell_length_b   6.02554800
_cell_length_c   11.44457984
_cell_angle_alpha   65.73284921
_cell_angle_beta   90.00000000
_cell_angle_gamma   90.00000000
_symmetry_Int_Tables_number   1
_chemical_formula_structural   SrSi(OF3)2
_chemical_formula_sum   'Sr4 Si4 O8 F24'
_cell_volume   623.25735209
_cell_formula_units_Z   4
loop_
 _symmetry_equiv_pos_site_id
 _symmetry_equiv_pos_as_xyz
  1  'x, y, z'
loop_
 _atom_site_type_symbol
 _atom_site_label
 _atom_site_symmetry_multiplicity
 _atom_site_fract_x
 _atom_site_fract_y
 _atom_site_fract_z
 _atom_site_occupancy
  Sr  Sr0  1  0.27745300  0.78463800  0.05112400  1
  Sr  Sr1  1  0.77745300  0.21536200  0.44887600  1
  Sr  Sr2  1  0.72254700  0.21536200  0.94887600  1
  Sr  Sr3  1  0.22254700  0.78463800  0.55112400  1
  Si  Si0  1  0.47072300  0.13977200  0.24510600  1
  Si  Si1  1  0.97072300  0.86022800  0.25489400  1
  Si  Si2  1  0.52927700  0.86022800  0.75489400  1
  Si  Si3  1  0.02927700  0.13977200  0.74510600  1
  O  O0  1  0.33084500  0.40391800  0.49201000  1
  O  O1  1  0.83084500  0.59608200  0.00799000  1
  O  O2  1  0.66915500  0.59608200  0.50799000  1
  O  O3  1  0.16915500  0.40391800  0.99201000  1
  O  O4  1  0.06700600  0.18734800  0.39744300  1
  O  O5  1  0.56700600  0.81265200  0.10255700  1
  O  O6  1  0.93299400  0.81265200  0.60255700  1
  O  O7  1  0.43299400  0.18734800  0.89744300  1
  F  F0  1  0.37970600  0.01035500  0.38294800  1
  F  F1  1  0.87970600  0.98964500  0.11705200  1
  F  F2  1  0.62029400  0.98964500  0.61705200  1
  F  F3  1  0.12029400  0.01035500  0.88294800  1
  F  F4  1  0.36344200  0.00992500  0.17105600  1
  F  F5  1  0.86344200  0.99007500  0.32894400  1
  F  F6  1  0.63655800  0.99007500  0.82894400  1
  F  F7  1  0.13655800  0.00992500  0.67105600  1
  F  F8  1  0.36777200  0.38938100  0.19518700  1
  F  F9  1  0.86777200  0.61061900  0.30481300  1
  F  F10  1  0.63222800  0.61061900  0.80481300  1
  F  F11  1  0.13222800  0.38938100  0.69518700  1
  F  F12  1  0.07682100  0.72746800  0.18481400  1
  F  F13  1  0.57682100  0.27253200  0.31518600  1
  F  F14  1  0.92317900  0.27253200  0.81518600  1
  F  F15  1  0.42317900  0.72746800  0.68481400  1
  F  F16  1  0.07028000  0.11418600  0.20744700  1
  F  F17  1  0.57028000  0.88581400  0.29255300  1
  F  F18  1  0.92972000  0.88581400  0.79255300  1
  F  F19  1  0.42972000  0.11418600  0.70744700  1
  F  F20  1  0.06282800  0.72960300  0.39544100  1
  F  F21  1  0.56282800  0.27039700  0.10455900  1
  F  F22  1  0.93717200  0.27039700  0.60455900  1
  F  F23  1  0.43717200  0.72960300  0.89544100  1
loop_
_geom_bond_atom_site_label_1
_geom_bond_atom_site_label_2
_geom_bond_distance
_geom_bond_site_symmetry_2
O0 Sr3 2.854615 1_555
O1 Sr2 2.854615 1_554
O2 Sr1 2.854615 1_555
O3 Sr0 2.854615 1_556
O4 Sr3 2.802021 1_545
O4 Sr1 2.949089 1_455
O5 Sr2 2.802021 1_564
O5 Sr0 2.949089 1_555
O6 Sr1 2.802021 1_565
O6 Sr3 2.949089 1_655
O7 Sr0 2.802021 1_546
O7 Sr2 2.949089 1_555
F0 Si0 1.702873 1_555
F0 Sr3 2.414566 1_545
F1 Si1 1.702873 1_555
F1 Sr2 2.414566 1_564
F2 Si2 1.702873 1_555
F2 Sr1 2.414566 1_565
F3 Si3 1.702873 1_555
F3 Sr0 2.414566 1_546
F4 Si0 1.733951 1_555
F4 Sr0 2.446424 1_545
F5 Si1 1.733951 1_555
F5 Sr1 2.446424 1_565
F6 Si2 1.733951 1_555
F6 Sr2 2.446424 1_565
F7 Si3 1.733951 1_555
F7 Sr3 2.446424 1_545
F8 Si0 1.709952 1_555
F8 Sr0 2.442262 1_555
F9 Si1 1.709952 1_555
F9 Sr1 2.442262 1_555
F10 Si2 1.709952 1_555
F10 Sr2 2.442262 1_555
F11 Si3 1.709952 1_555
F11 Sr3 2.442262 1_555
F12 Si1 1.707910 1_455
F12 Sr0 2.445971 1_555
F13 Si0 1.707910 1_555
F13 Sr1 2.445971 1_555
F14 Si3 1.707910 1_655
F14 Sr2 2.445971 1_555
F15 Si2 1.707910 1_555
F15 Sr3 2.445971 1_555
F16 Si1 1.711038 1_445
F17 Si0 1.711038 1_565
F18 Si3 1.711038 1_665
F19 Si2 1.711038 1_545
F20 Si1 1.732030 1_455
F20 Sr3 2.505495 1_555
F21 Si0 1.732030 1_555
F21 Sr2 2.505495 1_554
F22 Si3 1.732030 1_655
F22 Sr1 2.505495 1_555
F23 Si2 1.732030 1_555
F23 Sr0 2.505495 1_556
