# generated using pymatgen
data_LiCa2Nb3O10
_symmetry_space_group_name_H-M   'P 1'
_cell_length_a   5.54247200
_cell_length_b   5.54267500
_cell_length_c   27.39909437
_cell_angle_alpha   89.50746188
_cell_angle_beta   90.00000000
_cell_angle_gamma   90.00000000
_symmetry_Int_Tables_number   1
_chemical_formula_structural   LiCa2Nb3O10
_chemical_formula_sum   'Li4 Ca8 Nb12 O40'
_cell_volume   841.67239401
_cell_formula_units_Z   4
loop_
 _symmetry_equiv_pos_site_id
 _symmetry_equiv_pos_as_xyz
  1  'x, y, z'
loop_
 _atom_site_type_symbol
 _atom_site_label
 _atom_site_symmetry_multiplicity
 _atom_site_fract_x
 _atom_site_fract_y
 _atom_site_fract_z
 _atom_site_occupancy
  Li  Li0  1  0.75901200  0.74796200  0.74122600  1
  Li  Li1  1  0.74098800  0.74796200  0.24122600  1
  Li  Li2  1  0.25901200  0.25203800  0.75877400  1
  Li  Li3  1  0.24098800  0.25203800  0.25877400  1
  Ca  Ca0  1  0.99011800  0.99026700  0.58374900  1
  Ca  Ca1  1  0.50988200  0.99026700  0.08374900  1
  Ca  Ca2  1  0.51655400  0.51669400  0.58004700  1
  Ca  Ca3  1  0.01655400  0.48330600  0.91995300  1
  Ca  Ca4  1  0.98344600  0.51669400  0.08004700  1
  Ca  Ca5  1  0.48344600  0.48330600  0.41995300  1
  Ca  Ca6  1  0.49011800  0.00973300  0.91625100  1
  Ca  Ca7  1  0.00988200  0.00973300  0.41625100  1
  Nb  Nb0  1  0.99829600  0.99406500  0.84339900  1
  Nb  Nb1  1  0.50000000  0.00000000  0.50000000  1
  Nb  Nb2  1  0.50170400  0.99406500  0.34339900  1
  Nb  Nb3  1  0.00000000  0.00000000  0.00000000  1
  Nb  Nb4  1  0.51056000  0.50639600  0.84344000  1
  Nb  Nb5  1  0.98944000  0.50639600  0.34344000  1
  Nb  Nb6  1  0.00000000  0.50000000  0.50000000  1
  Nb  Nb7  1  0.01056000  0.49360400  0.65656000  1
  Nb  Nb8  1  0.50000000  0.50000000  0.00000000  1
  Nb  Nb9  1  0.48944000  0.49360400  0.15656000  1
  Nb  Nb10  1  0.49829600  0.00593500  0.65660100  1
  Nb  Nb11  1  0.00170400  0.00593500  0.15660100  1
  O  O0  1  0.96559200  0.96224800  0.77867900  1
  O  O1  1  0.53440800  0.96224800  0.27867900  1
  O  O2  1  0.56623200  0.94923800  0.56987400  1
  O  O3  1  0.93376800  0.94923800  0.06987400  1
  O  O4  1  0.68957300  0.81264400  0.98289200  1
  O  O5  1  0.81042700  0.81264400  0.48289200  1
  O  O6  1  0.25528500  0.75418800  0.63786200  1
  O  O7  1  0.25548200  0.74954500  0.86209300  1
  O  O8  1  0.75544100  0.75307800  0.65837800  1
  O  O9  1  0.75618600  0.74780500  0.86924000  1
  O  O10  1  0.24471500  0.75418800  0.13786200  1
  O  O11  1  0.24451800  0.74954500  0.36209300  1
  O  O12  1  0.74455900  0.75307800  0.15837800  1
  O  O13  1  0.74381400  0.74780500  0.36924000  1
  O  O14  1  0.18251100  0.68423400  0.99985500  1
  O  O15  1  0.31748900  0.68423400  0.49985500  1
  O  O16  1  0.94964600  0.56630300  0.56984000  1
  O  O17  1  0.55035400  0.56630300  0.06984000  1
  O  O18  1  0.54295700  0.54044600  0.77863200  1
  O  O19  1  0.95704300  0.54044600  0.27863200  1
  O  O20  1  0.04295700  0.45955400  0.72136800  1
  O  O21  1  0.45704300  0.45955400  0.22136800  1
  O  O22  1  0.44964600  0.43369700  0.93016000  1
  O  O23  1  0.05035400  0.43369700  0.43016000  1
  O  O24  1  0.68251100  0.31576600  0.50014500  1
  O  O25  1  0.81748900  0.31576600  0.00014500  1
  O  O26  1  0.25618600  0.25219500  0.63076000  1
  O  O27  1  0.25544100  0.24692200  0.84162200  1
  O  O28  1  0.75548200  0.25045500  0.63790700  1
  O  O29  1  0.75528500  0.24581200  0.86213800  1
  O  O30  1  0.24381400  0.25219500  0.13076000  1
  O  O31  1  0.24455900  0.24692200  0.34162200  1
  O  O32  1  0.74451800  0.25045500  0.13790700  1
  O  O33  1  0.74471500  0.24581200  0.36213800  1
  O  O34  1  0.18957300  0.18735600  0.51710800  1
  O  O35  1  0.31042700  0.18735600  0.01710800  1
  O  O36  1  0.06623200  0.05076200  0.93012600  1
  O  O37  1  0.43376800  0.05076200  0.43012600  1
  O  O38  1  0.46559200  0.03775200  0.72132100  1
  O  O39  1  0.03440800  0.03775200  0.22132100  1
loop_
_geom_bond_atom_site_label_1
_geom_bond_atom_site_label_2
_geom_bond_distance
_geom_bond_site_symmetry_2
Li0 O18 1.946030 1_555
Li0 O0 1.948233 1_555
Li0 O8 2.269980 1_555
Li0 O20 2.311508 1_655
Li0 O38 2.346712 1_565
Li1 O19 1.946030 1_555
Li1 O1 1.948233 1_555
Li1 O12 2.269980 1_555
Li1 O21 2.311508 1_555
Li1 O39 2.346712 1_665
Li2 O20 1.946030 1_555
Li2 O38 1.948233 1_555
Li2 O27 2.269980 1_555
Li2 O18 2.311508 1_555
Li2 O0 2.346712 1_445
Li3 O21 1.946030 1_555
Li3 O39 1.948233 1_555
Li3 O31 2.269980 1_555
Li3 O19 2.311508 1_455
Li3 O1 2.346712 1_545
Ca0 O34 2.390615 1_665
Ca0 O2 2.391086 1_555
Ca0 O16 2.394358 1_555
Ca0 O26 2.444091 1_665
Ca0 O28 2.451460 1_565
Ca0 O6 2.457040 1_655
Ca0 O8 2.748634 1_555
Ca1 O35 2.390615 1_565
Ca1 O3 2.391086 1_555
Ca1 O17 2.394358 1_555
Ca1 O30 2.444091 1_565
Ca1 O32 2.451460 1_565
Ca1 O10 2.457040 1_555
Ca1 O12 2.748634 1_555
Ca2 O2 2.426888 1_555
Ca2 O16 2.431957 1_555
Ca2 O26 2.475358 1_555
Ca2 O6 2.524849 1_555
Ca2 O28 2.530663 1_555
Ca2 O15 2.621486 1_555
Ca2 O24 2.630786 1_555
Ca3 O36 2.426888 1_555
Ca3 O22 2.431957 1_555
Ca3 O9 2.475358 1_455
Ca3 O29 2.524849 1_455
Ca3 O7 2.530663 1_555
Ca3 O25 2.621486 1_456
Ca3 O14 2.630786 1_555
Ca4 O3 2.426888 1_555
Ca4 O17 2.431957 1_555
Ca4 O30 2.475358 1_655
Ca4 O10 2.524849 1_655
Ca4 O32 2.530663 1_555
Ca4 O14 2.621486 1_654
Ca4 O25 2.630786 1_555
Ca5 O37 2.426888 1_555
Ca5 O23 2.431957 1_555
Ca5 O13 2.475358 1_555
Ca5 O33 2.524849 1_555
Ca5 O11 2.530663 1_555
Ca5 O24 2.621486 1_555
Ca5 O15 2.630786 1_555
Ca6 O4 2.390615 1_545
Ca6 O36 2.391086 1_555
Ca6 O22 2.394358 1_555
Ca6 O9 2.444091 1_545
Ca6 O7 2.451460 1_545
Ca6 O29 2.457040 1_555
Ca6 O27 2.748634 1_555
Ca7 O5 2.390615 1_445
Ca7 O37 2.391086 1_555
Ca7 O23 2.394358 1_555
Ca7 O13 2.444091 1_445
Ca7 O11 2.451460 1_545
Ca7 O33 2.457040 1_455
Ca7 O31 2.748634 1_555
Nb0 O0 1.792712 1_555
Nb0 O27 1.999165 1_665
Nb0 O29 2.009235 1_565
Nb0 O7 2.029565 1_655
Nb0 O9 2.036762 1_555
Nb0 O36 2.428970 1_665
Nb1 O37 1.967208 1_555
Nb1 O2 1.967208 1_545
Nb1 O24 2.021522 1_555
Nb1 O15 2.021522 1_545
Nb1 O34 2.065601 1_555
Nb1 O5 2.065601 1_545
Nb2 O1 1.792712 1_555
Nb2 O31 1.999165 1_565
Nb2 O33 2.009235 1_565
Nb2 O11 2.029565 1_555
Nb2 O13 2.036762 1_555
Nb2 O37 2.428970 1_565
Nb3 O36 1.967208 1_554
Nb3 O3 1.967208 1_445
Nb3 O14 2.021522 1_544
Nb3 O25 2.021522 1_455
Nb3 O35 2.065601 1_555
Nb3 O4 2.065601 1_444
Nb4 O18 1.793081 1_555
Nb4 O27 2.017781 1_555
Nb4 O7 2.021892 1_555
Nb4 O9 2.039532 1_555
Nb4 O29 2.043430 1_555
Nb4 O22 2.430123 1_555
Nb5 O19 1.793081 1_555
Nb5 O31 2.017781 1_655
Nb5 O11 2.021892 1_655
Nb5 O13 2.039532 1_555
Nb5 O33 2.043430 1_555
Nb5 O23 2.430123 1_655
Nb6 O16 1.971476 1_455
Nb6 O23 1.971476 1_555
Nb6 O15 2.034489 1_555
Nb6 O24 2.034489 1_455
Nb6 O34 2.076685 1_555
Nb6 O5 2.076685 1_455
Nb7 O20 1.793081 1_555
Nb7 O8 2.017781 1_455
Nb7 O28 2.021892 1_455
Nb7 O26 2.039532 1_555
Nb7 O6 2.043430 1_555
Nb7 O16 2.430123 1_455
Nb8 O17 1.971476 1_555
Nb8 O22 1.971476 1_554
Nb8 O14 2.034489 1_554
Nb8 O25 2.034489 1_555
Nb8 O35 2.076685 1_555
Nb8 O4 2.076685 1_554
Nb9 O21 1.793081 1_555
Nb9 O12 2.017781 1_555
Nb9 O32 2.021892 1_555
Nb9 O30 2.039532 1_555
Nb9 O10 2.043430 1_555
Nb9 O17 2.430123 1_555
Nb10 O38 1.792712 1_555
Nb10 O8 1.999165 1_545
Nb10 O6 2.009235 1_545
Nb10 O28 2.029565 1_555
Nb10 O26 2.036762 1_555
Nb10 O2 2.428970 1_545
Nb11 O39 1.792712 1_555
Nb11 O12 1.999165 1_445
Nb11 O10 2.009235 1_545
Nb11 O32 2.029565 1_455
Nb11 O30 2.036762 1_555
Nb11 O3 2.428970 1_445
