# generated using pymatgen
data_Li2Fe4OF8
_symmetry_space_group_name_H-M   'P 1'
_cell_length_a   6.55756700
_cell_length_b   8.03942817
_cell_length_c   9.14379462
_cell_angle_alpha   67.34312093
_cell_angle_beta   70.15686505
_cell_angle_gamma   74.12605654
_symmetry_Int_Tables_number   1
_chemical_formula_structural   Li2Fe4OF8
_chemical_formula_sum   'Li4 Fe8 O2 F16'
_cell_volume   412.74078418
_cell_formula_units_Z   2
loop_
 _symmetry_equiv_pos_site_id
 _symmetry_equiv_pos_as_xyz
  1  'x, y, z'
loop_
 _atom_site_type_symbol
 _atom_site_label
 _atom_site_symmetry_multiplicity
 _atom_site_fract_x
 _atom_site_fract_y
 _atom_site_fract_z
 _atom_site_occupancy
  Li  Li0  1  0.26287900  0.25847500  0.66071400  1
  Li  Li1  1  0.40184700  0.71480600  0.06328000  1
  Li  Li2  1  0.59815300  0.28519400  0.93672000  1
  Li  Li3  1  0.73712100  0.74152500  0.33928600  1
  Fe  Fe0  1  0.69267700  0.32772500  0.27761800  1
  Fe  Fe1  1  0.13731700  0.88117600  0.41210300  1
  Fe  Fe2  1  0.93172100  0.88802100  0.91733000  1
  Fe  Fe3  1  0.84943700  0.64656100  0.74015700  1
  Fe  Fe4  1  0.15056300  0.35343900  0.25984300  1
  Fe  Fe5  1  0.06827900  0.11197900  0.08267000  1
  Fe  Fe6  1  0.86268300  0.11882400  0.58789700  1
  Fe  Fe7  1  0.30732300  0.67227500  0.72238200  1
  O  O0  1  0.03558400  0.85887200  0.67248200  1
  O  O1  1  0.96441600  0.14112800  0.32751800  1
  F  F0  1  0.84219700  0.93149700  0.14338600  1
  F  F1  1  0.43243400  0.76409300  0.46339100  1
  F  F2  1  0.79471100  0.31403600  0.03837900  1
  F  F3  1  0.41105900  0.47522000  0.22156500  1
  F  F4  1  0.15296200  0.47671800  0.72011400  1
  F  F5  1  0.28787000  0.88473000  0.17334000  1
  F  F6  1  0.11780800  0.26495500  0.50859600  1
  F  F7  1  0.29974500  0.27284900  0.05671700  1
  F  F8  1  0.70025500  0.72715100  0.94328300  1
  F  F9  1  0.88219200  0.73504500  0.49140400  1
  F  F10  1  0.71213000  0.11527000  0.82666000  1
  F  F11  1  0.84703800  0.52328200  0.27988600  1
  F  F12  1  0.58894100  0.52478000  0.77843500  1
  F  F13  1  0.20528900  0.68596400  0.96162100  1
  F  F14  1  0.56756600  0.23590700  0.53660900  1
  F  F15  1  0.15780300  0.06850300  0.85661400  1
loop_
_geom_bond_atom_site_label_1
_geom_bond_atom_site_label_2
_geom_bond_distance
_geom_bond_site_symmetry_2
Fe0 O1 2.048471 1_555
Fe1 O1 2.074869 1_465
Fe1 O0 2.191780 1_555
Fe2 O0 2.193829 1_655
Fe3 O0 2.144659 1_655
Fe4 O1 2.144659 1_455
Fe5 O1 2.193829 1_455
Fe6 O0 2.074869 1_645
Fe6 O1 2.191780 1_555
Fe7 O0 2.048471 1_555
F0 Li3 1.909460 1_555
F0 Fe2 2.088033 1_554
F0 Fe5 2.146827 1_665
F1 Li3 1.932290 1_555
F1 Fe1 2.032408 1_555
F1 Fe7 2.119357 1_555
F2 Li2 1.929288 1_554
F2 Fe0 2.096830 1_555
F2 Fe5 2.100769 1_655
F3 Li1 1.912160 1_555
F3 Fe0 2.013852 1_555
F3 Fe4 2.060108 1_555
F4 Li0 1.915611 1_555
F4 Fe3 2.077997 1_455
F4 Fe7 2.099211 1_555
F5 Li1 1.851373 1_555
F5 Fe1 2.060573 1_555
F5 Fe5 2.074382 1_565
F6 Li0 1.912536 1_555
F6 Fe4 2.056958 1_555
F6 Fe6 2.073695 1_455
F7 Li2 1.899381 1_554
F7 Fe4 2.042877 1_555
F7 Fe5 2.150746 1_555
F8 Li1 1.899381 1_556
F8 Fe3 2.042877 1_555
F8 Fe2 2.150746 1_555
F9 Li3 1.912536 1_555
F9 Fe3 2.056958 1_555
F9 Fe1 2.073695 1_655
F10 Li2 1.851373 1_555
F10 Fe6 2.060573 1_555
F10 Fe2 2.074382 1_545
F11 Li3 1.915611 1_555
F11 Fe4 2.077997 1_655
F11 Fe0 2.099211 1_555
F12 Li2 1.912160 1_555
F12 Fe7 2.013852 1_555
F12 Fe3 2.060108 1_555
F13 Li1 1.929288 1_556
F13 Fe7 2.096830 1_555
F13 Fe2 2.100769 1_455
F14 Li0 1.932290 1_555
F14 Fe6 2.032408 1_555
F14 Fe0 2.119357 1_555
F15 Li0 1.909460 1_555
F15 Fe5 2.088033 1_556
F15 Fe2 2.146827 1_445
