# generated using pymatgen
data_LiCr2(PS4)3
_symmetry_space_group_name_H-M   'P 1'
_cell_length_a   16.99600914
_cell_length_b   11.46102427
_cell_length_c   9.93211888
_cell_angle_alpha   90.00000000
_cell_angle_beta   86.79240071
_cell_angle_gamma   90.00000000
_symmetry_Int_Tables_number   1
_chemical_formula_structural   LiCr2(PS4)3
_chemical_formula_sum   'Li4 Cr8 P12 S48'
_cell_volume   1931.66307082
_cell_formula_units_Z   4
loop_
 _symmetry_equiv_pos_site_id
 _symmetry_equiv_pos_as_xyz
  1  'x, y, z'
loop_
 _atom_site_type_symbol
 _atom_site_label
 _atom_site_symmetry_multiplicity
 _atom_site_fract_x
 _atom_site_fract_y
 _atom_site_fract_z
 _atom_site_occupancy
  Li  Li0  1  0.05066707  0.41115372  0.23842740  1
  Li  Li1  1  0.44933293  0.91115372  0.26157260  1
  Li  Li2  1  0.55066707  0.08884628  0.73842740  1
  Li  Li3  1  0.94933293  0.58884628  0.76157260  1
  Cr  Cr0  1  0.10241839  0.77755439  0.10802709  1
  Cr  Cr1  1  0.21168473  0.26537728  0.57569170  1
  Cr  Cr2  1  0.28831527  0.76537728  0.92430830  1
  Cr  Cr3  1  0.39758161  0.27755439  0.39197291  1
  Cr  Cr4  1  0.60241839  0.72244561  0.60802709  1
  Cr  Cr5  1  0.71168473  0.23462272  0.07569170  1
  Cr  Cr6  1  0.78831527  0.73462272  0.42430830  1
  Cr  Cr7  1  0.89758161  0.22244561  0.89197291  1
  P  P0  1  0.05328614  0.24059039  0.72437054  1
  P  P1  1  0.12936243  0.68652871  0.80621388  1
  P  P2  1  0.25930924  0.86558002  0.22057136  1
  P  P3  1  0.24069076  0.36558002  0.27942864  1
  P  P4  1  0.37063757  0.18652871  0.69378612  1
  P  P5  1  0.44671386  0.74059039  0.77562946  1
  P  P6  1  0.55328614  0.25940961  0.22437054  1
  P  P7  1  0.62936243  0.81347129  0.30621388  1
  P  P8  1  0.75930924  0.63441998  0.72057136  1
  P  P9  1  0.74069076  0.13441998  0.77942864  1
  P  P10  1  0.87063757  0.31347129  0.19378612  1
  P  P11  1  0.94671386  0.75940961  0.27562946  1
  S  S0  1  0.04980425  0.66515333  0.29050578  1
  S  S1  1  0.02176975  0.12819182  0.87842061  1
  S  S2  1  0.06447763  0.61941417  0.96879649  1
  S  S3  1  0.09481680  0.15577185  0.55405769  1
  S  S4  1  0.07528022  0.68113300  0.63671285  1
  S  S5  1  0.14754735  0.93873754  0.21964591  1
  S  S6  1  0.14349996  0.35421359  0.75810511  1
  S  S7  1  0.17734364  0.43195210  0.44412085  1
  S  S8  1  0.15862212  0.85073445  0.88741821  1
  S  S9  1  0.18689213  0.37217851  0.10961267  1
  S  S10  1  0.23196412  0.69849448  0.14428272  1
  S  S11  1  0.23916750  0.60811103  0.81238886  1
  S  S12  1  0.26083250  0.10811103  0.68761114  1
  S  S13  1  0.26803588  0.19849448  0.35571728  1
  S  S14  1  0.31310787  0.87217851  0.39038733  1
  S  S15  1  0.32265636  0.93195210  0.05587915  1
  S  S16  1  0.34137788  0.35073445  0.61258179  1
  S  S17  1  0.35245265  0.43873754  0.28035409  1
  S  S18  1  0.35650004  0.85421359  0.74189489  1
  S  S19  1  0.42471978  0.18113300  0.86328715  1
  S  S20  1  0.40518320  0.65577185  0.94594231  1
  S  S21  1  0.43552237  0.11941417  0.53120351  1
  S  S22  1  0.45019575  0.16515333  0.20949422  1
  S  S23  1  0.47823025  0.62819182  0.62157939  1
  S  S24  1  0.52176975  0.37180818  0.37842061  1
  S  S25  1  0.54980425  0.83484667  0.79050578  1
  S  S26  1  0.56447763  0.88058583  0.46879649  1
  S  S27  1  0.59481680  0.34422815  0.05405769  1
  S  S28  1  0.57528022  0.81886700  0.13671285  1
  S  S29  1  0.64349996  0.14578641  0.25810511  1
  S  S30  1  0.64754735  0.56126246  0.71964591  1
  S  S31  1  0.65862212  0.64926555  0.38741821  1
  S  S32  1  0.67734364  0.06804790  0.94412085  1
  S  S33  1  0.68689213  0.12782149  0.60961267  1
  S  S34  1  0.73196412  0.80150552  0.64428272  1
  S  S35  1  0.73916750  0.89188897  0.31238886  1
  S  S36  1  0.76083250  0.39188897  0.18761114  1
  S  S37  1  0.76803588  0.30150552  0.85571728  1
  S  S38  1  0.81310787  0.62782149  0.89038733  1
  S  S39  1  0.84137788  0.14926555  0.11258179  1
  S  S40  1  0.82265636  0.56804790  0.55587915  1
  S  S41  1  0.85650004  0.64578641  0.24189489  1
  S  S42  1  0.85245265  0.06126246  0.78035409  1
  S  S43  1  0.92471978  0.31886700  0.36328715  1
  S  S44  1  0.90518320  0.84422815  0.44594231  1
  S  S45  1  0.93552237  0.38058483  0.03120351  1
  S  S46  1  0.97823025  0.87180818  0.12157939  1
  S  S47  1  0.95019575  0.33484667  0.70949422  1
loop_
_geom_bond_atom_site_label_1
_geom_bond_atom_site_label_2
_geom_bond_distance
_geom_bond_site_symmetry_2
Li0 S9 2.620201 1_555
Li0 S43 2.634717 1_455
Li0 S45 2.939288 1_455
Li0 S0 2.956584 1_555
Li0 S7 3.059113 1_555
Li1 S14 2.620201 1_555
Li1 S28 2.634717 1_555
Li1 S26 2.939287 1_555
Li1 S22 2.956584 1_565
Li1 S15 3.059113 1_555
Li2 S33 2.620201 1_555
Li2 S19 2.634717 1_555
Li2 S21 2.939287 1_555
Li2 S25 2.956584 1_545
Li2 S32 3.059113 1_555
Li3 S38 2.620201 1_555
Li3 S4 2.634717 1_655
Li3 S2 2.939287 1_655
Li3 S47 2.956584 1_555
Li3 S40 3.059113 1_555
Cr0 S5 2.307616 1_555
Cr0 S0 2.358519 1_555
Cr0 S46 2.368189 1_455
Cr0 S2 2.390161 1_554
Cr0 S10 2.426350 1_555
Cr0 S8 2.486500 1_554
Cr1 S12 2.299146 1_555
Cr1 S6 2.329614 1_555
Cr1 S3 2.370082 1_555
Cr1 S7 2.403833 1_555
Cr1 S16 2.457732 1_555
Cr1 S13 2.458476 1_555
Cr2 S11 2.299146 1_555
Cr2 S18 2.329614 1_555
Cr2 S20 2.370082 1_555
Cr2 S15 2.403833 1_556
Cr2 S8 2.457732 1_555
Cr2 S10 2.458476 1_556
Cr3 S17 2.307616 1_555
Cr3 S22 2.358519 1_555
Cr3 S24 2.368189 1_555
Cr3 S21 2.390161 1_555
Cr3 S13 2.426350 1_555
Cr3 S16 2.486500 1_555
Cr4 S30 2.307616 1_555
Cr4 S25 2.358519 1_555
Cr4 S23 2.368189 1_555
Cr4 S26 2.390161 1_555
Cr4 S34 2.426350 1_555
Cr4 S31 2.486500 1_555
Cr5 S36 2.299146 1_555
Cr5 S29 2.329614 1_555
Cr5 S27 2.370082 1_555
Cr5 S32 2.403833 1_554
Cr5 S39 2.457732 1_555
Cr5 S37 2.458476 1_554
Cr6 S35 2.299146 1_555
Cr6 S41 2.329614 1_555
Cr6 S44 2.370082 1_555
Cr6 S40 2.403833 1_555
Cr6 S31 2.457732 1_555
Cr6 S34 2.458476 1_555
Cr7 S42 2.307616 1_555
Cr7 S47 2.358519 1_555
Cr7 S1 2.368189 1_655
Cr7 S45 2.390152 1_556
Cr7 S37 2.426350 1_555
Cr7 S39 2.486500 1_556
P0 S3 2.042304 1_555
P0 S1 2.048343 1_555
P0 S6 2.053414 1_555
P0 S47 2.070685 1_455
P1 S4 1.963690 1_555
P1 S2 2.053306 1_555
P1 S11 2.075379 1_555
P1 S8 2.117659 1_555
P2 S14 1.964457 1_555
P2 S15 2.053386 1_555
P2 S5 2.076819 1_555
P2 S10 2.120529 1_555
P3 S9 1.964457 1_555
P3 S7 2.053386 1_555
P3 S17 2.076819 1_555
P3 S13 2.120529 1_555
P4 S19 1.963690 1_555
P4 S21 2.053306 1_555
P4 S12 2.075379 1_555
P4 S16 2.117659 1_555
P5 S20 2.042304 1_555
P5 S23 2.048343 1_555
P5 S18 2.053414 1_555
P5 S25 2.070685 1_555
P6 S27 2.042304 1_555
P6 S24 2.048343 1_555
P6 S29 2.053414 1_555
P6 S22 2.070685 1_555
P7 S28 1.963690 1_555
P7 S26 2.053306 1_555
P7 S35 2.075379 1_555
P7 S31 2.117659 1_555
P8 S38 1.964457 1_555
P8 S40 2.053386 1_555
P8 S30 2.076819 1_555
P8 S34 2.120529 1_555
P9 S33 1.964457 1_555
P9 S32 2.053386 1_555
P9 S42 2.076819 1_555
P9 S37 2.120529 1_555
P10 S43 1.963690 1_555
P10 S45 2.053302 1_555
P10 S36 2.075379 1_555
P10 S39 2.117659 1_555
P11 S44 2.042304 1_555
P11 S46 2.048343 1_555
P11 S41 2.053414 1_555
P11 S0 2.070685 1_655
