# generated using pymatgen
data_Fe2O3F
_symmetry_space_group_name_H-M   'P 1'
_cell_length_a   7.53486606
_cell_length_b   7.53486606
_cell_length_c   6.39059200
_cell_angle_alpha   90.00000000
_cell_angle_beta   90.00000000
_cell_angle_gamma   132.93471591
_symmetry_Int_Tables_number   1
_chemical_formula_structural   Fe2O3F
_chemical_formula_sum   'Fe8 O12 F4'
_cell_volume   265.63209795
_cell_formula_units_Z   4
loop_
 _symmetry_equiv_pos_site_id
 _symmetry_equiv_pos_as_xyz
  1  'x, y, z'
loop_
 _atom_site_type_symbol
 _atom_site_label
 _atom_site_symmetry_multiplicity
 _atom_site_fract_x
 _atom_site_fract_y
 _atom_site_fract_z
 _atom_site_occupancy
  Fe  Fe0  1  0.37291900  0.12442500  0.75000000  1
  Fe  Fe1  1  0.87557500  0.62708100  0.75000000  1
  Fe  Fe2  1  0.61398200  0.38601800  0.25000000  1
  Fe  Fe3  1  0.12761300  0.87238700  0.25000000  1
  Fe  Fe4  1  0.87238700  0.12761300  0.75000000  1
  Fe  Fe5  1  0.38601800  0.61398200  0.75000000  1
  Fe  Fe6  1  0.12442500  0.37291900  0.25000000  1
  Fe  Fe7  1  0.62708100  0.87557500  0.25000000  1
  O  O0  1  0.53446000  0.46554000  0.75000000  1
  O  O1  1  0.37520400  0.12589500  0.44461700  1
  O  O2  1  0.87410500  0.62479600  0.44461700  1
  O  O3  1  0.37520400  0.12589500  0.05538300  1
  O  O4  1  0.12589500  0.37520400  0.55538300  1
  O  O5  1  0.62479600  0.87410500  0.55538300  1
  O  O6  1  0.87410500  0.62479600  0.05538300  1
  O  O7  1  0.21094500  0.78905500  0.75000000  1
  O  O8  1  0.46554000  0.53446000  0.25000000  1
  O  O9  1  0.78905500  0.21094500  0.25000000  1
  O  O10  1  0.12589500  0.37520400  0.94461700  1
  O  O11  1  0.62479600  0.87410500  0.94461700  1
  F  F0  1  0.02182600  0.97817400  0.75000000  1
  F  F1  1  0.72480600  0.27519400  0.75000000  1
  F  F2  1  0.97817400  0.02182600  0.25000000  1
  F  F3  1  0.27519400  0.72480600  0.25000000  1
loop_
_geom_bond_atom_site_label_1
_geom_bond_atom_site_label_2
_geom_bond_distance
_geom_bond_site_symmetry_2
Fe0 O7 1.916661 1_545
Fe0 O3 1.951619 1_556
Fe0 O1 1.951619 1_555
Fe0 O0 1.955948 1_555
Fe1 O7 1.916661 1_655
Fe1 O6 1.951619 1_556
Fe1 O2 1.951619 1_555
Fe1 O0 1.955948 1_555
Fe2 O1 1.954826 1_555
Fe2 O2 1.954826 1_555
Fe2 O3 1.954826 1_555
Fe2 O6 1.954826 1_555
Fe2 O8 2.050938 1_555
Fe2 O9 2.418883 1_555
Fe3 O6 1.954780 1_455
Fe3 O2 1.954780 1_455
Fe3 O3 1.954780 1_565
Fe3 O1 1.954780 1_565
Fe4 O5 1.954780 1_545
Fe4 O11 1.954780 1_545
Fe4 O10 1.954780 1_655
Fe4 O4 1.954780 1_655
Fe5 O10 1.954826 1_555
Fe5 O4 1.954826 1_555
Fe5 O5 1.954826 1_555
Fe5 O11 1.954826 1_555
Fe5 O0 2.050938 1_555
Fe5 O7 2.418883 1_555
Fe6 O9 1.916661 1_455
Fe6 O10 1.951619 1_554
Fe6 O4 1.951619 1_555
Fe6 O8 1.955948 1_555
Fe7 O9 1.916661 1_565
Fe7 O11 1.951619 1_554
Fe7 O5 1.951619 1_555
Fe7 O8 1.955948 1_555
F0 Fe0 2.059421 1_565
F0 Fe1 2.059421 1_455
F0 Fe4 2.064713 1_465
F1 Fe4 2.039042 1_555
F1 Fe1 2.053568 1_555
F1 Fe0 2.053568 1_555
F2 Fe7 2.059421 1_545
F2 Fe6 2.059421 1_655
F2 Fe3 2.064713 1_645
F3 Fe3 2.039042 1_555
F3 Fe6 2.053568 1_555
F3 Fe7 2.053568 1_555
