# generated using pymatgen
data_DyP2H9O10
_symmetry_space_group_name_H-M   'P 1'
_cell_length_a   7.24962300
_cell_length_b   9.21841500
_cell_length_c   13.65394800
_cell_angle_alpha   90.00000000
_cell_angle_beta   90.00000000
_cell_angle_gamma   90.00000000
_symmetry_Int_Tables_number   1
_chemical_formula_structural   DyP2H9O10
_chemical_formula_sum   'Dy4 P8 H36 O40'
_cell_volume   912.49380098
_cell_formula_units_Z   4
loop_
 _symmetry_equiv_pos_site_id
 _symmetry_equiv_pos_as_xyz
  1  'x, y, z'
loop_
 _atom_site_type_symbol
 _atom_site_label
 _atom_site_symmetry_multiplicity
 _atom_site_fract_x
 _atom_site_fract_y
 _atom_site_fract_z
 _atom_site_occupancy
  Dy  Dy0  1  0.75000000  0.22238000  0.25000000  1
  Dy  Dy1  1  0.75000000  0.27762000  0.75000000  1
  Dy  Dy2  1  0.25000000  0.77762000  0.75000000  1
  Dy  Dy3  1  0.25000000  0.72238000  0.25000000  1
  P  P0  1  0.90990200  0.53996300  0.42470900  1
  P  P1  1  0.90990200  0.96003700  0.57529100  1
  P  P2  1  0.59009800  0.53996300  0.07529100  1
  P  P3  1  0.59009800  0.96003700  0.92470900  1
  P  P4  1  0.09009800  0.46003700  0.57529100  1
  P  P5  1  0.09009800  0.03996300  0.42470900  1
  P  P6  1  0.40990200  0.46003700  0.92470900  1
  P  P7  1  0.40990200  0.03996300  0.07529100  1
  H  H0  1  0.47854300  0.07398600  0.29929600  1
  H  H1  1  0.47854300  0.42601400  0.70070400  1
  H  H2  1  0.02145700  0.07398600  0.20070400  1
  H  H3  1  0.02145700  0.42601400  0.79929600  1
  H  H4  1  0.52145700  0.92601400  0.70070400  1
  H  H5  1  0.52145700  0.57398600  0.29929600  1
  H  H6  1  0.97854300  0.92601400  0.79929600  1
  H  H7  1  0.97854300  0.57398600  0.20070400  1
  H  H8  1  0.76189600  0.75000000  0.50000000  1
  H  H9  1  0.73810400  0.75000000  0.00000000  1
  H  H10  1  0.23810400  0.25000000  0.50000000  1
  H  H11  1  0.26189600  0.25000000  0.00000000  1
  H  H12  1  0.56188900  0.63487300  0.40378800  1
  H  H13  1  0.56188900  0.86512700  0.59621200  1
  H  H14  1  0.93811100  0.63487300  0.09621200  1
  H  H15  1  0.93811100  0.86512700  0.90378800  1
  H  H16  1  0.43811100  0.36512700  0.59621200  1
  H  H17  1  0.43811100  0.13487300  0.40378800  1
  H  H18  1  0.06188900  0.36512700  0.90378800  1
  H  H19  1  0.06188900  0.13487300  0.09621200  1
  H  H20  1  0.84672500  0.09973000  0.90059400  1
  H  H21  1  0.84672500  0.40027000  0.09940600  1
  H  H22  1  0.65327500  0.09973000  0.59940600  1
  H  H23  1  0.65327500  0.40027000  0.40059400  1
  H  H24  1  0.15327500  0.90027000  0.09940600  1
  H  H25  1  0.15327500  0.59973000  0.90059400  1
  H  H26  1  0.34672500  0.90027000  0.40059400  1
  H  H27  1  0.34672500  0.59973000  0.59940600  1
  H  H28  1  0.62788900  0.85417000  0.32165500  1
  H  H29  1  0.62788900  0.64583000  0.67834500  1
  H  H30  1  0.87211100  0.85417000  0.17834500  1
  H  H31  1  0.87211100  0.64583000  0.82165500  1
  H  H32  1  0.37211100  0.14583000  0.67834500  1
  H  H33  1  0.37211100  0.35417000  0.32165500  1
  H  H34  1  0.12788900  0.14583000  0.82165500  1
  H  H35  1  0.12788900  0.35417000  0.17834500  1
  O  O0  1  0.47873500  0.58849300  0.16594800  1
  O  O1  1  0.47873500  0.91150700  0.83405200  1
  O  O2  1  0.02126500  0.58849300  0.33405200  1
  O  O3  1  0.02126500  0.91150700  0.66594800  1
  O  O4  1  0.52126500  0.41150700  0.83405200  1
  O  O5  1  0.52126500  0.08849300  0.16594800  1
  O  O6  1  0.97873500  0.41150700  0.66594800  1
  O  O7  1  0.97873500  0.08849300  0.33405200  1
  O  O8  1  0.75918900  0.63729300  0.04334300  1
  O  O9  1  0.75918900  0.86270700  0.95665700  1
  O  O10  1  0.74081100  0.63729300  0.45665700  1
  O  O11  1  0.74081100  0.86270700  0.54334300  1
  O  O12  1  0.24081100  0.36270700  0.95665700  1
  O  O13  1  0.24081100  0.13729300  0.04334300  1
  O  O14  1  0.25918900  0.36270700  0.54334300  1
  O  O15  1  0.25918900  0.13729300  0.45665700  1
  O  O16  1  0.45524400  0.62217900  0.35426800  1
  O  O17  1  0.45524400  0.87782100  0.64573200  1
  O  O18  1  0.04475600  0.62217900  0.14573200  1
  O  O19  1  0.04475600  0.87782100  0.85426800  1
  O  O20  1  0.54475600  0.37782100  0.64573200  1
  O  O21  1  0.54475600  0.12217900  0.35426800  1
  O  O22  1  0.95524400  0.37782100  0.85426800  1
  O  O23  1  0.95524400  0.12217900  0.14573200  1
  O  O24  1  0.25538100  0.92479700  0.35076700  1
  O  O25  1  0.25538100  0.57520300  0.64923300  1
  O  O26  1  0.24461900  0.92479700  0.14923300  1
  O  O27  1  0.24461900  0.57520300  0.85076700  1
  O  O28  1  0.74461900  0.07520300  0.64923300  1
  O  O29  1  0.74461900  0.42479700  0.35076700  1
  O  O30  1  0.75538100  0.07520300  0.85076700  1
  O  O31  1  0.75538100  0.42479700  0.14923300  1
  O  O32  1  0.44481200  0.60901300  0.98371500  1
  O  O33  1  0.44481200  0.89098700  0.01628500  1
  O  O34  1  0.05518800  0.60901300  0.51628500  1
  O  O35  1  0.05518800  0.89098700  0.48371500  1
  O  O36  1  0.55518800  0.39098700  0.01628500  1
  O  O37  1  0.55518800  0.10901300  0.98371500  1
  O  O38  1  0.94481200  0.39098700  0.48371500  1
  O  O39  1  0.94481200  0.10901300  0.51628500  1
loop_
_geom_bond_atom_site_label_1
_geom_bond_atom_site_label_2
_geom_bond_distance
_geom_bond_site_symmetry_2
Dy0 O23 2.256993 1_555
Dy0 O21 2.256993 1_555
Dy0 O31 2.318697 1_555
Dy0 O29 2.318697 1_555
Dy0 O7 2.364353 1_555
Dy0 O5 2.364353 1_555
Dy1 O22 2.256993 1_555
Dy1 O20 2.256993 1_555
Dy1 O28 2.318697 1_555
Dy1 O30 2.318697 1_555
Dy1 O6 2.364353 1_555
Dy1 O4 2.364353 1_555
Dy2 O17 2.256993 1_555
Dy2 O19 2.256993 1_555
Dy2 O25 2.318697 1_555
Dy2 O27 2.318697 1_555
Dy2 O3 2.364353 1_555
Dy2 O1 2.364353 1_555
Dy3 O18 2.256993 1_555
Dy3 O16 2.256993 1_555
Dy3 O26 2.318697 1_555
Dy3 O24 2.318697 1_555
Dy3 O0 2.364353 1_555
Dy3 O2 2.364353 1_555
H0 O21 0.995573 1_555
H1 O20 0.995573 1_555
H2 O23 0.995573 1_455
H3 O22 0.995573 1_455
H4 O17 0.995573 1_555
H5 O16 0.995573 1_555
H6 O19 0.995573 1_655
H7 O18 0.995573 1_655
H8 O11 1.205436 1_555
H8 O10 1.205436 1_555
H9 O8 1.205436 1_555
H9 O9 1.205436 1_554
H10 O15 1.205436 1_555
H10 O14 1.205436 1_555
H11 O13 1.205436 1_555
H11 O12 1.205436 1_554
H12 O16 1.033732 1_555
H12 O10 1.484624 1_555
H13 O17 1.033732 1_555
H13 O11 1.484624 1_555
H14 O18 1.033732 1_655
H14 O8 1.484624 1_555
H15 O19 1.033732 1_655
H15 O9 1.484624 1_555
H16 O20 1.033732 1_555
H16 O14 1.484624 1_555
H17 O21 1.033732 1_555
H17 O15 1.484624 1_555
H18 O22 1.033732 1_455
H18 O12 1.484624 1_555
H19 O23 1.033732 1_455
H19 O13 1.484624 1_555
H20 O30 0.975960 1_555
H21 O31 0.975960 1_555
H22 O28 0.975960 1_555
H23 O29 0.975960 1_555
H24 O26 0.975960 1_555
H25 O27 0.975960 1_555
H26 O24 0.975960 1_555
H27 O25 0.975960 1_555
O0 P2 1.544069 1_555
O1 P3 1.544069 1_555
O2 P0 1.544069 1_455
O3 P1 1.544069 1_455
O4 P6 1.544069 1_555
O5 P7 1.544069 1_555
O6 P4 1.544069 1_655
O7 P5 1.544069 1_655
O8 P2 1.580507 1_555
O9 P3 1.580507 1_555
O10 P0 1.580507 1_555
O11 P1 1.580507 1_555
O12 P6 1.580507 1_555
O13 P7 1.580507 1_555
O14 P4 1.580507 1_555
O15 P5 1.580507 1_555
O24 P5 1.892661 1_565
O25 P4 1.892661 1_555
O26 P7 1.892661 1_565
O27 P6 1.892661 1_555
O28 P1 1.892661 1_545
O29 P0 1.892661 1_555
O30 P3 1.892661 1_545
O31 P2 1.892661 1_555
O32 P6 1.612192 1_555
O32 P2 1.754418 1_556
O33 P7 1.612192 1_565
O33 P3 1.754418 1_554
O34 P4 1.612192 1_555
O34 P0 1.754418 1_455
O35 P5 1.612192 1_565
O35 P1 1.754418 1_455
O36 P2 1.612192 1_555
O36 P6 1.754418 1_554
O37 P3 1.612192 1_545
O37 P7 1.754418 1_556
O38 P0 1.612192 1_555
O38 P4 1.754418 1_655
O39 P1 1.612192 1_545
O39 P5 1.754418 1_655
