# generated using pymatgen
data_Na2FeO3
_symmetry_space_group_name_H-M   'P 1'
_cell_length_a   5.39715900
_cell_length_b   6.13403100
_cell_length_c   9.35876200
_cell_angle_alpha   90.00000000
_cell_angle_beta   90.00000000
_cell_angle_gamma   90.00000000
_symmetry_Int_Tables_number   1
_chemical_formula_structural   Na2FeO3
_chemical_formula_sum   'Na8 Fe4 O12'
_cell_volume   309.83436253
_cell_formula_units_Z   4
loop_
 _symmetry_equiv_pos_site_id
 _symmetry_equiv_pos_as_xyz
  1  'x, y, z'
loop_
 _atom_site_type_symbol
 _atom_site_label
 _atom_site_symmetry_multiplicity
 _atom_site_fract_x
 _atom_site_fract_y
 _atom_site_fract_z
 _atom_site_occupancy
  Na  Na0  1  0.72620100  0.61337800  0.91422500  1
  Na  Na1  1  0.72620100  0.61337800  0.58577500  1
  Na  Na2  1  0.77379900  0.11337800  0.08577500  1
  Na  Na3  1  0.77379900  0.11337800  0.41422500  1
  Na  Na4  1  0.22620100  0.88662200  0.58577500  1
  Na  Na5  1  0.22620100  0.88662200  0.91422500  1
  Na  Na6  1  0.27379900  0.38662200  0.08577500  1
  Na  Na7  1  0.27379900  0.38662200  0.41422500  1
  Fe  Fe0  1  0.72361300  0.66339600  0.25000000  1
  Fe  Fe1  1  0.77638700  0.16339600  0.75000000  1
  Fe  Fe2  1  0.22361300  0.83660400  0.25000000  1
  Fe  Fe3  1  0.27638700  0.33660400  0.75000000  1
  O  O0  1  0.51274700  0.21644700  0.61278500  1
  O  O1  1  0.51274700  0.21644700  0.88721500  1
  O  O2  1  0.63249300  0.37724100  0.25000000  1
  O  O3  1  0.86750700  0.87724100  0.75000000  1
  O  O4  1  0.98725300  0.71644700  0.38721500  1
  O  O5  1  0.98725300  0.71644700  0.11278500  1
  O  O6  1  0.01274700  0.28355300  0.61278500  1
  O  O7  1  0.01274700  0.28355300  0.88721500  1
  O  O8  1  0.13249300  0.12275900  0.25000000  1
  O  O9  1  0.36750700  0.62275900  0.75000000  1
  O  O10  1  0.48725300  0.78355300  0.11278500  1
  O  O11  1  0.48725300  0.78355300  0.38721500  1
loop_
_geom_bond_atom_site_label_1
_geom_bond_atom_site_label_2
_geom_bond_distance
_geom_bond_site_symmetry_2
Na0 O3 2.358710 1_555
Na0 O5 2.416198 1_556
Na0 O9 2.472514 1_555
Na0 O10 2.491185 1_556
Na0 O7 2.559068 1_655
Na0 O1 2.705419 1_555
Na1 O3 2.358710 1_555
Na1 O4 2.416198 1_555
Na1 O9 2.472514 1_555
Na1 O11 2.491185 1_555
Na1 O6 2.559068 1_655
Na1 O0 2.705419 1_555
Na2 O2 2.358710 1_555
Na2 O1 2.416198 1_554
Na2 O8 2.472514 1_655
Na2 O7 2.491185 1_654
Na2 O10 2.559068 1_545
Na2 O5 2.705419 1_545
Na3 O2 2.358710 1_555
Na3 O0 2.416198 1_555
Na3 O8 2.472514 1_655
Na3 O6 2.491185 1_655
Na3 O11 2.559068 1_545
Na3 O4 2.705419 1_545
Na4 O9 2.358710 1_555
Na4 O11 2.416198 1_555
Na4 O3 2.472514 1_455
Na4 O4 2.491185 1_455
Na4 O0 2.559068 1_565
Na4 O6 2.705419 1_565
Na5 O9 2.358710 1_555
Na5 O10 2.416198 1_556
Na5 O3 2.472514 1_455
Na5 O5 2.491185 1_456
Na5 O1 2.559068 1_565
Na5 O7 2.705419 1_565
Na6 O8 2.358710 1_555
Na6 O7 2.416198 1_554
Na6 O2 2.472514 1_555
Na6 O1 2.491185 1_554
Na6 O5 2.559068 1_455
Na6 O10 2.705419 1_555
Na7 O8 2.358710 1_555
Na7 O6 2.416198 1_555
Na7 O2 2.472514 1_555
Na7 O0 2.491185 1_555
Na7 O4 2.559068 1_455
Na7 O11 2.705419 1_555
Fe0 O2 1.822876 1_555
Fe0 O4 1.944128 1_555
Fe0 O5 1.944128 1_555
Fe0 O11 1.954393 1_555
Fe0 O10 1.954393 1_555
Fe1 O3 1.822876 1_545
Fe1 O0 1.944128 1_555
Fe1 O1 1.944128 1_555
Fe1 O7 1.954393 1_655
Fe1 O6 1.954393 1_655
Fe2 O8 1.822876 1_565
Fe2 O11 1.944128 1_555
Fe2 O10 1.944128 1_555
Fe2 O4 1.954393 1_455
Fe2 O5 1.954393 1_455
Fe3 O9 1.822876 1_555
Fe3 O6 1.944128 1_555
Fe3 O7 1.944128 1_555
Fe3 O0 1.954393 1_555
Fe3 O1 1.954393 1_555
