# generated using pymatgen
data_Li4V2Si(PO6)2
_symmetry_space_group_name_H-M   'P 1'
_cell_length_a   8.49436464
_cell_length_b   8.49436464
_cell_length_c   8.51281819
_cell_angle_alpha   63.92268683
_cell_angle_beta   63.92268683
_cell_angle_gamma   63.97570357
_symmetry_Int_Tables_number   1
_chemical_formula_structural   Li4V2Si(PO6)2
_chemical_formula_sum   'Li8 V4 Si2 P4 O24'
_cell_volume   472.04035159
_cell_formula_units_Z   2
loop_
 _symmetry_equiv_pos_site_id
 _symmetry_equiv_pos_as_xyz
  1  'x, y, z'
loop_
 _atom_site_type_symbol
 _atom_site_label
 _atom_site_symmetry_multiplicity
 _atom_site_fract_x
 _atom_site_fract_y
 _atom_site_fract_z
 _atom_site_occupancy
  Li  Li0  1  0.83217600  0.73532700  0.66125900  1
  Li  Li1  1  0.73532700  0.83217600  0.16125900  1
  Li  Li2  1  0.51264000  0.98396100  0.50582200  1
  Li  Li3  1  0.66830700  0.35258900  0.25559000  1
  Li  Li4  1  0.35258900  0.66830700  0.75559000  1
  Li  Li5  1  0.25752300  0.15588100  0.83881400  1
  Li  Li6  1  0.98396100  0.51264000  0.00582200  1
  Li  Li7  1  0.15588100  0.25752300  0.33881400  1
  V  V0  1  0.85665900  0.36074600  0.85733000  1
  V  V1  1  0.36074600  0.85665900  0.35733000  1
  V  V2  1  0.64507700  0.14100900  0.63837200  1
  V  V3  1  0.14100900  0.64507700  0.13837200  1
  Si  Si0  1  0.54756100  0.74967400  0.95589600  1
  Si  Si1  1  0.74967400  0.54756100  0.45589600  1
  P  P0  1  0.95391600  0.04539800  0.24817400  1
  P  P1  1  0.25170100  0.44980200  0.54604700  1
  P  P2  1  0.04539800  0.95391600  0.74817400  1
  P  P3  1  0.44980200  0.25170100  0.04604700  1
  O  O0  1  0.98641100  0.88728500  0.18487300  1
  O  O1  1  0.88728500  0.98641100  0.68487300  1
  O  O2  1  0.57288700  0.90805200  0.75104300  1
  O  O3  1  0.74862500  0.58593900  0.94177200  1
  O  O4  1  0.37408300  0.69453700  0.98266500  1
  O  O5  1  0.51710600  0.81298000  0.12504200  1
  O  O6  1  0.93715500  0.23562200  0.09352200  1
  O  O7  1  0.90805200  0.57288700  0.25104300  1
  O  O8  1  0.58593900  0.74862500  0.44177200  1
  O  O9  1  0.69453700  0.37408300  0.48266500  1
  O  O10  1  0.81298000  0.51710600  0.62504200  1
  O  O11  1  0.76135500  0.06621600  0.39782200  1
  O  O12  1  0.23562200  0.93715500  0.59352200  1
  O  O13  1  0.18790300  0.47963700  0.38886400  1
  O  O14  1  0.31284500  0.60966400  0.51360500  1
  O  O15  1  0.40690000  0.25907700  0.56294200  1
  O  O16  1  0.10341900  0.42502000  0.74000000  1
  O  O17  1  0.06621600  0.76135500  0.89782200  1
  O  O18  1  0.47963700  0.18790300  0.88886400  1
  O  O19  1  0.60966400  0.31284500  0.01360500  1
  O  O20  1  0.25907700  0.40690000  0.06294200  1
  O  O21  1  0.42502000  0.10341900  0.24000000  1
  O  O22  1  0.11216500  0.01516900  0.31054800  1
  O  O23  1  0.01516900  0.11216500  0.81054800  1
loop_
_geom_bond_atom_site_label_1
_geom_bond_atom_site_label_2
_geom_bond_distance
_geom_bond_site_symmetry_2
Li0 O2 2.063510 1_555
Li0 O10 2.090340 1_555
Li0 O3 2.110097 1_555
Li0 O1 2.478737 1_555
Li1 O7 2.063510 1_555
Li1 O5 2.090340 1_555
Li1 O8 2.110097 1_555
Li1 O0 2.478737 1_555
Li2 O8 2.061234 1_555
Li2 O2 2.121718 1_555
Li2 O11 2.195393 1_565
Li2 O12 2.295213 1_555
Li2 O15 2.297307 1_565
Li2 O21 2.345962 1_565
Li3 O9 2.131734 1_555
Li3 O6 2.133062 1_555
Li3 O11 2.138422 1_555
Li3 O19 2.503347 1_555
Li3 O3 2.541663 1_554
Li3 O15 2.649537 1_555
Li4 O4 2.131734 1_555
Li4 O12 2.133062 1_555
Li4 O17 2.138422 1_555
Li4 O14 2.503347 1_555
Li4 O8 2.541663 1_555
Li4 O20 2.649537 1_556
Li5 O16 2.073398 1_555
Li5 O15 2.107126 1_555
Li5 O18 2.252594 1_555
Li5 O23 2.370375 1_555
Li6 O3 2.061234 1_554
Li6 O7 2.121718 1_555
Li6 O17 2.195393 1_654
Li6 O6 2.295213 1_555
Li6 O20 2.297307 1_655
Li6 O16 2.345962 1_654
Li7 O21 2.073398 1_555
Li7 O20 2.107126 1_555
Li7 O13 2.252594 1_555
Li7 O22 2.370375 1_555
O0 P0 1.533172 1_565
O0 V3 2.000570 1_655
O1 P2 1.533172 1_655
O1 V2 2.000570 1_565
O2 Si0 1.660970 1_555
O2 V2 2.022568 1_565
O3 Si0 1.657668 1_555
O3 V0 2.026453 1_555
O4 Si0 1.630736 1_555
O4 V3 1.945837 1_556
O5 Si0 1.631138 1_554
O5 V1 1.927565 1_555
O6 P0 1.567514 1_555
O6 V0 2.081370 1_554
O7 Si1 1.660970 1_555
O7 V3 2.022568 1_655
O8 Si1 1.657668 1_555
O8 V1 2.026453 1_555
O9 Si1 1.630736 1_555
O9 V2 1.945837 1_555
O10 Si1 1.631138 1_555
O10 V0 1.927565 1_555
O11 P0 1.562659 1_555
O11 V2 2.094625 1_555
O12 P2 1.567514 1_555
O12 V1 2.081370 1_555
O13 P1 1.538572 1_555
O13 V3 2.074041 1_555
O14 P1 1.533969 1_555
O14 V1 2.038769 1_555
O15 P1 1.571944 1_555
O15 V2 2.075283 1_555
O16 P1 1.567048 1_555
O16 V0 2.091264 1_455
O17 P2 1.562659 1_555
O17 V3 2.094625 1_556
O18 P3 1.538572 1_556
O18 V2 2.074041 1_555
O19 P3 1.533969 1_555
O19 V0 2.038769 1_554
O20 P3 1.571944 1_555
O20 V3 2.075283 1_555
O21 P3 1.567048 1_555
O21 V1 2.091264 1_545
O22 P0 1.536089 1_455
O22 V1 2.050165 1_545
O23 P2 1.536089 1_545
O23 V0 2.050165 1_455
