# generated using pymatgen
data_Li3MnB4O9
_symmetry_space_group_name_H-M   'P 1'
_cell_length_a   8.74558100
_cell_length_b   5.81788300
_cell_length_c   6.69798264
_cell_angle_alpha   77.50653433
_cell_angle_beta   90.00000000
_cell_angle_gamma   90.00000000
_symmetry_Int_Tables_number   1
_chemical_formula_structural   Li3MnB4O9
_chemical_formula_sum   'Li6 Mn2 B8 O18'
_cell_volume   332.72861939
_cell_formula_units_Z   2
loop_
 _symmetry_equiv_pos_site_id
 _symmetry_equiv_pos_as_xyz
  1  'x, y, z'
loop_
 _atom_site_type_symbol
 _atom_site_label
 _atom_site_symmetry_multiplicity
 _atom_site_fract_x
 _atom_site_fract_y
 _atom_site_fract_z
 _atom_site_occupancy
  Li  Li0  1  0.43518400  0.76070300  0.16108300  1
  Li  Li1  1  0.06481600  0.76070300  0.16108300  1
  Li  Li2  1  0.75000000  0.57855600  0.50297700  1
  Li  Li3  1  0.25000000  0.42144400  0.49702300  1
  Li  Li4  1  0.93518400  0.23929700  0.83891700  1
  Li  Li5  1  0.56481600  0.23929700  0.83891700  1
  Mn  Mn0  1  0.75000000  0.75527800  0.88178500  1
  Mn  Mn1  1  0.25000000  0.24472200  0.11821500  1
  B  B0  1  0.75000000  0.99292100  0.22734700  1
  B  B1  1  0.25000000  0.86743900  0.46335800  1
  B  B2  1  0.04714900  0.71950200  0.71940700  1
  B  B3  1  0.45285100  0.71950200  0.71940700  1
  B  B4  1  0.95285100  0.28049800  0.28059300  1
  B  B5  1  0.54714900  0.28049800  0.28059300  1
  B  B6  1  0.75000000  0.13256100  0.53664200  1
  B  B7  1  0.25000000  0.00707900  0.77265300  1
  O  O0  1  0.39206100  0.86079400  0.84504300  1
  O  O1  1  0.10793900  0.86079400  0.84504300  1
  O  O2  1  0.75000000  0.92533200  0.44987800  1
  O  O3  1  0.25000000  0.91935600  0.23969200  1
  O  O4  1  0.38624000  0.71301000  0.53397500  1
  O  O5  1  0.11376000  0.71301000  0.53397500  1
  O  O6  1  0.75000000  0.77779900  0.15100300  1
  O  O7  1  0.91920100  0.58558900  0.78112400  1
  O  O8  1  0.58079900  0.58558900  0.78112400  1
  O  O9  1  0.08079900  0.41441100  0.21887600  1
  O  O10  1  0.41920100  0.41441100  0.21887600  1
  O  O11  1  0.25000000  0.22220100  0.84899700  1
  O  O12  1  0.88624000  0.28699000  0.46602500  1
  O  O13  1  0.61376000  0.28699000  0.46602500  1
  O  O14  1  0.75000000  0.08064400  0.76030800  1
  O  O15  1  0.25000000  0.07466800  0.55012200  1
  O  O16  1  0.89206100  0.13920600  0.15495700  1
  O  O17  1  0.60793900  0.13920600  0.15495700  1
loop_
_geom_bond_atom_site_label_1
_geom_bond_atom_site_label_2
_geom_bond_distance
_geom_bond_site_symmetry_2
Li0 O10 1.972543 1_555
Li0 O3 1.990573 1_555
Li0 O0 2.104513 1_554
Li0 O4 2.489678 1_555
Li1 O9 1.972543 1_555
Li1 O3 1.990573 1_555
Li1 O1 2.104513 1_554
Li1 O5 2.489678 1_555
Li2 O2 1.971385 1_555
Li2 O12 2.130726 1_555
Li2 O13 2.130726 1_555
Li2 O8 2.386463 1_555
Li2 O7 2.386463 1_555
Li2 O6 2.391487 1_555
Li3 O15 1.971385 1_555
Li3 O4 2.130726 1_555
Li3 O5 2.130726 1_555
Li3 O9 2.386463 1_555
Li3 O10 2.386463 1_555
Li3 O11 2.391487 1_555
Li4 O7 1.972543 1_555
Li4 O14 1.990573 1_555
Li4 O16 2.104513 1_556
Li4 O12 2.489678 1_555
Li5 O8 1.972543 1_555
Li5 O14 1.990573 1_555
Li5 O17 2.104513 1_556
Li5 O13 2.489678 1_555
Mn0 O6 1.836024 1_556
Mn0 O14 1.891793 1_565
Mn0 O8 1.976583 1_555
Mn0 O7 1.976583 1_555
Mn1 O11 1.836024 1_554
Mn1 O3 1.891793 1_545
Mn1 O9 1.976583 1_555
Mn1 O10 1.976583 1_555
B0 O6 1.450780 1_555
B0 O2 1.456935 1_555
B0 O17 1.524614 1_565
B0 O16 1.524614 1_565
B1 O15 1.447211 1_565
B1 O3 1.462803 1_555
B1 O5 1.505569 1_555
B1 O4 1.505569 1_555
B2 O7 1.375005 1_455
B2 O5 1.379748 1_555
B2 O1 1.402064 1_555
B3 O8 1.375005 1_555
B3 O4 1.379748 1_555
B3 O0 1.402064 1_555
B4 O9 1.375005 1_655
B4 O12 1.379748 1_555
B4 O16 1.402064 1_555
B5 O10 1.375005 1_555
B5 O13 1.379748 1_555
B5 O17 1.402064 1_555
B6 O2 1.447211 1_545
B6 O14 1.462803 1_555
B6 O13 1.505569 1_555
B6 O12 1.505569 1_555
B7 O11 1.450780 1_555
B7 O15 1.456935 1_555
B7 O0 1.524614 1_545
B7 O1 1.524614 1_545
