# generated using pymatgen
data_Mn4O7F
_symmetry_space_group_name_H-M   'P 1'
_cell_length_a   10.98842200
_cell_length_b   4.47666100
_cell_length_c   4.97880603
_cell_angle_alpha   89.99348651
_cell_angle_beta   90.00000000
_cell_angle_gamma   90.00000000
_symmetry_Int_Tables_number   1
_chemical_formula_structural   Mn4O7F
_chemical_formula_sum   'Mn8 O14 F2'
_cell_volume   244.91463771
_cell_formula_units_Z   2
loop_
 _symmetry_equiv_pos_site_id
 _symmetry_equiv_pos_as_xyz
  1  'x, y, z'
loop_
 _atom_site_type_symbol
 _atom_site_label
 _atom_site_symmetry_multiplicity
 _atom_site_fract_x
 _atom_site_fract_y
 _atom_site_fract_z
 _atom_site_occupancy
  Mn  Mn0  1  0.42674200  0.99273800  0.51375800  1
  Mn  Mn1  1  0.08205700  0.01341300  0.00363700  1
  Mn  Mn2  1  0.58205700  0.98658700  0.99636300  1
  Mn  Mn3  1  0.92674200  0.00726200  0.48624200  1
  Mn  Mn4  1  0.81870400  0.48034100  0.00524000  1
  Mn  Mn5  1  0.17712600  0.50311100  0.49860600  1
  Mn  Mn6  1  0.31870400  0.51965900  0.99476000  1
  Mn  Mn7  1  0.67712600  0.49688900  0.50139400  1
  O  O0  1  0.05519300  0.23466700  0.66956800  1
  O  O1  1  0.55610500  0.23109600  0.67668000  1
  O  O2  1  0.94340500  0.22899900  0.16491400  1
  O  O3  1  0.19702300  0.27945100  0.17349800  1
  O  O4  1  0.30526600  0.27345800  0.67521500  1
  O  O5  1  0.69374300  0.26079900  0.17435900  1
  O  O6  1  0.80466200  0.25866600  0.67000100  1
  O  O7  1  0.19374300  0.73920100  0.82564100  1
  O  O8  1  0.30466200  0.74133400  0.32999900  1
  O  O9  1  0.69702300  0.72054900  0.82650200  1
  O  O10  1  0.80526600  0.72654200  0.32478500  1
  O  O11  1  0.05610500  0.76890400  0.32332000  1
  O  O12  1  0.44340500  0.77100100  0.83508600  1
  O  O13  1  0.55519300  0.76533300  0.33043200  1
  F  F0  1  0.43997600  0.24596100  0.17341800  1
  F  F1  1  0.93997600  0.75403900  0.82658200  1
loop_
_geom_bond_atom_site_label_1
_geom_bond_atom_site_label_2
_geom_bond_distance
_geom_bond_site_symmetry_2
Mn0 O12 1.891549 1_555
Mn0 O1 1.953820 1_565
Mn0 O13 1.965179 1_555
Mn0 O8 1.975715 1_555
Mn0 O4 2.001864 1_565
Mn1 O3 1.931256 1_555
Mn1 O7 1.949013 1_544
Mn1 O11 1.952526 1_545
Mn1 O0 1.958127 1_554
Mn1 O2 1.974238 1_455
Mn2 O9 1.931256 1_555
Mn2 O5 1.949013 1_566
Mn2 O1 1.952526 1_565
Mn2 O13 1.958127 1_556
Mn2 O12 1.974238 1_555
Mn3 O2 1.891549 1_555
Mn3 O11 1.953820 1_645
Mn3 O0 1.965179 1_655
Mn3 O6 1.975715 1_555
Mn3 O10 2.001864 1_545
Mn4 O5 1.886846 1_555
Mn4 O9 1.932830 1_554
Mn4 O10 1.941156 1_555
Mn4 O2 1.943051 1_555
Mn4 O6 1.948033 1_554
Mn5 O3 1.915907 1_555
Mn5 O7 1.949856 1_555
Mn5 O8 1.950838 1_555
Mn5 O4 1.952571 1_555
Mn5 O11 1.986359 1_555
Mn5 O0 1.990892 1_555
Mn6 O7 1.886846 1_555
Mn6 O3 1.932830 1_556
Mn6 O4 1.941156 1_555
Mn6 O12 1.943051 1_555
Mn6 O8 1.948033 1_556
Mn7 O9 1.915907 1_555
Mn7 O5 1.949856 1_555
Mn7 O6 1.950838 1_555
Mn7 O10 1.952571 1_555
Mn7 O1 1.986359 1_555
Mn7 O13 1.990892 1_555
F0 Mn6 2.016929 1_554
F0 Mn0 2.043778 1_545
F0 Mn2 2.136124 1_544
F1 Mn4 2.016929 1_556
F1 Mn3 2.043778 1_565
F1 Mn1 2.136124 1_666
