# generated using pymatgen
data_MnCo3O8
_symmetry_space_group_name_H-M   'P 1'
_cell_length_a   5.62628201
_cell_length_b   5.62639551
_cell_length_c   8.70885511
_cell_angle_alpha   90.01132690
_cell_angle_beta   90.00708149
_cell_angle_gamma   119.99604641
_symmetry_Int_Tables_number   1
_chemical_formula_structural   MnCo3O8
_chemical_formula_sum   'Mn2 Co6 O16'
_cell_volume   238.75953777
_cell_formula_units_Z   2
loop_
 _symmetry_equiv_pos_site_id
 _symmetry_equiv_pos_as_xyz
  1  'x, y, z'
loop_
 _atom_site_type_symbol
 _atom_site_label
 _atom_site_symmetry_multiplicity
 _atom_site_fract_x
 _atom_site_fract_y
 _atom_site_fract_z
 _atom_site_occupancy
  Mn  Mn0  1  0.33332300  0.66667100  0.48537200  1
  Mn  Mn1  1  0.66661900  0.33329800  0.98527600  1
  Co  Co0  1  0.16749400  0.83264000  0.20926600  1
  Co  Co1  1  0.16746600  0.33491200  0.20925600  1
  Co  Co2  1  0.66526200  0.83262000  0.20928800  1
  Co  Co3  1  0.33487900  0.16743900  0.70903400  1
  Co  Co4  1  0.83253000  0.66512900  0.70904000  1
  Co  Co5  1  0.83259700  0.16748800  0.70901100  1
  O  O0  1  0.16399500  0.83588900  0.60501000  1
  O  O1  1  0.03821700  0.51918500  0.33727500  1
  O  O2  1  0.33332000  0.66661900  0.09836400  1
  O  O3  1  0.00018400  0.00019000  0.32044200  1
  O  O4  1  0.00007700  0.00009500  0.82020000  1
  O  O5  1  0.16403600  0.32814800  0.60499800  1
  O  O6  1  0.48094400  0.96171600  0.33723700  1
  O  O7  1  0.48100300  0.51919900  0.33722500  1
  O  O8  1  0.32794900  0.16393900  0.10495100  1
  O  O9  1  0.67161900  0.83581800  0.60510700  1
  O  O10  1  0.51925200  0.48088100  0.83702100  1
  O  O11  1  0.51929600  0.03840000  0.83699700  1
  O  O12  1  0.66654900  0.33327900  0.59800600  1
  O  O13  1  0.83588900  0.67177300  0.10519500  1
  O  O14  1  0.96163700  0.48086100  0.83701600  1
  O  O15  1  0.83586500  0.16401300  0.10513600  1
loop_
_geom_bond_atom_site_label_1
_geom_bond_atom_site_label_2
_geom_bond_distance
_geom_bond_site_symmetry_2
Mn0 O1 1.931386 1_555
Mn0 O6 1.931942 1_555
Mn0 O7 1.931996 1_555
Mn0 O9 1.950314 1_555
Mn0 O0 1.951011 1_555
Mn0 O5 1.951260 1_555
Mn1 O11 1.931671 1_555
Mn1 O10 1.931974 1_555
Mn1 O14 1.932508 1_555
Mn1 O13 1.951898 1_556
Mn1 O8 1.952028 1_556
Mn1 O15 1.952058 1_556
Co0 O13 1.852651 1_455
Co0 O8 1.852879 1_565
Co0 O2 1.883372 1_555
Co0 O6 1.896895 1_555
Co0 O3 1.897207 1_565
Co0 O1 1.897516 1_555
Co1 O15 1.852856 1_455
Co1 O8 1.853138 1_555
Co1 O2 1.883122 1_555
Co1 O3 1.897056 1_555
Co1 O7 1.897151 1_555
Co1 O1 1.897458 1_555
Co2 O13 1.852287 1_555
Co2 O15 1.852564 1_565
Co2 O2 1.883759 1_555
Co2 O6 1.896774 1_555
Co2 O7 1.897096 1_555
Co2 O3 1.897260 1_665
Co3 O0 1.852226 1_545
Co3 O5 1.852449 1_555
Co3 O12 1.883512 1_555
Co3 O10 1.896921 1_555
Co3 O11 1.897065 1_555
Co3 O4 1.897238 1_555
Co4 O9 1.852210 1_555
Co4 O0 1.852300 1_655
Co4 O12 1.883858 1_555
Co4 O10 1.896735 1_555
Co4 O14 1.896828 1_555
Co4 O4 1.897464 1_665
Co5 O5 1.852110 1_655
Co5 O9 1.852205 1_545
Co5 O12 1.883870 1_555
Co5 O14 1.896749 1_555
Co5 O11 1.896773 1_555
Co5 O4 1.897390 1_655
