# generated using pymatgen
data_Sc2Ti2O7
_symmetry_space_group_name_H-M   'P 1'
_cell_length_a   5.09827200
_cell_length_b   7.36407900
_cell_length_c   25.93184678
_cell_angle_alpha   81.94655177
_cell_angle_beta   90.00000000
_cell_angle_gamma   90.00000000
_symmetry_Int_Tables_number   1
_chemical_formula_structural   Sc2Ti2O7
_chemical_formula_sum   'Sc16 Ti16 O56'
_cell_volume   963.98557036
_cell_formula_units_Z   8
loop_
 _symmetry_equiv_pos_site_id
 _symmetry_equiv_pos_as_xyz
  1  'x, y, z'
loop_
 _atom_site_type_symbol
 _atom_site_label
 _atom_site_symmetry_multiplicity
 _atom_site_fract_x
 _atom_site_fract_y
 _atom_site_fract_z
 _atom_site_occupancy
  Sc  Sc0  1  0.75168800  0.83153600  0.80304200  1
  Sc  Sc1  1  0.23492400  0.78230600  0.93136800  1
  Sc  Sc2  1  0.83232500  0.85650700  0.27778400  1
  Sc  Sc3  1  0.25640500  0.67758400  0.70134700  1
  Sc  Sc4  1  0.28261800  0.77172700  0.46658700  1
  Sc  Sc5  1  0.73564100  0.71653400  0.56915300  1
  Sc  Sc6  1  0.77919400  0.72985400  0.03385700  1
  Sc  Sc7  1  0.32103700  0.63841700  0.22102800  1
  Sc  Sc8  1  0.82103700  0.36158300  0.77897200  1
  Sc  Sc9  1  0.27919400  0.27014600  0.96614300  1
  Sc  Sc10  1  0.23564100  0.28346600  0.43084700  1
  Sc  Sc11  1  0.78261800  0.22827300  0.53341300  1
  Sc  Sc12  1  0.75640500  0.32241600  0.29865300  1
  Sc  Sc13  1  0.33232500  0.14349300  0.72221600  1
  Sc  Sc14  1  0.73492400  0.21769400  0.06863200  1
  Sc  Sc15  1  0.25168800  0.16846400  0.19695800  1
  Ti  Ti0  1  0.77811200  0.93025300  0.66390100  1
  Ti  Ti1  1  0.26688300  0.96986800  0.56347000  1
  Ti  Ti2  1  0.25920100  0.96513100  0.05960300  1
  Ti  Ti3  1  0.76173900  0.52901000  0.93796700  1
  Ti  Ti4  1  0.27046400  0.56957000  0.83723900  1
  Ti  Ti5  1  0.75958600  0.91577200  0.16054300  1
  Ti  Ti6  1  0.76147900  0.53520600  0.44005300  1
  Ti  Ti7  1  0.76468800  0.41420900  0.66152400  1
  Ti  Ti8  1  0.26468800  0.58579100  0.33847600  1
  Ti  Ti9  1  0.26147900  0.46479400  0.55994700  1
  Ti  Ti10  1  0.25958600  0.08422800  0.83945700  1
  Ti  Ti11  1  0.77046400  0.43043000  0.16276100  1
  Ti  Ti12  1  0.26173900  0.47099000  0.06203300  1
  Ti  Ti13  1  0.75920100  0.03486900  0.94039700  1
  Ti  Ti14  1  0.76688300  0.03013200  0.43653000  1
  Ti  Ti15  1  0.27811200  0.06974700  0.33609900  1
  O  O0  1  0.05037900  0.93485200  0.98794200  1
  O  O1  1  0.95043300  0.98056700  0.88494200  1
  O  O2  1  0.45947800  0.85815700  0.61893100  1
  O  O3  1  0.91697900  0.00529700  0.58750000  1
  O  O4  1  0.57800400  0.85085000  0.72736500  1
  O  O5  1  0.39920300  0.82434100  0.85081400  1
  O  O6  1  0.10417700  0.95550300  0.68973200  1
  O  O7  1  0.62026100  0.77128100  0.95743000  1
  O  O8  1  0.54673400  0.92355400  0.51397100  1
  O  O9  1  0.95223300  0.64088600  0.88210100  1
  O  O10  1  0.04612300  0.57589900  0.98681700  1
  O  O11  1  0.07333900  0.65385800  0.77463900  1
  O  O12  1  0.54940600  0.95719900  0.21555900  1
  O  O13  1  0.90370700  0.67391800  0.65270600  1
  O  O14  1  0.12136500  0.72827700  0.54331900  1
  O  O15  1  0.13061100  0.83276400  0.33472200  1
  O  O16  1  0.88676800  0.78225400  0.44027700  1
  O  O17  1  0.05098900  0.86080500  0.20732500  1
  O  O18  1  0.59601100  0.54984500  0.81074700  1
  O  O19  1  0.91749700  0.90276400  0.08800100  1
  O  O20  1  0.41265800  0.49422900  0.91321700  1
  O  O21  1  0.55147900  0.56627600  0.51169800  1
  O  O22  1  0.92238300  0.40014100  0.58925800  1
  O  O23  1  0.46038400  0.51808300  0.61432700  1
  O  O24  1  0.38477900  0.71820500  0.06007800  1
  O  O25  1  0.03776800  0.55373900  0.28358800  1
  O  O26  1  0.04159500  0.35487800  0.71053600  1
  O  O27  1  0.62657200  0.66821400  0.16529700  1
  O  O28  1  0.12657200  0.33178600  0.83470300  1
  O  O29  1  0.54159500  0.64512200  0.28946400  1
  O  O30  1  0.53776800  0.44626100  0.71641200  1
  O  O31  1  0.88477900  0.28179500  0.93992200  1
  O  O32  1  0.96038400  0.48191700  0.38567300  1
  O  O33  1  0.42238300  0.59985900  0.41074200  1
  O  O34  1  0.05147900  0.43372400  0.48830200  1
  O  O35  1  0.91265800  0.50577100  0.08678300  1
  O  O36  1  0.41749700  0.09723600  0.91199900  1
  O  O37  1  0.09601100  0.45015500  0.18925300  1
  O  O38  1  0.55098900  0.13919500  0.79267500  1
  O  O39  1  0.38676800  0.21774600  0.55972300  1
  O  O40  1  0.63061100  0.16723600  0.66527800  1
  O  O41  1  0.62136500  0.27172300  0.45668100  1
  O  O42  1  0.40370700  0.32608200  0.34729400  1
  O  O43  1  0.04940600  0.04280100  0.78444100  1
  O  O44  1  0.57333900  0.34614200  0.22536100  1
  O  O45  1  0.54612300  0.42410100  0.01318300  1
  O  O46  1  0.45223300  0.35911400  0.11789900  1
  O  O47  1  0.04673400  0.07644600  0.48602900  1
  O  O48  1  0.12026100  0.22871900  0.04257000  1
  O  O49  1  0.60417700  0.04449700  0.31026800  1
  O  O50  1  0.89920300  0.17565900  0.14918600  1
  O  O51  1  0.07800400  0.14915000  0.27263500  1
  O  O52  1  0.41697900  0.99470300  0.41250000  1
  O  O53  1  0.95947800  0.14184300  0.38106900  1
  O  O54  1  0.45043300  0.01943300  0.11505800  1
  O  O55  1  0.55037900  0.06514800  0.01205800  1
loop_
_geom_bond_atom_site_label_1
_geom_bond_atom_site_label_2
_geom_bond_distance
_geom_bond_site_symmetry_2
O0 Ti13 2.002975 1_465
O0 Ti2 2.180033 1_556
O0 Sc1 2.182022 1_555
O0 Sc6 2.259316 1_456
O1 Ti13 1.827445 1_565
O1 Ti10 2.050835 1_665
O1 Sc1 2.278646 1_655
O1 Sc0 2.719344 1_555
O2 Ti1 1.837882 1_555
O2 Ti0 2.110502 1_555
O2 Sc5 2.261302 1_555
O2 Sc3 2.571276 1_555
O3 Ti1 1.919440 1_645
O3 Ti0 2.103589 1_545
O3 Sc11 2.118340 1_555
O3 Sc5 2.426200 1_545
O4 Ti0 1.954878 1_555
O4 Sc0 2.139462 1_555
O4 Sc3 2.238916 1_555
O4 Sc13 2.479976 1_565
O5 Ti10 2.024404 1_565
O5 Ti4 2.063909 1_555
O5 Sc0 2.179110 1_555
O5 Sc1 2.231518 1_555
O6 Ti0 1.811528 1_455
O6 Sc13 2.075034 1_565
O6 Sc3 2.170017 1_555
O7 Ti3 2.051907 1_555
O7 Ti13 2.055343 1_565
O7 Sc1 2.075437 1_555
O7 Sc6 2.123233 1_556
O8 Ti1 1.980467 1_555
O8 Sc5 2.165207 1_555
O8 Sc4 2.226658 1_555
O8 Ti14 2.338145 1_565
O8 Sc11 2.655720 1_565
O9 Ti3 1.840189 1_555
O9 Ti4 2.105390 1_655
O9 Sc1 2.273050 1_655
O9 Sc0 2.532407 1_555
O10 Ti3 1.987111 1_455
O10 Sc1 2.166117 1_555
O10 Sc6 2.238937 1_456
O10 Ti12 2.277594 1_556
O10 Sc9 2.665944 1_555
O11 Ti4 1.936021 1_555
O11 Sc3 2.102579 1_555
O11 Sc0 2.283348 1_455
O11 Sc8 2.496396 1_455
O12 Ti5 1.843536 1_555
O12 Sc15 2.178690 1_565
O12 Sc2 2.213329 1_555
O12 Sc7 2.606399 1_555
O13 Ti7 2.022328 1_555
O13 Ti0 2.052105 1_555
O13 Sc3 2.198777 1_655
O13 Sc5 2.310123 1_555
O14 Ti9 2.055866 1_555
O14 Ti1 2.061342 1_555
O14 Sc5 2.075396 1_455
O14 Sc4 2.135221 1_555
O15 Ti15 1.905211 1_565
O15 Ti8 1.932588 1_555
O15 Sc2 2.109732 1_455
O16 Ti14 1.914518 1_565
O16 Ti6 1.928935 1_555
O16 Sc4 2.128288 1_655
O17 Ti5 1.924873 1_455
O17 Sc7 2.130900 1_555
O17 Sc2 2.136822 1_455
O17 Sc15 2.466099 1_565
O18 Ti4 1.809891 1_555
O18 Sc8 2.058455 1_555
O18 Sc0 2.203823 1_555
O19 Ti2 1.921818 1_655
O19 Ti5 2.060710 1_555
O19 Sc6 2.142622 1_555
O19 Sc14 2.484118 1_565
O20 Ti3 1.921186 1_555
O20 Ti4 2.099753 1_555
O20 Sc9 2.105974 1_555
O20 Sc1 2.413057 1_555
O21 Ti9 2.011945 1_555
O21 Ti6 2.183911 1_555
O21 Sc5 2.188079 1_555
O21 Sc4 2.245102 1_555
O22 Ti9 1.921400 1_655
O22 Ti7 2.055077 1_555
O22 Sc11 2.172636 1_555
O22 Sc5 2.503300 1_555
O23 Ti9 1.823728 1_555
O23 Ti7 2.056130 1_555
O23 Sc5 2.235547 1_555
O23 Sc3 2.880272 1_555
O24 Ti12 1.919496 1_555
O24 Ti2 1.926210 1_555
O24 Sc6 2.120570 1_555
O25 Ti8 1.874615 1_555
O25 Sc7 2.196111 1_555
O25 Sc12 2.219389 1_455
O25 Sc2 2.448843 1_455
O26 Ti7 1.908848 1_455
O26 Sc8 2.107338 1_455
O26 Sc13 2.140044 1_555
O26 Sc3 2.597099 1_555
O27 Ti11 1.908133 1_555
O27 Ti5 1.932761 1_555
O27 Sc7 2.115266 1_555
O28 Ti4 1.908133 1_555
O28 Ti10 1.932761 1_555
O28 Sc8 2.115266 1_455
O29 Ti8 1.908848 1_555
O29 Sc7 2.107338 1_555
O29 Sc2 2.140044 1_555
O29 Sc12 2.597099 1_555
O30 Ti7 1.874615 1_555
O30 Sc8 2.196111 1_555
O30 Sc3 2.219389 1_555
O30 Sc13 2.448843 1_555
O31 Ti3 1.919496 1_555
O31 Ti13 1.926210 1_555
O31 Sc9 2.120570 1_655
O32 Ti6 1.823728 1_555
O32 Ti8 2.056130 1_655
O32 Sc10 2.235547 1_655
O32 Sc12 2.880272 1_555
O33 Ti6 1.921400 1_555
O33 Ti8 2.055077 1_555
O33 Sc4 2.172636 1_555
O33 Sc10 2.503300 1_555
O34 Ti6 2.011945 1_455
O34 Ti9 2.183911 1_555
O34 Sc10 2.188079 1_555
O34 Sc11 2.245102 1_455
O35 Ti12 1.921186 1_655
O35 Ti11 2.099753 1_555
O35 Sc6 2.105974 1_555
O35 Sc14 2.413057 1_555
O36 Ti13 1.921818 1_555
O36 Ti10 2.060710 1_555
O36 Sc9 2.142622 1_555
O36 Sc1 2.484118 1_545
O37 Ti11 1.809891 1_455
O37 Sc7 2.058455 1_555
O37 Sc15 2.203823 1_555
O38 Ti10 1.924873 1_555
O38 Sc8 2.130900 1_555
O38 Sc13 2.136822 1_555
O38 Sc0 2.466099 1_545
O39 Ti1 1.914518 1_545
O39 Ti9 1.928935 1_555
O39 Sc11 2.128288 1_555
O40 Ti0 1.905211 1_545
O40 Ti7 1.932588 1_555
O40 Sc13 2.109732 1_555
O41 Ti6 2.055866 1_555
O41 Ti14 2.061342 1_555
O41 Sc10 2.075396 1_555
O41 Sc11 2.135221 1_555
O42 Ti8 2.022328 1_555
O42 Ti15 2.052105 1_555
O42 Sc12 2.198777 1_555
O42 Sc10 2.310123 1_555
O43 Ti10 1.843536 1_555
O43 Sc0 2.178690 1_445
O43 Sc13 2.213329 1_555
O43 Sc8 2.606399 1_455
O44 Ti11 1.936021 1_555
O44 Sc12 2.102579 1_555
O44 Sc15 2.283348 1_555
O44 Sc7 2.496396 1_555
O45 Ti12 1.987111 1_555
O45 Sc14 2.166117 1_555
O45 Sc9 2.238937 1_554
O45 Ti3 2.277594 1_554
O45 Sc6 2.665944 1_555
O46 Ti12 1.840189 1_555
O46 Ti11 2.105390 1_555
O46 Sc14 2.273050 1_555
O46 Sc15 2.532407 1_555
O47 Ti14 1.980467 1_455
O47 Sc10 2.165207 1_555
O47 Sc11 2.226658 1_455
O47 Ti1 2.338145 1_545
O47 Sc4 2.655720 1_545
O48 Ti12 2.051907 1_555
O48 Ti2 2.055343 1_545
O48 Sc14 2.075437 1_455
O48 Sc9 2.123233 1_554
O49 Ti15 1.811528 1_555
O49 Sc2 2.075034 1_545
O49 Sc12 2.170017 1_555
O50 Ti5 2.024404 1_545
O50 Ti11 2.063909 1_555
O50 Sc15 2.179110 1_655
O50 Sc14 2.231518 1_555
O51 Ti15 1.954878 1_555
O51 Sc15 2.139462 1_555
O51 Sc12 2.238916 1_455
O51 Sc2 2.479976 1_445
O52 Ti14 1.919440 1_565
O52 Ti15 2.103589 1_565
O52 Sc4 2.118340 1_555
O52 Sc10 2.426200 1_565
O53 Ti14 1.837882 1_555
O53 Ti15 2.110502 1_655
O53 Sc10 2.261302 1_655
O53 Sc12 2.571276 1_555
O54 Ti2 1.827445 1_545
O54 Ti5 2.050835 1_545
O54 Sc14 2.278646 1_555
O54 Sc15 2.719344 1_555
O55 Ti2 2.002975 1_545
O55 Ti13 2.180033 1_554
O55 Sc14 2.182022 1_555
O55 Sc9 2.259316 1_554
