# generated using pymatgen
data_KLiMnP3HO10
_symmetry_space_group_name_H-M   'P 1'
_cell_length_a   7.36761500
_cell_length_b   7.44306166
_cell_length_c   9.56962647
_cell_angle_alpha   70.51963443
_cell_angle_beta   72.82439535
_cell_angle_gamma   72.71961954
_symmetry_Int_Tables_number   1
_chemical_formula_structural   KLiMnP3HO10
_chemical_formula_sum   'K2 Li2 Mn2 P6 H2 O20'
_cell_volume   461.04256965
_cell_formula_units_Z   2
loop_
 _symmetry_equiv_pos_site_id
 _symmetry_equiv_pos_as_xyz
  1  'x, y, z'
loop_
 _atom_site_type_symbol
 _atom_site_label
 _atom_site_symmetry_multiplicity
 _atom_site_fract_x
 _atom_site_fract_y
 _atom_site_fract_z
 _atom_site_occupancy
  K  K0  1  0.42602800  0.54929000  0.19336700  1
  K  K1  1  0.58621800  0.43724600  0.78976900  1
  Li  Li0  1  0.35480400  0.76700300  0.48364300  1
  Li  Li1  1  0.99841200  0.12298400  0.51096400  1
  Mn  Mn0  1  0.00602000  0.49151500  0.00360200  1
  Mn  Mn1  1  0.50350900  0.03585400  0.50469500  1
  P  P0  1  0.24857200  0.10337300  0.22181800  1
  P  P1  1  0.16779500  0.30463900  0.69119700  1
  P  P2  1  0.16471800  0.88090800  0.79978800  1
  P  P3  1  0.83976800  0.11966600  0.19821000  1
  P  P4  1  0.81223700  0.70016400  0.30661700  1
  P  P5  1  0.75178400  0.88392300  0.78843100  1
  H  H0  1  0.98558300  0.51719800  0.48163300  1
  H  H1  1  0.52620400  0.99207100  0.98133500  1
  O  O0  1  0.01484700  0.08303900  0.27914200  1
  O  O1  1  0.99644300  0.62838100  0.38094600  1
  O  O2  1  0.24542700  0.31445300  0.12952600  1
  O  O3  1  0.17712800  0.08227000  0.81476800  1
  O  O4  1  0.27400100  0.05292700  0.38744900  1
  O  O5  1  0.15822800  0.43619300  0.78543400  1
  O  O6  1  0.35742000  0.29305500  0.56972900  1
  O  O7  1  0.15052600  0.73009800  0.94956800  1
  O  O8  1  0.37246400  0.94883500  0.14122000  1
  O  O9  1  0.65561300  0.18798900  0.30588800  1
  O  O10  1  0.32938400  0.82418400  0.67122400  1
  O  O11  1  0.61699700  0.03757100  0.87768200  1
  O  O12  1  0.87136200  0.25378000  0.04110200  1
  O  O13  1  0.62645000  0.73654900  0.42668800  1
  O  O14  1  0.81330400  0.57370500  0.21189200  1
  O  O15  1  0.71620600  0.93956100  0.63032700  1
  O  O16  1  0.84856700  0.90727900  0.18681400  1
  O  O17  1  0.75797800  0.67753300  0.88603900  1
  O  O18  1  0.98940600  0.34090400  0.62288900  1
  O  O19  1  0.96782400  0.93826600  0.73721600  1
loop_
_geom_bond_atom_site_label_1
_geom_bond_atom_site_label_2
_geom_bond_distance
_geom_bond_site_symmetry_2
K0 O8 2.770879 1_555
K0 O9 2.773866 1_555
K0 O2 2.788004 1_555
K0 O14 2.972212 1_555
K0 O1 3.135053 1_455
K0 O7 3.233304 1_554
K0 O17 3.287626 1_554
K1 O11 2.766109 1_555
K1 O18 2.930045 1_555
K1 O17 2.963244 1_555
K1 O10 3.002174 1_555
K1 O5 3.168126 1_555
Li0 O13 1.876864 1_555
Li0 O10 1.924103 1_555
Li0 O4 1.998796 1_565
Li1 O4 2.038706 1_655
Li1 O19 2.130583 1_545
Li1 O18 2.198926 1_555
Li1 O0 2.298794 1_655
Li1 O15 2.595233 1_545
Mn0 O12 2.157141 1_455
Mn0 O5 2.168468 1_554
Mn0 O7 2.177142 1_554
Mn0 O14 2.233621 1_455
Mn0 O2 2.261695 1_555
Mn0 O17 2.279144 1_454
Mn1 O9 2.053155 1_555
Mn1 O15 2.070154 1_545
Mn1 O6 2.094153 1_555
Mn1 O10 2.233000 1_545
Mn1 O4 2.243216 1_555
Mn1 O13 2.419004 1_545
H0 O1 1.040009 1_555
H0 O18 1.538619 1_555
H1 O11 1.031852 1_565
H1 O8 1.610025 1_556
O0 P3 1.605715 1_455
O0 P0 1.682456 1_555
O1 P4 1.587189 1_555
O2 P0 1.521139 1_555
O3 P2 1.583544 1_545
O3 P1 1.678539 1_555
O4 P0 1.557256 1_555
O5 P1 1.512416 1_555
O6 P1 1.531867 1_555
O7 P2 1.494489 1_555
O8 P0 1.517655 1_565
O9 P3 1.508360 1_555
O10 P2 1.524587 1_555
O11 P5 1.580928 1_545
O12 P3 1.497133 1_555
O13 P4 1.525014 1_555
O14 P4 1.506046 1_555
O15 P5 1.510366 1_555
O16 P3 1.601555 1_565
O16 P4 1.627145 1_555
O17 P5 1.503629 1_555
O18 P1 1.551293 1_655
O19 P2 1.618565 1_655
O19 P5 1.651317 1_555
