# generated using pymatgen
data_CoH15N7ClO5
_symmetry_space_group_name_H-M   'P 1'
_cell_length_a   8.91237700
_cell_length_b   10.29302300
_cell_length_c   15.96756000
_cell_angle_alpha   90.00000000
_cell_angle_beta   90.00000000
_cell_angle_gamma   90.00000000
_symmetry_Int_Tables_number   1
_chemical_formula_structural   CoH15N7ClO5
_chemical_formula_sum   'Co4 H60 N28 Cl4 O20'
_cell_volume   1464.78892995
_cell_formula_units_Z   4
loop_
 _symmetry_equiv_pos_site_id
 _symmetry_equiv_pos_as_xyz
  1  'x, y, z'
loop_
 _atom_site_type_symbol
 _atom_site_label
 _atom_site_symmetry_multiplicity
 _atom_site_fract_x
 _atom_site_fract_y
 _atom_site_fract_z
 _atom_site_occupancy
  Co  Co0  1  0.71550000  0.24666900  0.36400700  1
  Co  Co1  1  0.21550000  0.75333100  0.63599300  1
  Co  Co2  1  0.21550000  0.74666900  0.13599300  1
  Co  Co3  1  0.71550000  0.25333100  0.86400700  1
  H  H0  1  0.85560400  0.03914900  0.39615400  1
  H  H1  1  0.35560400  0.96085100  0.60384600  1
  H  H2  1  0.35560400  0.53914900  0.10384600  1
  H  H3  1  0.85560400  0.46085100  0.89615400  1
  H  H4  1  0.71887500  0.00618600  0.32551600  1
  H  H5  1  0.21887500  0.99381400  0.67448400  1
  H  H6  1  0.21887500  0.50618600  0.17448400  1
  H  H7  1  0.71887500  0.49381400  0.82551600  1
  H  H8  1  0.51514300  0.96612900  0.43598000  1
  H  H9  1  0.01514300  0.03387100  0.56402000  1
  H  H10  1  0.01514300  0.46612900  0.06402000  1
  H  H11  1  0.51514300  0.53387100  0.93598000  1
  H  H12  1  0.92687800  0.27416900  0.21291200  1
  H  H13  1  0.42687800  0.72583100  0.78708800  1
  H  H14  1  0.42687800  0.77416900  0.28708800  1
  H  H15  1  0.92687800  0.22583100  0.71291200  1
  H  H16  1  0.34065700  0.39209700  0.49677800  1
  H  H17  1  0.84065700  0.60790300  0.50322200  1
  H  H18  1  0.84065700  0.89209700  0.00322200  1
  H  H19  1  0.34065700  0.10790300  0.99677800  1
  H  H20  1  0.94899500  0.22128100  0.24315100  1
  H  H21  1  0.44899500  0.77871900  0.75684900  1
  H  H22  1  0.44899500  0.72128100  0.25684900  1
  H  H23  1  0.94899500  0.27871900  0.74315100  1
  H  H24  1  0.43529300  0.40989600  0.33795100  1
  H  H25  1  0.93529300  0.59010400  0.66204900  1
  H  H26  1  0.93529300  0.90989600  0.16204900  1
  H  H27  1  0.43529300  0.09010400  0.83795100  1
  H  H28  1  0.61826700  0.37475200  0.13160300  1
  H  H29  1  0.11826700  0.62524800  0.86839700  1
  H  H30  1  0.11826700  0.87475200  0.36839700  1
  H  H31  1  0.61826700  0.12524800  0.63160300  1
  H  H32  1  0.46007500  0.18473100  0.28991900  1
  H  H33  1  0.96007500  0.81526900  0.71008100  1
  H  H34  1  0.96007500  0.68473100  0.21008100  1
  H  H35  1  0.46007500  0.31526900  0.78991900  1
  H  H36  1  0.47361200  0.28294500  0.45206400  1
  H  H37  1  0.97361200  0.71705500  0.54793600  1
  H  H38  1  0.97361200  0.78294500  0.04793600  1
  H  H39  1  0.47361200  0.21705500  0.95206400  1
  H  H40  1  0.42871800  0.47134400  0.36319300  1
  H  H41  1  0.92871800  0.52865600  0.63680700  1
  H  H42  1  0.92871800  0.97134400  0.13680700  1
  H  H43  1  0.42871800  0.02865600  0.86319300  1
  H  H44  1  0.74673700  0.20291000  0.51526700  1
  H  H45  1  0.24673700  0.79709000  0.48473300  1
  H  H46  1  0.24673700  0.70291000  0.98473300  1
  H  H47  1  0.74673700  0.29709000  0.01526700  1
  H  H48  1  0.97828600  0.16957300  0.52738100  1
  H  H49  1  0.47828600  0.83042700  0.47261900  1
  H  H50  1  0.47828600  0.66957300  0.97261900  1
  H  H51  1  0.97828600  0.33042700  0.02738100  1
  H  H52  1  0.14655200  0.39696400  0.39495600  1
  H  H53  1  0.64655200  0.60303600  0.60504400  1
  H  H54  1  0.64655200  0.89696400  0.10504400  1
  H  H55  1  0.14655200  0.10303600  0.89495600  1
  H  H56  1  0.77369100  0.36053500  0.49282200  1
  H  H57  1  0.27369100  0.63946500  0.50717800  1
  H  H58  1  0.27369100  0.86053500  0.00717800  1
  H  H59  1  0.77369100  0.13946500  0.99282200  1
  N  N0  1  0.72309100  0.44204300  0.35543900  1
  N  N1  1  0.22309100  0.55795700  0.64456100  1
  N  N2  1  0.22309100  0.94204300  0.14456100  1
  N  N3  1  0.72309100  0.05795700  0.85543900  1
  N  N4  1  0.76441900  0.07409700  0.36435900  1
  N  N5  1  0.26441900  0.92590300  0.63564100  1
  N  N6  1  0.26441900  0.57409700  0.13564100  1
  N  N7  1  0.76441900  0.42590300  0.86435900  1
  N  N8  1  0.45831100  0.21193200  0.07740100  1
  N  N9  1  0.95831100  0.78806800  0.92259900  1
  N  N10  1  0.95831100  0.71193200  0.42259900  1
  N  N11  1  0.45831100  0.28806800  0.57740100  1
  N  N12  1  0.56164500  0.23091600  0.29648200  1
  N  N13  1  0.06164500  0.76908400  0.70351800  1
  N  N14  1  0.06164500  0.73091600  0.20351800  1
  N  N15  1  0.56164500  0.26908400  0.79648200  1
  N  N16  1  0.42330200  0.32062400  0.50736300  1
  N  N17  1  0.92330200  0.67937600  0.49263700  1
  N  N18  1  0.92330200  0.82062400  0.99263700  1
  N  N19  1  0.42330200  0.17937600  0.00736300  1
  N  N20  1  0.78208000  0.26743400  0.47112600  1
  N  N21  1  0.28208000  0.73256600  0.52887400  1
  N  N22  1  0.28208000  0.76743400  0.02887400  1
  N  N23  1  0.78208000  0.23256600  0.97112600  1
  N  N24  1  0.71239900  0.54564900  0.11653900  1
  N  N25  1  0.21239900  0.45435100  0.88346100  1
  N  N26  1  0.21239900  0.04564900  0.38346100  1
  N  N27  1  0.71239900  0.95435100  0.61653900  1
  Cl  Cl0  1  0.61540600  0.51192600  0.65740500  1
  Cl  Cl1  1  0.11540600  0.48807400  0.34259500  1
  Cl  Cl2  1  0.11540600  0.01192600  0.84259500  1
  Cl  Cl3  1  0.61540600  0.98807400  0.15740500  1
  O  O0  1  0.75352000  0.48758700  0.28591700  1
  O  O1  1  0.25352000  0.51241300  0.71408300  1
  O  O2  1  0.25352000  0.98758700  0.21408300  1
  O  O3  1  0.75352000  0.01241300  0.78591700  1
  O  O4  1  0.69973800  0.51261300  0.41802000  1
  O  O5  1  0.19973800  0.48738700  0.58198000  1
  O  O6  1  0.19973800  0.01261300  0.08198000  1
  O  O7  1  0.69973800  0.98738700  0.91802000  1
  O  O8  1  0.00238100  0.37551300  0.07979300  1
  O  O9  1  0.50238100  0.62448700  0.92020700  1
  O  O10  1  0.50238100  0.87551300  0.42020700  1
  O  O11  1  0.00238100  0.12448700  0.57979300  1
  O  O12  1  0.59161700  0.45582200  0.10179900  1
  O  O13  1  0.09161700  0.54417800  0.89820100  1
  O  O14  1  0.09161700  0.95582200  0.39820100  1
  O  O15  1  0.59161700  0.04417800  0.60179900  1
  O  O16  1  0.68170700  0.64957200  0.08784200  1
  O  O17  1  0.18170700  0.35042800  0.91215800  1
  O  O18  1  0.18170700  0.14957200  0.41215800  1
  O  O19  1  0.68170700  0.85042800  0.58784200  1
loop_
_geom_bond_atom_site_label_1
_geom_bond_atom_site_label_2
_geom_bond_distance
_geom_bond_site_symmetry_2
Co0 N12 1.751872 1_555
Co0 N20 1.823008 1_555
Co0 N4 1.829019 1_555
Co0 N0 2.016772 1_555
Co1 N13 1.751872 1_555
Co1 N21 1.823008 1_555
Co1 N5 1.829019 1_555
Co1 N1 2.016772 1_555
Co2 N14 1.751872 1_555
Co2 N22 1.823008 1_555
Co2 N6 1.829019 1_555
Co2 N2 2.016772 1_555
Co3 N15 1.751872 1_555
Co3 N23 1.823008 1_555
Co3 N7 1.829019 1_555
Co3 N3 2.016772 1_555
H0 N4 1.023517 1_555
H1 N5 1.023517 1_555
H2 N6 1.023517 1_555
H3 N7 1.023517 1_555
H4 N4 1.018850 1_555
H5 N5 1.018850 1_555
H6 N6 1.018850 1_555
H7 N7 1.018850 1_555
H8 O10 0.972790 1_555
H9 O11 0.972790 1_555
H10 O8 0.972790 1_555
H11 O9 0.972790 1_555
H12 H20 0.753882 1_555
H13 H21 0.753882 1_555
H14 H22 0.753882 1_555
H15 H23 0.753882 1_555
H16 N16 1.054660 1_555
H17 N17 1.054660 1_555
H18 N18 1.054660 1_554
H19 N19 1.054660 1_556
H24 H40 0.752279 1_555
H25 H41 0.752279 1_555
H26 H42 0.752279 1_555
H27 H43 0.752279 1_555
H28 O12 0.989549 1_555
H29 O13 0.989549 1_555
H30 O14 0.989549 1_555
H31 O15 0.989549 1_555
H32 N12 1.027819 1_555
H33 N13 1.027819 1_655
H34 N14 1.027819 1_655
H35 N15 1.027819 1_555
H36 N16 1.063546 1_555
H37 N17 1.063546 1_555
H38 N18 1.063546 1_554
H39 N19 1.063546 1_556
H44 N20 1.018375 1_555
H45 N21 1.018375 1_555
H46 N22 1.018375 1_556
H47 N23 1.018375 1_554
H48 O11 0.980747 1_655
H49 O10 0.980747 1_555
H50 O9 0.980747 1_555
H51 O8 0.980747 1_655
H56 N20 1.021727 1_555
H57 N21 1.021727 1_555
H58 N22 1.021727 1_555
H59 N23 1.021727 1_555
N0 O0 1.235160 1_555
N0 O4 1.252788 1_555
N1 O1 1.235160 1_555
N1 O5 1.252788 1_555
N2 O2 1.235160 1_555
N2 O6 1.252788 1_565
N3 O3 1.235160 1_555
N3 O7 1.252788 1_545
N10 N17 1.208437 1_555
N11 N16 1.208437 1_555
N18 N9 1.208437 1_555
N19 N8 1.208437 1_555
N24 O16 1.195412 1_555
N24 O12 1.438409 1_555
N25 O17 1.195412 1_555
N25 O13 1.438409 1_555
N26 O18 1.195412 1_555
N26 O14 1.438409 1_545
N27 O19 1.195412 1_555
N27 O15 1.438409 1_565
Cl0 H53 1.286679 1_555
Cl1 H52 1.286679 1_555
Cl2 H55 1.286679 1_555
Cl3 H54 1.286679 1_555
