# generated using pymatgen
data_LiP3W2O13
_symmetry_space_group_name_H-M   'P 1'
_cell_length_a   6.46688200
_cell_length_b   7.49744933
_cell_length_c   11.28038370
_cell_angle_alpha   74.91623199
_cell_angle_beta   85.49783823
_cell_angle_gamma   80.48157453
_symmetry_Int_Tables_number   1
_chemical_formula_structural   LiP3W2O13
_chemical_formula_sum   'Li2 P6 W4 O26'
_cell_volume   520.45526947
_cell_formula_units_Z   2
loop_
 _symmetry_equiv_pos_site_id
 _symmetry_equiv_pos_as_xyz
  1  'x, y, z'
loop_
 _atom_site_type_symbol
 _atom_site_label
 _atom_site_symmetry_multiplicity
 _atom_site_fract_x
 _atom_site_fract_y
 _atom_site_fract_z
 _atom_site_occupancy
  Li  Li0  1  0.26524600  0.56592900  0.79537100  1
  Li  Li1  1  0.73475400  0.43407100  0.20462900  1
  P  P0  1  0.11788800  0.47443600  0.30784200  1
  P  P1  1  0.25920500  0.80142600  0.33402100  1
  P  P2  1  0.26158600  0.92583500  0.89233800  1
  P  P3  1  0.73841400  0.07416500  0.10766200  1
  P  P4  1  0.74079500  0.19857400  0.66597900  1
  P  P5  1  0.88211200  0.52556400  0.69215800  1
  W  W0  1  0.22537200  0.21114800  0.08610400  1
  W  W1  1  0.24098300  0.19530000  0.59599900  1
  W  W2  1  0.75901700  0.80470000  0.40400100  1
  W  W3  1  0.77462800  0.78885200  0.91389600  1
  O  O0  1  0.13225700  0.38613000  0.19947000  1
  O  O1  1  0.11349200  0.46180100  0.66145600  1
  O  O2  1  0.07589900  0.78306500  0.42936800  1
  O  O3  1  0.22291700  0.10191700  0.78573600  1
  O  O4  1  0.24613000  0.35197900  0.41626400  1
  O  O5  1  0.09103100  0.79873000  0.90133700  1
  O  O6  1  0.23729700  0.65451500  0.25362100  1
  O  O7  1  0.24992400  0.37869600  0.94500600  1
  O  O8  1  0.27071600  0.98536100  0.01205900  1
  O  O9  1  0.24350300  0.99518500  0.24903800  1
  O  O10  1  0.53350600  0.20582600  0.12767100  1
  O  O11  1  0.30828100  0.96830800  0.58020500  1
  O  O12  1  0.53001000  0.26874400  0.60517800  1
  O  O13  1  0.46999000  0.73125600  0.39482200  1
  O  O14  1  0.69171900  0.03169200  0.41979500  1
  O  O15  1  0.46649400  0.79417400  0.87232900  1
  O  O16  1  0.75649700  0.00481500  0.75096200  1
  O  O17  1  0.72928400  0.01463900  0.98794100  1
  O  O18  1  0.75007600  0.62130400  0.05499400  1
  O  O19  1  0.76270300  0.34548500  0.74637900  1
  O  O20  1  0.90896900  0.20127000  0.09866300  1
  O  O21  1  0.75387000  0.64802100  0.58373600  1
  O  O22  1  0.77708300  0.89808300  0.21426400  1
  O  O23  1  0.92410100  0.21693500  0.57063200  1
  O  O24  1  0.88650800  0.53819900  0.33854400  1
  O  O25  1  0.86774300  0.61387000  0.80053000  1
loop_
_geom_bond_atom_site_label_1
_geom_bond_atom_site_label_2
_geom_bond_distance
_geom_bond_site_symmetry_2
Li0 O7 1.901592 1_555
Li0 O1 2.225861 1_555
Li0 O5 2.443088 1_555
Li0 O25 2.534247 1_455
Li0 O15 2.657613 1_555
Li1 O18 1.901592 1_555
Li1 O24 2.225861 1_555
Li1 O20 2.443088 1_555
Li1 O0 2.534247 1_655
Li1 O10 2.657613 1_555
O0 P0 1.524627 1_555
O0 W0 2.051854 1_555
O1 P5 1.534815 1_455
O1 W1 2.311866 1_555
O2 P1 1.535488 1_555
O2 W2 2.065318 1_455
O3 P2 1.537267 1_545
O3 W1 2.071866 1_555
O4 P0 1.532821 1_555
O4 W1 2.062633 1_555
O5 P2 1.553918 1_555
O5 W3 2.052169 1_455
O6 P0 1.622999 1_555
O6 P1 1.627123 1_555
O7 W0 1.766976 1_556
O8 P2 1.536696 1_554
O8 W0 2.045136 1_565
O9 P1 1.510407 1_555
O9 W0 2.106115 1_565
O10 P3 1.554889 1_555
O10 W0 2.074325 1_555
O11 W1 1.737284 1_565
O12 P4 1.525477 1_555
O12 W1 2.051322 1_555
O13 P1 1.525477 1_555
O13 W2 2.051322 1_555
O14 W2 1.737284 1_545
O15 P2 1.554889 1_555
O15 W3 2.074325 1_555
O16 P4 1.510407 1_555
O16 W3 2.106115 1_545
O17 P3 1.536696 1_556
O17 W3 2.045136 1_545
O18 W3 1.766976 1_554
O19 P5 1.622999 1_555
O19 P4 1.627123 1_555
O20 P3 1.553918 1_555
O20 W0 2.052169 1_655
O21 P5 1.532821 1_555
O21 W2 2.062633 1_555
O22 P3 1.537267 1_565
O22 W2 2.071866 1_555
O23 P4 1.535488 1_555
O23 W1 2.065318 1_655
O24 P0 1.534815 1_655
O24 W2 2.311866 1_555
O25 P5 1.524627 1_555
O25 W3 2.051854 1_555
