# generated using pymatgen
data_Li6NbCr3(PO4)6
_symmetry_space_group_name_H-M   'P 1'
_cell_length_a   8.62630800
_cell_length_b   8.63295587
_cell_length_c   8.74706411
_cell_angle_alpha   61.29162971
_cell_angle_beta   62.15235226
_cell_angle_gamma   62.02203888
_symmetry_Int_Tables_number   1
_chemical_formula_structural   Li6NbCr3(PO4)6
_chemical_formula_sum   'Li6 Nb1 Cr3 P6 O24'
_cell_volume   479.34472977
_cell_formula_units_Z   1
loop_
 _symmetry_equiv_pos_site_id
 _symmetry_equiv_pos_as_xyz
  1  'x, y, z'
loop_
 _atom_site_type_symbol
 _atom_site_label
 _atom_site_symmetry_multiplicity
 _atom_site_fract_x
 _atom_site_fract_y
 _atom_site_fract_z
 _atom_site_occupancy
  Li  Li0  1  0.99162300  0.97184500  0.99675900  1
  Li  Li1  1  0.85235200  0.25458100  0.64103900  1
  Li  Li2  1  0.49060500  0.52447400  0.51021700  1
  Li  Li3  1  0.16136800  0.69854100  0.35397500  1
  Li  Li4  1  0.70588700  0.35040500  0.16267300  1
  Li  Li5  1  0.34861500  0.16976700  0.69875200  1
  Nb  Nb0  1  0.14914700  0.14591000  0.14904100  1
  Cr  Cr0  1  0.85246000  0.85790100  0.86133200  1
  Cr  Cr1  1  0.63973500  0.64147000  0.64624500  1
  Cr  Cr2  1  0.35150400  0.34864500  0.34465800  1
  P  P0  1  0.25094200  0.94428300  0.56338300  1
  P  P1  1  0.94105800  0.56090700  0.25533200  1
  P  P2  1  0.56437200  0.25164400  0.94403200  1
  P  P3  1  0.46138600  0.74770700  0.03791200  1
  P  P4  1  0.03514900  0.46373400  0.75155900  1
  P  P5  1  0.74922000  0.04174000  0.46822500  1
  O  O0  1  0.71254200  0.86946200  0.50531700  1
  O  O1  1  0.48653100  0.70735100  0.87488800  1
  O  O2  1  0.08448600  0.93431100  0.74151400  1
  O  O3  1  0.87985600  0.47087400  0.70401600  1
  O  O4  1  0.40923800  0.75917300  0.57197100  1
  O  O5  1  0.19277900  0.98958200  0.39643600  1
  O  O6  1  0.91495900  0.74655900  0.09691500  1
  O  O7  1  0.76180400  0.55082300  0.42196100  1
  O  O8  1  0.57168100  0.40668100  0.75281000  1
  O  O9  1  0.61512900  0.80878700  0.00813200  1
  O  O10  1  0.26524000  0.90380800  0.07500200  1
  O  O11  1  0.98336700  0.62452500  0.81072100  1
  O  O12  1  0.99080300  0.39306100  0.19553300  1
  O  O13  1  0.75305800  0.09562300  0.91295100  1
  O  O14  1  0.39771600  0.18946000  0.99512400  1
  O  O15  1  0.44323000  0.58198300  0.22340800  1
  O  O16  1  0.22216100  0.45321900  0.59478100  1
  O  O17  1  0.07169400  0.26885100  0.91099600  1
  O  O18  1  0.80565300  0.02687700  0.61885300  1
  O  O19  1  0.58523200  0.22555100  0.44267600  1
  O  O20  1  0.09810500  0.53456200  0.31125000  1
  O  O21  1  0.90639900  0.07139600  0.27529400  1
  O  O22  1  0.54970600  0.30810000  0.09032800  1
  O  O23  1  0.30420400  0.10582300  0.53298700  1
loop_
_geom_bond_atom_site_label_1
_geom_bond_atom_site_label_2
_geom_bond_distance
_geom_bond_site_symmetry_2
Li0 O6 2.004010 1_556
Li0 O13 2.123184 1_565
Li0 O2 2.124142 1_655
Li0 O10 2.491313 1_656
Li0 O17 2.635121 1_665
Li0 O21 2.638247 1_566
Li1 O13 2.082719 1_555
Li1 O8 2.140319 1_555
Li1 O18 2.290561 1_555
Li1 O3 2.317824 1_555
Li1 O7 2.374590 1_555
Li1 O2 2.557683 1_645
Li2 O4 2.062182 1_555
Li2 O8 2.161519 1_555
Li2 O7 2.182671 1_555
Li2 O16 2.363697 1_555
Li2 O15 2.505623 1_555
Li2 O19 2.590843 1_555
Li3 O20 1.965989 1_555
Li3 O15 2.107821 1_555
Li3 O16 2.213883 1_555
Li3 O10 2.278257 1_555
Li4 O22 1.956820 1_555
Li4 O19 2.092501 1_555
Li4 O15 2.249099 1_555
Li4 O21 2.273152 1_555
Li5 O23 2.010030 1_555
Li5 O16 2.071058 1_555
Li5 O19 2.242766 1_555
Li5 O17 2.312988 1_555
Nb0 O5 2.030878 1_545
Nb0 O14 2.030954 1_554
Nb0 O12 2.040521 1_455
Nb0 O17 2.102301 1_554
Nb0 O21 2.106948 1_455
Nb0 O10 2.126322 1_545
Cr0 O11 1.945624 1_555
Cr0 O9 1.963522 1_556
Cr0 O13 2.007044 1_565
Cr0 O18 2.016082 1_565
Cr0 O6 2.027242 1_556
Cr0 O2 2.038259 1_655
Cr1 O0 1.973229 1_555
Cr1 O1 1.997022 1_555
Cr1 O4 2.021148 1_555
Cr1 O8 2.027814 1_555
Cr1 O3 2.028674 1_555
Cr1 O7 2.083684 1_555
Cr2 O23 2.032622 1_555
Cr2 O20 2.072194 1_555
Cr2 O15 2.113701 1_555
Cr2 O22 2.151253 1_555
Cr2 O19 2.158433 1_555
Cr2 O16 2.349134 1_555
O0 P5 1.516369 1_565
O1 P3 1.522910 1_556
O2 P0 1.547221 1_555
O3 P4 1.545846 1_655
O4 P0 1.535281 1_555
O5 P0 1.577627 1_555
O6 P1 1.535850 1_555
O7 P1 1.556219 1_555
O8 P2 1.556596 1_555
O9 P3 1.518631 1_555
O10 P3 1.597498 1_555
O11 P4 1.512129 1_655
O12 P1 1.578734 1_555
O13 P2 1.555247 1_555
O14 P2 1.564634 1_555
O15 P3 1.564207 1_555
O16 P4 1.551353 1_555
O17 P4 1.591800 1_555
O18 P5 1.538698 1_555
O19 P5 1.554862 1_555
O20 P1 1.532763 1_455
O21 P5 1.588963 1_555
O22 P2 1.510348 1_554
O23 P0 1.535400 1_545
