# generated using pymatgen
data_Sc5Si3
_symmetry_space_group_name_H-M   'P 1'
_cell_length_a   7.89501718
_cell_length_b   7.89501607
_cell_length_c   5.84513224
_cell_angle_alpha   90.00000000
_cell_angle_beta   90.00000000
_cell_angle_gamma   119.99999612
_symmetry_Int_Tables_number   1
_chemical_formula_structural   Sc5Si3
_chemical_formula_sum   'Sc10 Si6'
_cell_volume   315.52304706
_cell_formula_units_Z   2
loop_
 _symmetry_equiv_pos_site_id
 _symmetry_equiv_pos_as_xyz
  1  'x, y, z'
loop_
 _atom_site_type_symbol
 _atom_site_label
 _atom_site_symmetry_multiplicity
 _atom_site_fract_x
 _atom_site_fract_y
 _atom_site_fract_z
 _atom_site_occupancy
  Sc  Sc0  1  -0.00000000  0.75845423  0.75000000  1
  Sc  Sc1  1  0.00000000  0.24154577  0.25000000  1
  Sc  Sc2  1  0.75845423  0.75845423  0.25000000  1
  Sc  Sc3  1  0.75845423  0.00000000  0.75000000  1
  Sc  Sc4  1  0.24154577  0.24154577  0.75000000  1
  Sc  Sc5  1  0.24154577  -0.00000000  0.25000000  1
  Sc  Sc6  1  0.33333300  0.66666700  0.50000000  1
  Sc  Sc7  1  0.66666700  0.33333300  -0.00000000  1
  Sc  Sc8  1  0.66666700  0.33333300  0.50000000  1
  Sc  Sc9  1  0.33333300  0.66666700  -0.00000000  1
  Si  Si0  1  0.39468113  -0.00000000  0.75000000  1
  Si  Si1  1  0.39468113  0.39468113  0.25000000  1
  Si  Si2  1  -0.00000000  0.60531887  0.25000000  1
  Si  Si3  1  0.00000000  0.39468113  0.75000000  1
  Si  Si4  1  0.60531887  0.60531887  0.75000000  1
  Si  Si5  1  0.60531887  0.00000000  0.25000000  1
loop_
_geom_bond_atom_site_label_1
_geom_bond_atom_site_label_2
_geom_bond_distance
_geom_bond_site_symmetry_2
Sc0 Si0 2.721022 1_565
Sc0 Si4 2.721022 1_455
Sc0 Si3 2.871994 1_555
Sc0 Si2 3.162766 1_555
Sc0 Si2 3.162766 1_556
Sc1 Si5 2.721022 1_455
Sc1 Si1 2.721022 1_555
Sc1 Si2 2.871994 1_555
Sc1 Si3 3.162766 1_554
Sc1 Si3 3.162766 1_555
Sc2 Si5 2.721022 1_565
Sc2 Si2 2.721022 1_655
Sc2 Si1 2.871995 1_555
Sc2 Si4 3.162766 1_554
Sc2 Si4 3.162766 1_555
Sc3 Si4 2.721022 1_545
Sc3 Si3 2.721022 1_655
Sc3 Si0 2.871995 1_555
Sc3 Si5 3.162766 1_555
Sc3 Si5 3.162766 1_556
Sc4 Si0 2.721022 1_555
Sc4 Si3 2.721022 1_555
Sc4 Si4 2.871995 1_555
Sc4 Si1 3.162766 1_555
Sc4 Si1 3.162766 1_556
Sc5 Si1 2.721022 1_555
Sc5 Si2 2.721022 1_545
Sc5 Si5 2.871995 1_555
Sc5 Si0 3.162766 1_555
Sc5 Si0 3.162766 1_554
Sc6 Si0 2.832135 1_565
Sc6 Si2 2.832135 1_555
Sc6 Si5 2.832137 1_565
Sc6 Si3 2.832137 1_555
Sc6 Si1 2.832141 1_555
Sc6 Si4 2.832142 1_555
Sc7 Si5 2.832135 1_555
Sc7 Si3 2.832135 1_654
Sc7 Si0 2.832137 1_554
Sc7 Si2 2.832137 1_655
Sc7 Si4 2.832141 1_554
Sc7 Si1 2.832142 1_555
Sc8 Si5 2.832135 1_555
Sc8 Si3 2.832135 1_655
Sc8 Si0 2.832137 1_555
Sc8 Si2 2.832137 1_655
Sc8 Si4 2.832141 1_555
Sc8 Si1 2.832142 1_555
Sc9 Si0 2.832135 1_564
Sc9 Si2 2.832135 1_555
Sc9 Si5 2.832137 1_565
Sc9 Si3 2.832137 1_554
Sc9 Si1 2.832141 1_555
Sc9 Si4 2.832142 1_554
