# generated using pymatgen
data_Li6FeNi9O20
_symmetry_space_group_name_H-M   'P 1'
_cell_length_a   7.55655010
_cell_length_b   7.62690086
_cell_length_c   6.48631716
_cell_angle_alpha   92.60887514
_cell_angle_beta   90.98041517
_cell_angle_gamma   66.30749938
_symmetry_Int_Tables_number   1
_chemical_formula_structural   Li6FeNi9O20
_chemical_formula_sum   'Li6 Fe1 Ni9 O20'
_cell_volume   341.96333302
_cell_formula_units_Z   1
loop_
 _symmetry_equiv_pos_site_id
 _symmetry_equiv_pos_as_xyz
  1  'x, y, z'
loop_
 _atom_site_type_symbol
 _atom_site_label
 _atom_site_symmetry_multiplicity
 _atom_site_fract_x
 _atom_site_fract_y
 _atom_site_fract_z
 _atom_site_occupancy
  Li  Li0  1  0.10000000  0.10000000  0.60000000  1
  Li  Li1  1  0.10000000  0.60000000  0.10000000  1
  Li  Li2  1  0.32122800  0.29752000  0.79547200  1
  Li  Li3  1  0.33205100  0.79731500  0.29997400  1
  Li  Li4  1  0.86794900  0.40268500  0.90002600  1
  Li  Li5  1  0.87877200  0.90248000  0.40452800  1
  Fe  Fe0  1  0.60000000  0.10000000  0.10000000  1
  Ni  Ni0  1  0.19976900  0.19811500  0.20289200  1
  Ni  Ni1  1  0.00023100  0.00188500  0.99710800  1
  Ni  Ni2  1  0.19779900  0.69935600  0.69916500  1
  Ni  Ni3  1  0.39837800  0.39972700  0.40567100  1
  Ni  Ni4  1  0.39743300  0.89761500  0.89927300  1
  Ni  Ni5  1  0.60000000  0.60000000  0.60000000  1
  Ni  Ni6  1  0.80256700  0.30238500  0.30072700  1
  Ni  Ni7  1  0.80162200  0.80027300  0.79432900  1
  Ni  Ni8  1  0.00220100  0.50064400  0.50083500  1
  O  O0  1  0.06113000  0.05745700  0.28403400  1
  O  O1  1  0.13887000  0.14254300  0.91596600  1
  O  O2  1  0.05900400  0.55484200  0.77296600  1
  O  O3  1  0.23412800  0.27910600  0.48924600  1
  O  O4  1  0.14099600  0.64515800  0.42703400  1
  O  O5  1  0.34578500  0.33408600  0.12506900  1
  O  O6  1  0.23194600  0.77141400  0.97359500  1
  O  O7  1  0.54424200  0.04372700  0.83385600  1
  O  O8  1  0.42657400  0.47862700  0.67896000  1
  O  O9  1  0.34140700  0.83657800  0.62711800  1
  O  O10  1  0.65575800  0.15627300  0.36614400  1
  O  O11  1  0.54406800  0.53608600  0.33453000  1
  O  O12  1  0.76837800  0.23041700  0.02699900  1
  O  O13  1  0.43162200  0.96958300  0.17300100  1
  O  O14  1  0.65593200  0.66391400  0.86547000  1
  O  O15  1  0.85859300  0.36342200  0.57288200  1
  O  O16  1  0.77342600  0.72137200  0.52104000  1
  O  O17  1  0.96805400  0.42858600  0.22640500  1
  O  O18  1  0.85421500  0.86591400  0.07493100  1
  O  O19  1  0.96587200  0.92089400  0.71075400  1
loop_
_geom_bond_atom_site_label_1
_geom_bond_atom_site_label_2
_geom_bond_distance
_geom_bond_site_symmetry_2
Li0 O0 2.094583 1_555
Li0 O1 2.094583 1_555
Li0 O9 2.114453 1_545
Li0 O15 2.114453 1_455
Li0 O3 2.153209 1_555
Li0 O19 2.153209 1_445
Li1 O17 2.132763 1_455
Li1 O6 2.132763 1_554
Li1 O18 2.140479 1_455
Li1 O5 2.140479 1_555
Li1 O2 2.170490 1_554
Li1 O4 2.170490 1_555
Li2 O7 2.014122 1_555
Li2 O8 2.027826 1_555
Li2 O3 2.098184 1_555
Li2 O5 2.157879 1_556
Li2 O2 2.165699 1_555
Li2 O1 2.310144 1_555
Li3 O13 1.971006 1_555
Li3 O11 2.012371 1_555
Li3 O9 2.133405 1_555
Li3 O0 2.210314 1_565
Li3 O6 2.262772 1_554
Li3 O4 2.363158 1_555
Li4 O12 1.971006 1_556
Li4 O14 2.012371 1_555
Li4 O15 2.133405 1_555
Li4 O1 2.210314 1_655
Li4 O17 2.262772 1_556
Li4 O2 2.363158 1_655
Li5 O10 2.014122 1_565
Li5 O16 2.027833 1_555
Li5 O19 2.098184 1_555
Li5 O18 2.157879 1_555
Li5 O4 2.165699 1_655
Li5 O0 2.310144 1_665
Fe0 O7 1.842501 1_554
Fe0 O10 1.842501 1_555
Fe0 O13 1.978149 1_545
Fe0 O12 1.978149 1_555
Fe0 O5 2.032763 1_555
Fe0 O18 2.032763 1_545
Ni0 O0 1.870532 1_555
Ni0 O5 1.879891 1_555
Ni0 O13 1.916207 1_545
Ni0 O17 1.920980 1_455
Ni0 O3 1.976560 1_555
Ni0 O1 1.977552 1_554
Ni1 O1 1.870532 1_555
Ni1 O18 1.879891 1_446
Ni1 O12 1.916207 1_456
Ni1 O6 1.920980 1_545
Ni1 O19 1.976560 1_445
Ni1 O0 1.977552 1_556
Ni2 O9 1.861705 1_555
Ni2 O8 1.867787 1_555
Ni2 O4 1.876441 1_555
Ni2 O2 1.881016 1_555
Ni2 O19 1.882870 1_455
Ni2 O6 1.883176 1_555
Ni3 O11 1.867552 1_555
Ni3 O8 1.882225 1_555
Ni3 O3 1.914875 1_555
Ni3 O5 1.942535 1_555
Ni3 O4 2.089406 1_555
Ni3 O10 2.089875 1_555
Ni4 O13 1.878811 1_556
Ni4 O9 1.889491 1_555
Ni4 O7 1.924909 1_565
Ni4 O6 1.937218 1_555
Ni4 O14 2.054674 1_555
Ni4 O1 2.091508 1_565
Ni5 O11 1.856215 1_555
Ni5 O14 1.856215 1_555
Ni5 O16 1.969185 1_555
Ni5 O8 1.969191 1_555
Ni5 O15 2.062606 1_555
Ni5 O9 2.062606 1_555
Ni6 O12 1.878811 1_555
Ni6 O15 1.889491 1_555
Ni6 O10 1.924909 1_555
Ni6 O17 1.937218 1_555
Ni6 O11 2.054674 1_555
Ni6 O0 2.091508 1_655
Ni7 O14 1.867552 1_555
Ni7 O16 1.882227 1_555
Ni7 O19 1.914875 1_555
Ni7 O18 1.942535 1_556
Ni7 O2 2.089406 1_655
Ni7 O7 2.089875 1_565
Ni8 O15 1.861705 1_455
Ni8 O16 1.867783 1_455
Ni8 O2 1.876441 1_555
Ni8 O4 1.881016 1_555
Ni8 O3 1.882870 1_555
Ni8 O17 1.883176 1_455
