# generated using pymatgen
data_LiV4O5F7
_symmetry_space_group_name_H-M   'P 1'
_cell_length_a   5.16063000
_cell_length_b   5.41227653
_cell_length_c   7.51796404
_cell_angle_alpha   92.99362084
_cell_angle_beta   90.02984455
_cell_angle_gamma   93.16213365
_symmetry_Int_Tables_number   1
_chemical_formula_structural   LiV4O5F7
_chemical_formula_sum   'Li1 V4 O5 F7'
_cell_volume   209.37537900
_cell_formula_units_Z   1
loop_
 _symmetry_equiv_pos_site_id
 _symmetry_equiv_pos_as_xyz
  1  'x, y, z'
loop_
 _atom_site_type_symbol
 _atom_site_label
 _atom_site_symmetry_multiplicity
 _atom_site_fract_x
 _atom_site_fract_y
 _atom_site_fract_z
 _atom_site_occupancy
  Li  Li0  1  0.51548700  0.07386900  0.19139500  1
  V  V0  1  0.98541700  0.97021400  0.49407400  1
  V  V1  1  0.49776300  0.52026200  0.02183900  1
  V  V2  1  0.47013800  0.48189700  0.50311400  1
  V  V3  1  0.00816300  0.00598800  0.98882600  1
  O  O0  1  0.79173600  0.70933800  0.46212400  1
  O  O1  1  0.71517300  0.81877300  0.04720300  1
  O  O2  1  0.42140300  0.50357500  0.24659500  1
  O  O3  1  0.28578400  0.20830300  0.97007200  1
  O  O4  1  0.21121600  0.28292500  0.53670700  1
  F  F0  1  0.88940100  0.02359900  0.74240100  1
  F  F1  1  0.79414400  0.30316600  0.05811900  1
  F  F2  1  0.69901600  0.19279100  0.42679300  1
  F  F3  1  0.59027300  0.49768000  0.75396900  1
  F  F4  1  0.29604600  0.79330500  0.55626900  1
  F  F5  1  0.20302200  0.70379000  0.94237300  1
  F  F6  1  0.13425100  0.98422600  0.25084300  1
loop_
_geom_bond_atom_site_label_1
_geom_bond_atom_site_label_2
_geom_bond_distance
_geom_bond_site_symmetry_2
Li0 O1 2.035942 1_545
Li0 O3 2.218716 1_554
Li0 O2 2.416767 1_555
O0 V0 1.690833 1_555
O0 V2 2.044372 1_555
O1 V3 1.839459 1_664
O1 V1 1.916518 1_555
O2 V1 1.741052 1_555
O2 V2 1.955126 1_555
O3 V3 1.764868 1_555
O3 V1 1.981427 1_556
O4 V2 1.696738 1_555
O4 V0 2.012567 1_445
F0 V0 1.942882 1_545
F0 V3 1.959745 1_655
F1 V1 2.006414 1_555
F1 V3 2.046286 1_654
F1 Li0 2.132259 1_555
F2 V0 2.037360 1_545
F2 Li0 2.062821 1_555
F2 V2 2.069669 1_555
F3 V2 1.981026 1_555
F3 V1 2.068847 1_556
F4 V2 1.976006 1_555
F4 V0 1.980014 1_455
F5 V1 1.971009 1_556
F5 V3 1.982539 1_565
F6 V0 1.987209 1_455
F6 Li0 2.055268 1_565
F6 V3 2.085396 1_564
