# generated using pymatgen
data_NiP4O11
_symmetry_space_group_name_H-M   'P 1'
_cell_length_a   22.47325200
_cell_length_b   5.38219200
_cell_length_c   7.46359998
_cell_angle_alpha   69.82955600
_cell_angle_beta   90.00000000
_cell_angle_gamma   90.00000000
_symmetry_Int_Tables_number   1
_chemical_formula_structural   NiP4O11
_chemical_formula_sum   'Ni4 P16 O44'
_cell_volume   847.39690307
_cell_formula_units_Z   4
loop_
 _symmetry_equiv_pos_site_id
 _symmetry_equiv_pos_as_xyz
  1  'x, y, z'
loop_
 _atom_site_type_symbol
 _atom_site_label
 _atom_site_symmetry_multiplicity
 _atom_site_fract_x
 _atom_site_fract_y
 _atom_site_fract_z
 _atom_site_occupancy
  Ni  Ni0  1  0.88671100  0.99768500  0.87369800  1
  Ni  Ni1  1  0.61328900  0.99768500  0.37369800  1
  Ni  Ni2  1  0.38671100  0.00231500  0.62630200  1
  Ni  Ni3  1  0.11328900  0.00231500  0.12630200  1
  P  P0  1  0.57217100  0.69268200  0.81410000  1
  P  P1  1  0.19449600  0.59624900  0.96716300  1
  P  P2  1  0.17867500  0.67143400  0.54920600  1
  P  P3  1  0.96514100  0.59461500  0.71143600  1
  P  P4  1  0.92782900  0.69268200  0.31410000  1
  P  P5  1  0.30550400  0.59624900  0.46716300  1
  P  P6  1  0.46514100  0.40538500  0.78856400  1
  P  P7  1  0.67867500  0.32856600  0.95079400  1
  P  P8  1  0.32132500  0.67143400  0.04920600  1
  P  P9  1  0.53485900  0.59461500  0.21143600  1
  P  P10  1  0.69449600  0.40375100  0.53283700  1
  P  P11  1  0.07217100  0.30731800  0.68590000  1
  P  P12  1  0.03485900  0.40538500  0.28856400  1
  P  P13  1  0.82132500  0.32856600  0.45079400  1
  P  P14  1  0.80550400  0.40375100  0.03283700  1
  P  P15  1  0.42782900  0.30731800  0.18590000  1
  O  O0  1  0.34546200  0.90654600  0.89951400  1
  O  O1  1  0.57562400  0.92555100  0.63921600  1
  O  O2  1  0.54574200  0.76776200  0.98346100  1
  O  O3  1  0.95518000  0.77834100  0.81685800  1
  O  O4  1  0.83709000  0.65916100  0.97909800  1
  O  O5  1  0.15453800  0.90654600  0.39951400  1
  O  O6  1  0.19421800  0.73577900  0.73344800  1
  O  O7  1  0.31895400  0.80660100  0.54727700  1
  O  O8  1  0.43657100  0.66779100  0.74426200  1
  O  O9  1  0.26575700  0.53051000  0.99660600  1
  O  O10  1  0.63641600  0.57997200  0.88719600  1
  O  O11  1  0.92437600  0.92555100  0.13921600  1
  O  O12  1  0.95425800  0.76776200  0.48346100  1
  O  O13  1  0.54482000  0.77834100  0.31685800  1
  O  O14  1  0.03791900  0.55765700  0.69960800  1
  O  O15  1  0.66291000  0.65916100  0.47909800  1
  O  O16  1  0.30578200  0.73577900  0.23344800  1
  O  O17  1  0.18104600  0.80660100  0.04727700  1
  O  O18  1  0.53791900  0.44234300  0.80039200  1
  O  O19  1  0.06342900  0.66779100  0.24426200  1
  O  O20  1  0.23424300  0.53051000  0.49660600  1
  O  O21  1  0.86358400  0.57997200  0.38719600  1
  O  O22  1  0.13641600  0.42002800  0.61280400  1
  O  O23  1  0.76575700  0.46949000  0.50339400  1
  O  O24  1  0.93657100  0.33220900  0.75573800  1
  O  O25  1  0.46208100  0.55765700  0.19960800  1
  O  O26  1  0.81895400  0.19339900  0.95272300  1
  O  O27  1  0.69421800  0.26422100  0.76655200  1
  O  O28  1  0.33709000  0.34083900  0.52090200  1
  O  O29  1  0.96208100  0.44234300  0.30039200  1
  O  O30  1  0.45518000  0.22165900  0.68314200  1
  O  O31  1  0.04574200  0.23223800  0.51653900  1
  O  O32  1  0.07562400  0.07444900  0.86078400  1
  O  O33  1  0.36358400  0.42002800  0.11280400  1
  O  O34  1  0.73424300  0.46949000  0.00339400  1
  O  O35  1  0.56342900  0.33220900  0.25573800  1
  O  O36  1  0.68104600  0.19339900  0.45272300  1
  O  O37  1  0.80578200  0.26422100  0.26655200  1
  O  O38  1  0.84546200  0.09345400  0.60048600  1
  O  O39  1  0.16291000  0.34083900  0.02090200  1
  O  O40  1  0.04482000  0.22165900  0.18314200  1
  O  O41  1  0.45425800  0.23223800  0.01653900  1
  O  O42  1  0.42437600  0.07444900  0.36078400  1
  O  O43  1  0.65453800  0.09345400  0.10048600  1
loop_
_geom_bond_atom_site_label_1
_geom_bond_atom_site_label_2
_geom_bond_distance
_geom_bond_site_symmetry_2
Ni0 O24 2.044312 1_565
Ni0 O4 2.047836 1_555
Ni0 O26 2.050512 1_565
Ni0 O11 2.064908 1_556
Ni0 O3 2.070440 1_555
Ni0 O38 2.135012 1_565
Ni1 O35 2.044312 1_565
Ni1 O15 2.047836 1_555
Ni1 O36 2.050512 1_565
Ni1 O1 2.064908 1_555
Ni1 O13 2.070440 1_555
Ni1 O43 2.135012 1_565
Ni2 O8 2.044312 1_545
Ni2 O28 2.047836 1_555
Ni2 O7 2.050512 1_545
Ni2 O42 2.064908 1_555
Ni2 O30 2.070440 1_555
Ni2 O0 2.135012 1_545
Ni3 O19 2.044312 1_545
Ni3 O39 2.047836 1_555
Ni3 O17 2.050512 1_545
Ni3 O32 2.064908 1_554
Ni3 O40 2.070440 1_555
Ni3 O5 2.135012 1_545
O0 P8 1.472674 1_556
O1 P0 1.467112 1_555
O2 P0 1.570390 1_555
O2 P9 1.652244 1_556
O3 P3 1.477700 1_555
O4 P14 1.474522 1_556
O5 P2 1.472674 1_555
O6 P2 1.568849 1_555
O6 P1 1.644198 1_555
O7 P5 1.482403 1_555
O8 P6 1.481274 1_555
O9 P8 1.579320 1_556
O9 P1 1.638461 1_555
O10 P7 1.585945 1_555
O10 P0 1.588062 1_555
O11 P4 1.467112 1_555
O12 P4 1.570390 1_555
O12 P3 1.652244 1_555
O13 P9 1.477700 1_555
O14 P11 1.585392 1_555
O14 P3 1.653639 1_455
O15 P10 1.474522 1_555
O16 P8 1.568849 1_555
O16 P5 1.644198 1_555
O17 P1 1.482403 1_554
O18 P0 1.585392 1_555
O18 P6 1.653639 1_555
O19 P12 1.481274 1_555
O20 P2 1.579320 1_555
O20 P5 1.638461 1_555
O21 P13 1.585945 1_555
O21 P4 1.588062 1_555
O22 P2 1.585945 1_555
O22 P11 1.588062 1_555
O23 P13 1.579320 1_555
O23 P10 1.638461 1_555
O24 P3 1.481274 1_555
O25 P15 1.585392 1_555
O25 P9 1.653639 1_555
O26 P14 1.482403 1_556
O27 P7 1.568849 1_555
O27 P10 1.644198 1_555
O28 P5 1.474522 1_555
O29 P4 1.585392 1_555
O29 P12 1.653639 1_655
O30 P6 1.477700 1_555
O31 P11 1.570390 1_555
O31 P12 1.652244 1_555
O32 P11 1.467112 1_555
O33 P8 1.585945 1_555
O33 P15 1.588062 1_555
O34 P7 1.579320 1_554
O34 P14 1.638461 1_555
O35 P9 1.481274 1_555
O36 P10 1.482403 1_555
O37 P13 1.568849 1_555
O37 P14 1.644198 1_555
O38 P13 1.472674 1_555
O39 P1 1.474522 1_554
O40 P12 1.477700 1_555
O41 P15 1.570390 1_555
O41 P6 1.652244 1_554
O42 P15 1.467112 1_555
O43 P7 1.472674 1_554
