# generated using pymatgen
data_H4SeO5
_symmetry_space_group_name_H-M   'P 1'
_cell_length_a   8.42506667
_cell_length_b   9.09337201
_cell_length_c   10.40987129
_cell_angle_alpha   90.00000000
_cell_angle_beta   90.00000000
_cell_angle_gamma   90.00000000
_symmetry_Int_Tables_number   1
_chemical_formula_structural   H4SeO5
_chemical_formula_sum   'H32 Se8 O40'
_cell_volume   797.52382246
_cell_formula_units_Z   8
loop_
 _symmetry_equiv_pos_site_id
 _symmetry_equiv_pos_as_xyz
  1  'x, y, z'
loop_
 _atom_site_type_symbol
 _atom_site_label
 _atom_site_symmetry_multiplicity
 _atom_site_fract_x
 _atom_site_fract_y
 _atom_site_fract_z
 _atom_site_occupancy
  H  H0  1  0.76961406  0.27902423  0.45049387  1
  H  H1  1  0.26961406  0.72097577  0.04950613  1
  H  H2  1  0.23038594  0.22097577  0.95049387  1
  H  H3  1  0.73038594  0.77902423  0.54950613  1
  H  H4  1  0.23038594  0.72097577  0.54950613  1
  H  H5  1  0.73038594  0.27902423  0.95049387  1
  H  H6  1  0.76961406  0.77902423  0.04950613  1
  H  H7  1  0.26961406  0.22097577  0.45049387  1
  H  H8  1  0.82170036  0.10291277  0.46391969  1
  H  H9  1  0.32170036  0.89708723  0.03608031  1
  H  H10  1  0.17829964  0.39708723  0.96391969  1
  H  H11  1  0.67829964  0.60291277  0.53608031  1
  H  H12  1  0.17829964  0.89708723  0.53608031  1
  H  H13  1  0.67829964  0.10291277  0.96391969  1
  H  H14  1  0.82170036  0.60291277  0.03608031  1
  H  H15  1  0.32170036  0.39708723  0.46391969  1
  H  H16  1  0.80133024  0.17555035  0.07102462  1
  H  H17  1  0.30133024  0.82444965  0.42897538  1
  H  H18  1  0.19866976  0.32444965  0.57102462  1
  H  H19  1  0.69866976  0.67555035  0.92897538  1
  H  H20  1  0.19866976  0.82444965  0.92897538  1
  H  H21  1  0.69866976  0.17555035  0.57102462  1
  H  H22  1  0.80133024  0.67555035  0.42897538  1
  H  H23  1  0.30133024  0.32444965  0.07102462  1
  H  H24  1  0.53887032  0.23982863  0.25575457  1
  H  H25  1  0.03887032  0.76017137  0.24424543  1
  H  H26  1  0.46112968  0.26017137  0.75575457  1
  H  H27  1  0.96112968  0.73982863  0.74424543  1
  H  H28  1  0.46112968  0.76017137  0.74424543  1
  H  H29  1  0.96112968  0.23982863  0.75575457  1
  H  H30  1  0.53887032  0.73982863  0.24424543  1
  H  H31  1  0.03887032  0.26017137  0.25575457  1
  Se  Se0  1  0.89173211  0.46408511  0.26618155  1
  Se  Se1  1  0.39173211  0.53591489  0.23381845  1
  Se  Se2  1  0.10826789  0.03591489  0.76618155  1
  Se  Se3  1  0.60826789  0.96408511  0.73381845  1
  Se  Se4  1  0.10826789  0.53591489  0.73381845  1
  Se  Se5  1  0.60826789  0.46408511  0.76618155  1
  Se  Se6  1  0.89173211  0.96408511  0.23381845  1
  Se  Se7  1  0.39173211  0.03591489  0.26618155  1
  O  O0  1  0.74202049  0.39184068  0.34414981  1
  O  O1  1  0.24202049  0.60815932  0.15585019  1
  O  O2  1  0.25797951  0.10815932  0.84414981  1
  O  O3  1  0.75797951  0.89184068  0.65585019  1
  O  O4  1  0.25797951  0.60815932  0.65585019  1
  O  O5  1  0.75797951  0.39184068  0.84414981  1
  O  O6  1  0.74202049  0.89184068  0.15585019  1
  O  O7  1  0.24202049  0.10815932  0.34414981  1
  O  O8  1  0.86837826  0.46389886  0.11073404  1
  O  O9  1  0.36837826  0.53610114  0.38926596  1
  O  O10  1  0.13162174  0.03610114  0.61073404  1
  O  O11  1  0.63162174  0.96389886  0.88926596  1
  O  O12  1  0.13162174  0.53610114  0.88926596  1
  O  O13  1  0.63162174  0.46389886  0.61073404  1
  O  O14  1  0.86837826  0.96389886  0.38926596  1
  O  O15  1  0.36837826  0.03610114  0.11073404  1
  O  O16  1  0.93742776  0.62522958  0.32817580  1
  O  O17  1  0.43742776  0.37477042  0.17182420  1
  O  O18  1  0.06257224  0.87477042  0.82817580  1
  O  O19  1  0.56257224  0.12522958  0.67182420  1
  O  O20  1  0.06257224  0.37477042  0.67182420  1
  O  O21  1  0.56257224  0.62522958  0.82817580  1
  O  O22  1  0.93742776  0.12522958  0.17182420  1
  O  O23  1  0.43742776  0.87477042  0.32817580  1
  O  O24  1  0.05719341  0.35692043  0.29896742  1
  O  O25  1  0.55719341  0.64307957  0.20103258  1
  O  O26  1  0.94280659  0.14307957  0.79896742  1
  O  O27  1  0.44280659  0.85692043  0.70103258  1
  O  O28  1  0.94280659  0.64307957  0.70103258  1
  O  O29  1  0.44280659  0.35692043  0.79896742  1
  O  O30  1  0.05719341  0.85692043  0.20103258  1
  O  O31  1  0.55719341  0.14307957  0.29896742  1
  O  O32  1  0.70783016  0.19561585  0.01349008  1
  O  O33  1  0.20783016  0.80438415  0.48650992  1
  O  O34  1  0.29216984  0.30438415  0.51349008  1
  O  O35  1  0.79216984  0.69561585  0.98650992  1
  O  O36  1  0.29216984  0.80438415  0.98650992  1
  O  O37  1  0.79216984  0.19561585  0.51349008  1
  O  O38  1  0.70783016  0.69561585  0.48650992  1
  O  O39  1  0.20783016  0.30438415  0.01349008  1
loop_
_geom_bond_atom_site_label_1
_geom_bond_atom_site_label_2
_geom_bond_distance
_geom_bond_site_symmetry_2
H0 O37 1.020505 1_555
H0 O0 1.527086 1_555
H1 O36 1.020505 1_554
H1 O1 1.527086 1_555
H2 O39 1.020505 1_556
H2 O2 1.527086 1_555
H3 O38 1.020505 1_555
H3 O3 1.527086 1_555
H4 O33 1.020505 1_555
H4 O4 1.527086 1_555
H5 O32 1.020505 1_556
H5 O5 1.527086 1_555
H6 O35 1.020505 1_554
H6 O6 1.527086 1_555
H7 O34 1.020505 1_555
H7 O7 1.527086 1_555
H8 O37 1.019215 1_555
H8 O14 1.535109 1_545
H9 O36 1.019215 1_554
H9 O15 1.535109 1_565
H10 O39 1.019215 1_556
H10 O12 1.535109 1_555
H11 O38 1.019215 1_555
H11 O13 1.535109 1_555
H12 O33 1.019215 1_555
H12 O10 1.535109 1_565
H13 O32 1.019215 1_556
H13 O11 1.535109 1_545
H14 O35 1.019215 1_554
H14 O8 1.535109 1_555
H15 O34 1.019215 1_555
H15 O9 1.535109 1_555
H16 O32 1.006254 1_555
H16 O22 1.620247 1_555
H17 O33 1.006254 1_555
H17 O23 1.620247 1_555
H18 O34 1.006254 1_555
H18 O20 1.620247 1_555
H19 O35 1.006254 1_555
H19 O21 1.620247 1_555
H20 O36 1.006254 1_555
H20 O18 1.620247 1_555
H21 O37 1.006254 1_555
H21 O19 1.620247 1_555
H22 O38 1.006254 1_555
H22 O16 1.620247 1_555
H23 O39 1.006254 1_555
H23 O17 1.620247 1_555
H24 O31 1.000096 1_555
H24 O17 1.731912 1_555
H25 O30 1.000096 1_555
H25 O16 1.731912 1_455
H26 O29 1.000096 1_555
H26 O19 1.731912 1_555
H27 O28 1.000096 1_555
H27 O18 1.731912 1_655
H28 O27 1.000096 1_555
H28 O21 1.731912 1_555
H29 O26 1.000096 1_555
H29 O20 1.731912 1_655
H30 O25 1.000096 1_555
H30 O23 1.731912 1_555
H31 O24 1.000096 1_555
H31 O22 1.731912 1_455
O0 Se0 1.637465 1_555
O1 Se1 1.637465 1_555
O2 Se2 1.637465 1_555
O3 Se3 1.637465 1_555
O4 Se4 1.637465 1_555
O5 Se5 1.637465 1_555
O6 Se6 1.637465 1_555
O7 Se7 1.637465 1_555
O8 Se0 1.630108 1_555
O9 Se1 1.630108 1_555
O10 Se2 1.630108 1_555
O11 Se3 1.630108 1_555
O12 Se4 1.630108 1_555
O13 Se5 1.630108 1_555
O14 Se6 1.630108 1_555
O15 Se7 1.630108 1_555
O16 Se0 1.646796 1_555
O17 Se1 1.646796 1_555
O18 Se2 1.646796 1_565
O19 Se3 1.646796 1_545
O20 Se4 1.646796 1_555
O21 Se5 1.646796 1_555
O22 Se6 1.646796 1_545
O23 Se7 1.646796 1_565
O24 Se0 1.734765 1_455
O25 Se1 1.734765 1_555
O26 Se2 1.734765 1_655
O27 Se3 1.734765 1_555
O28 Se4 1.734765 1_655
O29 Se5 1.734765 1_555
O30 Se6 1.734765 1_455
O31 Se7 1.734765 1_555
