# generated using pymatgen
data_Ca6La14Mg7Ti13O60
_symmetry_space_group_name_H-M   'P 1'
_cell_length_a   5.56732600
_cell_length_b   5.60201898
_cell_length_c   39.41593456
_cell_angle_alpha   89.87129016
_cell_angle_beta   89.97640339
_cell_angle_gamma   89.61421840
_symmetry_Int_Tables_number   1
_chemical_formula_structural   Ca6La14Mg7Ti13O60
_chemical_formula_sum   'Ca6 La14 Mg7 Ti13 O60'
_cell_volume   1229.28358528
_cell_formula_units_Z   1
loop_
 _symmetry_equiv_pos_site_id
 _symmetry_equiv_pos_as_xyz
  1  'x, y, z'
loop_
 _atom_site_type_symbol
 _atom_site_label
 _atom_site_symmetry_multiplicity
 _atom_site_fract_x
 _atom_site_fract_y
 _atom_site_fract_z
 _atom_site_occupancy
  Ca  Ca0  1  0.51371000  0.54096200  0.35152500  1
  Ca  Ca1  1  0.51246400  0.53917100  0.15213900  1
  Ca  Ca2  1  0.00818200  0.96434500  0.24949300  1
  Ca  Ca3  1  0.00823500  0.96598000  0.44916800  1
  Ca  Ca4  1  0.99962200  0.96944000  0.65387600  1
  Ca  Ca5  1  0.99956400  0.96877700  0.84728300  1
  La  La0  1  0.99433700  0.02640200  0.15349600  1
  La  La1  1  0.99413300  0.02614700  0.35263400  1
  La  La2  1  0.99634400  0.02495200  0.55458500  1
  La  La3  1  0.00027100  0.02498000  0.75064500  1
  La  La4  1  0.00319000  0.02201300  0.94487500  1
  La  La5  1  0.50840500  0.53020600  0.55312700  1
  La  La6  1  0.51565100  0.54400200  0.75059200  1
  La  La7  1  0.51111100  0.54108400  0.94696200  1
  La  La8  1  0.49122200  0.47075400  0.04764800  1
  La  La9  1  0.49024200  0.46368800  0.24809200  1
  La  La10  1  0.49018800  0.44760000  0.65283900  1
  La  La11  1  0.49136300  0.46522700  0.44723500  1
  La  La12  1  0.48878400  0.44644200  0.84826100  1
  La  La13  1  0.00369700  0.97441300  0.04675000  1
  Mg  Mg0  1  0.49978600  0.00058500  0.99869000  1
  Mg  Mg1  1  0.49975700  0.99826200  0.20067500  1
  Mg  Mg2  1  0.50150700  0.99792200  0.60233700  1
  Mg  Mg3  1  0.50035500  0.99880200  0.89813800  1
  Mg  Mg4  1  0.49942400  0.99869700  0.39985700  1
  Mg  Mg5  1  0.50030000  0.99686400  0.69970600  1
  Mg  Mg6  1  0.50006300  0.99726100  0.80078400  1
  Ti  Ti0  1  0.00046800  0.49775500  0.99744500  1
  Ti  Ti1  1  0.99651700  0.49789600  0.10103500  1
  Ti  Ti2  1  0.99917900  0.50102800  0.20059800  1
  Ti  Ti3  1  0.99618000  0.49589200  0.30080100  1
  Ti  Ti4  1  0.99906500  0.50114100  0.40025700  1
  Ti  Ti5  1  0.99698800  0.49882000  0.50026300  1
  Ti  Ti6  1  0.99988700  0.50261500  0.60357500  1
  Ti  Ti7  1  0.00414500  0.50095800  0.70118800  1
  Ti  Ti8  1  0.00333600  0.50061900  0.80010000  1
  Ti  Ti9  1  0.99899800  0.50102400  0.89616000  1
  Ti  Ti10  1  0.49691200  0.99667200  0.10106100  1
  Ti  Ti11  1  0.49584700  0.99291800  0.29961900  1
  Ti  Ti12  1  0.49698400  0.99712500  0.49884700  1
  O  O0  1  0.92014700  0.51245300  0.05294300  1
  O  O1  1  0.91756800  0.52106500  0.25079200  1
  O  O2  1  0.91862900  0.52120700  0.44991500  1
  O  O3  1  0.91589900  0.52574900  0.64889800  1
  O  O4  1  0.91249900  0.52617900  0.85031500  1
  O  O5  1  0.78448600  0.77112400  0.19126600  1
  O  O6  1  0.77355700  0.77362300  0.10929900  1
  O  O7  1  0.77493100  0.77340100  0.30889100  1
  O  O8  1  0.78510400  0.77128000  0.39068200  1
  O  O9  1  0.77243800  0.76962100  0.50813700  1
  O  O10  1  0.77844200  0.76429600  0.58868800  1
  O  O11  1  0.78852500  0.77016400  0.70908900  1
  O  O12  1  0.78754000  0.76959900  0.79064400  1
  O  O13  1  0.78170300  0.76486800  0.91044100  1
  O  O14  1  0.78751700  0.76966500  0.99373500  1
  O  O15  1  0.72732400  0.29084700  0.19099400  1
  O  O16  1  0.72775800  0.28269400  0.30930200  1
  O  O17  1  0.72782500  0.29136800  0.39051400  1
  O  O18  1  0.72971200  0.27584100  0.10981000  1
  O  O19  1  0.73481900  0.28570600  0.58880000  1
  O  O20  1  0.73022900  0.27835900  0.50800000  1
  O  O21  1  0.73187000  0.29010000  0.91076100  1
  O  O22  1  0.72958100  0.29345700  0.70931100  1
  O  O23  1  0.73063200  0.29242500  0.79058400  1
  O  O24  1  0.73555500  0.28321200  0.99410400  1
  O  O25  1  0.57772800  0.01519400  0.05295800  1
  O  O26  1  0.58944300  0.02407400  0.25261300  1
  O  O27  1  0.59821500  0.04246000  0.65013700  1
  O  O28  1  0.58986200  0.02261500  0.45184500  1
  O  O29  1  0.59814300  0.04181700  0.84994600  1
  O  O30  1  0.41779400  0.97985000  0.34730000  1
  O  O31  1  0.41821500  0.97916500  0.14818700  1
  O  O32  1  0.42500200  0.98850900  0.54692700  1
  O  O33  1  0.40784700  0.97207600  0.75010600  1
  O  O34  1  0.41104800  0.97190200  0.94979400  1
  O  O35  1  0.26480300  0.71744800  0.01093300  1
  O  O36  1  0.26870400  0.72959200  0.09131300  1
  O  O37  1  0.26751500  0.71342400  0.20845900  1
  O  O38  1  0.27365500  0.72607000  0.29026900  1
  O  O39  1  0.26770800  0.71260800  0.60543500  1
  O  O40  1  0.26793200  0.71372100  0.40792100  1
  O  O41  1  0.27488100  0.72555600  0.49025400  1
  O  O42  1  0.26686800  0.70887700  0.89262100  1
  O  O43  1  0.26864800  0.70890900  0.69042200  1
  O  O44  1  0.26826400  0.70847600  0.80922100  1
  O  O45  1  0.22233900  0.23517900  0.01096700  1
  O  O46  1  0.22532100  0.22647000  0.09173800  1
  O  O47  1  0.20628100  0.22464800  0.20918600  1
  O  O48  1  0.22121300  0.22477300  0.29046000  1
  O  O49  1  0.20671100  0.22508900  0.40867600  1
  O  O50  1  0.22821100  0.22748400  0.49002300  1
  O  O51  1  0.20724500  0.22744700  0.60630000  1
  O  O52  1  0.20722100  0.22895000  0.69021800  1
  O  O53  1  0.20373500  0.22616100  0.89193900  1
  O  O54  1  0.20646300  0.22818900  0.80949200  1
  O  O55  1  0.08995500  0.48392600  0.14934500  1
  O  O56  1  0.09087200  0.48417800  0.34835400  1
  O  O57  1  0.08026200  0.48798600  0.54675900  1
  O  O58  1  0.08801300  0.48425000  0.74987300  1
  O  O59  1  0.08318200  0.48518300  0.95173900  1
loop_
_geom_bond_atom_site_label_1
_geom_bond_atom_site_label_2
_geom_bond_distance
_geom_bond_site_symmetry_2
Ca0 O56 2.380965 1_555
Ca0 O17 2.388965 1_555
Ca0 O16 2.503819 1_555
Ca0 O30 2.517626 1_555
Ca0 O8 2.523272 1_555
Ca0 O7 2.578397 1_555
Ca0 O40 2.782008 1_555
Ca0 O38 2.943440 1_555
Ca1 O55 2.377212 1_555
Ca1 O15 2.383511 1_555
Ca1 O31 2.521116 1_555
Ca1 O5 2.529399 1_555
Ca1 O18 2.531417 1_555
Ca1 O6 2.589011 1_555
Ca1 O37 2.780271 1_555
Ca1 O36 2.949475 1_555
Ca2 O26 2.356116 1_465
Ca2 O47 2.424181 1_565
Ca2 O48 2.485552 1_565
Ca2 O1 2.537714 1_455
Ca2 O38 2.552465 1_555
Ca2 O37 2.580184 1_555
Ca2 O5 2.832254 1_455
Ca2 O7 2.883889 1_455
Ca3 O28 2.350968 1_465
Ca3 O49 2.425898 1_565
Ca3 O50 2.505092 1_565
Ca3 O2 2.544471 1_455
Ca3 O41 2.570144 1_555
Ca3 O40 2.590651 1_555
Ca3 O8 2.842365 1_455
Ca3 O9 2.888122 1_455
Ca4 O27 2.273963 1_565
Ca4 O52 2.352563 1_665
Ca4 O43 2.532060 1_655
Ca4 O3 2.540013 1_555
Ca4 O51 2.636340 1_665
Ca4 O11 2.714450 1_555
Ca4 O39 2.815029 1_655
Ca5 O29 2.271705 1_565
Ca5 O54 2.380947 1_665
Ca5 O4 2.532129 1_555
Ca5 O53 2.550357 1_665
Ca5 O44 2.567795 1_655
Ca5 O42 2.736661 1_655
Ca5 O12 2.766483 1_555
Ca5 O13 2.996106 1_555
La0 O5 2.374426 1_545
La0 O31 2.382062 1_645
La0 O15 2.562686 1_555
La0 O6 2.566547 1_545
La0 O55 2.625993 1_655
La0 O18 2.655499 1_555
La0 O47 2.734003 1_655
La0 O46 2.973214 1_655
La1 O8 2.377648 1_545
La1 O30 2.380407 1_645
La1 O7 2.550054 1_545
La1 O17 2.571663 1_555
La1 O56 2.630390 1_655
La1 O16 2.672881 1_555
La1 O49 2.748297 1_655
La1 O48 2.974256 1_655
La2 O10 2.329043 1_545
La2 O32 2.412715 1_645
La2 O19 2.459892 1_555
La2 O51 2.617405 1_655
La2 O9 2.643731 1_545
La2 O57 2.656027 1_655
La2 O20 2.746640 1_555
La3 O33 2.286498 1_545
La3 O12 2.438490 1_445
La3 O11 2.478935 1_445
La3 O58 2.622138 1_555
La3 O23 2.637191 1_455
La3 O22 2.673576 1_455
La3 O54 2.832923 1_555
La3 O52 2.882577 1_555
La4 O34 2.294322 1_545
La4 O13 2.339198 1_445
La4 O21 2.511429 1_455
La4 O53 2.629185 1_555
La4 O59 2.650046 1_555
La4 O14 2.675412 1_445
La4 O24 2.847350 1_455
La5 O19 2.326285 1_555
La5 O57 2.410165 1_555
La5 O10 2.445627 1_555
La5 O20 2.581763 1_555
La5 O32 2.616907 1_555
La5 O39 2.660725 1_555
La5 O9 2.667959 1_555
La6 O58 2.406634 1_555
La6 O23 2.423300 1_555
La6 O22 2.454017 1_555
La6 O33 2.468154 1_555
La6 O12 2.533260 1_555
La6 O11 2.569779 1_555
La6 O44 2.841840 1_555
La7 O21 2.346859 1_555
La7 O59 2.412231 1_555
La7 O13 2.434914 1_555
La7 O34 2.476005 1_555
La7 O24 2.658292 1_555
La7 O42 2.701194 1_555
La7 O14 2.728754 1_555
La8 O35 2.358428 1_555
La8 O0 2.410113 1_555
La8 O45 2.471806 1_555
La8 O36 2.566064 1_555
La8 O25 2.601898 1_555
La8 O46 2.664357 1_555
La8 O24 2.719680 1_554
La9 O1 2.405253 1_555
La9 O37 2.429744 1_555
La9 O38 2.522634 1_555
La9 O26 2.526180 1_555
La9 O47 2.585317 1_555
La9 O48 2.615026 1_555
La9 O15 2.781168 1_555
La9 O16 2.927639 1_555
La10 O27 2.346656 1_555
La10 O43 2.417126 1_555
La10 O3 2.417932 1_555
La10 O52 2.483704 1_555
La10 O39 2.682168 1_555
La10 O51 2.721406 1_555
La10 O22 2.730362 1_555
La10 O19 3.006593 1_555
La11 O2 2.403801 1_555
La11 O40 2.419712 1_555
La11 O41 2.537782 1_555
La11 O28 2.541949 1_555
La11 O49 2.582817 1_555
La11 O50 2.603595 1_555
La11 O17 2.769507 1_555
La11 O20 2.928057 1_555
La12 O29 2.343901 1_555
La12 O4 2.405262 1_555
La12 O44 2.448896 1_555
La12 O54 2.517291 1_555
La12 O42 2.594287 1_555
La12 O53 2.649483 1_555
La12 O23 2.777826 1_555
La12 O21 2.940155 1_555
La13 O45 2.370284 1_565
La13 O25 2.393449 1_465
La13 O35 2.481469 1_555
La13 O46 2.587880 1_565
La13 O0 2.643199 1_455
La13 O36 2.665908 1_555
La13 O14 2.676218 1_454
Mg0 O34 1.996884 1_545
Mg0 O14 2.061704 1_545
Mg0 O24 2.070963 1_555
Mg0 O45 2.078967 1_556
Mg0 O35 2.117581 1_546
Mg0 O25 2.184592 1_556
Mg1 O5 2.060070 1_555
Mg1 O37 2.082621 1_555
Mg1 O47 2.089025 1_565
Mg1 O15 2.112354 1_565
Mg1 O26 2.112896 1_565
Mg1 O31 2.121356 1_555
Mg2 O27 1.976525 1_565
Mg2 O39 2.071436 1_555
Mg2 O51 2.081799 1_565
Mg2 O10 2.086803 1_555
Mg2 O19 2.143540 1_565
Mg2 O32 2.226162 1_555
Mg3 O29 1.990362 1_565
Mg3 O13 2.091932 1_555
Mg3 O53 2.092750 1_565
Mg3 O42 2.098854 1_555
Mg3 O34 2.101022 1_555
Mg3 O21 2.145769 1_565
Mg4 O8 2.063435 1_555
Mg4 O40 2.082240 1_555
Mg4 O49 2.087742 1_565
Mg4 O17 2.113205 1_565
Mg4 O28 2.115064 1_565
Mg4 O30 2.124039 1_555
Mg5 O27 2.044145 1_565
Mg5 O33 2.056582 1_555
Mg5 O11 2.072544 1_555
Mg5 O43 2.104859 1_555
Mg5 O52 2.112424 1_565
Mg5 O22 2.136626 1_565
Mg6 O29 2.029848 1_565
Mg6 O33 2.068008 1_555
Mg6 O12 2.078968 1_555
Mg6 O44 2.102031 1_555
Mg6 O54 2.106238 1_565
Mg6 O23 2.137448 1_565
O0 Ti1 1.944272 1_555
O0 Ti0 2.234151 1_654
O1 Ti3 2.023734 1_555
O1 Ti2 2.032940 1_555
O2 Ti4 2.010932 1_555
O2 Ti5 2.035484 1_555
O3 Ti6 1.851045 1_555
O3 Ti7 2.123029 1_655
O4 Ti9 1.875036 1_555
O4 Ti8 2.047741 1_655
O5 Ti2 1.956243 1_555
O6 Ti1 2.002221 1_555
O6 Ti10 2.002886 1_555
O7 Ti3 2.002962 1_555
O7 Ti11 2.008154 1_555
O8 Ti4 1.955773 1_555
O9 Ti5 1.984144 1_555
O9 Ti12 2.020442 1_555
O10 Ti6 1.996405 1_555
O11 Ti7 1.946738 1_655
O12 Ti8 1.956094 1_655
O13 Ti9 1.985979 1_555
O14 Ti0 1.929262 1_655
O15 Ti2 1.961334 1_555
O16 Ti3 1.947757 1_555
O16 Ti11 2.116432 1_545
O17 Ti4 1.958369 1_555
O18 Ti1 1.973821 1_555
O18 Ti10 2.067518 1_545
O19 Ti6 2.005362 1_555
O20 Ti5 1.961262 1_555
O20 Ti12 2.080628 1_545
O21 Ti9 1.989730 1_555
O22 Ti7 1.952479 1_655
O23 Ti8 1.957617 1_655
O24 Ti0 1.913580 1_655
O25 Ti10 1.951193 1_545
O26 Ti11 1.932298 1_545
O28 Ti12 1.928474 1_545
O30 Ti11 1.930140 1_555
O31 Ti10 1.910767 1_555
O32 Ti12 1.937427 1_555
O35 Ti0 1.997754 1_554
O36 Ti10 2.007232 1_555
O36 Ti1 2.037554 1_455
O37 Ti2 1.941518 1_455
O38 Ti11 1.982037 1_555
O38 Ti3 2.060418 1_455
O39 Ti6 1.906980 1_455
O40 Ti4 1.943208 1_455
O41 Ti12 1.996535 1_555
O41 Ti5 2.046042 1_455
O42 Ti9 1.903101 1_455
O43 Ti7 1.930288 1_555
O44 Ti8 1.919900 1_555
O45 Ti0 1.986485 1_554
O46 Ti1 2.011213 1_455
O46 Ti10 2.012619 1_545
O47 Ti2 1.953233 1_455
O48 Ti3 2.004809 1_455
O48 Ti11 2.031436 1_545
O49 Ti4 1.952427 1_455
O50 Ti12 1.999440 1_545
O50 Ti5 2.026451 1_455
O51 Ti6 1.922459 1_455
O52 Ti7 1.940748 1_555
O53 Ti9 1.917085 1_455
O54 Ti8 1.928638 1_555
O55 Ti1 1.975410 1_455
O55 Ti2 2.084493 1_455
O56 Ti3 1.948126 1_455
O56 Ti4 2.110675 1_455
O57 Ti5 1.891341 1_455
O57 Ti6 2.285086 1_455
O58 Ti7 1.977004 1_555
O58 Ti8 2.037033 1_555
O59 Ti0 1.860653 1_555
O59 Ti9 2.241898 1_455
