# generated using pymatgen
data_Li3Ti6Co3O16
_symmetry_space_group_name_H-M   'P 1'
_cell_length_a   8.45530100
_cell_length_b   8.45390100
_cell_length_c   8.45631165
_cell_angle_alpha   89.95463799
_cell_angle_beta   90.00000000
_cell_angle_gamma   90.00000000
_symmetry_Int_Tables_number   1
_chemical_formula_structural   Li3Ti6Co3O16
_chemical_formula_sum   'Li6 Ti12 Co6 O32'
_cell_volume   604.45931462
_cell_formula_units_Z   2
loop_
 _symmetry_equiv_pos_site_id
 _symmetry_equiv_pos_as_xyz
  1  'x, y, z'
loop_
 _atom_site_type_symbol
 _atom_site_label
 _atom_site_symmetry_multiplicity
 _atom_site_fract_x
 _atom_site_fract_y
 _atom_site_fract_z
 _atom_site_occupancy
  Li  Li0  1  0.99778700  0.00182400  0.75147500  1
  Li  Li1  1  0.87505500  0.87504500  0.37467000  1
  Li  Li2  1  0.12500200  0.62488300  0.87485400  1
  Li  Li3  1  0.62500200  0.37511700  0.12514600  1
  Li  Li4  1  0.37505500  0.12495500  0.62533000  1
  Li  Li5  1  0.49778700  0.99817600  0.24852500  1
  Ti  Ti0  1  0.12163100  0.86995700  0.11968800  1
  Ti  Ti1  1  0.62739300  0.88414300  0.61479400  1
  Ti  Ti2  1  0.36600400  0.87595300  0.86992900  1
  Ti  Ti3  1  0.37636800  0.62139600  0.12050900  1
  Ti  Ti4  1  0.63044400  0.62759600  0.36907700  1
  Ti  Ti5  1  0.88103600  0.63548200  0.62571900  1
  Ti  Ti6  1  0.13044400  0.37240400  0.63092300  1
  Ti  Ti7  1  0.38103600  0.36451800  0.37428100  1
  Ti  Ti8  1  0.87636800  0.37860400  0.87949100  1
  Ti  Ti9  1  0.12739300  0.11585700  0.38520600  1
  Ti  Ti10  1  0.62163100  0.13004300  0.88031200  1
  Ti  Ti11  1  0.86600400  0.12404700  0.13007100  1
  Co  Co0  1  0.25200600  0.74814100  0.49918900  1
  Co  Co1  1  0.74913500  0.75128700  0.99769700  1
  Co  Co2  1  0.50037000  0.50109300  0.74855800  1
  Co  Co3  1  0.00037000  0.49890700  0.25144200  1
  Co  Co4  1  0.24913500  0.24871300  0.00230300  1
  Co  Co5  1  0.75200600  0.25185900  0.50081100  1
  O  O0  1  0.39061000  0.87207800  0.64282800  1
  O  O1  1  0.36044000  0.86048600  0.11001300  1
  O  O2  1  0.85725500  0.85609300  0.62592400  1
  O  O3  1  0.89237600  0.89011000  0.12249100  1
  O  O4  1  0.62342200  0.85802000  0.39488400  1
  O  O5  1  0.12740400  0.89231500  0.36034600  1
  O  O6  1  0.14387700  0.87619900  0.89095700  1
  O  O7  1  0.61249500  0.88865200  0.86232100  1
  O  O8  1  0.10738800  0.61046100  0.62228900  1
  O  O9  1  0.13850100  0.64290100  0.12838500  1
  O  O10  1  0.38690500  0.61380000  0.36277100  1
  O  O11  1  0.37783700  0.63946000  0.89168400  1
  O  O12  1  0.63740000  0.63677400  0.61354400  1
  O  O13  1  0.85854900  0.62121200  0.38980700  1
  O  O14  1  0.61113300  0.62873400  0.14073200  1
  O  O15  1  0.87217700  0.60756400  0.86032600  1
  O  O16  1  0.13740000  0.36322600  0.38645600  1
  O  O17  1  0.35854900  0.37878800  0.61019300  1
  O  O18  1  0.37217700  0.39243600  0.13967400  1
  O  O19  1  0.60738800  0.38953900  0.37771100  1
  O  O20  1  0.11113300  0.37126600  0.85926800  1
  O  O21  1  0.63850100  0.35709900  0.87161500  1
  O  O22  1  0.88690500  0.38620000  0.63722900  1
  O  O23  1  0.87783700  0.36054000  0.10831600  1
  O  O24  1  0.12342200  0.14198000  0.60511600  1
  O  O25  1  0.11249500  0.11134800  0.13767900  1
  O  O26  1  0.35725500  0.14390700  0.37407600  1
  O  O27  1  0.62740400  0.10768500  0.63965400  1
  O  O28  1  0.64387700  0.12380100  0.10904300  1
  O  O29  1  0.39237600  0.10989000  0.87750900  1
  O  O30  1  0.89061000  0.12792200  0.35717200  1
  O  O31  1  0.86044000  0.13951400  0.88998700  1
loop_
_geom_bond_atom_site_label_1
_geom_bond_atom_site_label_2
_geom_bond_distance
_geom_bond_site_symmetry_2
Li0 O6 2.010706 1_645
Li0 O2 2.014697 1_545
Li0 O24 2.015396 1_655
Li0 O31 2.019327 1_555
Li1 O2 2.135897 1_555
Li1 O4 2.139326 1_555
Li1 O3 2.141218 1_555
Li1 O5 2.142097 1_655
Li1 O30 2.146828 1_565
Li1 O13 2.154118 1_555
Li2 O6 2.135041 1_555
Li2 O8 2.144520 1_555
Li2 O11 2.146076 1_555
Li2 O15 2.146245 1_455
Li2 O20 2.151403 1_555
Li2 O9 2.152490 1_556
Li3 O28 2.135041 1_555
Li3 O19 2.144520 1_555
Li3 O23 2.146076 1_555
Li3 O18 2.146245 1_555
Li3 O14 2.151403 1_555
Li3 O21 2.152490 1_554
Li4 O26 2.135897 1_555
Li4 O24 2.139326 1_555
Li4 O29 2.141218 1_555
Li4 O27 2.142097 1_555
Li4 O0 2.146828 1_545
Li4 O17 2.154118 1_555
Li5 O28 2.010706 1_565
Li5 O26 2.014697 1_565
Li5 O4 2.015396 1_555
Li5 O1 2.019327 1_555
Co0 O10 1.980826 1_555
Co0 O8 1.982841 1_555
Co0 O0 1.987115 1_555
Co0 O5 1.992927 1_555
Co1 O14 1.973819 1_556
Co1 O15 1.977445 1_555
Co1 O3 1.989928 1_556
Co1 O7 1.997939 1_555
Co2 O17 1.969250 1_555
Co2 O11 1.977072 1_555
Co2 O21 1.981612 1_555
Co2 O12 1.989865 1_555
Co3 O13 1.969250 1_455
Co3 O23 1.977072 1_455
Co3 O9 1.981612 1_555
Co3 O16 1.989865 1_555
Co4 O20 1.973819 1_554
Co4 O18 1.977445 1_555
Co4 O29 1.989928 1_554
Co4 O25 1.997939 1_555
Co5 O22 1.980826 1_555
Co5 O19 1.982841 1_555
Co5 O30 1.987115 1_555
Co5 O27 1.992927 1_555
O0 Ti2 1.931977 1_555
O0 Ti1 2.018627 1_555
O1 Ti0 2.022447 1_555
O1 Ti3 2.027598 1_555
O1 Ti2 2.034872 1_554
O2 Ti5 1.875834 1_555
O2 Ti1 1.960217 1_555
O3 Ti0 1.946039 1_655
O3 Ti11 1.991294 1_565
O4 Ti1 1.873169 1_555
O4 Ti4 1.961238 1_555
O5 Ti9 1.901624 1_565
O5 Ti0 2.044569 1_555
O6 Ti2 1.886551 1_555
O6 Ti0 1.944020 1_556
O7 Ti10 2.047936 1_565
O7 Ti2 2.087908 1_555
O7 Ti1 2.097329 1_555
O8 Ti5 1.925749 1_455
O8 Ti6 2.023190 1_555
O9 Ti0 1.926148 1_555
O9 Ti3 2.020540 1_555
O10 Ti3 2.051534 1_555
O10 Ti4 2.063187 1_555
O10 Ti7 2.110158 1_555
O11 Ti3 1.940951 1_556
O11 Ti2 2.010081 1_555
O12 Ti5 2.062615 1_555
O12 Ti4 2.069642 1_555
O12 Ti1 2.092979 1_555
O13 Ti4 1.937395 1_555
O13 Ti5 2.007708 1_555
O14 Ti4 1.937864 1_555
O14 Ti3 1.993331 1_555
O15 Ti8 1.942573 1_555
O15 Ti5 1.999118 1_555
O16 Ti7 2.062615 1_555
O16 Ti6 2.069642 1_555
O16 Ti9 2.092979 1_555
O17 Ti6 1.937395 1_555
O17 Ti7 2.007708 1_555
O18 Ti3 1.942573 1_555
O18 Ti7 1.999118 1_555
O19 Ti7 1.925749 1_555
O19 Ti4 2.023190 1_555
O20 Ti6 1.937864 1_555
O20 Ti8 1.993331 1_455
O21 Ti10 1.926148 1_555
O21 Ti8 2.020540 1_555
O22 Ti8 2.051534 1_555
O22 Ti6 2.063187 1_655
O22 Ti5 2.110158 1_555
O23 Ti8 1.940951 1_554
O23 Ti11 2.010081 1_555
O24 Ti9 1.873169 1_555
O24 Ti6 1.961238 1_555
O25 Ti0 2.047936 1_545
O25 Ti11 2.087908 1_455
O25 Ti9 2.097329 1_555
O26 Ti7 1.875834 1_555
O26 Ti9 1.960217 1_555
O27 Ti1 1.901624 1_545
O27 Ti10 2.044569 1_555
O28 Ti11 1.886551 1_555
O28 Ti10 1.944020 1_554
O29 Ti10 1.946039 1_555
O29 Ti2 1.991294 1_545
O30 Ti11 1.931977 1_555
O30 Ti9 2.018627 1_655
O31 Ti10 2.022447 1_555
O31 Ti8 2.027598 1_555
O31 Ti11 2.034872 1_556
