# generated using pymatgen
data_Li3V3(FeO6)2
_symmetry_space_group_name_H-M   'P 1'
_cell_length_a   9.23257500
_cell_length_b   8.85941000
_cell_length_c   15.14971018
_cell_angle_alpha   55.50525585
_cell_angle_beta   90.00000000
_cell_angle_gamma   90.00000000
_symmetry_Int_Tables_number   1
_chemical_formula_structural   Li3V3(FeO6)2
_chemical_formula_sum   'Li12 V12 Fe8 O48'
_cell_volume   1021.29936638
_cell_formula_units_Z   4
loop_
 _symmetry_equiv_pos_site_id
 _symmetry_equiv_pos_as_xyz
  1  'x, y, z'
loop_
 _atom_site_type_symbol
 _atom_site_label
 _atom_site_symmetry_multiplicity
 _atom_site_fract_x
 _atom_site_fract_y
 _atom_site_fract_z
 _atom_site_occupancy
  Li  Li0  1  0.91005300  0.37312500  0.69825600  1
  Li  Li1  1  0.49324800  0.71934800  0.34448000  1
  Li  Li2  1  0.22353800  0.00053200  0.17952500  1
  Li  Li3  1  0.72353800  0.99946800  0.32047500  1
  Li  Li4  1  0.41005300  0.62687500  0.80174400  1
  Li  Li5  1  0.99324800  0.28065200  0.15552000  1
  Li  Li6  1  0.00675200  0.71934800  0.84448000  1
  Li  Li7  1  0.58994700  0.37312500  0.19825600  1
  Li  Li8  1  0.27646200  0.00053200  0.67952500  1
  Li  Li9  1  0.77646200  0.99946800  0.82047500  1
  Li  Li10  1  0.50675200  0.28065200  0.65552000  1
  Li  Li11  1  0.08994700  0.62687500  0.30174400  1
  V  V0  1  0.75305600  0.54722400  0.49120000  1
  V  V1  1  0.61966200  0.26459000  0.85075300  1
  V  V2  1  0.88387000  0.96987600  0.14283400  1
  V  V3  1  0.11966200  0.73541000  0.64924700  1
  V  V4  1  0.38387000  0.03012400  0.35716600  1
  V  V5  1  0.25305600  0.45277600  0.00880000  1
  V  V6  1  0.74694400  0.54722400  0.99120000  1
  V  V7  1  0.61613000  0.96987600  0.64283400  1
  V  V8  1  0.88033800  0.26459000  0.35075300  1
  V  V9  1  0.11613000  0.03012400  0.85716600  1
  V  V10  1  0.38033800  0.73541000  0.14924700  1
  V  V11  1  0.24694400  0.45277600  0.50880000  1
  Fe  Fe0  1  0.97756900  0.35468800  0.89237700  1
  Fe  Fe1  1  0.47756900  0.64531200  0.60762300  1
  Fe  Fe2  1  0.03144100  0.87132400  0.38338000  1
  Fe  Fe3  1  0.53144100  0.12867600  0.11662000  1
  Fe  Fe4  1  0.46855900  0.87132400  0.88338000  1
  Fe  Fe5  1  0.96855900  0.12867600  0.61662000  1
  Fe  Fe6  1  0.52243100  0.35468800  0.39237700  1
  Fe  Fe7  1  0.02243100  0.64531200  0.10762300  1
  O  O0  1  0.11686700  0.62217000  0.43879900  1
  O  O1  1  0.11173300  0.16251700  0.90695100  1
  O  O2  1  0.33995700  0.45825600  0.60700200  1
  O  O3  1  0.42382400  0.87983700  0.19250300  1
  O  O4  1  0.63231700  0.50463000  0.59232600  1
  O  O5  1  0.80914000  0.28558600  0.83737300  1
  O  O6  1  0.58006100  0.15607300  0.98365100  1
  O  O7  1  0.01359900  0.87841100  0.24590300  1
  O  O8  1  0.71516900  0.98382800  0.19123800  1
  O  O9  1  0.82813500  0.76603800  0.43016800  1
  O  O10  1  0.52573800  0.47099800  0.77333800  1
  O  O11  1  0.02573800  0.52900200  0.72666200  1
  O  O12  1  0.94579200  0.19522600  0.05221700  1
  O  O13  1  0.44579200  0.80477400  0.44778300  1
  O  O14  1  0.32813500  0.23396200  0.06983200  1
  O  O15  1  0.21516900  0.01617200  0.30876200  1
  O  O16  1  0.08006100  0.84392700  0.51634900  1
  O  O17  1  0.51359900  0.12158900  0.25409700  1
  O  O18  1  0.30914000  0.71441400  0.66262700  1
  O  O19  1  0.13231700  0.49537000  0.90767400  1
  O  O20  1  0.83995700  0.54174400  0.89299800  1
  O  O21  1  0.61173300  0.83748300  0.59304900  1
  O  O22  1  0.92382400  0.12016300  0.30749700  1
  O  O23  1  0.61686700  0.37783000  0.06120100  1
  O  O24  1  0.38313300  0.62217000  0.93879900  1
  O  O25  1  0.07617600  0.87983700  0.69250300  1
  O  O26  1  0.38826700  0.16251700  0.40695100  1
  O  O27  1  0.16004300  0.45825600  0.10700200  1
  O  O28  1  0.86768300  0.50463000  0.09232600  1
  O  O29  1  0.69086000  0.28558600  0.33737300  1
  O  O30  1  0.48640100  0.87841100  0.74590300  1
  O  O31  1  0.91993900  0.15607300  0.48365100  1
  O  O32  1  0.78483100  0.98382800  0.69123800  1
  O  O33  1  0.67186500  0.76603800  0.93016800  1
  O  O34  1  0.55420800  0.19522600  0.55221700  1
  O  O35  1  0.05420800  0.80477400  0.94778300  1
  O  O36  1  0.97426200  0.47099800  0.27333800  1
  O  O37  1  0.47426200  0.52900200  0.22666200  1
  O  O38  1  0.17186500  0.23396200  0.56983200  1
  O  O39  1  0.28483100  0.01617200  0.80876200  1
  O  O40  1  0.98640100  0.12158900  0.75409700  1
  O  O41  1  0.41993900  0.84392700  0.01634900  1
  O  O42  1  0.19086000  0.71441400  0.16262700  1
  O  O43  1  0.36768300  0.49537000  0.40767400  1
  O  O44  1  0.57617600  0.12016300  0.80749700  1
  O  O45  1  0.66004300  0.54174400  0.39299800  1
  O  O46  1  0.88826700  0.83748300  0.09304900  1
  O  O47  1  0.88313300  0.37783000  0.56120100  1
loop_
_geom_bond_atom_site_label_1
_geom_bond_atom_site_label_2
_geom_bond_distance
_geom_bond_site_symmetry_2
Li0 O11 1.976412 1_655
Li0 O40 2.010786 1_555
Li0 O5 2.014957 1_555
Li0 O47 2.068014 1_555
Li1 O3 2.006390 1_555
Li1 O43 2.011533 1_555
Li1 O45 2.019289 1_555
Li1 O13 2.134379 1_555
Li2 O14 2.019507 1_555
Li2 O15 2.041037 1_555
Li2 O3 2.088847 1_545
Li2 O7 2.169423 1_545
Li3 O9 2.019507 1_555
Li3 O8 2.041037 1_555
Li3 O22 2.088847 1_565
Li3 O17 2.169423 1_565
Li4 O10 1.976412 1_555
Li4 O30 2.010786 1_555
Li4 O18 2.014957 1_555
Li4 O24 2.068014 1_555
Li5 O22 2.006390 1_555
Li5 O28 2.011533 1_555
Li5 O27 2.019289 1_655
Li5 O12 2.134379 1_555
Li6 O25 2.006390 1_555
Li6 O19 2.011533 1_555
Li6 O20 2.019289 1_455
Li6 O35 2.134379 1_555
Li7 O37 1.976412 1_555
Li7 O17 2.010786 1_555
Li7 O29 2.014957 1_555
Li7 O23 2.068014 1_555
Li8 O38 2.019507 1_555
Li8 O39 2.041037 1_555
Li8 O25 2.088847 1_545
Li8 O30 2.169423 1_545
Li9 O33 2.019507 1_555
Li9 O32 2.041037 1_555
Li9 O44 2.088847 1_565
Li9 O40 2.169423 1_565
Li10 O44 2.006390 1_555
Li10 O4 2.011533 1_555
Li10 O2 2.019289 1_555
Li10 O34 2.134379 1_555
Li11 O36 1.976412 1_455
Li11 O7 2.010786 1_555
Li11 O42 2.014957 1_555
Li11 O0 2.068014 1_555
Fe0 O19 1.993871 1_655
Fe0 O1 2.013923 1_655
Fe0 O5 2.016215 1_555
Fe0 O12 2.017644 1_556
Fe0 O20 2.092435 1_555
Fe0 O11 2.119925 1_655
Fe1 O4 1.993871 1_555
Fe1 O21 2.013923 1_555
Fe1 O18 2.016215 1_555
Fe1 O13 2.017644 1_555
Fe1 O2 2.092435 1_555
Fe1 O10 2.119925 1_555
Fe2 O16 1.940252 1_555
Fe2 O0 2.024911 1_555
Fe2 O9 2.036390 1_455
Fe2 O15 2.039349 1_565
Fe2 O7 2.054447 1_555
Fe2 O22 2.073238 1_465
Fe3 O6 1.940252 1_554
Fe3 O23 2.024911 1_555
Fe3 O14 2.036390 1_555
Fe3 O8 2.039349 1_545
Fe3 O17 2.054447 1_555
Fe3 O3 2.073238 1_545
Fe4 O41 1.940252 1_556
Fe4 O24 2.024911 1_555
Fe4 O33 2.036390 1_555
Fe4 O39 2.039349 1_565
Fe4 O30 2.054447 1_555
Fe4 O44 2.073238 1_565
Fe5 O31 1.940252 1_555
Fe5 O47 2.024911 1_555
Fe5 O38 2.036390 1_655
Fe5 O32 2.039349 1_545
Fe5 O40 2.054447 1_555
Fe5 O25 2.073238 1_645
Fe6 O43 1.993871 1_555
Fe6 O26 2.013923 1_555
Fe6 O29 2.016215 1_555
Fe6 O34 2.017644 1_555
Fe6 O45 2.092435 1_555
Fe6 O37 2.119925 1_555
Fe7 O28 1.993871 1_455
Fe7 O46 2.013923 1_455
Fe7 O42 2.016215 1_555
Fe7 O35 2.017644 1_554
Fe7 O27 2.092435 1_555
Fe7 O36 2.119925 1_455
O0 V11 1.736797 1_555
O1 V9 1.717053 1_555
O2 V11 1.742115 1_555
O3 V10 1.782579 1_555
O4 V0 1.754230 1_555
O5 V1 1.758771 1_555
O6 V1 1.708560 1_555
O7 V2 1.759606 1_455
O8 V2 1.755457 1_555
O9 V0 1.750205 1_555
O10 V1 1.744204 1_555
O11 V3 1.744204 1_555
O12 V2 1.758685 1_545
O13 V4 1.758685 1_565
O14 V5 1.750205 1_555
O15 V4 1.755457 1_555
O16 V3 1.708560 1_555
O17 V4 1.759606 1_555
O18 V3 1.758771 1_555
O19 V5 1.754230 1_556
O20 V6 1.742115 1_555
O21 V7 1.717053 1_555
O22 V8 1.782579 1_555
O23 V6 1.736797 1_554
O24 V5 1.736797 1_556
O25 V3 1.782579 1_555
O26 V4 1.717053 1_555
O27 V5 1.742115 1_555
O28 V6 1.754230 1_554
O29 V8 1.758771 1_555
O30 V7 1.759606 1_555
O31 V8 1.708560 1_555
O32 V7 1.755457 1_555
O33 V6 1.750205 1_555
O34 V7 1.758685 1_545
O35 V9 1.758685 1_565
O36 V8 1.744204 1_555
O37 V10 1.744204 1_555
O38 V11 1.750205 1_555
O39 V9 1.755457 1_555
O40 V9 1.759606 1_655
O41 V10 1.708560 1_555
O42 V10 1.758771 1_555
O43 V11 1.754230 1_555
O44 V1 1.782579 1_555
O45 V0 1.742115 1_555
O46 V2 1.717053 1_555
O47 V0 1.736797 1_555
