# generated using pymatgen
data_Hf3Sc4O12
_symmetry_space_group_name_H-M   'P 1'
_cell_length_a   6.14533519
_cell_length_b   6.14245361
_cell_length_c   12.21281294
_cell_angle_alpha   99.33993006
_cell_angle_beta   99.38071259
_cell_angle_gamma   99.63456725
_symmetry_Int_Tables_number   1
_chemical_formula_structural   Hf3Sc4O12
_chemical_formula_sum   'Hf6 Sc8 O24'
_cell_volume   439.82369641
_cell_formula_units_Z   2
loop_
 _symmetry_equiv_pos_site_id
 _symmetry_equiv_pos_as_xyz
  1  'x, y, z'
loop_
 _atom_site_type_symbol
 _atom_site_label
 _atom_site_symmetry_multiplicity
 _atom_site_fract_x
 _atom_site_fract_y
 _atom_site_fract_z
 _atom_site_occupancy
  Hf  Hf0  1  0.14069570  0.61091271  0.40609426  1
  Hf  Hf1  1  0.68226631  0.85800922  0.94461347  1
  Hf  Hf2  1  0.99501552  0.99627796  0.25058911  1
  Hf  Hf3  1  0.00498448  0.00372204  0.74941089  1
  Hf  Hf4  1  0.31773369  0.14199078  0.05538653  1
  Hf  Hf5  1  0.85930430  0.38908729  0.59390574  1
  Sc  Sc0  1  0.13586946  0.60545411  0.90548204  1
  Sc  Sc1  1  0.39197884  0.68976673  0.68033207  1
  Sc  Sc2  1  0.39402023  0.67999837  0.18145414  1
  Sc  Sc3  1  0.68084868  0.85898647  0.44549079  1
  Sc  Sc4  1  0.31915132  0.14101353  0.55450921  1
  Sc  Sc5  1  0.60802116  0.31023327  0.31966793  1
  Sc  Sc6  1  0.60597977  0.32000163  0.81854586  1
  Sc  Sc7  1  0.86413054  0.39454589  0.09451796  1
  O  O0  1  0.09320658  0.93799475  0.41016253  1
  O  O1  1  0.09291516  0.94725286  0.91183186  1
  O  O2  1  0.05241724  0.68196649  0.70074240  1
  O  O3  1  0.06105048  0.67551741  0.21163782  1
  O  O4  1  0.41412096  0.81732448  0.53670382  1
  O  O5  1  0.42695048  0.82487630  0.03984985  1
  O  O6  1  0.17883656  0.41521709  0.03673272  1
  O  O7  1  0.17402104  0.41983789  0.53603294  1
  O  O8  1  0.67704453  0.90640761  0.27792327  1
  O  O9  1  0.68483312  0.90847405  0.78278535  1
  O  O10  1  0.41862628  0.57087329  0.34059770  1
  O  O11  1  0.42331453  0.58625147  0.84170988  1
  O  O12  1  0.58137372  0.42912671  0.65940230  1
  O  O13  1  0.57668547  0.41374853  0.15829012  1
  O  O14  1  0.32295547  0.09359239  0.72207673  1
  O  O15  1  0.31516688  0.09152595  0.21721465  1
  O  O16  1  0.82597896  0.58016211  0.46396706  1
  O  O17  1  0.82116344  0.58478291  0.96326728  1
  O  O18  1  0.57304952  0.17512370  0.96015015  1
  O  O19  1  0.58587904  0.18267552  0.46329618  1
  O  O20  1  0.94758276  0.31803351  0.29925760  1
  O  O21  1  0.93894952  0.32448259  0.78836218  1
  O  O22  1  0.90679342  0.06200525  0.58983747  1
  O  O23  1  0.90708484  0.05274714  0.08816814  1
loop_
_geom_bond_atom_site_label_1
_geom_bond_atom_site_label_2
_geom_bond_distance
_geom_bond_site_symmetry_2
Hf0 O10 2.034607 1_555
Hf0 O0 2.071871 1_555
Hf0 O20 2.089475 1_455
Hf0 O7 2.125275 1_555
Hf0 O16 2.154624 1_455
Hf0 O4 2.175314 1_555
Hf0 O3 2.455399 1_555
Hf1 O17 2.034040 1_555
Hf1 O9 2.051774 1_555
Hf1 O23 2.095198 1_566
Hf1 O5 2.102580 1_556
Hf1 O18 2.154019 1_565
Hf1 O11 2.162449 1_555
Hf1 O1 2.601298 1_655
Hf2 O8 2.036132 1_555
Hf2 O0 2.050774 1_655
Hf2 O20 2.052391 1_565
Hf2 O23 2.069707 1_565
Hf2 O3 2.073458 1_655
Hf2 O15 2.081529 1_665
Hf3 O14 2.036132 1_555
Hf3 O22 2.050774 1_455
Hf3 O2 2.052391 1_545
Hf3 O1 2.069707 1_545
Hf3 O21 2.073458 1_455
Hf3 O9 2.081529 1_445
Hf4 O6 2.034040 1_555
Hf4 O15 2.051774 1_555
Hf4 O1 2.095198 1_544
Hf4 O18 2.102580 1_554
Hf4 O5 2.154019 1_545
Hf4 O13 2.162449 1_555
Hf4 O23 2.601298 1_455
Hf5 O12 2.034607 1_555
Hf5 O22 2.071871 1_555
Hf5 O2 2.089475 1_655
Hf5 O16 2.125275 1_555
Hf5 O7 2.154624 1_655
Hf5 O19 2.175314 1_555
Hf5 O21 2.455399 1_555
O0 Sc4 2.121251 1_565
O0 Sc3 2.618389 1_455
O1 Sc0 2.150082 1_555
O2 Sc1 2.135135 1_555
O2 Sc0 2.603882 1_555
O3 Sc7 2.103410 1_455
O3 Sc2 2.133999 1_555
O4 Sc1 2.048785 1_555
O4 Sc3 2.130850 1_555
O4 Sc4 2.151851 1_565
O5 Sc2 2.092128 1_555
O5 Sc0 2.286355 1_554
O6 Sc0 2.139592 1_554
O6 Sc7 2.155512 1_455
O6 Sc2 2.258963 1_555
O7 Sc4 2.085834 1_555
O7 Sc1 2.277618 1_555
O8 Sc2 2.082728 1_555
O8 Sc3 2.110356 1_555
O8 Sc5 2.569987 1_565
O9 Sc1 2.126091 1_555
O9 Sc6 2.633618 1_565
O10 Sc5 2.137981 1_555
O10 Sc2 2.147251 1_555
O10 Sc3 2.237488 1_555
O11 Sc0 2.056512 1_555
O11 Sc6 2.140701 1_555
O11 Sc1 2.156327 1_555
O12 Sc1 2.137981 1_555
O12 Sc6 2.147251 1_555
O12 Sc4 2.237488 1_555
O13 Sc7 2.056512 1_555
O13 Sc2 2.140701 1_555
O13 Sc5 2.156327 1_555
O14 Sc6 2.082728 1_555
O14 Sc4 2.110356 1_555
O14 Sc1 2.569987 1_545
O15 Sc5 2.126091 1_555
O15 Sc2 2.633618 1_545
O16 Sc3 2.085834 1_555
O16 Sc5 2.277618 1_555
O17 Sc7 2.139592 1_556
O17 Sc0 2.155512 1_655
O17 Sc6 2.258963 1_555
O18 Sc6 2.092128 1_555
O18 Sc7 2.286355 1_556
O19 Sc5 2.048785 1_555
O19 Sc4 2.130850 1_555
O19 Sc3 2.151851 1_545
O20 Sc5 2.135135 1_555
O20 Sc7 2.603882 1_555
O21 Sc0 2.103410 1_655
O21 Sc6 2.133999 1_555
O22 Sc3 2.121251 1_545
O22 Sc4 2.618389 1_655
O23 Sc7 2.150082 1_555
