# generated using pymatgen
data_InP2H6NO8
_symmetry_space_group_name_H-M   'P 1'
_cell_length_a   8.61790900
_cell_length_b   9.52459900
_cell_length_c   10.06254952
_cell_angle_alpha   61.09199929
_cell_angle_beta   90.00000000
_cell_angle_gamma   90.00000000
_symmetry_Int_Tables_number   1
_chemical_formula_structural   InP2H6NO8
_chemical_formula_sum   'In4 P8 H24 N4 O32'
_cell_volume   723.03897015
_cell_formula_units_Z   4
loop_
 _symmetry_equiv_pos_site_id
 _symmetry_equiv_pos_as_xyz
  1  'x, y, z'
loop_
 _atom_site_type_symbol
 _atom_site_label
 _atom_site_symmetry_multiplicity
 _atom_site_fract_x
 _atom_site_fract_y
 _atom_site_fract_z
 _atom_site_occupancy
  In  In0  1  0.88277600  0.48807100  0.25628400  1
  In  In1  1  0.61722400  0.98807100  0.25628400  1
  In  In2  1  0.38277600  0.01192900  0.74371600  1
  In  In3  1  0.11722400  0.51192900  0.74371600  1
  P  P0  1  0.81488800  0.36578700  0.99811800  1
  P  P1  1  0.68511200  0.86578700  0.99811800  1
  P  P2  1  0.55102000  0.25769400  0.39088900  1
  P  P3  1  0.05102000  0.24230600  0.60911100  1
  P  P4  1  0.94898000  0.75769400  0.39088900  1
  P  P5  1  0.44898000  0.74230600  0.60911100  1
  P  P6  1  0.31488800  0.13421300  0.00188200  1
  P  P7  1  0.18511200  0.63421300  0.00188200  1
  H  H0  1  0.20707200  0.87771400  0.99444500  1
  H  H1  1  0.29292800  0.37771400  0.99444500  1
  H  H2  1  0.23198000  0.11916300  0.28379500  1
  H  H3  1  0.05210400  0.03737300  0.33415700  1
  H  H4  1  0.10975800  0.17464300  0.38382600  1
  H  H5  1  0.37521600  0.39671500  0.19495900  1
  H  H6  1  0.19616200  0.99173100  0.46522500  1
  H  H7  1  0.26802000  0.61916300  0.28379500  1
  H  H8  1  0.44789600  0.53737300  0.33415700  1
  H  H9  1  0.39024200  0.67464300  0.38382600  1
  H  H10  1  0.12478400  0.89671500  0.19495900  1
  H  H11  1  0.30383800  0.49173100  0.46522500  1
  H  H12  1  0.69616200  0.50826900  0.53477500  1
  H  H13  1  0.87521600  0.10328500  0.80504100  1
  H  H14  1  0.60975800  0.32535700  0.61617400  1
  H  H15  1  0.55210400  0.46262700  0.66584300  1
  H  H16  1  0.73198000  0.38083700  0.71620500  1
  H  H17  1  0.80383800  0.00826900  0.53477500  1
  H  H18  1  0.62478400  0.60328500  0.80504100  1
  H  H19  1  0.89024200  0.82535700  0.61617400  1
  H  H20  1  0.94789600  0.96262700  0.66584300  1
  H  H21  1  0.76802000  0.88083700  0.71620500  1
  H  H22  1  0.70707200  0.62228600  0.00555500  1
  H  H23  1  0.79292800  0.12228600  0.00555500  1
  N  N0  1  0.14703000  0.08039100  0.36606000  1
  N  N1  1  0.35297000  0.58039100  0.36606000  1
  N  N2  1  0.64703000  0.41960900  0.63394000  1
  N  N3  1  0.85297000  0.91960900  0.63394000  1
  O  O0  1  0.17840800  0.01710000  0.04163400  1
  O  O1  1  0.74318700  0.18681000  0.05148900  1
  O  O2  1  0.40874900  0.10773300  0.14192400  1
  O  O3  1  0.32159200  0.51710000  0.04163400  1
  O  O4  1  0.90702200  0.35427200  0.13322000  1
  O  O5  1  0.75681300  0.68681000  0.05148900  1
  O  O6  1  0.09125100  0.60773300  0.14192400  1
  O  O7  1  0.63744000  0.12574000  0.37437000  1
  O  O8  1  0.39111100  0.30172200  0.30450300  1
  O  O9  1  0.59297800  0.85427200  0.13322000  1
  O  O10  1  0.64715100  0.41327600  0.33276100  1
  O  O11  1  0.00985800  0.29920700  0.44058400  1
  O  O12  1  0.86256000  0.62574000  0.37437000  1
  O  O13  1  0.50985800  0.20079300  0.55941600  1
  O  O14  1  0.10888900  0.80172200  0.30450300  1
  O  O15  1  0.14715100  0.08672400  0.66723900  1
  O  O16  1  0.85284900  0.91327600  0.33276100  1
  O  O17  1  0.89111100  0.19827800  0.69549700  1
  O  O18  1  0.49014200  0.79920700  0.44058400  1
  O  O19  1  0.13744000  0.37426000  0.62563000  1
  O  O20  1  0.99014200  0.70079300  0.55941600  1
  O  O21  1  0.35284900  0.58672400  0.66723900  1
  O  O22  1  0.40702200  0.14572800  0.86678000  1
  O  O23  1  0.60888900  0.69827800  0.69549700  1
  O  O24  1  0.36256000  0.87426000  0.62563000  1
  O  O25  1  0.90874900  0.39226700  0.85807600  1
  O  O26  1  0.24318700  0.31319000  0.94851100  1
  O  O27  1  0.09297800  0.64572800  0.86678000  1
  O  O28  1  0.67840800  0.48290000  0.95836600  1
  O  O29  1  0.59125100  0.89226700  0.85807600  1
  O  O30  1  0.25681300  0.81319000  0.94851100  1
  O  O31  1  0.82159200  0.98290000  0.95836600  1
loop_
_geom_bond_atom_site_label_1
_geom_bond_atom_site_label_2
_geom_bond_distance
_geom_bond_site_symmetry_2
In0 O6 2.140804 1_655
In0 O11 2.156217 1_655
In0 O12 2.160556 1_555
In0 O10 2.166334 1_555
In0 O4 2.174149 1_555
In0 O5 2.288421 1_555
In1 O2 2.140804 1_565
In1 O18 2.156217 1_555
In1 O7 2.160556 1_565
In1 O16 2.166334 1_555
In1 O9 2.174149 1_555
In1 O1 2.288421 1_565
In2 O29 2.140804 1_545
In2 O13 2.156217 1_555
In2 O24 2.160556 1_545
In2 O15 2.166334 1_555
In2 O22 2.174149 1_555
In2 O30 2.288421 1_545
In3 O25 2.140804 1_455
In3 O20 2.156217 1_455
In3 O19 2.160556 1_555
In3 O21 2.166334 1_555
In3 O27 2.174149 1_555
In3 O26 2.288421 1_555
H0 O30 1.024556 1_555
H0 O0 1.630485 1_566
H1 O26 1.024556 1_555
H1 O3 1.630485 1_556
H2 N0 1.030548 1_555
H3 N0 1.033117 1_555
H4 N0 1.046986 1_555
H5 O8 1.043169 1_555
H5 O3 1.482673 1_555
H6 N0 1.036059 1_565
H7 N1 1.030548 1_555
H8 N1 1.033117 1_555
H9 N1 1.046986 1_555
H10 O14 1.043169 1_555
H10 O0 1.482673 1_565
H11 N1 1.036059 1_555
H12 N2 1.036059 1_555
H13 O17 1.043169 1_555
H13 O31 1.482673 1_545
H14 N2 1.046986 1_555
H15 N2 1.033117 1_555
H16 N2 1.030548 1_555
H17 N3 1.036059 1_545
H18 O23 1.043169 1_555
H18 O28 1.482673 1_555
H19 N3 1.046986 1_555
H20 N3 1.033117 1_555
H21 N3 1.030548 1_555
H22 O5 1.024556 1_555
H22 O28 1.630485 1_554
H23 O1 1.024556 1_555
H23 O31 1.630485 1_544
O0 P6 1.535007 1_555
O1 P0 1.640449 1_554
O2 P6 1.536255 1_555
O3 P7 1.535007 1_555
O4 P0 1.531821 1_554
O5 P1 1.640449 1_554
O6 P7 1.536255 1_555
O7 P2 1.537479 1_555
O8 P2 1.574215 1_555
O9 P1 1.531821 1_554
O10 P2 1.544784 1_555
O11 P3 1.551378 1_555
O12 P4 1.537479 1_555
O13 P2 1.551378 1_555
O14 P4 1.574215 1_455
O15 P3 1.544784 1_555
O16 P4 1.544784 1_555
O17 P3 1.574215 1_655
O18 P5 1.551378 1_555
O19 P3 1.537479 1_555
O20 P4 1.551378 1_555
O21 P5 1.544784 1_555
O22 P6 1.531821 1_556
O23 P5 1.574215 1_555
O24 P5 1.537479 1_555
O25 P0 1.536255 1_555
O26 P6 1.640449 1_556
O27 P7 1.531821 1_556
O28 P0 1.535007 1_555
O29 P1 1.536255 1_555
O30 P7 1.640449 1_556
O31 P1 1.535007 1_555
