# generated using pymatgen
data_Na2CoO3
_symmetry_space_group_name_H-M   'P 1'
_cell_length_a   5.18784934
_cell_length_b   5.18784934
_cell_length_c   5.64523931
_cell_angle_alpha   80.68699133
_cell_angle_beta   80.68699133
_cell_angle_gamma   119.83668880
_symmetry_Int_Tables_number   1
_chemical_formula_structural   Na2CoO3
_chemical_formula_sum   'Na4 Co2 O6'
_cell_volume   124.73730377
_cell_formula_units_Z   2
loop_
 _symmetry_equiv_pos_site_id
 _symmetry_equiv_pos_as_xyz
  1  'x, y, z'
loop_
 _atom_site_type_symbol
 _atom_site_label
 _atom_site_symmetry_multiplicity
 _atom_site_fract_x
 _atom_site_fract_y
 _atom_site_fract_z
 _atom_site_occupancy
  Na  Na0  1  0.84231100  0.15768900  0.50000000  1
  Na  Na1  1  0.15768900  0.84231100  0.50000000  1
  Na  Na2  1  0.50000000  0.50000000  0.50000000  1
  Na  Na3  1  0.00000000  0.00000000  0.00000000  1
  Co  Co0  1  0.32932500  0.67067500  0.00000000  1
  Co  Co1  1  0.67067500  0.32932500  0.00000000  1
  O  O0  1  0.68717600  0.68717600  0.80118100  1
  O  O1  1  0.93690000  0.55412100  0.19812600  1
  O  O2  1  0.55412100  0.93690000  0.19812600  1
  O  O3  1  0.06310000  0.44587900  0.80187400  1
  O  O4  1  0.44587900  0.06310000  0.80187400  1
  O  O5  1  0.31282400  0.31282400  0.19881900  1
loop_
_geom_bond_atom_site_label_1
_geom_bond_atom_site_label_2
_geom_bond_distance
_geom_bond_site_symmetry_2
Na0 O1 2.228322 1_555
Na0 O4 2.228322 1_555
Na0 O0 2.399135 1_545
Na0 O5 2.399135 1_655
Na0 O2 2.490733 1_545
Na0 O3 2.490733 1_655
Na1 O2 2.228322 1_555
Na1 O3 2.228322 1_555
Na1 O0 2.399135 1_455
Na1 O5 2.399135 1_565
Na1 O1 2.490733 1_455
Na1 O4 2.490733 1_565
Na2 O0 2.215198 1_555
Na2 O5 2.215198 1_555
Na2 O3 2.466183 1_555
Na2 O4 2.466183 1_555
Na2 O1 2.466183 1_555
Na2 O2 2.466183 1_555
Na3 O3 2.235950 1_554
Na3 O4 2.235950 1_554
Na3 O2 2.235950 1_445
Na3 O1 2.235950 1_445
Na3 O5 2.255123 1_555
Na3 O0 2.255123 1_444
Co0 O1 1.892211 1_455
Co0 O4 1.892211 1_564
Co0 O2 1.959069 1_555
Co0 O3 1.959069 1_554
Co0 O5 1.962128 1_555
Co0 O0 1.962128 1_554
Co1 O2 1.892211 1_545
Co1 O3 1.892211 1_654
Co1 O1 1.959069 1_555
Co1 O4 1.959069 1_554
Co1 O5 1.962128 1_555
Co1 O0 1.962128 1_554
