# generated using pymatgen
data_LiFePO4
_symmetry_space_group_name_H-M   'P 1'
_cell_length_a   5.86713000
_cell_length_b   8.23462000
_cell_length_c   19.67569400
_cell_angle_alpha   90.00000000
_cell_angle_beta   90.00000000
_cell_angle_gamma   90.00000000
_symmetry_Int_Tables_number   1
_chemical_formula_structural   LiFePO4
_chemical_formula_sum   'Li12 Fe12 P12 O48'
_cell_volume   950.60333498
_cell_formula_units_Z   12
loop_
 _symmetry_equiv_pos_site_id
 _symmetry_equiv_pos_as_xyz
  1  'x, y, z'
loop_
 _atom_site_type_symbol
 _atom_site_label
 _atom_site_symmetry_multiplicity
 _atom_site_fract_x
 _atom_site_fract_y
 _atom_site_fract_z
 _atom_site_occupancy
  Li  Li0  1  0.60372000  0.26409700  0.98874500  1
  Li  Li1  1  0.33611700  0.75310700  0.17707200  1
  Li  Li2  1  0.68488200  0.25664500  0.15738600  1
  Li  Li3  1  0.18488200  0.75664500  0.34261400  1
  Li  Li4  1  0.83611700  0.25310700  0.32292800  1
  Li  Li5  1  0.10372000  0.76409700  0.51125500  1
  Li  Li6  1  0.60372000  0.23590300  0.48874500  1
  Li  Li7  1  0.33611700  0.74689300  0.67707200  1
  Li  Li8  1  0.68488200  0.24335500  0.65738600  1
  Li  Li9  1  0.18488200  0.74335500  0.84261400  1
  Li  Li10  1  0.83611700  0.24689300  0.82292800  1
  Li  Li11  1  0.10372000  0.73590300  0.01125500  1
  Fe  Fe0  1  0.78950300  0.99374200  0.07015400  1
  Fe  Fe1  1  0.14959200  0.45204500  0.09985400  1
  Fe  Fe2  1  0.78523800  0.55059600  0.23506200  1
  Fe  Fe3  1  0.28523800  0.05059600  0.26493800  1
  Fe  Fe4  1  0.64959200  0.95204500  0.40014600  1
  Fe  Fe5  1  0.28950300  0.49374200  0.42984600  1
  Fe  Fe6  1  0.78950300  0.50625800  0.57015400  1
  Fe  Fe7  1  0.14959200  0.04795500  0.59985400  1
  Fe  Fe8  1  0.78523800  0.94940400  0.73506200  1
  Fe  Fe9  1  0.28523800  0.44940400  0.76493800  1
  Fe  Fe10  1  0.64959200  0.54795500  0.90014600  1
  Fe  Fe11  1  0.28950300  0.00625800  0.92984600  1
  P  P0  1  0.66104400  0.58837100  0.07151500  1
  P  P1  1  0.28614500  0.08047600  0.09171500  1
  P  P2  1  0.77427500  0.92614400  0.24016800  1
  P  P3  1  0.27427500  0.42614400  0.25983200  1
  P  P4  1  0.78614500  0.58047600  0.40828500  1
  P  P5  1  0.16104400  0.08837100  0.42848500  1
  P  P6  1  0.66104400  0.91162900  0.57151500  1
  P  P7  1  0.28614500  0.41952400  0.59171500  1
  P  P8  1  0.77427500  0.57385600  0.74016800  1
  P  P9  1  0.27427500  0.07385600  0.75983200  1
  P  P10  1  0.78614500  0.91952400  0.90828500  1
  P  P11  1  0.16104400  0.41162900  0.92848500  1
  O  O0  1  0.64571500  0.49557600  0.00428300  1
  O  O1  1  0.24503600  0.95565600  0.03304600  1
  O  O2  1  0.51708600  0.17099300  0.07902600  1
  O  O3  1  0.08893000  0.20677400  0.09027300  1
  O  O4  1  0.80100800  0.74716000  0.06364000  1
  O  O5  1  0.41891300  0.62022600  0.10041800  1
  O  O6  1  0.79588000  0.48030200  0.12485800  1
  O  O7  1  0.29468600  0.98901900  0.16005200  1
  O  O8  1  0.79631800  0.02098800  0.17356800  1
  O  O9  1  0.14357500  0.53974000  0.20831800  1
  O  O10  1  0.50995300  0.37788700  0.23028300  1
  O  O11  1  0.12622500  0.26962000  0.26779700  1
  O  O12  1  0.62622500  0.76962000  0.23220300  1
  O  O13  1  0.00995300  0.87788700  0.26971700  1
  O  O14  1  0.64357500  0.03974000  0.29168200  1
  O  O15  1  0.29631800  0.52098800  0.32643200  1
  O  O16  1  0.79468600  0.48901900  0.33994800  1
  O  O17  1  0.29588000  0.98030200  0.37514200  1
  O  O18  1  0.91891300  0.12022600  0.39958200  1
  O  O19  1  0.30100800  0.24716000  0.43636000  1
  O  O20  1  0.58893000  0.70677400  0.40972700  1
  O  O21  1  0.01708600  0.67099300  0.42097400  1
  O  O22  1  0.74503600  0.45565600  0.46695400  1
  O  O23  1  0.14571500  0.99557600  0.49571700  1
  O  O24  1  0.64571500  0.00442400  0.50428300  1
  O  O25  1  0.24503600  0.54434400  0.53304600  1
  O  O26  1  0.51708600  0.32900700  0.57902600  1
  O  O27  1  0.08893000  0.29322600  0.59027300  1
  O  O28  1  0.80100800  0.75284000  0.56364000  1
  O  O29  1  0.41891300  0.87977400  0.60041800  1
  O  O30  1  0.79588000  0.01969800  0.62485800  1
  O  O31  1  0.29468600  0.51098100  0.66005200  1
  O  O32  1  0.79631800  0.47901200  0.67356800  1
  O  O33  1  0.14357500  0.96026000  0.70831800  1
  O  O34  1  0.50995300  0.12211300  0.73028300  1
  O  O35  1  0.12622500  0.23038000  0.76779700  1
  O  O36  1  0.62622500  0.73038000  0.73220300  1
  O  O37  1  0.00995300  0.62211300  0.76971700  1
  O  O38  1  0.64357500  0.46026000  0.79168200  1
  O  O39  1  0.29631800  0.97901200  0.82643200  1
  O  O40  1  0.79468600  0.01098100  0.83994800  1
  O  O41  1  0.29588000  0.51969800  0.87514200  1
  O  O42  1  0.91891300  0.37977400  0.89958200  1
  O  O43  1  0.30100800  0.25284000  0.93636000  1
  O  O44  1  0.58893000  0.79322600  0.90972700  1
  O  O45  1  0.01708600  0.82900700  0.92097400  1
  O  O46  1  0.74503600  0.04434400  0.96695400  1
  O  O47  1  0.14571500  0.50442400  0.99571700  1
loop_
_geom_bond_atom_site_label_1
_geom_bond_atom_site_label_2
_geom_bond_distance
_geom_bond_site_symmetry_2
Li0 O0 1.946163 1_556
Li0 O2 2.000386 1_556
Li0 O46 2.036138 1_555
Li0 O43 2.055557 1_555
Li1 O5 1.925626 1_555
Li1 O7 1.986229 1_555
Li1 O12 2.022944 1_555
Li1 O9 2.177418 1_555
Li2 O2 1.960555 1_555
Li2 O10 2.026656 1_555
Li2 O6 2.055650 1_555
Li2 O8 2.072332 1_555
Li3 O21 1.960555 1_555
Li3 O13 2.026656 1_555
Li3 O17 2.055650 1_555
Li3 O15 2.072332 1_555
Li4 O18 1.925626 1_555
Li4 O16 1.986229 1_555
Li4 O11 2.022944 1_655
Li4 O14 2.177418 1_555
Li5 O23 1.946163 1_555
Li5 O21 2.000386 1_555
Li5 O25 2.036138 1_555
Li5 O28 2.055557 1_455
Li6 O24 1.946163 1_555
Li6 O26 2.000386 1_555
Li6 O22 2.036138 1_555
Li6 O19 2.055557 1_555
Li7 O29 1.925626 1_555
Li7 O31 1.986229 1_555
Li7 O36 2.022944 1_555
Li7 O33 2.177418 1_555
Li8 O26 1.960555 1_555
Li8 O34 2.026656 1_555
Li8 O30 2.055650 1_555
Li8 O32 2.072332 1_555
Li9 O45 1.960555 1_555
Li9 O37 2.026656 1_555
Li9 O41 2.055650 1_555
Li9 O39 2.072332 1_555
Li10 O42 1.925626 1_555
Li10 O40 1.986229 1_555
Li10 O35 2.022944 1_655
Li10 O38 2.177418 1_555
Li11 O47 1.946163 1_554
Li11 O45 2.000386 1_554
Li11 O1 2.036138 1_555
Li11 O4 2.055557 1_455
Fe0 O4 2.035670 1_555
Fe0 O8 2.047465 1_565
Fe0 O46 2.089199 1_564
Fe0 O2 2.171513 1_565
Fe0 O3 2.514024 1_665
Fe1 O3 2.059479 1_555
Fe1 O47 2.093997 1_554
Fe1 O5 2.101175 1_555
Fe1 O6 2.145447 1_455
Fe1 O9 2.253248 1_555
Fe2 O12 2.031369 1_555
Fe2 O16 2.125809 1_555
Fe2 O10 2.154096 1_555
Fe2 O9 2.169104 1_655
Fe2 O6 2.245141 1_555
Fe3 O11 2.031369 1_555
Fe3 O7 2.125809 1_545
Fe3 O13 2.154096 1_545
Fe3 O14 2.169104 1_555
Fe3 O17 2.245141 1_545
Fe4 O20 2.059479 1_555
Fe4 O24 2.093997 1_565
Fe4 O18 2.101175 1_565
Fe4 O17 2.145447 1_555
Fe4 O14 2.253248 1_565
Fe5 O19 2.035670 1_555
Fe5 O15 2.047465 1_555
Fe5 O25 2.089199 1_555
Fe5 O21 2.171513 1_555
Fe5 O20 2.514024 1_555
Fe6 O28 2.035670 1_555
Fe6 O32 2.047465 1_555
Fe6 O22 2.089199 1_555
Fe6 O26 2.171513 1_555
Fe6 O27 2.514024 1_655
Fe7 O27 2.059479 1_555
Fe7 O23 2.093997 1_545
Fe7 O29 2.101175 1_545
Fe7 O30 2.145447 1_455
Fe7 O33 2.253248 1_545
Fe8 O36 2.031369 1_555
Fe8 O40 2.125809 1_565
Fe8 O34 2.154096 1_565
Fe8 O33 2.169104 1_655
Fe8 O30 2.245141 1_565
Fe9 O35 2.031369 1_555
Fe9 O31 2.125809 1_555
Fe9 O37 2.154096 1_555
Fe9 O38 2.169104 1_555
Fe9 O41 2.245141 1_555
Fe10 O44 2.059479 1_555
Fe10 O0 2.093997 1_556
Fe10 O42 2.101175 1_555
Fe10 O41 2.145447 1_555
Fe10 O38 2.253248 1_555
Fe11 O43 2.035670 1_555
Fe11 O39 2.047465 1_545
Fe11 O1 2.089199 1_546
Fe11 O45 2.171513 1_545
Fe11 O44 2.514024 1_545
O0 P0 1.530321 1_555
O1 P1 1.564344 1_565
O2 P1 1.566471 1_555
O3 P1 1.556048 1_555
O4 P0 1.551802 1_555
O5 P0 1.552533 1_555
O6 P0 1.587247 1_555
O7 P1 1.541941 1_565
O8 P2 1.530962 1_545
O9 P3 1.578093 1_555
O10 P3 1.551754 1_555
O11 P3 1.562171 1_555
O12 P2 1.562171 1_555
O13 P2 1.551754 1_455
O14 P2 1.578093 1_545
O15 P3 1.530962 1_555
O16 P4 1.541941 1_555
O17 P5 1.587247 1_565
O18 P5 1.552533 1_655
O19 P5 1.551802 1_555
O20 P4 1.556048 1_555
O21 P4 1.566471 1_455
O22 P4 1.564344 1_555
O23 P5 1.530321 1_565
O24 P6 1.530321 1_545
O25 P7 1.564344 1_555
O26 P7 1.566471 1_555
O27 P7 1.556048 1_555
O28 P6 1.551802 1_555
O29 P6 1.552533 1_555
O30 P6 1.587247 1_545
O31 P7 1.541941 1_555
O32 P8 1.530962 1_555
O33 P9 1.578093 1_565
O34 P9 1.551754 1_555
O35 P9 1.562171 1_555
O36 P8 1.562171 1_555
O37 P8 1.551754 1_455
O38 P8 1.578093 1_555
O39 P9 1.530962 1_565
O40 P10 1.541941 1_545
O41 P11 1.587247 1_555
O42 P11 1.552533 1_655
O43 P11 1.551802 1_555
O44 P10 1.556048 1_555
O45 P10 1.566471 1_455
O46 P10 1.564344 1_545
O47 P11 1.530321 1_555
