# generated using pymatgen
data_Sr2Ti6N2O11
_symmetry_space_group_name_H-M   'P 1'
_cell_length_a   7.85204152
_cell_length_b   7.85204152
_cell_length_c   9.31133608
_cell_angle_alpha   82.48155041
_cell_angle_beta   82.48155041
_cell_angle_gamma   28.26261287
_symmetry_Int_Tables_number   1
_chemical_formula_structural   Sr2Ti6N2O11
_chemical_formula_sum   'Sr2 Ti6 N2 O11'
_cell_volume   269.35178535
_cell_formula_units_Z   1
loop_
 _symmetry_equiv_pos_site_id
 _symmetry_equiv_pos_as_xyz
  1  'x, y, z'
loop_
 _atom_site_type_symbol
 _atom_site_label
 _atom_site_symmetry_multiplicity
 _atom_site_fract_x
 _atom_site_fract_y
 _atom_site_fract_z
 _atom_site_occupancy
  Sr  Sr0  1  0.54672700  0.54672700  0.21980100  1
  Sr  Sr1  1  0.45005400  0.45005400  0.76939500  1
  Ti  Ti0  1  0.11521000  0.11521000  0.90859000  1
  Ti  Ti1  1  0.16755800  0.16755800  0.56294800  1
  Ti  Ti2  1  0.23566500  0.23566500  0.23495500  1
  Ti  Ti3  1  0.75507100  0.75507100  0.77684600  1
  Ti  Ti4  1  0.83779800  0.83779800  0.44284300  1
  Ti  Ti5  1  0.88379100  0.88379100  0.08885000  1
  N  N0  1  0.64376300  0.64376300  0.89039300  1
  N  N1  1  0.99862100  0.99862100  0.00112400  1
  O  O0  1  0.07001400  0.07001400  0.70072700  1
  O  O1  1  0.12726200  0.12726200  0.38565200  1
  O  O2  1  0.16119800  0.16119800  0.10076500  1
  O  O3  1  0.70286400  0.70286400  0.57193000  1
  O  O4  1  0.75664800  0.75664800  0.24850000  1
  O  O5  1  0.24677300  0.24677300  0.74494800  1
  O  O6  1  0.29958900  0.29958900  0.43052500  1
  O  O7  1  0.35793100  0.35793100  0.12059300  1
  O  O8  1  0.83818900  0.83818900  0.90596600  1
  O  O9  1  0.88254100  0.88254100  0.61069700  1
  O  O10  1  0.93221100  0.93221100  0.29646200  1
loop_
_geom_bond_atom_site_label_1
_geom_bond_atom_site_label_2
_geom_bond_distance
_geom_bond_site_symmetry_2
N0 Ti3 1.872843 1_555
N0 Ti0 1.967976 1_565
N0 Ti0 1.967976 1_655
N0 Sr0 3.220012 1_556
N1 Ti5 1.827517 1_555
N1 Ti0 1.866015 1_664
N1 Sr0 2.959778 1_565
N1 Sr0 2.959778 1_655
O0 Ti1 1.827084 1_555
O0 Ti0 2.139934 1_555
O0 Sr1 2.665714 1_545
O0 Sr1 2.665714 1_455
O1 Ti1 1.837203 1_555
O1 Ti2 2.017213 1_555
O1 Sr0 2.841686 1_545
O1 Sr0 2.841686 1_455
O2 Ti2 1.797127 1_555
O2 Ti0 2.007646 1_554
O2 Sr0 2.724167 1_455
O2 Sr0 2.724167 1_545
O3 Ti1 1.995807 1_655
O3 Ti1 1.995807 1_565
O3 Ti3 2.163817 1_555
O3 Ti4 2.236244 1_555
O4 Ti2 1.950364 1_565
O4 Ti2 1.950364 1_655
O4 Ti5 2.276432 1_555
O4 Ti4 2.324946 1_555
O4 Sr0 3.243739 1_555
O5 Ti3 1.946623 1_545
O5 Ti3 1.946623 1_455
O5 Ti1 2.208814 1_555
O5 Ti0 2.347793 1_555
O6 Ti4 2.011163 1_545
O6 Ti4 2.011163 1_455
O6 Ti2 2.177654 1_555
O6 Ti1 2.212278 1_555
O7 Ti5 1.971312 1_545
O7 Ti5 1.971312 1_455
O7 Ti2 2.016386 1_555
O7 Sr0 3.136324 1_555
O8 Ti3 1.859673 1_555
O8 Ti5 1.923868 1_556
O8 Sr1 2.758569 1_565
O8 Sr1 2.758569 1_655
O9 Ti4 1.787308 1_555
O9 Ti3 2.313295 1_555
O9 Sr1 2.706597 1_655
O9 Sr1 2.706597 1_565
O10 Ti4 1.842880 1_555
O10 Ti5 2.159966 1_555
O10 Sr0 2.624877 1_565
O10 Sr0 2.624877 1_655
