# generated using pymatgen
data_Li2AgF3
_symmetry_space_group_name_H-M   'P 1'
_cell_length_a   5.94360993
_cell_length_b   5.94360993
_cell_length_c   5.28778864
_cell_angle_alpha   82.14551319
_cell_angle_beta   82.14551319
_cell_angle_gamma   127.38987753
_symmetry_Int_Tables_number   1
_chemical_formula_structural   Li2AgF3
_chemical_formula_sum   'Li4 Ag2 F6'
_cell_volume   141.18274769
_cell_formula_units_Z   2
loop_
 _symmetry_equiv_pos_site_id
 _symmetry_equiv_pos_as_xyz
  1  'x, y, z'
loop_
 _atom_site_type_symbol
 _atom_site_label
 _atom_site_symmetry_multiplicity
 _atom_site_fract_x
 _atom_site_fract_y
 _atom_site_fract_z
 _atom_site_occupancy
  Li  Li0  1  0.74346000  0.25654000  0.75000000  1
  Li  Li1  1  0.35337200  0.64662800  0.75000000  1
  Li  Li2  1  0.64662800  0.35337200  0.25000000  1
  Li  Li3  1  0.25654000  0.74346000  0.25000000  1
  Ag  Ag0  1  0.94099200  0.05900800  0.25000000  1
  Ag  Ag1  1  0.05900800  0.94099200  0.75000000  1
  F  F0  1  0.60333700  0.84783700  0.96234900  1
  F  F1  1  0.00000000  0.50000000  0.00000000  1
  F  F2  1  0.15216300  0.39666300  0.53765100  1
  F  F3  1  0.50000000  0.00000000  0.50000000  1
  F  F4  1  0.84783700  0.60333700  0.46234900  1
  F  F5  1  0.39666300  0.15216300  0.03765100  1
loop_
_geom_bond_atom_site_label_1
_geom_bond_atom_site_label_2
_geom_bond_distance
_geom_bond_site_symmetry_2
Ag0 F4 2.465802 1_545
Ag0 F5 2.465802 1_655
Ag0 F2 2.492682 1_655
Ag0 F0 2.492682 1_544
Ag0 F3 2.559389 1_555
Ag0 F1 2.559389 1_655
Ag1 F0 2.465802 1_455
Ag1 F2 2.465802 1_565
Ag1 F5 2.492682 1_566
Ag1 F4 2.492682 1_455
Ag1 F3 2.559389 1_565
Ag1 F1 2.559389 1_556
F0 Li1 1.887708 1_555
F0 Li3 2.068643 1_556
F0 Li0 2.096952 1_565
F1 Li2 1.903054 1_455
F1 Li1 1.903054 1_554
F1 Li3 2.135536 1_555
F1 Li0 2.135536 1_454
F2 Li1 1.887708 1_555
F2 Li3 2.068643 1_555
F2 Li0 2.096952 1_455
F3 Li1 1.903054 1_545
F3 Li2 1.903054 1_555
F3 Li0 2.135536 1_555
F3 Li3 2.135536 1_545
F4 Li2 1.887708 1_555
F4 Li0 2.068643 1_555
F4 Li3 2.096952 1_655
F5 Li2 1.887708 1_555
F5 Li0 2.068643 1_554
F5 Li3 2.096952 1_545
