# generated using pymatgen
data_Ti17(NO4)6
_symmetry_space_group_name_H-M   'P 1'
_cell_length_a   10.39377600
_cell_length_b   10.74188827
_cell_length_c   11.47144566
_cell_angle_alpha   69.13894729
_cell_angle_beta   68.41769818
_cell_angle_gamma   82.45217968
_symmetry_Int_Tables_number   1
_chemical_formula_structural   Ti17(NO4)6
_chemical_formula_sum   'Ti34 N12 O48'
_cell_volume   1112.90554367
_cell_formula_units_Z   2
loop_
 _symmetry_equiv_pos_site_id
 _symmetry_equiv_pos_as_xyz
  1  'x, y, z'
loop_
 _atom_site_type_symbol
 _atom_site_label
 _atom_site_symmetry_multiplicity
 _atom_site_fract_x
 _atom_site_fract_y
 _atom_site_fract_z
 _atom_site_occupancy
  Ti  Ti0  1  0.86093000  0.93005100  0.57008400  1
  Ti  Ti1  1  0.35961700  0.92516500  0.57223200  1
  Ti  Ti2  1  0.63679400  0.42913000  0.64502900  1
  Ti  Ti3  1  0.69743500  0.74997100  0.51794100  1
  Ti  Ti4  1  0.14408100  0.42224500  0.64904200  1
  Ti  Ti5  1  0.85591900  0.57775500  0.35095800  1
  Ti  Ti6  1  0.85912700  0.92385200  0.23423400  1
  Ti  Ti7  1  0.80108500  0.25147400  0.48231000  1
  Ti  Ti8  1  0.19891500  0.74852600  0.51769000  1
  Ti  Ti9  1  0.63769800  0.44245300  0.30624400  1
  Ti  Ti10  1  0.36338100  0.92932600  0.23519400  1
  Ti  Ti11  1  0.64038300  0.07483500  0.42776800  1
  Ti  Ti12  1  0.36320600  0.57087000  0.35497100  1
  Ti  Ti13  1  0.30256500  0.25002900  0.48205900  1
  Ti  Ti14  1  0.85897300  0.92274900  0.91035500  1
  Ti  Ti15  1  0.80405800  0.25005300  0.14827100  1
  Ti  Ti16  1  0.13583000  0.43139900  0.31139800  1
  Ti  Ti17  1  0.85924400  0.57664100  0.02605200  1
  Ti  Ti18  1  0.13907000  0.06994900  0.42991600  1
  Ti  Ti19  1  0.19695000  0.75191300  0.18320500  1
  Ti  Ti20  1  0.64050400  0.42534900  0.97806500  1
  Ti  Ti21  1  0.35949600  0.57465100  0.02193500  1
  Ti  Ti22  1  0.63770400  0.05757900  0.10138700  1
  Ti  Ti23  1  0.36229600  0.94242100  0.89861300  1
  Ti  Ti24  1  0.30241100  0.25031700  0.14887400  1
  Ti  Ti25  1  0.69758900  0.74968300  0.85112600  1
  Ti  Ti26  1  0.86417000  0.56860100  0.68860200  1
  Ti  Ti27  1  0.80305000  0.24808700  0.81679500  1
  Ti  Ti28  1  0.19594200  0.74994700  0.85172900  1
  Ti  Ti29  1  0.14102700  0.07725100  0.08964500  1
  Ti  Ti30  1  0.14075600  0.42335900  0.97394800  1
  Ti  Ti31  1  0.63661900  0.07067400  0.76480600  1
  Ti  Ti32  1  0.36230200  0.55754700  0.69375600  1
  Ti  Ti33  1  0.14087300  0.07614800  0.76576600  1
  N  N0  1  0.77277600  0.75030800  0.65900500  1
  N  N1  1  0.26927600  0.74941300  0.66100200  1
  N  N2  1  0.77868500  0.75015800  0.33525500  1
  N  N3  1  0.26704800  0.75009300  0.32762300  1
  N  N4  1  0.73072400  0.25058700  0.33899800  1
  N  N5  1  0.22722400  0.24969200  0.34099500  1
  N  N6  1  0.77896400  0.74976600  0.97884100  1
  N  N7  1  0.26892600  0.75073200  0.99283100  1
  N  N8  1  0.73107400  0.24926800  0.00716900  1
  N  N9  1  0.22103600  0.25023400  0.02115900  1
  N  N10  1  0.73295200  0.24990700  0.67237700  1
  N  N11  1  0.22131500  0.24984200  0.66474500  1
  O  O0  1  0.81008300  0.93678800  0.41922200  1
  O  O1  1  0.54767100  0.88185500  0.52364500  1
  O  O2  1  0.81273400  0.56581200  0.54226400  1
  O  O3  1  0.54905600  0.62265300  0.60936900  1
  O  O4  1  0.68927600  0.06560600  0.58131000  1
  O  O5  1  0.31012500  0.56253500  0.54266500  1
  O  O6  1  0.95186000  0.11781300  0.47680300  1
  O  O7  1  0.68987500  0.43746500  0.45733500  1
  O  O8  1  0.04814000  0.88218700  0.52319700  1
  O  O9  1  0.95280900  0.37838800  0.39143700  1
  O  O10  1  0.31072400  0.93439400  0.41869000  1
  O  O11  1  0.04719100  0.62161200  0.60856300  1
  O  O12  1  0.18991700  0.06321200  0.58077800  1
  O  O13  1  0.82306800  0.55084600  0.20862900  1
  O  O14  1  0.45232900  0.11814500  0.47635500  1
  O  O15  1  0.45094400  0.37734700  0.39063100  1
  O  O16  1  0.82347800  0.94879100  0.07609600  1
  O  O17  1  0.54334200  0.89093200  0.18853400  1
  O  O18  1  0.54331600  0.60898500  0.28256400  1
  O  O19  1  0.18726600  0.43418800  0.45773600  1
  O  O20  1  0.68880100  0.43699900  0.12453400  1
  O  O21  1  0.95215000  0.38033800  0.05254000  1
  O  O22  1  0.68886300  0.06292100  0.24951700  1
  O  O23  1  0.31040400  0.93739500  0.08366800  1
  O  O24  1  0.04826400  0.61692700  0.27731200  1
  O  O25  1  0.95209500  0.11922500  0.14470300  1
  O  O26  1  0.31106400  0.56587600  0.20720500  1
  O  O27  1  0.04735800  0.87919500  0.19276500  1
  O  O28  1  0.45092600  0.12254200  0.14185300  1
  O  O29  1  0.54763600  0.61808800  0.94480300  1
  O  O30  1  0.54907400  0.87745800  0.85814700  1
  O  O31  1  0.45236400  0.38191200  0.05519700  1
  O  O32  1  0.18714900  0.06584000  0.25074400  1
  O  O33  1  0.18966400  0.43648100  0.12623400  1
  O  O34  1  0.81033600  0.56351900  0.87376600  1
  O  O35  1  0.81285100  0.93416000  0.74925600  1
  O  O36  1  0.95173600  0.38307300  0.72268800  1
  O  O37  1  0.68893600  0.43412400  0.79279500  1
  O  O38  1  0.68959600  0.06260500  0.91633200  1
  O  O39  1  0.31113700  0.93707900  0.75048300  1
  O  O40  1  0.04785000  0.61966200  0.94746000  1
  O  O41  1  0.95264200  0.12080500  0.80723500  1
  O  O42  1  0.04790500  0.88077500  0.85529700  1
  O  O43  1  0.31119900  0.56300100  0.87546600  1
  O  O44  1  0.45668400  0.39101500  0.71743600  1
  O  O45  1  0.45665800  0.10906800  0.81146600  1
  O  O46  1  0.17693200  0.44915400  0.79137100  1
  O  O47  1  0.17652200  0.05120900  0.92390400  1
loop_
_geom_bond_atom_site_label_1
_geom_bond_atom_site_label_2
_geom_bond_distance
_geom_bond_site_symmetry_2
N0 Ti0 1.995600 1_555
N0 Ti26 2.026241 1_555
N0 Ti3 2.041806 1_555
N0 Ti25 2.047373 1_555
N1 Ti1 1.968735 1_555
N1 Ti8 2.033497 1_555
N1 Ti28 2.036887 1_555
N1 Ti32 2.125092 1_555
N2 Ti5 1.893346 1_555
N2 Ti6 1.918412 1_555
N2 Ti3 1.949482 1_555
N3 Ti8 2.024045 1_555
N3 Ti12 2.024528 1_555
N3 Ti10 2.026095 1_555
N3 Ti19 2.033959 1_555
N4 Ti11 1.968735 1_555
N4 Ti7 2.033497 1_555
N4 Ti15 2.036887 1_555
N4 Ti9 2.125092 1_555
N5 Ti18 1.995600 1_555
N5 Ti16 2.026241 1_555
N5 Ti13 2.041806 1_555
N5 Ti24 2.047373 1_555
N6 Ti14 1.909751 1_555
N6 Ti17 1.911931 1_556
N6 Ti25 1.942821 1_555
N7 Ti21 1.972028 1_556
N7 Ti28 2.027372 1_555
N7 Ti19 2.035783 1_556
N7 Ti23 2.125598 1_555
N8 Ti20 1.972028 1_554
N8 Ti15 2.027372 1_555
N8 Ti27 2.035783 1_554
N8 Ti22 2.125598 1_555
N9 Ti29 1.909751 1_555
N9 Ti30 1.911931 1_554
N9 Ti24 1.942821 1_555
N10 Ti7 2.024045 1_555
N10 Ti2 2.024528 1_555
N10 Ti31 2.026095 1_555
N10 Ti27 2.033959 1_555
N11 Ti4 1.893346 1_555
N11 Ti33 1.918412 1_555
N11 Ti13 1.949482 1_555
O0 Ti0 1.962944 1_555
O0 Ti6 2.044011 1_555
O0 Ti11 2.146820 1_565
O0 Ti3 2.168802 1_555
O1 Ti1 1.868650 1_555
O1 Ti3 1.961142 1_555
O1 Ti11 2.134649 1_565
O2 Ti26 1.950651 1_555
O2 Ti5 2.030752 1_555
O2 Ti3 2.158105 1_555
O2 Ti2 2.185444 1_555
O3 Ti32 1.919920 1_555
O3 Ti3 1.921311 1_555
O3 Ti2 2.119233 1_555
O4 Ti11 1.972644 1_555
O4 Ti31 1.989882 1_555
O4 Ti0 2.145233 1_545
O4 Ti7 2.156454 1_555
O5 Ti32 1.979596 1_555
O5 Ti12 1.987487 1_555
O5 Ti4 2.136062 1_555
O5 Ti8 2.153841 1_555
O6 Ti18 1.871909 1_655
O6 Ti7 1.980396 1_555
O6 Ti0 2.079876 1_545
O7 Ti9 1.979596 1_555
O7 Ti2 1.987487 1_555
O7 Ti5 2.136062 1_555
O7 Ti7 2.153841 1_555
O8 Ti0 1.871909 1_455
O8 Ti8 1.980396 1_555
O8 Ti18 2.079876 1_565
O9 Ti16 1.847491 1_655
O9 Ti7 1.943037 1_555
O9 Ti5 2.210278 1_555
O10 Ti1 1.972644 1_555
O10 Ti10 1.989882 1_555
O10 Ti18 2.145233 1_565
O10 Ti8 2.156454 1_555
O11 Ti26 1.847491 1_455
O11 Ti8 1.943037 1_555
O11 Ti4 2.210278 1_555
O12 Ti18 1.962944 1_555
O12 Ti33 2.044011 1_555
O12 Ti1 2.146820 1_545
O12 Ti13 2.168802 1_555
O13 Ti5 1.907377 1_555
O13 Ti17 1.907736 1_555
O13 Ti9 2.096502 1_555
O14 Ti11 1.868650 1_555
O14 Ti13 1.961142 1_555
O14 Ti1 2.134649 1_545
O15 Ti9 1.919920 1_555
O15 Ti13 1.921311 1_555
O15 Ti12 2.119233 1_555
O16 Ti6 1.903212 1_555
O16 Ti14 1.914398 1_554
O16 Ti22 2.101114 1_565
O17 Ti10 1.781371 1_555
O17 Ti22 1.905563 1_565
O18 Ti12 1.782484 1_555
O18 Ti9 1.903973 1_555
O19 Ti16 1.950651 1_555
O19 Ti4 2.030752 1_555
O19 Ti13 2.158105 1_555
O19 Ti12 2.185444 1_555
O20 Ti20 1.969142 1_554
O20 Ti9 1.973544 1_555
O20 Ti17 2.164153 1_555
O20 Ti15 2.181849 1_555
O21 Ti30 1.873586 1_654
O21 Ti15 1.939492 1_555
O21 Ti17 2.166994 1_555
O22 Ti11 1.965428 1_555
O22 Ti22 1.978819 1_555
O22 Ti6 2.158222 1_545
O22 Ti15 2.183960 1_555
O23 Ti23 1.970788 1_554
O23 Ti10 1.978993 1_555
O23 Ti29 2.156539 1_565
O23 Ti19 2.161130 1_555
O24 Ti5 1.900746 1_455
O24 Ti19 1.975526 1_555
O24 Ti16 2.045310 1_555
O25 Ti29 1.875145 1_655
O25 Ti15 1.941832 1_555
O25 Ti6 2.158821 1_545
O26 Ti21 1.965188 1_555
O26 Ti12 1.979432 1_555
O26 Ti16 2.166233 1_555
O26 Ti19 2.168372 1_555
O27 Ti6 1.874919 1_455
O27 Ti19 1.929185 1_555
O27 Ti29 2.185841 1_565
O28 Ti22 1.919127 1_555
O28 Ti24 1.924535 1_555
O28 Ti10 2.116314 1_545
O29 Ti21 1.870107 1_556
O29 Ti25 1.961356 1_555
O29 Ti20 2.132391 1_555
O30 Ti23 1.919127 1_555
O30 Ti25 1.924535 1_555
O30 Ti31 2.116314 1_565
O31 Ti20 1.870107 1_554
O31 Ti24 1.961356 1_555
O31 Ti21 2.132391 1_555
O32 Ti18 1.944063 1_555
O32 Ti29 2.033483 1_555
O32 Ti24 2.161518 1_555
O32 Ti10 2.185786 1_545
O33 Ti16 1.969502 1_555
O33 Ti30 2.043913 1_554
O33 Ti21 2.149444 1_555
O33 Ti24 2.162893 1_555
O34 Ti26 1.969502 1_555
O34 Ti17 2.043913 1_556
O34 Ti20 2.149444 1_555
O34 Ti25 2.162893 1_555
O35 Ti0 1.944063 1_555
O35 Ti14 2.033483 1_555
O35 Ti25 2.161518 1_555
O35 Ti31 2.185786 1_565
O36 Ti4 1.900746 1_655
O36 Ti27 1.975526 1_555
O36 Ti26 2.045310 1_555
O37 Ti20 1.965188 1_555
O37 Ti2 1.979432 1_555
O37 Ti26 2.166233 1_555
O37 Ti27 2.168372 1_555
O38 Ti22 1.970788 1_556
O38 Ti31 1.978993 1_555
O38 Ti14 2.156539 1_545
O38 Ti27 2.161130 1_555
O39 Ti1 1.965428 1_555
O39 Ti23 1.978819 1_555
O39 Ti33 2.158222 1_565
O39 Ti28 2.183960 1_555
O40 Ti17 1.873586 1_456
O40 Ti28 1.939492 1_555
O40 Ti30 2.166994 1_555
O41 Ti33 1.874919 1_655
O41 Ti27 1.929185 1_555
O41 Ti14 2.185841 1_545
O42 Ti14 1.875145 1_455
O42 Ti28 1.941832 1_555
O42 Ti33 2.158821 1_565
O43 Ti21 1.969142 1_556
O43 Ti32 1.973544 1_555
O43 Ti30 2.164153 1_555
O43 Ti28 2.181849 1_555
O44 Ti2 1.782484 1_555
O44 Ti32 1.903973 1_555
O45 Ti31 1.781371 1_555
O45 Ti23 1.905563 1_545
O46 Ti4 1.907377 1_555
O46 Ti30 1.907736 1_555
O46 Ti32 2.096502 1_555
O47 Ti33 1.903212 1_555
O47 Ti29 1.914398 1_556
O47 Ti23 2.101114 1_545
