# generated using pymatgen
data_VOF3
_symmetry_space_group_name_H-M   'P 1'
_cell_length_a   7.06529991
_cell_length_b   7.06529991
_cell_length_c   4.65098690
_cell_angle_alpha   71.51037298
_cell_angle_beta   71.51037298
_cell_angle_gamma   39.12859484
_symmetry_Int_Tables_number   1
_chemical_formula_structural   VOF3
_chemical_formula_sum   'V2 O2 F6'
_cell_volume   137.96643700
_cell_formula_units_Z   2
loop_
 _symmetry_equiv_pos_site_id
 _symmetry_equiv_pos_as_xyz
  1  'x, y, z'
loop_
 _atom_site_type_symbol
 _atom_site_label
 _atom_site_symmetry_multiplicity
 _atom_site_fract_x
 _atom_site_fract_y
 _atom_site_fract_z
 _atom_site_occupancy
  V  V0  1  0.97472100  0.39371400  0.79018500  1
  V  V1  1  0.60628600  0.02527900  0.20981500  1
  O  O0  1  0.83693300  0.76833700  0.47520300  1
  O  O1  1  0.23166300  0.16306700  0.52479700  1
  F  F0  1  0.63956400  0.55099100  0.71848300  1
  F  F1  1  0.63273500  0.78455400  0.07466100  1
  F  F2  1  0.84961600  0.98241600  0.88400100  1
  F  F3  1  0.44900900  0.36043600  0.28151700  1
  F  F4  1  0.21544600  0.36726500  0.92533900  1
  F  F5  1  0.01758400  0.15038400  0.11599900  1
loop_
_geom_bond_atom_site_label_1
_geom_bond_atom_site_label_2
_geom_bond_distance
_geom_bond_site_symmetry_2
O0 V1 1.655149 1_565
O0 V0 2.132385 1_555
O1 V0 1.655149 1_455
O1 V1 2.132385 1_555
F0 V0 1.771094 1_555
F1 V1 1.852906 1_565
F1 V0 2.269825 1_554
F2 V1 1.781738 1_566
F3 V1 1.771094 1_555
F4 V0 1.852906 1_455
F4 V1 2.269825 1_556
F5 V0 1.781738 1_454
