# generated using pymatgen
data_Li2MnP2O7
_symmetry_space_group_name_H-M   'P 1'
_cell_length_a   7.25341671
_cell_length_b   8.54738719
_cell_length_c   10.21102850
_cell_angle_alpha   89.99033545
_cell_angle_beta   70.11675517
_cell_angle_gamma   89.97576214
_symmetry_Int_Tables_number   1
_chemical_formula_structural   Li2MnP2O7
_chemical_formula_sum   'Li8 Mn4 P8 O28'
_cell_volume   595.32258787
_cell_formula_units_Z   4
loop_
 _symmetry_equiv_pos_site_id
 _symmetry_equiv_pos_as_xyz
  1  'x, y, z'
loop_
 _atom_site_type_symbol
 _atom_site_label
 _atom_site_symmetry_multiplicity
 _atom_site_fract_x
 _atom_site_fract_y
 _atom_site_fract_z
 _atom_site_occupancy
  Li  Li0  1  0.35012400  0.14799700  0.09266900  1
  Li  Li1  1  0.35012500  0.14800000  0.59268700  1
  Li  Li2  1  0.64988500  0.64800500  0.40729400  1
  Li  Li3  1  0.64977000  0.64806400  0.90720300  1
  Li  Li4  1  0.08908500  0.32169200  0.32390900  1
  Li  Li5  1  0.08912200  0.32176300  0.82374700  1
  Li  Li6  1  0.91090000  0.82158400  0.17616300  1
  Li  Li7  1  0.91068600  0.82175500  0.67622300  1
  Mn  Mn0  1  0.27727900  0.50818600  0.59428000  1
  Mn  Mn1  1  0.72315100  0.00836200  0.90592000  1
  Mn  Mn2  1  0.27734200  0.50808700  0.09432300  1
  Mn  Mn3  1  0.72279000  0.00809300  0.40570100  1
  P  P0  1  0.47900400  0.81395400  0.19424700  1
  P  P1  1  0.47902800  0.81398200  0.69418400  1
  P  P2  1  0.52099600  0.31397700  0.30577700  1
  P  P3  1  0.52096600  0.31400400  0.80578700  1
  P  P4  1  0.91768800  0.20545200  0.10954200  1
  P  P5  1  0.91761500  0.20546700  0.60948900  1
  P  P6  1  0.08225800  0.70542400  0.39058000  1
  P  P7  1  0.08241200  0.70555100  0.89055600  1
  O  O0  1  0.09598700  0.68676400  0.03639800  1
  O  O1  1  0.09584500  0.68670300  0.53640000  1
  O  O2  1  0.90399900  0.18678300  0.46365700  1
  O  O3  1  0.90385100  0.18696700  0.96378700  1
  O  O4  1  0.10556800  0.29182900  0.10649400  1
  O  O5  1  0.10544800  0.29188400  0.60641600  1
  O  O6  1  0.89451800  0.79197800  0.39352600  1
  O  O7  1  0.89454300  0.79200300  0.89353100  1
  O  O8  1  0.50285400  0.96354700  0.10741400  1
  O  O9  1  0.50287900  0.96358100  0.60736700  1
  O  O10  1  0.49704900  0.46354800  0.39263200  1
  O  O11  1  0.49698400  0.46357200  0.89267000  1
  O  O12  1  0.49651300  0.66687100  0.10549600  1
  O  O13  1  0.49647300  0.66689000  0.60546800  1
  O  O14  1  0.50362700  0.16684900  0.39442400  1
  O  O15  1  0.50370000  0.16687800  0.89445200  1
  O  O16  1  0.38310300  0.30865100  0.22038600  1
  O  O17  1  0.38292600  0.30858000  0.72060400  1
  O  O18  1  0.61704000  0.80858900  0.27944300  1
  O  O19  1  0.61709200  0.80856500  0.77939800  1
  O  O20  1  0.10055200  0.55062700  0.31213500  1
  O  O21  1  0.10090900  0.55070100  0.81219800  1
  O  O22  1  0.89915000  0.05027500  0.18753500  1
  O  O23  1  0.89924900  0.05066100  0.68793700  1
  O  O24  1  0.25534000  0.82335000  0.30296900  1
  O  O25  1  0.25544300  0.82351400  0.80293600  1
  O  O26  1  0.74463900  0.32361800  0.19702800  1
  O  O27  1  0.74449800  0.32351000  0.69702200  1
loop_
_geom_bond_atom_site_label_1
_geom_bond_atom_site_label_2
_geom_bond_distance
_geom_bond_site_symmetry_2
Li0 O15 1.957019 1_554
Li0 O8 1.961473 1_545
Li0 O16 1.963832 1_555
Li0 O4 2.122688 1_555
Li1 O14 1.957275 1_555
Li1 O9 1.961185 1_545
Li1 O17 1.964383 1_555
Li1 O5 2.123873 1_555
Li2 O13 1.956373 1_555
Li2 O10 1.962542 1_555
Li2 O18 1.963593 1_555
Li2 O6 2.124809 1_555
Li3 O12 1.957097 1_556
Li3 O11 1.962215 1_555
Li3 O19 1.962345 1_555
Li3 O7 2.125680 1_555
Li4 O20 1.960530 1_555
Li4 O2 1.966194 1_455
Li4 O16 2.035773 1_555
Li4 O4 2.197181 1_555
Li5 O21 1.960503 1_555
Li5 O3 1.967686 1_455
Li5 O17 2.033857 1_555
Li5 O5 2.196676 1_555
Li6 O22 1.958276 1_565
Li6 O0 1.965453 1_655
Li6 O18 2.034429 1_555
Li6 O6 2.196538 1_555
Li7 O23 1.960220 1_565
Li7 O1 1.967136 1_655
Li7 O19 2.032666 1_555
Li7 O7 2.196627 1_555
Mn0 O13 2.122824 1_555
Mn0 O10 2.166428 1_555
Mn0 O21 2.187138 1_555
Mn0 O5 2.209912 1_555
Mn0 O1 2.221819 1_555
Mn0 O17 2.415030 1_555
Mn1 O15 2.123229 1_555
Mn1 O8 2.167292 1_546
Mn1 O23 2.186960 1_555
Mn1 O7 2.207392 1_545
Mn1 O3 2.219544 1_555
Mn1 O19 2.419739 1_545
Mn2 O12 2.123086 1_555
Mn2 O11 2.165897 1_554
Mn2 O20 2.187018 1_555
Mn2 O4 2.209324 1_555
Mn2 O0 2.222582 1_555
Mn2 O16 2.412706 1_555
Mn3 O14 2.122331 1_555
Mn3 O9 2.166905 1_545
Mn3 O22 2.188778 1_555
Mn3 O6 2.207267 1_545
Mn3 O2 2.222985 1_555
Mn3 O18 2.415120 1_545
O0 P7 1.533896 1_554
O1 P6 1.533648 1_555
O2 P5 1.533881 1_555
O3 P4 1.533557 1_556
O4 P4 1.541166 1_455
O5 P5 1.540959 1_455
O6 P6 1.540745 1_655
O7 P7 1.541065 1_655
O8 P0 1.531811 1_555
O9 P1 1.531765 1_555
O10 P2 1.531844 1_555
O11 P3 1.531956 1_555
O12 P0 1.529657 1_555
O13 P1 1.529574 1_555
O14 P2 1.529331 1_555
O15 P3 1.529510 1_555
O16 P2 1.534923 1_555
O17 P3 1.534173 1_555
O18 P0 1.534204 1_555
O19 P1 1.534533 1_555
O20 P6 1.528969 1_555
O21 P7 1.528788 1_555
O22 P4 1.529214 1_555
O23 P5 1.528866 1_555
O24 P6 1.621488 1_555
O24 P0 1.626558 1_555
O25 P7 1.621494 1_555
O25 P1 1.626282 1_555
O26 P4 1.621783 1_555
O26 P2 1.626691 1_555
O27 P5 1.621556 1_555
O27 P3 1.626073 1_555
