# generated using pymatgen
data_LiCoCO4
_symmetry_space_group_name_H-M   'P 1'
_cell_length_a   9.42404200
_cell_length_b   3.15399600
_cell_length_c   9.67509962
_cell_angle_alpha   71.83132510
_cell_angle_beta   90.00000000
_cell_angle_gamma   90.00000000
_symmetry_Int_Tables_number   1
_chemical_formula_structural   LiCoCO4
_chemical_formula_sum   'Li4 Co4 C4 O16'
_cell_volume   273.23895743
_cell_formula_units_Z   4
loop_
 _symmetry_equiv_pos_site_id
 _symmetry_equiv_pos_as_xyz
  1  'x, y, z'
loop_
 _atom_site_type_symbol
 _atom_site_label
 _atom_site_symmetry_multiplicity
 _atom_site_fract_x
 _atom_site_fract_y
 _atom_site_fract_z
 _atom_site_occupancy
  Li  Li0  1  0.59249600  0.42767200  0.81637000  1
  Li  Li1  1  0.09249600  0.57232800  0.68363000  1
  Li  Li2  1  0.90750400  0.42767200  0.31637000  1
  Li  Li3  1  0.40750400  0.57232800  0.18363000  1
  Co  Co0  1  0.88208600  0.79482700  0.94877400  1
  Co  Co1  1  0.38208600  0.20517300  0.55122600  1
  Co  Co2  1  0.61791400  0.79482700  0.44877400  1
  Co  Co3  1  0.11791400  0.20517300  0.05122600  1
  C  C0  1  0.33143300  0.90232900  0.86236000  1
  C  C1  1  0.83143300  0.09767100  0.63764000  1
  C  C2  1  0.16856700  0.90232900  0.36236000  1
  C  C3  1  0.66856700  0.09767100  0.13764000  1
  O  O0  1  0.25419000  0.77827100  0.98491800  1
  O  O1  1  0.00227800  0.35904400  0.88460900  1
  O  O2  1  0.46365200  0.87421300  0.87104600  1
  O  O3  1  0.76225100  0.95293100  0.76112600  1
  O  O4  1  0.26225100  0.04706900  0.73887400  1
  O  O5  1  0.96365200  0.12578700  0.62895400  1
  O  O6  1  0.50227800  0.64095600  0.61539100  1
  O  O7  1  0.75419000  0.22172900  0.51508200  1
  O  O8  1  0.24581000  0.77827100  0.48491800  1
  O  O9  1  0.49772200  0.35904400  0.38460900  1
  O  O10  1  0.03634800  0.87421300  0.37104600  1
  O  O11  1  0.73774900  0.95293100  0.26112600  1
  O  O12  1  0.23774900  0.04706900  0.23887400  1
  O  O13  1  0.53634800  0.12578700  0.12895400  1
  O  O14  1  0.99772200  0.64095600  0.11539100  1
  O  O15  1  0.74581000  0.22172900  0.01508200  1
loop_
_geom_bond_atom_site_label_1
_geom_bond_atom_site_label_2
_geom_bond_distance
_geom_bond_site_symmetry_2
Li0 O6 2.034870 1_555
Li0 O2 2.049970 1_555
Li0 O2 2.055594 1_545
Li0 O3 2.244393 1_555
Li0 O15 2.329573 1_556
Li0 O3 2.363487 1_545
Li1 O1 2.034870 1_555
Li1 O5 2.049970 1_455
Li1 O5 2.055594 1_465
Li1 O4 2.244393 1_555
Li1 O8 2.329573 1_555
Li1 O4 2.363487 1_565
Li2 O14 2.034870 1_555
Li2 O10 2.049970 1_655
Li2 O10 2.055594 1_645
Li2 O11 2.244393 1_555
Li2 O7 2.329573 1_555
Li2 O11 2.363487 1_545
Li3 O9 2.034870 1_555
Li3 O13 2.049970 1_555
Li3 O13 2.055594 1_565
Li3 O12 2.244393 1_555
Li3 O0 2.329573 1_554
Li3 O12 2.363487 1_565
Co0 O14 1.879859 1_556
Co0 O1 2.022289 1_655
Co0 O1 2.036221 1_665
Co0 O3 2.062898 1_555
Co0 O15 2.100602 1_566
Co0 O15 2.145923 1_556
Co1 O9 1.879859 1_555
Co1 O6 2.022289 1_555
Co1 O6 2.036221 1_545
Co1 O4 2.062898 1_555
Co1 O8 2.100602 1_545
Co1 O8 2.145923 1_555
Co2 O6 1.879859 1_555
Co2 O9 2.022289 1_555
Co2 O9 2.036221 1_565
Co2 O11 2.062898 1_555
Co2 O7 2.100602 1_565
Co2 O7 2.145923 1_555
Co3 O1 1.879859 1_554
Co3 O14 2.022289 1_455
Co3 O14 2.036221 1_445
Co3 O12 2.062898 1_555
Co3 O0 2.100602 1_544
Co3 O0 2.145923 1_554
C0 O2 1.250155 1_555
C0 O4 1.311769 1_565
C0 O0 1.341523 1_555
C1 O5 1.250155 1_555
C1 O3 1.311769 1_545
C1 O7 1.341523 1_555
C2 O10 1.250155 1_555
C2 O12 1.311769 1_565
C2 O8 1.341523 1_555
C3 O13 1.250155 1_555
C3 O11 1.311769 1_545
C3 O15 1.341523 1_555
