# generated using pymatgen
data_Li4Mn3(OF3)2
_symmetry_space_group_name_H-M   'P 1'
_cell_length_a   6.19279659
_cell_length_b   6.94854885
_cell_length_c   8.34159352
_cell_angle_alpha   90.09979379
_cell_angle_beta   74.68565171
_cell_angle_gamma   102.72774607
_symmetry_Int_Tables_number   1
_chemical_formula_structural   Li4Mn3(OF3)2
_chemical_formula_sum   'Li8 Mn6 O4 F12'
_cell_volume   337.08570094
_cell_formula_units_Z   2
loop_
 _symmetry_equiv_pos_site_id
 _symmetry_equiv_pos_as_xyz
  1  'x, y, z'
loop_
 _atom_site_type_symbol
 _atom_site_label
 _atom_site_symmetry_multiplicity
 _atom_site_fract_x
 _atom_site_fract_y
 _atom_site_fract_z
 _atom_site_occupancy
  Li  Li0  1  0.99794300  0.99978100  0.02380600  1
  Li  Li1  1  0.99789300  0.49988400  0.52380500  1
  Li  Li2  1  0.25204400  0.75012500  0.72660000  1
  Li  Li3  1  0.25188200  0.25019100  0.22657800  1
  Li  Li4  1  0.47033000  0.49261600  0.47660900  1
  Li  Li5  1  0.47031300  0.99256700  0.97649100  1
  Li  Li6  1  0.78013300  0.75748900  0.77380800  1
  Li  Li7  1  0.78003800  0.25743300  0.27381200  1
  Mn  Mn0  1  0.12484700  0.62514000  0.12511000  1
  Mn  Mn1  1  0.36274100  0.88002900  0.36226600  1
  Mn  Mn2  1  0.88692000  0.37003200  0.88808400  1
  Mn  Mn3  1  0.12495100  0.12529100  0.62509300  1
  Mn  Mn4  1  0.36352800  0.38004500  0.86239600  1
  Mn  Mn5  1  0.88629600  0.86993000  0.38794300  1
  O  O0  1  0.18567500  0.91756400  0.18223800  1
  O  O1  1  0.18650400  0.41782400  0.68252200  1
  O  O2  1  0.06435700  0.83325800  0.56746500  1
  O  O3  1  0.06425900  0.33313600  0.06776200  1
  F  F0  1  0.29534800  0.05702000  0.81952600  1
  F  F1  1  0.29521200  0.55705400  0.31959200  1
  F  F2  1  0.95469500  0.19231000  0.42869000  1
  F  F3  1  0.95471700  0.69243900  0.92872500  1
  F  F4  1  0.43860700  0.20660800  0.40020800  1
  F  F5  1  0.43886000  0.70666800  0.90006000  1
  F  F6  1  0.81125200  0.04216600  0.85012800  1
  F  F7  1  0.81108700  0.54161200  0.35042300  1
  F  F8  1  0.71233800  0.96700900  0.21339100  1
  F  F9  1  0.71298400  0.46693300  0.71364000  1
  F  F10  1  0.53714100  0.78398600  0.53662000  1
  F  F11  1  0.53710500  0.28385800  0.03661300  1
loop_
_geom_bond_atom_site_label_1
_geom_bond_atom_site_label_2
_geom_bond_distance
_geom_bond_site_symmetry_2
Li0 O0 2.128714 1_655
Li0 O3 2.307795 1_665
Li1 O1 2.134298 1_655
Li1 O2 2.307418 1_655
Li2 O2 2.135476 1_555
Li2 O1 2.300950 1_555
Li3 O3 2.132623 1_555
Li3 O0 2.303576 1_545
Li4 O1 2.077416 1_555
Li5 O0 2.079561 1_556
Li6 O2 2.081445 1_655
Li7 O3 2.079927 1_655
Mn0 O3 2.059722 1_555
Mn0 O0 2.062008 1_555
Mn1 O2 2.125218 1_555
Mn1 O0 2.126684 1_555
Mn2 O3 2.124407 1_656
Mn2 O1 2.131339 1_655
Mn3 O2 2.060565 1_545
Mn3 O1 2.063547 1_555
Mn4 O1 2.125816 1_555
Mn4 O3 2.129402 1_556
Mn5 O2 2.126211 1_655
Mn5 O0 2.131272 1_655
F0 Li5 2.013511 1_545
F0 Li0 2.115601 1_446
F0 Mn4 2.236861 1_555
F0 Li2 2.252173 1_545
F0 Mn3 2.257512 1_555
F1 Li4 2.014538 1_555
F1 Li1 2.114952 1_455
F1 Mn1 2.236152 1_555
F1 Li3 2.252244 1_555
F1 Mn0 2.257313 1_555
F2 Li7 1.999893 1_555
F2 Li3 2.104395 1_655
F2 Mn5 2.228941 1_545
F2 Li1 2.263392 1_555
F2 Mn3 2.268055 1_655
F3 Li6 1.999630 1_555
F3 Li2 2.104996 1_655
F3 Mn2 2.228914 1_555
F3 Li0 2.261805 1_556
F3 Mn0 2.267983 1_656
F4 Li7 2.049823 1_555
F4 Li4 2.069774 1_555
F4 Li3 2.137075 1_555
F4 Mn1 2.253145 1_545
F4 Mn3 2.281787 1_555
F5 Li6 2.048695 1_555
F5 Li5 2.069206 1_555
F5 Li2 2.136105 1_555
F5 Mn4 2.252915 1_555
F5 Mn0 2.283981 1_556
F6 Li5 2.047620 1_545
F6 Li6 2.061003 1_545
F6 Li0 2.135079 1_546
F6 Mn2 2.261735 1_555
F6 Mn3 2.283496 1_655
F7 Li4 2.046541 1_555
F7 Li7 2.058579 1_555
F7 Li1 2.132409 1_555
F7 Mn5 2.263997 1_555
F7 Mn0 2.285290 1_655
F8 Li0 2.006831 1_555
F8 Li7 2.058517 1_565
F8 Mn1 2.144875 1_555
F8 Mn5 2.210843 1_555
F9 Li1 2.005103 1_555
F9 Li6 2.058574 1_555
F9 Mn4 2.143833 1_555
F9 Mn2 2.209523 1_555
F10 Li2 2.006044 1_555
F10 Li4 2.063381 1_555
F10 Mn5 2.141759 1_555
F10 Mn1 2.208569 1_555
F11 Li3 2.006581 1_555
F11 Li5 2.063133 1_544
F11 Mn2 2.144717 1_554
F11 Mn4 2.204364 1_554
