# generated using pymatgen
data_Hf2N2O
_symmetry_space_group_name_H-M   'P 1'
_cell_length_a   8.61724417
_cell_length_b   8.68812222
_cell_length_c   8.69182335
_cell_angle_alpha   109.66379402
_cell_angle_beta   109.34388593
_cell_angle_gamma   109.15812952
_symmetry_Int_Tables_number   1
_chemical_formula_structural   Hf2N2O
_chemical_formula_sum   'Hf16 N16 O8'
_cell_volume   502.45616189
_cell_formula_units_Z   8
loop_
 _symmetry_equiv_pos_site_id
 _symmetry_equiv_pos_as_xyz
  1  'x, y, z'
loop_
 _atom_site_type_symbol
 _atom_site_label
 _atom_site_symmetry_multiplicity
 _atom_site_fract_x
 _atom_site_fract_y
 _atom_site_fract_z
 _atom_site_occupancy
  Hf  Hf0  1  0.98940557  0.49114520  0.00055015  1
  Hf  Hf1  1  0.53398023  0.74885181  0.29112984  1
  Hf  Hf2  1  0.25025341  0.21349263  0.96533632  1
  Hf  Hf3  1  0.24674009  0.72074279  0.47189156  1
  Hf  Hf4  1  0.95347396  0.23907414  0.21045559  1
  Hf  Hf5  1  0.49781888  0.00016211  0.99917958  1
  Hf  Hf6  1  0.51024776  0.50313510  0.49969121  1
  Hf  Hf7  1  0.71925962  0.46350798  0.25911879  1
  Hf  Hf8  1  0.22112296  0.97644323  0.25956874  1
  Hf  Hf9  1  0.00737128  0.01094874  0.51037931  1
  Hf  Hf10  1  0.29228149  0.53240351  0.74766167  1
  Hf  Hf11  1  0.77361644  0.02537268  0.73736067  1
  Hf  Hf12  1  0.04188954  0.76000041  0.78622881  1
  Hf  Hf13  1  0.75224480  0.78995973  0.03291911  1
  Hf  Hf14  1  0.74780915  0.28287501  0.53459222  1
  Hf  Hf15  1  0.46609262  0.25153470  0.70813607  1
  N  N0  1  0.96762762  0.51424734  0.23707923  1
  N  N1  1  0.26051357  0.76644291  0.72779546  1
  N  N2  1  0.52479451  0.76947658  0.53939826  1
  N  N3  1  0.01338717  0.04498599  0.27176020  1
  N  N4  1  0.27323723  0.01113893  0.04601198  1
  N  N5  1  0.45485618  0.46472619  0.22430465  1
  N  N6  1  0.98700058  0.95548516  0.72769804  1
  N  N7  1  0.24157660  0.96539401  0.51128503  1
  N  N8  1  0.54798601  0.54101562  0.77476684  1
  N  N9  1  0.46791953  0.22972790  0.45590605  1
  N  N10  1  0.72759765  0.98695086  0.95374067  1
  N  N11  1  0.73520872  0.22563770  0.26875549  1
  N  N12  1  0.77739867  0.54709621  0.53603300  1
  N  N13  1  0.22590129  0.27572498  0.74035541  1
  N  N14  1  0.75659972  0.03004158  0.48152443  1
  N  N15  1  0.73183180  0.26700020  0.77996830  1
  O  O0  1  0.95508231  0.72222026  0.99101659  1
  O  O1  1  0.49084322  0.76362842  0.03746204  1
  O  O2  1  0.04861865  0.27735270  0.01278916  1
  O  O3  1  0.27204468  0.73540671  0.21446301  1
  O  O4  1  0.22268525  0.44747012  0.46640421  1
  O  O5  1  0.76715989  0.72478360  0.25455045  1
  O  O6  1  0.03950142  0.49363184  0.77184094  1
  O  O7  1  0.50702195  0.23076139  0.96089392  1
loop_
_geom_bond_atom_site_label_1
_geom_bond_atom_site_label_2
_geom_bond_distance
_geom_bond_site_symmetry_2
Hf0 N15 2.055680 1_554
Hf0 N0 2.074780 1_555
Hf0 O2 2.107347 1_655
Hf0 O0 2.147161 1_554
Hf0 O6 2.174823 1_654
Hf0 O3 2.201054 1_655
Hf1 O3 2.081010 1_555
Hf1 N14 2.118254 1_565
Hf1 N2 2.134751 1_555
Hf1 N5 2.136310 1_555
Hf1 O1 2.166755 1_555
Hf1 O5 2.199234 1_555
Hf2 O2 2.109614 1_556
Hf2 N5 2.116117 1_556
Hf2 N4 2.141953 1_556
Hf2 N13 2.162063 1_555
Hf2 O7 2.182286 1_555
Hf2 N6 2.208959 1_445
Hf3 N7 2.054163 1_555
Hf3 N1 2.078206 1_555
Hf3 N2 2.121373 1_555
Hf3 N0 2.149556 1_455
Hf3 O4 2.297044 1_555
Hf3 O3 2.359477 1_555
Hf4 N11 2.082085 1_555
Hf4 N3 2.094715 1_655
Hf4 N10 2.144889 1_544
Hf4 O4 2.173113 1_655
Hf4 O2 2.207571 1_655
Hf4 N0 2.280712 1_555
Hf5 O7 2.119629 1_555
Hf5 N4 2.130017 1_556
Hf5 N11 2.148873 1_556
Hf5 N1 2.173600 1_545
Hf5 N10 2.174057 1_545
Hf5 O1 2.174825 1_546
Hf6 N12 2.098881 1_555
Hf6 N9 2.156696 1_555
Hf6 N5 2.160919 1_555
Hf6 N2 2.175531 1_555
Hf6 N8 2.194450 1_555
Hf6 O4 2.258839 1_555
Hf7 N12 2.087463 1_555
Hf7 N0 2.126234 1_555
Hf7 N11 2.142949 1_555
Hf7 O5 2.186632 1_555
Hf7 N5 2.200945 1_555
Hf7 O7 2.248863 1_554
Hf8 N9 2.067429 1_565
Hf8 N3 2.086441 1_565
Hf8 N4 2.139615 1_565
Hf8 N7 2.173491 1_555
Hf8 O3 2.212759 1_555
Hf8 O0 2.290067 1_454
Hf9 N13 2.098104 1_555
Hf9 N6 2.146546 1_445
Hf9 N14 2.159722 1_455
Hf9 N7 2.178464 1_545
Hf9 N3 2.205833 1_555
Hf9 O5 2.294089 1_445
Hf10 N13 2.085124 1_555
Hf10 O4 2.098732 1_555
Hf10 N8 2.110069 1_555
Hf10 O6 2.184446 1_555
Hf10 O1 2.188917 1_556
Hf10 N1 2.193092 1_555
Hf11 N2 2.086494 1_545
Hf11 N6 2.134868 1_545
Hf11 N10 2.153039 1_545
Hf11 N15 2.176020 1_555
Hf11 N14 2.194655 1_555
Hf11 O2 2.334310 1_656
Hf12 N6 2.077604 1_455
Hf12 N1 2.096212 1_555
Hf12 N12 2.141853 1_455
Hf12 N4 2.163517 1_566
Hf12 O0 2.224805 1_455
Hf12 O6 2.268049 1_555
Hf13 N10 2.093408 1_554
Hf13 N8 2.104652 1_554
Hf13 O0 2.118214 1_554
Hf13 O5 2.160089 1_555
Hf13 N3 2.195426 1_665
Hf13 O1 2.203338 1_555
Hf14 N9 2.112305 1_555
Hf14 N14 2.119958 1_555
Hf14 N11 2.150125 1_555
Hf14 O6 2.219773 1_655
Hf14 N12 2.220190 1_555
Hf14 N15 2.228609 1_555
Hf15 N15 2.108583 1_555
Hf15 N9 2.141910 1_555
Hf15 N7 2.153696 1_545
Hf15 N8 2.177822 1_555
Hf15 O7 2.186038 1_555
Hf15 N13 2.244218 1_555
