# generated using pymatgen
data_Li10Co4O9
_symmetry_space_group_name_H-M   'P 1'
_cell_length_a   7.57874200
_cell_length_b   7.75333409
_cell_length_c   9.81032695
_cell_angle_alpha   91.41943208
_cell_angle_beta   103.93655553
_cell_angle_gamma   119.01709451
_symmetry_Int_Tables_number   1
_chemical_formula_structural   Li10Co4O9
_chemical_formula_sum   'Li20 Co8 O18'
_cell_volume   482.40345894
_cell_formula_units_Z   2
loop_
 _symmetry_equiv_pos_site_id
 _symmetry_equiv_pos_as_xyz
  1  'x, y, z'
loop_
 _atom_site_type_symbol
 _atom_site_label
 _atom_site_symmetry_multiplicity
 _atom_site_fract_x
 _atom_site_fract_y
 _atom_site_fract_z
 _atom_site_occupancy
  Li  Li0  1  0.65113900  0.08084400  0.12737000  1
  Li  Li1  1  0.13043000  0.28841900  0.14224600  1
  Li  Li2  1  0.49460700  0.39059200  0.09866600  1
  Li  Li3  1  0.39907500  0.66416100  0.15038900  1
  Li  Li4  1  0.95921200  0.13264700  0.34362100  1
  Li  Li5  1  0.80701400  0.84589400  0.12895500  1
  Li  Li6  1  0.84958000  0.37908900  0.39371200  1
  Li  Li7  1  0.23877200  0.53164600  0.37189700  1
  Li  Li8  1  0.48893400  0.07367000  0.62300900  1
  Li  Li9  1  0.86377500  0.18505500  0.61559600  1
  Li  Li10  1  0.13622500  0.81494500  0.38440400  1
  Li  Li11  1  0.51106600  0.92633000  0.37699100  1
  Li  Li12  1  0.76122800  0.46835400  0.62810300  1
  Li  Li13  1  0.15042000  0.62091100  0.60628800  1
  Li  Li14  1  0.19298600  0.15410600  0.87104500  1
  Li  Li15  1  0.04078800  0.86735300  0.65637900  1
  Li  Li16  1  0.60092500  0.33583900  0.84961100  1
  Li  Li17  1  0.50539300  0.60940800  0.90133400  1
  Li  Li18  1  0.86957000  0.71158100  0.85775400  1
  Li  Li19  1  0.34886100  0.91915600  0.87263000  1
  Co  Co0  1  0.92966900  0.52837400  0.13177900  1
  Co  Co1  1  0.41006400  0.24496600  0.36591600  1
  Co  Co2  1  0.24212400  0.96088200  0.14148500  1
  Co  Co3  1  0.71210100  0.69300600  0.37048200  1
  Co  Co4  1  0.28789900  0.30699400  0.62951800  1
  Co  Co5  1  0.75787600  0.03911800  0.85851500  1
  Co  Co6  1  0.58993600  0.75503400  0.63408400  1
  Co  Co7  1  0.07033100  0.47162600  0.86822100  1
  O  O0  1  0.38996800  0.10857200  0.02808800  1
  O  O1  1  0.11983900  0.04537000  0.25820200  1
  O  O2  1  0.73636500  0.57728600  0.01832300  1
  O  O3  1  0.92714700  0.32177500  0.22120100  1
  O  O4  1  0.42258200  0.46703800  0.28364100  1
  O  O5  1  0.22335700  0.73776200  0.22558800  1
  O  O6  1  0.61569200  0.20667600  0.47211300  1
  O  O7  1  0.68436600  0.88699900  0.27894400  1
  O  O8  1  0.07898100  0.34105800  0.52141000  1
  O  O9  1  0.92101900  0.65894200  0.47859000  1
  O  O10  1  0.31563400  0.11300100  0.72105600  1
  O  O11  1  0.38430800  0.79332400  0.52788700  1
  O  O12  1  0.77664300  0.26223800  0.77441200  1
  O  O13  1  0.57741800  0.53296200  0.71635900  1
  O  O14  1  0.07285300  0.67822500  0.77879900  1
  O  O15  1  0.26363500  0.42271400  0.98167700  1
  O  O16  1  0.88016100  0.95463000  0.74179800  1
  O  O17  1  0.61003200  0.89142800  0.97191200  1
loop_
_geom_bond_atom_site_label_1
_geom_bond_atom_site_label_2
_geom_bond_distance
_geom_bond_site_symmetry_2
Li0 O17 1.948352 1_544
Li0 O3 1.977093 1_555
Li0 O0 2.099344 1_555
Li0 O7 2.197934 1_545
Li1 O3 1.997956 1_455
Li1 O4 2.048194 1_555
Li1 O15 2.100518 1_554
Li1 O1 2.203420 1_555
Li2 O0 1.966658 1_555
Li2 O15 1.978075 1_554
Li2 O2 2.062219 1_555
Li2 O4 2.163333 1_555
Li3 O5 1.957807 1_555
Li3 O7 2.050602 1_555
Li3 O4 2.080257 1_555
Li3 O15 2.112216 1_554
Li4 O7 1.955405 1_545
Li4 O1 1.975990 1_655
Li4 O3 1.985958 1_555
Li4 O8 2.037629 1_655
Li5 O7 2.013380 1_555
Li5 O17 2.038936 1_554
Li5 O2 2.080431 1_555
Li5 O1 2.125576 1_665
Li6 O6 1.982284 1_555
Li6 O3 2.025496 1_555
Li6 O8 2.036047 1_655
Li6 O9 2.061101 1_555
Li7 O4 2.043927 1_555
Li7 O11 2.129999 1_555
Li7 O5 2.200390 1_555
Li7 O3 2.209490 1_455
Li7 O8 2.242427 1_555
Li8 O10 1.930223 1_555
Li8 O6 1.994316 1_555
Li8 O11 2.023656 1_545
Li8 O12 2.082733 1_555
Li9 O8 1.960699 1_655
Li9 O12 2.013561 1_555
Li9 O6 2.141754 1_555
Li9 O16 2.234018 1_545
Li10 O9 1.960699 1_455
Li10 O5 2.013561 1_555
Li10 O11 2.141754 1_555
Li10 O1 2.234018 1_565
Li11 O7 1.930223 1_555
Li11 O11 1.994316 1_555
Li11 O6 2.023656 1_565
Li11 O5 2.082733 1_555
Li12 O13 2.043927 1_555
Li12 O6 2.129999 1_555
Li12 O12 2.200390 1_555
Li12 O14 2.209490 1_655
Li12 O9 2.242427 1_555
Li13 O11 1.982284 1_555
Li13 O14 2.025496 1_555
Li13 O9 2.036047 1_455
Li13 O8 2.061101 1_555
Li14 O10 2.013380 1_555
Li14 O0 2.038936 1_556
Li14 O15 2.080431 1_555
Li14 O16 2.125576 1_445
Li15 O10 1.955405 1_565
Li15 O16 1.975990 1_455
Li15 O14 1.985958 1_555
Li15 O9 2.037629 1_455
Li16 O12 1.957807 1_555
Li16 O10 2.050602 1_555
Li16 O13 2.080257 1_555
Li16 O2 2.112216 1_556
Li17 O17 1.966658 1_555
Li17 O2 1.978075 1_556
Li17 O15 2.062219 1_555
Li17 O13 2.163333 1_555
Li18 O14 1.997956 1_655
Li18 O13 2.048194 1_555
Li18 O2 2.100518 1_556
Li18 O16 2.203420 1_555
Li19 O0 1.948352 1_566
Li19 O14 1.977093 1_555
Li19 O17 2.099344 1_555
Li19 O10 2.197934 1_565
Co0 O2 1.817511 1_555
Co0 O3 1.839512 1_555
Co0 O5 1.967331 1_655
Co1 O6 1.812248 1_555
Co1 O4 1.890063 1_555
Co1 O1 1.961285 1_555
Co2 O0 1.795289 1_565
Co2 O5 1.892659 1_555
Co2 O1 1.913654 1_565
Co3 O9 1.819947 1_555
Co3 O7 1.842721 1_555
Co3 O4 1.976349 1_555
Co4 O8 1.819947 1_555
Co4 O10 1.842721 1_555
Co4 O13 1.976349 1_555
Co5 O17 1.795289 1_545
Co5 O12 1.892659 1_555
Co5 O16 1.913654 1_545
Co6 O11 1.812248 1_555
Co6 O13 1.890063 1_555
Co6 O16 1.961285 1_555
Co7 O15 1.817511 1_555
Co7 O14 1.839512 1_555
Co7 O12 1.967331 1_455
