# generated using pymatgen
data_Ti3NbCo2(PO4)6
_symmetry_space_group_name_H-M   'P 1'
_cell_length_a   8.59385935
_cell_length_b   8.59385935
_cell_length_c   8.59385860
_cell_angle_alpha   61.29454617
_cell_angle_beta   61.29454617
_cell_angle_gamma   61.29454664
_symmetry_Int_Tables_number   1
_chemical_formula_structural   Ti3NbCo2(PO4)6
_chemical_formula_sum   'Ti3 Nb1 Co2 P6 O24'
_cell_volume   461.85708724
_cell_formula_units_Z   1
loop_
 _symmetry_equiv_pos_site_id
 _symmetry_equiv_pos_as_xyz
  1  'x, y, z'
loop_
 _atom_site_type_symbol
 _atom_site_label
 _atom_site_symmetry_multiplicity
 _atom_site_fract_x
 _atom_site_fract_y
 _atom_site_fract_z
 _atom_site_occupancy
  Ti  Ti0  1  0.14026500  0.14026500  0.14026500  1
  Ti  Ti1  1  0.35982600  0.35982600  0.35982600  1
  Ti  Ti2  1  0.64174000  0.64174000  0.64174000  1
  Nb  Nb0  1  0.85973100  0.85973100  0.85973100  1
  Co  Co0  1  0.00515000  0.00515000  0.00515000  1
  Co  Co1  1  0.49826100  0.49826100  0.49826100  1
  P  P0  1  0.45488200  0.74878700  0.04233700  1
  P  P1  1  0.74878700  0.04233700  0.45488200  1
  P  P2  1  0.95959200  0.53498500  0.25591100  1
  P  P3  1  0.25591100  0.95959200  0.53498500  1
  P  P4  1  0.53498500  0.25591100  0.95959200  1
  P  P5  1  0.04233700  0.45488200  0.74878700  1
  O  O0  1  0.49576000  0.31636400  0.11970300  1
  O  O1  1  0.11970300  0.49576000  0.31636400  1
  O  O2  1  0.26488600  0.91074100  0.05711500  1
  O  O3  1  0.31636400  0.11970300  0.49576000  1
  O  O4  1  0.61350300  0.81287500  0.00499500  1
  O  O5  1  0.44089700  0.58891300  0.23376400  1
  O  O6  1  0.91074100  0.05711500  0.26488600  1
  O  O7  1  0.58891300  0.23376400  0.44089700  1
  O  O8  1  0.00006200  0.37785300  0.18961900  1
  O  O9  1  0.23376400  0.44089700  0.58891300  1
  O  O10  1  0.94438200  0.72931900  0.09437500  1
  O  O11  1  0.18961900  0.00006200  0.37785300  1
  O  O12  1  0.81287500  0.00499500  0.61350300  1
  O  O13  1  0.05711500  0.26488600  0.91074100  1
  O  O14  1  0.76688200  0.55314700  0.41460100  1
  O  O15  1  0.00499500  0.61350300  0.81287500  1
  O  O16  1  0.41460100  0.76688200  0.55314700  1
  O  O17  1  0.09437500  0.94438200  0.72931900  1
  O  O18  1  0.55314700  0.41460100  0.76688200  1
  O  O19  1  0.37785300  0.18961900  0.00006200  1
  O  O20  1  0.68865800  0.87990100  0.50021900  1
  O  O21  1  0.72931900  0.09437500  0.94438200  1
  O  O22  1  0.87990100  0.50021900  0.68865800  1
  O  O23  1  0.50021900  0.68865800  0.87990100  1
loop_
_geom_bond_atom_site_label_1
_geom_bond_atom_site_label_2
_geom_bond_distance
_geom_bond_site_symmetry_2
Nb0 O12 1.999074 1_565
Nb0 O4 1.999074 1_556
Nb0 O15 1.999074 1_655
Nb0 O10 2.075226 1_556
Nb0 O21 2.075227 1_565
Nb0 O17 2.075227 1_655
Co0 O6 2.170242 1_455
Co0 O2 2.170242 1_545
Co0 O13 2.170242 1_554
Co0 O17 2.353336 1_544
Co0 O21 2.353336 1_454
Co0 O10 2.353336 1_445
Co1 O5 2.241234 1_555
Co1 O7 2.241234 1_555
Co1 O9 2.241234 1_555
Co1 O18 2.279122 1_555
Co1 O16 2.279122 1_555
Co1 O14 2.279122 1_555
O0 P4 1.532885 1_554
O0 Ti1 1.941160 1_555
O1 P2 1.532885 1_455
O1 Ti1 1.941160 1_555
O2 P0 1.551405 1_555
O2 Ti0 2.034183 1_565
O3 P3 1.532885 1_545
O3 Ti1 1.941160 1_555
O4 P0 1.547820 1_555
O5 P0 1.551111 1_555
O5 Ti1 2.019587 1_555
O6 P1 1.551405 1_555
O6 Ti0 2.034183 1_655
O7 P1 1.551111 1_555
O7 Ti1 2.019587 1_555
O8 P2 1.538358 1_455
O8 Ti0 1.943794 1_555
O9 P5 1.551111 1_555
O9 Ti1 2.019587 1_555
O10 P2 1.571905 1_555
O11 P3 1.538358 1_545
O11 Ti0 1.943794 1_555
O12 P1 1.547820 1_555
O13 P5 1.551405 1_555
O13 Ti0 2.034183 1_556
O14 P2 1.553548 1_555
O14 Ti2 2.042314 1_555
O15 P5 1.547820 1_555
O16 P3 1.553548 1_555
O16 Ti2 2.042314 1_555
O17 P3 1.571905 1_555
O18 P4 1.553548 1_555
O18 Ti2 2.042314 1_555
O19 P4 1.538358 1_554
O19 Ti0 1.943794 1_555
O20 P1 1.531198 1_565
O20 Ti2 1.939405 1_555
O21 P4 1.571906 1_555
O22 P5 1.531198 1_655
O22 Ti2 1.939405 1_555
O23 P0 1.531198 1_556
O23 Ti2 1.939405 1_555
