# generated using pymatgen
data_Ge2N2O
_symmetry_space_group_name_H-M   'P 1'
_cell_length_a   5.86309147
_cell_length_b   5.86309147
_cell_length_c   14.37925300
_cell_angle_alpha   90.00000000
_cell_angle_beta   90.00000000
_cell_angle_gamma   119.99999397
_symmetry_Int_Tables_number   1
_chemical_formula_structural   Ge2N2O
_chemical_formula_sum   'Ge16 N16 O8'
_cell_volume   428.07544999
_cell_formula_units_Z   8
loop_
 _symmetry_equiv_pos_site_id
 _symmetry_equiv_pos_as_xyz
  1  'x, y, z'
loop_
 _atom_site_type_symbol
 _atom_site_label
 _atom_site_symmetry_multiplicity
 _atom_site_fract_x
 _atom_site_fract_y
 _atom_site_fract_z
 _atom_site_occupancy
  Ge  Ge0  1  0.66666700  0.33333300  0.95493600  1
  Ge  Ge1  1  0.66666700  0.33333300  0.33057400  1
  Ge  Ge2  1  0.50000000  0.00000000  0.50000000  1
  Ge  Ge3  1  0.83154900  0.16845100  0.16492300  1
  Ge  Ge4  1  0.66309800  0.83154900  0.83507700  1
  Ge  Ge5  1  0.16845100  0.33690200  0.83507700  1
  Ge  Ge6  1  0.00000000  0.00000000  0.62924000  1
  Ge  Ge7  1  0.50000000  0.50000000  0.50000000  1
  Ge  Ge8  1  0.00000000  0.00000000  0.37076000  1
  Ge  Ge9  1  0.00000000  0.00000000  0.00000000  1
  Ge  Ge10  1  0.33690200  0.16845100  0.16492300  1
  Ge  Ge11  1  0.83154900  0.66309800  0.16492300  1
  Ge  Ge12  1  0.16845100  0.83154900  0.83507700  1
  Ge  Ge13  1  0.00000000  0.50000000  0.50000000  1
  Ge  Ge14  1  0.33333300  0.66666700  0.66942600  1
  Ge  Ge15  1  0.33333300  0.66666700  0.04506400  1
  N  N0  1  0.66666700  0.33333300  0.08719800  1
  N  N1  1  0.82268100  0.17731900  0.41652300  1
  N  N2  1  0.84393900  0.15606100  0.91260400  1
  N  N3  1  0.17731900  0.35463900  0.58347700  1
  N  N4  1  0.64536100  0.82268100  0.58347700  1
  N  N5  1  0.68787800  0.84393900  0.08739600  1
  N  N6  1  0.15606100  0.31212200  0.08739600  1
  N  N7  1  0.00000000  0.00000000  0.76053800  1
  N  N8  1  0.00000000  0.00000000  0.23946200  1
  N  N9  1  0.84393900  0.68787800  0.91260400  1
  N  N10  1  0.31212200  0.15606100  0.91260400  1
  N  N11  1  0.82268100  0.64536100  0.41652300  1
  N  N12  1  0.35463900  0.17731900  0.41652300  1
  N  N13  1  0.15606100  0.84393900  0.08739600  1
  N  N14  1  0.17731900  0.82268100  0.58347700  1
  N  N15  1  0.33333300  0.66666700  0.91280200  1
  O  O0  1  0.52082000  0.47918000  0.24244300  1
  O  O1  1  0.66666700  0.33333300  0.56441900  1
  O  O2  1  0.95835900  0.47918000  0.24244300  1
  O  O3  1  0.52082000  0.04164100  0.24244300  1
  O  O4  1  0.04164100  0.52082000  0.75755700  1
  O  O5  1  0.47918000  0.95835900  0.75755700  1
  O  O6  1  0.33333300  0.66666700  0.43558100  1
  O  O7  1  0.47918000  0.52082000  0.75755700  1
loop_
_geom_bond_atom_site_label_1
_geom_bond_atom_site_label_2
_geom_bond_distance
_geom_bond_site_symmetry_2
Ge0 N2 1.900352 1_555
Ge0 N10 1.900357 1_555
Ge0 N9 1.900357 1_555
Ge0 N0 1.901829 1_556
Ge1 O2 1.949250 1_555
Ge1 O3 1.949250 1_555
Ge1 O0 1.949257 1_555
Ge1 N1 2.009370 1_555
Ge1 N11 2.009370 1_555
Ge1 N12 2.009370 1_555
Ge2 O1 1.929423 1_555
Ge2 O6 1.929423 1_545
Ge2 N4 2.033238 1_545
Ge2 N12 2.033238 1_555
Ge2 N1 2.033242 1_555
Ge2 N14 2.033242 1_545
Ge3 O2 1.939032 1_555
Ge3 O3 1.939032 1_555
Ge3 N5 1.992398 1_545
Ge3 N6 1.992398 1_655
Ge3 N0 2.013138 1_555
Ge3 N8 2.018689 1_655
Ge4 O5 1.939028 1_555
Ge4 O7 1.939032 1_555
Ge4 N9 1.992398 1_555
Ge4 N2 1.992398 1_565
Ge4 N15 2.013142 1_555
Ge4 N7 2.018690 1_665
Ge5 O4 1.939028 1_555
Ge5 O7 1.939032 1_555
Ge5 N10 1.992398 1_555
Ge5 N2 1.992398 1_455
Ge5 N15 2.013142 1_555
Ge5 N7 2.018690 1_555
Ge6 N7 1.887967 1_555
Ge6 N14 1.917173 1_545
Ge6 N3 1.917178 1_555
Ge6 N4 1.917178 1_445
Ge7 O6 1.929428 1_555
Ge7 O1 1.929428 1_555
Ge7 N3 2.033242 1_555
Ge7 N12 2.033242 1_555
Ge7 N4 2.033242 1_555
Ge7 N11 2.033242 1_555
Ge8 N8 1.887967 1_555
Ge8 N1 1.917173 1_455
Ge8 N12 1.917178 1_555
Ge8 N11 1.917178 1_445
Ge9 N13 2.022608 1_545
Ge9 N2 2.022608 1_454
Ge9 N6 2.022608 1_555
Ge9 N5 2.022608 1_445
Ge9 N10 2.022608 1_554
Ge9 N9 2.022608 1_444
Ge10 O3 1.939028 1_555
Ge10 O0 1.939032 1_555
Ge10 N6 1.992398 1_555
Ge10 N13 1.992398 1_545
Ge10 N0 2.013142 1_555
Ge10 N8 2.018690 1_555
Ge11 O2 1.939028 1_555
Ge11 O0 1.939032 1_555
Ge11 N5 1.992398 1_555
Ge11 N13 1.992398 1_655
Ge11 N0 2.013142 1_555
Ge11 N8 2.018690 1_665
Ge12 O5 1.939032 1_555
Ge12 O4 1.939032 1_555
Ge12 N10 1.992398 1_565
Ge12 N9 1.992398 1_455
Ge12 N15 2.013138 1_555
Ge12 N7 2.018689 1_565
Ge13 O6 1.929423 1_555
Ge13 O1 1.929423 1_455
Ge13 N11 2.033238 1_455
Ge13 N3 2.033238 1_555
Ge13 N14 2.033242 1_555
Ge13 N1 2.033242 1_455
Ge14 O5 1.949250 1_555
Ge14 O4 1.949250 1_555
Ge14 O7 1.949257 1_555
Ge14 N14 2.009370 1_555
Ge14 N3 2.009370 1_555
Ge14 N4 2.009370 1_555
Ge15 N13 1.900352 1_555
Ge15 N5 1.900357 1_555
Ge15 N6 1.900357 1_555
Ge15 N15 1.901829 1_554
