# generated using pymatgen
data_Cr(Bi7O12)2
_symmetry_space_group_name_H-M   'P 1'
_cell_length_a   8.75503003
_cell_length_b   8.78258842
_cell_length_c   10.60825300
_cell_angle_alpha   65.80455965
_cell_angle_beta   65.88693641
_cell_angle_gamma   90.56933304
_symmetry_Int_Tables_number   1
_chemical_formula_structural   Cr(Bi7O12)2
_chemical_formula_sum   'Cr1 Bi14 O24'
_cell_volume   663.51716677
_cell_formula_units_Z   1
loop_
 _symmetry_equiv_pos_site_id
 _symmetry_equiv_pos_as_xyz
  1  'x, y, z'
loop_
 _atom_site_type_symbol
 _atom_site_label
 _atom_site_symmetry_multiplicity
 _atom_site_fract_x
 _atom_site_fract_y
 _atom_site_fract_z
 _atom_site_occupancy
  Cr  Cr0  1  0.99417000  0.99417000  0.01166000  1
  Bi  Bi0  1  0.44315100  0.21627500  0.99939500  1
  Bi  Bi1  1  0.93892000  0.12502800  0.33620900  1
  Bi  Bi2  1  0.46296900  0.06054900  0.66194400  1
  Bi  Bi3  1  0.79200200  0.43540800  0.00362800  1
  Bi  Bi4  1  0.34002200  0.34002200  0.31995500  1
  Bi  Bi5  1  0.20436900  0.56096300  0.00362800  1
  Bi  Bi6  1  0.87508600  0.27750700  0.66194400  1
  Bi  Bi7  1  0.72487100  0.53876300  0.33620900  1
  Bi  Bi8  1  0.55745300  0.78432900  0.99939500  1
  Bi  Bi9  1  0.27730800  0.46420500  0.66327100  1
  Bi  Bi10  1  0.12445400  0.72136600  0.33771400  1
  Bi  Bi11  1  0.65884100  0.65884100  0.68231900  1
  Bi  Bi12  1  0.53783300  0.94092000  0.33771400  1
  Bi  Bi13  1  0.05942100  0.87252300  0.66327100  1
  O  O0  1  0.90421700  0.16216600  0.04234300  1
  O  O1  1  0.33421400  0.00792100  0.49331800  1
  O  O2  1  0.54335000  0.23887900  0.15798000  1
  O  O3  1  0.23533900  0.29414000  0.15988000  1
  O  O4  1  0.00616900  0.17352200  0.49356900  1
  O  O5  1  0.09502000  0.09502000  0.80996200  1
  O  O6  1  0.61795000  0.11795000  0.76410000  1
  O  O7  1  0.88147700  0.38147700  0.23704600  1
  O  O8  1  0.50026200  0.33291000  0.49356900  1
  O  O9  1  0.60478000  0.54598000  0.15988000  1
  O  O10  1  0.29866900  0.60314100  0.15798000  1
  O  O11  1  0.82788900  0.49950200  0.50780400  1
  O  O12  1  0.17246800  0.49876100  0.49331800  1
  O  O13  1  0.70302000  0.39396600  0.84374000  1
  O  O14  1  0.05344000  0.79549100  0.04234300  1
  O  O15  1  0.39694800  0.45433600  0.84039800  1
  O  O16  1  0.50028600  0.66717800  0.50598900  1
  O  O17  1  0.38237900  0.88237900  0.23524100  1
  O  O18  1  0.11856200  0.61856200  0.76287400  1
  O  O19  1  0.88311100  0.88311100  0.23377900  1
  O  O20  1  0.99372600  0.82683300  0.50598900  1
  O  O21  1  0.76265500  0.70526600  0.84039800  1
  O  O22  1  0.45324000  0.76229500  0.84374000  1
  O  O23  1  0.66430600  0.99269400  0.50780400  1
loop_
_geom_bond_atom_site_label_1
_geom_bond_atom_site_label_2
_geom_bond_distance
_geom_bond_site_symmetry_2
Cr0 O5 1.740584 1_664
Cr0 O14 1.763630 1_655
Cr0 O0 1.763630 1_565
Cr0 O19 1.916810 1_555
Bi0 O15 2.250230 1_555
Bi0 O13 2.255195 1_555
Bi0 O2 2.261698 1_556
Bi0 O3 2.263725 1_556
Bi0 O6 2.826669 1_555
Bi0 O17 2.830088 1_546
Bi1 O4 2.166911 1_655
Bi1 O7 2.223731 1_555
Bi1 O23 2.253691 1_545
Bi1 O3 2.473749 1_655
Bi1 O20 2.682820 1_545
Bi2 O23 2.144903 1_545
Bi2 O6 2.214792 1_555
Bi2 O8 2.241553 1_555
Bi2 O22 2.511665 1_545
Bi2 O1 2.645606 1_555
Bi3 O2 2.257339 1_555
Bi3 O13 2.279537 1_554
Bi3 O9 2.347005 1_555
Bi3 O21 2.386034 1_554
Bi3 O0 2.541934 1_555
Bi3 O7 2.756853 1_555
Bi3 O18 2.803435 1_654
Bi4 O2 2.386159 1_555
Bi4 O10 2.386164 1_555
Bi4 O3 2.389803 1_555
Bi4 O9 2.389807 1_555
Bi4 O4 2.717093 1_555
Bi4 O8 2.717105 1_555
Bi4 O1 2.723178 1_555
Bi4 O12 2.723182 1_555
Bi5 O10 2.257343 1_555
Bi5 O22 2.279550 1_554
Bi5 O3 2.346999 1_555
Bi5 O15 2.386036 1_554
Bi5 O14 2.541938 1_555
Bi5 O7 2.756846 1_455
Bi5 O18 2.803442 1_554
Bi6 O11 2.144903 1_555
Bi6 O6 2.214785 1_555
Bi6 O4 2.241549 1_655
Bi6 O13 2.511669 1_555
Bi6 O12 2.645613 1_655
Bi7 O8 2.166906 1_555
Bi7 O7 2.223731 1_555
Bi7 O11 2.253685 1_555
Bi7 O9 2.473755 1_555
Bi7 O16 2.682816 1_555
Bi8 O21 2.250233 1_555
Bi8 O22 2.255182 1_555
Bi8 O10 2.261694 1_556
Bi8 O9 2.263720 1_556
Bi8 O6 2.826673 1_565
Bi8 O17 2.830088 1_556
Bi9 O16 2.145706 1_555
Bi9 O18 2.213040 1_555
Bi9 O12 2.257040 1_555
Bi9 O15 2.472204 1_555
Bi9 O8 2.693663 1_555
Bi10 O12 2.159088 1_555
Bi10 O17 2.225170 1_555
Bi10 O20 2.249798 1_455
Bi10 O10 2.513556 1_555
Bi10 O11 2.642644 1_455
Bi11 O21 2.367051 1_555
Bi11 O15 2.367054 1_555
Bi11 O13 2.405677 1_555
Bi11 O22 2.405681 1_555
Bi11 O20 2.728127 1_555
Bi11 O16 2.728129 1_555
Bi11 O23 2.739000 1_555
Bi11 O11 2.739003 1_555
Bi12 O1 2.159093 1_565
Bi12 O17 2.225187 1_555
Bi12 O16 2.249797 1_555
Bi12 O2 2.513561 1_565
Bi12 O23 2.642632 1_555
Bi13 O20 2.145697 1_455
Bi13 O18 2.213040 1_555
Bi13 O1 2.257042 1_565
Bi13 O21 2.472195 1_455
Bi13 O4 2.693676 1_565
