# generated using pymatgen
data_FeOF
_symmetry_space_group_name_H-M   'P 1'
_cell_length_a   14.21484007
_cell_length_b   9.48672204
_cell_length_c   3.08998300
_cell_angle_alpha   90.00000000
_cell_angle_beta   90.00000000
_cell_angle_gamma   90.39399422
_symmetry_Int_Tables_number   1
_chemical_formula_structural   FeOF
_chemical_formula_sum   'Fe12 O12 F12'
_cell_volume   416.68126677
_cell_formula_units_Z   12
loop_
 _symmetry_equiv_pos_site_id
 _symmetry_equiv_pos_as_xyz
  1  'x, y, z'
loop_
 _atom_site_type_symbol
 _atom_site_label
 _atom_site_symmetry_multiplicity
 _atom_site_fract_x
 _atom_site_fract_y
 _atom_site_fract_z
 _atom_site_occupancy
  Fe  Fe0  1  0.99961400  0.99913000  0.00000000  1
  Fe  Fe1  1  0.00812100  0.49581300  0.00000000  1
  Fe  Fe2  1  0.14921700  0.24319800  0.50000000  1
  Fe  Fe3  1  0.16461100  0.72147400  0.50000000  1
  Fe  Fe4  1  0.34230800  0.99025200  0.00000000  1
  Fe  Fe5  1  0.33373700  0.51229200  0.00000000  1
  Fe  Fe6  1  0.48951900  0.74483200  0.50000000  1
  Fe  Fe7  1  0.52089100  0.25045600  0.50000000  1
  Fe  Fe8  1  0.67281000  0.00867000  0.00000000  1
  Fe  Fe9  1  0.66995000  0.48823000  0.00000000  1
  Fe  Fe10  1  0.81537000  0.25325500  0.50000000  1
  Fe  Fe11  1  0.83363600  0.78184100  0.50000000  1
  O  O0  1  0.06399800  0.40177300  0.50000000  1
  O  O1  1  0.09823800  0.14300500  0.00000000  1
  O  O2  1  0.09647400  0.65638500  0.00000000  1
  O  O3  1  0.26855000  0.59279100  0.50000000  1
  O  O4  1  0.39772000  0.90350300  0.50000000  1
  O  O5  1  0.43756800  0.64591300  0.00000000  1
  O  O6  1  0.56434000  0.35675300  0.00000000  1
  O  O7  1  0.59979800  0.09356200  0.50000000  1
  O  O8  1  0.73441900  0.41148600  0.50000000  1
  O  O9  1  0.73041900  0.90250200  0.50000000  1
  O  O10  1  0.77071500  0.15540300  0.00000000  1
  O  O11  1  0.90517500  0.85639600  0.00000000  1
  F  F0  1  0.06917800  0.90347900  0.50000000  1
  F  F1  1  0.23161500  0.33690600  0.00000000  1
  F  F2  1  0.22932900  0.85064800  0.00000000  1
  F  F3  1  0.26889500  0.09657000  0.50000000  1
  F  F4  1  0.39427800  0.39455900  0.50000000  1
  F  F5  1  0.43156100  0.15667300  0.00000000  1
  F  F6  1  0.56207400  0.84139100  0.00000000  1
  F  F7  1  0.60664200  0.60645100  0.50000000  1
  F  F8  1  0.77076900  0.65720700  0.00000000  1
  F  F9  1  0.89984300  0.34947300  0.00000000  1
  F  F10  1  0.93729000  0.10321100  0.50000000  1
  F  F11  1  0.93132700  0.59452100  0.50000000  1
loop_
_geom_bond_atom_site_label_1
_geom_bond_atom_site_label_2
_geom_bond_distance
_geom_bond_site_symmetry_2
Fe0 O11 1.900174 1_555
Fe0 O1 1.949880 1_665
Fe1 O0 1.955384 1_555
Fe1 O0 1.955384 1_554
Fe1 O2 1.967608 1_555
Fe2 O0 1.937932 1_555
Fe2 O1 1.950926 1_556
Fe2 O1 1.950926 1_555
Fe3 O3 1.923030 1_555
Fe3 O2 1.923060 1_556
Fe3 O2 1.923060 1_555
Fe4 O4 1.921877 1_555
Fe4 O4 1.921877 1_554
Fe5 O5 1.938955 1_555
Fe5 O3 1.959223 1_555
Fe5 O3 1.959223 1_554
Fe6 O5 1.950241 1_555
Fe6 O5 1.950241 1_556
Fe6 O4 1.998907 1_555
Fe7 O7 1.869873 1_555
Fe7 O6 1.943394 1_556
Fe7 O6 1.943394 1_555
Fe8 O10 1.961607 1_555
Fe8 O9 2.020734 1_545
Fe8 O9 2.020734 1_544
Fe8 O7 2.030817 1_554
Fe8 O7 2.030817 1_555
Fe9 O8 1.940631 1_554
Fe9 O8 1.940631 1_555
Fe9 O6 1.945163 1_555
Fe10 O8 1.897672 1_555
Fe10 O10 1.908809 1_556
Fe10 O10 1.908809 1_555
Fe11 O9 1.867110 1_555
Fe11 O11 1.977744 1_556
Fe11 O11 1.977744 1_555
F0 Fe0 2.049524 1_456
F0 Fe0 2.049524 1_455
F0 Fe3 2.203119 1_555
F1 Fe2 2.129519 1_555
F1 Fe2 2.129519 1_554
F1 Fe5 2.200550 1_555
F2 Fe4 2.074586 1_555
F2 Fe3 2.172444 1_554
F2 Fe3 2.172444 1_555
F3 Fe4 2.123151 1_546
F3 Fe4 2.123151 1_545
F3 Fe2 2.204897 1_555
F4 Fe5 2.094823 1_555
F4 Fe5 2.094823 1_556
F4 Fe7 2.267581 1_555
F5 Fe4 2.018582 1_545
F5 Fe7 2.185277 1_555
F5 Fe7 2.185277 1_554
F6 Fe6 2.068046 1_554
F6 Fe6 2.068046 1_555
F6 Fe8 2.227502 1_565
F7 Fe9 2.113895 1_555
F7 Fe9 2.113895 1_556
F7 Fe6 2.127274 1_555
F8 Fe11 2.137536 1_555
F8 Fe11 2.137536 1_554
F8 Fe9 2.142892 1_555
F9 Fe1 2.065660 1_655
F9 Fe10 2.155682 1_554
F9 Fe10 2.155682 1_555
F10 Fe0 2.039320 1_546
F10 Fe0 2.039320 1_545
F10 Fe10 2.250247 1_555
F11 Fe1 2.114132 1_655
F11 Fe1 2.114132 1_656
F11 Fe11 2.262794 1_555
