# generated using pymatgen
data_Na6Sn2O7
_symmetry_space_group_name_H-M   'P 1'
_cell_length_a   6.24318600
_cell_length_b   9.35190700
_cell_length_c   18.47964737
_cell_angle_alpha   63.67895797
_cell_angle_beta   90.00000000
_cell_angle_gamma   90.00000000
_symmetry_Int_Tables_number   1
_chemical_formula_structural   Na6Sn2O7
_chemical_formula_sum   'Na24 Sn8 O28'
_cell_volume   967.08576124
_cell_formula_units_Z   4
loop_
 _symmetry_equiv_pos_site_id
 _symmetry_equiv_pos_as_xyz
  1  'x, y, z'
loop_
 _atom_site_type_symbol
 _atom_site_label
 _atom_site_symmetry_multiplicity
 _atom_site_fract_x
 _atom_site_fract_y
 _atom_site_fract_z
 _atom_site_occupancy
  Na  Na0  1  0.36991100  0.65007500  0.38444300  1
  Na  Na1  1  0.69754300  0.00750200  0.04231100  1
  Na  Na2  1  0.66560400  0.87331700  0.25664900  1
  Na  Na3  1  0.27902700  0.40275900  0.80145100  1
  Na  Na4  1  0.01484700  0.82169900  0.37641600  1
  Na  Na5  1  0.64716400  0.74171000  0.48566600  1
  Na  Na6  1  0.77902700  0.59724100  0.69854900  1
  Na  Na7  1  0.14716400  0.25829000  0.01433400  1
  Na  Na8  1  0.51484700  0.17830100  0.12358400  1
  Na  Na9  1  0.16560400  0.12668300  0.24335100  1
  Na  Na10  1  0.19754300  0.99249800  0.45768900  1
  Na  Na11  1  0.86991100  0.34992500  0.11555700  1
  Na  Na12  1  0.13008900  0.65007500  0.88444300  1
  Na  Na13  1  0.80245700  0.00750200  0.54231100  1
  Na  Na14  1  0.83439600  0.87331700  0.75664900  1
  Na  Na15  1  0.48515300  0.82169900  0.87641600  1
  Na  Na16  1  0.85283600  0.74171000  0.98566600  1
  Na  Na17  1  0.22097300  0.40275900  0.30145100  1
  Na  Na18  1  0.35283600  0.25829000  0.51433400  1
  Na  Na19  1  0.98515300  0.17830100  0.62358400  1
  Na  Na20  1  0.72097300  0.59724100  0.19854900  1
  Na  Na21  1  0.33439600  0.12668300  0.74335100  1
  Na  Na22  1  0.30245700  0.99249800  0.95768900  1
  Na  Na23  1  0.63008900  0.34992500  0.61555700  1
  Sn  Sn0  1  0.17649800  0.84185300  0.16862700  1
  Sn  Sn1  1  0.15192200  0.56338000  0.58600200  1
  Sn  Sn2  1  0.65192200  0.43662000  0.91399800  1
  Sn  Sn3  1  0.32350200  0.84185300  0.66862700  1
  Sn  Sn4  1  0.67649800  0.15814700  0.33137300  1
  Sn  Sn5  1  0.34807800  0.56338000  0.08600200  1
  Sn  Sn6  1  0.84807800  0.43662000  0.41399800  1
  Sn  Sn7  1  0.82350200  0.15814700  0.83137300  1
  O  O0  1  0.86294800  0.84206000  0.15916200  1
  O  O1  1  0.73304800  0.65426300  0.38062800  1
  O  O2  1  0.32591900  0.01435300  0.07649500  1
  O  O3  1  0.83828900  0.55920100  0.58825700  1
  O  O4  1  0.27304300  0.86880300  0.26443000  1
  O  O5  1  0.71376700  0.37510600  0.82057000  1
  O  O6  1  0.27527800  0.72866600  0.48505800  1
  O  O7  1  0.21376700  0.62489400  0.67943000  1
  O  O8  1  0.33828900  0.44079900  0.91174300  1
  O  O9  1  0.77527800  0.27133400  0.01494200  1
  O  O10  1  0.77304300  0.13119700  0.23557000  1
  O  O11  1  0.82591900  0.98564700  0.42350500  1
  O  O12  1  0.63705200  0.84206000  0.65916200  1
  O  O13  1  0.23304800  0.34573700  0.11937200  1
  O  O14  1  0.76695200  0.65426300  0.88062800  1
  O  O15  1  0.36294800  0.15794000  0.34083800  1
  O  O16  1  0.17408100  0.01435300  0.57649500  1
  O  O17  1  0.22695700  0.86880300  0.76443000  1
  O  O18  1  0.22472200  0.72866600  0.98505800  1
  O  O19  1  0.66171100  0.55920100  0.08825700  1
  O  O20  1  0.78623300  0.37510600  0.32057000  1
  O  O21  1  0.72472200  0.27133400  0.51494200  1
  O  O22  1  0.28623300  0.62489400  0.17943000  1
  O  O23  1  0.72695700  0.13119700  0.73557000  1
  O  O24  1  0.16171100  0.44079900  0.41174300  1
  O  O25  1  0.67408100  0.98564700  0.92350500  1
  O  O26  1  0.26695200  0.34573700  0.61937200  1
  O  O27  1  0.13705200  0.15794000  0.84083800  1
loop_
_geom_bond_atom_site_label_1
_geom_bond_atom_site_label_2
_geom_bond_distance
_geom_bond_site_symmetry_2
Na0 O24 2.213332 1_555
Na0 O1 2.268026 1_555
Na0 O4 2.333562 1_555
Na0 O6 2.357588 1_555
Na1 O0 2.271626 1_545
Na1 O25 2.298119 1_544
Na1 O9 2.339321 1_555
Na1 O2 2.412882 1_555
Na2 O0 2.305623 1_555
Na2 O1 2.336850 1_555
Na2 O10 2.363203 1_565
Na2 O4 2.454312 1_555
Na3 O8 2.249560 1_555
Na3 O27 2.253787 1_555
Na3 O7 2.326388 1_555
Na3 O5 2.734476 1_555
Na4 O1 2.333467 1_455
Na4 O11 2.383784 1_455
Na4 O6 2.425342 1_555
Na4 O4 2.503343 1_555
Na5 O3 2.249815 1_555
Na5 O6 2.325244 1_555
Na5 O11 2.333523 1_555
Na5 O1 2.476233 1_555
Na6 O3 2.249560 1_555
Na6 O12 2.253787 1_555
Na6 O5 2.326388 1_555
Na6 O7 2.734476 1_655
Na7 O8 2.249815 1_554
Na7 O9 2.325244 1_455
Na7 O2 2.333523 1_555
Na7 O13 2.476233 1_555
Na8 O13 2.333467 1_555
Na8 O2 2.383784 1_555
Na8 O9 2.425342 1_555
Na8 O10 2.503343 1_555
Na9 O15 2.305623 1_555
Na9 O13 2.336850 1_555
Na9 O4 2.363203 1_545
Na9 O10 2.454312 1_455
Na10 O15 2.271626 1_565
Na10 O16 2.298119 1_565
Na10 O6 2.339321 1_555
Na10 O11 2.412882 1_455
Na11 O19 2.213332 1_555
Na11 O13 2.268026 1_655
Na11 O10 2.333562 1_555
Na11 O9 2.357588 1_555
Na12 O8 2.213332 1_555
Na12 O14 2.268026 1_455
Na12 O17 2.333562 1_555
Na12 O18 2.357588 1_555
Na13 O12 2.271626 1_545
Na13 O11 2.298119 1_545
Na13 O21 2.339321 1_555
Na13 O16 2.412882 1_655
Na14 O12 2.305623 1_555
Na14 O14 2.336850 1_555
Na14 O23 2.363203 1_565
Na14 O17 2.454312 1_655
Na15 O14 2.333467 1_555
Na15 O25 2.383784 1_555
Na15 O18 2.425342 1_555
Na15 O17 2.503343 1_555
Na16 O19 2.249815 1_556
Na16 O18 2.325244 1_655
Na16 O25 2.333523 1_555
Na16 O14 2.476233 1_555
Na17 O24 2.249560 1_555
Na17 O15 2.253787 1_555
Na17 O22 2.326388 1_555
Na17 O20 2.734476 1_455
Na18 O24 2.249815 1_555
Na18 O21 2.325244 1_555
Na18 O16 2.333523 1_555
Na18 O26 2.476233 1_555
Na19 O26 2.333467 1_655
Na19 O16 2.383784 1_655
Na19 O21 2.425342 1_555
Na19 O23 2.503343 1_555
Na20 O19 2.249560 1_555
Na20 O0 2.253787 1_555
Na20 O20 2.326388 1_555
Na20 O22 2.734476 1_555
Na21 O27 2.305623 1_555
Na21 O26 2.336850 1_555
Na21 O17 2.363203 1_545
Na21 O23 2.454312 1_555
Na22 O27 2.271626 1_565
Na22 O2 2.298119 1_566
Na22 O18 2.339321 1_555
Na22 O25 2.412882 1_555
Na23 O3 2.213332 1_555
Na23 O26 2.268026 1_555
Na23 O23 2.333562 1_555
Na23 O21 2.357588 1_555
O0 Sn0 1.965274 1_655
O1 Sn6 1.981342 1_555
O2 Sn0 1.983865 1_545
O3 Sn1 1.958534 1_655
O4 Sn0 1.989185 1_555
O5 Sn7 2.065616 1_555
O5 Sn2 2.083667 1_555
O6 Sn1 1.976142 1_555
O7 Sn3 2.065616 1_555
O7 Sn1 2.083667 1_555
O8 Sn2 1.958534 1_555
O9 Sn2 1.976142 1_554
O10 Sn4 1.989185 1_555
O11 Sn4 1.983865 1_565
O12 Sn3 1.965274 1_555
O13 Sn5 1.981342 1_555
O14 Sn2 1.981342 1_555
O15 Sn4 1.965274 1_555
O16 Sn3 1.983865 1_545
O17 Sn3 1.989185 1_555
O18 Sn5 1.976142 1_556
O19 Sn5 1.958534 1_555
O20 Sn4 2.065616 1_555
O20 Sn6 2.083667 1_555
O21 Sn6 1.976142 1_555
O22 Sn0 2.065616 1_555
O22 Sn5 2.083667 1_555
O23 Sn7 1.989185 1_555
O24 Sn6 1.958534 1_455
O25 Sn7 1.983865 1_565
O26 Sn1 1.981342 1_555
O27 Sn7 1.965274 1_455
