# generated using pymatgen
data_Sr3Li3La5O12
_symmetry_space_group_name_H-M   'P 1'
_cell_length_a   10.78300600
_cell_length_b   6.89585200
_cell_length_c   13.52639257
_cell_angle_alpha   89.95837853
_cell_angle_beta   90.00000000
_cell_angle_gamma   90.00000000
_symmetry_Int_Tables_number   1
_chemical_formula_structural   Sr3Li3La5O12
_chemical_formula_sum   'Sr9 Li9 La15 O36'
_cell_volume   1005.79541575
_cell_formula_units_Z   3
loop_
 _symmetry_equiv_pos_site_id
 _symmetry_equiv_pos_as_xyz
  1  'x, y, z'
loop_
 _atom_site_type_symbol
 _atom_site_label
 _atom_site_symmetry_multiplicity
 _atom_site_fract_x
 _atom_site_fract_y
 _atom_site_fract_z
 _atom_site_occupancy
  Sr  Sr0  1  0.00000000  0.91476100  0.21874800  1
  Sr  Sr1  1  0.33343700  0.91405000  0.21722500  1
  Sr  Sr2  1  0.66656300  0.91405000  0.21722500  1
  Sr  Sr3  1  0.00000000  0.41210600  0.28045500  1
  Sr  Sr4  1  0.66688300  0.41275900  0.27951700  1
  Sr  Sr5  1  0.33311700  0.41275900  0.27951700  1
  Sr  Sr6  1  0.16098300  0.59910200  0.71836800  1
  Sr  Sr7  1  0.50000000  0.58691300  0.72562700  1
  Sr  Sr8  1  0.83901700  0.59910200  0.71836800  1
  Li  Li0  1  0.16527400  0.62399300  0.13663900  1
  Li  Li1  1  0.50000000  0.62313600  0.13541300  1
  Li  Li2  1  0.83472600  0.62399300  0.13663900  1
  Li  Li3  1  0.16800900  0.12228100  0.36379600  1
  Li  Li4  1  0.50000000  0.12418900  0.36301600  1
  Li  Li5  1  0.83199100  0.12228100  0.36379600  1
  Li  Li6  1  0.33821700  0.87830700  0.63182700  1
  Li  Li7  1  0.66178300  0.87830700  0.63182700  1
  Li  Li8  1  0.00000000  0.38356000  0.86946000  1
  La  La0  1  0.16925700  0.24531100  0.03932800  1
  La  La1  1  0.50000000  0.24152400  0.03603400  1
  La  La2  1  0.83074300  0.24531100  0.03932800  1
  La  La3  1  0.16399000  0.73912200  0.46052500  1
  La  La4  1  0.50000000  0.74344700  0.45586900  1
  La  La5  1  0.83601000  0.73912200  0.46052500  1
  La  La6  1  0.33396100  0.25555000  0.53871700  1
  La  La7  1  0.66603900  0.25555000  0.53871700  1
  La  La8  1  0.00000000  0.23743200  0.54122600  1
  La  La9  1  0.17123600  0.09424200  0.77856500  1
  La  La10  1  0.50000000  0.10610600  0.78504800  1
  La  La11  1  0.82876400  0.09424200  0.77856500  1
  La  La12  1  0.33275500  0.73125100  0.95775500  1
  La  La13  1  0.66724500  0.73125100  0.95775500  1
  La  La14  1  0.00000000  0.75412200  0.96181900  1
  O  O0  1  0.83290700  0.86809200  0.06546200  1
  O  O1  1  0.16709300  0.86809200  0.06546200  1
  O  O2  1  0.50000000  0.86229100  0.06264000  1
  O  O3  1  0.33141400  0.48670800  0.09577600  1
  O  O4  1  0.66858600  0.48670800  0.09577600  1
  O  O5  1  0.00000000  0.48640400  0.09860300  1
  O  O6  1  0.16719500  0.18215800  0.22068300  1
  O  O7  1  0.83280500  0.18215800  0.22068300  1
  O  O8  1  0.50000000  0.18311800  0.21875700  1
  O  O9  1  0.16629200  0.68279000  0.28147800  1
  O  O10  1  0.83370800  0.68279000  0.28147800  1
  O  O11  1  0.50000000  0.68202800  0.27903300  1
  O  O12  1  0.66464300  0.98922300  0.40461000  1
  O  O13  1  0.33535700  0.98922300  0.40461000  1
  O  O14  1  0.00000000  0.98994700  0.40663900  1
  O  O15  1  0.16697300  0.36362500  0.43686900  1
  O  O16  1  0.50000000  0.37052900  0.43424300  1
  O  O17  1  0.83302700  0.36362500  0.43686900  1
  O  O18  1  0.33237200  0.63189600  0.56399000  1
  O  O19  1  0.66762800  0.63189600  0.56399000  1
  O  O20  1  0.00000000  0.60811900  0.55985100  1
  O  O21  1  0.18027100  0.02434800  0.60286600  1
  O  O22  1  0.50000000  0.01011300  0.60467400  1
  O  O23  1  0.81972900  0.02434800  0.60286600  1
  O  O24  1  0.00000000  0.30797700  0.72579100  1
  O  O25  1  0.33617300  0.30253700  0.71707200  1
  O  O26  1  0.66382700  0.30253700  0.71707200  1
  O  O27  1  0.33260200  0.83459100  0.77389700  1
  O  O28  1  0.66739800  0.83459100  0.77389700  1
  O  O29  1  0.00000000  0.83892300  0.78443700  1
  O  O30  1  0.84677600  0.51703400  0.90304500  1
  O  O31  1  0.15322400  0.51703400  0.90304500  1
  O  O32  1  0.50000000  0.52904800  0.90749000  1
  O  O33  1  0.33476400  0.11479100  0.93313600  1
  O  O34  1  0.66523600  0.11479100  0.93313600  1
  O  O35  1  0.00000000  0.13612800  0.93387900  1
loop_
_geom_bond_atom_site_label_1
_geom_bond_atom_site_label_2
_geom_bond_distance
_geom_bond_site_symmetry_2
Li0 O1 1.938647 1_555
Li0 O9 2.000983 1_555
Li0 O5 2.083669 1_555
Li0 O3 2.100461 1_555
Li1 O2 1.919996 1_555
Li1 O11 1.984944 1_555
Li1 O3 2.116104 1_555
Li1 O4 2.116104 1_555
Li2 O0 1.938647 1_555
Li2 O10 2.000983 1_555
Li2 O5 2.083669 1_655
Li2 O4 2.100461 1_555
Li3 O15 1.936306 1_555
Li3 O6 1.979075 1_555
Li3 O13 2.098144 1_545
Li3 O14 2.109471 1_545
Li4 O16 1.953527 1_555
Li4 O8 1.992879 1_555
Li4 O12 2.081789 1_545
Li4 O13 2.081789 1_545
Li5 O17 1.936306 1_555
Li5 O7 1.979075 1_555
Li5 O12 2.098144 1_545
Li5 O14 2.109471 1_645
Li6 O18 1.932754 1_555
Li6 O27 1.945922 1_555
Li6 O22 2.000960 1_565
Li6 O21 2.016867 1_565
Li7 O19 1.932754 1_555
Li7 O28 1.945922 1_555
Li7 O22 2.000960 1_565
Li7 O23 2.016867 1_565
Li8 O35 1.915309 1_555
Li8 O31 1.945241 1_555
Li8 O30 1.945241 1_455
Li8 O24 2.012371 1_555
La0 O35 2.435956 1_554
La0 O33 2.461750 1_554
La0 O6 2.491223 1_555
La0 O3 2.532439 1_555
La0 O5 2.596115 1_555
La0 O1 2.625005 1_545
La0 O31 2.633257 1_554
La1 O34 2.424323 1_554
La1 O33 2.424323 1_554
La1 O8 2.503895 1_555
La1 O3 2.611182 1_555
La1 O4 2.611182 1_555
La1 O32 2.636169 1_554
La1 O2 2.639522 1_545
La2 O35 2.435956 1_654
La2 O34 2.461750 1_554
La2 O7 2.491223 1_555
La2 O4 2.532439 1_555
La2 O5 2.596115 1_655
La2 O0 2.625005 1_545
La2 O30 2.633257 1_554
La3 O20 2.397141 1_555
La3 O18 2.408421 1_555
La3 O9 2.453220 1_555
La3 O14 2.578379 1_555
La3 O15 2.609496 1_555
La3 O13 2.638019 1_555
La3 O21 2.758974 1_565
La4 O11 2.429464 1_555
La4 O18 2.448702 1_555
La4 O19 2.448702 1_555
La4 O12 2.550166 1_555
La4 O13 2.550166 1_555
La4 O16 2.588382 1_555
La4 O22 2.727313 1_565
La5 O20 2.397141 1_655
La5 O19 2.408421 1_555
La5 O10 2.453220 1_555
La5 O14 2.578379 1_655
La5 O17 2.609496 1_555
La5 O12 2.638019 1_555
La5 O23 2.758974 1_565
La6 O15 2.386230 1_555
La6 O16 2.414450 1_555
La6 O25 2.434511 1_555
La6 O21 2.457488 1_555
La6 O13 2.582349 1_545
La6 O18 2.617947 1_555
La6 O22 2.619892 1_555
La7 O17 2.386230 1_555
La7 O16 2.414450 1_555
La7 O26 2.434511 1_555
La7 O23 2.457488 1_555
La7 O12 2.582349 1_545
La7 O19 2.617947 1_555
La7 O22 2.619892 1_555
La8 O17 2.447389 1_455
La8 O15 2.447389 1_555
La8 O14 2.496237 1_545
La8 O24 2.543800 1_555
La8 O20 2.568769 1_555
La8 O21 2.575095 1_555
La8 O23 2.575095 1_455
La9 O21 2.427254 1_555
La9 O25 2.432366 1_555
La9 O24 2.467735 1_555
La9 O27 2.497545 1_545
La9 O29 2.552509 1_545
La9 O33 2.738834 1_555
La9 O35 2.811969 1_555
La10 O26 2.408140 1_555
La10 O25 2.408140 1_555
La10 O22 2.528478 1_555
La10 O27 2.605185 1_545
La10 O28 2.605185 1_545
La10 O33 2.681559 1_555
La10 O34 2.681559 1_555
La11 O23 2.427254 1_555
La11 O26 2.432366 1_555
La11 O24 2.467735 1_655
La11 O28 2.497545 1_545
La11 O29 2.552509 1_645
La11 O34 2.738834 1_555
La11 O35 2.811969 1_655
La12 O32 2.379109 1_555
La12 O2 2.466462 1_556
La12 O1 2.491176 1_556
La12 O3 2.514909 1_556
La12 O31 2.545392 1_555
La12 O27 2.586523 1_555
La12 O33 2.665565 1_565
La13 O32 2.379109 1_555
La13 O2 2.466462 1_556
La13 O0 2.491176 1_556
La13 O4 2.514909 1_556
La13 O30 2.545392 1_555
La13 O28 2.586523 1_555
La13 O34 2.665565 1_565
La14 O1 2.414746 1_556
La14 O0 2.414746 1_456
La14 O31 2.456971 1_555
La14 O30 2.456971 1_455
La14 O29 2.469160 1_555
La14 O5 2.612758 1_556
La14 O35 2.660957 1_565
O0 Sr2 2.744579 1_555
O0 Sr0 2.765847 1_655
O1 Sr1 2.744579 1_555
O1 Sr0 2.765847 1_555
O2 Sr1 2.779651 1_555
O2 Sr2 2.779651 1_555
O3 Sr5 2.536832 1_555
O4 Sr4 2.536832 1_555
O5 Sr3 2.512229 1_555
O6 Sr5 2.522870 1_555
O6 Sr3 2.533823 1_555
O6 Sr1 2.575630 1_545
O6 Sr0 2.578983 1_545
O7 Sr4 2.522870 1_555
O7 Sr3 2.533823 1_655
O7 Sr2 2.575630 1_545
O7 Sr0 2.578983 1_645
O8 Sr5 2.534413 1_555
O8 Sr4 2.534413 1_555
O8 Sr2 2.582438 1_545
O8 Sr1 2.582438 1_545
O9 Sr0 2.547969 1_555
O9 Sr1 2.558300 1_555
O9 Sr3 2.588382 1_555
O9 Sr5 2.589232 1_555
O10 Sr0 2.547969 1_655
O10 Sr2 2.558300 1_555
O10 Sr3 2.588382 1_655
O10 Sr4 2.589232 1_555
O11 Sr1 2.546130 1_555
O11 Sr2 2.546130 1_555
O11 Sr4 2.585745 1_555
O11 Sr5 2.585745 1_555
O12 Sr2 2.587561 1_555
O13 Sr1 2.587561 1_555
O14 Sr0 2.594202 1_555
O15 Sr3 2.797981 1_555
O15 Sr5 2.802400 1_555
O16 Sr5 2.775299 1_555
O16 Sr4 2.775299 1_555
O17 Sr3 2.797981 1_655
O17 Sr4 2.802400 1_555
O18 Sr6 2.797565 1_555
O18 Sr7 2.853526 1_555
O19 Sr8 2.797565 1_555
O19 Sr7 2.853526 1_555
O20 Sr8 2.759418 1_455
O20 Sr6 2.759418 1_555
O24 Sr6 2.655814 1_555
O24 Sr8 2.655814 1_455
O25 Sr7 2.641967 1_555
O25 Sr6 2.784110 1_555
O26 Sr7 2.641967 1_555
O26 Sr8 2.784110 1_555
O27 Sr7 2.569677 1_555
O27 Sr6 2.574409 1_555
O28 Sr7 2.569677 1_555
O28 Sr8 2.574409 1_555
O29 Sr8 2.559109 1_455
O29 Sr6 2.559109 1_555
O30 Sr8 2.562283 1_555
O31 Sr6 2.562283 1_555
O32 Sr7 2.491817 1_555
