# generated using pymatgen
data_LiMn2(BO3)2
_symmetry_space_group_name_H-M   'P 1'
_cell_length_a   5.28782300
_cell_length_b   5.77864535
_cell_length_c   22.10295574
_cell_angle_alpha   89.30754969
_cell_angle_beta   89.32095401
_cell_angle_gamma   66.29310921
_symmetry_Int_Tables_number   1
_chemical_formula_structural   LiMn2(BO3)2
_chemical_formula_sum   'Li5 Mn10 B10 O30'
_cell_volume   618.33162922
_cell_formula_units_Z   5
loop_
 _symmetry_equiv_pos_site_id
 _symmetry_equiv_pos_as_xyz
  1  'x, y, z'
loop_
 _atom_site_type_symbol
 _atom_site_label
 _atom_site_symmetry_multiplicity
 _atom_site_fract_x
 _atom_site_fract_y
 _atom_site_fract_z
 _atom_site_occupancy
  Li  Li0  1  0.38420500  0.05194700  0.38763400  1
  Li  Li1  1  0.02112700  0.14644600  0.81215500  1
  Li  Li2  1  0.98571700  0.85109400  0.18837100  1
  Li  Li3  1  0.57959600  0.65272000  0.98847100  1
  Li  Li4  1  0.61734300  0.94735300  0.61265100  1
  Mn  Mn0  1  0.52173600  0.13317400  0.87881200  1
  Mn  Mn1  1  0.27207400  0.27751400  0.52354000  1
  Mn  Mn2  1  0.87755700  0.06615300  0.32225000  1
  Mn  Mn3  1  0.32855900  0.52368900  0.27886100  1
  Mn  Mn4  1  0.92893600  0.32257300  0.07764000  1
  Mn  Mn5  1  0.07519600  0.66832700  0.92117700  1
  Mn  Mn6  1  0.67229100  0.47767800  0.72304200  1
  Mn  Mn7  1  0.12321400  0.93459700  0.67827300  1
  Mn  Mn8  1  0.72438400  0.72364400  0.47720700  1
  Mn  Mn9  1  0.47806500  0.86725000  0.12295500  1
  B  B0  1  0.57621700  0.00073000  0.74780400  1
  B  B1  1  0.22365800  0.39809200  0.65434200  1
  B  B2  1  0.82579800  0.19422900  0.45067700  1
  B  B3  1  0.37656400  0.40302300  0.14595400  1
  B  B4  1  0.97162800  0.20423500  0.94444800  1
  B  B5  1  0.02384000  0.79965000  0.05245200  1
  B  B6  1  0.62767400  0.59697000  0.85636300  1
  B  B7  1  0.17370800  0.80598000  0.54961700  1
  B  B8  1  0.77526300  0.60271800  0.34608700  1
  B  B9  1  0.42398300  0.99762400  0.25218400  1
  O  O0  1  0.00383400  0.12242300  0.40194900  1
  O  O1  1  0.40298100  0.05743900  0.79604200  1
  O  O2  1  0.47980200  0.12137200  0.30175000  1
  O  O3  1  0.02711500  0.30102600  0.66822500  1
  O  O4  1  0.60690100  0.11886400  0.45766100  1
  O  O5  1  0.17432300  0.29597700  0.93262400  1
  O  O6  1  0.80126900  0.06833900  0.74337100  1
  O  O7  1  0.35185100  0.22749800  0.10508600  1
  O  O8  1  0.94575900  0.04255500  0.89865800  1
  O  O9  1  0.40154200  0.31346100  0.60629900  1
  O  O10  1  0.20305000  0.48781400  0.19356300  1
  O  O11  1  0.79621500  0.28469500  0.99154900  1
  O  O12  1  0.25117100  0.57144600  0.69490800  1
  O  O13  1  0.87635000  0.33799100  0.49503200  1
  O  O14  1  0.41923800  0.51521600  0.86708000  1
  O  O15  1  0.57346600  0.50089500  0.13130600  1
  O  O16  1  0.13002200  0.65574600  0.50539400  1
  O  O17  1  0.75063700  0.42789100  0.30524100  1
  O  O18  1  0.19582200  0.74231300  0.00341800  1
  O  O19  1  0.80346400  0.51428600  0.80882000  1
  O  O20  1  0.59737300  0.68727600  0.39307000  1
  O  O21  1  0.07796200  0.92402200  0.10232000  1
  O  O22  1  0.66420700  0.74928300  0.90250600  1
  O  O23  1  0.19669100  0.93535100  0.25641500  1
  O  O24  1  0.79934300  0.73222900  0.05716400  1
  O  O25  1  0.39088900  0.88699600  0.54195000  1
  O  O26  1  0.97307600  0.69989200  0.33240500  1
  O  O27  1  0.52447300  0.87610900  0.69751700  1
  O  O28  1  0.60228300  0.93147200  0.20390600  1
  O  O29  1  0.99707200  0.87748500  0.59805900  1
loop_
_geom_bond_atom_site_label_1
_geom_bond_atom_site_label_2
_geom_bond_distance
_geom_bond_site_symmetry_2
Li0 O0 1.908086 1_555
Li0 O20 1.952633 1_545
Li0 O2 2.035167 1_555
Li0 O4 2.087041 1_555
Li1 O1 1.902822 1_555
Li1 O19 1.969606 1_455
Li1 O8 2.078815 1_455
Li1 O6 2.084973 1_455
Li2 O28 1.916927 1_555
Li2 O10 1.948885 1_655
Li2 O21 2.038869 1_655
Li2 O23 2.058589 1_655
Li3 O18 1.907557 1_556
Li3 O11 1.969514 1_555
Li3 O22 2.068048 1_555
Li3 O24 2.086761 1_556
Li4 O29 1.906505 1_555
Li4 O9 1.962910 1_565
Li4 O27 2.012787 1_555
Li4 O25 2.095455 1_555
Mn0 O1 2.049479 1_555
Mn0 O5 2.063992 1_555
Mn0 O14 2.064511 1_555
Mn0 O22 2.097711 1_545
Mn0 O8 2.137181 1_555
Mn1 O9 2.002771 1_555
Mn1 O16 2.041574 1_555
Mn1 O13 2.082234 1_455
Mn1 O25 2.120526 1_545
Mn1 O4 2.182066 1_555
Mn2 O17 1.954541 1_555
Mn2 O0 1.967508 1_655
Mn2 O26 1.979047 1_545
Mn2 O2 2.051889 1_555
Mn2 O23 2.116417 1_645
Mn3 O10 2.046380 1_555
Mn3 O26 2.099552 1_455
Mn3 O17 2.158061 1_555
Mn3 O2 2.187816 1_555
Mn3 O23 2.244353 1_555
Mn4 O11 2.080044 1_554
Mn4 O15 2.102662 1_555
Mn4 O7 2.169568 1_655
Mn4 O21 2.177888 1_645
Mn4 O24 2.226060 1_555
Mn5 O5 2.012849 1_555
Mn5 O18 2.039480 1_556
Mn5 O8 2.045631 1_465
Mn5 O14 2.049839 1_555
Mn5 O22 2.076340 1_455
Mn6 O19 2.068654 1_555
Mn6 O3 2.113354 1_655
Mn6 O12 2.166425 1_555
Mn6 O27 2.182247 1_555
Mn6 O6 2.224097 1_555
Mn7 O12 1.960173 1_555
Mn7 O29 1.978997 1_455
Mn7 O3 1.979211 1_565
Mn7 O27 2.058737 1_555
Mn7 O6 2.115794 1_465
Mn8 O20 2.026369 1_555
Mn8 O13 2.076937 1_555
Mn8 O16 2.119411 1_655
Mn8 O4 2.151772 1_565
Mn8 O25 2.164007 1_555
Mn9 O7 1.950449 1_565
Mn9 O15 1.975952 1_555
Mn9 O28 2.002631 1_555
Mn9 O21 2.062246 1_555
Mn9 O24 2.124271 1_555
B0 O1 1.351746 1_555
B0 O6 1.395920 1_555
B0 O27 1.419112 1_545
B1 O9 1.367672 1_555
B1 O3 1.394966 1_555
B1 O12 1.403783 1_555
B2 O0 1.375175 1_655
B2 O13 1.388237 1_555
B2 O4 1.397414 1_555
B3 O10 1.348080 1_555
B3 O15 1.403512 1_555
B3 O7 1.411863 1_555
B4 O11 1.342530 1_555
B4 O5 1.394656 1_655
B4 O8 1.429983 1_555
B5 O18 1.361781 1_555
B5 O24 1.392779 1_455
B5 O21 1.416109 1_555
B6 O19 1.352206 1_555
B6 O14 1.379815 1_555
B6 O22 1.419607 1_555
B7 O29 1.366090 1_455
B7 O16 1.396279 1_555
B7 O25 1.411577 1_555
B8 O20 1.349631 1_555
B8 O26 1.400570 1_555
B8 O17 1.408291 1_555
B9 O28 1.367447 1_555
B9 O23 1.388185 1_555
B9 O2 1.412461 1_565
