# generated using pymatgen
data_Ba2Tl(HO)7
_symmetry_space_group_name_H-M   'P 1'
_cell_length_a   6.87323113
_cell_length_b   6.87323113
_cell_length_c   10.65964890
_cell_angle_alpha   82.38881330
_cell_angle_beta   82.38881330
_cell_angle_gamma   57.56411436
_symmetry_Int_Tables_number   1
_chemical_formula_structural   Ba2Tl(HO)7
_chemical_formula_sum   'Ba4 Tl2 H14 O14'
_cell_volume   420.13289482
_cell_formula_units_Z   2
loop_
 _symmetry_equiv_pos_site_id
 _symmetry_equiv_pos_as_xyz
  1  'x, y, z'
loop_
 _atom_site_type_symbol
 _atom_site_label
 _atom_site_symmetry_multiplicity
 _atom_site_fract_x
 _atom_site_fract_y
 _atom_site_fract_z
 _atom_site_occupancy
  Ba  Ba0  1  0.56857200  0.19241700  0.12890700  1
  Ba  Ba1  1  0.19241700  0.56857200  0.62890700  1
  Ba  Ba2  1  0.80758300  0.43142800  0.37109300  1
  Ba  Ba3  1  0.43142800  0.80758300  0.87109300  1
  Tl  Tl0  1  0.00000000  0.50000000  0.00000000  1
  Tl  Tl1  1  0.50000000  0.00000000  0.50000000  1
  H  H0  1  0.90759800  0.87896400  0.38186000  1
  H  H1  1  0.31437200  0.42923500  0.35174800  1
  H  H2  1  0.03192300  0.68198900  0.20480200  1
  H  H3  1  0.87896400  0.90759800  0.88186000  1
  H  H4  1  0.42923500  0.31437200  0.85174800  1
  H  H5  1  0.68198900  0.03192300  0.70480200  1
  H  H6  1  0.31801100  0.96807700  0.29519800  1
  H  H7  1  0.57076500  0.68562800  0.14825200  1
  H  H8  1  0.12103600  0.09240200  0.11814000  1
  H  H9  1  0.96807700  0.31801100  0.79519800  1
  H  H10  1  0.68562800  0.57076500  0.64825200  1
  H  H11  1  0.09240200  0.12103600  0.61814000  1
  H  H12  1  0.12989100  0.87010900  0.25000000  1
  H  H13  1  0.87010900  0.12989100  0.75000000  1
  O  O0  1  0.45534100  0.35264700  0.39776800  1
  O  O1  1  0.87703900  0.78780800  0.45457000  1
  O  O2  1  0.35264700  0.45534100  0.89776800  1
  O  O3  1  0.10207700  0.51656200  0.19736400  1
  O  O4  1  0.78780800  0.87703900  0.95457000  1
  O  O5  1  0.51656200  0.10207700  0.69736400  1
  O  O6  1  0.48343800  0.89792300  0.30263600  1
  O  O7  1  0.21219200  0.12296100  0.04543000  1
  O  O8  1  0.89792300  0.48343800  0.80263600  1
  O  O9  1  0.64735300  0.54465900  0.10223200  1
  O  O10  1  0.12296100  0.21219200  0.54543000  1
  O  O11  1  0.54465900  0.64735300  0.60223200  1
  O  O12  1  0.98315600  0.01684400  0.25000000  1
  O  O13  1  0.01684400  0.98315600  0.75000000  1
loop_
_geom_bond_atom_site_label_1
_geom_bond_atom_site_label_2
_geom_bond_distance
_geom_bond_site_symmetry_2
Ba0 O4 2.691538 1_544
Ba0 O9 2.723713 1_555
Ba0 O6 2.803477 1_545
Ba0 O3 2.815083 1_555
Ba0 O12 2.848734 1_555
Ba0 H1 2.866838 1_555
Ba0 O2 2.907076 1_554
Ba0 O7 2.993987 1_555
Ba0 O0 3.059105 1_555
Ba1 O1 2.691538 1_455
Ba1 O11 2.723713 1_555
Ba1 O8 2.803477 1_455
Ba1 O5 2.815083 1_555
Ba1 O13 2.848734 1_555
Ba1 H4 2.866838 1_555
Ba1 O0 2.907076 1_555
Ba1 O10 2.993987 1_555
Ba1 O2 3.059105 1_555
Ba2 O10 2.691538 1_655
Ba2 O0 2.723713 1_555
Ba2 O3 2.803477 1_655
Ba2 O6 2.815083 1_555
Ba2 O12 2.848734 1_555
Ba2 H7 2.866838 1_555
Ba2 O11 2.907076 1_555
Ba2 O1 2.993987 1_555
Ba2 O9 3.059105 1_555
Ba3 O7 2.691538 1_566
Ba3 O2 2.723713 1_555
Ba3 O5 2.803477 1_565
Ba3 O8 2.815083 1_555
Ba3 O13 2.848734 1_555
Ba3 H10 2.866838 1_555
Ba3 O9 2.907076 1_556
Ba3 O4 2.993987 1_555
Ba3 O11 3.059105 1_555
H0 O1 1.003390 1_555
H1 O0 0.983319 1_555
H2 O3 0.978384 1_555
H3 O4 1.003390 1_555
H4 O2 0.983319 1_555
H5 O5 0.978384 1_555
H6 O6 0.978384 1_555
H7 O9 0.983319 1_555
H8 O7 1.003390 1_555
H9 O8 0.978384 1_555
H10 O11 0.983319 1_555
H11 O10 1.003390 1_555
H12 O12 0.971186 1_465
H13 O13 0.971186 1_645
O0 Tl1 2.397401 1_555
O1 Tl1 2.208538 1_565
O2 Tl0 2.397401 1_556
O3 Tl0 2.339107 1_555
O4 Tl0 2.208538 1_656
O5 Tl1 2.339107 1_555
O6 Tl1 2.339107 1_565
O7 Tl0 2.208538 1_555
O8 Tl0 2.339107 1_656
O9 Tl0 2.397401 1_655
O10 Tl1 2.208538 1_555
O11 Tl1 2.397401 1_565
