# generated using pymatgen
data_Li3Cr2P2(CO7)2
_symmetry_space_group_name_H-M   'P 1'
_cell_length_a   5.09126000
_cell_length_b   6.38192564
_cell_length_c   8.30207122
_cell_angle_alpha   90.17449169
_cell_angle_beta   95.16965374
_cell_angle_gamma   90.32176676
_symmetry_Int_Tables_number   1
_chemical_formula_structural   Li3Cr2P2(CO7)2
_chemical_formula_sum   'Li3 Cr2 P2 C2 O14'
_cell_volume   268.64803083
_cell_formula_units_Z   1
loop_
 _symmetry_equiv_pos_site_id
 _symmetry_equiv_pos_as_xyz
  1  'x, y, z'
loop_
 _atom_site_type_symbol
 _atom_site_label
 _atom_site_symmetry_multiplicity
 _atom_site_fract_x
 _atom_site_fract_y
 _atom_site_fract_z
 _atom_site_occupancy
  Li  Li0  1  0.24916700  0.54407100  0.72394400  1
  Li  Li1  1  0.74549200  0.03002700  0.27286500  1
  Li  Li2  1  0.23159700  0.25503200  0.09308200  1
  Cr  Cr0  1  0.79698100  0.24538600  0.67653800  1
  Cr  Cr1  1  0.20162100  0.74204700  0.32438900  1
  P  P0  1  0.72826300  0.74811400  0.58366500  1
  P  P1  1  0.27724900  0.24841200  0.42138900  1
  C  C0  1  0.69575400  0.24949200  0.95676200  1
  C  C1  1  0.29789800  0.74943800  0.04517700  1
  O  O0  1  0.35859600  0.72317100  0.90553000  1
  O  O1  1  0.94069900  0.24674900  0.91905000  1
  O  O2  1  0.52236100  0.27215700  0.83116800  1
  O  O3  1  0.79636800  0.94164900  0.68742900  1
  O  O4  1  0.83354000  0.55707700  0.68080500  1
  O  O5  1  0.14136500  0.26799800  0.57679600  1
  O  O6  1  0.42630300  0.72372600  0.53720600  1
  O  O7  1  0.57846700  0.22461500  0.46102000  1
  O  O8  1  0.86704200  0.76802200  0.42252700  1
  O  O9  1  0.17084400  0.06271000  0.31055600  1
  O  O10  1  0.21513400  0.43810000  0.30488200  1
  O  O11  1  0.47709200  0.77817100  0.17317400  1
  O  O12  1  0.05829000  0.74469700  0.09157900  1
  O  O13  1  0.62696000  0.22745100  0.09790700  1
loop_
_geom_bond_atom_site_label_1
_geom_bond_atom_site_label_2
_geom_bond_distance
_geom_bond_site_symmetry_2
Li0 O0 1.928865 1_555
Li0 O4 2.116239 1_455
Li0 O5 2.180145 1_555
Li0 O6 2.186900 1_555
Li0 O2 2.356228 1_555
Li1 O13 1.980698 1_555
Li1 O8 2.146719 1_545
Li1 O9 2.168769 1_655
Li1 O11 2.213416 1_545
Li1 O7 2.223694 1_555
Li2 O1 1.974037 1_454
Li2 O13 2.018373 1_555
Li2 O10 2.116378 1_555
Li2 O9 2.229752 1_555
Cr0 O3 1.940808 1_545
Cr0 O2 1.989187 1_555
Cr0 O4 1.996746 1_555
Cr0 O5 2.010044 1_655
Cr0 O7 2.023570 1_555
Cr0 O1 2.079277 1_555
Cr1 O10 1.948140 1_555
Cr1 O8 1.960975 1_455
Cr1 O11 1.977774 1_555
Cr1 O12 2.003671 1_555
Cr1 O6 2.020497 1_555
Cr1 O9 2.056083 1_565
C0 O13 1.260943 1_556
C0 O2 1.312980 1_555
C0 O1 1.313054 1_555
C1 O0 1.237610 1_554
C1 O12 1.312188 1_555
C1 O11 1.348106 1_555
O3 P0 1.524058 1_555
O4 P0 1.536070 1_555
O5 P1 1.523056 1_555
O6 P0 1.557738 1_555
O7 P1 1.547635 1_555
O8 P0 1.573336 1_555
O9 P1 1.562372 1_555
O10 P1 1.567603 1_555
