# generated using pymatgen
data_LiV(CO3)2
_symmetry_space_group_name_H-M   'P 1'
_cell_length_a   7.70755100
_cell_length_b   7.95652732
_cell_length_c   8.52834863
_cell_angle_alpha   100.69480303
_cell_angle_beta   103.09794193
_cell_angle_gamma   105.15015597
_symmetry_Int_Tables_number   1
_chemical_formula_structural   LiV(CO3)2
_chemical_formula_sum   'Li4 V4 C8 O24'
_cell_volume   474.73093841
_cell_formula_units_Z   4
loop_
 _symmetry_equiv_pos_site_id
 _symmetry_equiv_pos_as_xyz
  1  'x, y, z'
loop_
 _atom_site_type_symbol
 _atom_site_label
 _atom_site_symmetry_multiplicity
 _atom_site_fract_x
 _atom_site_fract_y
 _atom_site_fract_z
 _atom_site_occupancy
  Li  Li0  1  0.70111600  0.66625100  0.50541300  1
  Li  Li1  1  0.01874600  0.21709200  0.84142900  1
  Li  Li2  1  0.98125400  0.78290800  0.15857100  1
  Li  Li3  1  0.29888400  0.33374900  0.49458700  1
  V  V0  1  0.26076600  0.72077500  0.44430500  1
  V  V1  1  0.52994400  0.79291200  0.95510100  1
  V  V2  1  0.47005600  0.20708800  0.04489900  1
  V  V3  1  0.73923400  0.27922500  0.55569500  1
  C  C0  1  0.26192400  0.99242000  0.75800800  1
  C  C1  1  0.68048000  0.94122300  0.70458000  1
  C  C2  1  0.15625600  0.53068900  0.72983200  1
  C  C3  1  0.37732600  0.53851700  0.23004300  1
  C  C4  1  0.62267400  0.46148300  0.76995700  1
  C  C5  1  0.84374400  0.46931100  0.27016800  1
  C  C6  1  0.31952000  0.05877700  0.29542000  1
  C  C7  1  0.73807600  0.00758000  0.24199200  1
  O  O0  1  0.21201200  0.92057700  0.32409500  1
  O  O1  1  0.16805900  0.88246700  0.61863800  1
  O  O2  1  0.41383900  0.97770000  0.85498100  1
  O  O3  1  0.54340300  0.82414300  0.58400500  1
  O  O4  1  0.39340000  0.70574700  0.23978300  1
  O  O5  1  0.77367400  0.86335800  0.17612900  1
  O  O6  1  0.72643800  0.91591400  0.85170800  1
  O  O7  1  0.99311600  0.59078800  0.26988800  1
  O  O8  1  0.20407800  0.52927800  0.59301000  1
  O  O9  1  0.25678900  0.64538600  0.86860700  1
  O  O10  1  0.31270800  0.47947500  0.34504900  1
  O  O11  1  0.42358100  0.44309400  0.11950800  1
  O  O12  1  0.57641900  0.55690600  0.88049200  1
  O  O13  1  0.68729200  0.52052500  0.65495100  1
  O  O14  1  0.74321100  0.35461400  0.13139300  1
  O  O15  1  0.79592200  0.47072200  0.40699000  1
  O  O16  1  0.00688400  0.40921200  0.73011200  1
  O  O17  1  0.27356200  0.08408600  0.14829200  1
  O  O18  1  0.22632600  0.13664200  0.82387100  1
  O  O19  1  0.60660000  0.29425300  0.76021700  1
  O  O20  1  0.45659700  0.17585700  0.41599500  1
  O  O21  1  0.58616100  0.02230000  0.14501900  1
  O  O22  1  0.83194100  0.11753300  0.38136200  1
  O  O23  1  0.78798800  0.07942300  0.67590500  1
loop_
_geom_bond_atom_site_label_1
_geom_bond_atom_site_label_2
_geom_bond_distance
_geom_bond_site_symmetry_2
Li0 O13 1.878294 1_555
Li0 O15 2.011554 1_555
Li0 O3 2.088078 1_555
Li1 O18 1.897434 1_555
Li1 O23 1.904140 1_455
Li1 O16 1.954122 1_555
Li2 O5 1.897434 1_555
Li2 O0 1.904140 1_655
Li2 O7 1.954122 1_555
Li3 O10 1.878294 1_555
Li3 O8 2.011554 1_555
Li3 O20 2.088078 1_555
C0 O1 1.262938 1_555
C0 O18 1.304895 1_565
C0 O2 1.318109 1_555
C1 O6 1.292310 1_555
C1 O23 1.292640 1_565
C1 O3 1.295786 1_555
C2 O9 1.283675 1_555
C2 O16 1.296199 1_555
C2 O8 1.299921 1_555
C3 O11 1.272930 1_555
C3 O4 1.288726 1_555
C3 O10 1.304163 1_555
C4 O12 1.272930 1_555
C4 O19 1.288726 1_555
C4 O13 1.304163 1_555
C5 O14 1.283675 1_555
C5 O7 1.296199 1_555
C5 O15 1.299921 1_555
C6 O17 1.292310 1_555
C6 O0 1.292640 1_545
C6 O20 1.295786 1_555
C7 O22 1.262938 1_555
C7 O5 1.304895 1_545
C7 O21 1.318109 1_555
O0 V0 2.112348 1_555
O1 V0 2.151334 1_555
O2 V2 2.076923 1_566
O2 V1 2.121073 1_555
O3 V0 2.089251 1_555
O4 V0 2.212772 1_555
O5 V1 2.202031 1_554
O6 V1 2.044457 1_555
O7 V0 2.112098 1_655
O8 V0 2.177412 1_555
O9 V1 2.009348 1_555
O10 V0 2.124862 1_555
O11 V2 2.017597 1_555
O12 V1 2.017597 1_555
O13 V3 2.124862 1_555
O14 V2 2.009348 1_555
O15 V3 2.177412 1_555
O16 V3 2.112098 1_455
O17 V2 2.044457 1_555
O18 V2 2.202031 1_556
O19 V3 2.212772 1_555
O20 V3 2.089251 1_555
O21 V1 2.076923 1_544
O21 V2 2.121073 1_555
O22 V3 2.151334 1_555
O23 V3 2.112348 1_555
