# generated using pymatgen
data_Li4TiMn3O8
_symmetry_space_group_name_H-M   'P 1'
_cell_length_a   5.65087349
_cell_length_b   8.27910836
_cell_length_c   8.43391739
_cell_angle_alpha   104.08406960
_cell_angle_beta   91.88114189
_cell_angle_gamma   89.20773689
_symmetry_Int_Tables_number   1
_chemical_formula_structural   Li4TiMn3O8
_chemical_formula_sum   'Li8 Ti2 Mn6 O16'
_cell_volume   382.49982573
_cell_formula_units_Z   2
loop_
 _symmetry_equiv_pos_site_id
 _symmetry_equiv_pos_as_xyz
  1  'x, y, z'
loop_
 _atom_site_type_symbol
 _atom_site_label
 _atom_site_symmetry_multiplicity
 _atom_site_fract_x
 _atom_site_fract_y
 _atom_site_fract_z
 _atom_site_occupancy
  Li  Li0  1  0.08078300  0.80930100  0.18416100  1
  Li  Li1  1  0.08078500  0.30929800  0.68415000  1
  Li  Li2  1  0.41811600  0.30910700  0.18642600  1
  Li  Li3  1  0.41809800  0.80908000  0.68642800  1
  Li  Li4  1  0.58938700  0.93676500  0.06284200  1
  Li  Li5  1  0.58935200  0.43676800  0.56284700  1
  Li  Li6  1  0.91154200  0.43479800  0.05685700  1
  Li  Li7  1  0.91157600  0.93480900  0.55685300  1
  Ti  Ti0  1  0.91456100  0.68865100  0.81296300  1
  Ti  Ti1  1  0.91459500  0.18864800  0.31295000  1
  Mn  Mn0  1  0.08417700  0.06567100  0.93156700  1
  Mn  Mn1  1  0.41921500  0.55799600  0.93403600  1
  Mn  Mn2  1  0.58765700  0.18378600  0.81246600  1
  Mn  Mn3  1  0.08406300  0.56569700  0.43157200  1
  Mn  Mn4  1  0.41925700  0.05804000  0.43399900  1
  Mn  Mn5  1  0.58758200  0.68389400  0.31251400  1
  O  O0  1  0.06900500  0.25160600  0.14731600  1
  O  O1  1  0.06896600  0.75161800  0.64732400  1
  O  O2  1  0.06669400  0.51324700  0.87266900  1
  O  O3  1  0.06672500  0.01325600  0.37266500  1
  O  O4  1  0.42851900  0.52113000  0.37932100  1
  O  O5  1  0.42862000  0.02103200  0.87931100  1
  O  O6  1  0.44033900  0.75122800  0.14140300  1
  O  O7  1  0.44039200  0.25118700  0.64140200  1
  O  O8  1  0.57027600  0.35455800  0.99571800  1
  O  O9  1  0.57024900  0.85464000  0.49578900  1
  O  O10  1  0.60483000  0.63314200  0.75791100  1
  O  O11  1  0.60487300  0.13316000  0.25786800  1
  O  O12  1  0.89193300  0.63418400  0.24623600  1
  O  O13  1  0.89205600  0.13415400  0.74621600  1
  O  O14  1  0.92290100  0.86797600  0.99131200  1
  O  O15  1  0.92288000  0.36797400  0.49130600  1
loop_
_geom_bond_atom_site_label_1
_geom_bond_atom_site_label_2
_geom_bond_distance
_geom_bond_site_symmetry_2
Li0 O14 1.988629 1_454
Li0 O12 1.990922 1_455
Li0 O3 2.020684 1_565
Li0 O6 2.103841 1_555
Li1 O15 1.988650 1_455
Li1 O13 1.990687 1_455
Li1 O2 2.020736 1_555
Li1 O7 2.104162 1_555
Li2 O8 1.965254 1_554
Li2 O11 1.985354 1_555
Li2 O0 2.033255 1_555
Li2 O4 2.082821 1_555
Li3 O9 1.965077 1_555
Li3 O10 1.985383 1_555
Li3 O1 2.033299 1_555
Li3 O5 2.082389 1_565
Li4 O11 2.012407 1_565
Li4 O6 2.018835 1_555
Li4 O14 2.029267 1_554
Li4 O5 2.030695 1_564
Li5 O10 2.012498 1_555
Li5 O7 2.018899 1_555
Li5 O15 2.029373 1_555
Li5 O4 2.031227 1_555
Li6 O12 2.002911 1_555
Li6 O0 2.038465 1_655
Li6 O2 2.049353 1_654
Li6 O8 2.056588 1_554
Li7 O13 2.002581 1_565
Li7 O1 2.038343 1_655
Li7 O3 2.049337 1_665
Li7 O9 2.056659 1_555
Mn0 O5 2.019025 1_555
Mn0 O14 2.058193 1_445
Mn0 O13 2.060759 1_455
Mn0 O0 2.081189 1_556
Mn1 O8 2.047840 1_555
Mn1 O2 2.057376 1_555
Mn1 O6 2.064496 1_556
Mn1 O10 2.064901 1_555
Mn2 O8 1.827540 1_555
Mn2 O13 1.836211 1_555
Mn2 O5 1.837824 1_555
Mn2 O7 1.839989 1_555
Mn3 O4 2.019018 1_555
Mn3 O15 2.058108 1_455
Mn3 O12 2.060697 1_455
Mn3 O1 2.081120 1_555
Mn4 O9 2.047810 1_545
Mn4 O3 2.057426 1_555
Mn4 O7 2.064298 1_555
Mn4 O11 2.064841 1_555
Mn5 O9 1.827526 1_555
Mn5 O12 1.836109 1_555
Mn5 O4 1.837806 1_555
Mn5 O6 1.840000 1_555
O0 Ti1 1.852421 1_455
O1 Ti0 1.852477 1_455
O2 Ti0 1.842397 1_455
O3 Ti1 1.842340 1_455
O10 Ti0 1.831720 1_555
O11 Ti1 1.831677 1_555
O14 Ti0 1.838309 1_555
O15 Ti1 1.838348 1_555
