# generated using pymatgen
data_Fe6O5F7
_symmetry_space_group_name_H-M   'P 1'
_cell_length_a   5.72377900
_cell_length_b   5.72996781
_cell_length_c   7.58883884
_cell_angle_alpha   70.58339522
_cell_angle_beta   70.44856705
_cell_angle_gamma   70.34124626
_symmetry_Int_Tables_number   1
_chemical_formula_structural   Fe6O5F7
_chemical_formula_sum   'Fe6 O5 F7'
_cell_volume   213.98476068
_cell_formula_units_Z   1
loop_
 _symmetry_equiv_pos_site_id
 _symmetry_equiv_pos_as_xyz
  1  'x, y, z'
loop_
 _atom_site_type_symbol
 _atom_site_label
 _atom_site_symmetry_multiplicity
 _atom_site_fract_x
 _atom_site_fract_y
 _atom_site_fract_z
 _atom_site_occupancy
  Fe  Fe0  1  0.64701300  0.67096300  0.83834900  1
  Fe  Fe1  1  0.35042200  0.31646600  0.65593300  1
  Fe  Fe2  1  0.67224500  0.62702700  0.33255400  1
  Fe  Fe3  1  0.33972300  0.36760700  0.17115500  1
  Fe  Fe4  1  0.97511200  0.01560400  0.50031700  1
  Fe  Fe5  1  0.99434600  0.01724900  0.99950200  1
  O  O0  1  0.44416300  0.43574900  0.36376500  1
  O  O1  1  0.98216400  0.35538900  0.33156200  1
  O  O2  1  0.65177100  0.00761400  0.67195600  1
  O  O3  1  0.29165600  0.71492600  0.99733800  1
  O  O4  1  0.69822100  0.30992200  0.99632200  1
  F  F0  1  0.03333900  0.63567200  0.66707900  1
  F  F1  1  0.36594400  0.95616400  0.33872400  1
  F  F2  1  0.89294200  0.89558200  0.29752200  1
  F  F3  1  0.22727100  0.23466700  0.96658500  1
  F  F4  1  0.57873900  0.57421900  0.62427400  1
  F  F5  1  0.76591500  0.77485400  0.04251000  1
  F  F6  1  0.08901100  0.09032800  0.70455300  1
loop_
_geom_bond_atom_site_label_1
_geom_bond_atom_site_label_2
_geom_bond_distance
_geom_bond_site_symmetry_2
Fe0 O2 1.925904 1_565
Fe0 O3 1.967510 1_555
Fe0 O4 1.995274 1_555
Fe1 O2 2.016251 1_555
Fe1 O0 2.028306 1_555
Fe2 O0 1.882770 1_555
Fe2 O1 1.926279 1_555
Fe3 O0 1.941046 1_555
Fe3 O3 1.976204 1_554
Fe3 O1 2.011850 1_455
Fe3 O4 2.023164 1_554
Fe4 O2 1.878248 1_555
Fe4 O1 1.947525 1_555
Fe5 O4 1.942620 1_555
Fe5 O3 1.978330 1_645
F0 Fe1 2.100728 1_555
F0 Fe4 2.101031 1_465
F0 Fe0 2.137778 1_455
F1 Fe2 2.100421 1_555
F1 Fe4 2.133801 1_465
F1 Fe3 2.257010 1_565
F2 Fe5 2.069595 1_564
F2 Fe4 2.113858 1_565
F2 Fe2 2.201243 1_555
F3 Fe5 2.019795 1_455
F3 Fe1 2.156318 1_555
F3 Fe3 2.278062 1_556
F4 Fe2 2.037043 1_555
F4 Fe0 2.066084 1_555
F4 Fe1 2.190751 1_555
F5 Fe2 2.031224 1_555
F5 Fe5 2.092841 1_564
F5 Fe0 2.193072 1_554
F6 Fe5 2.048601 1_455
F6 Fe4 2.077475 1_455
F6 Fe1 2.161260 1_555
