# generated using pymatgen
data_Li2CrSiO4
_symmetry_space_group_name_H-M   'P 1'
_cell_length_a   4.74509200
_cell_length_b   7.11138000
_cell_length_c   10.64634303
_cell_angle_alpha   88.61751382
_cell_angle_beta   90.00000000
_cell_angle_gamma   90.00000000
_symmetry_Int_Tables_number   1
_chemical_formula_structural   Li2CrSiO4
_chemical_formula_sum   'Li8 Cr4 Si4 O16'
_cell_volume   359.14724700
_cell_formula_units_Z   4
loop_
 _symmetry_equiv_pos_site_id
 _symmetry_equiv_pos_as_xyz
  1  'x, y, z'
loop_
 _atom_site_type_symbol
 _atom_site_label
 _atom_site_symmetry_multiplicity
 _atom_site_fract_x
 _atom_site_fract_y
 _atom_site_fract_z
 _atom_site_occupancy
  Li  Li0  1  0.69200600  0.00021400  0.58275300  1
  Li  Li1  1  0.80799400  0.00021400  0.08275300  1
  Li  Li2  1  0.18206500  0.80986700  0.67258600  1
  Li  Li3  1  0.31793500  0.80986700  0.17258600  1
  Li  Li4  1  0.68206500  0.19013300  0.82741400  1
  Li  Li5  1  0.81793500  0.19013300  0.32741400  1
  Li  Li6  1  0.19200600  0.99978600  0.91724700  1
  Li  Li7  1  0.30799400  0.99978600  0.41724700  1
  Cr  Cr0  1  0.22031300  0.49631400  0.88558200  1
  Cr  Cr1  1  0.27968700  0.49631400  0.38558200  1
  Cr  Cr2  1  0.72031300  0.50368600  0.61441800  1
  Cr  Cr3  1  0.77968700  0.50368600  0.11441800  1
  Si  Si0  1  0.67638800  0.76693800  0.83567300  1
  Si  Si1  1  0.82361200  0.76693800  0.33567300  1
  Si  Si2  1  0.17638800  0.23306200  0.66432700  1
  Si  Si3  1  0.32361200  0.23306200  0.16432700  1
  O  O0  1  0.78723200  0.95325900  0.90414000  1
  O  O1  1  0.71276800  0.95325900  0.40414000  1
  O  O2  1  0.32703100  0.76429800  0.84424000  1
  O  O3  1  0.17296900  0.76429800  0.34424000  1
  O  O4  1  0.76791000  0.76832300  0.68426500  1
  O  O5  1  0.73209000  0.76832300  0.18426500  1
  O  O6  1  0.77294400  0.55552500  0.89719200  1
  O  O7  1  0.72705600  0.55552500  0.39719200  1
  O  O8  1  0.27294400  0.44447500  0.60280800  1
  O  O9  1  0.22705600  0.44447500  0.10280800  1
  O  O10  1  0.26791000  0.23167700  0.81573500  1
  O  O11  1  0.23209000  0.23167700  0.31573500  1
  O  O12  1  0.82703100  0.23570200  0.65576000  1
  O  O13  1  0.67296900  0.23570200  0.15576000  1
  O  O14  1  0.28723200  0.04674100  0.59586000  1
  O  O15  1  0.21276800  0.04674100  0.09586000  1
loop_
_geom_bond_atom_site_label_1
_geom_bond_atom_site_label_2
_geom_bond_distance
_geom_bond_site_symmetry_2
Li0 O1 1.941091 1_545
Li0 O14 1.954540 1_555
Li0 O12 1.970248 1_555
Li0 O4 1.982706 1_545
Li1 O0 1.941091 1_544
Li1 O15 1.954540 1_655
Li1 O13 1.970248 1_555
Li1 O5 1.982706 1_545
Li2 O14 1.920266 1_565
Li2 O2 1.972137 1_555
Li2 O4 1.990727 1_455
Li3 O15 1.920266 1_565
Li3 O3 1.972137 1_555
Li3 O5 1.990727 1_555
Li4 O0 1.920266 1_545
Li4 O12 1.972137 1_555
Li4 O10 1.990727 1_555
Li5 O1 1.920266 1_545
Li5 O13 1.972137 1_555
Li5 O11 1.990727 1_655
Li6 O15 1.941091 1_566
Li6 O0 1.954540 1_455
Li6 O2 1.970248 1_555
Li6 O10 1.982706 1_565
Li7 O14 1.941091 1_565
Li7 O1 1.954540 1_555
Li7 O3 1.970248 1_555
Li7 O11 1.982706 1_565
Cr0 O2 2.010350 1_555
Cr0 O10 2.052602 1_555
Cr0 O6 2.168271 1_455
Cr0 O9 2.333280 1_556
Cr0 O6 2.659223 1_555
Cr1 O3 2.010350 1_555
Cr1 O11 2.052602 1_555
Cr1 O7 2.168271 1_555
Cr1 O8 2.333280 1_555
Cr1 O7 2.659223 1_455
Cr2 O12 2.010350 1_555
Cr2 O4 2.052602 1_555
Cr2 O8 2.168271 1_555
Cr2 O7 2.333280 1_555
Cr2 O8 2.659223 1_655
Cr3 O13 2.010350 1_555
Cr3 O5 2.052602 1_555
Cr3 O9 2.168271 1_655
Cr3 O6 2.333280 1_554
Cr3 O9 2.659223 1_555
O0 Si0 1.615610 1_555
O1 Si1 1.615610 1_555
O2 Si0 1.660320 1_555
O3 Si1 1.660320 1_455
O4 Si0 1.669217 1_555
O5 Si1 1.669217 1_555
O6 Si0 1.688695 1_555
O7 Si1 1.688695 1_555
O8 Si2 1.688695 1_555
O9 Si3 1.688695 1_555
O10 Si2 1.669217 1_555
O11 Si3 1.669217 1_555
O12 Si2 1.660320 1_655
O13 Si3 1.660320 1_555
O14 Si2 1.615610 1_555
O15 Si3 1.615610 1_555
