# generated using pymatgen
data_Sn13(O5F3)2
_symmetry_space_group_name_H-M   'P 1'
_cell_length_a   8.35513878
_cell_length_b   8.35513878
_cell_length_c   23.03688606
_cell_angle_alpha   86.83078917
_cell_angle_beta   86.83078917
_cell_angle_gamma   50.65629917
_symmetry_Int_Tables_number   1
_chemical_formula_structural   Sn13(O5F3)2
_chemical_formula_sum   'Sn26 O20 F12'
_cell_volume   1241.35836852
_cell_formula_units_Z   2
loop_
 _symmetry_equiv_pos_site_id
 _symmetry_equiv_pos_as_xyz
  1  'x, y, z'
loop_
 _atom_site_type_symbol
 _atom_site_label
 _atom_site_symmetry_multiplicity
 _atom_site_fract_x
 _atom_site_fract_y
 _atom_site_fract_z
 _atom_site_occupancy
  Sn  Sn0  1  0.13068600  0.66508900  0.29371000  1
  Sn  Sn1  1  0.72655800  0.19166900  0.01403100  1
  Sn  Sn2  1  0.77140500  0.92941700  0.41703800  1
  Sn  Sn3  1  0.99355100  0.83614100  0.13469300  1
  Sn  Sn4  1  0.16038600  0.37625100  0.43730800  1
  Sn  Sn5  1  0.40738600  0.26437200  0.15462600  1
  Sn  Sn6  1  0.66508900  0.13068600  0.79371000  1
  Sn  Sn7  1  0.19166900  0.72655800  0.51403100  1
  Sn  Sn8  1  0.92941700  0.77140500  0.91703800  1
  Sn  Sn9  1  0.83614100  0.99355100  0.63469300  1
  Sn  Sn10  1  0.37625100  0.16038600  0.93730800  1
  Sn  Sn11  1  0.73562800  0.59261400  0.34537400  1
  Sn  Sn12  1  0.26437200  0.40738600  0.65462600  1
  Sn  Sn13  1  0.62374900  0.83961400  0.06269200  1
  Sn  Sn14  1  0.16385900  0.00644900  0.36530700  1
  Sn  Sn15  1  0.07058300  0.22859500  0.08296200  1
  Sn  Sn16  1  0.80833100  0.27344200  0.48596900  1
  Sn  Sn17  1  0.33491100  0.86931400  0.20629000  1
  Sn  Sn18  1  0.59261400  0.73562800  0.84537400  1
  Sn  Sn19  1  0.83961400  0.62374900  0.56269200  1
  Sn  Sn20  1  0.00644900  0.16385900  0.86530700  1
  Sn  Sn21  1  0.77835800  0.22164200  0.25000000  1
  Sn  Sn22  1  0.22859500  0.07058300  0.58296200  1
  Sn  Sn23  1  0.27344200  0.80833100  0.98596900  1
  Sn  Sn24  1  0.86931400  0.33491100  0.70629000  1
  Sn  Sn25  1  0.22164200  0.77835800  0.75000000  1
  O  O0  1  0.02197900  0.97086600  0.44150100  1
  O  O1  1  0.96251500  0.98407800  0.31613400  1
  O  O2  1  0.97086600  0.02197900  0.94150100  1
  O  O3  1  0.98407800  0.96251500  0.81613400  1
  O  O4  1  0.97117300  0.68137200  0.48248200  1
  O  O5  1  0.95131900  0.65485700  0.36123400  1
  O  O6  1  0.66712000  0.05612900  0.09803400  1
  O  O7  1  0.68137200  0.97117300  0.98248200  1
  O  O8  1  0.65485700  0.95131900  0.86123400  1
  O  O9  1  0.05612900  0.66712000  0.59803400  1
  O  O10  1  0.94387100  0.33288000  0.40196600  1
  O  O11  1  0.34514300  0.04868100  0.13876600  1
  O  O12  1  0.31862800  0.02882700  0.01751800  1
  O  O13  1  0.33288000  0.94387100  0.90196600  1
  O  O14  1  0.04868100  0.34514300  0.63876600  1
  O  O15  1  0.02882700  0.31862800  0.51751800  1
  O  O16  1  0.01592200  0.03748500  0.18386600  1
  O  O17  1  0.02913400  0.97802100  0.05849900  1
  O  O18  1  0.03748500  0.01592200  0.68386600  1
  O  O19  1  0.97802100  0.02913400  0.55849900  1
  F  F0  1  0.33607400  0.59026800  0.35857200  1
  F  F1  1  0.59026800  0.33607400  0.85857200  1
  F  F2  1  0.69756900  0.01515400  0.22395200  1
  F  F3  1  0.23200600  0.38528400  0.07098500  1
  F  F4  1  0.01515400  0.69756900  0.72395200  1
  F  F5  1  0.61471600  0.76799400  0.42901500  1
  F  F6  1  0.38528400  0.23200600  0.57098500  1
  F  F7  1  0.98484600  0.30243100  0.27604800  1
  F  F8  1  0.76799400  0.61471600  0.92901500  1
  F  F9  1  0.30243100  0.98484600  0.77604800  1
  F  F10  1  0.40973200  0.66392600  0.14142800  1
  F  F11  1  0.66392600  0.40973200  0.64142800  1
loop_
_geom_bond_atom_site_label_1
_geom_bond_atom_site_label_2
_geom_bond_distance
_geom_bond_site_symmetry_2
O0 Sn14 2.175706 1_565
O0 Sn16 2.233654 1_465
O0 Sn7 2.276814 1_555
O0 Sn2 2.427331 1_455
O1 Sn0 2.160588 1_655
O1 Sn21 2.163517 1_565
O1 Sn14 2.186538 1_665
O2 Sn20 2.175706 1_655
O2 Sn23 2.233654 1_645
O2 Sn1 2.276814 1_556
O2 Sn8 2.427331 1_545
O3 Sn6 2.160588 1_565
O3 Sn25 2.163517 1_655
O3 Sn20 2.186538 1_665
O4 Sn2 2.213744 1_555
O4 Sn4 2.254472 1_655
O4 Sn7 2.263847 1_655
O4 Sn19 2.280877 1_555
O5 Sn0 2.136098 1_655
O5 Sn2 2.216926 1_555
O5 Sn11 2.221200 1_555
O5 Sn4 2.504581 1_655
O6 Sn5 2.141682 1_555
O6 Sn13 2.256848 1_545
O6 Sn3 2.292812 1_545
O6 Sn1 2.374544 1_555
O7 Sn8 2.213744 1_555
O7 Sn10 2.254472 1_565
O7 Sn1 2.263847 1_566
O7 Sn13 2.280877 1_556
O8 Sn6 2.136098 1_565
O8 Sn8 2.216926 1_555
O8 Sn18 2.221200 1_555
O8 Sn10 2.504581 1_565
O9 Sn12 2.141682 1_555
O9 Sn19 2.256848 1_455
O9 Sn9 2.292812 1_455
O9 Sn7 2.374544 1_555
O10 Sn11 2.141682 1_555
O10 Sn4 2.256848 1_655
O10 Sn14 2.292812 1_655
O10 Sn16 2.374544 1_555
O11 Sn17 2.136098 1_545
O11 Sn15 2.216926 1_555
O11 Sn5 2.221200 1_555
O11 Sn13 2.504581 1_545
O12 Sn15 2.213744 1_555
O12 Sn13 2.254472 1_545
O12 Sn23 2.263847 1_544
O12 Sn10 2.280877 1_554
O13 Sn18 2.141682 1_555
O13 Sn10 2.256848 1_565
O13 Sn20 2.292812 1_565
O13 Sn23 2.374544 1_555
O14 Sn24 2.136098 1_455
O14 Sn22 2.216926 1_555
O14 Sn12 2.221200 1_555
O14 Sn19 2.504581 1_455
O15 Sn22 2.213744 1_555
O15 Sn19 2.254472 1_455
O15 Sn16 2.263847 1_455
O15 Sn4 2.280877 1_555
O16 Sn17 2.160588 1_545
O16 Sn21 2.163517 1_455
O16 Sn3 2.186538 1_445
O17 Sn3 2.175706 1_455
O17 Sn1 2.233654 1_465
O17 Sn23 2.276814 1_554
O17 Sn15 2.427331 1_565
O18 Sn24 2.160588 1_455
O18 Sn25 2.163517 1_545
O18 Sn9 2.186538 1_445
O19 Sn9 2.175706 1_545
O19 Sn7 2.233654 1_645
O19 Sn16 2.276814 1_555
O19 Sn22 2.427331 1_655
F0 Sn0 2.094833 1_555
F1 Sn6 2.094833 1_555
F2 Sn21 2.329800 1_555
F2 Sn5 2.534549 1_555
F3 Sn5 2.258409 1_555
F3 Sn15 2.401403 1_555
F4 Sn25 2.329800 1_555
F4 Sn12 2.534549 1_555
F5 Sn11 2.258409 1_555
F5 Sn2 2.401403 1_555
F6 Sn12 2.258409 1_555
F6 Sn22 2.401403 1_555
F7 Sn21 2.329800 1_555
F7 Sn11 2.534549 1_555
F8 Sn18 2.258409 1_555
F8 Sn8 2.401403 1_555
F9 Sn25 2.329800 1_555
F9 Sn18 2.534549 1_555
F10 Sn17 2.094833 1_555
F11 Sn24 2.094833 1_555
