# generated using pymatgen
data_Nd2NiO4
_symmetry_space_group_name_H-M   'P 1'
_cell_length_a   3.85265017
_cell_length_b   6.74897007
_cell_length_c   4.00565075
_cell_angle_alpha   72.73084402
_cell_angle_beta   90.00033330
_cell_angle_gamma   106.60801446
_symmetry_Int_Tables_number   1
_chemical_formula_structural   Nd2NiO4
_chemical_formula_sum   'Nd2 Ni1 O4'
_cell_volume   94.89784183
_cell_formula_units_Z   1
loop_
 _symmetry_equiv_pos_site_id
 _symmetry_equiv_pos_as_xyz
  1  'x, y, z'
loop_
 _atom_site_type_symbol
 _atom_site_label
 _atom_site_symmetry_multiplicity
 _atom_site_fract_x
 _atom_site_fract_y
 _atom_site_fract_z
 _atom_site_occupancy
  Nd  Nd0  1  0.64583294  0.29990791  0.34871402  1
  Nd  Nd1  1  0.34772975  0.70330767  0.64699677  1
  Ni  Ni0  1  0.99759114  0.00166962  0.99751398  1
  O  O0  1  0.49722899  0.00161154  0.99738868  1
  O  O1  1  0.74211118  0.49240721  0.75250182  1
  O  O2  1  0.99686585  0.00161967  0.49737659  1
  O  O3  1  0.25138815  0.51082638  0.24329513  1
loop_
_geom_bond_atom_site_label_1
_geom_bond_atom_site_label_2
_geom_bond_distance
_geom_bond_site_symmetry_2
Nd0 O3 2.322107 1_655
Nd0 O3 2.322428 1_555
Nd0 O1 2.326244 1_554
Nd0 O1 2.326724 1_555
Nd0 O2 2.658859 1_455
Nd0 O2 2.661001 1_555
Nd0 O0 2.714333 1_555
Nd0 O0 2.717424 1_554
Nd1 O1 2.322134 1_555
Nd1 O1 2.322276 1_455
Nd1 O3 2.326339 1_555
Nd1 O3 2.326516 1_556
Nd1 O2 2.659398 1_565
Nd1 O2 2.660663 1_465
Nd1 O0 2.714708 1_565
Nd1 O0 2.717108 1_564
Ni0 O0 1.925042 1_655
Ni0 O0 1.927608 1_555
Ni0 O2 2.002177 1_556
Ni0 O2 2.003478 1_555
