# generated using pymatgen
data_KP(HO2)2
_symmetry_space_group_name_H-M   'P 1'
_cell_length_a   7.73261998
_cell_length_b   7.73261998
_cell_length_c   14.51333799
_cell_angle_alpha   88.36061160
_cell_angle_beta   88.36061160
_cell_angle_gamma   72.18759238
_symmetry_Int_Tables_number   1
_chemical_formula_structural   KP(HO2)2
_chemical_formula_sum   'K8 P8 H16 O32'
_cell_volume   825.68434033
_cell_formula_units_Z   8
loop_
 _symmetry_equiv_pos_site_id
 _symmetry_equiv_pos_as_xyz
  1  'x, y, z'
loop_
 _atom_site_type_symbol
 _atom_site_label
 _atom_site_symmetry_multiplicity
 _atom_site_fract_x
 _atom_site_fract_y
 _atom_site_fract_z
 _atom_site_occupancy
  K  K0  1  0.85923100  0.63860700  0.71059600  1
  K  K1  1  0.63860700  0.85923100  0.21059600  1
  K  K2  1  0.39223700  0.64894200  0.96087400  1
  K  K3  1  0.89833500  0.14061800  0.95357000  1
  K  K4  1  0.64894200  0.39223700  0.46087400  1
  K  K5  1  0.14061800  0.89833500  0.45357000  1
  K  K6  1  0.36116000  0.14524300  0.72714900  1
  K  K7  1  0.14524300  0.36116000  0.22714900  1
  P  P0  1  0.87462900  0.67642400  0.96086600  1
  P  P1  1  0.67642400  0.87462900  0.46086600  1
  P  P2  1  0.36199000  0.64874500  0.71213600  1
  P  P3  1  0.84664600  0.16008000  0.71471000  1
  P  P4  1  0.64874500  0.36199000  0.21213600  1
  P  P5  1  0.16008000  0.84664600  0.21471000  1
  P  P6  1  0.37551600  0.15653000  0.96418600  1
  P  P7  1  0.15653000  0.37551600  0.46418600  1
  H  H0  1  0.63460600  0.88748700  0.89603500  1
  H  H1  1  0.88748700  0.63460600  0.39603500  1
  H  H2  1  0.48822800  0.77947300  0.59789900  1
  H  H3  1  0.77947300  0.48822800  0.09789900  1
  H  H4  1  0.11640800  0.87903400  0.76589400  1
  H  H5  1  0.62184700  0.38895500  0.77961500  1
  H  H6  1  0.87903400  0.11640800  0.26589400  1
  H  H7  1  0.38895500  0.62184700  0.27961500  1
  H  H8  1  0.76174700  0.01926700  0.59688200  1
  H  H9  1  0.24289700  0.52044700  0.57952100  1
  H  H10  1  0.01926700  0.76174700  0.09688200  1
  H  H11  1  0.52044700  0.24289700  0.07952100  1
  H  H12  1  0.10151000  0.43435000  0.90871100  1
  H  H13  1  0.43435000  0.10151000  0.40871100  1
  H  H14  1  0.02560100  0.25908300  0.58168800  1
  H  H15  1  0.25908300  0.02560100  0.08168800  1
  O  O0  1  0.77296000  0.82334400  0.88609900  1
  O  O1  1  0.82334400  0.77296000  0.38609900  1
  O  O2  1  0.96029100  0.49881500  0.90261300  1
  O  O3  1  0.49881500  0.96029100  0.40261300  1
  O  O4  1  0.43363300  0.98693800  0.90530300  1
  O  O5  1  0.98693800  0.43363300  0.40530300  1
  O  O6  1  0.64408200  0.73742600  0.53216000  1
  O  O7  1  0.73742600  0.64408200  0.03216000  1
  O  O8  1  0.37593100  0.81003400  0.64366200  1
  O  O9  1  0.86108300  0.30188900  0.64141200  1
  O  O10  1  0.81003400  0.37593100  0.14366200  1
  O  O11  1  0.52284000  0.59069800  0.77674800  1
  O  O12  1  0.30188900  0.86108300  0.14141200  1
  O  O13  1  0.59069800  0.52284000  0.27674800  1
  O  O14  1  0.69020500  0.25080900  0.78790700  1
  O  O15  1  0.25080900  0.69020500  0.28790700  1
  O  O16  1  0.17814500  0.73666200  0.76714700  1
  O  O17  1  0.73666200  0.17814500  0.26714700  1
  O  O18  1  0.34433300  0.48770900  0.65787800  1
  O  O19  1  0.48770900  0.34433300  0.15787800  1
  O  O20  1  0.78255900  0.00558800  0.66982300  1
  O  O21  1  0.02632600  0.73881100  0.00128300  1
  O  O22  1  0.00558800  0.78255900  0.16982300  1
  O  O23  1  0.73881100  0.02632600  0.50128300  1
  O  O24  1  0.16234500  0.54908700  0.51814200  1
  O  O25  1  0.54908700  0.16234500  0.01814200  1
  O  O26  1  0.29223600  0.33384300  0.91049100  1
  O  O27  1  0.33384300  0.29223600  0.41049100  1
  O  O28  1  0.14379400  0.22517800  0.54010900  1
  O  O29  1  0.22517800  0.14379400  0.04010900  1
  O  O30  1  0.02048500  0.07242400  0.76811300  1
  O  O31  1  0.07242400  0.02048500  0.26811300  1
loop_
_geom_bond_atom_site_label_1
_geom_bond_atom_site_label_2
_geom_bond_distance
_geom_bond_site_symmetry_2
K0 O20 2.765689 1_565
K0 O9 2.813125 1_555
K0 O11 2.872539 1_555
K0 O0 2.915730 1_555
K0 O16 2.936877 1_655
K0 O2 2.996812 1_555
K0 O6 3.068186 1_555
K1 O22 2.765689 1_655
K1 O12 2.813125 1_555
K1 O13 2.872539 1_555
K1 O1 2.915730 1_555
K1 O17 2.936877 1_565
K1 O3 2.996812 1_555
K1 O7 3.068186 1_555
K2 O21 2.749195 1_556
K2 O4 2.821396 1_555
K2 O11 2.828430 1_555
K2 O7 2.879398 1_556
K2 O26 2.890737 1_555
K2 O12 3.079700 1_556
K2 O16 3.252104 1_555
K3 O25 2.790403 1_556
K3 O30 2.836539 1_655
K3 O29 2.861283 1_656
K3 O14 2.891736 1_555
K3 O2 3.020368 1_555
K3 O21 3.024468 1_646
K3 O0 3.092683 1_545
K3 O10 3.287523 1_556
K4 O23 2.749195 1_555
K4 O5 2.821396 1_555
K4 O13 2.828430 1_555
K4 O6 2.879398 1_555
K4 O27 2.890737 1_555
K4 O9 3.079700 1_555
K4 O17 3.252104 1_555
K5 O24 2.790403 1_555
K5 O31 2.836539 1_565
K5 O28 2.861283 1_565
K5 O15 2.891736 1_555
K5 O3 3.020368 1_555
K5 O23 3.024468 1_465
K5 O1 3.092683 1_455
K5 O8 3.287523 1_555
K6 O18 2.772140 1_555
K6 O4 2.824888 1_545
K6 O8 2.861914 1_545
K6 O30 2.899802 1_555
K6 O26 3.026000 1_555
K6 O14 3.059094 1_555
K6 O28 3.178921 1_555
K6 O20 3.196837 1_555
K7 O19 2.772140 1_555
K7 O5 2.824888 1_455
K7 O10 2.861914 1_455
K7 O31 2.899802 1_555
K7 O27 3.026000 1_555
K7 O15 3.059094 1_555
K7 O29 3.178921 1_555
K7 O22 3.196837 1_555
H0 O0 1.040184 1_555
H0 O4 1.512397 1_555
H1 O1 1.040184 1_555
H1 O5 1.512397 1_555
H2 O8 1.049495 1_555
H2 O6 1.476701 1_555
H3 O10 1.049495 1_555
H3 O7 1.476701 1_555
H4 O16 1.057375 1_555
H4 O30 1.452667 1_565
H5 O14 1.042032 1_555
H5 O11 1.512905 1_555
H6 O17 1.057375 1_555
H6 O31 1.452667 1_655
H7 O15 1.042032 1_555
H7 O13 1.512905 1_555
H8 O20 1.072700 1_555
H8 O23 1.401180 1_555
H9 O24 1.080110 1_555
H9 O18 1.373198 1_555
H10 O22 1.072700 1_555
H10 O21 1.401180 1_555
H11 O25 1.080110 1_555
H11 O19 1.373198 1_555
H12 O2 1.057707 1_455
H12 O26 1.442059 1_555
H13 O3 1.057707 1_545
H13 O27 1.442059 1_555
H14 O28 1.048369 1_555
H14 O9 1.474780 1_455
H15 O29 1.048369 1_555
H15 O12 1.474780 1_545
O0 P0 1.586839 1_555
O1 P1 1.586839 1_555
O2 P0 1.586678 1_555
O3 P1 1.586678 1_555
O4 P6 1.527618 1_565
O5 P7 1.527618 1_655
O6 P1 1.530843 1_555
O7 P0 1.530843 1_554
O8 P2 1.599973 1_555
O9 P3 1.532291 1_555
O10 P4 1.599973 1_555
O11 P2 1.526084 1_555
O12 P5 1.532291 1_555
O13 P4 1.526084 1_555
O14 P3 1.591857 1_555
O15 P5 1.591857 1_555
O16 P2 1.579682 1_555
O17 P4 1.579682 1_555
O18 P2 1.534802 1_555
O19 P4 1.534802 1_555
O20 P3 1.588179 1_555
O21 P0 1.534451 1_454
O22 P5 1.588179 1_555
O23 P1 1.534451 1_545
O24 P7 1.586097 1_555
O25 P6 1.586097 1_554
O26 P6 1.526200 1_555
O27 P7 1.526200 1_555
O28 P7 1.601823 1_555
O29 P6 1.601823 1_554
O30 P3 1.529449 1_455
O31 P5 1.529449 1_545
