# generated using pymatgen
data_K4MnH6(S2O9)2
_symmetry_space_group_name_H-M   'P 1'
_cell_length_a   7.60652700
_cell_length_b   10.92753800
_cell_length_c   21.19026200
_cell_angle_alpha   90.00000000
_cell_angle_beta   90.00000000
_cell_angle_gamma   90.00000000
_symmetry_Int_Tables_number   1
_chemical_formula_structural   K4MnH6(S2O9)2
_chemical_formula_sum   'K16 Mn4 H24 S16 O72'
_cell_volume   1761.34756369
_cell_formula_units_Z   4
loop_
 _symmetry_equiv_pos_site_id
 _symmetry_equiv_pos_as_xyz
  1  'x, y, z'
loop_
 _atom_site_type_symbol
 _atom_site_label
 _atom_site_symmetry_multiplicity
 _atom_site_fract_x
 _atom_site_fract_y
 _atom_site_fract_z
 _atom_site_occupancy
  K  K0  1  0.59722000  0.36129500  0.16639200  1
  K  K1  1  0.90278000  0.36129500  0.33360800  1
  K  K2  1  0.09722000  0.13870500  0.83360800  1
  K  K3  1  0.40278000  0.13870500  0.66639200  1
  K  K4  1  0.40278000  0.63870500  0.83360800  1
  K  K5  1  0.09722000  0.63870500  0.66639200  1
  K  K6  1  0.90278000  0.86129500  0.16639200  1
  K  K7  1  0.59722000  0.86129500  0.33360800  1
  K  K8  1  0.22511100  0.66131600  0.44413600  1
  K  K9  1  0.27488900  0.66131600  0.05586400  1
  K  K10  1  0.72511100  0.83868400  0.55586400  1
  K  K11  1  0.77488900  0.83868400  0.94413600  1
  K  K12  1  0.77488900  0.33868400  0.55586400  1
  K  K13  1  0.72511100  0.33868400  0.94413600  1
  K  K14  1  0.27488900  0.16131600  0.44413600  1
  K  K15  1  0.22511100  0.16131600  0.05586400  1
  Mn  Mn0  1  0.25000000  0.65678300  0.25000000  1
  Mn  Mn1  1  0.75000000  0.84321700  0.75000000  1
  Mn  Mn2  1  0.75000000  0.34321700  0.75000000  1
  Mn  Mn3  1  0.25000000  0.15678300  0.25000000  1
  H  H0  1  0.59862400  0.94759200  0.07201800  1
  H  H1  1  0.90137600  0.94759200  0.42798200  1
  H  H2  1  0.09862400  0.55240800  0.92798200  1
  H  H3  1  0.40137600  0.55240800  0.57201800  1
  H  H4  1  0.40137600  0.05240800  0.92798200  1
  H  H5  1  0.09862400  0.05240800  0.57201800  1
  H  H6  1  0.90137600  0.44759200  0.07201800  1
  H  H7  1  0.59862400  0.44759200  0.42798200  1
  H  H8  1  0.59086000  0.14949500  0.28706300  1
  H  H9  1  0.90914000  0.14949500  0.21293700  1
  H  H10  1  0.09086000  0.35050500  0.71293700  1
  H  H11  1  0.40914000  0.35050500  0.78706300  1
  H  H12  1  0.40914000  0.85050500  0.71293700  1
  H  H13  1  0.09086000  0.85050500  0.78706300  1
  H  H14  1  0.90914000  0.64949500  0.28706300  1
  H  H15  1  0.59086000  0.64949500  0.21293700  1
  H  H16  1  0.56220500  0.07652200  0.22252800  1
  H  H17  1  0.93779500  0.07652200  0.27747200  1
  H  H18  1  0.06220500  0.42347800  0.77747200  1
  H  H19  1  0.43779500  0.42347800  0.72252800  1
  H  H20  1  0.43779500  0.92347800  0.77747200  1
  H  H21  1  0.06220500  0.92347800  0.72252800  1
  H  H22  1  0.93779500  0.57652200  0.22252800  1
  H  H23  1  0.56220500  0.57652200  0.27747200  1
  S  S0  1  0.76211800  0.11321000  0.07209900  1
  S  S1  1  0.73788200  0.11321000  0.42790100  1
  S  S2  1  0.26211800  0.38679000  0.92790100  1
  S  S3  1  0.23788200  0.38679000  0.57209900  1
  S  S4  1  0.23788200  0.88679000  0.92790100  1
  S  S5  1  0.26211800  0.88679000  0.57209900  1
  S  S6  1  0.73788200  0.61321000  0.07209900  1
  S  S7  1  0.76211800  0.61321000  0.42790100  1
  S  S8  1  0.36924600  0.90766600  0.16167800  1
  S  S9  1  0.13075400  0.90766600  0.33832200  1
  S  S10  1  0.86924600  0.59233400  0.83832200  1
  S  S11  1  0.63075400  0.59233400  0.66167800  1
  S  S12  1  0.63075400  0.09233400  0.83832200  1
  S  S13  1  0.86924600  0.09233400  0.66167800  1
  S  S14  1  0.13075400  0.40766600  0.16167800  1
  S  S15  1  0.36924600  0.40766600  0.33832200  1
  O  O0  1  0.59292500  0.17664200  0.07618100  1
  O  O1  1  0.90707500  0.17664200  0.42381900  1
  O  O2  1  0.09292500  0.32335800  0.92381900  1
  O  O3  1  0.40707500  0.32335800  0.57618100  1
  O  O4  1  0.40707500  0.82335800  0.92381900  1
  O  O5  1  0.09292500  0.82335800  0.57618100  1
  O  O6  1  0.90707500  0.67664200  0.07618100  1
  O  O7  1  0.59292500  0.67664200  0.42381900  1
  O  O8  1  0.87570600  0.15476900  0.02082800  1
  O  O9  1  0.62429400  0.15476900  0.47917200  1
  O  O10  1  0.37570600  0.34523100  0.97917200  1
  O  O11  1  0.12429400  0.34523100  0.52082800  1
  O  O12  1  0.12429400  0.84523100  0.97917200  1
  O  O13  1  0.37570600  0.84523100  0.52082800  1
  O  O14  1  0.62429400  0.65476900  0.02082800  1
  O  O15  1  0.87570600  0.65476900  0.47917200  1
  O  O16  1  0.85570400  0.10954500  0.13330500  1
  O  O17  1  0.64429600  0.10954500  0.36669500  1
  O  O18  1  0.35570400  0.39045500  0.86669500  1
  O  O19  1  0.14429600  0.39045500  0.63330500  1
  O  O20  1  0.14429600  0.89045500  0.86669500  1
  O  O21  1  0.35570400  0.89045500  0.63330500  1
  O  O22  1  0.64429600  0.60954500  0.13330500  1
  O  O23  1  0.85570400  0.60954500  0.36669500  1
  O  O24  1  0.72099100  0.97249100  0.05541900  1
  O  O25  1  0.77900900  0.97249100  0.44458100  1
  O  O26  1  0.22099100  0.52750900  0.94458100  1
  O  O27  1  0.27900900  0.52750900  0.55541900  1
  O  O28  1  0.27900900  0.02750900  0.94458100  1
  O  O29  1  0.22099100  0.02750900  0.55541900  1
  O  O30  1  0.77900900  0.47249100  0.05541900  1
  O  O31  1  0.72099100  0.47249100  0.44458100  1
  O  O32  1  0.26806500  0.79276800  0.17566400  1
  O  O33  1  0.23193500  0.79276800  0.32433600  1
  O  O34  1  0.76806500  0.70723200  0.82433600  1
  O  O35  1  0.73193500  0.70723200  0.67566400  1
  O  O36  1  0.73193500  0.20723200  0.82433600  1
  O  O37  1  0.76806500  0.20723200  0.67566400  1
  O  O38  1  0.23193500  0.29276800  0.17566400  1
  O  O39  1  0.26806500  0.29276800  0.32433600  1
  O  O40  1  0.25167900  0.01441000  0.17581300  1
  O  O41  1  0.24832100  0.01441000  0.32418700  1
  O  O42  1  0.75167900  0.48559000  0.82418700  1
  O  O43  1  0.74832100  0.48559000  0.67581300  1
  O  O44  1  0.74832100  0.98559000  0.82418700  1
  O  O45  1  0.75167900  0.98559000  0.67581300  1
  O  O46  1  0.24832100  0.51441000  0.17581300  1
  O  O47  1  0.25167900  0.51441000  0.32418700  1
  O  O48  1  0.41178400  0.90695100  0.09303900  1
  O  O49  1  0.08821600  0.90695100  0.40696100  1
  O  O50  1  0.91178400  0.59304900  0.90696100  1
  O  O51  1  0.58821600  0.59304900  0.59303900  1
  O  O52  1  0.58821600  0.09304900  0.90696100  1
  O  O53  1  0.91178400  0.09304900  0.59303900  1
  O  O54  1  0.08821600  0.40695100  0.09303900  1
  O  O55  1  0.41178400  0.40695100  0.40696100  1
  O  O56  1  0.53290000  0.91528800  0.20006800  1
  O  O57  1  0.96710000  0.91528800  0.29993200  1
  O  O58  1  0.03290000  0.58471200  0.79993200  1
  O  O59  1  0.46710000  0.58471200  0.70006800  1
  O  O60  1  0.46710000  0.08471200  0.79993200  1
  O  O61  1  0.03290000  0.08471200  0.70006800  1
  O  O62  1  0.96710000  0.41528800  0.20006800  1
  O  O63  1  0.53290000  0.41528800  0.29993200  1
  O  O64  1  0.54135300  0.15607500  0.24390600  1
  O  O65  1  0.95864700  0.15607500  0.25609400  1
  O  O66  1  0.04135300  0.34392500  0.75609400  1
  O  O67  1  0.45864700  0.34392500  0.74390600  1
  O  O68  1  0.45864700  0.84392500  0.75609400  1
  O  O69  1  0.04135300  0.84392500  0.74390600  1
  O  O70  1  0.95864700  0.65607500  0.24390600  1
  O  O71  1  0.54135300  0.65607500  0.25609400  1
loop_
_geom_bond_atom_site_label_1
_geom_bond_atom_site_label_2
_geom_bond_distance
_geom_bond_site_symmetry_2
K0 O0 2.779710 1_555
K0 O64 2.812038 1_555
K0 O22 2.824690 1_555
K0 O38 2.884388 1_555
K0 O63 2.931715 1_555
K0 O62 2.961948 1_555
K0 O30 2.986357 1_555
K0 O46 3.143658 1_555
K1 O1 2.779710 1_555
K1 O65 2.812038 1_555
K1 O23 2.824690 1_555
K1 O39 2.884388 1_655
K1 O62 2.931715 1_555
K1 O63 2.961948 1_555
K1 O31 2.986357 1_555
K1 O47 3.143658 1_655
K2 O2 2.779710 1_555
K2 O66 2.812038 1_555
K2 O20 2.824690 1_545
K2 O36 2.884388 1_455
K2 O61 2.931715 1_555
K2 O60 2.961948 1_555
K2 O28 2.986357 1_555
K2 O44 3.143658 1_445
K3 O3 2.779710 1_555
K3 O67 2.812038 1_555
K3 O21 2.824690 1_545
K3 O37 2.884388 1_555
K3 O60 2.931715 1_555
K3 O61 2.961948 1_555
K3 O29 2.986357 1_555
K3 O45 3.143658 1_545
K4 O4 2.779710 1_555
K4 O68 2.812038 1_555
K4 O18 2.824690 1_555
K4 O34 2.884388 1_555
K4 O59 2.931715 1_555
K4 O58 2.961948 1_555
K4 O26 2.986357 1_555
K4 O42 3.143658 1_555
K5 O5 2.779710 1_555
K5 O69 2.812038 1_555
K5 O19 2.824690 1_555
K5 O35 2.884388 1_455
K5 O58 2.931715 1_555
K5 O59 2.961948 1_555
K5 O27 2.986357 1_555
K5 O43 3.143658 1_455
K6 O6 2.779710 1_555
K6 O70 2.812038 1_555
K6 O16 2.824690 1_565
K6 O32 2.884388 1_655
K6 O57 2.931715 1_555
K6 O56 2.961948 1_555
K6 O24 2.986357 1_555
K6 O40 3.143658 1_665
K7 O7 2.779710 1_555
K7 O71 2.812038 1_555
K7 O17 2.824690 1_565
K7 O33 2.884388 1_555
K7 O56 2.931715 1_555
K7 O57 2.961948 1_555
K7 O25 2.986357 1_555
K7 O41 3.143658 1_565
K8 O15 2.760433 1_455
K8 O27 2.804775 1_555
K8 O13 2.827058 1_555
K8 O7 2.835668 1_555
K8 O33 2.917281 1_555
K8 O49 2.984911 1_555
K8 O47 3.013037 1_555
K8 O55 3.219137 1_555
K8 O23 3.302798 1_455
K9 O14 2.760433 1_555
K9 O26 2.804775 1_554
K9 O12 2.827058 1_554
K9 O6 2.835668 1_455
K9 O32 2.917281 1_555
K9 O48 2.984911 1_555
K9 O46 3.013037 1_555
K9 O54 3.219137 1_555
K9 O22 3.302798 1_555
K10 O13 2.760433 1_555
K10 O25 2.804775 1_555
K10 O15 2.827058 1_555
K10 O5 2.835668 1_655
K10 O35 2.917281 1_555
K10 O51 2.984911 1_555
K10 O45 3.013037 1_555
K10 O53 3.219137 1_565
K10 O21 3.302798 1_555
K11 O12 2.760433 1_655
K11 O24 2.804775 1_556
K11 O14 2.827058 1_556
K11 O4 2.835668 1_555
K11 O34 2.917281 1_555
K11 O50 2.984911 1_555
K11 O44 3.013037 1_555
K11 O52 3.219137 1_565
K11 O20 3.302798 1_655
K12 O11 2.760433 1_655
K12 O31 2.804775 1_555
K12 O9 2.827058 1_555
K12 O3 2.835668 1_555
K12 O37 2.917281 1_555
K12 O53 2.984911 1_555
K12 O43 3.013037 1_555
K12 O51 3.219137 1_555
K12 O19 3.302798 1_655
K13 O10 2.760433 1_555
K13 O30 2.804775 1_556
K13 O8 2.827058 1_556
K13 O2 2.835668 1_655
K13 O36 2.917281 1_555
K13 O52 2.984911 1_555
K13 O42 3.013037 1_555
K13 O50 3.219137 1_555
K13 O18 3.302798 1_555
K14 O9 2.760433 1_555
K14 O29 2.804775 1_555
K14 O11 2.827058 1_555
K14 O1 2.835668 1_455
K14 O39 2.917281 1_555
K14 O55 2.984911 1_555
K14 O41 3.013037 1_555
K14 O49 3.219137 1_545
K14 O17 3.302798 1_555
K15 O8 2.760433 1_455
K15 O28 2.804775 1_554
K15 O10 2.827058 1_554
K15 O0 2.835668 1_555
K15 O38 2.917281 1_555
K15 O54 2.984911 1_555
K15 O40 3.013037 1_555
K15 O48 3.219137 1_545
K15 O16 3.302798 1_455
Mn0 O33 2.169856 1_555
Mn0 O32 2.169856 1_555
Mn0 O46 2.211775 1_555
Mn0 O47 2.211775 1_555
Mn0 O71 2.219957 1_555
Mn0 O70 2.219957 1_455
Mn1 O34 2.169856 1_555
Mn1 O35 2.169856 1_555
Mn1 O45 2.211775 1_555
Mn1 O44 2.211775 1_555
Mn1 O69 2.219957 1_655
Mn1 O68 2.219957 1_555
Mn2 O36 2.169856 1_555
Mn2 O37 2.169856 1_555
Mn2 O43 2.211775 1_555
Mn2 O42 2.211775 1_555
Mn2 O66 2.219957 1_655
Mn2 O67 2.219957 1_555
Mn3 O39 2.169856 1_555
Mn3 O38 2.169856 1_555
Mn3 O40 2.211775 1_555
Mn3 O41 2.211775 1_555
Mn3 O64 2.219957 1_555
Mn3 O65 2.219957 1_455
H0 O24 1.031560 1_555
H0 O48 1.554177 1_555
H1 O25 1.031560 1_555
H1 O49 1.554177 1_655
H2 O26 1.031560 1_555
H2 O50 1.554177 1_455
H3 O27 1.031560 1_555
H3 O51 1.554177 1_555
H4 O28 1.031560 1_555
H4 O52 1.554177 1_555
H5 O29 1.031560 1_555
H5 O53 1.554177 1_455
H6 O30 1.031560 1_555
H6 O54 1.554177 1_655
H7 O31 1.031560 1_555
H7 O55 1.554177 1_555
H8 O64 0.991617 1_555
H9 O65 0.991617 1_555
H10 O66 0.991617 1_555
H11 O67 0.991617 1_555
H12 O68 0.991617 1_555
H13 O69 0.991617 1_555
H14 O70 0.991617 1_555
H15 O71 0.991617 1_555
H16 O64 0.993019 1_555
H17 O65 0.993019 1_555
H18 O66 0.993019 1_555
H19 O67 0.993019 1_555
H20 O68 0.993019 1_555
H21 O69 0.993019 1_555
H22 O70 0.993019 1_555
H23 O71 0.993019 1_555
O0 S0 1.464323 1_555
O1 S1 1.464323 1_555
O2 S2 1.464323 1_555
O3 S3 1.464323 1_555
O4 S4 1.464323 1_555
O5 S5 1.464323 1_555
O6 S6 1.464323 1_555
O7 S7 1.464323 1_555
O8 S0 1.460520 1_555
O9 S1 1.460520 1_555
O10 S2 1.460520 1_555
O11 S3 1.460520 1_555
O12 S4 1.460520 1_555
O13 S5 1.460520 1_555
O14 S6 1.460520 1_555
O15 S7 1.460520 1_555
O16 S0 1.480030 1_555
O17 S1 1.480030 1_555
O18 S2 1.480030 1_555
O19 S3 1.480030 1_555
O20 S4 1.480030 1_555
O21 S5 1.480030 1_555
O22 S6 1.480030 1_555
O23 S7 1.480030 1_555
O24 S0 1.608525 1_565
O25 S1 1.608525 1_565
O26 S2 1.608525 1_555
O27 S3 1.608525 1_555
O28 S4 1.608525 1_545
O29 S5 1.608525 1_545
O30 S6 1.608525 1_555
O31 S7 1.608525 1_555
O32 S8 1.502193 1_555
O33 S9 1.502193 1_555
O34 S10 1.502193 1_555
O35 S11 1.502193 1_555
O36 S12 1.502193 1_555
O37 S13 1.502193 1_555
O38 S14 1.502193 1_555
O39 S15 1.502193 1_555
O40 S8 1.500016 1_545
O41 S9 1.500016 1_545
O42 S10 1.500016 1_555
O43 S11 1.500016 1_555
O44 S12 1.500016 1_565
O45 S13 1.500016 1_565
O46 S14 1.500016 1_555
O47 S15 1.500016 1_555
O48 S8 1.490055 1_555
O49 S9 1.490055 1_555
O50 S10 1.490055 1_555
O51 S11 1.490055 1_555
O52 S12 1.490055 1_555
O53 S13 1.490055 1_555
O54 S14 1.490055 1_555
O55 S15 1.490055 1_555
O56 S8 1.489407 1_555
O57 S9 1.489407 1_655
O58 S10 1.489407 1_455
O59 S11 1.489407 1_555
O60 S12 1.489407 1_555
O61 S13 1.489407 1_455
O62 S14 1.489407 1_655
O63 S15 1.489407 1_555
