# generated using pymatgen
data_Li2NbCr3O8
_symmetry_space_group_name_H-M   'P 1'
_cell_length_a   5.98706700
_cell_length_b   5.98713828
_cell_length_c   9.62720700
_cell_angle_alpha   89.99987883
_cell_angle_beta   90.00013117
_cell_angle_gamma   120.00064783
_symmetry_Int_Tables_number   1
_chemical_formula_structural   Li2NbCr3O8
_chemical_formula_sum   'Li4 Nb2 Cr6 O16'
_cell_volume   298.85567953
_cell_formula_units_Z   2
loop_
 _symmetry_equiv_pos_site_id
 _symmetry_equiv_pos_as_xyz
  1  'x, y, z'
loop_
 _atom_site_type_symbol
 _atom_site_label
 _atom_site_symmetry_multiplicity
 _atom_site_fract_x
 _atom_site_fract_y
 _atom_site_fract_z
 _atom_site_occupancy
  Li  Li0  1  0.33333500  0.66668200  0.90133800  1
  Li  Li1  1  0.00001500  0.00000100  0.99255300  1
  Li  Li2  1  0.99999100  0.00001500  0.49250100  1
  Li  Li3  1  0.66668000  0.33334800  0.40136500  1
  Nb  Nb0  1  0.33335100  0.66666400  0.49299800  1
  Nb  Nb1  1  0.66666300  0.33336200  0.99301800  1
  Cr  Cr0  1  0.17012900  0.82985100  0.21519600  1
  Cr  Cr1  1  0.17013900  0.34028900  0.21519400  1
  Cr  Cr2  1  0.65980000  0.82995800  0.21520400  1
  Cr  Cr3  1  0.34009800  0.17002000  0.71527200  1
  Cr  Cr4  1  0.82986000  0.65983900  0.71531600  1
  Cr  Cr5  1  0.82988500  0.17011300  0.71533000  1
  O  O0  1  0.16687900  0.83310200  0.59389000  1
  O  O1  1  0.04002200  0.52000400  0.34121500  1
  O  O2  1  0.33335200  0.66669000  0.10812800  1
  O  O3  1  0.00002700  0.00003800  0.30771800  1
  O  O4  1  0.99998300  0.00000500  0.80784300  1
  O  O5  1  0.16689200  0.33379000  0.59389400  1
  O  O6  1  0.48004400  0.96008600  0.34119900  1
  O  O7  1  0.48007300  0.52000200  0.34119700  1
  O  O8  1  0.33380500  0.16689900  0.09386700  1
  O  O9  1  0.66621300  0.83312400  0.59389500  1
  O  O10  1  0.51991000  0.47998400  0.84125300  1
  O  O11  1  0.51993600  0.03990100  0.84123600  1
  O  O12  1  0.66665700  0.33334000  0.60822300  1
  O  O13  1  0.83311400  0.66622200  0.09386800  1
  O  O14  1  0.96001900  0.48004900  0.84126600  1
  O  O15  1  0.83312800  0.16691900  0.09386100  1
loop_
_geom_bond_atom_site_label_1
_geom_bond_atom_site_label_2
_geom_bond_distance
_geom_bond_site_symmetry_2
Li0 O2 1.990810 1_556
Li0 O11 2.019785 1_565
Li0 O10 2.020016 1_555
Li0 O14 2.020162 1_455
Li1 O4 1.778241 1_455
Li1 O13 1.986572 1_446
Li1 O8 1.986599 1_556
Li1 O15 1.986665 1_456
Li2 O3 1.778944 1_655
Li2 O5 1.986925 1_655
Li2 O9 1.986925 1_545
Li2 O0 1.987026 1_645
Li3 O12 1.991465 1_555
Li3 O6 2.020177 1_545
Li3 O7 2.020182 1_555
Li3 O1 2.020508 1_655
Nb0 O9 1.980437 1_555
Nb0 O5 1.980504 1_555
Nb0 O0 1.980657 1_555
Nb0 O1 2.109107 1_555
Nb0 O7 2.109454 1_555
Nb0 O6 2.109575 1_555
Nb1 O8 1.980194 1_556
Nb1 O13 1.980226 1_556
Nb1 O15 1.980412 1_556
Nb1 O14 2.109004 1_555
Nb1 O10 2.109175 1_555
Nb1 O11 2.109609 1_555
Cr0 O3 1.976489 1_565
Cr0 O2 1.981507 1_555
Cr0 O1 2.018654 1_555
Cr0 O6 2.018784 1_555
Cr0 O13 2.102041 1_455
Cr0 O8 2.102204 1_565
Cr1 O3 1.976312 1_555
Cr1 O2 1.981563 1_555
Cr1 O1 2.018604 1_555
Cr1 O7 2.018872 1_555
Cr1 O15 2.102050 1_455
Cr1 O8 2.102238 1_555
Cr2 O3 1.976139 1_665
Cr2 O2 1.981804 1_555
Cr2 O6 2.018672 1_555
Cr2 O7 2.018920 1_555
Cr2 O15 2.101903 1_565
Cr2 O13 2.102254 1_555
Cr3 O4 1.975870 1_455
Cr3 O12 1.982163 1_555
Cr3 O11 2.018809 1_555
Cr3 O10 2.018921 1_555
Cr3 O0 2.101922 1_545
Cr3 O5 2.102149 1_555
Cr4 O4 1.975934 1_565
Cr4 O12 1.982135 1_555
Cr4 O10 2.018618 1_555
Cr4 O14 2.018679 1_555
Cr4 O9 2.102198 1_555
Cr4 O0 2.102575 1_655
Cr5 O4 1.976061 1_555
Cr5 O12 1.982012 1_555
Cr5 O11 2.018384 1_555
Cr5 O14 2.018552 1_555
Cr5 O9 2.102517 1_545
Cr5 O5 2.102583 1_655
