# generated using pymatgen
data_Mg(NO3)2
_symmetry_space_group_name_H-M   'P 1'
_cell_length_a   7.53926743
_cell_length_b   7.53926743
_cell_length_c   7.53926743
_cell_angle_alpha   90.00000000
_cell_angle_beta   90.00000000
_cell_angle_gamma   90.00000000
_symmetry_Int_Tables_number   1
_chemical_formula_structural   Mg(NO3)2
_chemical_formula_sum   'Mg4 N8 O24'
_cell_volume   428.53613281
_cell_formula_units_Z   4
loop_
 _symmetry_equiv_pos_site_id
 _symmetry_equiv_pos_as_xyz
  1  'x, y, z'
loop_
 _atom_site_type_symbol
 _atom_site_label
 _atom_site_symmetry_multiplicity
 _atom_site_fract_x
 _atom_site_fract_y
 _atom_site_fract_z
 _atom_site_occupancy
  Mg  Mg0  1  0.50000000  0.50000000  0.50000000  1
  Mg  Mg1  1  0.50000000  0.00000000  0.00000000  1
  Mg  Mg2  1  -0.00000000  0.50000000  0.00000000  1
  Mg  Mg3  1  -0.00000000  0.00000000  0.50000000  1
  N  N0  1  0.67733590  0.17733590  0.32266410  1
  N  N1  1  0.67733590  0.32266410  0.82266410  1
  N  N2  1  0.82266410  0.82266410  0.82266410  1
  N  N3  1  0.82266410  0.67733590  0.32266410  1
  N  N4  1  0.17733590  0.17733590  0.17733590  1
  N  N5  1  0.17733590  0.32266410  0.67733590  1
  N  N6  1  0.32266410  0.67733590  0.17733590  1
  N  N7  1  0.32266410  0.82266410  0.67733590  1
  O  O0  1  0.56033875  0.20462267  0.82335107  1
  O  O1  1  0.56033875  0.29537733  0.32335107  1
  O  O2  1  0.67664893  0.43966125  0.70462267  1
  O  O3  1  0.67664893  0.06033875  0.20462267  1
  O  O4  1  0.70462267  0.67664893  0.43966125  1
  O  O5  1  0.70462267  0.82335107  0.93966125  1
  O  O6  1  0.79537733  0.32335107  0.93966125  1
  O  O7  1  0.79537733  0.17664893  0.43966125  1
  O  O8  1  0.82335107  0.93966125  0.70462267  1
  O  O9  1  0.82335107  0.56033875  0.20462267  1
  O  O10  1  0.93966125  0.70462267  0.82335107  1
  O  O11  1  0.93966125  0.79537733  0.32335107  1
  O  O12  1  0.06033875  0.20462267  0.67664893  1
  O  O13  1  0.06033875  0.29537733  0.17664893  1
  O  O14  1  0.17664893  0.43966125  0.79537733  1
  O  O15  1  0.17664893  0.06033875  0.29537733  1
  O  O16  1  0.20462267  0.67664893  0.06033875  1
  O  O17  1  0.20462267  0.82335107  0.56033875  1
  O  O18  1  0.29537733  0.17664893  0.06033875  1
  O  O19  1  0.29537733  0.32335107  0.56033875  1
  O  O20  1  0.32335107  0.56033875  0.29537733  1
  O  O21  1  0.32335107  0.93966125  0.79537733  1
  O  O22  1  0.43966125  0.70462267  0.67664893  1
  O  O23  1  0.43966125  0.79537733  0.17664893  1
loop_
_geom_bond_atom_site_label_1
_geom_bond_atom_site_label_2
_geom_bond_distance
_geom_bond_site_symmetry_2
Mg0 O19 2.088201 1_555
Mg0 O20 2.088201 1_555
Mg0 O1 2.088201 1_555
Mg0 O2 2.088201 1_555
Mg0 O22 2.088201 1_555
Mg0 O4 2.088201 1_555
Mg1 O21 2.088201 1_544
Mg1 O18 2.088201 1_555
Mg1 O23 2.088201 1_545
Mg1 O3 2.088201 1_555
Mg1 O0 2.088201 1_554
Mg1 O5 2.088201 1_544
Mg2 O14 2.088201 1_554
Mg2 O6 2.088201 1_454
Mg2 O13 2.088201 1_555
Mg2 O9 2.088201 1_455
Mg2 O16 2.088201 1_555
Mg2 O10 2.088201 1_454
Mg3 O7 2.088201 1_455
Mg3 O15 2.088201 1_555
Mg3 O11 2.088201 1_445
Mg3 O8 2.088201 1_445
Mg3 O12 2.088201 1_555
Mg3 O17 2.088201 1_545
N0 O7 1.253030 1_555
N0 O3 1.253030 1_555
N0 O1 1.253030 1_555
N1 O2 1.253030 1_555
N1 O0 1.253030 1_555
N1 O6 1.253030 1_555
N2 O5 1.253030 1_555
N2 O10 1.253030 1_555
N2 O8 1.253030 1_555
N3 O11 1.253030 1_555
N3 O9 1.253030 1_555
N3 O4 1.253030 1_555
N4 O13 1.253030 1_555
N4 O15 1.253030 1_555
N4 O18 1.253030 1_555
N5 O12 1.253030 1_555
N5 O19 1.253030 1_555
N5 O14 1.253030 1_555
N6 O20 1.253030 1_555
N6 O23 1.253030 1_555
N6 O16 1.253030 1_555
N7 O22 1.253030 1_555
N7 O17 1.253030 1_555
N7 O21 1.253030 1_555
