# generated using pymatgen
data_Na2SnAsCO7
_symmetry_space_group_name_H-M   'P 1'
_cell_length_a   7.12103100
_cell_length_b   5.41863900
_cell_length_c   9.28934817
_cell_angle_alpha   89.21575774
_cell_angle_beta   90.00000000
_cell_angle_gamma   90.00000000
_symmetry_Int_Tables_number   1
_chemical_formula_structural   Na2SnAsCO7
_chemical_formula_sum   'Na4 Sn2 As2 C2 O14'
_cell_volume   358.40796425
_cell_formula_units_Z   2
loop_
 _symmetry_equiv_pos_site_id
 _symmetry_equiv_pos_as_xyz
  1  'x, y, z'
loop_
 _atom_site_type_symbol
 _atom_site_label
 _atom_site_symmetry_multiplicity
 _atom_site_fract_x
 _atom_site_fract_y
 _atom_site_fract_z
 _atom_site_occupancy
  Na  Na0  1  0.50018100  0.23158700  0.78664900  1
  Na  Na1  1  0.99981900  0.23158700  0.78664900  1
  Na  Na2  1  0.49981900  0.76841300  0.21335100  1
  Na  Na3  1  0.00018100  0.76841300  0.21335100  1
  Sn  Sn0  1  0.75000000  0.78291100  0.64293300  1
  Sn  Sn1  1  0.25000000  0.21708900  0.35706700  1
  As  As0  1  0.25000000  0.71015200  0.58638500  1
  As  As1  1  0.75000000  0.28984800  0.41361500  1
  C  C0  1  0.75000000  0.72766700  0.93242100  1
  C  C1  1  0.25000000  0.27233300  0.06757900  1
  O  O0  1  0.25000000  0.29325700  0.93228100  1
  O  O1  1  0.75000000  0.94501900  0.86535900  1
  O  O2  1  0.75000000  0.53439500  0.84636000  1
  O  O3  1  0.05428900  0.82168900  0.67436200  1
  O  O4  1  0.44571100  0.82168900  0.67436200  1
  O  O5  1  0.75000000  0.19060800  0.59334800  1
  O  O6  1  0.25000000  0.38937200  0.58543900  1
  O  O7  1  0.75000000  0.61062800  0.41456100  1
  O  O8  1  0.25000000  0.80939200  0.40665200  1
  O  O9  1  0.55428900  0.17831100  0.32563800  1
  O  O10  1  0.94571100  0.17831100  0.32563800  1
  O  O11  1  0.25000000  0.46560500  0.15364000  1
  O  O12  1  0.25000000  0.05498100  0.13464100  1
  O  O13  1  0.75000000  0.70674300  0.06771900  1
loop_
_geom_bond_atom_site_label_1
_geom_bond_atom_site_label_2
_geom_bond_distance
_geom_bond_site_symmetry_2
Na0 O0 2.264529 1_555
Na0 O1 2.465657 1_545
Na0 O2 2.487882 1_555
Na0 O4 2.497021 1_545
Na0 O5 2.539542 1_555
Na0 O6 2.711960 1_555
Na1 O0 2.264529 1_655
Na1 O1 2.465657 1_545
Na1 O2 2.487882 1_555
Na1 O3 2.497021 1_645
Na1 O5 2.539542 1_555
Na1 O6 2.711960 1_655
Na2 O13 2.264529 1_555
Na2 O12 2.465657 1_565
Na2 O11 2.487882 1_555
Na2 O9 2.497021 1_565
Na2 O8 2.539542 1_555
Na2 O7 2.711960 1_555
Na3 O13 2.264529 1_455
Na3 O12 2.465657 1_565
Na3 O11 2.487882 1_555
Na3 O10 2.497021 1_465
Na3 O8 2.539542 1_555
Na3 O7 2.711960 1_455
As0 O4 1.728870 1_555
As0 O3 1.728870 1_555
As0 O6 1.738334 1_555
As0 O8 1.747045 1_555
As1 O10 1.728870 1_555
As1 O9 1.728870 1_555
As1 O7 1.738334 1_555
As1 O5 1.747045 1_555
C0 O13 1.260387 1_556
C0 O1 1.324801 1_555
C0 O2 1.326204 1_555
C1 O0 1.260387 1_554
C1 O12 1.324801 1_555
C1 O11 1.326204 1_555
O1 Sn0 2.256198 1_555
O2 Sn0 2.305364 1_555
O3 Sn0 2.196887 1_455
O4 Sn0 2.196887 1_555
O5 Sn0 2.250491 1_545
O6 Sn1 2.329412 1_555
O7 Sn0 2.329412 1_555
O8 Sn1 2.250491 1_565
O9 Sn1 2.196887 1_555
O10 Sn1 2.196887 1_655
O11 Sn1 2.305364 1_555
O12 Sn1 2.256198 1_555
