# generated using pymatgen
data_Dy2Ge2O7
_symmetry_space_group_name_H-M   'P 1'
_cell_length_a   6.81969300
_cell_length_b   6.84493355
_cell_length_c   12.42329283
_cell_angle_alpha   94.82047155
_cell_angle_beta   91.96564489
_cell_angle_gamma   91.85950671
_symmetry_Int_Tables_number   1
_chemical_formula_structural   Dy2Ge2O7
_chemical_formula_sum   'Dy8 Ge8 O28'
_cell_volume   577.16874576
_cell_formula_units_Z   4
loop_
 _symmetry_equiv_pos_site_id
 _symmetry_equiv_pos_as_xyz
  1  'x, y, z'
loop_
 _atom_site_type_symbol
 _atom_site_label
 _atom_site_symmetry_multiplicity
 _atom_site_fract_x
 _atom_site_fract_y
 _atom_site_fract_z
 _atom_site_occupancy
  Dy  Dy0  1  0.04924100  0.33267700  0.11235600  1
  Dy  Dy1  1  0.11161500  0.09119200  0.35738000  1
  Dy  Dy2  1  0.31384100  0.83380600  0.11650200  1
  Dy  Dy3  1  0.37504000  0.21062100  0.63153400  1
  Dy  Dy4  1  0.62496000  0.78937900  0.36846600  1
  Dy  Dy5  1  0.68615900  0.16619400  0.88349800  1
  Dy  Dy6  1  0.88838500  0.90880800  0.64262000  1
  Dy  Dy7  1  0.95075900  0.66732300  0.88764400  1
  Ge  Ge0  1  0.13902100  0.62228700  0.37688200  1
  Ge  Ge1  1  0.16673500  0.14284400  0.88505200  1
  Ge  Ge2  1  0.38859000  0.72377600  0.59978700  1
  Ge  Ge3  1  0.51495600  0.33811800  0.16668900  1
  Ge  Ge4  1  0.48504400  0.66188200  0.83331100  1
  Ge  Ge5  1  0.61141000  0.27622400  0.40021300  1
  Ge  Ge6  1  0.83326500  0.85715600  0.11494800  1
  Ge  Ge7  1  0.86097900  0.37771300  0.62311800  1
  O  O0  1  0.00190200  0.66517300  0.08090200  1
  O  O1  1  0.98974000  0.97710300  0.81580900  1
  O  O2  1  0.04584400  0.21798900  0.57595300  1
  O  O3  1  0.06517600  0.40261500  0.30242500  1
  O  O4  1  0.24402600  0.09498500  0.01604800  1
  O  O5  1  0.22391200  0.90999900  0.62687900  1
  O  O6  1  0.28639100  0.79482000  0.31046500  1
  O  O7  1  0.29854100  0.55858200  0.48589900  1
  O  O8  1  0.28763400  0.71433900  0.91618400  1
  O  O9  1  0.36753400  0.20828700  0.81183500  1
  O  O10  1  0.34213600  0.49642500  0.11809300  1
  O  O11  1  0.39285500  0.13739400  0.22123400  1
  O  O12  1  0.40308100  0.15709900  0.44960600  1
  O  O13  1  0.39635800  0.54389600  0.69674300  1
  O  O14  1  0.60364200  0.45610400  0.30325700  1
  O  O15  1  0.59691900  0.84290100  0.55039400  1
  O  O16  1  0.60714500  0.86260600  0.77876600  1
  O  O17  1  0.65786400  0.50357500  0.88190700  1
  O  O18  1  0.63246600  0.79171300  0.18816500  1
  O  O19  1  0.71236600  0.28566100  0.08381600  1
  O  O20  1  0.70145900  0.44141800  0.51410100  1
  O  O21  1  0.71360900  0.20518000  0.68953500  1
  O  O22  1  0.77608800  0.09000100  0.37312100  1
  O  O23  1  0.75597400  0.90501500  0.98395200  1
  O  O24  1  0.93482400  0.59738500  0.69757500  1
  O  O25  1  0.95415600  0.78201100  0.42404700  1
  O  O26  1  0.01026000  0.02289700  0.18419100  1
  O  O27  1  0.99809800  0.33482700  0.91909800  1
loop_
_geom_bond_atom_site_label_1
_geom_bond_atom_site_label_2
_geom_bond_distance
_geom_bond_site_symmetry_2
Dy0 O10 2.254486 1_555
Dy0 O19 2.320392 1_455
Dy0 O3 2.367631 1_555
Dy0 O0 2.371750 1_555
Dy0 O26 2.379291 1_555
Dy0 O4 2.401105 1_555
Dy0 O27 2.415577 1_454
Dy1 O26 2.243558 1_555
Dy1 O12 2.272873 1_555
Dy1 O22 2.303016 1_455
Dy1 O3 2.320345 1_555
Dy1 O6 2.425209 1_545
Dy1 O25 2.554601 1_445
Dy1 O11 2.629158 1_555
Dy1 O2 2.835590 1_555
Dy2 O4 2.317245 1_565
Dy2 O10 2.325307 1_555
Dy2 O18 2.355476 1_555
Dy2 O11 2.392975 1_565
Dy2 O0 2.396621 1_555
Dy2 O6 2.459368 1_555
Dy2 O8 2.551823 1_554
Dy2 O26 2.603665 1_565
Dy3 O9 2.243657 1_555
Dy3 O5 2.266746 1_545
Dy3 O12 2.274659 1_555
Dy3 O2 2.329439 1_555
Dy3 O13 2.353995 1_555
Dy3 O21 2.397446 1_555
Dy4 O18 2.243657 1_555
Dy4 O22 2.266746 1_565
Dy4 O15 2.274659 1_555
Dy4 O25 2.329439 1_555
Dy4 O14 2.353995 1_555
Dy4 O6 2.397446 1_555
Dy5 O23 2.317245 1_545
Dy5 O17 2.325307 1_555
Dy5 O9 2.355476 1_555
Dy5 O16 2.392975 1_545
Dy5 O27 2.396621 1_555
Dy5 O21 2.459368 1_555
Dy5 O19 2.551823 1_556
Dy5 O1 2.603665 1_545
Dy6 O1 2.243558 1_555
Dy6 O15 2.272873 1_555
Dy6 O5 2.303016 1_655
Dy6 O24 2.320345 1_555
Dy6 O21 2.425209 1_565
Dy6 O2 2.554601 1_665
Dy6 O16 2.629158 1_555
Dy6 O25 2.835590 1_555
Dy7 O17 2.254486 1_555
Dy7 O8 2.320392 1_655
Dy7 O24 2.367631 1_555
Dy7 O27 2.371750 1_555
Dy7 O1 2.379291 1_555
Dy7 O23 2.401105 1_555
Dy7 O0 2.415577 1_656
Ge0 O3 1.747946 1_555
Ge0 O25 1.777785 1_455
Ge0 O6 1.797003 1_555
Ge0 O7 1.799126 1_555
Ge1 O9 1.737057 1_555
Ge1 O4 1.753724 1_556
Ge1 O1 1.777611 1_445
Ge1 O27 1.807329 1_455
Ge2 O5 1.745302 1_555
Ge2 O15 1.768794 1_555
Ge2 O13 1.794098 1_555
Ge2 O7 1.812179 1_555
Ge3 O19 1.750913 1_555
Ge3 O10 1.752638 1_555
Ge3 O11 1.777979 1_555
Ge3 O14 1.887903 1_555
Ge4 O8 1.750913 1_555
Ge4 O17 1.752638 1_555
Ge4 O16 1.777979 1_555
Ge4 O13 1.887903 1_555
Ge5 O22 1.745302 1_555
Ge5 O12 1.768794 1_555
Ge5 O14 1.794098 1_555
Ge5 O20 1.812179 1_555
Ge6 O18 1.737057 1_555
Ge6 O23 1.753724 1_554
Ge6 O26 1.777611 1_665
Ge6 O0 1.807329 1_655
Ge7 O24 1.747946 1_555
Ge7 O2 1.777785 1_655
Ge7 O21 1.797003 1_555
Ge7 O20 1.799126 1_555
