# generated using pymatgen
data_Li4MnFe3(BO3)4
_symmetry_space_group_name_H-M   'P 1'
_cell_length_a   5.22682200
_cell_length_b   5.22740748
_cell_length_c   20.79582749
_cell_angle_alpha   89.13321145
_cell_angle_beta   91.78225438
_cell_angle_gamma   119.75976104
_symmetry_Int_Tables_number   1
_chemical_formula_structural   Li4MnFe3(BO3)4
_chemical_formula_sum   'Li8 Mn2 Fe6 B8 O24'
_cell_volume   493.02278617
_cell_formula_units_Z   2
loop_
 _symmetry_equiv_pos_site_id
 _symmetry_equiv_pos_as_xyz
  1  'x, y, z'
loop_
 _atom_site_type_symbol
 _atom_site_label
 _atom_site_symmetry_multiplicity
 _atom_site_fract_x
 _atom_site_fract_y
 _atom_site_fract_z
 _atom_site_occupancy
  Li  Li0  1  0.65486800  0.98149400  0.33320700  1
  Li  Li1  1  0.67131100  0.02143500  0.08515000  1
  Li  Li2  1  0.65618200  0.97593700  0.83272500  1
  Li  Li3  1  0.67133500  0.01757000  0.58238500  1
  Li  Li4  1  0.33958400  0.98467400  0.20899400  1
  Li  Li5  1  0.35275400  0.01563100  0.45744000  1
  Li  Li6  1  0.34562600  0.98512700  0.70682900  1
  Li  Li7  1  0.34297600  0.01077900  0.95926800  1
  Mn  Mn0  1  0.00129100  0.33687400  0.94314100  1
  Mn  Mn1  1  0.32964800  0.32481700  0.81677600  1
  Fe  Fe0  1  0.00144000  0.33502500  0.44241500  1
  Fe  Fe1  1  0.99160900  0.67991800  0.06862500  1
  Fe  Fe2  1  0.99694200  0.67928700  0.56540800  1
  Fe  Fe3  1  0.31901700  0.32767200  0.31769900  1
  Fe  Fe4  1  0.66627300  0.66327400  0.19365700  1
  Fe  Fe5  1  0.66999300  0.65884400  0.68984300  1
  B  B0  1  0.33148000  0.33780000  0.06509100  1
  B  B1  1  0.33084100  0.33544400  0.56199200  1
  B  B2  1  0.00886200  0.33452400  0.18854500  1
  B  B3  1  0.01154900  0.33604300  0.68558000  1
  B  B4  1  0.99847500  0.66614800  0.31325700  1
  B  B5  1  0.00040800  0.65928700  0.81143400  1
  B  B6  1  0.67320200  0.66673200  0.43757600  1
  B  B7  1  0.66443900  0.66569700  0.93912600  1
  O  O0  1  0.25786100  0.31731800  0.20858400  1
  O  O1  1  0.26174400  0.32180800  0.70642200  1
  O  O2  1  0.06371600  0.32662800  0.04980900  1
  O  O3  1  0.57631000  0.60358000  0.08414000  1
  O  O4  1  0.06146800  0.32171400  0.54719100  1
  O  O5  1  0.57661700  0.60099100  0.58051200  1
  O  O6  1  0.03173100  0.60732000  0.17469800  1
  O  O7  1  0.65802400  0.92320000  0.43049900  1
  O  O8  1  0.03504800  0.60944000  0.67121900  1
  O  O9  1  0.63824100  0.91471800  0.93102000  1
  O  O10  1  0.73829000  0.07920000  0.18173200  1
  O  O11  1  0.74292900  0.08030500  0.67828200  1
  O  O12  1  0.27223900  0.91780000  0.30802500  1
  O  O13  1  0.27629500  0.90438700  0.80456000  1
  O  O14  1  0.35383600  0.08521300  0.05909100  1
  O  O15  1  0.97768400  0.39902500  0.33225900  1
  O  O16  1  0.35344200  0.08266800  0.55652800  1
  O  O17  1  0.96943100  0.39124700  0.83292100  1
  O  O18  1  0.42442400  0.39494700  0.42360800  1
  O  O19  1  0.42285200  0.38842000  0.92368500  1
  O  O20  1  0.93864400  0.68307400  0.45755200  1
  O  O21  1  0.92945300  0.68820800  0.96083500  1
  O  O22  1  0.74165100  0.67750500  0.29849100  1
  O  O23  1  0.74916700  0.68125400  0.79597000  1
loop_
_geom_bond_atom_site_label_1
_geom_bond_atom_site_label_2
_geom_bond_distance
_geom_bond_site_symmetry_2
Li0 O12 1.914137 1_555
Li0 O15 1.988962 1_565
Li0 O22 2.005682 1_555
Li0 O7 2.042303 1_555
Li1 O14 1.909500 1_555
Li1 O3 1.985490 1_545
Li1 O2 2.025341 1_655
Li1 O10 2.029160 1_555
Li2 O13 1.903312 1_555
Li2 O17 1.965989 1_565
Li2 O23 1.998830 1_555
Li2 O9 2.062037 1_555
Li3 O16 1.914668 1_555
Li3 O5 1.979848 1_545
Li3 O4 2.015125 1_655
Li3 O11 2.018956 1_555
Li4 O6 1.951699 1_555
Li4 O0 1.985666 1_565
Li4 O10 1.987775 1_565
Li4 O12 2.094880 1_555
Li5 O18 1.950330 1_555
Li5 O7 1.980506 1_545
Li5 O20 1.992949 1_445
Li5 O16 2.095016 1_555
Li6 O8 1.960813 1_555
Li6 O11 1.988576 1_565
Li6 O1 2.013735 1_565
Li6 O13 2.075600 1_555
Li7 O19 1.943120 1_555
Li7 O9 1.952859 1_545
Li7 O21 1.975017 1_445
Li7 O14 2.111675 1_556
Mn0 O21 2.088776 1_455
Mn0 O9 2.089077 1_445
Mn0 O19 2.134044 1_555
Mn0 O2 2.235776 1_556
Mn0 O17 2.316430 1_455
Mn1 O13 2.092011 1_545
Mn1 O23 2.108493 1_555
Mn1 O17 2.114266 1_455
Mn1 O19 2.254985 1_555
Mn1 O1 2.310342 1_555
Fe0 O7 2.017468 1_445
Fe0 O20 2.033125 1_455
Fe0 O18 2.121694 1_555
Fe0 O4 2.196695 1_555
Fe0 O15 2.318491 1_455
Fe1 O14 2.034973 1_665
Fe1 O3 2.038383 1_555
Fe1 O2 2.104236 1_655
Fe1 O6 2.253617 1_655
Fe1 O21 2.257843 1_554
Fe2 O16 2.015343 1_665
Fe2 O5 2.058935 1_555
Fe2 O4 2.099118 1_655
Fe2 O8 2.243989 1_655
Fe2 O20 2.255265 1_555
Fe3 O15 2.027658 1_455
Fe3 O12 2.044696 1_545
Fe3 O22 2.099061 1_555
Fe3 O18 2.243586 1_555
Fe3 O0 2.279366 1_555
Fe4 O10 2.026679 1_565
Fe4 O0 2.028694 1_555
Fe4 O6 2.120093 1_655
Fe4 O22 2.199096 1_555
Fe4 O3 2.305362 1_555
Fe5 O1 2.017783 1_555
Fe5 O11 2.052532 1_565
Fe5 O8 2.096578 1_655
Fe5 O23 2.226815 1_555
Fe5 O5 2.303107 1_555
B0 O14 1.389845 1_555
B0 O3 1.394602 1_555
B0 O2 1.398183 1_555
B1 O16 1.390397 1_555
B1 O5 1.393065 1_555
B1 O4 1.398445 1_555
B2 O10 1.385978 1_455
B2 O6 1.396865 1_555
B2 O0 1.398900 1_555
B3 O11 1.382407 1_455
B3 O8 1.400670 1_555
B3 O1 1.401396 1_555
B4 O12 1.388004 1_655
B4 O22 1.397393 1_555
B4 O15 1.397541 1_555
B5 O13 1.383676 1_555
B5 O17 1.396230 1_455
B5 O23 1.401210 1_455
B6 O7 1.387162 1_555
B6 O18 1.395959 1_555
B6 O20 1.397269 1_555
B7 O9 1.382229 1_555
B7 O21 1.391862 1_555
B7 O19 1.403707 1_555
