# generated using pymatgen
data_Li2FeO2F
_symmetry_space_group_name_H-M   'P 1'
_cell_length_a   5.20405441
_cell_length_b   5.20405441
_cell_length_c   9.88584279
_cell_angle_alpha   84.95999836
_cell_angle_beta   84.95999836
_cell_angle_gamma   120.94643357
_symmetry_Int_Tables_number   1
_chemical_formula_structural   Li2FeO2F
_chemical_formula_sum   'Li8 Fe4 O8 F4'
_cell_volume   225.94074460
_cell_formula_units_Z   4
loop_
 _symmetry_equiv_pos_site_id
 _symmetry_equiv_pos_as_xyz
  1  'x, y, z'
loop_
 _atom_site_type_symbol
 _atom_site_label
 _atom_site_symmetry_multiplicity
 _atom_site_fract_x
 _atom_site_fract_y
 _atom_site_fract_z
 _atom_site_occupancy
  Li  Li0  1  0.81938800  0.69729800  0.49918300  1
  Li  Li1  1  0.00000000  0.50000000  0.00000000  1
  Li  Li2  1  0.93066600  0.06933400  0.25000000  1
  Li  Li3  1  0.30270200  0.18061200  0.00081700  1
  Li  Li4  1  0.50000000  0.00000000  0.50000000  1
  Li  Li5  1  0.69729800  0.81938800  0.99918300  1
  Li  Li6  1  0.06933400  0.93066600  0.75000000  1
  Li  Li7  1  0.18061200  0.30270200  0.50081700  1
  Fe  Fe0  1  0.75180800  0.24819200  0.75000000  1
  Fe  Fe1  1  0.56125300  0.43874700  0.25000000  1
  Fe  Fe2  1  0.43874700  0.56125300  0.75000000  1
  Fe  Fe3  1  0.24819200  0.75180800  0.25000000  1
  O  O0  1  0.95680100  0.76397700  0.13572500  1
  O  O1  1  0.70104500  0.52509800  0.86764000  1
  O  O2  1  0.47490200  0.29895500  0.63236000  1
  O  O3  1  0.76397700  0.95680100  0.63572500  1
  O  O4  1  0.23602300  0.04319900  0.36427500  1
  O  O5  1  0.52509800  0.70104500  0.36764000  1
  O  O6  1  0.29895500  0.47490200  0.13236000  1
  O  O7  1  0.04319900  0.23602300  0.86427500  1
  F  F0  1  0.87413000  0.37644100  0.37488600  1
  F  F1  1  0.37644100  0.87413000  0.87488600  1
  F  F2  1  0.62355900  0.12587000  0.12511400  1
  F  F3  1  0.12587000  0.62355900  0.62511400  1
loop_
_geom_bond_atom_site_label_1
_geom_bond_atom_site_label_2
_geom_bond_distance
_geom_bond_site_symmetry_2
Li0 O3 2.093173 1_555
Li0 O5 2.100747 1_555
Li0 O2 2.127949 1_555
Li0 O4 2.185433 1_665
Li1 O0 2.080031 1_455
Li1 O7 2.080031 1_554
Li1 O1 2.164785 1_454
Li1 O6 2.164785 1_555
Li2 O0 2.081024 1_545
Li2 O4 2.081024 1_655
Li2 O5 2.120665 1_545
Li2 O6 2.120665 1_655
Li3 O7 2.093173 1_554
Li3 O6 2.100747 1_555
Li3 O1 2.127949 1_554
Li3 O0 2.185433 1_445
Li4 O3 2.080031 1_545
Li4 O4 2.080031 1_555
Li4 O5 2.164785 1_545
Li4 O2 2.164785 1_555
Li5 O0 2.093173 1_556
Li5 O1 2.100747 1_555
Li5 O6 2.127949 1_556
Li5 O7 2.185433 1_665
Li6 O3 2.081024 1_455
Li6 O7 2.081024 1_565
Li6 O1 2.120665 1_455
Li6 O2 2.120665 1_565
Li7 O4 2.093173 1_555
Li7 O2 2.100747 1_555
Li7 O5 2.127949 1_555
Li7 O3 2.185433 1_445
Fe0 O3 1.991720 1_545
Fe0 O7 1.991720 1_655
Fe0 O1 2.032453 1_555
Fe0 O2 2.032453 1_555
Fe1 O6 1.937984 1_555
Fe1 O5 1.937984 1_555
Fe1 O0 2.012553 1_555
Fe1 O4 2.012553 1_555
Fe2 O2 1.937984 1_555
Fe2 O1 1.937984 1_555
Fe2 O3 2.012553 1_555
Fe2 O7 2.012553 1_555
Fe3 O4 1.991720 1_565
Fe3 O0 1.991720 1_455
Fe3 O6 2.032453 1_555
Fe3 O5 2.032453 1_555
F0 Fe3 2.091083 1_655
F0 Li4 2.094446 1_555
F0 Li2 2.220704 1_555
F0 Fe1 2.259723 1_555
F0 Li7 2.266141 1_655
F0 Li0 2.273184 1_555
F1 Fe0 2.091083 1_565
F1 Li1 2.094446 1_556
F1 Li6 2.220704 1_555
F1 Fe2 2.259723 1_555
F1 Li3 2.266141 1_566
F1 Li5 2.273184 1_555
F2 Fe3 2.091083 1_545
F2 Li1 2.094446 1_655
F2 Li2 2.220704 1_555
F2 Fe1 2.259723 1_555
F2 Li5 2.266141 1_544
F2 Li3 2.273184 1_555
F3 Fe0 2.091083 1_455
F3 Li4 2.094446 1_565
F3 Li6 2.220704 1_555
F3 Fe2 2.259723 1_555
F3 Li0 2.266141 1_455
F3 Li7 2.273184 1_555
