# generated using pymatgen
data_Li4CrO4
_symmetry_space_group_name_H-M   'P 1'
_cell_length_a   5.33394455
_cell_length_b   10.66654712
_cell_length_c   6.04485033
_cell_angle_alpha   90.00006326
_cell_angle_beta   89.99994815
_cell_angle_gamma   93.88324542
_symmetry_Int_Tables_number   1
_chemical_formula_structural   Li4CrO4
_chemical_formula_sum   'Li16 Cr4 O16'
_cell_volume   343.13077625
_cell_formula_units_Z   4
loop_
 _symmetry_equiv_pos_site_id
 _symmetry_equiv_pos_as_xyz
  1  'x, y, z'
loop_
 _atom_site_type_symbol
 _atom_site_label
 _atom_site_symmetry_multiplicity
 _atom_site_fract_x
 _atom_site_fract_y
 _atom_site_fract_z
 _atom_site_occupancy
  Li  Li0  1  0.16048154  0.41974705  0.49995376  1
  Li  Li1  1  0.16048512  0.91974538  0.49995347  1
  Li  Li2  1  0.16048444  0.41974738  0.00004797  1
  Li  Li3  1  0.16048232  0.91974539  0.00004735  1
  Li  Li4  1  0.83951908  0.08025428  0.99995101  1
  Li  Li5  1  0.83951607  0.58025249  0.99995247  1
  Li  Li6  1  0.83951927  0.08025436  0.50004286  1
  Li  Li7  1  0.83951556  0.58025212  0.50004891  1
  Li  Li8  1  0.12482092  0.21017942  0.74999997  1
  Li  Li9  1  0.12481572  0.71016972  0.75000044  1
  Li  Li10  1  0.57971355  0.43760735  0.25000003  1
  Li  Li11  1  0.57971637  0.93760678  0.24999984  1
  Li  Li12  1  0.87519195  0.28983459  0.24999976  1
  Li  Li13  1  0.87518390  0.78982477  0.25000004  1
  Li  Li14  1  0.42028126  0.06239070  0.75000002  1
  Li  Li15  1  0.42027916  0.56238963  0.75000024  1
  Cr  Cr0  1  0.33997491  0.66995451  0.25000044  1
  Cr  Cr1  1  0.66002724  0.33004216  0.74999981  1
  Cr  Cr2  1  0.33996628  0.16998067  0.24999974  1
  Cr  Cr3  1  0.66003769  0.83001744  0.74999996  1
  O  O0  1  0.26571456  0.33023366  0.24999982  1
  O  O1  1  0.26570564  0.83025478  0.25000074  1
  O  O2  1  0.33955196  0.36719314  0.74999997  1
  O  O3  1  0.33953682  0.86719570  0.75000066  1
  O  O4  1  0.73428166  0.16974254  0.74999865  1
  O  O5  1  0.73426787  0.66976421  0.75000051  1
  O  O6  1  0.66047282  0.13281038  0.24999860  1
  O  O7  1  0.66045545  0.63281323  0.25000070  1
  O  O8  1  0.20378731  0.10193089  0.49598770  1
  O  O9  1  0.20379078  0.60193673  0.49597874  1
  O  O10  1  0.79620709  0.39806137  0.50402390  1
  O  O11  1  0.79621448  0.89806692  0.50401308  1
  O  O12  1  0.79620755  0.39806149  0.99597561  1
  O  O13  1  0.79621477  0.89806687  0.99598699  1
  O  O14  1  0.20378711  0.10193104  0.00401182  1
  O  O15  1  0.20379079  0.60193690  0.00402245  1
loop_
_geom_bond_atom_site_label_1
_geom_bond_atom_site_label_2
_geom_bond_distance
_geom_bond_site_symmetry_2
Li0 O0 1.892674 1_555
Li0 O2 1.893063 1_555
Li0 O10 1.941278 1_455
Li0 O9 1.941568 1_555
Li1 O1 1.892519 1_555
Li1 O3 1.893000 1_555
Li1 O11 1.941253 1_455
Li1 O8 1.941521 1_565
Li2 O0 1.892663 1_555
Li2 O2 1.893062 1_554
Li2 O12 1.941291 1_454
Li2 O15 1.941566 1_555
Li3 O1 1.892529 1_555
Li3 O3 1.893003 1_554
Li3 O13 1.941237 1_454
Li3 O14 1.941523 1_565
Li4 O4 1.892536 1_555
Li4 O6 1.893007 1_556
Li4 O14 1.941238 1_656
Li4 O13 1.941542 1_545
Li5 O5 1.892684 1_555
Li5 O7 1.893067 1_556
Li5 O15 1.941279 1_656
Li5 O12 1.941582 1_555
Li6 O4 1.892550 1_555
Li6 O6 1.892994 1_555
Li6 O8 1.941238 1_655
Li6 O11 1.941543 1_545
Li7 O5 1.892681 1_555
Li7 O7 1.893069 1_555
Li7 O9 1.941281 1_655
Li7 O10 1.941579 1_555
Li8 O2 1.963918 1_555
Li8 O14 1.983462 1_556
Li8 O8 1.983463 1_555
Li8 O4 2.098501 1_455
Li9 O3 1.963996 1_555
Li9 O9 1.983420 1_555
Li9 O15 1.983423 1_556
Li9 O5 2.098500 1_455
Li10 O0 1.963936 1_555
Li10 O10 1.983750 1_555
Li10 O12 1.983752 1_554
Li10 O7 2.097489 1_555
Li11 O1 1.963865 1_555
Li11 O13 1.983696 1_554
Li11 O11 1.983699 1_555
Li11 O6 2.097476 1_565
Li12 O6 1.963975 1_555
Li12 O10 1.983405 1_555
Li12 O12 1.983407 1_554
Li12 O0 2.098359 1_655
Li13 O7 1.963891 1_555
Li13 O11 1.983430 1_555
Li13 O13 1.983432 1_554
Li13 O1 2.098400 1_655
Li14 O4 1.963819 1_555
Li14 O14 1.983678 1_556
Li14 O8 1.983682 1_555
Li14 O3 2.097378 1_545
Li15 O5 1.963896 1_555
Li15 O9 1.983726 1_555
Li15 O15 1.983727 1_556
Li15 O2 2.097381 1_555
Cr0 O7 1.780678 1_555
Cr0 O1 1.781086 1_555
Cr0 O15 1.787040 1_555
Cr0 O9 1.787043 1_555
Cr1 O2 1.780680 1_555
Cr1 O4 1.781056 1_555
Cr1 O10 1.787028 1_555
Cr1 O12 1.787029 1_555
Cr2 O0 1.780567 1_555
Cr2 O6 1.780902 1_555
Cr2 O14 1.787210 1_555
Cr2 O8 1.787210 1_555
Cr3 O5 1.780537 1_555
Cr3 O3 1.780897 1_555
Cr3 O11 1.787199 1_555
Cr3 O13 1.787200 1_555
