# generated using pymatgen
data_Ba4ZrO6
_symmetry_space_group_name_H-M   'P 1'
_cell_length_a   7.48942154
_cell_length_b   7.48942154
_cell_length_c   7.48942158
_cell_angle_alpha   89.57891055
_cell_angle_beta   89.57891055
_cell_angle_gamma   89.57889977
_symmetry_Int_Tables_number   1
_chemical_formula_structural   Ba4ZrO6
_chemical_formula_sum   'Ba8 Zr2 O12'
_cell_volume   420.05853321
_cell_formula_units_Z   2
loop_
 _symmetry_equiv_pos_site_id
 _symmetry_equiv_pos_as_xyz
  1  'x, y, z'
loop_
 _atom_site_type_symbol
 _atom_site_label
 _atom_site_symmetry_multiplicity
 _atom_site_fract_x
 _atom_site_fract_y
 _atom_site_fract_z
 _atom_site_occupancy
  Ba  Ba0  1  0.75000000  0.11406100  0.38593900  1
  Ba  Ba1  1  0.61406100  0.25000000  0.88593900  1
  Ba  Ba2  1  0.88593900  0.61406100  0.25000000  1
  Ba  Ba3  1  0.25000000  0.25000000  0.25000000  1
  Ba  Ba4  1  0.75000000  0.75000000  0.75000000  1
  Ba  Ba5  1  0.11406100  0.38593900  0.75000000  1
  Ba  Ba6  1  0.38593900  0.75000000  0.11406100  1
  Ba  Ba7  1  0.25000000  0.88593900  0.61406100  1
  Zr  Zr0  1  0.50000000  0.50000000  0.50000000  1
  Zr  Zr1  1  0.00000000  0.00000000  0.00000000  1
  O  O0  1  0.92566400  0.05764000  0.72651600  1
  O  O1  1  0.94236000  0.27348400  0.07433600  1
  O  O2  1  0.77348400  0.44236000  0.57433600  1
  O  O3  1  0.27348400  0.07433600  0.94236000  1
  O  O4  1  0.42566400  0.22651600  0.55764000  1
  O  O5  1  0.55764000  0.42566400  0.22651600  1
  O  O6  1  0.44236000  0.57433600  0.77348400  1
  O  O7  1  0.57433600  0.77348400  0.44236000  1
  O  O8  1  0.72651600  0.92566400  0.05764000  1
  O  O9  1  0.22651600  0.55764000  0.42566400  1
  O  O10  1  0.05764000  0.72651600  0.92566400  1
  O  O11  1  0.07433600  0.94236000  0.27348400  1
loop_
_geom_bond_atom_site_label_1
_geom_bond_atom_site_label_2
_geom_bond_distance
_geom_bond_site_symmetry_2
Ba0 O8 2.851028 1_545
Ba0 O2 2.851028 1_555
Ba0 O11 2.864156 1_645
Ba0 O4 2.864156 1_555
Ba0 O0 2.905327 1_555
Ba0 O7 2.905327 1_545
Ba0 O5 2.980319 1_555
Ba0 O1 2.980320 1_555
Ba1 O4 2.851028 1_555
Ba1 O1 2.851028 1_556
Ba1 O6 2.864156 1_555
Ba1 O8 2.864156 1_546
Ba1 O5 2.905327 1_556
Ba1 O3 2.905327 1_555
Ba1 O0 2.980319 1_555
Ba1 O2 2.980320 1_555
Ba2 O5 2.851028 1_555
Ba2 O11 2.851028 1_655
Ba2 O10 2.864157 1_654
Ba2 O2 2.864157 1_555
Ba2 O1 2.905327 1_555
Ba2 O9 2.905327 1_655
Ba2 O8 2.980319 1_555
Ba2 O7 2.980319 1_555
Ba3 O9 2.665637 1_555
Ba3 O1 2.665637 1_455
Ba3 O4 2.665637 1_555
Ba3 O3 2.665637 1_554
Ba3 O5 2.665637 1_555
Ba3 O11 2.665637 1_545
Ba4 O10 2.665637 1_655
Ba4 O2 2.665637 1_555
Ba4 O8 2.665637 1_556
Ba4 O7 2.665637 1_555
Ba4 O0 2.665637 1_565
Ba4 O6 2.665637 1_555
Ba5 O0 2.851028 1_455
Ba5 O6 2.851028 1_555
Ba5 O1 2.864157 1_456
Ba5 O9 2.864157 1_555
Ba5 O2 2.905327 1_455
Ba5 O10 2.905327 1_555
Ba5 O3 2.980319 1_555
Ba5 O4 2.980319 1_555
Ba6 O7 2.851028 1_555
Ba6 O10 2.851028 1_554
Ba6 O5 2.864156 1_555
Ba6 O3 2.864156 1_564
Ba6 O6 2.905327 1_554
Ba6 O8 2.905327 1_555
Ba6 O11 2.980319 1_555
Ba6 O9 2.980320 1_555
Ba7 O3 2.851028 1_565
Ba7 O9 2.851028 1_555
Ba7 O0 2.864156 1_465
Ba7 O7 2.864156 1_555
Ba7 O11 2.905327 1_555
Ba7 O4 2.905327 1_565
Ba7 O6 2.980319 1_555
Ba7 O10 2.980320 1_555
O0 Zr1 2.166060 1_656
O1 Zr1 2.166060 1_655
O2 Zr0 2.166060 1_555
O3 Zr1 2.166060 1_556
O4 Zr0 2.166060 1_555
O5 Zr0 2.166060 1_555
O6 Zr0 2.166060 1_555
O7 Zr0 2.166060 1_555
O8 Zr1 2.166060 1_665
O9 Zr0 2.166060 1_555
O10 Zr1 2.166060 1_566
O11 Zr1 2.166060 1_565
