# generated using pymatgen
data_Ba8Cu8O19
_symmetry_space_group_name_H-M   'P 1'
_cell_length_a   5.75493000
_cell_length_b   9.40486782
_cell_length_c   9.91055499
_cell_angle_alpha   91.26330119
_cell_angle_beta   90.54894176
_cell_angle_gamma   90.05798501
_symmetry_Int_Tables_number   1
_chemical_formula_structural   Ba8Cu8O19
_chemical_formula_sum   'Ba8 Cu8 O19'
_cell_volume   536.24701138
_cell_formula_units_Z   1
loop_
 _symmetry_equiv_pos_site_id
 _symmetry_equiv_pos_as_xyz
  1  'x, y, z'
loop_
 _atom_site_type_symbol
 _atom_site_label
 _atom_site_symmetry_multiplicity
 _atom_site_fract_x
 _atom_site_fract_y
 _atom_site_fract_z
 _atom_site_occupancy
  Ba  Ba0  1  0.98413000  0.74971500  0.00889700  1
  Ba  Ba1  1  0.99264700  0.25480800  0.00324200  1
  Ba  Ba2  1  0.50245200  0.50131100  0.83522500  1
  Ba  Ba3  1  0.99049000  0.98747400  0.67288000  1
  Ba  Ba4  1  0.47891900  0.75608800  0.50658100  1
  Ba  Ba5  1  0.49417100  0.25096600  0.51207300  1
  Ba  Ba6  1  0.00031800  0.51686100  0.32996600  1
  Ba  Ba7  1  0.49546200  0.99915700  0.16251600  1
  Cu  Cu0  1  0.49656200  0.13504200  0.82436000  1
  Cu  Cu1  1  0.49090800  0.86040300  0.82429000  1
  Cu  Cu2  1  0.00268900  0.63324300  0.65872700  1
  Cu  Cu3  1  0.01780500  0.36377200  0.66662900  1
  Cu  Cu4  1  0.98949000  0.87224000  0.32539100  1
  Cu  Cu5  1  0.01411800  0.14664400  0.30354900  1
  Cu  Cu6  1  0.51616600  0.36501500  0.17113400  1
  Cu  Cu7  1  0.50371100  0.63740200  0.16300900  1
  O  O0  1  0.48127100  0.76631600  0.98489800  1
  O  O1  1  0.48959800  0.23444600  0.98563800  1
  O  O2  1  0.69225300  0.99984600  0.90380700  1
  O  O3  1  0.22520300  0.75080900  0.75973600  1
  O  O4  1  0.79122400  0.25584400  0.74130400  1
  O  O5  1  0.25173900  0.25262000  0.74750400  1
  O  O6  1  0.76439500  0.72689500  0.74523700  1
  O  O7  1  0.48298800  0.99676200  0.67477300  1
  O  O8  1  0.23475700  0.49609300  0.59004200  1
  O  O9  1  0.79323400  0.48528000  0.59595600  1
  O  O10  1  0.97123800  0.77570400  0.48598700  1
  O  O11  1  0.18227100  0.01874700  0.41075800  1
  O  O12  1  0.72516600  0.75786000  0.26045100  1
  O  O13  1  0.28188200  0.26988500  0.26416900  1
  O  O14  1  0.26667100  0.73516400  0.24835300  1
  O  O15  1  0.75170100  0.26255800  0.27277700  1
  O  O16  1  0.98915000  0.99139000  0.16304900  1
  O  O17  1  0.29150600  0.49445600  0.10247800  1
  O  O18  1  0.73821200  0.50201400  0.09534600  1
loop_
_geom_bond_atom_site_label_1
_geom_bond_atom_site_label_2
_geom_bond_distance
_geom_bond_site_symmetry_2
Ba0 O16 2.710513 1_555
Ba0 O3 2.844146 1_654
Ba0 O14 2.869713 1_655
Ba0 O18 2.875504 1_555
Ba0 O0 2.877517 1_654
Ba0 O6 2.895589 1_554
Ba0 O0 2.906041 1_554
Ba0 O12 2.916363 1_555
Ba0 O2 3.085895 1_554
Ba0 O17 3.134938 1_655
Ba1 O4 2.833059 1_554
Ba1 O1 2.873228 1_654
Ba1 O18 2.884705 1_555
Ba1 O1 2.904467 1_554
Ba1 O5 2.952552 1_654
Ba1 O16 2.969821 1_545
Ba1 O17 2.977787 1_655
Ba1 O15 3.020956 1_555
Ba1 O13 3.062462 1_655
Ba1 O2 3.092621 1_544
Ba2 O6 2.769776 1_555
Ba2 O5 2.861385 1_555
Ba2 O8 2.864092 1_555
Ba2 O0 2.875408 1_555
Ba2 O18 2.901535 1_556
Ba2 O9 2.916658 1_555
Ba2 O17 2.926107 1_556
Ba2 O3 2.945104 1_555
Ba2 O1 2.948481 1_555
Ba2 O4 2.983356 1_555
Ba3 O10 2.691222 1_555
Ba3 O3 2.754631 1_655
Ba3 O7 2.835419 1_655
Ba3 O4 2.844415 1_565
Ba3 O11 2.853249 1_665
Ba3 O2 2.874200 1_555
Ba3 O6 2.881345 1_555
Ba3 O7 2.922260 1_555
Ba3 O5 2.985887 1_665
Ba4 O7 2.781235 1_555
Ba4 O14 2.827993 1_555
Ba4 O12 2.833132 1_555
Ba4 O10 2.848639 1_555
Ba4 O6 2.885101 1_555
Ba4 O3 2.916258 1_555
Ba4 O10 2.933115 1_455
Ba4 O8 2.956715 1_555
Ba4 O11 3.162200 1_565
Ba4 O9 3.259050 1_555
Ba5 O5 2.729771 1_555
Ba5 O13 2.742740 1_555
Ba5 O15 2.812669 1_555
Ba5 O4 2.829575 1_555
Ba5 O8 2.844503 1_555
Ba5 O9 2.897176 1_555
Ba5 O7 2.914017 1_545
Ba5 O11 2.976697 1_555
Ba6 O14 2.703643 1_555
Ba6 O18 2.760335 1_455
Ba6 O17 2.826247 1_555
Ba6 O15 2.829536 1_455
Ba6 O12 2.859119 1_455
Ba6 O10 2.860934 1_455
Ba6 O13 2.899520 1_555
Ba6 O8 2.908269 1_555
Ba6 O9 2.924306 1_455
Ba7 O0 2.779857 1_554
Ba7 O2 2.812976 1_554
Ba7 O12 2.813926 1_555
Ba7 O16 2.842110 1_555
Ba7 O1 2.853213 1_564
Ba7 O16 2.914690 1_455
Ba7 O14 2.954604 1_555
Ba7 O13 2.987575 1_565
Ba7 O15 3.057416 1_565
Ba7 O11 3.066085 1_565
Cu0 O1 1.834601 1_555
Cu0 O2 1.880161 1_545
Cu0 O7 1.951347 1_545
Cu0 O5 1.951361 1_555
Cu0 O4 2.215403 1_555
Cu1 O0 1.839384 1_555
Cu1 O2 1.901952 1_555
Cu1 O3 1.938777 1_555
Cu1 O7 1.981177 1_555
Cu1 O6 2.156806 1_555
Cu2 O6 1.839340 1_455
Cu2 O9 1.928867 1_455
Cu2 O3 1.946342 1_555
Cu2 O8 1.973066 1_555
Cu2 O10 2.203261 1_455
Cu3 O4 1.824081 1_455
Cu3 O9 1.867538 1_455
Cu3 O5 1.888597 1_555
Cu3 O8 1.933991 1_555
Cu4 O10 1.853438 1_555
Cu4 O11 1.942345 1_665
Cu4 O12 1.957741 1_555
Cu4 O16 1.980839 1_555
Cu4 O14 2.184841 1_655
Cu5 O11 1.884472 1_555
Cu5 O15 1.889786 1_455
Cu5 O13 1.974379 1_555
Cu5 O16 1.999407 1_445
Cu6 O13 1.877826 1_555
Cu6 O17 1.907727 1_555
Cu6 O15 1.949326 1_555
Cu6 O18 1.978618 1_555
Cu6 O1 2.192171 1_554
Cu7 O14 1.847164 1_555
Cu7 O17 1.898874 1_555
Cu7 O12 1.940496 1_555
Cu7 O18 1.968604 1_555
Cu7 O0 2.166289 1_554
