# generated using pymatgen
data_LiFePO4
_symmetry_space_group_name_H-M   'P 1'
_cell_length_a   10.12487975
_cell_length_b   10.12487975
_cell_length_c   22.91587400
_cell_angle_alpha   90.00000000
_cell_angle_beta   90.00000000
_cell_angle_gamma   119.99999836
_symmetry_Int_Tables_number   1
_chemical_formula_structural   LiFePO4
_chemical_formula_sum   'Li24 Fe24 P24 O96'
_cell_volume   2034.44902331
_cell_formula_units_Z   24
loop_
 _symmetry_equiv_pos_site_id
 _symmetry_equiv_pos_as_xyz
  1  'x, y, z'
loop_
 _atom_site_type_symbol
 _atom_site_label
 _atom_site_symmetry_multiplicity
 _atom_site_fract_x
 _atom_site_fract_y
 _atom_site_fract_z
 _atom_site_occupancy
  Li  Li0  1  0.00207200  0.94332300  0.41892000  1
  Li  Li1  1  0.06359200  0.56312900  0.91644200  1
  Li  Li2  1  0.06123700  0.51598100  0.25610600  1
  Li  Li3  1  0.01886400  0.47788200  0.58699800  1
  Li  Li4  1  0.45901900  0.98113600  0.92033100  1
  Li  Li5  1  0.45474400  0.93876300  0.58944000  1
  Li  Li6  1  0.05667700  0.05874900  0.08558700  1
  Li  Li7  1  0.49953700  0.93640800  0.24977500  1
  Li  Li8  1  0.05874900  0.00207200  0.25225400  1
  Li  Li9  1  0.43687100  0.50046300  0.58310800  1
  Li  Li10  1  0.48401900  0.54525600  0.92277300  1
  Li  Li11  1  0.52211800  0.54098100  0.25366400  1
  Li  Li12  1  0.47788200  0.45901900  0.75366400  1
  Li  Li13  1  0.51598100  0.45474400  0.42277300  1
  Li  Li14  1  0.56312900  0.49953700  0.08310800  1
  Li  Li15  1  0.94125100  0.99792800  0.75225400  1
  Li  Li16  1  0.50046300  0.06359200  0.74977500  1
  Li  Li17  1  0.94332300  0.94125100  0.58558700  1
  Li  Li18  1  0.54525600  0.06123700  0.08944000  1
  Li  Li19  1  0.54098100  0.01886400  0.42033100  1
  Li  Li20  1  0.98113600  0.52211800  0.08699800  1
  Li  Li21  1  0.93876300  0.48401900  0.75610600  1
  Li  Li22  1  0.93640800  0.43687100  0.41644200  1
  Li  Li23  1  0.99792800  0.05667700  0.91892000  1
  Fe  Fe0  1  0.14385600  0.83269500  0.67904600  1
  Fe  Fe1  1  0.18714700  0.88343400  0.00964000  1
  Fe  Fe2  1  0.17377500  0.78701300  0.37677000  1
  Fe  Fe3  1  0.11656600  0.30371300  0.67630700  1
  Fe  Fe4  1  0.33117600  0.67615100  0.81836100  1
  Fe  Fe5  1  0.32384900  0.65502400  0.48502700  1
  Fe  Fe6  1  0.34497600  0.66882400  0.15169400  1
  Fe  Fe7  1  0.16730500  0.31116100  0.34571200  1
  Fe  Fe8  1  0.21298700  0.38676200  0.04343700  1
  Fe  Fe9  1  0.61323800  0.82622500  0.71010400  1
  Fe  Fe10  1  0.30371300  0.18714700  0.84297400  1
  Fe  Fe11  1  0.31116100  0.14385600  0.51237900  1
  Fe  Fe12  1  0.68883900  0.85614400  0.01237900  1
  Fe  Fe13  1  0.69628700  0.81285300  0.34297400  1
  Fe  Fe14  1  0.38676200  0.17377500  0.21010400  1
  Fe  Fe15  1  0.78701300  0.61323800  0.54343700  1
  Fe  Fe16  1  0.83269500  0.68883900  0.84571200  1
  Fe  Fe17  1  0.65502400  0.33117600  0.65169400  1
  Fe  Fe18  1  0.67615100  0.34497600  0.98502700  1
  Fe  Fe19  1  0.66882400  0.32384900  0.31836100  1
  Fe  Fe20  1  0.88343400  0.69628700  0.17630700  1
  Fe  Fe21  1  0.82622500  0.21298700  0.87677000  1
  Fe  Fe22  1  0.81285300  0.11656600  0.50964000  1
  Fe  Fe23  1  0.85614400  0.16730500  0.17904600  1
  P  P0  1  0.17234600  0.85489500  0.81343300  1
  P  P1  1  0.12907500  0.77760400  0.50891500  1
  P  P2  1  0.21750600  0.88052000  0.14682700  1
  P  P3  1  0.11948000  0.33698600  0.81349400  1
  P  P4  1  0.32743600  0.68860600  0.00904500  1
  P  P5  1  0.14510500  0.31745100  0.48010000  1
  P  P6  1  0.31139400  0.63883100  0.67571100  1
  P  P7  1  0.36116900  0.67256400  0.34237800  1
  P  P8  1  0.22239600  0.35147000  0.17558200  1
  P  P9  1  0.64853000  0.87092500  0.84224800  1
  P  P10  1  0.33698600  0.21750600  0.98016100  1
  P  P11  1  0.31745100  0.17234600  0.64676700  1
  P  P12  1  0.68254900  0.82765400  0.14676700  1
  P  P13  1  0.66301400  0.78249400  0.48016100  1
  P  P14  1  0.35147000  0.12907500  0.34224800  1
  P  P15  1  0.77760400  0.64853000  0.67558200  1
  P  P16  1  0.63883100  0.32743600  0.84237800  1
  P  P17  1  0.68860600  0.36116900  0.17571100  1
  P  P18  1  0.85489500  0.68254900  0.98010000  1
  P  P19  1  0.67256400  0.31139400  0.50904500  1
  P  P20  1  0.88052000  0.66301400  0.31349400  1
  P  P21  1  0.78249400  0.11948000  0.64682700  1
  P  P22  1  0.87092500  0.22239600  0.00891500  1
  P  P23  1  0.82765400  0.14510500  0.31343300  1
  O  O0  1  0.01743800  0.70717500  0.79902900  1
  O  O1  1  0.13282300  0.96965700  0.84312400  1
  O  O2  1  0.01215400  0.68087500  0.55715300  1
  O  O3  1  0.12872800  0.92882100  0.49631100  1
  O  O4  1  0.17686400  0.98336200  0.18517200  1
  O  O5  1  0.07046500  0.72627200  0.13321600  1
  O  O6  1  0.07993700  0.67591100  0.45235500  1
  O  O7  1  0.26119400  0.92058300  0.75538700  1
  O  O8  1  0.28683800  0.96387700  0.08822000  1
  O  O9  1  0.15807200  0.63853800  0.67767600  1
  O  O10  1  0.21111100  0.71316700  0.97318800  1
  O  O11  1  0.27454900  0.82260500  0.85506100  1
  O  O12  1  0.21200400  0.65573900  0.31627900  1
  O  O13  1  0.29048300  0.81267100  0.52773200  1
  O  O14  1  0.03612300  0.32296000  0.75488700  1
  O  O15  1  0.33855500  0.85709300  0.17988300  1
  O  O16  1  0.14290700  0.48146300  0.84655000  1
  O  O17  1  0.01663800  0.19350200  0.85183900  1
  O  O18  1  0.07941700  0.34061100  0.42205300  1
  O  O19  1  0.03034300  0.16316600  0.50979100  1
  O  O20  1  0.25519900  0.63031700  0.07095200  1
  O  O21  1  0.07117900  0.19990700  0.16297700  1
  O  O22  1  0.17739500  0.45194400  0.52172800  1
  O  O23  1  0.18732900  0.47781200  0.19439900  1
  O  O24  1  0.37511700  0.74480100  0.40428500  1
  O  O25  1  0.28683300  0.49794400  0.63985500  1
  O  O26  1  0.36968300  0.62488300  0.73761800  1
  O  O27  1  0.34426100  0.55626500  0.98294600  1
  O  O28  1  0.44373500  0.78799600  0.64961300  1
  O  O29  1  0.48046600  0.84192800  0.01101000  1
  O  O30  1  0.36146200  0.51953400  0.34434300  1
  O  O31  1  0.16316600  0.13282300  0.67645800  1
  O  O32  1  0.19350200  0.17686400  0.01850600  1
  O  O33  1  0.27372800  0.34419300  0.79988300  1
  O  O34  1  0.32408900  0.40402600  0.11902100  1
  O  O35  1  0.50205600  0.78888900  0.30652100  1
  O  O36  1  0.19990700  0.12872800  0.32964400  1
  O  O37  1  0.29282500  0.31026200  0.46569600  1
  O  O38  1  0.31912500  0.33127900  0.22382000  1
  O  O39  1  0.52218800  0.70951700  0.86106500  1
  O  O40  1  0.59597400  0.92006300  0.78568800  1
  O  O41  1  0.54805600  0.72545100  0.18839400  1
  O  O42  1  0.32296000  0.28683800  0.92155400  1
  O  O43  1  0.66872100  0.98784600  0.89048600  1
  O  O44  1  0.51853700  0.66144500  0.51321600  1
  O  O45  1  0.34061100  0.26119400  0.58872000  1
  O  O46  1  0.65580700  0.92953500  0.46654900  1
  O  O47  1  0.68973800  0.98256200  0.13236200  1
  O  O48  1  0.31026200  0.01743800  0.63236200  1
  O  O49  1  0.34419300  0.07046500  0.96654900  1
  O  O50  1  0.65938900  0.73880600  0.08872000  1
  O  O51  1  0.48146300  0.33855500  0.01321600  1
  O  O52  1  0.33127900  0.01215400  0.39048600  1
  O  O53  1  0.67704000  0.71316200  0.42155400  1
  O  O54  1  0.45194400  0.27454900  0.68839400  1
  O  O55  1  0.40402600  0.07993700  0.28568800  1
  O  O56  1  0.47781200  0.29048300  0.36106500  1
  O  O57  1  0.68087500  0.66872100  0.72382000  1
  O  O58  1  0.70717500  0.68973800  0.96569600  1
  O  O59  1  0.80009300  0.87127200  0.82964400  1
  O  O60  1  0.49794400  0.21111100  0.80652100  1
  O  O61  1  0.67591100  0.59597400  0.61902100  1
  O  O62  1  0.72627200  0.65580700  0.29988300  1
  O  O63  1  0.80649800  0.82313600  0.51850600  1
  O  O64  1  0.83683400  0.86717700  0.17645800  1
  O  O65  1  0.63853800  0.48046600  0.84434300  1
  O  O66  1  0.51953400  0.15807200  0.51101000  1
  O  O67  1  0.55626500  0.21200400  0.14961300  1
  O  O68  1  0.65573900  0.44373500  0.48294600  1
  O  O69  1  0.63031700  0.37511700  0.23761800  1
  O  O70  1  0.71316700  0.50205600  0.13985500  1
  O  O71  1  0.62488300  0.25519900  0.90428500  1
  O  O72  1  0.81267100  0.52218800  0.69439900  1
  O  O73  1  0.82260500  0.54805600  0.02172800  1
  O  O74  1  0.92882100  0.80009300  0.66297700  1
  O  O75  1  0.74480100  0.36968300  0.57095200  1
  O  O76  1  0.96965700  0.83683400  0.00979100  1
  O  O77  1  0.92058300  0.65938900  0.92205300  1
  O  O78  1  0.98336200  0.80649800  0.35183900  1
  O  O79  1  0.85709300  0.51853700  0.34655000  1
  O  O80  1  0.66144500  0.14290700  0.67988300  1
  O  O81  1  0.96387700  0.67704000  0.25488700  1
  O  O82  1  0.70951700  0.18732900  0.02773200  1
  O  O83  1  0.78799600  0.34426100  0.81627900  1
  O  O84  1  0.72545100  0.17739500  0.35506100  1
  O  O85  1  0.78888900  0.28683300  0.47318800  1
  O  O86  1  0.84192800  0.36146200  0.17767600  1
  O  O87  1  0.71316200  0.03612300  0.58822000  1
  O  O88  1  0.73880600  0.07941700  0.25538700  1
  O  O89  1  0.92006300  0.32408900  0.95235500  1
  O  O90  1  0.92953500  0.27372800  0.63321600  1
  O  O91  1  0.82313600  0.01663800  0.68517200  1
  O  O92  1  0.87127200  0.07117900  0.99631100  1
  O  O93  1  0.98784600  0.31912500  0.05715300  1
  O  O94  1  0.86717700  0.03034300  0.34312400  1
  O  O95  1  0.98256200  0.29282500  0.29902900  1
loop_
_geom_bond_atom_site_label_1
_geom_bond_atom_site_label_2
_geom_bond_distance
_geom_bond_site_symmetry_2
Li0 O78 2.013866 1_455
Li0 O3 2.235975 1_555
Li1 O10 1.990131 1_555
Li1 O77 2.115225 1_455
Li1 O16 2.134911 1_555
Li1 O89 2.264861 1_455
Li2 O12 2.018386 1_555
Li2 O23 2.066929 1_555
Li2 O95 2.215230 1_455
Li2 O81 2.288924 1_455
Li3 O90 2.083958 1_455
Li3 O2 2.199130 1_555
Li3 O22 2.303051 1_555
Li3 O75 2.448529 1_455
Li3 O9 2.580265 1_555
Li4 O49 2.083966 1_565
Li4 O43 2.199121 1_555
Li4 O11 2.303056 1_555
Li4 O71 2.448529 1_565
Li4 O29 2.580279 1_556
Li5 O28 2.018386 1_555
Li5 O13 2.066945 1_555
Li5 O48 2.215229 1_565
Li5 O87 2.288914 1_565
Li6 O32 2.013866 1_555
Li6 O21 2.235956 1_555
Li7 O35 1.990131 1_555
Li7 O88 2.115226 1_565
Li7 O15 2.134916 1_555
Li7 O55 2.264861 1_565
Li8 O4 2.013883 1_545
Li8 O36 2.235956 1_555
Li9 O25 1.990146 1_555
Li9 O45 2.115226 1_555
Li9 O44 2.134916 1_555
Li9 O61 2.264861 1_555
Li10 O27 2.018386 1_555
Li10 O39 2.066945 1_555
Li10 O58 2.215232 1_555
Li10 O42 2.288916 1_555
Li11 O62 2.083970 1_555
Li11 O38 2.199118 1_555
Li11 O41 2.303059 1_555
Li11 O69 2.448529 1_555
Li11 O30 2.580285 1_555
Li12 O33 2.083970 1_555
Li12 O57 2.199118 1_555
Li12 O54 2.303059 1_555
Li12 O26 2.448529 1_555
Li12 O65 2.580285 1_555
Li13 O68 2.018386 1_555
Li13 O56 2.066945 1_555
Li13 O37 2.215232 1_555
Li13 O53 2.288916 1_555
Li14 O70 1.990146 1_555
Li14 O50 2.115226 1_555
Li14 O51 2.134916 1_555
Li14 O34 2.264861 1_555
Li15 O91 2.013883 1_565
Li15 O59 2.235956 1_555
Li16 O60 1.990131 1_555
Li16 O7 2.115226 1_545
Li16 O80 2.134916 1_555
Li16 O40 2.264861 1_545
Li17 O63 2.013866 1_555
Li17 O74 2.235956 1_555
Li18 O67 2.018386 1_555
Li18 O82 2.066945 1_555
Li18 O47 2.215229 1_545
Li18 O8 2.288914 1_545
Li19 O46 2.083966 1_545
Li19 O52 2.199121 1_555
Li19 O84 2.303056 1_555
Li19 O24 2.448529 1_545
Li19 O66 2.580279 1_555
Li20 O5 2.083958 1_655
Li20 O93 2.199130 1_555
Li20 O73 2.303051 1_555
Li20 O20 2.448529 1_655
Li20 O86 2.580265 1_555
Li21 O83 2.018386 1_555
Li21 O72 2.066929 1_555
Li21 O0 2.215230 1_655
Li21 O14 2.288924 1_655
Li22 O85 1.990131 1_555
Li22 O18 2.115225 1_655
Li22 O79 2.134911 1_555
Li22 O6 2.264861 1_655
Li23 O17 2.013866 1_655
Li23 O92 2.235975 1_555
Fe0 O9 2.041834 1_555
Fe0 O7 2.050990 1_555
Fe0 O74 2.065453 1_455
Fe0 O48 2.080973 1_565
Fe1 O76 2.008163 1_455
Fe1 O49 2.019487 1_564
Fe1 O8 2.025513 1_555
Fe1 O10 2.036387 1_554
Fe2 O6 2.024715 1_555
Fe2 O52 2.050109 1_565
Fe2 O12 2.086249 1_555
Fe2 O78 2.112463 1_455
Fe2 O24 2.367961 1_555
Fe3 O31 2.008163 1_555
Fe3 O90 2.019487 1_455
Fe3 O14 2.025510 1_555
Fe3 O25 2.036387 1_555
Fe4 O26 2.011822 1_555
Fe4 O11 2.021131 1_555
Fe4 O39 2.039287 1_555
Fe4 O16 2.044260 1_555
Fe5 O24 2.011808 1_555
Fe5 O22 2.021134 1_555
Fe5 O13 2.039306 1_555
Fe5 O44 2.044251 1_555
Fe6 O20 2.011808 1_555
Fe6 O41 2.021123 1_555
Fe6 O23 2.039301 1_555
Fe6 O15 2.044270 1_555
Fe7 O30 2.041834 1_555
Fe7 O18 2.050990 1_555
Fe7 O36 2.065449 1_555
Fe7 O95 2.080965 1_455
Fe8 O34 2.024696 1_555
Fe8 O93 2.050109 1_455
Fe8 O27 2.086249 1_554
Fe8 O32 2.112463 1_555
Fe8 O20 2.367970 1_555
Fe9 O40 2.024696 1_555
Fe9 O57 2.050109 1_555
Fe9 O28 2.086249 1_555
Fe9 O91 2.112469 1_565
Fe9 O26 2.367961 1_555
Fe10 O1 2.008163 1_545
Fe10 O33 2.019487 1_555
Fe10 O42 2.025515 1_555
Fe10 O60 2.036397 1_555
Fe11 O66 2.041834 1_555
Fe11 O45 2.050990 1_555
Fe11 O3 2.065449 1_545
Fe11 O37 2.080956 1_555
Fe12 O29 2.041834 1_555
Fe12 O50 2.050990 1_555
Fe12 O92 2.065449 1_564
Fe12 O58 2.080956 1_554
Fe13 O94 2.008163 1_565
Fe13 O62 2.019487 1_555
Fe13 O53 2.025515 1_555
Fe13 O35 2.036397 1_555
Fe14 O55 2.024696 1_555
Fe14 O38 2.050109 1_555
Fe14 O67 2.086249 1_555
Fe14 O4 2.112469 1_545
Fe14 O69 2.367961 1_555
Fe15 O61 2.024696 1_555
Fe15 O2 2.050109 1_655
Fe15 O68 2.086249 1_555
Fe15 O63 2.112463 1_555
Fe15 O75 2.367970 1_555
Fe16 O65 2.041834 1_555
Fe16 O77 2.050990 1_555
Fe16 O59 2.065449 1_555
Fe16 O0 2.080965 1_655
Fe17 O75 2.011808 1_555
Fe17 O54 2.021123 1_555
Fe17 O72 2.039301 1_555
Fe17 O80 2.044270 1_555
Fe18 O71 2.011808 1_555
Fe18 O73 2.021134 1_556
Fe18 O82 2.039306 1_556
Fe18 O51 2.044251 1_556
Fe19 O69 2.011822 1_555
Fe19 O84 2.021131 1_555
Fe19 O56 2.039287 1_555
Fe19 O79 2.044260 1_555
Fe20 O64 2.008163 1_555
Fe20 O5 2.019487 1_655
Fe20 O81 2.025510 1_555
Fe20 O70 2.036387 1_555
Fe21 O89 2.024715 1_555
Fe21 O43 2.050109 1_545
Fe21 O83 2.086249 1_555
Fe21 O17 2.112463 1_655
Fe21 O71 2.367961 1_555
Fe22 O19 2.008163 1_655
Fe22 O46 2.019487 1_545
Fe22 O87 2.025513 1_555
Fe22 O85 2.036387 1_555
Fe23 O86 2.041834 1_555
Fe23 O88 2.050990 1_555
Fe23 O21 2.065453 1_655
Fe23 O47 2.080973 1_545
O0 P0 1.568458 1_555
O1 P0 1.561465 1_555
O2 P1 1.556640 1_555
O3 P1 1.559789 1_555
O4 P2 1.566576 1_555
O5 P2 1.558105 1_555
O6 P1 1.573319 1_555
O7 P0 1.556485 1_555
O8 P2 1.554462 1_555
O9 P6 1.551539 1_555
O10 P4 1.554692 1_556
O11 P0 1.557560 1_555
O12 P7 1.552541 1_555
O13 P1 1.549998 1_555
O14 P3 1.554460 1_555
O15 P2 1.556566 1_555
O16 P3 1.556575 1_555
O17 P3 1.566576 1_555
O18 P5 1.556504 1_555
O19 P5 1.561465 1_555
O20 P4 1.569766 1_555
O21 P8 1.559788 1_555
O22 P5 1.557560 1_555
O23 P8 1.550008 1_555
O24 P7 1.569766 1_555
O25 P6 1.554688 1_555
O26 P6 1.569766 1_555
O27 P4 1.552550 1_556
O28 P6 1.552536 1_555
O29 P4 1.551544 1_555
O30 P7 1.551549 1_555
O31 P11 1.561465 1_555
O32 P10 1.566576 1_554
O33 P3 1.558105 1_555
O34 P8 1.573338 1_555
O35 P7 1.554697 1_555
O36 P14 1.559779 1_555
O37 P5 1.568463 1_555
O38 P8 1.556636 1_555
O39 P9 1.550001 1_555
O40 P9 1.573324 1_555
O41 P12 1.557546 1_555
O42 P10 1.554465 1_555
O43 P9 1.556643 1_555
O44 P13 1.556561 1_555
O45 P11 1.556504 1_555
O46 P13 1.558109 1_555
O47 P12 1.568458 1_555
O48 P11 1.568458 1_555
O49 P10 1.558109 1_555
O50 P12 1.556504 1_555
O51 P10 1.556561 1_554
O52 P14 1.556643 1_555
O53 P13 1.554465 1_555
O54 P11 1.557546 1_555
O55 P14 1.573324 1_555
O56 P14 1.550001 1_555
O57 P15 1.556636 1_555
O58 P18 1.568463 1_555
O59 P9 1.559779 1_555
O60 P16 1.554697 1_555
O61 P15 1.573338 1_555
O62 P20 1.558105 1_555
O63 P13 1.566576 1_555
O64 P12 1.561465 1_555
O65 P16 1.551549 1_555
O66 P19 1.551544 1_555
O67 P17 1.552536 1_555
O68 P19 1.552550 1_555
O69 P17 1.569766 1_555
O70 P17 1.554688 1_555
O71 P16 1.569766 1_555
O72 P15 1.550008 1_555
O73 P18 1.557560 1_554
O74 P15 1.559788 1_555
O75 P19 1.569766 1_555
O76 P18 1.561465 1_554
O77 P18 1.556504 1_555
O78 P20 1.566576 1_555
O79 P20 1.556575 1_555
O80 P21 1.556566 1_555
O81 P20 1.554460 1_555
O82 P22 1.549998 1_555
O83 P16 1.552541 1_555
O84 P23 1.557560 1_555
O85 P19 1.554692 1_555
O86 P17 1.551539 1_555
O87 P21 1.554462 1_555
O88 P23 1.556485 1_555
O89 P22 1.573319 1_556
O90 P21 1.558105 1_555
O91 P21 1.566576 1_555
O92 P22 1.559789 1_556
O93 P22 1.556640 1_555
O94 P23 1.561465 1_555
O95 P23 1.568458 1_555
