# generated using pymatgen
data_Ta3AgO8
_symmetry_space_group_name_H-M   'P 1'
_cell_length_a   5.26462200
_cell_length_b   7.76365300
_cell_length_c   15.84573218
_cell_angle_alpha   73.02336450
_cell_angle_beta   90.00000000
_cell_angle_gamma   90.00000000
_symmetry_Int_Tables_number   1
_chemical_formula_structural   Ta3AgO8
_chemical_formula_sum   'Ta12 Ag4 O32'
_cell_volume   619.43543084
_cell_formula_units_Z   4
loop_
 _symmetry_equiv_pos_site_id
 _symmetry_equiv_pos_as_xyz
  1  'x, y, z'
loop_
 _atom_site_type_symbol
 _atom_site_label
 _atom_site_symmetry_multiplicity
 _atom_site_fract_x
 _atom_site_fract_y
 _atom_site_fract_z
 _atom_site_occupancy
  Ta  Ta0  1  0.25902300  0.00964800  0.16535800  1
  Ta  Ta1  1  0.76192600  0.75725200  0.08368600  1
  Ta  Ta2  1  0.26487400  0.50020200  0.16511800  1
  Ta  Ta3  1  0.75902300  0.99035200  0.33464200  1
  Ta  Ta4  1  0.76487400  0.49979800  0.33488200  1
  Ta  Ta5  1  0.26192600  0.24274800  0.41631400  1
  Ta  Ta6  1  0.73807400  0.75725200  0.58368600  1
  Ta  Ta7  1  0.23512600  0.50020200  0.66511800  1
  Ta  Ta8  1  0.24097700  0.00964800  0.66535800  1
  Ta  Ta9  1  0.73512600  0.49979800  0.83488200  1
  Ta  Ta10  1  0.23807400  0.24274800  0.91631400  1
  Ta  Ta11  1  0.74097700  0.99035200  0.83464200  1
  Ag  Ag0  1  0.75944800  0.26834900  0.07798500  1
  Ag  Ag1  1  0.25944800  0.73165100  0.42201500  1
  Ag  Ag2  1  0.74055200  0.26834900  0.57798500  1
  Ag  Ag3  1  0.24055200  0.73165100  0.92201500  1
  O  O0  1  0.14768400  0.13251300  0.03485200  1
  O  O1  1  0.57527400  0.94826000  0.11042000  1
  O  O2  1  0.45767200  0.64382800  0.05855600  1
  O  O3  1  0.95691600  0.52442200  0.09869400  1
  O  O4  1  0.35244800  0.27241000  0.15699600  1
  O  O5  1  0.94250800  0.05903500  0.22540200  1
  O  O6  1  0.09062600  0.78852900  0.15461900  1
  O  O7  1  0.44250800  0.94096500  0.27459800  1
  O  O8  1  0.59583200  0.57578900  0.21820100  1
  O  O9  1  0.85244800  0.72759000  0.34300400  1
  O  O10  1  0.09583200  0.42421100  0.28179900  1
  O  O11  1  0.59062600  0.21147100  0.34538100  1
  O  O12  1  0.07527400  0.05174000  0.38958000  1
  O  O13  1  0.64768400  0.86748700  0.46514800  1
  O  O14  1  0.45691600  0.47557800  0.40130600  1
  O  O15  1  0.04232800  0.64382800  0.55855600  1
  O  O16  1  0.95767200  0.35617200  0.44144400  1
  O  O17  1  0.54308400  0.52442200  0.59869400  1
  O  O18  1  0.35231600  0.13251300  0.53485200  1
  O  O19  1  0.92472600  0.94826000  0.61042000  1
  O  O20  1  0.40937400  0.78852900  0.65461900  1
  O  O21  1  0.90416800  0.57578900  0.71820100  1
  O  O22  1  0.14755200  0.27241000  0.65699600  1
  O  O23  1  0.40416800  0.42421100  0.78179900  1
  O  O24  1  0.55749200  0.05903500  0.72540200  1
  O  O25  1  0.90937400  0.21147100  0.84538100  1
  O  O26  1  0.05749200  0.94096500  0.77459800  1
  O  O27  1  0.64755200  0.72759000  0.84300400  1
  O  O28  1  0.04308400  0.47557800  0.90130600  1
  O  O29  1  0.54232800  0.35617200  0.94144400  1
  O  O30  1  0.42472600  0.05174000  0.88958000  1
  O  O31  1  0.85231600  0.86748700  0.96514800  1
loop_
_geom_bond_atom_site_label_1
_geom_bond_atom_site_label_2
_geom_bond_distance
_geom_bond_site_symmetry_2
Ag0 O3 2.349850 1_555
Ag0 O29 2.364558 1_554
Ag0 O0 2.485515 1_655
Ag0 O4 2.486501 1_555
Ag0 O1 2.575649 1_545
Ag0 O5 2.609485 1_555
Ag1 O14 2.349850 1_555
Ag1 O15 2.364558 1_555
Ag1 O13 2.485515 1_555
Ag1 O9 2.486501 1_455
Ag1 O12 2.575649 1_565
Ag1 O7 2.609485 1_555
Ag2 O17 2.349850 1_555
Ag2 O16 2.364558 1_555
Ag2 O18 2.485515 1_555
Ag2 O22 2.486501 1_655
Ag2 O19 2.575649 1_545
Ag2 O24 2.609485 1_555
Ag3 O28 2.349850 1_555
Ag3 O2 2.364558 1_556
Ag3 O31 2.485515 1_455
Ag3 O27 2.486501 1_555
Ag3 O30 2.575649 1_565
Ag3 O26 2.609485 1_555
O0 Ta10 1.883680 1_554
O0 Ta0 2.092372 1_555
O1 Ta1 1.926383 1_555
O1 Ta0 1.999821 1_565
O2 Ta1 1.924700 1_555
O2 Ta2 2.006317 1_555
O3 Ta2 1.912112 1_655
O3 Ta1 2.031449 1_555
O4 Ta2 1.868053 1_555
O4 Ta0 2.064751 1_555
O5 Ta3 1.916967 1_545
O5 Ta0 2.010460 1_655
O6 Ta0 1.983063 1_565
O6 Ta1 2.115716 1_455
O6 Ta2 2.379599 1_555
O7 Ta0 1.916967 1_565
O7 Ta3 2.010460 1_555
O8 Ta4 1.980276 1_555
O8 Ta2 2.091885 1_555
O8 Ta1 2.353519 1_555
O9 Ta4 1.868053 1_555
O9 Ta3 2.064751 1_555
O10 Ta2 1.980276 1_555
O10 Ta4 2.091885 1_455
O10 Ta5 2.353519 1_555
O11 Ta3 1.983063 1_545
O11 Ta5 2.115716 1_555
O11 Ta4 2.379599 1_555
O12 Ta5 1.926383 1_555
O12 Ta3 1.999821 1_445
O13 Ta6 1.883680 1_555
O13 Ta3 2.092372 1_555
O14 Ta4 1.912112 1_555
O14 Ta5 2.031449 1_555
O15 Ta6 1.924700 1_455
O15 Ta7 2.006317 1_555
O16 Ta5 1.924700 1_655
O16 Ta4 2.006317 1_555
O17 Ta7 1.912112 1_555
O17 Ta6 2.031449 1_555
O18 Ta5 1.883680 1_555
O18 Ta8 2.092372 1_555
O19 Ta6 1.926383 1_555
O19 Ta8 1.999821 1_665
O20 Ta8 1.983063 1_565
O20 Ta6 2.115716 1_555
O20 Ta7 2.379599 1_555
O21 Ta9 1.980276 1_555
O21 Ta7 2.091885 1_655
O21 Ta6 2.353519 1_555
O22 Ta7 1.868053 1_555
O22 Ta8 2.064751 1_555
O23 Ta7 1.980276 1_555
O23 Ta9 2.091885 1_555
O23 Ta10 2.353519 1_555
O24 Ta11 1.916967 1_545
O24 Ta8 2.010460 1_555
O25 Ta11 1.983063 1_545
O25 Ta10 2.115716 1_655
O25 Ta9 2.379599 1_555
O26 Ta8 1.916967 1_565
O26 Ta11 2.010460 1_455
O27 Ta9 1.868053 1_555
O27 Ta11 2.064751 1_555
O28 Ta9 1.912112 1_455
O28 Ta10 2.031449 1_555
O29 Ta10 1.924700 1_555
O29 Ta9 2.006317 1_555
O30 Ta10 1.926383 1_555
O30 Ta11 1.999821 1_545
O31 Ta1 1.883680 1_556
O31 Ta11 2.092372 1_555
