# generated using pymatgen
data_Li3Cu2(SO4)3
_symmetry_space_group_name_H-M   'P 1'
_cell_length_a   8.77893600
_cell_length_b   8.66466600
_cell_length_c   15.25941672
_cell_angle_alpha   55.94953345
_cell_angle_beta   90.00000000
_cell_angle_gamma   90.00000000
_symmetry_Int_Tables_number   1
_chemical_formula_structural   Li3Cu2(SO4)3
_chemical_formula_sum   'Li12 Cu8 S12 O48'
_cell_volume   961.71766110
_cell_formula_units_Z   4
loop_
 _symmetry_equiv_pos_site_id
 _symmetry_equiv_pos_as_xyz
  1  'x, y, z'
loop_
 _atom_site_type_symbol
 _atom_site_label
 _atom_site_symmetry_multiplicity
 _atom_site_fract_x
 _atom_site_fract_y
 _atom_site_fract_z
 _atom_site_occupancy
  Li  Li0  1  0.91699700  0.37857900  0.69842400  1
  Li  Li1  1  0.30346700  0.33511700  0.75331700  1
  Li  Li2  1  0.22711700  0.03075300  0.17890600  1
  Li  Li3  1  0.72711700  0.96924700  0.32109400  1
  Li  Li4  1  0.80346700  0.66488300  0.74668300  1
  Li  Li5  1  0.41699700  0.62142100  0.80157600  1
  Li  Li6  1  0.58300300  0.37857900  0.19842400  1
  Li  Li7  1  0.19653300  0.33511700  0.25331700  1
  Li  Li8  1  0.27288300  0.03075300  0.67890600  1
  Li  Li9  1  0.77288300  0.96924700  0.82109400  1
  Li  Li10  1  0.69653300  0.66488300  0.24668300  1
  Li  Li11  1  0.08300300  0.62142100  0.30157600  1
  Cu  Cu0  1  0.46428300  0.64836200  0.59825800  1
  Cu  Cu1  1  0.96428300  0.35163800  0.90174200  1
  Cu  Cu2  1  0.54220600  0.14458700  0.09950900  1
  Cu  Cu3  1  0.04220600  0.85541300  0.40049100  1
  Cu  Cu4  1  0.95779400  0.14458700  0.59950900  1
  Cu  Cu5  1  0.45779400  0.85541300  0.90049100  1
  Cu  Cu6  1  0.03571700  0.64836200  0.09825800  1
  Cu  Cu7  1  0.53571700  0.35163800  0.40174200  1
  S  S0  1  0.74964900  0.54503000  0.49387500  1
  S  S1  1  0.61627800  0.25007800  0.85055700  1
  S  S2  1  0.89989500  0.94348900  0.15347300  1
  S  S3  1  0.11627800  0.74992200  0.64944300  1
  S  S4  1  0.39989500  0.05651100  0.34652700  1
  S  S5  1  0.24964900  0.45497000  0.00612500  1
  S  S6  1  0.75035100  0.54503000  0.99387500  1
  S  S7  1  0.60010500  0.94348900  0.65347300  1
  S  S8  1  0.88372200  0.25007800  0.35055700  1
  S  S9  1  0.10010500  0.05651100  0.84652700  1
  S  S10  1  0.38372200  0.74992200  0.14944300  1
  S  S11  1  0.25035100  0.45497000  0.50612500  1
  O  O0  1  0.13191500  0.59799200  0.43835200  1
  O  O1  1  0.11811700  0.23057300  0.84616100  1
  O  O2  1  0.30537800  0.47888300  0.59094200  1
  O  O3  1  0.40430100  0.89514100  0.17307500  1
  O  O4  1  0.62671700  0.52398000  0.56509700  1
  O  O5  1  0.77015600  0.33921500  0.80786800  1
  O  O6  1  0.60739300  0.16682100  0.96389200  1
  O  O7  1  0.02627300  0.90376400  0.23059800  1
  O  O8  1  0.75143200  0.96225700  0.19593000  1
  O  O9  1  0.81766600  0.73555400  0.43783800  1
  O  O10  1  0.93612800  0.10686000  0.05029300  1
  O  O11  1  0.49500600  0.39604300  0.79274300  1
  O  O12  1  0.99500600  0.60395700  0.70725700  1
  O  O13  1  0.43612800  0.89314000  0.44970700  1
  O  O14  1  0.31766600  0.26444600  0.06216200  1
  O  O15  1  0.25143200  0.03774300  0.30407000  1
  O  O16  1  0.10739300  0.83317900  0.53610800  1
  O  O17  1  0.52627300  0.09623600  0.26940200  1
  O  O18  1  0.27015600  0.66078500  0.69213200  1
  O  O19  1  0.12671700  0.47602000  0.93490300  1
  O  O20  1  0.80537800  0.52111700  0.90905800  1
  O  O21  1  0.61811700  0.76942700  0.65383900  1
  O  O22  1  0.90430100  0.10485900  0.32692500  1
  O  O23  1  0.63191500  0.40200800  0.06164800  1
  O  O24  1  0.36808500  0.59799200  0.93835200  1
  O  O25  1  0.09569900  0.89514100  0.67307500  1
  O  O26  1  0.38188300  0.23057300  0.34616100  1
  O  O27  1  0.19462200  0.47888300  0.09094200  1
  O  O28  1  0.87328300  0.52398000  0.06509700  1
  O  O29  1  0.72984400  0.33921500  0.30786800  1
  O  O30  1  0.47372700  0.90376400  0.73059800  1
  O  O31  1  0.89260700  0.16682100  0.46389200  1
  O  O32  1  0.74856800  0.96225700  0.69593000  1
  O  O33  1  0.68233400  0.73555400  0.93783800  1
  O  O34  1  0.56387200  0.10686000  0.55029300  1
  O  O35  1  0.00499400  0.39604300  0.29274300  1
  O  O36  1  0.50499400  0.60395700  0.20725700  1
  O  O37  1  0.06387200  0.89314000  0.94970700  1
  O  O38  1  0.18233400  0.26444600  0.56216200  1
  O  O39  1  0.24856800  0.03774300  0.80407000  1
  O  O40  1  0.97372700  0.09623600  0.76940200  1
  O  O41  1  0.39260700  0.83317900  0.03610800  1
  O  O42  1  0.22984400  0.66078500  0.19213200  1
  O  O43  1  0.37328300  0.47602000  0.43490300  1
  O  O44  1  0.59569900  0.10485900  0.82692500  1
  O  O45  1  0.69462200  0.52111700  0.40905800  1
  O  O46  1  0.88188300  0.76942700  0.15383900  1
  O  O47  1  0.86808500  0.40200800  0.56164800  1
loop_
_geom_bond_atom_site_label_1
_geom_bond_atom_site_label_2
_geom_bond_distance
_geom_bond_site_symmetry_2
Li0 O5 1.982252 1_555
Li0 O47 2.026622 1_555
Li0 O40 2.106846 1_555
Li0 O12 2.143701 1_555
Li0 O1 2.570350 1_655
Li1 O11 1.955443 1_555
Li1 O1 2.009544 1_555
Li1 O2 2.057875 1_555
Li1 O39 2.288342 1_555
Li1 O18 2.443253 1_555
Li2 O15 1.956171 1_555
Li2 O14 1.966228 1_555
Li2 O3 1.981222 1_545
Li2 O7 1.992439 1_545
Li3 O8 1.956171 1_555
Li3 O9 1.966228 1_555
Li3 O22 1.981222 1_565
Li3 O17 1.992439 1_565
Li4 O12 1.955443 1_555
Li4 O21 2.009544 1_555
Li4 O20 2.057875 1_555
Li4 O32 2.288342 1_555
Li4 O5 2.443253 1_555
Li5 O18 1.982252 1_555
Li5 O24 2.026622 1_555
Li5 O30 2.106846 1_555
Li5 O11 2.143701 1_555
Li5 O21 2.570350 1_555
Li6 O29 1.982252 1_555
Li6 O23 2.026622 1_555
Li6 O17 2.106846 1_555
Li6 O36 2.143701 1_555
Li6 O26 2.570350 1_555
Li7 O35 1.955443 1_555
Li7 O26 2.009544 1_555
Li7 O27 2.057875 1_555
Li7 O15 2.288342 1_555
Li7 O42 2.443253 1_555
Li8 O39 1.956171 1_555
Li8 O38 1.966228 1_555
Li8 O25 1.981222 1_545
Li8 O30 1.992439 1_545
Li9 O32 1.956171 1_555
Li9 O33 1.966228 1_555
Li9 O44 1.981222 1_565
Li9 O40 1.992439 1_565
Li10 O36 1.955443 1_555
Li10 O46 2.009544 1_555
Li10 O45 2.057875 1_555
Li10 O8 2.288342 1_555
Li10 O29 2.443253 1_555
Li11 O42 1.982252 1_555
Li11 O0 2.026622 1_555
Li11 O7 2.106846 1_555
Li11 O35 2.143701 1_555
Li11 O46 2.570350 1_455
Cu0 O4 2.015373 1_555
Cu0 O2 2.073295 1_555
Cu0 O13 2.076992 1_555
Cu0 O21 2.154033 1_555
Cu0 O18 2.267289 1_555
Cu0 O11 2.528651 1_555
Cu1 O19 2.015373 1_655
Cu1 O20 2.073295 1_555
Cu1 O10 2.076992 1_556
Cu1 O1 2.154033 1_655
Cu1 O5 2.267289 1_555
Cu1 O12 2.528651 1_555
Cu2 O6 2.049566 1_554
Cu2 O23 2.118003 1_555
Cu2 O14 2.150877 1_555
Cu2 O3 2.163400 1_545
Cu2 O8 2.330539 1_545
Cu2 O17 2.387405 1_555
Cu3 O16 2.049566 1_555
Cu3 O0 2.118003 1_555
Cu3 O9 2.150877 1_455
Cu3 O22 2.163400 1_465
Cu3 O15 2.330539 1_565
Cu3 O7 2.387405 1_555
Cu4 O31 2.049566 1_555
Cu4 O47 2.118003 1_555
Cu4 O38 2.150877 1_655
Cu4 O25 2.163400 1_645
Cu4 O32 2.330539 1_545
Cu4 O40 2.387405 1_555
Cu5 O41 2.049566 1_556
Cu5 O24 2.118003 1_555
Cu5 O33 2.150877 1_555
Cu5 O44 2.163400 1_565
Cu5 O39 2.330539 1_565
Cu5 O30 2.387405 1_555
Cu6 O28 2.015373 1_455
Cu6 O27 2.073295 1_555
Cu6 O37 2.076992 1_554
Cu6 O46 2.154033 1_455
Cu6 O42 2.267289 1_555
Cu6 O35 2.528651 1_555
Cu7 O43 2.015373 1_555
Cu7 O45 2.073295 1_555
Cu7 O34 2.076992 1_555
Cu7 O26 2.154033 1_555
Cu7 O29 2.267289 1_555
Cu7 O36 2.528651 1_555
O0 S11 1.500370 1_555
O1 S9 1.513353 1_555
O2 S11 1.500569 1_555
O3 S10 1.501352 1_555
O4 S0 1.468718 1_555
O5 S1 1.510738 1_555
O6 S1 1.456122 1_555
O7 S2 1.510233 1_455
O8 S2 1.504285 1_555
O9 S0 1.494047 1_555
O10 S2 1.445016 1_545
O11 S1 1.503938 1_555
O12 S3 1.503938 1_655
O13 S4 1.445016 1_565
O14 S5 1.494047 1_555
O15 S4 1.504285 1_555
O16 S3 1.456122 1_555
O17 S4 1.510233 1_555
O18 S3 1.510738 1_555
O19 S5 1.468718 1_556
O20 S6 1.500569 1_555
O21 S7 1.513353 1_555
O22 S8 1.501352 1_555
O23 S6 1.500370 1_554
O24 S5 1.500370 1_556
O25 S3 1.501352 1_555
O26 S4 1.513353 1_555
O27 S5 1.500569 1_555
O28 S6 1.468718 1_554
O29 S8 1.510738 1_555
O30 S7 1.510233 1_555
O31 S8 1.456122 1_555
O32 S7 1.504285 1_555
O33 S6 1.494047 1_555
O34 S7 1.445016 1_545
O35 S8 1.503938 1_455
O36 S10 1.503938 1_555
O37 S9 1.445016 1_565
O38 S11 1.494047 1_555
O39 S9 1.504285 1_555
O40 S9 1.510233 1_655
O41 S10 1.456122 1_555
O42 S10 1.510738 1_555
O43 S11 1.468718 1_555
O44 S1 1.501352 1_555
O45 S0 1.500569 1_555
O46 S2 1.513353 1_555
O47 S0 1.500370 1_555
