# generated using pymatgen
data_LiNiP2O7
_symmetry_space_group_name_H-M   'P 1'
_cell_length_a   6.31405388
_cell_length_b   6.31405388
_cell_length_c   13.60030024
_cell_angle_alpha   76.97936041
_cell_angle_beta   76.97936041
_cell_angle_gamma   80.85522965
_symmetry_Int_Tables_number   1
_chemical_formula_structural   LiNiP2O7
_chemical_formula_sum   'Li4 Ni4 P8 O28'
_cell_volume   511.33138453
_cell_formula_units_Z   4
loop_
 _symmetry_equiv_pos_site_id
 _symmetry_equiv_pos_as_xyz
  1  'x, y, z'
loop_
 _atom_site_type_symbol
 _atom_site_label
 _atom_site_symmetry_multiplicity
 _atom_site_fract_x
 _atom_site_fract_y
 _atom_site_fract_z
 _atom_site_occupancy
  Li  Li0  1  0.21892700  0.22126200  0.66680800  1
  Li  Li1  1  0.77873800  0.78107300  0.83319200  1
  Li  Li2  1  0.22126200  0.21892700  0.16680800  1
  Li  Li3  1  0.78107300  0.77873800  0.33319200  1
  Ni  Ni0  1  0.41575100  0.14089900  0.35790900  1
  Ni  Ni1  1  0.14089900  0.41575100  0.85790900  1
  Ni  Ni2  1  0.85910100  0.58424900  0.14209100  1
  Ni  Ni3  1  0.58424900  0.85910100  0.64209100  1
  P  P0  1  0.26047700  0.87320200  0.86552500  1
  P  P1  1  0.35259800  0.73351500  0.08575700  1
  P  P2  1  0.26648500  0.64740200  0.41424300  1
  P  P3  1  0.87320200  0.26047700  0.36552500  1
  P  P4  1  0.12679800  0.73952300  0.63447500  1
  P  P5  1  0.73351500  0.35259800  0.58575700  1
  P  P6  1  0.64740200  0.26648500  0.91424300  1
  P  P7  1  0.73952300  0.12679800  0.13447500  1
  O  O0  1  0.08051500  0.72223900  0.88450400  1
  O  O1  1  0.19192700  0.56101100  0.11961600  1
  O  O2  1  0.27776100  0.91948500  0.61549600  1
  O  O3  1  0.47305400  0.79562100  0.79640700  1
  O  O4  1  0.09711400  0.69820800  0.34479600  1
  O  O5  1  0.17601700  0.11080800  0.82699900  1
  O  O6  1  0.32285900  0.87068900  0.97382500  1
  O  O7  1  0.36644300  0.40845700  0.42195000  1
  O  O8  1  0.59154300  0.63355700  0.07805000  1
  O  O9  1  0.30179200  0.90288600  0.15520400  1
  O  O10  1  0.12931100  0.67714100  0.52617500  1
  O  O11  1  0.56101100  0.19192700  0.61961600  1
  O  O12  1  0.88919200  0.82398300  0.67300100  1
  O  O13  1  0.20437900  0.52694600  0.70359300  1
  O  O14  1  0.79562100  0.47305400  0.29640700  1
  O  O15  1  0.11080800  0.17601700  0.32699900  1
  O  O16  1  0.43898900  0.80807300  0.38038400  1
  O  O17  1  0.87068900  0.32285900  0.47382500  1
  O  O18  1  0.69820800  0.09711400  0.84479600  1
  O  O19  1  0.40845700  0.36644300  0.92195000  1
  O  O20  1  0.63355700  0.59154300  0.57805000  1
  O  O21  1  0.67714100  0.12931100  0.02617500  1
  O  O22  1  0.82398300  0.88919200  0.17300100  1
  O  O23  1  0.90288600  0.30179200  0.65520400  1
  O  O24  1  0.52694600  0.20437900  0.20359300  1
  O  O25  1  0.72223900  0.08051500  0.38450400  1
  O  O26  1  0.80807300  0.43898900  0.88038400  1
  O  O27  1  0.91948500  0.27776100  0.11549600  1
loop_
_geom_bond_atom_site_label_1
_geom_bond_atom_site_label_2
_geom_bond_distance
_geom_bond_site_symmetry_2
Li0 O23 2.012138 1_455
Li0 O13 2.083765 1_555
Li0 O11 2.100786 1_555
Li0 O5 2.101360 1_555
Li0 O2 2.124398 1_545
Li1 O18 2.012138 1_565
Li1 O3 2.083765 1_555
Li1 O26 2.100786 1_555
Li1 O12 2.101360 1_555
Li1 O0 2.124398 1_655
Li2 O9 2.012138 1_545
Li2 O24 2.083765 1_555
Li2 O1 2.100786 1_555
Li2 O15 2.101360 1_555
Li2 O27 2.124398 1_455
Li3 O4 2.012138 1_655
Li3 O14 2.083765 1_555
Li3 O16 2.100786 1_555
Li3 O22 2.101360 1_555
Li3 O25 2.124398 1_565
Ni0 O25 2.009940 1_555
Ni0 O7 2.020686 1_555
Ni0 O24 2.026015 1_555
Ni0 O15 2.029822 1_555
Ni0 O16 2.040573 1_545
Ni1 O0 2.009940 1_555
Ni1 O19 2.020686 1_555
Ni1 O13 2.026015 1_555
Ni1 O5 2.029822 1_555
Ni1 O26 2.040573 1_455
Ni2 O27 2.009940 1_555
Ni2 O8 2.020686 1_555
Ni2 O14 2.026015 1_555
Ni2 O22 2.029822 1_555
Ni2 O1 2.040573 1_655
Ni3 O2 2.009940 1_555
Ni3 O20 2.020686 1_555
Ni3 O3 2.026015 1_555
Ni3 O12 2.029822 1_555
Ni3 O11 2.040573 1_565
O0 P0 1.538699 1_555
O1 P1 1.530458 1_555
O2 P4 1.538699 1_555
O3 P0 1.534642 1_555
O4 P2 1.532387 1_555
O5 P0 1.525481 1_545
O6 P0 1.604297 1_555
O6 P1 1.608054 1_556
O7 P2 1.530169 1_555
O8 P1 1.530169 1_555
O9 P1 1.532387 1_555
O10 P4 1.604297 1_555
O10 P2 1.608054 1_555
O11 P5 1.530458 1_555
O12 P4 1.525481 1_655
O13 P4 1.534642 1_555
O14 P3 1.534642 1_555
O15 P3 1.525481 1_455
O16 P2 1.530458 1_555
O17 P3 1.604297 1_555
O17 P5 1.608054 1_555
O18 P6 1.532387 1_555
O19 P6 1.530169 1_555
O20 P5 1.530169 1_555
O21 P7 1.604297 1_555
O21 P6 1.608054 1_554
O22 P7 1.525481 1_565
O23 P5 1.532387 1_555
O24 P7 1.534642 1_555
O25 P3 1.538699 1_555
O26 P6 1.530458 1_555
O27 P7 1.538699 1_555
