# generated using pymatgen
data_K8Li3Cr4O16
_symmetry_space_group_name_H-M   'P 1'
_cell_length_a   5.67315000
_cell_length_b   8.29442082
_cell_length_c   11.12346630
_cell_angle_alpha   91.20526904
_cell_angle_beta   95.41377993
_cell_angle_gamma   90.20448363
_symmetry_Int_Tables_number   1
_chemical_formula_structural   K8Li3Cr4O16
_chemical_formula_sum   'K8 Li3 Cr4 O16'
_cell_volume   520.96197911
_cell_formula_units_Z   1
loop_
 _symmetry_equiv_pos_site_id
 _symmetry_equiv_pos_as_xyz
  1  'x, y, z'
loop_
 _atom_site_type_symbol
 _atom_site_label
 _atom_site_symmetry_multiplicity
 _atom_site_fract_x
 _atom_site_fract_y
 _atom_site_fract_z
 _atom_site_occupancy
  K  K0  1  0.21097700  0.00545100  0.83872700  1
  K  K1  1  0.18574000  0.73767900  0.36652700  1
  K  K2  1  0.28333400  0.52426100  0.67145500  1
  K  K3  1  0.69985500  0.76447200  0.85943700  1
  K  K4  1  0.29770800  0.23608100  0.12801700  1
  K  K5  1  0.71242900  0.49889900  0.32486400  1
  K  K6  1  0.81551200  0.24769000  0.62136700  1
  K  K7  1  0.76705800  0.98834700  0.20436900  1
  Li  Li0  1  0.28674400  0.47288400  0.93165800  1
  Li  Li1  1  0.21332900  0.97320400  0.56975600  1
  Li  Li2  1  0.70956400  0.52802400  0.06714300  1
  Cr  Cr0  1  0.20218700  0.72018600  0.06637100  1
  Cr  Cr1  1  0.30158300  0.22361500  0.43587900  1
  Cr  Cr2  1  0.71035400  0.78432700  0.55895900  1
  Cr  Cr3  1  0.79023300  0.27945200  0.93517800  1
  O  O0  1  0.06239100  0.30440400  0.87737100  1
  O  O1  1  0.16969400  0.69520300  0.90949700  1
  O  O2  1  0.13640600  0.06689800  0.38437000  1
  O  O3  1  0.17647800  0.40020100  0.40376800  1
  O  O4  1  0.33897300  0.20431800  0.58678900  1
  O  O5  1  0.43964600  0.81444600  0.62049700  1
  O  O6  1  0.31059800  0.90982200  0.09683000  1
  O  O7  1  0.60989300  0.44199400  0.89118000  1
  O  O8  1  0.38670500  0.55940600  0.11123300  1
  O  O9  1  0.68251500  0.09135500  0.90106000  1
  O  O10  1  0.55901700  0.21411600  0.37722600  1
  O  O11  1  0.66779700  0.79737300  0.40392500  1
  O  O12  1  0.79773000  0.58763400  0.58655300  1
  O  O13  1  0.91413500  0.92597100  0.62345300  1
  O  O14  1  0.82122900  0.30153400  0.09297000  1
  O  O15  1  0.93522800  0.69384600  0.12797200  1
loop_
_geom_bond_atom_site_label_1
_geom_bond_atom_site_label_2
_geom_bond_distance
_geom_bond_site_symmetry_2
K0 O0 2.661281 1_555
K0 O1 2.722548 1_545
K0 O9 2.785722 1_555
K0 O13 2.858210 1_445
K0 O6 2.997336 1_546
K0 O9 3.219226 1_455
K0 O5 3.245394 1_545
K1 O2 2.750905 1_565
K1 O11 2.768435 1_555
K1 O3 2.839302 1_555
K1 O15 2.904730 1_455
K1 O11 3.047061 1_455
K1 O5 3.100164 1_555
K2 O5 2.652910 1_555
K2 O4 2.825927 1_555
K2 O12 2.880621 1_455
K2 O7 3.015994 1_555
K3 O1 2.736642 1_655
K3 O9 2.744613 1_565
K3 O7 2.757449 1_555
K3 O5 2.953892 1_555
K3 O1 3.162828 1_555
K4 O6 2.723148 1_545
K4 O8 2.740616 1_555
K4 O14 2.752125 1_455
K4 O10 3.027034 1_555
K4 O0 3.040743 1_554
K4 O14 3.079540 1_555
K5 O10 2.610582 1_555
K5 O11 2.630846 1_555
K5 O3 2.825031 1_655
K5 O8 2.922605 1_555
K5 O12 2.981725 1_555
K6 O4 2.716095 1_555
K6 O13 2.728579 1_545
K6 O12 2.855013 1_555
K6 O10 2.964724 1_555
K6 O4 3.051827 1_655
K6 O0 3.078700 1_655
K7 O15 2.771557 1_555
K7 O6 2.816319 1_555
K7 O2 2.822716 1_665
K7 O11 2.851483 1_555
K7 O14 2.929090 1_565
K7 O10 2.981486 1_565
Li0 O0 1.935009 1_555
Li0 O7 1.945128 1_555
Li0 O1 1.974603 1_555
Li0 O8 2.132991 1_556
Li1 O13 1.894129 1_455
Li1 O5 1.899371 1_555
Li1 O4 2.041613 1_565
Li1 O2 2.224144 1_565
Li2 O15 1.942511 1_555
Li2 O8 1.957211 1_555
Li2 O14 2.002462 1_555
Li2 O7 2.095121 1_554
Cr0 O6 1.702496 1_555
Cr0 O15 1.735141 1_455
Cr0 O1 1.745194 1_554
Cr0 O8 1.750036 1_555
Cr1 O10 1.656282 1_555
Cr1 O2 1.659738 1_555
Cr1 O3 1.660779 1_555
Cr1 O4 1.683095 1_555
Cr2 O11 1.724362 1_555
Cr2 O12 1.731964 1_555
Cr2 O13 1.740636 1_555
Cr2 O5 1.755980 1_555
Cr3 O9 1.695901 1_555
Cr3 O0 1.740940 1_655
Cr3 O7 1.745563 1_555
Cr3 O14 1.753049 1_556
