# generated using pymatgen
data_Na11Zr8Si7P5O48
_symmetry_space_group_name_H-M   'P 1'
_cell_length_a   9.14653000
_cell_length_b   9.16047102
_cell_length_c   16.21446339
_cell_angle_alpha   106.09077693
_cell_angle_beta   90.22382370
_cell_angle_gamma   119.76482083
_symmetry_Int_Tables_number   1
_chemical_formula_structural   Na11Zr8Si7P5O48
_chemical_formula_sum   'Na11 Zr8 Si7 P5 O48'
_cell_volume   1116.69325432
_cell_formula_units_Z   1
loop_
 _symmetry_equiv_pos_site_id
 _symmetry_equiv_pos_as_xyz
  1  'x, y, z'
loop_
 _atom_site_type_symbol
 _atom_site_label
 _atom_site_symmetry_multiplicity
 _atom_site_fract_x
 _atom_site_fract_y
 _atom_site_fract_z
 _atom_site_occupancy
  Na  Na0  1  0.91439000  0.40652000  0.84384100  1
  Na  Na1  1  0.74479400  0.52734400  0.73855400  1
  Na  Na2  1  0.50402300  0.64326200  0.88004500  1
  Na  Na3  1  0.41076600  0.40107300  0.34065900  1
  Na  Na4  1  0.99535400  0.36620700  0.62250400  1
  Na  Na5  1  0.23943100  0.51621200  0.24270400  1
  Na  Na6  1  0.14539800  0.86896100  0.92728000  1
  Na  Na7  1  0.02505400  0.64986200  0.37602200  1
  Na  Na8  1  0.51268100  0.37607700  0.11705300  1
  Na  Na9  1  0.48068400  0.45555900  0.51245100  1
  Na  Na10  1  0.67027700  0.93158500  0.41123800  1
  Zr  Zr0  1  0.13353600  0.21095000  0.71882600  1
  Zr  Zr1  1  0.37359900  0.20008100  0.97368100  1
  Zr  Zr2  1  0.63975700  0.21485700  0.21602800  1
  Zr  Zr3  1  0.12052700  0.79518600  0.53030400  1
  Zr  Zr4  1  0.87664800  0.19871400  0.47612900  1
  Zr  Zr5  1  0.37619900  0.79529900  0.77540800  1
  Zr  Zr6  1  0.62499500  0.79722400  0.02773900  1
  Zr  Zr7  1  0.87119600  0.79766800  0.27682100  1
  Si  Si0  1  0.86924200  0.70879700  0.87703200  1
  Si  Si1  1  0.32689600  0.70090700  0.62456800  1
  Si  Si2  1  0.90774400  0.98756700  0.63240200  1
  Si  Si3  1  0.60007400  0.01513600  0.86904200  1
  Si  Si4  1  0.36897700  0.70659200  0.37858300  1
  Si  Si5  1  0.81936200  0.70250200  0.12717400  1
  Si  Si6  1  0.09309600  0.00654900  0.37076600  1
  P  P0  1  0.17160600  0.29276300  0.87339000  1
  P  P1  1  0.63529400  0.29878500  0.61815800  1
  P  P2  1  0.39971700  0.98350300  0.13237900  1
  P  P3  1  0.67102900  0.29568700  0.37308100  1
  P  P4  1  0.13598700  0.29857700  0.12068800  1
  O  O0  1  0.93276300  0.08983000  0.95592900  1
  O  O1  1  0.28369600  0.69107000  0.71124000  1
  O  O2  1  0.07826200  0.72849900  0.85068700  1
  O  O3  1  0.76132600  0.69106500  0.96983600  1
  O  O4  1  0.43417700  0.09278500  0.45538700  1
  O  O5  1  0.68944500  0.50560400  0.88665000  1
  O  O6  1  0.94155400  0.90591100  0.80480400  1
  O  O7  1  0.31616800  0.51816600  0.62143800  1
  O  O8  1  0.77710300  0.69655600  0.21334100  1
  O  O9  1  0.09318800  0.15867500  0.63248800  1
  O  O10  1  0.95487400  0.84911600  0.61070500  1
  O  O11  1  0.57302300  0.71832500  0.35707600  1
  O  O12  1  0.57201800  0.87129600  0.94568300  1
  O  O13  1  0.34551400  0.31213600  0.87817900  1
  O  O14  1  0.86314700  0.18850300  0.77968600  1
  O  O15  1  0.65699900  0.83775100  0.72607800  1
  O  O16  1  0.13312600  0.67222100  0.62554800  1
  O  O17  1  0.92779500  0.12703700  0.55652600  1
  O  O18  1  0.26179700  0.68817600  0.47045600  1
  O  O19  1  0.54120800  0.14684200  0.89467200  1
  O  O20  1  0.42902800  0.86861600  0.85814400  1
  O  O21  1  0.19692000  0.51113500  0.38228400  1
  O  O22  1  0.19003000  0.47299500  0.86860600  1
  O  O23  1  0.45679900  0.91178000  0.30403500  1
  O  O24  1  0.55364800  0.10268000  0.68740900  1
  O  O25  1  0.79661200  0.51230000  0.12892800  1
  O  O26  1  0.80009700  0.47657200  0.61618200  1
  O  O27  1  0.56275600  0.13529000  0.13905900  1
  O  O28  1  0.44909600  0.85569300  0.11147300  1
  O  O29  1  0.75903400  0.33355400  0.52751500  1
  O  O30  1  0.06966900  0.86587000  0.44595600  1
  O  O31  1  0.84900800  0.31441700  0.37387600  1
  O  O32  1  0.35258500  0.17260500  0.27954300  1
  O  O33  1  0.15804600  0.83344900  0.22122900  1
  O  O34  1  0.62841000  0.67838300  0.12719800  1
  O  O35  1  0.41976700  0.11578700  0.06090600  1
  O  O36  1  0.44416700  0.28542800  0.63915500  1
  O  O37  1  0.03961300  0.14523400  0.39179600  1
  O  O38  1  0.91108000  0.84841100  0.36538800  1
  O  O39  1  0.21908800  0.29454800  0.79246800  1
  O  O40  1  0.68742000  0.47433400  0.37299100  1
  O  O41  1  0.06182700  0.10618500  0.19070500  1
  O  O42  1  0.30013600  0.48096000  0.11724000  1
  O  O43  1  0.57608000  0.92374800  0.53684100  1
  O  O44  1  0.25750300  0.32755200  0.03211400  1
  O  O45  1  0.93561600  0.27200300  0.14726600  1
  O  O46  1  0.71278000  0.30558000  0.29146100  1
  O  O47  1  0.07166700  0.91932200  0.03927500  1
loop_
_geom_bond_atom_site_label_1
_geom_bond_atom_site_label_2
_geom_bond_distance
_geom_bond_site_symmetry_2
Na0 O14 1.790401 1_555
Na0 O22 2.284839 1_655
Na0 O2 2.527084 1_655
Na0 O5 2.656109 1_555
Na1 O26 2.034476 1_555
Na1 P1 2.198792 1_555
Na1 Si0 2.265561 1_555
Na1 O5 2.497330 1_555
Na2 O12 1.831824 1_555
Na2 O22 2.470452 1_555
Na2 O5 2.583560 1_555
Na3 O32 1.840043 1_555
Na3 O40 2.288401 1_555
Na3 O11 2.450512 1_555
Na3 O21 2.624666 1_555
Na4 O17 1.917759 1_555
Na4 O16 2.421570 1_655
Na4 O26 2.463914 1_555
Na4 O7 2.550783 1_655
Na5 O42 2.091357 1_555
Na5 P4 2.170275 1_555
Na5 Si4 2.257772 1_555
Na5 O21 2.307110 1_555
Na5 O45 2.645071 1_455
Na6 O2 1.377963 1_555
Na6 O47 1.954313 1_556
Na6 Si0 2.199594 1_455
Na7 O30 1.821713 1_555
Na7 O21 2.479940 1_555
Na8 O35 2.003764 1_555
Na8 O25 2.232454 1_555
Na8 Zr1 2.341958 1_554
Na8 O34 2.377399 1_555
Na8 O44 2.479382 1_555
Na8 O42 2.560345 1_555
Na8 O27 2.576888 1_555
Na8 O8 2.699180 1_555
Na9 O7 2.455990 1_555
Na9 O4 2.994918 1_555
Na10 O11 1.642078 1_555
Na10 Zr4 2.151549 1_565
Na10 O43 2.220020 1_555
Na10 O23 2.512752 1_555
O1 Zr5 1.162061 1_555
O1 Si1 1.475944 1_555
O2 Si0 1.891186 1_455
O3 O5 1.658818 1_555
O3 Si0 1.803578 1_555
O3 Zr6 2.022151 1_556
O5 Si0 1.821276 1_555
O6 Si0 2.249868 1_555
O7 Si1 1.613765 1_555
O8 Zr7 1.153765 1_555
O8 Si5 1.459418 1_555
O9 Zr0 1.331988 1_555
O9 Si2 1.641004 1_445
O10 Si2 1.488222 1_555
O10 Zr3 2.154272 1_655
O11 Si4 1.855528 1_555
O12 Zr6 1.813080 1_556
O12 Si3 1.980087 1_565
O13 P0 1.509578 1_555
O13 Zr1 2.158085 1_555
O15 Zr5 2.565970 1_555
O16 Si1 1.658480 1_555
O16 Zr3 2.181471 1_555
O17 Zr4 1.767486 1_555
O17 Si2 1.954470 1_545
O18 O21 1.666985 1_555
O18 Si4 1.787492 1_555
O18 Zr3 2.076610 1_555
O19 Si3 1.512285 1_555
O19 Zr1 2.154205 1_555
O20 Zr5 1.287444 1_555
O20 Si3 1.435891 1_565
O21 Si4 1.717165 1_555
O22 P0 1.598468 1_555
O23 Si4 2.325340 1_555
O24 P1 2.199620 1_555
O25 Si5 1.657528 1_555
O26 O29 1.545170 1_555
O26 P1 1.586642 1_555
O27 Zr2 1.250612 1_555
O27 P2 1.423162 1_545
O28 P2 1.412759 1_555
O28 Zr6 2.277767 1_555
O29 P1 1.859318 1_555
O29 Zr4 2.032984 1_555
O30 Zr3 1.814138 1_555
O30 Si6 1.947246 1_565
O31 P3 1.549491 1_555
O31 Zr4 2.274432 1_555
O33 Zr7 2.670592 1_455
O34 Si5 1.648078 1_555
O34 Zr6 2.189378 1_555
O35 P2 1.845144 1_545
O35 Zr1 1.923352 1_554
O36 P1 1.732706 1_555
O37 Si6 1.532240 1_555
O37 Zr4 2.168231 1_455
O38 Zr7 1.367097 1_555
O38 Si6 1.553073 1_665
O39 Zr0 1.231016 1_555
O39 P0 1.385568 1_555
O40 P3 1.567899 1_555
O41 P4 2.187057 1_555
O42 O44 1.551951 1_555
O42 P4 1.615699 1_555
O44 P4 1.816385 1_555
O44 Zr1 2.003617 1_554
O45 P4 1.795863 1_655
O46 Zr2 1.229551 1_555
O46 P3 1.393400 1_555
