# generated using pymatgen
data_Mn3O5F
_symmetry_space_group_name_H-M   'P 1'
_cell_length_a   4.56448200
_cell_length_b   5.46589674
_cell_length_c   7.52851136
_cell_angle_alpha   86.05482157
_cell_angle_beta   88.73389693
_cell_angle_gamma   88.04432555
_symmetry_Int_Tables_number   1
_chemical_formula_structural   Mn3O5F
_chemical_formula_sum   'Mn6 O10 F2'
_cell_volume   187.23776082
_cell_formula_units_Z   2
loop_
 _symmetry_equiv_pos_site_id
 _symmetry_equiv_pos_as_xyz
  1  'x, y, z'
loop_
 _atom_site_type_symbol
 _atom_site_label
 _atom_site_symmetry_multiplicity
 _atom_site_fract_x
 _atom_site_fract_y
 _atom_site_fract_z
 _atom_site_occupancy
  Mn  Mn0  1  0.49483000  0.49598500  0.99821900  1
  Mn  Mn1  1  0.51431300  0.84290000  0.67103800  1
  Mn  Mn2  1  0.51563600  0.17646300  0.33972500  1
  Mn  Mn3  1  0.99681600  0.32635900  0.67153200  1
  Mn  Mn4  1  0.97762600  0.65356000  0.32338100  1
  Mn  Mn5  1  0.99535300  0.00021100  0.99446700  1
  O  O0  1  0.80422800  0.36627800  0.43882000  1
  O  O1  1  0.80835600  0.03877700  0.76936800  1
  O  O2  1  0.80257200  0.70485000  0.09800400  1
  O  O3  1  0.69448700  0.20371400  0.10363500  1
  O  O4  1  0.69405100  0.53645900  0.76802600  1
  O  O5  1  0.69818100  0.87172200  0.43474100  1
  O  O6  1  0.30489600  0.12892000  0.56446200  1
  O  O7  1  0.30679700  0.46576100  0.23307300  1
  O  O8  1  0.30577900  0.79636900  0.89760800  1
  O  O9  1  0.19279100  0.29358700  0.89813200  1
  F  F0  1  0.19285000  0.63091800  0.56185100  1
  F  F1  1  0.20043900  0.96716600  0.23392100  1
loop_
_geom_bond_atom_site_label_1
_geom_bond_atom_site_label_2
_geom_bond_distance
_geom_bond_site_symmetry_2
Mn0 O4 1.941778 1_555
Mn0 O3 1.941798 1_556
Mn0 O8 1.942974 1_555
Mn0 O7 1.947441 1_556
Mn0 O9 1.989229 1_555
Mn0 O2 2.028525 1_556
Mn1 O1 1.935643 1_565
Mn1 O6 1.939293 1_565
Mn1 O8 1.940441 1_555
Mn1 O4 1.943234 1_555
Mn1 O5 1.948942 1_555
Mn2 O0 1.900374 1_555
Mn2 O6 1.933934 1_555
Mn2 O5 1.936004 1_545
Mn2 O3 1.937925 1_555
Mn2 O7 1.951929 1_555
Mn3 O1 1.912675 1_555
Mn3 O4 1.928333 1_555
Mn3 O9 1.938302 1_655
Mn3 O6 1.938529 1_655
Mn3 O0 1.972852 1_555
Mn4 O2 1.890816 1_555
Mn4 O0 1.927193 1_555
Mn4 O7 1.928481 1_655
Mn4 O5 1.933459 1_555
Mn5 O1 1.909799 1_555
Mn5 O8 1.933707 1_645
Mn5 O3 1.941739 1_556
Mn5 O9 1.954302 1_655
Mn5 O2 1.970205 1_546
F0 Mn3 2.033112 1_455
F0 Mn4 2.059771 1_455
F0 Mn1 2.114624 1_555
F1 Mn5 2.043772 1_464
F1 Mn2 2.073999 1_565
F1 Mn4 2.087120 1_455
