# generated using pymatgen
data_Na5LiMn2P2(CO7)2
_symmetry_space_group_name_H-M   'P 1'
_cell_length_a   6.81808800
_cell_length_b   8.96045096
_cell_length_c   10.33569551
_cell_angle_alpha   90.20143597
_cell_angle_beta   90.14937493
_cell_angle_gamma   90.30858384
_symmetry_Int_Tables_number   1
_chemical_formula_structural   Na5LiMn2P2(CO7)2
_chemical_formula_sum   'Na10 Li2 Mn4 P4 C4 O28'
_cell_volume   631.42488797
_cell_formula_units_Z   2
loop_
 _symmetry_equiv_pos_site_id
 _symmetry_equiv_pos_as_xyz
  1  'x, y, z'
loop_
 _atom_site_type_symbol
 _atom_site_label
 _atom_site_symmetry_multiplicity
 _atom_site_fract_x
 _atom_site_fract_y
 _atom_site_fract_z
 _atom_site_occupancy
  Na  Na0  1  0.25195900  0.08372600  0.12003000  1
  Na  Na1  1  0.25239000  0.08295900  0.62015700  1
  Na  Na2  1  0.00042200  0.25865300  0.37644000  1
  Na  Na3  1  0.49975500  0.25824700  0.37651100  1
  Na  Na4  1  0.00228300  0.25855300  0.87596700  1
  Na  Na5  1  0.50167000  0.74145300  0.12519300  1
  Na  Na6  1  0.99847400  0.74129200  0.12481500  1
  Na  Na7  1  0.50200500  0.74166300  0.62264300  1
  Na  Na8  1  0.99807200  0.74128600  0.62243600  1
  Na  Na9  1  0.74763200  0.91705700  0.87946700  1
  Li  Li0  1  0.48859800  0.26989700  0.88027700  1
  Li  Li1  1  0.74992100  0.91542100  0.37821700  1
  Mn  Mn0  1  0.74766200  0.36056400  0.10988400  1
  Mn  Mn1  1  0.74908100  0.36021800  0.61205900  1
  Mn  Mn2  1  0.25020800  0.63952800  0.38923700  1
  Mn  Mn3  1  0.24953100  0.63824100  0.88826900  1
  P  P0  1  0.24972500  0.41091400  0.14709500  1
  P  P1  1  0.25324200  0.40880300  0.64968200  1
  P  P2  1  0.75004600  0.59388200  0.35117800  1
  P  P3  1  0.74571600  0.58612400  0.85055200  1
  C  C0  1  0.74921500  0.05899000  0.13601800  1
  C  C1  1  0.74885800  0.05551900  0.62914800  1
  C  C2  1  0.25008900  0.94013300  0.36792300  1
  C  C3  1  0.25603100  0.94383500  0.86840100  1
  O  O0  1  0.24915400  0.08411100  0.35731200  1
  O  O1  1  0.26781200  0.08863300  0.85869600  1
  O  O2  1  0.74856600  0.11816700  0.02109200  1
  O  O3  1  0.74954900  0.10853500  0.51190100  1
  O  O4  1  0.74822100  0.14563100  0.23741200  1
  O  O5  1  0.74651200  0.14632000  0.72854100  1
  O  O6  1  0.06486800  0.31898200  0.10700600  1
  O  O7  1  0.43097200  0.31867000  0.10262900  1
  O  O8  1  0.06705600  0.31782300  0.61043100  1
  O  O9  1  0.43368000  0.31780800  0.60397800  1
  O  O10  1  0.25300900  0.42841300  0.29784700  1
  O  O11  1  0.75028900  0.43669400  0.41394700  1
  O  O12  1  0.26238400  0.42295800  0.80110200  1
  O  O13  1  0.73568400  0.42522200  0.90771400  1
  O  O14  1  0.24978700  0.56930500  0.08741700  1
  O  O15  1  0.74934300  0.57163100  0.20099300  1
  O  O16  1  0.25023400  0.56796800  0.59074000  1
  O  O17  1  0.74862100  0.57162300  0.69994800  1
  O  O18  1  0.56889900  0.68897900  0.39095500  1
  O  O19  1  0.93240200  0.68925300  0.39110200  1
  O  O20  1  0.56610000  0.68127800  0.89205800  1
  O  O21  1  0.93192700  0.67398600  0.89463200  1
  O  O22  1  0.25045100  0.85567100  0.26480200  1
  O  O23  1  0.24954100  0.85995000  0.76505400  1
  O  O24  1  0.25078500  0.87751400  0.48140400  1
  O  O25  1  0.24991300  0.88023800  0.98126500  1
  O  O26  1  0.75082200  0.91512300  0.15122600  1
  O  O27  1  0.75083300  0.91255900  0.64719700  1
loop_
_geom_bond_atom_site_label_1
_geom_bond_atom_site_label_2
_geom_bond_distance
_geom_bond_site_symmetry_2
Na0 O25 2.315823 1_544
Na0 O7 2.435169 1_555
Na0 O0 2.452589 1_555
Na0 O6 2.473663 1_555
Na0 O22 2.536971 1_545
Na0 O1 2.704014 1_554
Na1 O24 2.329542 1_545
Na1 O9 2.441234 1_555
Na1 O8 2.462760 1_555
Na1 O1 2.467767 1_555
Na1 O23 2.501408 1_545
Na1 O0 2.716774 1_555
Na2 O0 2.321475 1_555
Na2 O11 2.373235 1_455
Na2 O10 2.434600 1_555
Na2 O4 2.450582 1_455
Na2 O8 2.513785 1_555
Na2 O3 2.587714 1_455
Na2 O6 2.873107 1_555
Na3 O0 2.315329 1_555
Na3 O11 2.363685 1_555
Na3 O10 2.417731 1_555
Na3 O4 2.444578 1_555
Na3 O9 2.452430 1_555
Na3 O3 2.585297 1_555
Na3 O7 2.921106 1_555
Na4 O1 2.378459 1_555
Na4 O13 2.381369 1_455
Na4 O12 2.429164 1_555
Na4 O6 2.482071 1_556
Na4 O5 2.516093 1_455
Na4 O2 2.613056 1_456
Na4 O8 2.832562 1_555
Na5 O26 2.312132 1_555
Na5 O14 2.333428 1_555
Na5 O15 2.410399 1_555
Na5 O22 2.466728 1_555
Na5 O20 2.507763 1_554
Na5 O25 2.593933 1_554
Na5 O18 2.825089 1_555
Na6 O26 2.319368 1_555
Na6 O14 2.342657 1_655
Na6 O15 2.409120 1_555
Na6 O22 2.460281 1_655
Na6 O21 2.492197 1_554
Na6 O25 2.587200 1_654
Na6 O19 2.829935 1_555
Na7 O27 2.292282 1_555
Na7 O16 2.332902 1_555
Na7 O17 2.411699 1_555
Na7 O18 2.483005 1_555
Na7 O23 2.504951 1_555
Na7 O24 2.562918 1_555
Na7 O20 2.871321 1_555
Na8 O27 2.299930 1_555
Na8 O16 2.345877 1_655
Na8 O17 2.415258 1_555
Na8 O19 2.473672 1_555
Na8 O23 2.489823 1_655
Na8 O24 2.566428 1_655
Na8 O21 2.915049 1_555
Na9 O2 2.317616 1_566
Na9 O27 2.401027 1_555
Na9 O20 2.446812 1_555
Na9 O21 2.525492 1_555
Na9 O5 2.583837 1_565
Na9 O26 2.808961 1_556
Li0 O13 2.196591 1_555
Li0 O1 2.218831 1_555
Li0 O12 2.225667 1_555
Li0 O7 2.372005 1_556
Li0 O5 2.607888 1_555
Li0 O2 2.671105 1_556
Li1 O3 2.210576 1_565
Li1 O26 2.346126 1_555
Li1 O18 2.373463 1_555
Li1 O19 2.387649 1_555
Li1 O4 2.528724 1_565
Mn0 O15 2.109720 1_555
Mn0 O13 2.171810 1_554
Mn0 O7 2.190662 1_555
Mn0 O6 2.196835 1_655
Mn0 O4 2.337596 1_555
Mn0 O2 2.354983 1_555
Mn1 O17 2.097971 1_555
Mn1 O11 2.161553 1_555
Mn1 O9 2.183067 1_555
Mn1 O8 2.203123 1_655
Mn1 O5 2.266970 1_555
Mn1 O3 2.478151 1_555
Mn2 O10 2.111632 1_555
Mn2 O16 2.181300 1_555
Mn2 O19 2.214633 1_455
Mn2 O18 2.215257 1_555
Mn2 O22 2.328639 1_555
Mn2 O24 2.332484 1_555
Mn3 O12 2.128506 1_555
Mn3 O14 2.151098 1_556
Mn3 O20 2.190754 1_555
Mn3 O21 2.191839 1_455
Mn3 O23 2.363525 1_555
Mn3 O25 2.368778 1_555
C0 O26 1.299311 1_545
C0 O4 1.302069 1_555
C0 O2 1.302528 1_555
C1 O27 1.295284 1_545
C1 O3 1.303179 1_555
C1 O5 1.308402 1_555
C2 O0 1.295194 1_565
C2 O24 1.301992 1_555
C2 O22 1.305040 1_555
C3 O25 1.300745 1_555
C3 O1 1.303740 1_565
C3 O23 1.304475 1_555
O6 P0 1.556432 1_555
O7 P0 1.559741 1_555
O8 P1 1.557071 1_555
O9 P1 1.553246 1_555
O10 P0 1.565538 1_555
O11 P2 1.552785 1_555
O12 P1 1.570766 1_555
O13 P3 1.561258 1_555
O14 P0 1.549482 1_555
O15 P2 1.564315 1_555
O16 P1 1.553039 1_555
O17 P3 1.561741 1_555
O18 P2 1.559503 1_555
O19 P2 1.558782 1_555
O20 P3 1.556327 1_555
O21 P3 1.556590 1_555
