# generated using pymatgen
data_Li6Mn(FeO3)2
_symmetry_space_group_name_H-M   'P 1'
_cell_length_a   3.29718527
_cell_length_b   14.76558411
_cell_length_c   6.07152945
_cell_angle_alpha   84.31953259
_cell_angle_beta   105.71597572
_cell_angle_gamma   96.46617747
_symmetry_Int_Tables_number   1
_chemical_formula_structural   Li6Mn(FeO3)2
_chemical_formula_sum   'Li12 Mn2 Fe4 O12'
_cell_volume   282.00570721
_cell_formula_units_Z   2
loop_
 _symmetry_equiv_pos_site_id
 _symmetry_equiv_pos_as_xyz
  1  'x, y, z'
loop_
 _atom_site_type_symbol
 _atom_site_label
 _atom_site_symmetry_multiplicity
 _atom_site_fract_x
 _atom_site_fract_y
 _atom_site_fract_z
 _atom_site_occupancy
  Li  Li0  1  0.99357900  0.30231600  0.68525900  1
  Li  Li1  1  0.99486400  0.80177500  0.18773900  1
  Li  Li2  1  0.63551200  0.31134200  0.95982600  1
  Li  Li3  1  0.63695200  0.81091200  0.46216100  1
  Li  Li4  1  0.97092400  0.14377600  0.79531100  1
  Li  Li5  1  0.97021100  0.64416900  0.29495100  1
  Li  Li6  1  0.65924500  0.46909000  0.85251700  1
  Li  Li7  1  0.65999800  0.96898600  0.35241800  1
  Li  Li8  1  0.32629300  0.13330900  0.51669200  1
  Li  Li9  1  0.32536300  0.63388300  0.01589200  1
  Li  Li10  1  0.30419000  0.47917800  0.13164800  1
  Li  Li11  1  0.30481600  0.97945400  0.63097000  1
  Mn  Mn0  1  0.31620000  0.80724100  0.82479500  1
  Mn  Mn1  1  0.31381900  0.30569500  0.32302500  1
  Fe  Fe0  1  0.64805300  0.14014500  0.15308000  1
  Fe  Fe1  1  0.64686200  0.63970300  0.65259200  1
  Fe  Fe2  1  0.98289600  0.47357300  0.49468000  1
  Fe  Fe3  1  0.98313200  0.97263700  0.99502200  1
  O  O0  1  0.50619200  0.37423900  0.63886000  1
  O  O1  1  0.50910200  0.87368000  0.14216400  1
  O  O2  1  0.12308600  0.23930100  0.00645000  1
  O  O3  1  0.12437600  0.73908500  0.50840000  1
  O  O4  1  0.83629800  0.20513400  0.46514000  1
  O  O5  1  0.83584700  0.70551300  0.96425000  1
  O  O6  1  0.79470300  0.40764400  0.18391700  1
  O  O7  1  0.79507800  0.90790700  0.68363400  1
  O  O8  1  0.16901900  0.03921100  0.30008100  1
  O  O9  1  0.16879800  0.53937000  0.80015000  1
  O  O10  1  0.46010900  0.07333600  0.84813600  1
  O  O11  1  0.46065100  0.57387000  0.34709200  1
loop_
_geom_bond_atom_site_label_1
_geom_bond_atom_site_label_2
_geom_bond_distance
_geom_bond_site_symmetry_2
Li0 O0 1.964261 1_655
Li0 O0 1.967117 1_555
Li0 O4 1.987638 1_555
Li0 O2 2.032295 1_656
Li1 O1 1.963122 1_555
Li1 O1 1.967032 1_655
Li1 O5 1.991217 1_554
Li1 O3 2.027684 1_655
Li2 O2 1.964935 1_556
Li2 O2 1.968532 1_656
Li2 O6 1.994149 1_556
Li2 O0 2.030450 1_555
Li3 O3 1.963237 1_555
Li3 O3 1.966472 1_655
Li3 O7 1.991083 1_555
Li3 O1 2.024664 1_555
Li4 O2 1.932529 1_656
Li4 O10 1.953911 1_655
Li4 O10 1.963008 1_555
Li4 O4 2.070128 1_555
Li5 O3 1.935019 1_655
Li5 O11 1.956598 1_655
Li5 O11 1.957230 1_555
Li5 O5 2.072842 1_554
Li6 O0 1.935141 1_555
Li6 O9 1.956290 1_555
Li6 O9 1.957563 1_655
Li6 O6 2.077078 1_556
Li7 O1 1.926488 1_555
Li7 O8 1.955683 1_665
Li7 O8 1.957296 1_565
Li7 O7 2.074133 1_555
Li8 O8 1.938817 1_555
Li8 O4 1.966766 1_555
Li8 O4 1.969554 1_455
Li8 O10 2.069472 1_555
Li9 O9 1.939873 1_554
Li9 O5 1.966397 1_454
Li9 O5 1.967046 1_554
Li9 O11 2.068387 1_555
Li10 O11 1.940653 1_555
Li10 O6 1.964978 1_455
Li10 O6 1.967844 1_555
Li10 O9 2.070907 1_554
Li11 O10 1.938692 1_565
Li11 O7 1.966570 1_455
Li11 O7 1.966995 1_555
Li11 O8 2.065398 1_565
Mn0 O1 2.156306 1_556
Mn0 O3 2.164296 1_555
Mn0 O7 2.321490 1_555
Mn0 O5 2.328192 1_455
Mn0 O7 2.328416 1_455
Mn0 O5 2.334687 1_555
Mn1 O2 2.151823 1_555
Mn1 O0 2.164379 1_555
Mn1 O4 2.320352 1_455
Mn1 O6 2.330149 1_555
Mn1 O4 2.331147 1_555
Mn1 O6 2.335491 1_455
Fe0 O10 2.094619 1_554
Fe0 O4 2.117684 1_555
Fe0 O2 2.317377 1_655
Fe0 O2 2.325978 1_555
Fe0 O8 2.334746 1_655
Fe0 O8 2.341500 1_555
Fe1 O11 2.089953 1_555
Fe1 O5 2.121782 1_555
Fe1 O3 2.317482 1_655
Fe1 O3 2.320697 1_555
Fe1 O9 2.331357 1_655
Fe1 O9 2.336310 1_555
Fe2 O9 2.089521 1_655
Fe2 O6 2.118026 1_555
Fe2 O0 2.315181 1_555
Fe2 O0 2.322109 1_655
Fe2 O11 2.331736 1_555
Fe2 O11 2.335405 1_655
Fe3 O8 2.093381 1_666
Fe3 O7 2.112230 1_555
Fe3 O1 2.315084 1_556
Fe3 O1 2.326720 1_656
Fe3 O10 2.334548 1_665
Fe3 O10 2.337077 1_565
