# generated using pymatgen
data_NaMn2O4
_symmetry_space_group_name_H-M   'P 1'
_cell_length_a   4.95063500
_cell_length_b   5.70473700
_cell_length_c   11.41463700
_cell_angle_alpha   90.00000000
_cell_angle_beta   90.00000000
_cell_angle_gamma   90.00000000
_symmetry_Int_Tables_number   1
_chemical_formula_structural   NaMn2O4
_chemical_formula_sum   'Na4 Mn8 O16'
_cell_volume   322.37298469
_cell_formula_units_Z   4
loop_
 _symmetry_equiv_pos_site_id
 _symmetry_equiv_pos_as_xyz
  1  'x, y, z'
loop_
 _atom_site_type_symbol
 _atom_site_label
 _atom_site_symmetry_multiplicity
 _atom_site_fract_x
 _atom_site_fract_y
 _atom_site_fract_z
 _atom_site_occupancy
  Na  Na0  1  0.02003100  0.75000000  0.25000000  1
  Na  Na1  1  0.35778000  0.75000000  0.75000000  1
  Na  Na2  1  0.64222000  0.25000000  0.25000000  1
  Na  Na3  1  0.97996900  0.25000000  0.75000000  1
  Mn  Mn0  1  0.00415000  0.25000000  0.00488400  1
  Mn  Mn1  1  0.99585000  0.75000000  0.99511600  1
  Mn  Mn2  1  0.00415000  0.25000000  0.49511600  1
  Mn  Mn3  1  0.99585000  0.75000000  0.50488400  1
  Mn  Mn4  1  0.50000000  0.50000000  0.00000000  1
  Mn  Mn5  1  0.50000000  0.00000000  0.00000000  1
  Mn  Mn6  1  0.50000000  0.00000000  0.50000000  1
  Mn  Mn7  1  0.50000000  0.50000000  0.50000000  1
  O  O0  1  0.16716400  0.00286200  0.59185200  1
  O  O1  1  0.16716400  0.00286200  0.90814800  1
  O  O2  1  0.16716400  0.49713800  0.59185200  1
  O  O3  1  0.16716400  0.49713800  0.90814800  1
  O  O4  1  0.33790900  0.25000000  0.09107500  1
  O  O5  1  0.33790900  0.25000000  0.40892500  1
  O  O6  1  0.32627600  0.75000000  0.08622200  1
  O  O7  1  0.32627600  0.75000000  0.41377800  1
  O  O8  1  0.67372400  0.25000000  0.58622200  1
  O  O9  1  0.67372400  0.25000000  0.91377800  1
  O  O10  1  0.66209100  0.75000000  0.59107500  1
  O  O11  1  0.66209100  0.75000000  0.90892500  1
  O  O12  1  0.83283600  0.99713800  0.40814800  1
  O  O13  1  0.83283600  0.50286200  0.40814800  1
  O  O14  1  0.83283600  0.99713800  0.09185200  1
  O  O15  1  0.83283600  0.50286200  0.09185200  1
loop_
_geom_bond_atom_site_label_1
_geom_bond_atom_site_label_2
_geom_bond_distance
_geom_bond_site_symmetry_2
Na0 O7 2.406966 1_555
Na0 O6 2.406966 1_555
Na0 O13 2.470888 1_455
Na0 O14 2.470888 1_455
Na0 O12 2.470888 1_455
Na0 O15 2.470888 1_455
Na1 O10 2.358070 1_555
Na1 O11 2.358070 1_555
Na1 O0 2.496018 1_565
Na1 O1 2.496018 1_565
Na1 O2 2.496018 1_555
Na1 O3 2.496018 1_555
Na2 O5 2.358070 1_555
Na2 O4 2.358070 1_555
Na2 O15 2.496018 1_555
Na2 O14 2.496018 1_545
Na2 O13 2.496018 1_555
Na2 O12 2.496018 1_545
Na3 O8 2.406966 1_555
Na3 O9 2.406966 1_555
Na3 O1 2.470888 1_655
Na3 O2 2.470888 1_655
Na3 O3 2.470888 1_655
Na3 O0 2.470888 1_655
Mn0 O4 1.923044 1_555
Mn0 O9 1.938397 1_454
Mn0 O14 1.945663 1_445
Mn0 O15 1.945663 1_455
Mn0 O3 1.964244 1_554
Mn0 O1 1.964244 1_554
Mn1 O11 1.923044 1_555
Mn1 O6 1.938397 1_656
Mn1 O1 1.945663 1_665
Mn1 O3 1.945663 1_655
Mn1 O15 1.964244 1_556
Mn1 O14 1.964244 1_556
Mn2 O5 1.923044 1_555
Mn2 O8 1.938397 1_455
Mn2 O12 1.945663 1_445
Mn2 O13 1.945663 1_455
Mn2 O0 1.964244 1_555
Mn2 O2 1.964244 1_555
Mn3 O10 1.923044 1_555
Mn3 O7 1.938397 1_655
Mn3 O0 1.945663 1_665
Mn3 O2 1.945663 1_655
Mn3 O13 1.964244 1_555
Mn3 O12 1.964244 1_555
Mn4 O6 1.934506 1_555
Mn4 O9 1.934506 1_554
Mn4 O4 1.938731 1_555
Mn4 O11 1.938731 1_554
Mn4 O15 1.953102 1_555
Mn4 O3 1.953102 1_554
Mn5 O6 1.934506 1_545
Mn5 O9 1.934506 1_554
Mn5 O4 1.938731 1_555
Mn5 O11 1.938731 1_544
Mn5 O14 1.953102 1_545
Mn5 O1 1.953102 1_554
Mn6 O7 1.934506 1_545
Mn6 O8 1.934506 1_555
Mn6 O10 1.938731 1_545
Mn6 O5 1.938731 1_555
Mn6 O12 1.953102 1_545
Mn6 O0 1.953102 1_555
Mn7 O8 1.934506 1_555
Mn7 O7 1.934506 1_555
Mn7 O10 1.938731 1_555
Mn7 O5 1.938731 1_555
Mn7 O13 1.953102 1_555
Mn7 O2 1.953102 1_555
