# generated using pymatgen
data_V2Se2O13
_symmetry_space_group_name_H-M   'P 1'
_cell_length_a   12.41658573
_cell_length_b   12.41658573
_cell_length_c   18.65122050
_cell_angle_alpha   87.37026749
_cell_angle_beta   87.37026749
_cell_angle_gamma   68.65476697
_symmetry_Int_Tables_number   1
_chemical_formula_structural   V2Se2O13
_chemical_formula_sum   'V16 Se16 O104'
_cell_volume   2674.10534249
_cell_formula_units_Z   8
loop_
 _symmetry_equiv_pos_site_id
 _symmetry_equiv_pos_as_xyz
  1  'x, y, z'
loop_
 _atom_site_type_symbol
 _atom_site_label
 _atom_site_symmetry_multiplicity
 _atom_site_fract_x
 _atom_site_fract_y
 _atom_site_fract_z
 _atom_site_occupancy
  V  V0  1  0.66423800  0.64586800  0.59415900  1
  V  V1  1  0.35413200  0.33576200  0.90584100  1
  V  V2  1  0.33576200  0.35413200  0.40584100  1
  V  V3  1  0.64586800  0.66423800  0.09415900  1
  V  V4  1  0.36518400  0.83219700  0.40460300  1
  V  V5  1  0.16780300  0.63481600  0.09539700  1
  V  V6  1  0.63481600  0.16780300  0.59539700  1
  V  V7  1  0.83219700  0.36518400  0.90460300  1
  V  V8  1  0.16465000  0.14173100  0.59351700  1
  V  V9  1  0.85826900  0.83535000  0.90648300  1
  V  V10  1  0.83535000  0.85826900  0.40648300  1
  V  V11  1  0.14173100  0.16465000  0.09351700  1
  V  V12  1  0.86206700  0.33896500  0.40459500  1
  V  V13  1  0.66103500  0.13793300  0.09540500  1
  V  V14  1  0.13793300  0.66103500  0.59540500  1
  V  V15  1  0.33896500  0.86206700  0.90459500  1
  Se  Se0  1  0.42316100  0.92346400  0.55861500  1
  Se  Se1  1  0.07653600  0.57683900  0.94138500  1
  Se  Se2  1  0.57683900  0.07653600  0.44138500  1
  Se  Se3  1  0.92346400  0.42316100  0.05861500  1
  Se  Se4  1  0.58658700  0.57405700  0.44314800  1
  Se  Se5  1  0.42594300  0.41341300  0.05685200  1
  Se  Se6  1  0.41341300  0.42594300  0.55685200  1
  Se  Se7  1  0.57405700  0.58658700  0.94314800  1
  Se  Se8  1  0.08173300  0.07661500  0.43853200  1
  Se  Se9  1  0.92338500  0.91826700  0.06146800  1
  Se  Se10  1  0.91826700  0.92338500  0.56146800  1
  Se  Se11  1  0.07661500  0.08173300  0.93853200  1
  Se  Se12  1  0.92150700  0.42368600  0.56393500  1
  Se  Se13  1  0.57631400  0.07849300  0.93606500  1
  Se  Se14  1  0.07849300  0.57631400  0.43606500  1
  Se  Se15  1  0.42368600  0.92150700  0.06393500  1
  O  O0  1  0.42854500  0.83080100  0.62807000  1
  O  O1  1  0.16919900  0.57145500  0.87193000  1
  O  O2  1  0.57145500  0.16919900  0.37193000  1
  O  O3  1  0.83080100  0.42854500  0.12807000  1
  O  O4  1  0.61771200  0.67046200  0.50050600  1
  O  O5  1  0.32953800  0.38228800  0.99949400  1
  O  O6  1  0.38228800  0.32953800  0.49949400  1
  O  O7  1  0.67046200  0.61771200  0.00050600  1
  O  O8  1  0.82145200  0.56365700  0.58624300  1
  O  O9  1  0.43634300  0.17854800  0.91375700  1
  O  O10  1  0.17854800  0.43634300  0.41375700  1
  O  O11  1  0.56365700  0.82145200  0.08624300  1
  O  O12  1  0.70672100  0.67560600  0.74427800  1
  O  O13  1  0.32439400  0.29327900  0.75572200  1
  O  O14  1  0.29327900  0.32439400  0.25572200  1
  O  O15  1  0.67560600  0.70672100  0.24427800  1
  O  O16  1  0.62402800  0.78769100  0.62166700  1
  O  O17  1  0.21230900  0.37597200  0.87833300  1
  O  O18  1  0.37597200  0.21230900  0.37833300  1
  O  O19  1  0.78769100  0.62402800  0.12166700  1
  O  O20  1  0.59283000  0.57439800  0.63685500  1
  O  O21  1  0.42560200  0.40717000  0.86314500  1
  O  O22  1  0.40717000  0.42560200  0.36314500  1
  O  O23  1  0.57439800  0.59283000  0.13685500  1
  O  O24  1  0.33140100  0.88587800  0.49691800  1
  O  O25  1  0.11412200  0.66859900  0.00308200  1
  O  O26  1  0.66859900  0.11412200  0.50308200  1
  O  O27  1  0.88587800  0.33140100  0.99691800  1
  O  O28  1  0.45087000  0.67944300  0.41458100  1
  O  O29  1  0.32055700  0.54913000  0.08541900  1
  O  O30  1  0.54913000  0.32055700  0.58541900  1
  O  O31  1  0.67944300  0.45087000  0.91458100  1
  O  O32  1  0.18076200  0.06770400  0.37574900  1
  O  O33  1  0.93229600  0.81923800  0.12425100  1
  O  O34  1  0.81923800  0.93229600  0.62425100  1
  O  O35  1  0.06770400  0.18076200  0.87574900  1
  O  O36  1  0.27599400  0.82626100  0.27443500  1
  O  O37  1  0.17373900  0.72400600  0.22556500  1
  O  O38  1  0.72400600  0.17373900  0.72556500  1
  O  O39  1  0.82626100  0.27599400  0.77443500  1
  O  O40  1  0.24693200  0.82755500  0.35026000  1
  O  O41  1  0.17244500  0.75306800  0.14974000  1
  O  O42  1  0.75306800  0.17244500  0.64974000  1
  O  O43  1  0.82755500  0.24693200  0.85026000  1
  O  O44  1  0.44283900  0.89464200  0.36133700  1
  O  O45  1  0.10535800  0.55716100  0.13866300  1
  O  O46  1  0.55716100  0.10535800  0.63866300  1
  O  O47  1  0.89464200  0.44283900  0.86133700  1
  O  O48  1  0.32503000  0.05555500  0.58653300  1
  O  O49  1  0.94444500  0.67497000  0.91346700  1
  O  O50  1  0.67497000  0.94444500  0.41346700  1
  O  O51  1  0.05555500  0.32503000  0.08653300  1
  O  O52  1  0.11221600  0.16639600  0.50129200  1
  O  O53  1  0.83360400  0.88778400  0.99870800  1
  O  O54  1  0.88778400  0.83360400  0.49870800  1
  O  O55  1  0.16639600  0.11221600  0.00129200  1
  O  O56  1  0.19917000  0.20477700  0.75041500  1
  O  O57  1  0.79522300  0.80083000  0.74958500  1
  O  O58  1  0.80083000  0.79522300  0.24958500  1
  O  O59  1  0.20477700  0.19917000  0.25041500  1
  O  O60  1  0.14263700  0.27447300  0.62219600  1
  O  O61  1  0.72552700  0.85736300  0.87780400  1
  O  O62  1  0.85736300  0.72552700  0.37780400  1
  O  O63  1  0.27447300  0.14263700  0.12219600  1
  O  O64  1  0.09413100  0.07559200  0.64362000  1
  O  O65  1  0.92440800  0.90586900  0.85638000  1
  O  O66  1  0.90586900  0.92440800  0.35638000  1
  O  O67  1  0.07559200  0.09413100  0.14362000  1
  O  O68  1  0.68489400  0.55838600  0.37864800  1
  O  O69  1  0.44161400  0.31510600  0.12135200  1
  O  O70  1  0.31510600  0.44161400  0.62135200  1
  O  O71  1  0.55838600  0.68489400  0.87864800  1
  O  O72  1  0.83185600  0.38771000  0.49633500  1
  O  O73  1  0.61229000  0.16814400  0.00366500  1
  O  O74  1  0.16814400  0.61229000  0.50366500  1
  O  O75  1  0.38771000  0.83185600  0.99633500  1
  O  O76  1  0.78103000  0.32234100  0.27486500  1
  O  O77  1  0.67765900  0.21897000  0.22513500  1
  O  O78  1  0.21897000  0.67765900  0.72513500  1
  O  O79  1  0.32234100  0.78103000  0.77486500  1
  O  O80  1  0.94178100  0.39971200  0.36156700  1
  O  O81  1  0.60028800  0.05821900  0.13843300  1
  O  O82  1  0.05821900  0.60028800  0.63843300  1
  O  O83  1  0.39971200  0.94178100  0.86156700  1
  O  O84  1  0.74490700  0.32828900  0.34858000  1
  O  O85  1  0.67171100  0.25509300  0.15142000  1
  O  O86  1  0.25509300  0.67171100  0.65142000  1
  O  O87  1  0.32828900  0.74490700  0.84858000  1
  O  O88  1  0.94598100  0.18522300  0.41272700  1
  O  O89  1  0.81477700  0.05401900  0.08727300  1
  O  O90  1  0.05401900  0.81477700  0.58727300  1
  O  O91  1  0.18522300  0.94598100  0.91272700  1
  O  O92  1  0.91563900  0.33792800  0.63164800  1
  O  O93  1  0.66207200  0.08436100  0.86835200  1
  O  O94  1  0.08436100  0.66207200  0.36835200  1
  O  O95  1  0.33792800  0.91563900  0.13164800  1
  O  O96  1  0.30430800  0.19820200  0.75494300  1
  O  O97  1  0.80179800  0.69569200  0.74505700  1
  O  O98  1  0.69569200  0.80179800  0.24505700  1
  O  O99  1  0.19820200  0.30430800  0.25494300  1
  O  O100  1  0.78820700  0.21179300  0.25000000  1
  O  O101  1  0.21179300  0.78820700  0.75000000  1
  O  O102  1  0.28413100  0.71586900  0.25000000  1
  O  O103  1  0.71586900  0.28413100  0.75000000  1
loop_
_geom_bond_atom_site_label_1
_geom_bond_atom_site_label_2
_geom_bond_distance
_geom_bond_site_symmetry_2
O0 Se0 1.679748 1_555
O1 Se1 1.679748 1_555
O2 Se2 1.679748 1_555
O3 Se3 1.679748 1_555
O4 Se4 1.794128 1_555
O4 V0 1.842096 1_555
O5 Se5 1.794128 1_556
O5 V1 1.842096 1_555
O6 Se6 1.794128 1_555
O6 V2 1.842096 1_555
O7 Se7 1.794128 1_554
O7 V3 1.842096 1_555
O8 Se12 1.784423 1_555
O8 V0 1.846927 1_555
O9 Se13 1.784423 1_555
O9 V1 1.846927 1_555
O10 Se14 1.784423 1_555
O10 V2 1.846927 1_555
O11 Se15 1.784423 1_555
O11 V3 1.846927 1_555
O12 O97 1.293177 1_555
O13 O96 1.293177 1_555
O14 O99 1.293177 1_555
O15 O98 1.293177 1_555
O16 V0 1.741505 1_555
O17 V1 1.741505 1_555
O18 V2 1.741505 1_555
O19 V3 1.741505 1_555
O20 V0 1.628168 1_555
O21 V1 1.628168 1_555
O22 V2 1.628168 1_555
O23 V3 1.628168 1_555
O24 Se0 1.843025 1_555
O24 V4 1.849399 1_555
O25 Se1 1.843025 1_554
O25 V5 1.849399 1_555
O26 Se2 1.843025 1_555
O26 V6 1.849399 1_555
O27 Se3 1.843025 1_556
O27 V7 1.849399 1_555
O28 Se4 1.802508 1_555
O28 V4 1.811287 1_555
O29 Se5 1.802508 1_555
O29 V5 1.811287 1_555
O30 Se6 1.802508 1_555
O30 V6 1.811287 1_555
O31 Se7 1.802508 1_555
O31 V7 1.811287 1_555
O32 Se8 1.635874 1_555
O33 Se9 1.635874 1_555
O34 Se10 1.635874 1_555
O35 Se11 1.635874 1_555
O36 O40 1.442758 1_555
O37 O41 1.442758 1_555
O38 O42 1.442758 1_555
O39 O43 1.442758 1_555
O40 V4 1.841202 1_555
O41 V5 1.841202 1_555
O42 V6 1.841202 1_555
O43 V7 1.841202 1_555
O44 V4 1.611672 1_555
O45 V5 1.611672 1_555
O46 V6 1.611672 1_555
O47 V7 1.611672 1_555
O48 Se0 1.735255 1_545
O48 V8 1.888196 1_555
O49 Se1 1.735255 1_655
O49 V9 1.888196 1_555
O50 Se2 1.735255 1_565
O50 V10 1.888196 1_555
O51 Se3 1.735255 1_455
O51 V11 1.888196 1_555
O52 Se8 1.795472 1_555
O52 V8 1.840029 1_555
O53 Se9 1.795472 1_556
O53 V9 1.840029 1_555
O54 Se10 1.795472 1_555
O54 V10 1.840029 1_555
O55 Se11 1.795472 1_554
O55 V11 1.840029 1_555
O56 O96 1.284488 1_555
O57 O97 1.284488 1_555
O58 O98 1.284488 1_555
O59 O99 1.284488 1_555
O60 V8 1.678371 1_555
O61 V9 1.678371 1_555
O62 V10 1.678371 1_555
O63 V11 1.678371 1_555
O64 V8 1.640823 1_555
O65 V9 1.640823 1_555
O66 V10 1.640823 1_555
O67 V11 1.640823 1_555
O68 Se4 1.639776 1_555
O69 Se5 1.639776 1_555
O70 Se6 1.639776 1_555
O71 Se7 1.639776 1_555
O72 V12 1.818139 1_555
O72 Se12 1.889653 1_555
O73 V13 1.818139 1_555
O73 Se13 1.889653 1_554
O74 V14 1.818139 1_555
O74 Se14 1.889653 1_555
O75 V15 1.818139 1_555
O75 Se15 1.889653 1_556
O76 O84 1.423210 1_555
O77 O85 1.423210 1_555
O78 O86 1.423210 1_555
O79 O87 1.423210 1_555
O80 V12 1.614827 1_555
O81 V13 1.614827 1_555
O82 V14 1.614827 1_555
O83 V15 1.614827 1_555
O84 V12 1.875594 1_555
O85 V13 1.875594 1_555
O86 V14 1.875594 1_555
O87 V15 1.875594 1_555
O88 Se8 1.803199 1_655
O88 V12 1.814583 1_555
O89 Se9 1.803199 1_545
O89 V13 1.814583 1_555
O90 Se10 1.803199 1_455
O90 V14 1.814583 1_555
O91 Se11 1.803199 1_565
O91 V15 1.814583 1_555
O92 Se12 1.630576 1_555
O93 Se13 1.630576 1_555
O94 Se14 1.630576 1_555
O95 Se15 1.630576 1_555
O100 O77 1.439688 1_555
O100 O76 1.439688 1_555
O101 O78 1.439688 1_555
O101 O79 1.439688 1_555
O102 O36 1.431429 1_555
O102 O37 1.431429 1_555
O103 O39 1.431429 1_555
O103 O38 1.431429 1_555
