# generated using pymatgen
data_Li5Fe8(BO3)8
_symmetry_space_group_name_H-M   'P 1'
_cell_length_a   5.23516900
_cell_length_b   9.11687576
_cell_length_c   11.34388299
_cell_angle_alpha   112.47873120
_cell_angle_beta   102.93852188
_cell_angle_gamma   89.37135293
_symmetry_Int_Tables_number   1
_chemical_formula_structural   Li5Fe8(BO3)8
_chemical_formula_sum   'Li5 Fe8 B8 O24'
_cell_volume   485.90923995
_cell_formula_units_Z   1
loop_
 _symmetry_equiv_pos_site_id
 _symmetry_equiv_pos_as_xyz
  1  'x, y, z'
loop_
 _atom_site_type_symbol
 _atom_site_label
 _atom_site_symmetry_multiplicity
 _atom_site_fract_x
 _atom_site_fract_y
 _atom_site_fract_z
 _atom_site_occupancy
  Li  Li0  1  0.02782900  0.02687500  0.39443900  1
  Li  Li1  1  0.29066900  0.28216800  0.91420500  1
  Li  Li2  1  0.26269200  0.24960200  0.16305900  1
  Li  Li3  1  0.52947400  0.53978600  0.41871000  1
  Li  Li4  1  0.97716800  0.99790900  0.65162400  1
  Fe  Fe0  1  0.02553900  0.34814000  0.38104300  1
  Fe  Fe1  1  0.25887900  0.93010100  0.88003700  1
  Fe  Fe2  1  0.46964300  0.16116200  0.62655200  1
  Fe  Fe3  1  0.24545000  0.57662000  0.13480900  1
  Fe  Fe4  1  0.77332100  0.44434400  0.88001500  1
  Fe  Fe5  1  0.53379100  0.85326100  0.37927700  1
  Fe  Fe6  1  0.98712600  0.64562000  0.63487200  1
  Fe  Fe7  1  0.72890100  0.06001600  0.12389200  1
  B  B0  1  0.03163700  0.69059000  0.38672200  1
  B  B1  1  0.27242300  0.59574100  0.87282700  1
  B  B2  1  0.48468600  0.81643300  0.62761900  1
  B  B3  1  0.23448300  0.90645500  0.13617800  1
  B  B4  1  0.51906800  0.18411900  0.37129200  1
  B  B5  1  0.76483200  0.11399400  0.87978200  1
  B  B6  1  0.96603100  0.31262000  0.62840900  1
  B  B7  1  0.73086700  0.38301700  0.11826200  1
  O  O0  1  0.01903700  0.10174300  0.86279200  1
  O  O1  1  0.11744800  0.69869300  0.82793700  1
  O  O2  1  0.15433500  0.49179700  0.91365800  1
  O  O3  1  0.08018700  0.17106000  0.60747500  1
  O  O4  1  0.05644200  0.42250900  0.58572400  1
  O  O5  1  0.23880100  0.82787700  0.66143800  1
  O  O6  1  0.26909200  0.65965500  0.34799800  1
  O  O7  1  0.53225700  0.59549700  0.87772400  1
  O  O8  1  0.60926200  0.22624300  0.84708200  1
  O  O9  1  0.41002900  0.08374900  0.41593400  1
  O  O10  1  0.39437100  0.31423100  0.35972000  1
  O  O11  1  0.65398400  0.01968300  0.93014500  1
  O  O12  1  0.34865300  0.01223800  0.09334400  1
  O  O13  1  0.62178400  0.68399500  0.61711500  1
  O  O14  1  0.58580500  0.93685900  0.59995700  1
  O  O15  1  0.38134500  0.79699900  0.16997700  1
  O  O16  1  0.46488500  0.38172200  0.11309400  1
  O  O17  1  0.75403300  0.34459700  0.68530700  1
  O  O18  1  0.75681700  0.15183100  0.33262600  1
  O  O19  1  0.91837100  0.58143500  0.42541900  1
  O  O20  1  0.91356500  0.82699600  0.39158400  1
  O  O21  1  0.85707200  0.47858600  0.07579500  1
  O  O22  1  0.88275300  0.27794900  0.16475700  1
  O  O23  1  0.98006700  0.92163800  0.14534100  1
loop_
_geom_bond_atom_site_label_1
_geom_bond_atom_site_label_2
_geom_bond_distance
_geom_bond_site_symmetry_2
Li0 O20 1.910411 1_445
Li0 O18 1.983006 1_455
Li0 O9 2.009837 1_555
Li0 O3 2.219323 1_555
Li0 O23 2.565845 1_445
Li1 O8 1.968446 1_555
Li1 O0 2.003600 1_555
Li1 O2 2.034488 1_555
Li1 O16 2.068028 1_556
Li2 O16 1.926472 1_555
Li2 O22 2.006372 1_455
Li2 O10 2.028392 1_555
Li2 O12 2.083328 1_555
Li3 O6 1.960578 1_555
Li3 O10 1.986044 1_555
Li3 O19 2.054387 1_555
Li3 O13 2.071663 1_555
Li4 O3 1.943668 1_665
Li4 O14 2.022108 1_555
Li4 O5 2.075703 1_655
Li4 O0 2.172056 1_665
Fe0 O10 2.005323 1_555
Fe0 O19 2.091298 1_455
Fe0 O18 2.107474 1_455
Fe0 O4 2.123057 1_555
Fe0 O22 2.230840 1_455
Fe1 O0 2.035812 1_565
Fe1 O1 2.057493 1_555
Fe1 O11 2.103362 1_565
Fe1 O12 2.179358 1_566
Fe1 O5 2.268708 1_555
Fe2 O3 2.006307 1_555
Fe2 O17 2.053177 1_555
Fe2 O14 2.055659 1_545
Fe2 O9 2.164578 1_555
Fe2 O8 2.280412 1_555
Fe3 O15 1.998347 1_555
Fe3 O16 2.069985 1_555
Fe3 O21 2.086574 1_455
Fe3 O6 2.214740 1_555
Fe3 O2 2.260065 1_554
Fe4 O7 1.861958 1_555
Fe4 O2 1.965532 1_655
Fe4 O17 2.020379 1_555
Fe4 O8 2.038804 1_555
Fe4 O21 2.063708 1_556
Fe5 O20 1.980028 1_555
Fe5 O9 2.104969 1_565
Fe5 O6 2.125152 1_555
Fe5 O15 2.183207 1_555
Fe5 O14 2.272047 1_555
Fe6 O13 1.920364 1_555
Fe6 O4 1.946072 1_655
Fe6 O1 2.005977 1_655
Fe6 O5 2.018680 1_655
Fe6 O19 2.162374 1_555
Fe7 O23 1.853317 1_545
Fe7 O12 1.966532 1_555
Fe7 O22 1.993711 1_555
Fe7 O11 2.029460 1_554
Fe7 O18 2.158901 1_555
B0 O20 1.370257 1_455
B0 O6 1.399985 1_555
B0 O19 1.413576 1_455
B1 O7 1.348936 1_555
B1 O1 1.400818 1_555
B1 O2 1.404093 1_555
B2 O13 1.377123 1_555
B2 O14 1.390934 1_555
B2 O5 1.415156 1_555
B3 O23 1.360478 1_455
B3 O15 1.370276 1_555
B3 O12 1.422841 1_565
B4 O10 1.383548 1_555
B4 O9 1.383804 1_555
B4 O18 1.402110 1_555
B5 O0 1.384125 1_655
B5 O11 1.391939 1_555
B5 O8 1.408856 1_555
B6 O3 1.375293 1_655
B6 O17 1.379545 1_555
B6 O4 1.395053 1_655
B7 O21 1.379812 1_555
B7 O16 1.380507 1_555
B7 O22 1.417681 1_555
