# generated using pymatgen
data_La3Ce4O12
_symmetry_space_group_name_H-M   'P 1'
_cell_length_a   14.42890186
_cell_length_b   14.42890186
_cell_length_c   5.63139822
_cell_angle_alpha   79.19506808
_cell_angle_beta   79.19506808
_cell_angle_gamma   15.35014979
_symmetry_Int_Tables_number   1
_chemical_formula_structural   La3Ce4O12
_chemical_formula_sum   'La3 Ce4 O12'
_cell_volume   304.75627398
_cell_formula_units_Z   1
loop_
 _symmetry_equiv_pos_site_id
 _symmetry_equiv_pos_as_xyz
  1  'x, y, z'
loop_
 _atom_site_type_symbol
 _atom_site_label
 _atom_site_symmetry_multiplicity
 _atom_site_fract_x
 _atom_site_fract_y
 _atom_site_fract_z
 _atom_site_occupancy
  La  La0  1  0.00000000  0.00000000  0.00000000  1
  La  La1  1  0.42705100  0.42705100  0.52608700  1
  La  La2  1  0.57294900  0.57294900  0.47391300  1
  Ce  Ce0  1  0.15169600  0.15169600  0.83569800  1
  Ce  Ce1  1  0.28588800  0.28588800  0.71448400  1
  Ce  Ce2  1  0.84830400  0.84830400  0.16430200  1
  Ce  Ce3  1  0.71411200  0.71411200  0.28551600  1
  O  O0  1  0.63591700  0.63591700  0.10748400  1
  O  O1  1  0.51320700  0.51320700  0.23819300  1
  O  O2  1  0.35020400  0.35020400  0.39676500  1
  O  O3  1  0.21648000  0.21648000  0.52850000  1
  O  O4  1  0.64979600  0.64979600  0.60323500  1
  O  O5  1  0.07468700  0.07468700  0.70784000  1
  O  O6  1  0.92531300  0.92531300  0.29216000  1
  O  O7  1  0.48679300  0.48679300  0.76180700  1
  O  O8  1  0.78352000  0.78352000  0.47150000  1
  O  O9  1  0.21399300  0.21399300  0.03093100  1
  O  O10  1  0.78600700  0.78600700  0.96906900  1
  O  O11  1  0.36408300  0.36408300  0.89251600  1
loop_
_geom_bond_atom_site_label_1
_geom_bond_atom_site_label_2
_geom_bond_distance
_geom_bond_site_symmetry_2
La0 O7 2.418082 1_544
La0 O1 2.418082 1_545
La0 O1 2.418082 1_455
La0 O7 2.418082 1_454
La0 O5 2.437182 1_554
La0 O6 2.437182 1_445
La1 O6 2.340118 1_455
La1 O6 2.340118 1_545
La1 O7 2.353584 1_555
La1 O2 2.442556 1_555
La1 O11 2.468852 1_555
La1 O1 2.681125 1_555
La2 O5 2.340118 1_565
La2 O5 2.340118 1_655
La2 O1 2.353584 1_555
La2 O4 2.442556 1_555
La2 O0 2.468852 1_555
La2 O7 2.681125 1_555
Ce0 O9 2.263645 1_556
Ce0 O3 2.283182 1_555
Ce0 O4 2.336048 1_545
Ce0 O4 2.336048 1_455
Ce0 O5 2.443140 1_555
Ce0 O0 2.449166 1_546
Ce0 O0 2.449166 1_456
Ce1 O2 2.310743 1_555
Ce1 O8 2.371820 1_545
Ce1 O8 2.371820 1_455
Ce1 O10 2.402249 1_455
Ce1 O10 2.402249 1_545
Ce1 O3 2.413250 1_555
Ce1 O9 2.452994 1_556
Ce1 O11 2.618109 1_555
Ce2 O10 2.263645 1_554
Ce2 O8 2.283182 1_555
Ce2 O2 2.336048 1_655
Ce2 O2 2.336048 1_565
Ce2 O6 2.443140 1_555
Ce2 O11 2.449166 1_564
Ce2 O11 2.449166 1_654
Ce3 O4 2.310743 1_555
Ce3 O3 2.371820 1_565
Ce3 O3 2.371820 1_655
Ce3 O9 2.402249 1_565
Ce3 O9 2.402249 1_655
Ce3 O8 2.413250 1_555
Ce3 O10 2.452994 1_554
Ce3 O0 2.618109 1_555
