# generated using pymatgen
data_LiTi6O12
_symmetry_space_group_name_H-M   'P 1'
_cell_length_a   5.94244400
_cell_length_b   4.93399900
_cell_length_c   14.24322429
_cell_angle_alpha   87.90258655
_cell_angle_beta   90.00000000
_cell_angle_gamma   90.00000000
_symmetry_Int_Tables_number   1
_chemical_formula_structural   LiTi6O12
_chemical_formula_sum   'Li2 Ti12 O24'
_cell_volume   417.33173777
_cell_formula_units_Z   2
loop_
 _symmetry_equiv_pos_site_id
 _symmetry_equiv_pos_as_xyz
  1  'x, y, z'
loop_
 _atom_site_type_symbol
 _atom_site_label
 _atom_site_symmetry_multiplicity
 _atom_site_fract_x
 _atom_site_fract_y
 _atom_site_fract_z
 _atom_site_occupancy
  Li  Li0  1  0.12477100  0.93164600  0.21904000  1
  Li  Li1  1  0.87522900  0.93164600  0.71904000  1
  Ti  Ti0  1  0.87112200  0.47388300  0.15446200  1
  Ti  Ti1  1  0.37873500  0.47492800  0.15377700  1
  Ti  Ti2  1  0.62126500  0.47492800  0.65377700  1
  Ti  Ti3  1  0.12887800  0.47388300  0.65446200  1
  Ti  Ti4  1  0.62458700  0.53916400  0.34000400  1
  Ti  Ti5  1  0.12603900  0.50114600  0.35074500  1
  Ti  Ti6  1  0.87396100  0.50114600  0.85074500  1
  Ti  Ti7  1  0.37541300  0.53916400  0.84000400  1
  Ti  Ti8  1  0.87469600  0.99847900  0.49652600  1
  Ti  Ti9  1  0.37555900  0.00043700  0.50061000  1
  Ti  Ti10  1  0.62444100  0.00043700  0.00061000  1
  Ti  Ti11  1  0.12530400  0.99847900  0.99652600  1
  O  O0  1  0.37236900  0.18304700  0.06699400  1
  O  O1  1  0.87776100  0.18501400  0.06601200  1
  O  O2  1  0.62763100  0.18304700  0.56699400  1
  O  O3  1  0.12223900  0.18501400  0.56601200  1
  O  O4  1  0.62482200  0.30922200  0.22529100  1
  O  O5  1  0.12516000  0.30088900  0.22691400  1
  O  O6  1  0.86993200  0.31096400  0.40289800  1
  O  O7  1  0.38000100  0.31070600  0.40316700  1
  O  O8  1  0.37517800  0.30922200  0.72529100  1
  O  O9  1  0.87484000  0.30088900  0.72691400  1
  O  O10  1  0.61999900  0.31070600  0.90316700  1
  O  O11  1  0.13006800  0.31096400  0.90289800  1
  O  O12  1  0.62542000  0.68777000  0.09556900  1
  O  O13  1  0.12484900  0.70473000  0.10285600  1
  O  O14  1  0.88215200  0.69969000  0.27345100  1
  O  O15  1  0.36756400  0.69995200  0.27341900  1
  O  O16  1  0.87515100  0.70473000  0.60285600  1
  O  O17  1  0.37458000  0.68777000  0.59556900  1
  O  O18  1  0.63243600  0.69995200  0.77341900  1
  O  O19  1  0.11784800  0.69969000  0.77345100  1
  O  O20  1  0.62484100  0.81468600  0.43453500  1
  O  O21  1  0.12489500  0.81264700  0.43413000  1
  O  O22  1  0.87510500  0.81264700  0.93413000  1
  O  O23  1  0.37515900  0.81468600  0.93453500  1
loop_
_geom_bond_atom_site_label_1
_geom_bond_atom_site_label_2
_geom_bond_distance
_geom_bond_site_symmetry_2
Li0 O5 1.829387 1_565
Li0 O15 1.980800 1_555
Li0 O14 1.980944 1_455
Li0 O13 2.031651 1_555
Li1 O9 1.829387 1_565
Li1 O18 1.980800 1_555
Li1 O19 1.980944 1_655
Li1 O16 2.031651 1_555
O0 Ti1 1.932254 1_555
O0 Ti10 2.002983 1_555
O0 Ti11 2.014726 1_544
O1 Ti0 1.936889 1_555
O1 Ti10 2.006311 1_555
O1 Ti11 2.014232 1_644
O2 Ti2 1.932254 1_555
O2 Ti9 2.002983 1_555
O2 Ti8 2.014726 1_545
O3 Ti3 1.936889 1_555
O3 Ti9 2.006311 1_555
O3 Ti8 2.014232 1_445
O4 Ti0 1.939072 1_555
O4 Ti1 1.945127 1_555
O4 Ti4 2.022975 1_555
O5 Ti0 2.001977 1_455
O5 Ti1 2.006905 1_555
O5 Ti5 2.052971 1_555
O6 Ti5 1.922881 1_655
O6 Ti8 2.001461 1_545
O6 Ti4 2.030272 1_555
O7 Ti5 1.914837 1_555
O7 Ti9 2.028547 1_555
O7 Ti4 2.029340 1_555
O8 Ti3 1.939072 1_555
O8 Ti2 1.945127 1_555
O8 Ti7 2.022975 1_555
O9 Ti3 2.001977 1_655
O9 Ti2 2.006905 1_555
O9 Ti6 2.052971 1_555
O10 Ti6 1.914837 1_555
O10 Ti10 2.028547 1_556
O10 Ti7 2.029340 1_555
O11 Ti6 1.922881 1_455
O11 Ti11 2.001461 1_545
O11 Ti7 2.030272 1_555
O12 Ti1 1.968595 1_555
O12 Ti0 1.970872 1_555
O12 Ti10 2.014086 1_565
O13 Ti1 2.006893 1_555
O13 Ti0 2.012374 1_455
O13 Ti11 2.057579 1_554
O14 Ti4 1.952835 1_555
O14 Ti5 2.047718 1_655
O14 Ti0 2.063032 1_555
O15 Ti4 1.951029 1_555
O15 Ti5 2.038642 1_555
O15 Ti1 2.068697 1_555
O16 Ti2 2.006893 1_555
O16 Ti3 2.012374 1_655
O16 Ti8 2.057579 1_555
O17 Ti2 1.968595 1_555
O17 Ti3 1.970872 1_555
O17 Ti9 2.014086 1_565
O18 Ti7 1.951029 1_555
O18 Ti6 2.038642 1_555
O18 Ti2 2.068697 1_555
O19 Ti7 1.952835 1_555
O19 Ti6 2.047718 1_455
O19 Ti3 2.063032 1_555
O20 Ti4 1.948045 1_555
O20 Ti8 1.965971 1_555
O20 Ti9 1.995793 1_565
O21 Ti8 1.975024 1_455
O21 Ti5 1.976468 1_555
O21 Ti9 2.009503 1_565
O22 Ti11 1.975024 1_655
O22 Ti6 1.976468 1_555
O22 Ti10 2.009503 1_566
O23 Ti7 1.948045 1_555
O23 Ti11 1.965971 1_555
O23 Ti10 1.995793 1_566
