# generated using pymatgen
data_H8S2N2O5
_symmetry_space_group_name_H-M   'P 1'
_cell_length_a   6.11110700
_cell_length_b   7.29078600
_cell_length_c   15.37497700
_cell_angle_alpha   90.00000000
_cell_angle_beta   90.00000000
_cell_angle_gamma   90.00000000
_symmetry_Int_Tables_number   1
_chemical_formula_structural   H8S2N2O5
_chemical_formula_sum   'H32 S8 N8 O20'
_cell_volume   685.02861565
_cell_formula_units_Z   4
loop_
 _symmetry_equiv_pos_site_id
 _symmetry_equiv_pos_as_xyz
  1  'x, y, z'
loop_
 _atom_site_type_symbol
 _atom_site_label
 _atom_site_symmetry_multiplicity
 _atom_site_fract_x
 _atom_site_fract_y
 _atom_site_fract_z
 _atom_site_occupancy
  H  H0  1  0.25000000  0.16663800  0.51487700  1
  H  H1  1  0.25000000  0.66663800  0.98512300  1
  H  H2  1  0.75000000  0.83336200  0.48512300  1
  H  H3  1  0.75000000  0.33336200  0.01487700  1
  H  H4  1  0.25000000  0.38021900  0.55390500  1
  H  H5  1  0.25000000  0.88021900  0.94609500  1
  H  H6  1  0.75000000  0.61978100  0.44609500  1
  H  H7  1  0.75000000  0.11978100  0.05390500  1
  H  H8  1  0.38738200  0.33334400  0.46190500  1
  H  H9  1  0.11261800  0.83334400  0.03809500  1
  H  H10  1  0.88738200  0.66665600  0.53809500  1
  H  H11  1  0.61261800  0.16665600  0.96190500  1
  H  H12  1  0.61261800  0.66665600  0.53809500  1
  H  H13  1  0.88738200  0.16665600  0.96190500  1
  H  H14  1  0.11261800  0.33334400  0.46190500  1
  H  H15  1  0.38738200  0.83334400  0.03809500  1
  H  H16  1  0.25000000  0.37932800  0.87150100  1
  H  H17  1  0.25000000  0.87932800  0.62849900  1
  H  H18  1  0.75000000  0.62067200  0.12849900  1
  H  H19  1  0.75000000  0.12067200  0.37150100  1
  H  H20  1  0.25000000  0.16335000  0.83262000  1
  H  H21  1  0.25000000  0.66335000  0.66738000  1
  H  H22  1  0.75000000  0.83665000  0.16738000  1
  H  H23  1  0.75000000  0.33665000  0.33262000  1
  H  H24  1  0.38715400  0.33002700  0.78016600  1
  H  H25  1  0.11284600  0.83002700  0.71983400  1
  H  H26  1  0.88715400  0.66997300  0.21983400  1
  H  H27  1  0.61284600  0.16997300  0.28016600  1
  H  H28  1  0.61284600  0.66997300  0.21983400  1
  H  H29  1  0.88715400  0.16997300  0.28016600  1
  H  H30  1  0.11284600  0.33002700  0.78016600  1
  H  H31  1  0.38715400  0.83002700  0.71983400  1
  S  S0  1  0.75000000  0.16623100  0.59229600  1
  S  S1  1  0.75000000  0.66623100  0.90770400  1
  S  S2  1  0.25000000  0.83376900  0.40770400  1
  S  S3  1  0.25000000  0.33376900  0.09229600  1
  S  S4  1  0.75000000  0.39618800  0.69076800  1
  S  S5  1  0.75000000  0.89618800  0.80923200  1
  S  S6  1  0.25000000  0.60381200  0.30923200  1
  S  S7  1  0.25000000  0.10381200  0.19076800  1
  N  N0  1  0.25000000  0.30345000  0.49802900  1
  N  N1  1  0.25000000  0.80345000  0.00197100  1
  N  N2  1  0.75000000  0.69655000  0.50197100  1
  N  N3  1  0.75000000  0.19655000  0.99802900  1
  N  N4  1  0.25000000  0.29957900  0.81617400  1
  N  N5  1  0.25000000  0.79957900  0.68382600  1
  N  N6  1  0.75000000  0.70042100  0.18382600  1
  N  N7  1  0.75000000  0.20042100  0.31617400  1
  O  O0  1  0.54435900  0.49513800  0.66187400  1
  O  O1  1  0.95564100  0.99513800  0.83812600  1
  O  O2  1  0.04435900  0.50486200  0.33812600  1
  O  O3  1  0.45564100  0.00486200  0.16187400  1
  O  O4  1  0.45564100  0.50486200  0.33812600  1
  O  O5  1  0.04435900  0.00486200  0.16187400  1
  O  O6  1  0.95564100  0.49513800  0.66187400  1
  O  O7  1  0.54435900  0.99513800  0.83812600  1
  O  O8  1  0.54795800  0.05877100  0.60748300  1
  O  O9  1  0.95204200  0.55877100  0.89251700  1
  O  O10  1  0.04795800  0.94122900  0.39251700  1
  O  O11  1  0.45204200  0.44122900  0.10748300  1
  O  O12  1  0.45204200  0.94122900  0.39251700  1
  O  O13  1  0.04795800  0.44122900  0.10748300  1
  O  O14  1  0.95204200  0.05877100  0.60748300  1
  O  O15  1  0.54795800  0.55877100  0.89251700  1
  O  O16  1  0.75000000  0.26291800  0.50675600  1
  O  O17  1  0.75000000  0.76291800  0.99324400  1
  O  O18  1  0.25000000  0.73708200  0.49324400  1
  O  O19  1  0.25000000  0.23708200  0.00675600  1
loop_
_geom_bond_atom_site_label_1
_geom_bond_atom_site_label_2
_geom_bond_distance
_geom_bond_site_symmetry_2
H0 N0 1.030554 1_555
H1 N1 1.030554 1_556
H2 N2 1.030554 1_555
H3 N3 1.030554 1_554
H4 N0 1.025334 1_555
H5 N1 1.025334 1_556
H6 N2 1.025334 1_555
H7 N3 1.025334 1_554
H8 N0 1.029967 1_555
H9 N1 1.029967 1_555
H10 N2 1.029967 1_555
H11 N3 1.029967 1_555
H12 N2 1.029967 1_555
H13 N3 1.029967 1_555
H14 N0 1.029967 1_555
H15 N1 1.029967 1_555
H16 N4 1.030375 1_555
H17 N5 1.030375 1_555
H18 N6 1.030375 1_555
H19 N7 1.030375 1_555
H20 N4 1.024898 1_555
H21 N5 1.024898 1_555
H22 N6 1.024898 1_555
H23 N7 1.024898 1_555
H24 N4 1.028734 1_555
H25 N5 1.028734 1_555
H26 N6 1.028734 1_555
H27 N7 1.028734 1_555
H28 N6 1.028734 1_555
H29 N7 1.028734 1_555
H30 N4 1.028734 1_555
H31 N5 1.028734 1_555
O0 S4 1.515614 1_555
O1 S5 1.515614 1_555
O2 S6 1.515614 1_555
O3 S7 1.515614 1_555
O4 S6 1.515614 1_555
O5 S7 1.515614 1_555
O6 S4 1.515614 1_555
O7 S5 1.515614 1_555
O8 S0 1.480820 1_555
O9 S1 1.480820 1_555
O10 S2 1.480820 1_555
O11 S3 1.480820 1_555
O12 S2 1.480820 1_555
O13 S3 1.480820 1_555
O14 S0 1.480820 1_555
O15 S1 1.480820 1_555
O16 S0 1.492181 1_555
O17 S1 1.492181 1_555
O18 S2 1.492181 1_555
O19 S3 1.492181 1_555
