# generated using pymatgen
data_Ni3OF5
_symmetry_space_group_name_H-M   'P 1'
_cell_length_a   4.68898674
_cell_length_b   4.68906755
_cell_length_c   9.28347500
_cell_angle_alpha   90.00154264
_cell_angle_beta   89.99872225
_cell_angle_gamma   89.21634516
_symmetry_Int_Tables_number   1
_chemical_formula_structural   Ni3OF5
_chemical_formula_sum   'Ni6 O2 F10'
_cell_volume   204.09644641
_cell_formula_units_Z   2
loop_
 _symmetry_equiv_pos_site_id
 _symmetry_equiv_pos_as_xyz
  1  'x, y, z'
loop_
 _atom_site_type_symbol
 _atom_site_label
 _atom_site_symmetry_multiplicity
 _atom_site_fract_x
 _atom_site_fract_y
 _atom_site_fract_z
 _atom_site_occupancy
  Ni  Ni0  1  0.00794300  0.99206000  0.66313200  1
  Ni  Ni1  1  0.00090600  0.99908900  0.33333900  1
  Ni  Ni2  1  0.00786700  0.99214200  0.00356400  1
  Ni  Ni3  1  0.48848100  0.51152000  0.16643300  1
  Ni  Ni4  1  0.50714900  0.49285900  0.83331400  1
  Ni  Ni5  1  0.48858800  0.51140500  0.50023000  1
  O  O0  1  0.19536600  0.80463800  0.16548300  1
  O  O1  1  0.19545800  0.80455800  0.50119400  1
  F  F0  1  0.20243500  0.79758200  0.83337000  1
  F  F1  1  0.30494100  0.30148800  0.00005700  1
  F  F2  1  0.30054300  0.30530100  0.33331400  1
  F  F3  1  0.30500600  0.30136200  0.66661500  1
  F  F4  1  0.69853000  0.69505900  0.00005500  1
  F  F5  1  0.69469400  0.69944200  0.33331400  1
  F  F6  1  0.69866300  0.69496900  0.66661300  1
  F  F7  1  0.81230300  0.18768000  0.83332000  1
  F  F8  1  0.79553100  0.20446400  0.16695900  1
  F  F9  1  0.79559400  0.20438100  0.49969300  1
loop_
_geom_bond_atom_site_label_1
_geom_bond_atom_site_label_2
_geom_bond_distance
_geom_bond_site_symmetry_2
Ni0 O1 1.945476 1_555
Ni1 O0 2.016968 1_555
Ni1 O1 2.017390 1_555
Ni2 O0 1.945377 1_555
Ni3 O0 1.930422 1_555
Ni5 O1 1.930586 1_555
F0 Ni4 2.006810 1_555
F0 Ni2 2.034233 1_556
F0 Ni0 2.034293 1_555
F1 Ni2 2.025041 1_545
F1 Ni3 2.029627 1_555
F1 Ni4 2.030683 1_554
F2 Ni1 2.022586 1_545
F2 Ni3 2.033490 1_555
F2 Ni5 2.033689 1_555
F3 Ni0 2.024852 1_545
F3 Ni5 2.029812 1_555
F3 Ni4 2.030488 1_555
F4 Ni2 2.025039 1_655
F4 Ni3 2.029683 1_555
F4 Ni4 2.030667 1_554
F5 Ni1 2.022618 1_655
F5 Ni3 2.033436 1_555
F5 Ni5 2.033682 1_555
F6 Ni0 2.024867 1_655
F6 Ni5 2.029827 1_555
F6 Ni4 2.030472 1_555
F7 Ni4 2.009760 1_555
F7 Ni0 2.038619 1_645
F7 Ni2 2.038764 1_646
F8 Ni3 2.022190 1_555
F8 Ni1 2.053118 1_645
F8 Ni2 2.063043 1_645
F9 Ni5 2.021940 1_555
F9 Ni1 2.052548 1_645
F9 Ni0 2.063442 1_645
