# generated using pymatgen
data_LiFeBO4
_symmetry_space_group_name_H-M   'P 1'
_cell_length_a   4.31771100
_cell_length_b   5.88046800
_cell_length_c   10.05417600
_cell_angle_alpha   90.00000000
_cell_angle_beta   90.00000000
_cell_angle_gamma   90.00000000
_symmetry_Int_Tables_number   1
_chemical_formula_structural   LiFeBO4
_chemical_formula_sum   'Li4 Fe4 B4 O16'
_cell_volume   255.27715107
_cell_formula_units_Z   4
loop_
 _symmetry_equiv_pos_site_id
 _symmetry_equiv_pos_as_xyz
  1  'x, y, z'
loop_
 _atom_site_type_symbol
 _atom_site_label
 _atom_site_symmetry_multiplicity
 _atom_site_fract_x
 _atom_site_fract_y
 _atom_site_fract_z
 _atom_site_occupancy
  Li  Li0  1  0.47678900  0.25000000  0.72432800  1
  Li  Li1  1  0.97678900  0.75000000  0.77567200  1
  Li  Li2  1  0.02321100  0.25000000  0.22432800  1
  Li  Li3  1  0.52321100  0.75000000  0.27567200  1
  Fe  Fe0  1  0.00000000  0.50000000  0.50000000  1
  Fe  Fe1  1  0.00000000  0.00000000  0.50000000  1
  Fe  Fe2  1  0.50000000  0.50000000  0.00000000  1
  Fe  Fe3  1  0.50000000  0.00000000  0.00000000  1
  B  B0  1  0.40889000  0.75000000  0.58232400  1
  B  B1  1  0.90889000  0.25000000  0.91767600  1
  B  B2  1  0.09111000  0.75000000  0.08232400  1
  B  B3  1  0.59111000  0.25000000  0.41767600  1
  O  O0  1  0.74778200  0.25000000  0.55802500  1
  O  O1  1  0.74781200  0.75000000  0.57739900  1
  O  O2  1  0.27867000  0.95765400  0.64097700  1
  O  O3  1  0.27867000  0.54234600  0.64097700  1
  O  O4  1  0.77867000  0.04234600  0.85902300  1
  O  O5  1  0.77867000  0.45765400  0.85902300  1
  O  O6  1  0.24781200  0.25000000  0.92260100  1
  O  O7  1  0.24778200  0.75000000  0.94197500  1
  O  O8  1  0.75221800  0.25000000  0.05802500  1
  O  O9  1  0.75218800  0.75000000  0.07739900  1
  O  O10  1  0.22133000  0.54234600  0.14097700  1
  O  O11  1  0.22133000  0.95765400  0.14097700  1
  O  O12  1  0.72133000  0.04234600  0.35902300  1
  O  O13  1  0.72133000  0.45765400  0.35902300  1
  O  O14  1  0.25218800  0.25000000  0.42260100  1
  O  O15  1  0.25221800  0.75000000  0.44197500  1
loop_
_geom_bond_atom_site_label_1
_geom_bond_atom_site_label_2
_geom_bond_distance
_geom_bond_site_symmetry_2
Li0 O0 2.040779 1_555
Li0 O3 2.095100 1_555
Li0 O2 2.095100 1_545
Li0 O6 2.225168 1_555
Li0 O5 2.241433 1_555
Li0 O4 2.241433 1_555
Li1 O7 2.040779 1_655
Li1 O4 2.095100 1_565
Li1 O5 2.095100 1_555
Li1 O1 2.225168 1_555
Li1 O2 2.241433 1_655
Li1 O3 2.241433 1_655
Li2 O8 2.040779 1_455
Li2 O11 2.095100 1_545
Li2 O10 2.095100 1_555
Li2 O14 2.225168 1_555
Li2 O13 2.241433 1_455
Li2 O12 2.241433 1_455
Li3 O15 2.040779 1_555
Li3 O12 2.095100 1_565
Li3 O13 2.095100 1_555
Li3 O9 2.225168 1_555
Li3 O10 2.241433 1_555
Li3 O11 2.241433 1_555
Fe0 O13 1.875842 1_455
Fe0 O3 1.875842 1_555
Fe0 O15 1.920292 1_555
Fe0 O0 1.920292 1_455
Fe0 O14 1.988080 1_555
Fe0 O1 1.988080 1_455
Fe1 O12 1.875842 1_455
Fe1 O2 1.875842 1_545
Fe1 O15 1.920292 1_545
Fe1 O0 1.920292 1_455
Fe1 O14 1.988080 1_555
Fe1 O1 1.988080 1_445
Fe2 O10 1.875842 1_555
Fe2 O5 1.875842 1_554
Fe2 O8 1.920292 1_555
Fe2 O7 1.920292 1_554
Fe2 O9 1.988080 1_555
Fe2 O6 1.988080 1_554
Fe3 O4 1.875842 1_554
Fe3 O11 1.875842 1_545
Fe3 O8 1.920292 1_555
Fe3 O7 1.920292 1_544
Fe3 O9 1.988080 1_545
Fe3 O6 1.988080 1_554
B0 O1 1.464205 1_555
B0 O3 1.467983 1_555
B0 O2 1.467983 1_555
B0 O15 1.564861 1_555
B1 O6 1.464205 1_655
B1 O5 1.467983 1_555
B1 O4 1.467983 1_555
B1 O8 1.564861 1_556
B2 O9 1.464205 1_455
B2 O10 1.467983 1_555
B2 O11 1.467983 1_555
B2 O7 1.564861 1_554
B3 O14 1.464205 1_555
B3 O13 1.467983 1_555
B3 O12 1.467983 1_555
B3 O0 1.564861 1_555
