# generated using pymatgen
data_Na2Ge2O5
_symmetry_space_group_name_H-M   'P 1'
_cell_length_a   24.77624200
_cell_length_b   5.03515600
_cell_length_c   8.53919363
_cell_angle_alpha   89.75727439
_cell_angle_beta   90.00000000
_cell_angle_gamma   90.00000000
_symmetry_Int_Tables_number   1
_chemical_formula_structural   Na2Ge2O5
_chemical_formula_sum   'Na16 Ge16 O40'
_cell_volume   1065.27400380
_cell_formula_units_Z   8
loop_
 _symmetry_equiv_pos_site_id
 _symmetry_equiv_pos_as_xyz
  1  'x, y, z'
loop_
 _atom_site_type_symbol
 _atom_site_label
 _atom_site_symmetry_multiplicity
 _atom_site_fract_x
 _atom_site_fract_y
 _atom_site_fract_z
 _atom_site_occupancy
  Na  Na0  1  0.73906300  0.77583700  0.52402400  1
  Na  Na1  1  0.76093700  0.77583700  0.02402400  1
  Na  Na2  1  0.27949400  0.75923900  0.72361900  1
  Na  Na3  1  0.22050600  0.75923900  0.22361900  1
  Na  Na4  1  0.52612700  0.74276500  0.89905000  1
  Na  Na5  1  0.97387300  0.74276500  0.39905000  1
  Na  Na6  1  0.01349700  0.71958100  0.85221100  1
  Na  Na7  1  0.48650300  0.71958100  0.35221100  1
  Na  Na8  1  0.51349700  0.28041900  0.64778900  1
  Na  Na9  1  0.98650300  0.28041900  0.14778900  1
  Na  Na10  1  0.02612700  0.25723500  0.60095000  1
  Na  Na11  1  0.47387300  0.25723500  0.10095000  1
  Na  Na12  1  0.77949400  0.24076100  0.77638100  1
  Na  Na13  1  0.72050600  0.24076100  0.27638100  1
  Na  Na14  1  0.23906300  0.22416300  0.97597600  1
  Na  Na15  1  0.26093700  0.22416300  0.47597600  1
  Ge  Ge0  1  0.58960300  0.81883900  0.54111200  1
  Ge  Ge1  1  0.91039700  0.81883900  0.04111200  1
  Ge  Ge2  1  0.11042500  0.79673400  0.52042400  1
  Ge  Ge3  1  0.38957500  0.79673400  0.02042400  1
  Ge  Ge4  1  0.86306800  0.70131200  0.69827500  1
  Ge  Ge5  1  0.63693200  0.70131200  0.19827500  1
  Ge  Ge6  1  0.16132200  0.68271400  0.86009800  1
  Ge  Ge7  1  0.33867800  0.68271400  0.36009800  1
  Ge  Ge8  1  0.66132200  0.31728600  0.63990200  1
  Ge  Ge9  1  0.83867800  0.31728600  0.13990200  1
  Ge  Ge10  1  0.36306800  0.29868800  0.80172500  1
  Ge  Ge11  1  0.13693200  0.29868800  0.30172500  1
  Ge  Ge12  1  0.61042500  0.20326600  0.97957600  1
  Ge  Ge13  1  0.88957500  0.20326600  0.47957600  1
  Ge  Ge14  1  0.08960300  0.18116100  0.95888800  1
  Ge  Ge15  1  0.41039700  0.18116100  0.45888800  1
  O  O0  1  0.88783600  0.85012000  0.52063800  1
  O  O1  1  0.61216400  0.85012000  0.02063800  1
  O  O2  1  0.10204900  0.82978600  0.94062200  1
  O  O3  1  0.39795100  0.82978600  0.44062200  1
  O  O4  1  0.79774200  0.77395000  0.75428000  1
  O  O5  1  0.70225800  0.77395000  0.25428000  1
  O  O6  1  0.91681500  0.75621600  0.83491500  1
  O  O7  1  0.52849100  0.74815800  0.62635000  1
  O  O8  1  0.58318500  0.75621600  0.33491500  1
  O  O9  1  0.97150900  0.74815800  0.12635000  1
  O  O10  1  0.22255300  0.75234700  0.94633300  1
  O  O11  1  0.27744700  0.75234700  0.44633300  1
  O  O12  1  0.16553500  0.74312500  0.65388200  1
  O  O13  1  0.33446500  0.74312500  0.15388200  1
  O  O14  1  0.04549900  0.72511600  0.58098100  1
  O  O15  1  0.45450100  0.72511600  0.08098100  1
  O  O16  1  0.65000300  0.66993500  0.61617500  1
  O  O17  1  0.84999700  0.66993500  0.11617500  1
  O  O18  1  0.36604600  0.65039900  0.84192500  1
  O  O19  1  0.13395400  0.65039900  0.34192500  1
  O  O20  1  0.86604600  0.34960100  0.65807500  1
  O  O21  1  0.63395400  0.34960100  0.15807500  1
  O  O22  1  0.15000300  0.33006500  0.88382500  1
  O  O23  1  0.34999700  0.33006500  0.38382500  1
  O  O24  1  0.54549900  0.27488400  0.91901900  1
  O  O25  1  0.95450100  0.27488400  0.41901900  1
  O  O26  1  0.66553500  0.25687500  0.84611800  1
  O  O27  1  0.83446500  0.25687500  0.34611800  1
  O  O28  1  0.72255300  0.24765300  0.55366700  1
  O  O29  1  0.77744700  0.24765300  0.05366700  1
  O  O30  1  0.02849100  0.25184200  0.87365000  1
  O  O31  1  0.41681500  0.24378400  0.66508500  1
  O  O32  1  0.47150900  0.25184200  0.37365000  1
  O  O33  1  0.08318500  0.24378400  0.16508500  1
  O  O34  1  0.29774200  0.22605000  0.74572000  1
  O  O35  1  0.20225800  0.22605000  0.24572000  1
  O  O36  1  0.60204900  0.17021400  0.55937800  1
  O  O37  1  0.89795100  0.17021400  0.05937800  1
  O  O38  1  0.38783600  0.14988000  0.97936200  1
  O  O39  1  0.11216400  0.14988000  0.47936200  1
loop_
_geom_bond_atom_site_label_1
_geom_bond_atom_site_label_2
_geom_bond_distance
_geom_bond_site_symmetry_2
Na0 O16 2.401863 1_555
Na0 O28 2.424931 1_565
Na0 O4 2.445310 1_555
Na0 O5 2.477388 1_555
Na0 O28 2.701588 1_555
Na1 O17 2.401863 1_555
Na1 O29 2.424931 1_565
Na1 O5 2.445310 1_555
Na1 O4 2.477388 1_554
Na1 O29 2.701588 1_555
Na2 O10 2.368078 1_555
Na2 O11 2.368743 1_555
Na2 O34 2.401765 1_565
Na2 O18 2.432040 1_555
Na2 O34 2.728240 1_555
Na2 O12 2.886802 1_555
Na3 O11 2.368078 1_555
Na3 O10 2.368743 1_554
Na3 O35 2.401765 1_565
Na3 O19 2.432040 1_555
Na3 O35 2.728240 1_555
Na3 O13 2.886802 1_555
Na4 O7 2.329418 1_555
Na4 O15 2.359982 1_556
Na4 O24 2.409582 1_555
Na4 O1 2.432894 1_556
Na4 O24 2.727998 1_565
Na5 O9 2.329418 1_555
Na5 O14 2.359982 1_655
Na5 O25 2.409582 1_555
Na5 O0 2.432894 1_555
Na5 O25 2.727998 1_565
Na6 O2 2.386420 1_555
Na6 O30 2.390512 1_555
Na6 O6 2.406996 1_455
Na6 O14 2.448092 1_555
Na6 O9 2.566267 1_456
Na6 O30 2.712595 1_565
Na7 O3 2.386420 1_555
Na7 O32 2.390512 1_555
Na7 O8 2.406996 1_555
Na7 O15 2.448092 1_555
Na7 O7 2.566267 1_555
Na7 O32 2.712595 1_565
Na8 O36 2.386420 1_555
Na8 O7 2.390512 1_555
Na8 O31 2.406996 1_555
Na8 O24 2.448092 1_555
Na8 O32 2.566267 1_555
Na8 O7 2.712595 1_545
Na9 O37 2.386420 1_555
Na9 O9 2.390512 1_555
Na9 O33 2.406996 1_655
Na9 O25 2.448092 1_555
Na9 O30 2.566267 1_654
Na9 O9 2.712595 1_545
Na10 O30 2.329418 1_555
Na10 O25 2.359982 1_455
Na10 O14 2.409582 1_555
Na10 O39 2.432894 1_555
Na10 O14 2.727998 1_545
Na11 O32 2.329418 1_555
Na11 O24 2.359982 1_554
Na11 O15 2.409582 1_555
Na11 O38 2.432894 1_554
Na11 O15 2.727998 1_545
Na12 O28 2.368078 1_555
Na12 O29 2.368743 1_556
Na12 O4 2.401765 1_545
Na12 O20 2.432040 1_555
Na12 O4 2.728240 1_555
Na12 O26 2.886802 1_555
Na13 O29 2.368078 1_555
Na13 O28 2.368743 1_555
Na13 O5 2.401765 1_545
Na13 O21 2.432040 1_555
Na13 O5 2.728240 1_555
Na13 O27 2.886802 1_555
Na14 O22 2.401863 1_555
Na14 O10 2.424931 1_545
Na14 O34 2.445310 1_555
Na14 O35 2.477388 1_556
Na14 O10 2.701588 1_555
Na15 O23 2.401863 1_555
Na15 O11 2.424931 1_545
Na15 O35 2.445310 1_555
Na15 O34 2.477388 1_555
Na15 O11 2.701588 1_555
Ge0 O7 1.716632 1_555
Ge0 O16 1.791195 1_555
Ge0 O8 1.797130 1_555
Ge0 O36 1.803309 1_565
Ge1 O9 1.716632 1_555
Ge1 O17 1.791195 1_555
Ge1 O6 1.797130 1_554
Ge1 O37 1.803309 1_565
Ge2 O14 1.727288 1_555
Ge2 O19 1.793199 1_555
Ge2 O12 1.798156 1_555
Ge2 O39 1.811441 1_565
Ge3 O15 1.727288 1_555
Ge3 O18 1.793199 1_554
Ge3 O13 1.798156 1_555
Ge3 O38 1.811441 1_564
Ge4 O4 1.727313 1_555
Ge4 O6 1.792723 1_555
Ge4 O0 1.797017 1_555
Ge4 O20 1.806818 1_555
Ge5 O5 1.727313 1_555
Ge5 O8 1.792723 1_555
Ge5 O1 1.797017 1_555
Ge5 O21 1.806818 1_555
Ge6 O10 1.723045 1_555
Ge6 O2 1.783867 1_555
Ge6 O12 1.788775 1_555
Ge6 O22 1.808192 1_555
Ge7 O11 1.723045 1_555
Ge7 O3 1.783867 1_555
Ge7 O13 1.788775 1_555
Ge7 O23 1.808192 1_555
Ge8 O28 1.723045 1_555
Ge8 O36 1.783867 1_555
Ge8 O26 1.788775 1_555
Ge8 O16 1.808192 1_555
Ge9 O29 1.723045 1_555
Ge9 O37 1.783867 1_555
Ge9 O27 1.788775 1_555
Ge9 O17 1.808192 1_555
Ge10 O34 1.727313 1_555
Ge10 O31 1.792723 1_555
Ge10 O38 1.797017 1_555
Ge10 O18 1.806818 1_555
Ge11 O35 1.727313 1_555
Ge11 O33 1.792723 1_555
Ge11 O39 1.797017 1_555
Ge11 O19 1.806818 1_555
Ge12 O24 1.727288 1_555
Ge12 O21 1.793199 1_556
Ge12 O26 1.798156 1_555
Ge12 O1 1.811441 1_546
Ge13 O25 1.727288 1_555
Ge13 O20 1.793199 1_555
Ge13 O27 1.798156 1_555
Ge13 O0 1.811441 1_545
Ge14 O30 1.716632 1_555
Ge14 O22 1.791195 1_555
Ge14 O33 1.797130 1_556
Ge14 O2 1.803309 1_545
Ge15 O32 1.716632 1_555
Ge15 O23 1.791195 1_555
Ge15 O31 1.797130 1_555
Ge15 O3 1.803309 1_545
