# generated using pymatgen
data_V5W3O20
_symmetry_space_group_name_H-M   'P 1'
_cell_length_a   7.61958900
_cell_length_b   7.82732453
_cell_length_c   12.98269316
_cell_angle_alpha   90.37456803
_cell_angle_beta   107.02164910
_cell_angle_gamma   90.08941347
_symmetry_Int_Tables_number   1
_chemical_formula_structural   V5W3O20
_chemical_formula_sum   'V10 W6 O40'
_cell_volume   740.36118935
_cell_formula_units_Z   2
loop_
 _symmetry_equiv_pos_site_id
 _symmetry_equiv_pos_as_xyz
  1  'x, y, z'
loop_
 _atom_site_type_symbol
 _atom_site_label
 _atom_site_symmetry_multiplicity
 _atom_site_fract_x
 _atom_site_fract_y
 _atom_site_fract_z
 _atom_site_occupancy
  V  V0  1  0.17248400  0.20516200  0.84416000  1
  V  V1  1  0.67922800  0.21163500  0.85878100  1
  V  V2  1  0.17369000  0.70971900  0.84795000  1
  V  V3  1  0.82833600  0.79542500  0.65477400  1
  V  V4  1  0.82410600  0.28497800  0.66005600  1
  V  V5  1  0.17166400  0.20457500  0.34522600  1
  V  V6  1  0.17589400  0.71502200  0.33994400  1
  V  V7  1  0.82751600  0.79483800  0.15584000  1
  V  V8  1  0.32077200  0.78836500  0.14121900  1
  V  V9  1  0.82631000  0.29028100  0.15205000  1
  W  W0  1  0.67907900  0.71919700  0.85608000  1
  W  W1  1  0.31965800  0.77396600  0.64288300  1
  W  W2  1  0.32426800  0.27515600  0.64695100  1
  W  W3  1  0.68034200  0.22603400  0.35711700  1
  W  W4  1  0.67573200  0.72484400  0.35304900  1
  W  W5  1  0.32092100  0.28080300  0.14392000  1
  O  O0  1  0.17254000  0.99240900  0.84855000  1
  O  O1  1  0.67409400  0.99480200  0.84777900  1
  O  O2  1  0.17610400  0.49737800  0.85212200  1
  O  O3  1  0.67302800  0.49117600  0.84935800  1
  O  O4  1  0.41557200  0.24354100  0.81243500  1
  O  O5  1  0.41143500  0.75219900  0.81436400  1
  O  O6  1  0.90269100  0.75091400  0.81568900  1
  O  O7  1  0.89814000  0.24734800  0.81179800  1
  O  O8  1  0.09083800  0.25233800  0.68174100  1
  O  O9  1  0.58763000  0.25173400  0.67131400  1
  O  O10  1  0.09570000  0.74634100  0.68174600  1
  O  O11  1  0.58535500  0.74932700  0.67954100  1
  O  O12  1  0.32234700  0.00723200  0.64635900  1
  O  O13  1  0.32705700  0.50903500  0.65074600  1
  O  O14  1  0.82633200  0.00627200  0.64854800  1
  O  O15  1  0.82723500  0.49469700  0.65353000  1
  O  O16  1  0.24304500  0.75030500  0.49581100  1
  O  O17  1  0.24641800  0.25531900  0.50063100  1
  O  O18  1  0.75695500  0.24969500  0.50418900  1
  O  O19  1  0.75358200  0.74468100  0.49936900  1
  O  O20  1  0.17366800  0.99372800  0.35145200  1
  O  O21  1  0.17276500  0.50530300  0.34647000  1
  O  O22  1  0.67765300  0.99276800  0.35364100  1
  O  O23  1  0.67294300  0.49096500  0.34925400  1
  O  O24  1  0.90916200  0.74766200  0.31825900  1
  O  O25  1  0.41237000  0.74826600  0.32868600  1
  O  O26  1  0.41464500  0.25067300  0.32045900  1
  O  O27  1  0.90430000  0.25365900  0.31825400  1
  O  O28  1  0.09730900  0.24908600  0.18431100  1
  O  O29  1  0.10186000  0.75265200  0.18820200  1
  O  O30  1  0.58442800  0.75645900  0.18756500  1
  O  O31  1  0.58856500  0.24780100  0.18563600  1
  O  O32  1  0.32590600  0.00519800  0.15222100  1
  O  O33  1  0.82746000  0.00759100  0.15145000  1
  O  O34  1  0.32697200  0.50882400  0.15064200  1
  O  O35  1  0.82389600  0.50262200  0.14787800  1
  O  O36  1  0.74672000  0.24281800  0.99377400  1
  O  O37  1  0.24947400  0.25132400  0.99965500  1
  O  O38  1  0.25328000  0.75718200  0.00622600  1
  O  O39  1  0.75052600  0.74867600  0.00034500  1
loop_
_geom_bond_atom_site_label_1
_geom_bond_atom_site_label_2
_geom_bond_distance
_geom_bond_site_symmetry_2
O0 V0 1.666631 1_565
O0 V2 2.212709 1_555
O1 V1 1.701719 1_565
O1 W0 2.160482 1_555
O2 V2 1.663253 1_555
O2 V0 2.288687 1_555
O3 W0 1.786220 1_555
O3 V1 2.192085 1_555
O4 V1 1.938072 1_555
O4 V0 2.034003 1_555
O4 W2 2.072050 1_555
O5 W0 1.968700 1_555
O5 V2 2.011158 1_555
O5 W1 2.137346 1_555
O6 W0 1.939878 1_555
O6 V2 2.010152 1_655
O6 V3 2.030745 1_555
O7 V4 1.908776 1_555
O7 V1 1.956767 1_555
O7 V0 2.035940 1_655
O8 W2 1.967198 1_555
O8 V4 1.985624 1_455
O8 V0 2.052462 1_555
O9 V4 1.867875 1_555
O9 W2 1.947008 1_555
O9 V1 2.350597 1_555
O10 W1 1.928137 1_555
O10 V3 2.001743 1_455
O10 V2 2.085473 1_555
O11 W1 1.949519 1_555
O11 V3 2.002320 1_555
O11 W0 2.206349 1_555
O12 W1 1.826046 1_545
O12 W2 2.097104 1_555
O13 W2 1.830910 1_555
O13 W1 2.076920 1_555
O14 V3 1.652750 1_545
O14 V4 2.186089 1_555
O15 V4 1.644772 1_555
O15 V3 2.353830 1_555
O16 W1 1.833933 1_555
O16 V6 1.954223 1_555
O17 W2 1.822278 1_555
O17 V5 1.966928 1_555
O18 W3 1.833933 1_555
O18 V4 1.954223 1_555
O19 W4 1.822278 1_555
O19 V3 1.966928 1_555
O20 V5 1.652750 1_565
O20 V6 2.186089 1_555
O21 V6 1.644772 1_555
O21 V5 2.353830 1_555
O22 W3 1.826046 1_565
O22 W4 2.097104 1_555
O23 W4 1.830910 1_555
O23 W3 2.076920 1_555
O24 W4 1.967198 1_555
O24 V6 1.985624 1_655
O24 V7 2.052462 1_555
O25 V6 1.867875 1_555
O25 W4 1.947008 1_555
O25 V8 2.350597 1_555
O26 W3 1.949519 1_555
O26 V5 2.002320 1_555
O26 W5 2.206349 1_555
O27 W3 1.928137 1_555
O27 V5 2.001743 1_655
O27 V9 2.085473 1_555
O28 W5 1.939878 1_555
O28 V9 2.010152 1_455
O28 V5 2.030745 1_555
O29 V6 1.908776 1_555
O29 V8 1.956767 1_555
O29 V7 2.035940 1_455
O30 V8 1.938072 1_555
O30 V7 2.034003 1_555
O30 W4 2.072050 1_555
O31 W5 1.968700 1_555
O31 V9 2.011158 1_555
O31 W3 2.137346 1_555
O32 V8 1.701719 1_545
O32 W5 2.160482 1_555
O33 V7 1.666631 1_545
O33 V9 2.212709 1_555
O34 W5 1.786220 1_555
O34 V8 2.192085 1_555
O35 V9 1.663253 1_555
O35 V7 2.288687 1_555
O36 V1 1.691714 1_555
O36 V9 1.996981 1_556
O37 W5 1.804036 1_556
O37 V0 1.961244 1_555
O38 V8 1.691714 1_555
O38 V2 1.996981 1_554
O39 W0 1.804036 1_554
O39 V7 1.961244 1_555
