# generated using pymatgen
data_Li3BiB8O15
_symmetry_space_group_name_H-M   'P 1'
_cell_length_a   11.98834700
_cell_length_b   9.62513300
_cell_length_c   11.70694107
_cell_angle_alpha   89.38378254
_cell_angle_beta   90.00000000
_cell_angle_gamma   90.00000000
_symmetry_Int_Tables_number   1
_chemical_formula_structural   Li3BiB8O15
_chemical_formula_sum   'Li12 Bi4 B32 O60'
_cell_volume   1350.77918102
_cell_formula_units_Z   4
loop_
 _symmetry_equiv_pos_site_id
 _symmetry_equiv_pos_as_xyz
  1  'x, y, z'
loop_
 _atom_site_type_symbol
 _atom_site_label
 _atom_site_symmetry_multiplicity
 _atom_site_fract_x
 _atom_site_fract_y
 _atom_site_fract_z
 _atom_site_occupancy
  Li  Li0  1  0.93182300  0.07253100  0.59556000  1
  Li  Li1  1  0.30479000  0.10413400  0.54062800  1
  Li  Li2  1  0.56817700  0.07253100  0.09556000  1
  Li  Li3  1  0.19521000  0.10413400  0.04062800  1
  Li  Li4  1  0.76829900  0.49785600  0.68145200  1
  Li  Li5  1  0.73170100  0.49785600  0.18145200  1
  Li  Li6  1  0.26829900  0.50214400  0.81854800  1
  Li  Li7  1  0.23170100  0.50214400  0.31854800  1
  Li  Li8  1  0.80479000  0.89586600  0.95937200  1
  Li  Li9  1  0.43182300  0.92746900  0.90444000  1
  Li  Li10  1  0.69521000  0.89586600  0.45937200  1
  Li  Li11  1  0.06817700  0.92746900  0.40444000  1
  Bi  Bi0  1  0.85613600  0.25178000  0.95777100  1
  Bi  Bi1  1  0.64386400  0.25178000  0.45777100  1
  Bi  Bi2  1  0.35613600  0.74822000  0.54222900  1
  Bi  Bi3  1  0.14386400  0.74822000  0.04222900  1
  B  B0  1  0.64878000  0.11345400  0.89162000  1
  B  B1  1  0.85122000  0.11345400  0.39162000  1
  B  B2  1  0.26569000  0.13116400  0.77321200  1
  B  B3  1  0.23431000  0.13116400  0.27321200  1
  B  B4  1  0.46452400  0.17796700  0.80882900  1
  B  B5  1  0.03547600  0.17796700  0.30882900  1
  B  B6  1  0.09195200  0.18674700  0.87413300  1
  B  B7  1  0.63937500  0.24732200  0.71271700  1
  B  B8  1  0.40804800  0.18674700  0.37413300  1
  B  B9  1  0.86062500  0.24732200  0.21271700  1
  B  B10  1  0.11626900  0.26204600  0.67761400  1
  B  B11  1  0.38373100  0.26204600  0.17761400  1
  B  B12  1  0.39614800  0.32711100  0.97623400  1
  B  B13  1  0.10385200  0.32711100  0.47623400  1
  B  B14  1  0.71985500  0.53509500  0.89464100  1
  B  B15  1  0.78014500  0.53509500  0.39464100  1
  B  B16  1  0.21985500  0.46490500  0.60535900  1
  B  B17  1  0.28014500  0.46490500  0.10535900  1
  B  B18  1  0.89614800  0.67288900  0.52376600  1
  B  B19  1  0.60385200  0.67288900  0.02376600  1
  B  B20  1  0.61626900  0.73795400  0.82238600  1
  B  B21  1  0.88373100  0.73795400  0.32238600  1
  B  B22  1  0.13937500  0.75267800  0.78728300  1
  B  B23  1  0.59195200  0.81325300  0.62586700  1
  B  B24  1  0.36062500  0.75267800  0.28728300  1
  B  B25  1  0.90804800  0.81325300  0.12586700  1
  B  B26  1  0.96452400  0.82203300  0.69117100  1
  B  B27  1  0.53547600  0.82203300  0.19117100  1
  B  B28  1  0.76569000  0.86883600  0.72678800  1
  B  B29  1  0.73431000  0.86883600  0.22678800  1
  B  B30  1  0.14878000  0.88654600  0.60838000  1
  B  B31  1  0.35122000  0.88654600  0.10838000  1
  O  O0  1  0.53565200  0.09193600  0.88872000  1
  O  O1  1  0.71153400  0.08275400  0.98539300  1
  O  O2  1  0.37326800  0.08231000  0.77561700  1
  O  O3  1  0.96434800  0.09193600  0.38872000  1
  O  O4  1  0.78846600  0.08275400  0.48539300  1
  O  O5  1  0.12673200  0.08231000  0.27561700  1
  O  O6  1  0.20742700  0.15163200  0.87428100  1
  O  O7  1  0.70280400  0.18410600  0.80089600  1
  O  O8  1  0.29257300  0.15163200  0.37428100  1
  O  O9  1  0.79719600  0.18410600  0.30089600  1
  O  O10  1  0.04223500  0.17599500  0.97640900  1
  O  O11  1  0.45776500  0.17599500  0.47640900  1
  O  O12  1  0.21236900  0.15816500  0.67171400  1
  O  O13  1  0.52795200  0.22727800  0.71053400  1
  O  O14  1  0.28763100  0.15816500  0.17171400  1
  O  O15  1  0.97204800  0.22727800  0.21053400  1
  O  O16  1  0.69428700  0.32247300  0.62936500  1
  O  O17  1  0.05772000  0.25650200  0.56782100  1
  O  O18  1  0.80571300  0.32247300  0.12936500  1
  O  O19  1  0.04195400  0.22699400  0.77268100  1
  O  O20  1  0.44228000  0.25650200  0.06782100  1
  O  O21  1  0.45804600  0.22699400  0.27268100  1
  O  O22  1  0.41833700  0.30258700  0.86471600  1
  O  O23  1  0.08166300  0.30258700  0.36471600  1
  O  O24  1  0.80320900  0.44574600  0.87059900  1
  O  O25  1  0.69679100  0.44574600  0.37059900  1
  O  O26  1  0.16950600  0.39862700  0.69721700  1
  O  O27  1  0.31697100  0.43457100  0.99377600  1
  O  O28  1  0.33049400  0.39862700  0.19721700  1
  O  O29  1  0.18302900  0.43457100  0.49377600  1
  O  O30  1  0.81697100  0.56542900  0.50622400  1
  O  O31  1  0.66950600  0.60137300  0.80278300  1
  O  O32  1  0.68302900  0.56542900  0.00622400  1
  O  O33  1  0.83049400  0.60137300  0.30278300  1
  O  O34  1  0.30320900  0.55425400  0.62940100  1
  O  O35  1  0.19679100  0.55425400  0.12940100  1
  O  O36  1  0.91833700  0.69741300  0.63528400  1
  O  O37  1  0.58166300  0.69741300  0.13528400  1
  O  O38  1  0.54195400  0.77300600  0.72731900  1
  O  O39  1  0.55772000  0.74349800  0.93217900  1
  O  O40  1  0.95804600  0.77300600  0.22731900  1
  O  O41  1  0.19428700  0.67752700  0.87063500  1
  O  O42  1  0.94228000  0.74349800  0.43217900  1
  O  O43  1  0.30571300  0.67752700  0.37063500  1
  O  O44  1  0.02795200  0.77272200  0.78946600  1
  O  O45  1  0.71236900  0.84183500  0.82828600  1
  O  O46  1  0.47204800  0.77272200  0.28946600  1
  O  O47  1  0.78763100  0.84183500  0.32828600  1
  O  O48  1  0.54223500  0.82400500  0.52359100  1
  O  O49  1  0.95776500  0.82400500  0.02359100  1
  O  O50  1  0.20280400  0.81589400  0.69910400  1
  O  O51  1  0.70742700  0.84836800  0.62571900  1
  O  O52  1  0.29719600  0.81589400  0.19910400  1
  O  O53  1  0.79257300  0.84836800  0.12571900  1
  O  O54  1  0.87326800  0.91769000  0.72438300  1
  O  O55  1  0.21153400  0.91724600  0.51460700  1
  O  O56  1  0.03565200  0.90806400  0.61128000  1
  O  O57  1  0.62673200  0.91769000  0.22438300  1
  O  O58  1  0.28846600  0.91724600  0.01460700  1
  O  O59  1  0.46434800  0.90806400  0.11128000  1
loop_
_geom_bond_atom_site_label_1
_geom_bond_atom_site_label_2
_geom_bond_distance
_geom_bond_site_symmetry_2
Li0 O56 2.020623 1_645
Li0 O4 2.150339 1_555
Li0 O54 2.222622 1_545
Li0 O17 2.346615 1_655
Li0 O3 2.457780 1_555
Li1 O12 1.967303 1_555
Li1 O8 2.000933 1_555
Li1 O11 2.096591 1_555
Li1 O55 2.142483 1_545
Li2 O59 2.020623 1_545
Li2 O1 2.150339 1_554
Li2 O57 2.222622 1_545
Li2 O20 2.346615 1_555
Li2 O0 2.457780 1_554
Li3 O14 1.967303 1_555
Li3 O6 2.000933 1_554
Li3 O10 2.096591 1_554
Li3 O58 2.142483 1_545
Li4 O16 2.007703 1_555
Li4 O31 2.107957 1_555
Li4 O30 2.223278 1_555
Li4 O24 2.303498 1_555
Li5 O18 2.007703 1_555
Li5 O33 2.107957 1_555
Li5 O32 2.223278 1_555
Li5 O25 2.303498 1_555
Li6 O41 2.007703 1_555
Li6 O26 2.107957 1_555
Li6 O27 2.223278 1_555
Li6 O34 2.303498 1_555
Li7 O43 2.007703 1_555
Li7 O28 2.107957 1_555
Li7 O29 2.223278 1_555
Li7 O35 2.303498 1_555
Li8 O45 1.967303 1_555
Li8 O53 2.000933 1_556
Li8 O49 2.096591 1_556
Li8 O1 2.142483 1_565
Li9 O0 2.020623 1_565
Li9 O58 2.150339 1_556
Li9 O2 2.222622 1_565
Li9 O39 2.346615 1_555
Li9 O59 2.457780 1_556
Li10 O47 1.967303 1_555
Li10 O51 2.000933 1_555
Li10 O48 2.096591 1_555
Li10 O4 2.142483 1_565
Li11 O3 2.020623 1_465
Li11 O55 2.150339 1_555
Li11 O5 2.222622 1_565
Li11 O42 2.346615 1_455
Li11 O56 2.457780 1_555
Bi0 O24 2.211011 1_555
Bi0 O18 2.212065 1_556
Bi0 O10 2.356632 1_655
Bi0 O1 2.396916 1_555
Bi0 O7 2.683620 1_555
Bi1 O25 2.211011 1_555
Bi1 O16 2.212065 1_555
Bi1 O11 2.356632 1_555
Bi1 O4 2.396916 1_555
Bi1 O9 2.683620 1_555
Bi2 O34 2.211011 1_555
Bi2 O43 2.212065 1_555
Bi2 O48 2.356632 1_555
Bi2 O55 2.396916 1_555
Bi2 O50 2.683620 1_555
Bi3 O35 2.211011 1_555
Bi3 O41 2.212065 1_554
Bi3 O49 2.356632 1_455
Bi3 O58 2.396916 1_555
Bi3 O52 2.683620 1_555
B0 O1 1.360688 1_555
B0 O0 1.372416 1_555
B0 O7 1.412243 1_555
B1 O4 1.360688 1_555
B1 O3 1.372416 1_555
B1 O9 1.412243 1_555
B2 O12 1.371644 1_555
B2 O2 1.372917 1_555
B2 O6 1.389849 1_555
B3 O14 1.371644 1_555
B3 O5 1.372917 1_555
B3 O8 1.389849 1_555
B4 O13 1.454618 1_555
B4 O22 1.479965 1_555
B4 O2 1.484398 1_555
B4 O0 1.506944 1_555
B5 O15 1.454618 1_455
B5 O23 1.479965 1_555
B5 O5 1.484398 1_555
B5 O3 1.506944 1_455
B6 O10 1.340489 1_555
B6 O19 1.382047 1_555
B6 O6 1.425013 1_555
B7 O13 1.349919 1_555
B7 O16 1.376074 1_555
B7 O7 1.414424 1_555
B8 O11 1.340489 1_555
B8 O21 1.382047 1_555
B8 O8 1.425013 1_555
B9 O15 1.349919 1_555
B9 O18 1.376074 1_555
B9 O9 1.414424 1_555
B10 O19 1.462231 1_555
B10 O17 1.465979 1_555
B10 O26 1.481447 1_555
B10 O12 1.527508 1_555
B11 O21 1.462231 1_555
B11 O20 1.465979 1_555
B11 O28 1.481447 1_555
B11 O14 1.527508 1_555
B12 O22 1.355555 1_555
B12 O20 1.379018 1_556
B12 O27 1.420400 1_555
B13 O23 1.355555 1_555
B13 O17 1.379018 1_555
B13 O29 1.420400 1_555
B14 O24 1.350027 1_555
B14 O31 1.383103 1_555
B14 O32 1.412361 1_556
B15 O25 1.350027 1_555
B15 O33 1.383103 1_555
B15 O30 1.412361 1_555
B16 O34 1.350027 1_555
B16 O26 1.383103 1_555
B16 O29 1.412361 1_555
B17 O35 1.350027 1_555
B17 O28 1.383103 1_555
B17 O27 1.412361 1_554
B18 O36 1.355555 1_555
B18 O42 1.379018 1_555
B18 O30 1.420400 1_555
B19 O37 1.355555 1_555
B19 O39 1.379018 1_554
B19 O32 1.420400 1_555
B20 O38 1.462231 1_555
B20 O39 1.465979 1_555
B20 O31 1.481447 1_555
B20 O45 1.527508 1_555
B21 O40 1.462231 1_555
B21 O42 1.465979 1_555
B21 O33 1.481447 1_555
B21 O47 1.527508 1_555
B22 O44 1.349919 1_555
B22 O41 1.376074 1_555
B22 O50 1.414424 1_555
B23 O48 1.340489 1_555
B23 O38 1.382047 1_555
B23 O51 1.425013 1_555
B24 O46 1.349919 1_555
B24 O43 1.376074 1_555
B24 O52 1.414424 1_555
B25 O49 1.340489 1_555
B25 O40 1.382047 1_555
B25 O53 1.425013 1_555
B26 O44 1.454618 1_655
B26 O36 1.479965 1_555
B26 O54 1.484398 1_555
B26 O56 1.506944 1_655
B27 O46 1.454618 1_555
B27 O37 1.479965 1_555
B27 O57 1.484398 1_555
B27 O59 1.506944 1_555
B28 O45 1.371644 1_555
B28 O54 1.372917 1_555
B28 O51 1.389849 1_555
B29 O47 1.371644 1_555
B29 O57 1.372917 1_555
B29 O53 1.389849 1_555
B30 O55 1.360688 1_555
B30 O56 1.372416 1_555
B30 O50 1.412243 1_555
B31 O58 1.360688 1_555
B31 O59 1.372416 1_555
B31 O52 1.412243 1_555
