# generated using pymatgen
data_KZnBr3O2
_symmetry_space_group_name_H-M   'P 1'
_cell_length_a   13.16641700
_cell_length_b   6.78077100
_cell_length_c   10.27790605
_cell_angle_alpha   79.62073662
_cell_angle_beta   90.00000000
_cell_angle_gamma   90.00000000
_symmetry_Int_Tables_number   1
_chemical_formula_structural   KZnBr3O2
_chemical_formula_sum   'K4 Zn4 Br12 O8'
_cell_volume   902.58075382
_cell_formula_units_Z   4
loop_
 _symmetry_equiv_pos_site_id
 _symmetry_equiv_pos_as_xyz
  1  'x, y, z'
loop_
 _atom_site_type_symbol
 _atom_site_label
 _atom_site_symmetry_multiplicity
 _atom_site_fract_x
 _atom_site_fract_y
 _atom_site_fract_z
 _atom_site_occupancy
  K  K0  1  0.82348300  0.73671300  0.98782500  1
  K  K1  1  0.32348300  0.76328700  0.51217500  1
  K  K2  1  0.17651700  0.26328700  0.01217500  1
  K  K3  1  0.67651700  0.23671300  0.48782500  1
  Zn  Zn0  1  0.95223100  0.24281300  0.75067200  1
  Zn  Zn1  1  0.45223100  0.25718700  0.74932800  1
  Zn  Zn2  1  0.04776900  0.75718700  0.24932800  1
  Zn  Zn3  1  0.54776900  0.74281300  0.25067200  1
  Br  Br0  1  0.40876200  0.23630700  0.52683700  1
  Br  Br1  1  0.90876200  0.26369300  0.97316300  1
  Br  Br2  1  0.59123800  0.76369300  0.47316300  1
  Br  Br3  1  0.09123800  0.73630700  0.02683700  1
  Br  Br4  1  0.38568500  0.51939700  0.84345700  1
  Br  Br5  1  0.88568500  0.98060300  0.65654300  1
  Br  Br6  1  0.61431500  0.48060300  0.15654300  1
  Br  Br7  1  0.11431500  0.01939700  0.34345700  1
  Br  Br8  1  0.09767300  0.41835700  0.66702000  1
  Br  Br9  1  0.59767300  0.08164300  0.83298000  1
  Br  Br10  1  0.90232700  0.58164300  0.33298000  1
  Br  Br11  1  0.40232700  0.91835700  0.16702000  1
  O  O0  1  0.77784200  0.49226000  0.68331700  1
  O  O1  1  0.27784200  0.00774000  0.81668300  1
  O  O2  1  0.22215800  0.50774000  0.31668300  1
  O  O3  1  0.72215800  0.99226000  0.18331700  1
  O  O4  1  0.71749000  0.53912600  0.76398500  1
  O  O5  1  0.21749000  0.96087400  0.73601500  1
  O  O6  1  0.28251000  0.46087400  0.23601500  1
  O  O7  1  0.78251000  0.03912600  0.26398500  1
loop_
_geom_bond_atom_site_label_1
_geom_bond_atom_site_label_2
_geom_bond_distance
_geom_bond_site_symmetry_2
K0 O3 3.173958 1_556
K0 O4 3.185284 1_555
K1 O2 3.173958 1_555
K1 O5 3.185284 1_555
K2 O1 3.173958 1_554
K2 O6 3.185284 1_555
K3 O0 3.173958 1_555
K3 O7 3.185284 1_555
Br0 Zn1 2.386096 1_555
Br0 K1 3.427137 1_545
Br0 K3 3.548048 1_555
Br0 K1 3.722646 1_555
Br1 Zn0 2.386096 1_555
Br1 K0 3.427137 1_555
Br1 K2 3.548048 1_656
Br1 K0 3.722646 1_545
Br2 Zn3 2.386096 1_555
Br2 K3 3.427137 1_565
Br2 K1 3.548048 1_555
Br2 K3 3.722646 1_555
Br3 Zn2 2.386096 1_555
Br3 K2 3.427137 1_555
Br3 K0 3.548048 1_454
Br3 K2 3.722646 1_565
Br4 Zn1 2.341937 1_555
Br4 K2 3.538677 1_556
Br4 K1 3.601381 1_555
Br5 Zn0 2.341937 1_565
Br5 K3 3.538677 1_565
Br5 K0 3.601381 1_555
Br6 Zn3 2.341937 1_555
Br6 K0 3.538677 1_554
Br6 K3 3.601381 1_555
Br7 Zn2 2.341937 1_545
Br7 K1 3.538677 1_545
Br7 K2 3.601381 1_555
Br8 Zn0 2.335454 1_455
Br8 K2 3.663844 1_556
Br8 K1 3.937177 1_555
Br9 Zn1 2.335454 1_555
Br9 K3 3.663844 1_555
Br9 K0 3.937177 1_545
Br10 Zn2 2.335454 1_655
Br10 K0 3.663844 1_554
Br10 K3 3.937177 1_555
Br11 Zn3 2.335454 1_555
Br11 K1 3.663844 1_555
Br11 K2 3.937177 1_565
O0 O4 1.230752 1_555
O1 O5 1.230752 1_545
O2 O6 1.230752 1_555
O3 O7 1.230752 1_565
