# generated using pymatgen
data_Li2FeP2O7
_symmetry_space_group_name_H-M   'P 1'
_cell_length_a   8.32542183
_cell_length_b   18.53893000
_cell_length_c   7.70910538
_cell_angle_alpha   90.00000000
_cell_angle_beta   92.78788600
_cell_angle_gamma   90.00000000
_symmetry_Int_Tables_number   1
_chemical_formula_structural   Li2FeP2O7
_chemical_formula_sum   'Li16 Fe8 P16 O56'
_cell_volume   1188.44907791
_cell_formula_units_Z   8
loop_
 _symmetry_equiv_pos_site_id
 _symmetry_equiv_pos_as_xyz
  1  'x, y, z'
loop_
 _atom_site_type_symbol
 _atom_site_label
 _atom_site_symmetry_multiplicity
 _atom_site_fract_x
 _atom_site_fract_y
 _atom_site_fract_z
 _atom_site_occupancy
  Li  Li0  1  0.00524300  0.54448500  0.67696300  1
  Li  Li1  1  0.01443500  0.29607700  0.17282100  1
  Li  Li2  1  0.06082900  0.79482100  0.34509300  1
  Li  Li3  1  0.11643800  0.10110800  0.68023000  1
  Li  Li4  1  0.14672400  0.56219000  0.13512100  1
  Li  Li5  1  0.24607000  0.36421800  0.40800400  1
  Li  Li6  1  0.26812400  0.94348700  0.11187000  1
  Li  Li7  1  0.50806000  0.18275800  0.78508400  1
  Li  Li8  1  0.49194000  0.68275800  0.21491600  1
  Li  Li9  1  0.73187600  0.44348700  0.88813000  1
  Li  Li10  1  0.75393000  0.86421800  0.59199600  1
  Li  Li11  1  0.85327600  0.06219000  0.86487900  1
  Li  Li12  1  0.88356200  0.60110800  0.31977000  1
  Li  Li13  1  0.93917100  0.29482100  0.65490700  1
  Li  Li14  1  0.98556500  0.79607700  0.82717900  1
  Li  Li15  1  0.99475700  0.04448500  0.32303700  1
  Fe  Fe0  1  0.41735800  0.53776800  0.88080500  1
  Fe  Fe1  1  0.41183800  0.79099400  0.59633300  1
  Fe  Fe2  1  0.41061200  0.29187000  0.10196500  1
  Fe  Fe3  1  0.40645700  0.04245500  0.40911000  1
  Fe  Fe4  1  0.59354300  0.54245500  0.59089000  1
  Fe  Fe5  1  0.58938800  0.79187000  0.89803500  1
  Fe  Fe6  1  0.58816200  0.29099400  0.40366700  1
  Fe  Fe7  1  0.58264200  0.03776800  0.11919500  1
  P  P0  1  0.13566500  0.40761200  0.92968300  1
  P  P1  1  0.13615200  0.92454700  0.55297200  1
  P  P2  1  0.23795600  0.63312900  0.55407500  1
  P  P3  1  0.21475500  0.20218700  0.40141000  1
  P  P4  1  0.23981900  0.69589700  0.90780000  1
  P  P5  1  0.23364700  0.13114200  0.05887500  1
  P  P6  1  0.43392200  0.37307800  0.74158200  1
  P  P7  1  0.43435200  0.95565800  0.76240900  1
  P  P8  1  0.56564800  0.45565800  0.23759100  1
  P  P9  1  0.56607800  0.87307800  0.25841800  1
  P  P10  1  0.76635300  0.63114200  0.94112500  1
  P  P11  1  0.76018100  0.19589700  0.09220000  1
  P  P12  1  0.78524500  0.70218700  0.59859000  1
  P  P13  1  0.76204400  0.13312900  0.44592500  1
  P  P14  1  0.86384800  0.42454700  0.44702800  1
  P  P15  1  0.86433500  0.90761200  0.07031700  1
  O  O0  1  0.96160800  0.39990900  0.86428700  1
  O  O1  1  0.96424400  0.91772600  0.60313100  1
  O  O2  1  0.09894100  0.59514500  0.45344400  1
  O  O3  1  0.08418900  0.25027400  0.46797600  1
  O  O4  1  0.10680800  0.09399600  0.94034100  1
  O  O5  1  0.15526400  0.66040200  0.73037300  1
  O  O6  1  0.11431800  0.74032500  0.99100200  1
  O  O7  1  0.13837500  0.16494300  0.22122600  1
  O  O8  1  0.18778200  0.48663700  0.96578000  1
  O  O9  1  0.20951500  0.85214800  0.49516200  1
  O  O10  1  0.16870700  0.98873000  0.42992500  1
  O  O11  1  0.18464900  0.35302700  0.07468200  1
  O  O12  1  0.24246800  0.38408400  0.76516700  1
  O  O13  1  0.24034400  0.94676600  0.73166500  1
  O  O14  1  0.32629400  0.19018200  0.96738100  1
  O  O15  1  0.27533600  0.14158900  0.52419300  1
  O  O16  1  0.30881500  0.63319200  0.02313600  1
  O  O17  1  0.31413800  0.69508700  0.45621800  1
  O  O18  1  0.36065400  0.57872700  0.63518900  1
  O  O19  1  0.35087700  0.24753800  0.32986300  1
  O  O20  1  0.37390100  0.74090500  0.83066300  1
  O  O21  1  0.34616300  0.07727000  0.16065100  1
  O  O22  1  0.43025700  0.33113800  0.57403500  1
  O  O23  1  0.44581200  0.97969200  0.95015100  1
  O  O24  1  0.50314800  0.51301100  0.35855400  1
  O  O25  1  0.51329800  0.44720900  0.72853700  1
  O  O26  1  0.48785200  0.38208800  0.26378400  1
  O  O27  1  0.51106900  0.32914400  0.89158800  1
  O  O28  1  0.48893100  0.82914400  0.10841200  1
  O  O29  1  0.51214800  0.88208800  0.73621600  1
  O  O30  1  0.48670200  0.94720900  0.27146300  1
  O  O31  1  0.49685200  0.01301100  0.64144600  1
  O  O32  1  0.55418800  0.47969200  0.04984900  1
  O  O33  1  0.56974300  0.83113800  0.42596500  1
  O  O34  1  0.65383700  0.57727000  0.83934900  1
  O  O35  1  0.62609900  0.24090500  0.16933700  1
  O  O36  1  0.64912300  0.74753800  0.67013700  1
  O  O37  1  0.63934600  0.07872700  0.36481100  1
  O  O38  1  0.68586200  0.19508700  0.54378200  1
  O  O39  1  0.69118500  0.13319200  0.97686400  1
  O  O40  1  0.72466400  0.64158900  0.47580700  1
  O  O41  1  0.67370600  0.69018200  0.03261900  1
  O  O42  1  0.75965600  0.44676600  0.26833500  1
  O  O43  1  0.75753200  0.88408400  0.23483300  1
  O  O44  1  0.81535100  0.85302700  0.92531800  1
  O  O45  1  0.83129300  0.48873000  0.57007500  1
  O  O46  1  0.79048500  0.35214800  0.50483800  1
  O  O47  1  0.81221800  0.98663700  0.03422000  1
  O  O48  1  0.86162500  0.66494300  0.77877400  1
  O  O49  1  0.88568200  0.24032500  0.00899800  1
  O  O50  1  0.84473600  0.16040200  0.26962700  1
  O  O51  1  0.89319200  0.59399600  0.05965900  1
  O  O52  1  0.91581100  0.75027400  0.53202400  1
  O  O53  1  0.90105900  0.09514500  0.54655600  1
  O  O54  1  0.03575600  0.41772600  0.39686900  1
  O  O55  1  0.03839200  0.89990900  0.13571300  1
loop_
_geom_bond_atom_site_label_1
_geom_bond_atom_site_label_2
_geom_bond_distance
_geom_bond_site_symmetry_2
Li0 O45 1.930964 1_455
Li0 O2 2.142550 1_555
Li1 O49 1.918492 1_455
Li1 O11 1.949246 1_555
Li1 O3 2.471255 1_555
Li2 O9 1.964927 1_555
Li2 O52 2.094189 1_455
Li2 O55 2.531115 1_555
Li3 O15 1.978646 1_555
Li3 O4 2.015036 1_555
Li3 O53 2.027239 1_455
Li4 O8 1.956114 1_554
Li4 O16 2.100561 1_555
Li4 O51 2.240976 1_455
Li4 O2 2.578474 1_555
Li5 O54 2.010624 1_555
Li5 O22 2.043248 1_555
Li5 O26 2.369703 1_555
Li5 O19 2.419603 1_555
Li5 O3 2.559876 1_555
Li5 O11 2.603771 1_555
Li6 O23 2.091079 1_554
Li6 O55 2.092551 1_555
Li6 O30 2.147594 1_555
Li6 O21 2.586722 1_565
Li7 O14 2.119158 1_555
Li7 O39 2.266124 1_555
Li7 O38 2.443718 1_555
Li8 O41 2.119158 1_555
Li8 O16 2.266124 1_555
Li8 O17 2.443718 1_555
Li9 O32 2.091079 1_556
Li9 O0 2.092551 1_555
Li9 O25 2.147594 1_555
Li9 O34 2.586722 1_555
Li10 O1 2.010624 1_555
Li10 O33 2.043248 1_555
Li10 O29 2.369703 1_555
Li10 O36 2.419603 1_555
Li10 O52 2.559876 1_555
Li10 O44 2.603771 1_555
Li11 O47 1.956114 1_546
Li11 O39 2.100561 1_555
Li11 O4 2.240976 1_655
Li11 O53 2.578474 1_555
Li12 O40 1.978646 1_555
Li12 O51 2.015036 1_555
Li12 O2 2.027239 1_655
Li13 O46 1.964927 1_555
Li13 O3 2.094189 1_655
Li13 O0 2.531115 1_555
Li14 O6 1.918492 1_655
Li14 O44 1.949246 1_555
Li14 O52 2.471255 1_555
Li15 O10 1.930964 1_645
Li15 O53 2.142550 1_555
Fe0 O32 2.002692 1_556
Fe0 O18 2.073105 1_555
Fe0 O34 2.139104 1_555
Fe0 O25 2.219395 1_555
Fe0 O8 2.258894 1_555
Fe0 O16 2.290542 1_556
Fe1 O33 2.043295 1_555
Fe1 O20 2.069034 1_555
Fe1 O9 2.145492 1_555
Fe1 O29 2.150514 1_555
Fe1 O36 2.183119 1_555
Fe1 O17 2.214548 1_555
Fe2 O27 1.984749 1_554
Fe2 O19 2.023474 1_555
Fe2 O35 2.071313 1_555
Fe2 O26 2.165432 1_555
Fe2 O11 2.197788 1_555
Fe2 O14 2.247735 1_554
Fe3 O31 1.985261 1_555
Fe3 O21 2.060042 1_555
Fe3 O37 2.095841 1_555
Fe3 O30 2.181558 1_545
Fe3 O10 2.228581 1_545
Fe3 O15 2.334659 1_555
Fe4 O24 1.985261 1_555
Fe4 O34 2.060042 1_555
Fe4 O18 2.095841 1_555
Fe4 O25 2.181558 1_555
Fe4 O45 2.228581 1_555
Fe4 O40 2.334659 1_555
Fe5 O28 1.984749 1_556
Fe5 O36 2.023474 1_555
Fe5 O20 2.071313 1_555
Fe5 O29 2.165432 1_555
Fe5 O44 2.197788 1_555
Fe5 O41 2.247735 1_556
Fe6 O22 2.043295 1_555
Fe6 O35 2.069034 1_555
Fe6 O46 2.145492 1_555
Fe6 O26 2.150514 1_555
Fe6 O19 2.183119 1_555
Fe6 O38 2.214548 1_555
Fe7 O23 2.002692 1_544
Fe7 O37 2.073105 1_555
Fe7 O21 2.139104 1_555
Fe7 O30 2.219395 1_545
Fe7 O47 2.258894 1_545
Fe7 O39 2.290542 1_554
O0 P0 1.517687 1_655
O1 P1 1.505889 1_655
O2 P2 1.532918 1_555
O3 P3 1.514578 1_555
O4 P5 1.526595 1_556
O5 P2 1.633332 1_555
O5 P4 1.644929 1_555
O6 P4 1.498902 1_555
O7 P5 1.638545 1_555
O7 P3 1.650654 1_555
O8 P0 1.549289 1_555
O9 P1 1.549079 1_555
O10 P1 1.553738 1_555
O11 P0 1.547743 1_554
O12 P6 1.625888 1_555
O12 P0 1.642897 1_555
O13 P7 1.629409 1_555
O13 P1 1.644254 1_555
O14 P5 1.530810 1_556
O15 P3 1.538171 1_555
O16 P4 1.556345 1_554
O17 P2 1.528817 1_555
O18 P2 1.545818 1_555
O19 P3 1.534995 1_555
O20 P4 1.536397 1_555
O21 P5 1.555330 1_555
O22 P6 1.506641 1_555
O23 P7 1.512925 1_555
O24 P8 1.522521 1_555
O25 P6 1.530363 1_555
O26 P8 1.527494 1_555
O27 P6 1.530018 1_555
O28 P9 1.530018 1_555
O29 P7 1.527494 1_555
O30 P9 1.530363 1_555
O31 P7 1.522521 1_545
O32 P8 1.512925 1_555
O33 P9 1.506641 1_555
O34 P10 1.555330 1_555
O35 P11 1.536397 1_555
O36 P12 1.534995 1_555
O37 P13 1.545818 1_555
O38 P13 1.528817 1_555
O39 P11 1.556345 1_556
O40 P12 1.538171 1_555
O41 P10 1.530810 1_554
O42 P8 1.629409 1_555
O42 P14 1.644254 1_555
O43 P9 1.625888 1_555
O43 P15 1.642897 1_555
O44 P15 1.547743 1_556
O45 P14 1.553738 1_555
O46 P14 1.549079 1_555
O47 P15 1.549289 1_555
O48 P10 1.638545 1_555
O48 P12 1.650654 1_555
O49 P11 1.498902 1_555
O50 P13 1.633332 1_555
O50 P11 1.644929 1_555
O51 P10 1.526595 1_554
O52 P12 1.514578 1_555
O53 P13 1.532918 1_555
O54 P14 1.505889 1_455
O55 P15 1.517687 1_455
