# generated using pymatgen
data_Ti9Fe11O30
_symmetry_space_group_name_H-M   'P 1'
_cell_length_a   8.91496509
_cell_length_b   7.60586595
_cell_length_c   9.19062036
_cell_angle_alpha   72.18187822
_cell_angle_beta   98.98811550
_cell_angle_gamma   113.08114687
_symmetry_Int_Tables_number   1
_chemical_formula_structural   Ti9Fe11O30
_chemical_formula_sum   'Ti9 Fe11 O30'
_cell_volume   545.32671635
_cell_formula_units_Z   1
loop_
 _symmetry_equiv_pos_site_id
 _symmetry_equiv_pos_as_xyz
  1  'x, y, z'
loop_
 _atom_site_type_symbol
 _atom_site_label
 _atom_site_symmetry_multiplicity
 _atom_site_fract_x
 _atom_site_fract_y
 _atom_site_fract_z
 _atom_site_occupancy
  Ti  Ti0  1  0.74028400  0.34245700  0.77435500  1
  Ti  Ti1  1  0.94561900  0.73944500  0.17199300  1
  Ti  Ti2  1  0.85341400  0.86063800  0.42261200  1
  Ti  Ti3  1  0.65865200  0.45966000  0.02819300  1
  Ti  Ti4  1  0.45866000  0.05889200  0.62432300  1
  Ti  Ti5  1  0.34123800  0.53838300  0.97663700  1
  Ti  Ti6  1  0.26184800  0.66545500  0.22790200  1
  Ti  Ti7  1  0.14182700  0.13501800  0.57092900  1
  Ti  Ti8  1  0.05701100  0.26277300  0.82726200  1
  Fe  Fe0  1  0.74029300  0.83557500  0.77838700  1
  Fe  Fe1  1  0.94259500  0.23619000  0.17748300  1
  Fe  Fe2  1  0.85734700  0.35828600  0.42514100  1
  Fe  Fe3  1  0.45269700  0.55919900  0.62370700  1
  Fe  Fe4  1  0.54065100  0.94035000  0.37382800  1
  Fe  Fe5  1  0.34271400  0.03731700  0.97517800  1
  Fe  Fe6  1  0.65921200  0.96228600  0.02896700  1
  Fe  Fe7  1  0.54020800  0.43569700  0.37729000  1
  Fe  Fe8  1  0.13999000  0.63794100  0.57336900  1
  Fe  Fe9  1  0.25790300  0.15943500  0.22331300  1
  Fe  Fe10  1  0.06253400  0.76221000  0.82297600  1
  O  O0  1  0.97647100  0.01895600  0.76442900  1
  O  O1  1  0.88749200  0.21482800  0.95143400  1
  O  O2  1  0.91359300  0.39001500  0.65390100  1
  O  O3  1  0.97264000  0.16823900  0.42634400  1
  O  O4  1  0.80872800  0.57970200  0.83434000  1
  O  O5  1  0.59287800  0.22967500  0.96121800  1
  O  O6  1  0.79165500  0.62762900  0.36177000  1
  O  O7  1  0.63430900  0.02916700  0.77045800  1
  O  O8  1  0.82983300  0.43716100  0.17093900  1
  O  O9  1  0.69251200  0.81215700  0.56290600  1
  O  O10  1  0.51829300  0.59665500  0.85114100  1
  O  O11  1  0.72109900  0.98662100  0.25485200  1
  O  O12  1  0.77274200  0.76506100  0.02138000  1
  O  O13  1  0.56933100  0.35905500  0.63541400  1
  O  O14  1  0.60646200  0.18242100  0.44173200  1
  O  O15  1  0.38352100  0.82312800  0.56594300  1
  O  O16  1  0.22646700  0.23714800  0.96691500  1
  O  O17  1  0.43068000  0.63119700  0.37121700  1
  O  O18  1  0.28723300  0.01576400  0.74888100  1
  O  O19  1  0.48573900  0.41075700  0.14529100  1
  O  O20  1  0.31062200  0.18456400  0.45231800  1
  O  O21  1  0.16912200  0.56250400  0.83032300  1
  O  O22  1  0.36671700  0.95983800  0.21972400  1
  O  O23  1  0.41652400  0.77267100  0.03644800  1
  O  O24  1  0.20919500  0.36789500  0.63946400  1
  O  O25  1  0.19173300  0.43160400  0.15883300  1
  O  O26  1  0.02770900  0.84188700  0.56902400  1
  O  O27  1  0.08794800  0.61478600  0.34486400  1
  O  O28  1  0.11051400  0.78611300  0.05014000  1
  O  O29  1  0.01353900  0.97559500  0.23450900  1
loop_
_geom_bond_atom_site_label_1
_geom_bond_atom_site_label_2
_geom_bond_distance
_geom_bond_site_symmetry_2
Fe0 O9 2.006981 1_555
Fe0 O0 2.016769 1_565
Fe0 O7 2.017359 1_565
Fe0 O10 2.125142 1_555
Fe0 O12 2.132026 1_556
Fe0 O4 2.155122 1_555
Fe1 O1 2.099753 1_554
Fe1 O8 2.116679 1_555
Fe1 O25 2.132196 1_655
Fe1 O11 2.163730 1_545
Fe1 O3 2.182607 1_555
Fe1 O29 2.201544 1_645
Fe2 O3 2.073045 1_555
Fe2 O14 2.109734 1_555
Fe2 O2 2.148530 1_555
Fe2 O8 2.226390 1_555
Fe2 O6 2.232220 1_555
Fe2 O27 2.241670 1_655
Fe3 O24 2.084041 1_555
Fe3 O13 2.125064 1_555
Fe3 O10 2.155039 1_555
Fe3 O17 2.210786 1_555
Fe3 O15 2.215401 1_555
Fe3 O9 2.252752 1_555
Fe4 O11 1.943609 1_555
Fe4 O22 1.948805 1_555
Fe4 O14 1.966061 1_565
Fe4 O15 2.169073 1_555
Fe4 O17 2.170347 1_555
Fe4 O9 2.250834 1_555
Fe5 O18 2.102564 1_555
Fe5 O16 2.128284 1_555
Fe5 O5 2.132363 1_555
Fe5 O22 2.140674 1_546
Fe5 O28 2.224686 1_546
Fe5 O23 2.242929 1_546
Fe6 O23 2.074826 1_555
Fe6 O11 2.108490 1_555
Fe6 O12 2.134458 1_555
Fe6 O1 2.211204 1_564
Fe6 O5 2.219550 1_564
Fe6 O7 2.266463 1_564
Fe7 O17 2.058673 1_555
Fe7 O14 2.120185 1_555
Fe7 O6 2.140807 1_555
Fe7 O19 2.160997 1_555
Fe7 O20 2.209691 1_555
Fe7 O13 2.261638 1_555
Fe8 O15 2.071692 1_555
Fe8 O27 2.124745 1_555
Fe8 O26 2.139338 1_555
Fe8 O2 2.192206 1_455
Fe8 O21 2.251579 1_555
Fe8 O24 2.254148 1_555
Fe9 O29 2.074898 1_545
Fe9 O22 2.107630 1_545
Fe9 O20 2.133974 1_555
Fe9 O19 2.205832 1_555
Fe9 O16 2.247648 1_554
Fe9 O25 2.254302 1_555
Fe10 O21 2.064830 1_555
Fe10 O28 2.113555 1_556
Fe10 O4 2.140080 1_455
Fe10 O18 2.188411 1_565
Fe10 O26 2.228582 1_555
Fe10 O0 2.257040 1_465
O0 Ti8 1.941595 1_655
O0 Ti7 2.225552 1_655
O1 Ti8 1.889803 1_655
O1 Ti0 2.162844 1_555
O2 Ti0 1.895978 1_555
O2 Ti8 2.121303 1_655
O3 Ti7 1.889884 1_655
O3 Ti2 2.166213 1_545
O4 Ti0 1.890162 1_555
O4 Ti3 2.142279 1_556
O5 Ti3 1.877364 1_556
O5 Ti0 2.081323 1_555
O6 Ti2 1.871324 1_555
O6 Ti1 2.138776 1_555
O7 Ti4 1.934328 1_555
O7 Ti0 2.201895 1_555
O8 Ti3 1.876465 1_555
O8 Ti1 2.121633 1_555
O9 Ti2 1.930884 1_555
O10 Ti5 1.930204 1_555
O10 Ti3 2.155853 1_556
O11 Ti2 2.024992 1_555
O12 Ti1 1.932127 1_555
O12 Ti3 2.124259 1_555
O13 Ti0 1.847527 1_555
O13 Ti4 2.130919 1_555
O14 Ti4 2.047039 1_555
O15 Ti4 1.867305 1_565
O16 Ti8 1.854579 1_555
O16 Ti5 2.136099 1_555
O17 Ti6 1.883141 1_555
O18 Ti4 1.917671 1_555
O18 Ti7 2.128261 1_555
O19 Ti3 1.869934 1_555
O19 Ti5 2.107160 1_554
O20 Ti7 1.846972 1_555
O20 Ti4 2.137026 1_555
O21 Ti5 1.902986 1_555
O21 Ti8 2.107317 1_555
O22 Ti6 2.042222 1_555
O23 Ti5 1.863996 1_554
O23 Ti6 2.158910 1_555
O24 Ti7 1.903999 1_555
O24 Ti8 2.120273 1_555
O25 Ti6 1.911155 1_555
O25 Ti5 2.063084 1_554
O26 Ti2 1.910084 1_455
O26 Ti7 2.060570 1_565
O27 Ti6 1.872498 1_555
O27 Ti1 2.103497 1_455
O28 Ti1 1.844772 1_455
O28 Ti6 2.167021 1_555
O29 Ti1 1.895511 1_455
O29 Ti2 2.158326 1_455
