# generated using pymatgen
data_Li4Fe3Co3(WO8)2
_symmetry_space_group_name_H-M   'P 1'
_cell_length_a   5.93832700
_cell_length_b   5.94053127
_cell_length_c   9.78823402
_cell_angle_alpha   89.10765409
_cell_angle_beta   89.02789763
_cell_angle_gamma   60.23736439
_symmetry_Int_Tables_number   1
_chemical_formula_structural   Li4Fe3Co3(WO8)2
_chemical_formula_sum   'Li4 Fe3 Co3 W2 O16'
_cell_volume   299.69598104
_cell_formula_units_Z   1
loop_
 _symmetry_equiv_pos_site_id
 _symmetry_equiv_pos_as_xyz
  1  'x, y, z'
loop_
 _atom_site_type_symbol
 _atom_site_label
 _atom_site_symmetry_multiplicity
 _atom_site_fract_x
 _atom_site_fract_y
 _atom_site_fract_z
 _atom_site_occupancy
  Li  Li0  1  0.66395800  0.66579800  0.08937700  1
  Li  Li1  1  0.00335900  0.00018800  0.01095700  1
  Li  Li2  1  0.00263400  0.00616900  0.51430800  1
  Li  Li3  1  0.32687400  0.32472600  0.59183400  1
  Fe  Fe0  1  0.82494400  0.83298700  0.78066500  1
  Fe  Fe1  1  0.65776700  0.16613500  0.28436500  1
  Fe  Fe2  1  0.16669500  0.65771800  0.28590400  1
  Co  Co0  1  0.82242300  0.34338300  0.78733800  1
  Co  Co1  1  0.34028500  0.82799200  0.78863000  1
  Co  Co2  1  0.17012400  0.17113000  0.28623600  1
  W  W0  1  0.65561200  0.65984000  0.51499500  1
  W  W1  1  0.32917500  0.33617700  0.01258100  1
  O  O0  1  0.82625800  0.34698200  0.41186400  1
  O  O1  1  0.51935300  0.50638800  0.64220500  1
  O  O2  1  0.66828700  0.65756000  0.88486800  1
  O  O3  1  0.00134800  0.01129200  0.70324600  1
  O  O4  1  0.99946100  0.99834200  0.19892300  1
  O  O5  1  0.34585000  0.82220400  0.41256500  1
  O  O6  1  0.95702400  0.51529500  0.65651200  1
  O  O7  1  0.52156800  0.95657000  0.65064900  1
  O  O8  1  0.17501200  0.17866500  0.91894500  1
  O  O9  1  0.83118300  0.82603500  0.41461200  1
  O  O10  1  0.49300900  0.03915200  0.14454100  1
  O  O11  1  0.03762200  0.49496600  0.14557600  1
  O  O12  1  0.33808500  0.33613600  0.39149800  1
  O  O13  1  0.66199800  0.17735500  0.90749500  1
  O  O14  1  0.48254900  0.48142600  0.15281500  1
  O  O15  1  0.17784200  0.65908900  0.90865400  1
loop_
_geom_bond_atom_site_label_1
_geom_bond_atom_site_label_2
_geom_bond_distance
_geom_bond_site_symmetry_2
Li0 O14 1.968051 1_555
Li0 O2 2.002559 1_554
Li0 O10 2.006144 1_565
Li0 O11 2.011101 1_655
Li1 O4 1.839538 1_445
Li1 O8 1.996596 1_554
Li1 O15 2.031203 1_544
Li1 O13 2.039797 1_454
Li2 O3 1.849917 1_555
Li2 O0 2.017090 1_455
Li2 O5 2.023298 1_545
Li2 O9 2.069269 1_445
Li3 O12 1.962194 1_555
Li3 O7 1.980971 1_545
Li3 O1 1.993610 1_555
Li3 O6 2.003178 1_455
Fe0 O3 1.960419 1_665
Fe0 O2 1.972051 1_555
Fe0 O7 2.034629 1_555
Fe0 O6 2.055047 1_555
Fe0 O13 2.176132 1_565
Fe0 O15 2.219852 1_655
Fe1 O4 1.941798 1_545
Fe1 O12 1.945616 1_555
Fe1 O10 2.051770 1_555
Fe1 O14 2.069847 1_555
Fe1 O9 2.160191 1_545
Fe1 O0 2.205470 1_555
Fe2 O4 1.945650 1_455
Fe2 O12 1.948715 1_555
Fe2 O11 2.054690 1_555
Fe2 O14 2.078762 1_555
Fe2 O9 2.129022 1_455
Fe2 O5 2.176759 1_555
Co0 O2 1.887410 1_555
Co0 O3 1.907411 1_655
Co0 O6 2.014105 1_555
Co0 O13 2.030345 1_555
Co0 O1 2.123316 1_555
Co0 O8 2.240329 1_655
Co1 O2 1.944470 1_555
Co1 O3 1.946294 1_565
Co1 O15 2.050187 1_555
Co1 O7 2.073958 1_555
Co1 O1 2.202622 1_555
Co1 O8 2.222695 1_565
Co2 O4 1.974994 1_445
Co2 O12 2.013510 1_555
Co2 O0 2.147112 1_455
Co2 O10 2.160062 1_555
Co2 O11 2.160329 1_555
Co2 O5 2.175076 1_545
O0 W0 1.911542 1_555
O1 W0 1.923255 1_555
O5 W0 1.894773 1_555
O6 W0 2.093079 1_555
O7 W0 2.036644 1_555
O8 W1 1.859919 1_556
O9 W0 1.996038 1_555
O10 W1 1.998908 1_555
O11 W1 1.980486 1_555
O13 W1 1.991062 1_556
O14 W1 2.077918 1_555
O15 W1 1.944458 1_556
