# generated using pymatgen
data_Li3MnPCO7
_symmetry_space_group_name_H-M   'P 1'
_cell_length_a   6.48146200
_cell_length_b   8.58625400
_cell_length_c   9.85504580
_cell_angle_alpha   85.37631951
_cell_angle_beta   90.00000000
_cell_angle_gamma   90.00000000
_symmetry_Int_Tables_number   1
_chemical_formula_structural   Li3MnPCO7
_chemical_formula_sum   'Li12 Mn4 P4 C4 O28'
_cell_volume   546.66303151
_cell_formula_units_Z   4
loop_
 _symmetry_equiv_pos_site_id
 _symmetry_equiv_pos_as_xyz
  1  'x, y, z'
loop_
 _atom_site_type_symbol
 _atom_site_label
 _atom_site_symmetry_multiplicity
 _atom_site_fract_x
 _atom_site_fract_y
 _atom_site_fract_z
 _atom_site_occupancy
  Li  Li0  1  0.74784100  0.89914500  0.36508200  1
  Li  Li1  1  0.75215900  0.89914500  0.86508200  1
  Li  Li2  1  0.51265400  0.71635900  0.63266300  1
  Li  Li3  1  0.98734600  0.71635900  0.13266300  1
  Li  Li4  1  0.24630800  0.64910900  0.36027800  1
  Li  Li5  1  0.25369200  0.64910900  0.86027800  1
  Li  Li6  1  0.75369200  0.35089100  0.63972200  1
  Li  Li7  1  0.74630800  0.35089100  0.13972200  1
  Li  Li8  1  0.48734600  0.28364100  0.36733700  1
  Li  Li9  1  0.01265400  0.28364100  0.86733700  1
  Li  Li10  1  0.25215900  0.10085500  0.63491800  1
  Li  Li11  1  0.24784100  0.10085500  0.13491800  1
  Mn  Mn0  1  0.99843000  0.72914200  0.61982900  1
  Mn  Mn1  1  0.50157000  0.72914200  0.11982900  1
  Mn  Mn2  1  0.00157000  0.27085800  0.38017100  1
  Mn  Mn3  1  0.49843000  0.27085800  0.88017100  1
  P  P0  1  0.74864200  0.59250200  0.39015500  1
  P  P1  1  0.75135800  0.59250200  0.89015500  1
  P  P2  1  0.25135800  0.40749800  0.60984500  1
  P  P3  1  0.24864200  0.40749800  0.10984500  1
  C  C0  1  0.24842400  0.95841300  0.39749400  1
  C  C1  1  0.25157600  0.95841300  0.89749400  1
  C  C2  1  0.75157600  0.04158700  0.60250600  1
  C  C3  1  0.74842400  0.04158700  0.10250600  1
  O  O0  1  0.25890100  0.92964400  0.27271600  1
  O  O1  1  0.75235300  0.89507800  0.56860800  1
  O  O2  1  0.24109900  0.92964400  0.77271700  1
  O  O3  1  0.24087900  0.84749300  0.49525200  1
  O  O4  1  0.74764700  0.89507800  0.06860800  1
  O  O5  1  0.25912100  0.84749300  0.99525200  1
  O  O6  1  0.93840200  0.69031000  0.33970200  1
  O  O7  1  0.55772300  0.68982800  0.33710100  1
  O  O8  1  0.94227700  0.68982800  0.83710100  1
  O  O9  1  0.56159800  0.69031000  0.83970200  1
  O  O10  1  0.25501000  0.57441100  0.65988700  1
  O  O11  1  0.75009700  0.57667900  0.54956500  1
  O  O12  1  0.24499000  0.57441100  0.15988700  1
  O  O13  1  0.74990300  0.57667900  0.04956500  1
  O  O14  1  0.24990300  0.42332100  0.45043500  1
  O  O15  1  0.74499000  0.42558900  0.34011300  1
  O  O16  1  0.25009700  0.42332100  0.95043500  1
  O  O17  1  0.75501000  0.42558900  0.84011300  1
  O  O18  1  0.06159800  0.30969000  0.66029800  1
  O  O19  1  0.44227700  0.31017200  0.66289900  1
  O  O20  1  0.43840200  0.30969000  0.16029800  1
  O  O21  1  0.05772300  0.31017200  0.16289900  1
  O  O22  1  0.75912100  0.15250700  0.50474800  1
  O  O23  1  0.24764700  0.10492200  0.43139200  1
  O  O24  1  0.74087900  0.15250700  0.00474800  1
  O  O25  1  0.74109900  0.07035600  0.72728300  1
  O  O26  1  0.25235300  0.10492200  0.93139200  1
  O  O27  1  0.75890100  0.07035600  0.22728400  1
loop_
_geom_bond_atom_site_label_1
_geom_bond_atom_site_label_2
_geom_bond_distance
_geom_bond_site_symmetry_2
Li0 O27 1.920558 1_565
Li0 O1 2.003459 1_555
Li0 O6 2.208080 1_555
Li0 O7 2.214603 1_555
Li1 O25 1.920564 1_565
Li1 O4 2.003459 1_556
Li1 O9 2.208080 1_555
Li1 O8 2.214603 1_555
Li2 O9 2.059182 1_555
Li2 O10 2.072037 1_555
Li2 O11 2.153100 1_555
Li2 O1 2.238474 1_555
Li2 O3 2.441036 1_555
Li3 O6 2.059182 1_555
Li3 O12 2.072037 1_655
Li3 O13 2.153100 1_555
Li3 O4 2.238474 1_555
Li3 O5 2.441036 1_654
Li4 O6 2.034071 1_455
Li4 O7 2.058050 1_555
Li4 O14 2.066573 1_555
Li4 O12 2.125024 1_555
Li4 O3 2.244412 1_555
Li4 O0 2.493641 1_555
Li5 O9 2.034071 1_555
Li5 O8 2.058050 1_455
Li5 O16 2.066573 1_555
Li5 O10 2.125024 1_555
Li5 O5 2.244412 1_555
Li5 O2 2.493639 1_555
Li6 O18 2.034071 1_655
Li6 O19 2.058050 1_555
Li6 O11 2.066573 1_555
Li6 O17 2.125024 1_555
Li6 O22 2.244412 1_555
Li6 O25 2.493639 1_555
Li7 O20 2.034071 1_555
Li7 O21 2.058050 1_655
Li7 O13 2.066573 1_555
Li7 O15 2.125024 1_555
Li7 O24 2.244412 1_555
Li7 O27 2.493641 1_555
Li8 O20 2.059182 1_555
Li8 O15 2.072037 1_555
Li8 O14 2.153100 1_555
Li8 O23 2.238474 1_555
Li8 O22 2.441036 1_555
Li9 O18 2.059182 1_555
Li9 O17 2.072037 1_455
Li9 O16 2.153100 1_555
Li9 O26 2.238474 1_555
Li9 O24 2.441036 1_456
Li10 O2 1.920564 1_545
Li10 O23 2.003459 1_555
Li10 O18 2.208080 1_555
Li10 O19 2.214603 1_555
Li11 O0 1.920558 1_545
Li11 O26 2.003459 1_554
Li11 O20 2.208080 1_555
Li11 O21 2.214603 1_555
Mn0 O10 2.145221 1_655
Mn0 O1 2.170864 1_555
Mn0 O8 2.171342 1_555
Mn0 O3 2.192751 1_655
Mn0 O11 2.220367 1_555
Mn1 O12 2.145221 1_555
Mn1 O4 2.170864 1_555
Mn1 O7 2.171342 1_555
Mn1 O5 2.192751 1_554
Mn1 O13 2.220367 1_555
Mn2 O15 2.145221 1_455
Mn2 O23 2.170864 1_555
Mn2 O21 2.171342 1_555
Mn2 O22 2.192751 1_455
Mn2 O14 2.220367 1_555
Mn3 O17 2.145221 1_555
Mn3 O26 2.170864 1_555
Mn3 O19 2.171342 1_555
Mn3 O24 2.192751 1_556
Mn3 O16 2.220367 1_555
C0 O0 1.275439 1_555
C0 O3 1.299871 1_555
C0 O23 1.327347 1_565
C1 O2 1.275430 1_555
C1 O5 1.299871 1_555
C1 O26 1.327347 1_565
C2 O25 1.275430 1_555
C2 O22 1.299871 1_555
C2 O1 1.327347 1_545
C3 O27 1.275439 1_555
C3 O24 1.299871 1_555
C3 O4 1.327347 1_545
O6 P0 1.548510 1_555
O7 P0 1.559651 1_555
O8 P1 1.559651 1_555
O9 P1 1.548510 1_555
O10 P2 1.552953 1_555
O11 P0 1.565936 1_555
O12 P3 1.552953 1_555
O13 P1 1.565936 1_554
O14 P2 1.565936 1_555
O15 P0 1.552953 1_555
O16 P3 1.565936 1_556
O17 P1 1.552953 1_555
O18 P2 1.548510 1_555
O19 P2 1.559651 1_555
O20 P3 1.548510 1_555
O21 P3 1.559651 1_555
