# generated using pymatgen
data_Li3SiNiO5
_symmetry_space_group_name_H-M   'P 1'
_cell_length_a   4.90616600
_cell_length_b   5.40164700
_cell_length_c   15.74853600
_cell_angle_alpha   90.00000000
_cell_angle_beta   90.00000000
_cell_angle_gamma   90.00000000
_symmetry_Int_Tables_number   1
_chemical_formula_structural   Li3SiNiO5
_chemical_formula_sum   'Li12 Si4 Ni4 O20'
_cell_volume   417.35788746
_cell_formula_units_Z   4
loop_
 _symmetry_equiv_pos_site_id
 _symmetry_equiv_pos_as_xyz
  1  'x, y, z'
loop_
 _atom_site_type_symbol
 _atom_site_label
 _atom_site_symmetry_multiplicity
 _atom_site_fract_x
 _atom_site_fract_y
 _atom_site_fract_z
 _atom_site_occupancy
  Li  Li0  1  0.99814600  0.67054600  0.59407600  1
  Li  Li1  1  0.99814600  0.17054600  0.90592400  1
  Li  Li2  1  0.50008000  0.33813700  0.99537800  1
  Li  Li3  1  0.50008000  0.83813700  0.50462200  1
  Li  Li4  1  0.50873800  0.33184400  0.80271400  1
  Li  Li5  1  0.50873800  0.83184400  0.69728600  1
  Li  Li6  1  0.49814600  0.32945400  0.40592400  1
  Li  Li7  1  0.49814600  0.82945400  0.09407600  1
  Li  Li8  1  0.00008000  0.66186300  0.00462200  1
  Li  Li9  1  0.00008000  0.16186300  0.49537800  1
  Li  Li10  1  0.00873800  0.16815600  0.30271400  1
  Li  Li11  1  0.00873800  0.66815600  0.19728600  1
  Si  Si0  1  0.00596800  0.16121300  0.09794800  1
  Si  Si1  1  0.00596800  0.66121300  0.40205200  1
  Si  Si2  1  0.50596800  0.33878700  0.59794800  1
  Si  Si3  1  0.50596800  0.83878700  0.90205200  1
  Ni  Ni0  1  0.00030500  0.18166100  0.69988300  1
  Ni  Ni1  1  0.00030500  0.68166100  0.80011700  1
  Ni  Ni2  1  0.50030500  0.31833900  0.19988300  1
  Ni  Ni3  1  0.50030500  0.81833900  0.30011700  1
  O  O0  1  0.09948600  0.34961300  0.79623000  1
  O  O1  1  0.09948600  0.84961300  0.70377000  1
  O  O2  1  0.09915000  0.37408000  0.39797000  1
  O  O3  1  0.09915000  0.87408000  0.10203000  1
  O  O4  1  0.10195000  0.31041300  0.01430800  1
  O  O5  1  0.10195000  0.81041300  0.48569200  1
  O  O6  1  0.11739800  0.30812400  0.18636400  1
  O  O7  1  0.11739800  0.80812400  0.31363600  1
  O  O8  1  0.16377800  0.32065600  0.60468400  1
  O  O9  1  0.16377800  0.82065600  0.89531600  1
  O  O10  1  0.59948600  0.65038700  0.20377000  1
  O  O11  1  0.59948600  0.15038700  0.29623000  1
  O  O12  1  0.59915000  0.62592000  0.60203000  1
  O  O13  1  0.59915000  0.12592000  0.89797000  1
  O  O14  1  0.60195000  0.18958700  0.51430800  1
  O  O15  1  0.60195000  0.68958700  0.98569200  1
  O  O16  1  0.61739800  0.19187600  0.68636400  1
  O  O17  1  0.61739800  0.69187600  0.81363600  1
  O  O18  1  0.66377800  0.17934400  0.10468400  1
  O  O19  1  0.66377800  0.67934400  0.39531600  1
loop_
_geom_bond_atom_site_label_1
_geom_bond_atom_site_label_2
_geom_bond_distance
_geom_bond_site_symmetry_2
Li0 O5 1.934848 1_655
Li0 O12 1.976300 1_555
Li0 O1 2.041350 1_655
Li0 O8 2.064047 1_655
Li1 O4 1.934848 1_656
Li1 O13 1.976300 1_555
Li1 O0 2.041350 1_655
Li1 O9 2.064047 1_645
Li2 O15 1.969014 1_555
Li2 O13 1.975743 1_555
Li2 O4 1.981578 1_556
Li2 O18 2.084225 1_556
Li3 O14 1.969014 1_565
Li3 O12 1.975743 1_555
Li3 O5 1.981578 1_555
Li3 O19 2.084225 1_555
Li4 O13 1.919495 1_555
Li4 O0 2.012743 1_555
Li4 O17 2.023833 1_555
Li4 O16 2.052633 1_555
Li5 O12 1.919495 1_555
Li5 O1 2.012743 1_555
Li5 O16 2.023833 1_565
Li5 O17 2.052633 1_555
Li6 O14 1.934848 1_555
Li6 O2 1.976300 1_555
Li6 O11 2.041350 1_555
Li6 O19 2.064047 1_555
Li7 O15 1.934848 1_554
Li7 O3 1.976300 1_555
Li7 O10 2.041350 1_555
Li7 O18 2.064047 1_565
Li8 O4 1.969014 1_555
Li8 O3 1.975743 1_555
Li8 O15 1.981578 1_454
Li8 O9 2.084225 1_554
Li9 O5 1.969014 1_545
Li9 O2 1.975743 1_555
Li9 O14 1.981578 1_455
Li9 O8 2.084225 1_555
Li10 O2 1.919495 1_555
Li10 O11 2.012743 1_455
Li10 O7 2.023833 1_545
Li10 O6 2.052633 1_555
Li11 O3 1.919495 1_555
Li11 O10 2.012743 1_455
Li11 O6 2.023833 1_555
Li11 O7 2.052633 1_555
Ni0 O0 1.833601 1_555
Ni0 O8 1.858678 1_555
Ni0 O1 1.859448 1_545
Ni0 O16 1.891436 1_455
Ni1 O1 1.833601 1_555
Ni1 O9 1.858678 1_555
Ni1 O0 1.859448 1_555
Ni1 O17 1.891436 1_455
Ni2 O11 1.833601 1_555
Ni2 O18 1.858678 1_555
Ni2 O10 1.859448 1_555
Ni2 O6 1.891436 1_555
Ni3 O10 1.833601 1_555
Ni3 O19 1.858678 1_555
Ni3 O11 1.859448 1_565
Ni3 O7 1.891436 1_555
O2 Si1 1.618242 1_555
O3 Si0 1.618242 1_565
O4 Si0 1.614405 1_555
O5 Si1 1.614405 1_555
O6 Si0 1.693356 1_555
O7 Si1 1.693356 1_555
O8 Si2 1.685038 1_555
O9 Si3 1.685038 1_555
O12 Si2 1.618242 1_555
O13 Si3 1.618242 1_545
O14 Si2 1.614405 1_555
O15 Si3 1.614405 1_555
O16 Si2 1.693356 1_555
O17 Si3 1.693356 1_555
O18 Si0 1.685038 1_655
O19 Si1 1.685038 1_655
