# generated using pymatgen
data_NaGa5O8
_symmetry_space_group_name_H-M   'P 1'
_cell_length_a   11.72822371
_cell_length_b   11.72822371
_cell_length_c   11.72822416
_cell_angle_alpha   29.63982960
_cell_angle_beta   29.63982960
_cell_angle_gamma   29.63982907
_symmetry_Int_Tables_number   1
_chemical_formula_structural   NaGa5O8
_chemical_formula_sum   'Na2 Ga10 O16'
_cell_volume   349.30652923
_cell_formula_units_Z   2
loop_
 _symmetry_equiv_pos_site_id
 _symmetry_equiv_pos_as_xyz
  1  'x, y, z'
loop_
 _atom_site_type_symbol
 _atom_site_label
 _atom_site_symmetry_multiplicity
 _atom_site_fract_x
 _atom_site_fract_y
 _atom_site_fract_z
 _atom_site_occupancy
  Na  Na0  1  0.34521400  0.34521400  0.34521400  1
  Na  Na1  1  0.82529500  0.82529500  0.82529500  1
  Ga  Ga0  1  0.58738500  0.09275600  0.09275600  1
  Ga  Ga1  1  0.00432200  0.00432200  0.00432200  1
  Ga  Ga2  1  0.09275600  0.09275600  0.58738500  1
  Ga  Ga3  1  0.09275600  0.58738500  0.09275600  1
  Ga  Ga4  1  0.65263200  0.65263200  0.65263200  1
  Ga  Ga5  1  0.43112100  0.43112100  0.43112100  1
  Ga  Ga6  1  0.55666300  0.55666300  0.55666300  1
  Ga  Ga7  1  0.91544400  0.39752900  0.91544400  1
  Ga  Ga8  1  0.91544400  0.91544400  0.39752900  1
  Ga  Ga9  1  0.39752900  0.91544400  0.91544400  1
  O  O0  1  0.28384600  0.28384600  0.28384600  1
  O  O1  1  0.10693900  0.10693900  0.10693900  1
  O  O2  1  0.80566500  0.28109800  0.80566500  1
  O  O3  1  0.74132000  0.19080200  0.19080200  1
  O  O4  1  0.90128300  0.38778800  0.38778800  1
  O  O5  1  0.61364500  0.09250500  0.61364500  1
  O  O6  1  0.61364500  0.61364500  0.09250500  1
  O  O7  1  0.80566500  0.80566500  0.28109800  1
  O  O8  1  0.19080200  0.19080200  0.74132000  1
  O  O9  1  0.38778800  0.38778800  0.90128300  1
  O  O10  1  0.38778800  0.90128300  0.38778800  1
  O  O11  1  0.09250500  0.61364500  0.61364500  1
  O  O12  1  0.19080200  0.74132000  0.19080200  1
  O  O13  1  0.28109800  0.80566500  0.80566500  1
  O  O14  1  0.89858400  0.89858400  0.89858400  1
  O  O15  1  0.70806000  0.70806000  0.70806000  1
loop_
_geom_bond_atom_site_label_1
_geom_bond_atom_site_label_2
_geom_bond_distance
_geom_bond_site_symmetry_2
Na0 O0 2.062888 1_555
Na0 O3 2.143127 1_555
Na0 O12 2.143127 1_555
Na0 O8 2.143127 1_555
Na1 O6 2.410478 1_556
Na1 O11 2.410478 1_655
Na1 O5 2.410478 1_565
Na1 O14 2.463612 1_555
Ga0 O0 1.926681 1_555
Ga0 O14 1.952365 1_544
Ga0 O10 2.011520 1_545
Ga0 O9 2.011520 1_554
Ga0 O2 2.165083 1_554
Ga0 O7 2.165083 1_545
Ga1 O8 1.985501 1_554
Ga1 O3 1.985501 1_455
Ga1 O12 1.985501 1_545
Ga1 O7 2.129882 1_445
Ga1 O13 2.129882 1_544
Ga1 O2 2.129882 1_454
Ga2 O0 1.926681 1_555
Ga2 O14 1.952365 1_445
Ga2 O4 2.011520 1_455
Ga2 O10 2.011520 1_545
Ga2 O2 2.165083 1_455
Ga2 O13 2.165083 1_545
Ga3 O0 1.926681 1_555
Ga3 O14 1.952365 1_454
Ga3 O4 2.011520 1_455
Ga3 O9 2.011520 1_554
Ga3 O13 2.165083 1_554
Ga3 O7 2.165083 1_455
Ga4 O15 1.863214 1_555
Ga4 O13 1.959560 1_555
Ga4 O2 1.959560 1_555
Ga4 O7 1.959560 1_555
Ga5 O11 1.829336 1_555
Ga5 O5 1.829336 1_555
Ga5 O6 1.829336 1_555
Ga6 O4 1.780384 1_555
Ga6 O10 1.780384 1_555
Ga6 O9 1.780384 1_555
Ga7 O1 1.964830 1_656
Ga7 O3 2.002505 1_556
Ga7 O8 2.002505 1_655
Ga7 O11 2.010596 1_655
Ga7 O6 2.010596 1_556
Ga7 O15 2.140727 1_555
Ga8 O1 1.964830 1_665
Ga8 O12 2.002505 1_655
Ga8 O3 2.002505 1_565
Ga8 O11 2.010596 1_655
Ga8 O5 2.010596 1_565
Ga8 O15 2.140727 1_555
Ga9 O1 1.964830 1_566
Ga9 O12 2.002505 1_556
Ga9 O8 2.002505 1_565
Ga9 O5 2.010596 1_565
Ga9 O6 2.010596 1_556
Ga9 O15 2.140727 1_555
