# generated using pymatgen
data_LiNiPO4
_symmetry_space_group_name_H-M   'P 1'
_cell_length_a   7.55397007
_cell_length_b   7.55397007
_cell_length_c   9.60789700
_cell_angle_alpha   90.00000000
_cell_angle_beta   90.00000000
_cell_angle_gamma   120.00000061
_symmetry_Int_Tables_number   1
_chemical_formula_structural   LiNiPO4
_chemical_formula_sum   'Li6 Ni6 P6 O24'
_cell_volume   474.79866277
_cell_formula_units_Z   6
loop_
 _symmetry_equiv_pos_site_id
 _symmetry_equiv_pos_as_xyz
  1  'x, y, z'
loop_
 _atom_site_type_symbol
 _atom_site_label
 _atom_site_symmetry_multiplicity
 _atom_site_fract_x
 _atom_site_fract_y
 _atom_site_fract_z
 _atom_site_occupancy
  Li  Li0  1  0.06915900  0.59217000  0.47941800  1
  Li  Li1  1  0.52301000  0.93084100  0.47941800  1
  Li  Li2  1  0.40783000  0.47699000  0.47941800  1
  Li  Li3  1  0.47699000  0.40783000  0.97941800  1
  Li  Li4  1  0.59217000  0.06915900  0.97941800  1
  Li  Li5  1  0.93084100  0.52301000  0.97941800  1
  Ni  Ni0  1  0.23403400  0.97676000  0.25780700  1
  Ni  Ni1  1  0.02324000  0.25727300  0.25780700  1
  Ni  Ni2  1  0.25727300  0.02324000  0.75780700  1
  Ni  Ni3  1  0.74272700  0.76596600  0.25780700  1
  Ni  Ni4  1  0.76596600  0.74272700  0.75780700  1
  Ni  Ni5  1  0.97676000  0.23403400  0.75780700  1
  P  P0  1  0.33333300  0.66666700  0.19541400  1
  P  P1  1  0.00000000  0.00000000  0.99098100  1
  P  P2  1  0.00000000  0.00000000  0.49098100  1
  P  P3  1  0.33333300  0.66666700  0.78155200  1
  P  P4  1  0.66666700  0.33333300  0.69541400  1
  P  P5  1  0.66666700  0.33333300  0.28155200  1
  O  O0  1  0.08762300  0.86618900  0.43894700  1
  O  O1  1  0.20166800  0.75735200  0.13893400  1
  O  O2  1  0.37661700  0.87664200  0.83993700  1
  O  O3  1  0.12335800  0.49997500  0.83993700  1
  O  O4  1  0.24264800  0.44431600  0.13893400  1
  O  O5  1  0.33333300  0.66666700  0.35530500  1
  O  O6  1  0.00000000  0.00000000  0.15744000  1
  O  O7  1  0.00000000  0.00000000  0.65744000  1
  O  O8  1  0.33333300  0.66666700  0.62148100  1
  O  O9  1  0.13381100  0.22143400  0.43894700  1
  O  O10  1  0.22143400  0.13381100  0.93894700  1
  O  O11  1  0.55568400  0.79833200  0.13893400  1
  O  O12  1  0.50002500  0.62338300  0.83993700  1
  O  O13  1  0.77856600  0.91237700  0.43894700  1
  O  O14  1  0.44431600  0.24264800  0.63893400  1
  O  O15  1  0.49997500  0.12335800  0.33993700  1
  O  O16  1  0.62338300  0.50002500  0.33993700  1
  O  O17  1  0.79833200  0.55568400  0.63893400  1
  O  O18  1  0.66666700  0.33333300  0.85530500  1
  O  O19  1  0.66666700  0.33333300  0.12148100  1
  O  O20  1  0.91237700  0.77856600  0.93894700  1
  O  O21  1  0.75735200  0.20166800  0.63893400  1
  O  O22  1  0.87664200  0.37661700  0.33993700  1
  O  O23  1  0.86618900  0.08762300  0.93894700  1
loop_
_geom_bond_atom_site_label_1
_geom_bond_atom_site_label_2
_geom_bond_distance
_geom_bond_site_symmetry_2
Li0 O0 2.041215 1_555
Li0 O22 2.047964 1_455
Li0 O5 2.144278 1_555
Li0 O8 2.244767 1_555
Li0 O17 2.458940 1_455
Li1 O13 2.041223 1_555
Li1 O15 2.047961 1_565
Li1 O5 2.144278 1_555
Li1 O8 2.244767 1_555
Li1 O21 2.458942 1_565
Li2 O9 2.041219 1_555
Li2 O16 2.047966 1_555
Li2 O5 2.144278 1_555
Li2 O8 2.244767 1_555
Li2 O14 2.458946 1_555
Li3 O10 2.041219 1_555
Li3 O12 2.047966 1_555
Li3 O18 2.144278 1_555
Li3 O19 2.244767 1_556
Li3 O4 2.458946 1_556
Li4 O23 2.041215 1_555
Li4 O2 2.047964 1_545
Li4 O18 2.144278 1_555
Li4 O19 2.244767 1_556
Li4 O11 2.458940 1_546
Li5 O20 2.041223 1_555
Li5 O3 2.047961 1_655
Li5 O18 2.144278 1_555
Li5 O19 2.244767 1_556
Li5 O1 2.458942 1_656
Ni0 O15 1.913129 1_565
Ni0 O1 1.925090 1_555
Ni0 O0 2.006483 1_555
Ni0 O6 2.096784 1_565
Ni1 O22 1.913134 1_455
Ni1 O4 1.925092 1_555
Ni1 O9 2.006480 1_555
Ni1 O6 2.096778 1_555
Ni2 O2 1.913134 1_545
Ni2 O14 1.925092 1_555
Ni2 O10 2.006480 1_555
Ni2 O7 2.096778 1_555
Ni3 O16 1.913128 1_555
Ni3 O11 1.925096 1_555
Ni3 O13 2.006484 1_555
Ni3 O6 2.096780 1_665
Ni4 O12 1.913128 1_555
Ni4 O17 1.925096 1_555
Ni4 O20 2.006484 1_555
Ni4 O7 2.096780 1_665
Ni5 O3 1.913129 1_655
Ni5 O21 1.925090 1_555
Ni5 O23 2.006483 1_555
Ni5 O7 2.096784 1_655
O0 P2 1.542345 1_565
O1 P0 1.560220 1_555
O2 P3 1.555255 1_555
O3 P3 1.555258 1_555
O4 P0 1.560226 1_555
O5 P0 1.536216 1_555
O6 P1 1.599321 1_554
O7 P2 1.599321 1_555
O8 P3 1.537946 1_555
O9 P2 1.542345 1_555
O10 P1 1.542345 1_555
O11 P0 1.560226 1_555
O12 P3 1.555262 1_555
O13 P2 1.542345 1_665
O14 P4 1.560226 1_555
O15 P5 1.555258 1_555
O16 P5 1.555262 1_555
O17 P4 1.560226 1_555
O18 P4 1.536216 1_555
O19 P5 1.537946 1_555
O20 P1 1.542345 1_665
O21 P4 1.560220 1_555
O22 P5 1.555255 1_555
O23 P1 1.542345 1_655
