# generated using pymatgen
data_MnP2O7
_symmetry_space_group_name_H-M   'P 1'
_cell_length_a   7.66779061
_cell_length_b   7.01478026
_cell_length_c   9.27668986
_cell_angle_alpha   66.80832671
_cell_angle_beta   90.00000000
_cell_angle_gamma   90.00000000
_symmetry_Int_Tables_number   1
_chemical_formula_structural   MnP2O7
_chemical_formula_sum   'Mn4 P8 O28'
_cell_volume   458.65260373
_cell_formula_units_Z   4
loop_
 _symmetry_equiv_pos_site_id
 _symmetry_equiv_pos_as_xyz
  1  'x, y, z'
loop_
 _atom_site_type_symbol
 _atom_site_label
 _atom_site_symmetry_multiplicity
 _atom_site_fract_x
 _atom_site_fract_y
 _atom_site_fract_z
 _atom_site_occupancy
  Mn  Mn0  1  -0.00000000  0.50000000  0.50000000  1
  Mn  Mn1  1  -0.00000000  -0.00000000  0.00000000  1
  Mn  Mn2  1  0.50000000  -0.00000000  0.50000000  1
  Mn  Mn3  1  0.50000000  0.50000000  0.00000000  1
  P  P0  1  0.74573891  0.65453720  0.20763215  1
  P  P1  1  0.24573891  0.34546280  0.29236785  1
  P  P2  1  0.82425067  0.06819481  0.68128972  1
  P  P3  1  0.32425067  0.93180519  0.81871028  1
  P  P4  1  0.67574933  0.06819481  0.18128972  1
  P  P5  1  0.17574933  0.93180519  0.31871028  1
  P  P6  1  0.75426109  0.65453720  0.70763215  1
  P  P7  1  0.25426109  0.34546280  0.79236785  1
  O  O0  1  0.89997716  0.73755107  0.09869477  1
  O  O1  1  0.79582723  0.54591475  0.37881219  1
  O  O2  1  0.13440092  0.49274162  0.33513416  1
  O  O3  1  0.63440092  0.50725838  0.16486584  1
  O  O4  1  0.37737752  0.15541011  0.80941704  1
  O  O5  1  0.29582723  0.45408525  0.12118781  1
  O  O6  1  0.96278358  0.21039633  0.57626867  1
  O  O7  1  0.82193160  0.06384881  0.84619377  1
  O  O8  1  0.39997716  0.26244893  0.40130523  1
  O  O9  1  0.64022035  0.11007533  0.61492876  1
  O  O10  1  0.14022035  0.88992467  0.88507124  1
  O  O11  1  0.12262248  0.15541011  0.30941704  1
  O  O12  1  0.32193160  0.93615119  0.65380623  1
  O  O13  1  0.46278358  0.78960367  0.92373133  1
  O  O14  1  0.53721642  0.21039633  0.07626867  1
  O  O15  1  0.67806840  0.06384881  0.34619377  1
  O  O16  1  0.87737752  0.84458989  0.69058296  1
  O  O17  1  0.85977965  0.11007533  0.11492876  1
  O  O18  1  0.35977965  0.88992467  0.38507124  1
  O  O19  1  0.60002284  0.73755107  0.59869477  1
  O  O20  1  0.17806840  0.93615119  0.15380623  1
  O  O21  1  0.03721642  0.78960367  0.42373133  1
  O  O22  1  0.70417277  0.54591475  0.87881219  1
  O  O23  1  0.62262248  0.84458989  0.19058296  1
  O  O24  1  0.36559908  0.49274162  0.83513416  1
  O  O25  1  0.86559908  0.50725838  0.66486584  1
  O  O26  1  0.20417277  0.45408525  0.62118781  1
  O  O27  1  0.10002284  0.26244893  0.90130523  1
loop_
_geom_bond_atom_site_label_1
_geom_bond_atom_site_label_2
_geom_bond_distance
_geom_bond_site_symmetry_2
Mn0 O2 1.861469 1_555
Mn0 O25 1.861469 1_455
Mn0 O1 1.879729 1_455
Mn0 O26 1.879729 1_555
Mn0 O6 1.891288 1_455
Mn0 O21 1.891288 1_555
Mn1 O0 1.867686 1_445
Mn1 O27 1.867686 1_554
Mn1 O10 1.880778 1_544
Mn1 O17 1.880778 1_455
Mn1 O20 1.896672 1_545
Mn1 O7 1.896672 1_454
Mn2 O19 1.867686 1_545
Mn2 O8 1.867686 1_555
Mn2 O9 1.880778 1_555
Mn2 O18 1.880778 1_545
Mn2 O15 1.896672 1_555
Mn2 O12 1.896672 1_545
Mn3 O3 1.861469 1_555
Mn3 O24 1.861469 1_554
Mn3 O22 1.879729 1_554
Mn3 O5 1.879729 1_555
Mn3 O14 1.891288 1_555
Mn3 O13 1.891288 1_554
O0 P0 1.515114 1_555
O1 P0 1.515514 1_555
O2 P1 1.508776 1_555
O3 P0 1.508776 1_555
O4 P3 1.589714 1_545
O4 P7 1.589811 1_555
O5 P1 1.515514 1_555
O6 P2 1.518921 1_555
O7 P2 1.518121 1_555
O8 P1 1.515114 1_555
O9 P2 1.521203 1_555
O10 P3 1.521203 1_555
O11 P5 1.589714 1_545
O11 P1 1.589811 1_555
O12 P3 1.518121 1_555
O13 P3 1.518921 1_555
O14 P4 1.518921 1_555
O15 P4 1.518121 1_555
O16 P2 1.589714 1_565
O16 P6 1.589811 1_555
O17 P4 1.521203 1_555
O18 P5 1.521203 1_555
O19 P6 1.515114 1_555
O20 P5 1.518121 1_555
O21 P5 1.518921 1_555
O22 P6 1.515514 1_555
O23 P4 1.589714 1_565
O23 P0 1.589811 1_555
O24 P7 1.508776 1_555
O25 P6 1.508776 1_555
O26 P7 1.515514 1_555
O27 P7 1.515114 1_555
