# generated using pymatgen
data_Ag2H16O9
_symmetry_space_group_name_H-M   'P 1'
_cell_length_a   12.66252400
_cell_length_b   6.65027400
_cell_length_c   11.92191015
_cell_angle_alpha   75.86049997
_cell_angle_beta   90.00000000
_cell_angle_gamma   90.00000000
_symmetry_Int_Tables_number   1
_chemical_formula_structural   Ag2H16O9
_chemical_formula_sum   'Ag8 H64 O36'
_cell_volume   973.51977684
_cell_formula_units_Z   4
loop_
 _symmetry_equiv_pos_site_id
 _symmetry_equiv_pos_as_xyz
  1  'x, y, z'
loop_
 _atom_site_type_symbol
 _atom_site_label
 _atom_site_symmetry_multiplicity
 _atom_site_fract_x
 _atom_site_fract_y
 _atom_site_fract_z
 _atom_site_occupancy
  Ag  Ag0  1  0.32122100  0.58324100  0.89990900  1
  Ag  Ag1  1  0.79124900  0.59399800  0.83512000  1
  Ag  Ag2  1  0.17877900  0.58324100  0.39990900  1
  Ag  Ag3  1  0.70875100  0.59399800  0.33512000  1
  Ag  Ag4  1  0.29124900  0.40600200  0.66488000  1
  Ag  Ag5  1  0.82122100  0.41675900  0.60009100  1
  Ag  Ag6  1  0.20875100  0.40600200  0.16488000  1
  Ag  Ag7  1  0.67877900  0.41675900  0.10009100  1
  H  H0  1  0.44583600  0.96787600  0.89909900  1
  H  H1  1  0.08584900  0.98465800  0.73232100  1
  H  H2  1  0.92655800  0.84569100  0.94179900  1
  H  H3  1  0.94832900  0.89694900  0.80181800  1
  H  H4  1  0.59627800  0.78182300  0.90897600  1
  H  H5  1  0.30508900  0.87723900  0.67514100  1
  H  H6  1  0.78101300  0.88969300  0.60358000  1
  H  H7  1  0.05416400  0.96787600  0.39909900  1
  H  H8  1  0.10059500  0.90448300  0.52743000  1
  H  H9  1  0.49439500  0.86192200  0.59461500  1
  H  H10  1  0.18479300  0.80177500  0.69446100  1
  H  H11  1  0.41415100  0.98465800  0.23232100  1
  H  H12  1  0.66436700  0.77932200  0.61476600  1
  H  H13  1  0.57344200  0.84569100  0.44179900  1
  H  H14  1  0.55167100  0.89694900  0.30181800  1
  H  H15  1  0.00916200  0.66302800  0.71148500  1
  H  H16  1  0.90372200  0.78182300  0.40897600  1
  H  H17  1  0.56223100  0.57690100  0.87114200  1
  H  H18  1  0.19491100  0.87723900  0.17514100  1
  H  H19  1  0.71898700  0.88969300  0.10358000  1
  H  H20  1  0.39940500  0.90448300  0.02743000  1
  H  H21  1  0.00560500  0.86192200  0.09461500  1
  H  H22  1  0.09635300  0.47852600  0.95017900  1
  H  H23  1  0.31520700  0.80177500  0.19446100  1
  H  H24  1  0.42740300  0.66208000  0.50967600  1
  H  H25  1  0.50229000  0.56948600  0.70401900  1
  H  H26  1  0.83563300  0.77932200  0.11476600  1
  H  H27  1  0.00229000  0.43051400  0.79598100  1
  H  H28  1  0.92740300  0.33792000  0.99032400  1
  H  H29  1  0.59635300  0.52147400  0.54982100  1
  H  H30  1  0.49083800  0.66302800  0.21148500  1
  H  H31  1  0.93776900  0.57690100  0.37114200  1
  H  H32  1  0.06223100  0.42309900  0.62885800  1
  H  H33  1  0.50916200  0.33697200  0.78851500  1
  H  H34  1  0.40364700  0.47852600  0.45017900  1
  H  H35  1  0.07259700  0.66208000  0.00967600  1
  H  H36  1  0.99771000  0.56948600  0.20401900  1
  H  H37  1  0.16436700  0.22067800  0.88523400  1
  H  H38  1  0.49771000  0.43051400  0.29598100  1
  H  H39  1  0.57259700  0.33792000  0.49032400  1
  H  H40  1  0.68479300  0.19822500  0.80553900  1
  H  H41  1  0.90364700  0.52147400  0.04982100  1
  H  H42  1  0.99439500  0.13807800  0.90538500  1
  H  H43  1  0.60059500  0.09551700  0.97257000  1
  H  H44  1  0.28101300  0.11030700  0.89642000  1
  H  H45  1  0.80508900  0.12276100  0.82485900  1
  H  H46  1  0.43776900  0.42309900  0.12885800  1
  H  H47  1  0.09627800  0.21817700  0.59102400  1
  H  H48  1  0.99083800  0.33697200  0.28851500  1
  H  H49  1  0.44832900  0.10305100  0.69818200  1
  H  H50  1  0.42655800  0.15430900  0.55820100  1
  H  H51  1  0.33563300  0.22067800  0.38523400  1
  H  H52  1  0.58584900  0.01534200  0.76767900  1
  H  H53  1  0.81520700  0.19822500  0.30553900  1
  H  H54  1  0.50560500  0.13807800  0.40538500  1
  H  H55  1  0.89940500  0.09551700  0.47257000  1
  H  H56  1  0.94583600  0.03212400  0.60090100  1
  H  H57  1  0.21898700  0.11030700  0.39642000  1
  H  H58  1  0.69491100  0.12276100  0.32485900  1
  H  H59  1  0.40372200  0.21817700  0.09102400  1
  H  H60  1  0.05167100  0.10305100  0.19818200  1
  H  H61  1  0.07344200  0.15430900  0.05820100  1
  H  H62  1  0.91415100  0.01534200  0.26767900  1
  H  H63  1  0.55416400  0.03212400  0.10090100  1
  O  O0  1  0.38036300  0.91643600  0.94542200  1
  O  O1  1  0.89681200  0.91376600  0.86155700  1
  O  O2  1  0.05246400  0.91816400  0.67683600  1
  O  O3  1  0.11963700  0.91643600  0.44542200  1
  O  O4  1  0.60318800  0.91376600  0.36155700  1
  O  O5  1  0.25955800  0.75448500  0.70470400  1
  O  O6  1  0.73997900  0.76358500  0.64022400  1
  O  O7  1  0.61469000  0.63492100  0.91844100  1
  O  O8  1  0.13113700  0.59118500  0.97641100  1
  O  O9  1  0.53293300  0.74945200  0.57211400  1
  O  O10  1  0.44753600  0.91816400  0.17683600  1
  O  O11  1  0.24044200  0.75448500  0.20470400  1
  O  O12  1  0.98468700  0.51727600  0.71679500  1
  O  O13  1  0.48468700  0.48272400  0.78320500  1
  O  O14  1  0.76002100  0.76358500  0.14022400  1
  O  O15  1  0.88531000  0.63492100  0.41844100  1
  O  O16  1  0.36886300  0.59118500  0.47641100  1
  O  O17  1  0.96706700  0.74945200  0.07211400  1
  O  O18  1  0.03293300  0.25054800  0.92788600  1
  O  O19  1  0.63113700  0.40881500  0.52358900  1
  O  O20  1  0.11469000  0.36507900  0.58155900  1
  O  O21  1  0.23997900  0.23641500  0.85977600  1
  O  O22  1  0.51531300  0.51727600  0.21679500  1
  O  O23  1  0.01531300  0.48272400  0.28320500  1
  O  O24  1  0.75955800  0.24551500  0.79529600  1
  O  O25  1  0.55246400  0.08183600  0.82316400  1
  O  O26  1  0.46706700  0.25054800  0.42788600  1
  O  O27  1  0.86886300  0.40881500  0.02358900  1
  O  O28  1  0.38531000  0.36507900  0.08155900  1
  O  O29  1  0.26002100  0.23641500  0.35977600  1
  O  O30  1  0.74044200  0.24551500  0.29529600  1
  O  O31  1  0.39681200  0.08623400  0.63844300  1
  O  O32  1  0.88036300  0.08356400  0.55457800  1
  O  O33  1  0.94753600  0.08183600  0.32316400  1
  O  O34  1  0.10318800  0.08623400  0.13844300  1
  O  O35  1  0.61963700  0.08356400  0.05457800  1
loop_
_geom_bond_atom_site_label_1
_geom_bond_atom_site_label_2
_geom_bond_distance
_geom_bond_site_symmetry_2
Ag0 O28 2.432764 1_556
Ag0 O5 2.455131 1_555
Ag0 O0 2.520436 1_555
Ag0 O8 2.579058 1_555
Ag0 O13 2.668615 1_555
Ag0 O21 2.673249 1_555
Ag1 O6 2.410794 1_555
Ag1 O27 2.485799 1_556
Ag1 O7 2.488203 1_555
Ag1 O24 2.508956 1_555
Ag1 O1 2.595331 1_555
Ag2 O20 2.432764 1_555
Ag2 O11 2.455131 1_555
Ag2 O3 2.520436 1_555
Ag2 O16 2.579058 1_555
Ag2 O23 2.668615 1_555
Ag2 O29 2.673249 1_555
Ag3 O14 2.410794 1_555
Ag3 O19 2.485799 1_555
Ag3 O15 2.488203 1_555
Ag3 O30 2.508956 1_555
Ag3 O4 2.595331 1_555
Ag4 O21 2.410794 1_555
Ag4 O16 2.485799 1_555
Ag4 O20 2.488203 1_555
Ag4 O5 2.508956 1_555
Ag4 O31 2.595331 1_555
Ag5 O15 2.432764 1_555
Ag5 O24 2.455131 1_555
Ag5 O32 2.520436 1_555
Ag5 O19 2.579058 1_555
Ag5 O12 2.668615 1_555
Ag5 O6 2.673249 1_555
Ag6 O29 2.410794 1_555
Ag6 O8 2.485799 1_554
Ag6 O28 2.488203 1_555
Ag6 O11 2.508956 1_555
Ag6 O34 2.595331 1_555
Ag7 O7 2.432764 1_554
Ag7 O30 2.455131 1_555
Ag7 O35 2.520436 1_555
Ag7 O27 2.579058 1_555
Ag7 O22 2.668615 1_555
Ag7 O14 2.673249 1_555
H0 O0 1.008486 1_555
H1 O2 0.977102 1_555
H2 O1 1.024885 1_555
H2 O17 1.612644 1_556
H3 O1 0.992067 1_555
H4 O7 0.983686 1_555
H5 O5 0.991195 1_555
H6 O6 0.992556 1_555
H7 O3 1.008486 1_555
H8 O3 0.991145 1_555
H9 O9 0.983646 1_555
H10 O5 0.995651 1_555
H11 O10 0.977102 1_555
H12 O6 1.002118 1_555
H13 O4 1.024885 1_555
H13 O9 1.612644 1_555
H14 O4 0.992067 1_555
H15 O12 1.004789 1_455
H16 O15 0.983686 1_555
H17 O7 1.007176 1_555
H18 O11 0.991195 1_555
H19 O14 0.992556 1_555
H20 O0 0.991145 1_554
H21 O17 0.983646 1_455
H22 O8 0.983665 1_555
H23 O11 0.995651 1_555
H24 O16 1.010142 1_555
H25 O13 1.003844 1_555
H26 O14 1.002118 1_555
H27 O12 1.003844 1_455
H28 O27 1.010142 1_556
H29 O19 0.983665 1_555
H30 O22 1.004789 1_555
H31 O15 1.007176 1_555
H32 O20 1.007176 1_555
H33 O13 1.004789 1_555
H34 O16 0.983665 1_555
H35 O8 1.010142 1_554
H36 O23 1.003844 1_655
H37 O21 1.002118 1_555
H38 O22 1.003844 1_555
H39 O19 1.010142 1_555
H40 O24 0.995651 1_555
H41 O27 0.983665 1_555
H42 O18 0.983646 1_655
H43 O35 0.991145 1_556
H44 O21 0.992556 1_555
H45 O24 0.991195 1_555
H46 O28 1.007176 1_555
H47 O20 0.983686 1_555
H48 O23 1.004789 1_655
H49 O31 0.992067 1_555
H50 O31 1.024885 1_555
H50 O26 1.612644 1_555
H51 O29 1.002118 1_555
H52 O25 0.977102 1_555
H53 O30 0.995651 1_555
H54 O26 0.983646 1_555
H55 O32 0.991145 1_555
H56 O32 1.008486 1_555
H57 O29 0.992556 1_555
H58 O30 0.991195 1_555
H59 O28 0.983686 1_555
H60 O34 0.992067 1_555
H61 O34 1.024885 1_555
H61 O18 1.612644 1_554
H62 O33 0.977102 1_555
H63 O35 1.008486 1_555
