# generated using pymatgen
data_Co2NiO6
_symmetry_space_group_name_H-M   'P 1'
_cell_length_a   5.65406675
_cell_length_b   5.74264524
_cell_length_c   6.44464982
_cell_angle_alpha   104.56176330
_cell_angle_beta   77.43641463
_cell_angle_gamma   89.67675543
_symmetry_Int_Tables_number   1
_chemical_formula_structural   Co2NiO6
_chemical_formula_sum   'Co4 Ni2 O12'
_cell_volume   197.27834510
_cell_formula_units_Z   2
loop_
 _symmetry_equiv_pos_site_id
 _symmetry_equiv_pos_as_xyz
  1  'x, y, z'
loop_
 _atom_site_type_symbol
 _atom_site_label
 _atom_site_symmetry_multiplicity
 _atom_site_fract_x
 _atom_site_fract_y
 _atom_site_fract_z
 _atom_site_occupancy
  Co  Co0  1  0.99942800  0.99756900  0.99869500  1
  Co  Co1  1  0.33212000  0.66496000  0.66363500  1
  Co  Co2  1  0.49942300  0.99757400  0.99870600  1
  Co  Co3  1  0.83210500  0.66496400  0.66363800  1
  Ni  Ni0  1  0.66595900  0.33122900  0.33125700  1
  Ni  Ni1  1  0.16550900  0.33119400  0.33125000  1
  O  O0  1  0.24235100  0.22009600  0.02386900  1
  O  O1  1  0.74237800  0.22010300  0.02387500  1
  O  O2  1  0.08912000  0.44242900  0.63858300  1
  O  O3  1  0.58917300  0.44244200  0.63857600  1
  O  O4  1  0.40875700  0.55268400  0.35389500  1
  O  O5  1  0.90876400  0.55272700  0.35389800  1
  O  O6  1  0.42275600  0.10967500  0.30847800  1
  O  O7  1  0.92274100  0.10965900  0.30847800  1
  O  O8  1  0.07489700  0.88764700  0.68884900  1
  O  O9  1  0.57491700  0.88766000  0.68886300  1
  O  O10  1  0.25665100  0.77490500  0.97342600  1
  O  O11  1  0.75664500  0.77490400  0.97346000  1
loop_
_geom_bond_atom_site_label_1
_geom_bond_atom_site_label_2
_geom_bond_distance
_geom_bond_site_symmetry_2
Co0 O1 1.882529 1_566
Co0 O10 1.883604 1_655
Co0 O11 1.886314 1_555
Co0 O0 1.886356 1_666
Co0 O8 1.886899 1_655
Co0 O7 1.887373 1_566
Co1 O3 1.882678 1_555
Co1 O8 1.883780 1_555
Co1 O9 1.886503 1_555
Co1 O10 1.886580 1_555
Co1 O2 1.886640 1_555
Co1 O4 1.887197 1_555
Co2 O0 1.882605 1_566
Co2 O11 1.883660 1_555
Co2 O10 1.886304 1_555
Co2 O1 1.886497 1_566
Co2 O9 1.886877 1_555
Co2 O6 1.887313 1_566
Co3 O2 1.882588 1_655
Co3 O9 1.883648 1_555
Co3 O3 1.886322 1_555
Co3 O8 1.886409 1_655
Co3 O11 1.886763 1_555
Co3 O5 1.887180 1_555
Ni0 O3 1.872362 1_555
Ni0 O1 1.872701 1_555
Ni0 O5 1.880807 1_555
Ni0 O7 1.881743 1_555
Ni0 O6 1.882768 1_555
Ni0 O4 1.883332 1_555
Ni1 O2 1.872457 1_555
Ni1 O0 1.872682 1_555
Ni1 O7 1.880846 1_455
Ni1 O5 1.881667 1_455
Ni1 O4 1.882659 1_555
Ni1 O6 1.883538 1_555
