# generated using pymatgen
data_Li3MnPCO7
_symmetry_space_group_name_H-M   'P 1'
_cell_length_a   4.97262900
_cell_length_b   8.58176565
_cell_length_c   13.19028767
_cell_angle_alpha   90.55544290
_cell_angle_beta   90.07959555
_cell_angle_gamma   94.53964408
_symmetry_Int_Tables_number   1
_chemical_formula_structural   Li3MnPCO7
_chemical_formula_sum   'Li12 Mn4 P4 C4 O28'
_cell_volume   561.08795453
_cell_formula_units_Z   4
loop_
 _symmetry_equiv_pos_site_id
 _symmetry_equiv_pos_as_xyz
  1  'x, y, z'
loop_
 _atom_site_type_symbol
 _atom_site_label
 _atom_site_symmetry_multiplicity
 _atom_site_fract_x
 _atom_site_fract_y
 _atom_site_fract_z
 _atom_site_occupancy
  Li  Li0  1  0.23628400  0.09392600  0.12799400  1
  Li  Li1  1  0.23564200  0.09779100  0.62817800  1
  Li  Li2  1  0.75429100  0.27435800  0.51938600  1
  Li  Li3  1  0.75246100  0.27302300  0.24355900  1
  Li  Li4  1  0.76512500  0.27918900  0.73637100  1
  Li  Li5  1  0.22291700  0.35232400  0.86524200  1
  Li  Li6  1  0.24364500  0.71953900  0.97743800  1
  Li  Li7  1  0.24532800  0.72439200  0.26777700  1
  Li  Li8  1  0.24794700  0.72736400  0.48926800  1
  Li  Li9  1  0.24563700  0.72052700  0.76601200  1
  Li  Li10  1  0.76304500  0.90540300  0.37810400  1
  Li  Li11  1  0.76503100  0.90115900  0.86996300  1
  Mn  Mn0  1  0.74771600  0.25860600  0.99351400  1
  Mn  Mn1  1  0.22398100  0.34062700  0.37669500  1
  Mn  Mn2  1  0.77920200  0.65871400  0.12454800  1
  Mn  Mn3  1  0.77670600  0.65848900  0.62536200  1
  P  P0  1  0.27578800  0.40852600  0.12366600  1
  P  P1  1  0.27614000  0.40884500  0.62781100  1
  P  P2  1  0.72269900  0.59030000  0.37388700  1
  P  P3  1  0.71823300  0.58959900  0.87519100  1
  C  C0  1  0.29701100  0.03333700  0.37353800  1
  C  C1  1  0.29219900  0.03790600  0.88035400  1
  C  C2  1  0.70331400  0.96681300  0.62466000  1
  C  C3  1  0.70289300  0.96563900  0.12544400  1
  O  O0  1  0.04395800  0.06998700  0.88125000  1
  O  O1  1  0.04977800  0.06805700  0.37344900  1
  O  O2  1  0.64089200  0.11250400  0.12316700  1
  O  O3  1  0.64028100  0.11100000  0.62549000  1
  O  O4  1  0.49037000  0.14550800  0.37254600  1
  O  O5  1  0.48591000  0.15024300  0.88258200  1
  O  O6  1  0.16528600  0.31004800  0.53437800  1
  O  O7  1  0.17273400  0.31113400  0.02965200  1
  O  O8  1  0.16960100  0.31044700  0.21607900  1
  O  O9  1  0.17343200  0.31297800  0.71977400  1
  O  O10  1  0.81216100  0.42149100  0.37306900  1
  O  O11  1  0.82183600  0.42379400  0.87306500  1
  O  O12  1  0.59307200  0.42309600  0.62499900  1
  O  O13  1  0.59421400  0.41965300  0.12301800  1
  O  O14  1  0.40690400  0.57736100  0.37366100  1
  O  O15  1  0.40621300  0.57515100  0.87586000  1
  O  O16  1  0.19037600  0.57800900  0.12597800  1
  O  O17  1  0.18742400  0.57890000  0.62597600  1
  O  O18  1  0.83237000  0.68947100  0.46635100  1
  O  O19  1  0.83110700  0.68895000  0.28216000  1
  O  O20  1  0.82883200  0.68999600  0.78399700  1
  O  O21  1  0.83027200  0.68959000  0.96794800  1
  O  O22  1  0.50849700  0.85622700  0.12757400  1
  O  O23  1  0.51104500  0.85354900  0.62373400  1
  O  O24  1  0.35972900  0.88825700  0.37470600  1
  O  O25  1  0.35866800  0.89336500  0.87516200  1
  O  O26  1  0.95008000  0.93270100  0.12537700  1
  O  O27  1  0.95172100  0.93214000  0.62503300  1
loop_
_geom_bond_atom_site_label_1
_geom_bond_atom_site_label_2
_geom_bond_distance
_geom_bond_site_symmetry_2
Li0 O26 1.904788 1_445
Li0 O2 2.006802 1_555
Li0 O8 2.229190 1_555
Li0 O7 2.322945 1_555
Li0 O22 2.535803 1_545
Li1 O27 1.922723 1_445
Li1 O3 2.006714 1_555
Li1 O9 2.239161 1_555
Li1 O6 2.261540 1_555
Li2 O3 2.039579 1_555
Li2 O6 2.051425 1_655
Li2 O12 2.084041 1_555
Li2 O10 2.322316 1_555
Li2 O4 2.533413 1_555
Li3 O8 2.106198 1_655
Li3 O10 2.127492 1_555
Li3 O2 2.135725 1_555
Li3 O13 2.218719 1_555
Li3 O4 2.367957 1_555
Li4 O9 2.040499 1_655
Li4 O3 2.102961 1_555
Li4 O12 2.148052 1_555
Li4 O11 2.184092 1_555
Li4 O5 2.584036 1_555
Li5 O9 1.956833 1_555
Li5 O15 2.055633 1_555
Li5 O11 2.134843 1_455
Li5 O7 2.211903 1_556
Li5 O5 2.266258 1_555
Li5 O0 2.525136 1_555
Li6 O15 2.028161 1_555
Li6 O21 2.054762 1_455
Li6 O25 2.068441 1_555
Li6 O16 2.319658 1_556
Li6 O22 2.595265 1_556
Li7 O24 2.030551 1_555
Li7 O19 2.067408 1_455
Li7 O14 2.092793 1_555
Li7 O16 2.247162 1_555
Li7 O22 2.495086 1_555
Li8 O18 2.087479 1_455
Li8 O24 2.102419 1_555
Li8 O14 2.175673 1_555
Li8 O17 2.225042 1_555
Li8 O23 2.400445 1_555
Li9 O20 2.082612 1_455
Li9 O25 2.100745 1_555
Li9 O15 2.117299 1_555
Li9 O17 2.207293 1_555
Li9 O23 2.525244 1_555
Li10 O1 1.916246 1_665
Li10 O24 1.999691 1_555
Li10 O18 2.247102 1_555
Li10 O19 2.285110 1_555
Li10 O4 2.556277 1_565
Li11 O0 1.929305 1_665
Li11 O25 2.017784 1_555
Li11 O20 2.173127 1_555
Li11 O21 2.282495 1_555
Mn0 O5 2.115977 1_555
Mn0 O11 2.152250 1_555
Mn0 O2 2.171988 1_556
Mn0 O7 2.177003 1_656
Mn0 O13 2.352770 1_556
Mn0 O0 2.705543 1_655
Mn1 O6 2.116628 1_555
Mn1 O8 2.145980 1_555
Mn1 O14 2.159981 1_555
Mn1 O10 2.214225 1_455
Mn1 O4 2.216096 1_555
Mn1 O1 2.429188 1_555
Mn2 O21 2.098289 1_554
Mn2 O19 2.105568 1_555
Mn2 O13 2.180805 1_555
Mn2 O16 2.210159 1_655
Mn2 O22 2.246487 1_555
Mn2 O26 2.435963 1_555
Mn3 O20 2.120150 1_555
Mn3 O18 2.132410 1_555
Mn3 O12 2.149979 1_555
Mn3 O17 2.204232 1_655
Mn3 O23 2.213233 1_555
Mn3 O27 2.439082 1_555
C0 O1 1.287707 1_555
C0 O4 1.305783 1_555
C0 O24 1.307462 1_545
C1 O0 1.285877 1_555
C1 O5 1.307855 1_555
C1 O25 1.309919 1_545
C2 O27 1.293277 1_555
C2 O3 1.300236 1_565
C2 O23 1.308306 1_555
C3 O26 1.282870 1_555
C3 O22 1.293736 1_555
C3 O2 1.321622 1_565
O6 P1 1.563782 1_555
O7 P0 1.552184 1_555
O8 P0 1.557059 1_555
O9 P1 1.537421 1_555
O10 P2 1.548682 1_555
O11 P3 1.551176 1_555
O12 P1 1.571560 1_555
O13 P0 1.578769 1_555
O14 P2 1.565458 1_555
O15 P3 1.546737 1_555
O16 P0 1.547174 1_555
O17 P1 1.558055 1_555
O18 P2 1.553629 1_555
O19 P2 1.555833 1_555
O20 P3 1.561609 1_555
O21 P3 1.563883 1_555
