# generated using pymatgen
data_K2Mn(C2O5)2
_symmetry_space_group_name_H-M   'P 1'
_cell_length_a   7.07815798
_cell_length_b   7.07815798
_cell_length_c   10.18096654
_cell_angle_alpha   90.00000000
_cell_angle_beta   90.00000000
_cell_angle_gamma   113.66462642
_symmetry_Int_Tables_number   1
_chemical_formula_structural   K2Mn(C2O5)2
_chemical_formula_sum   'K4 Mn2 C8 O20'
_cell_volume   467.17821945
_cell_formula_units_Z   2
loop_
 _symmetry_equiv_pos_site_id
 _symmetry_equiv_pos_as_xyz
  1  'x, y, z'
loop_
 _atom_site_type_symbol
 _atom_site_label
 _atom_site_symmetry_multiplicity
 _atom_site_fract_x
 _atom_site_fract_y
 _atom_site_fract_z
 _atom_site_occupancy
  K  K0  1  0.36176023  0.16271569  0.20618457  1
  K  K1  1  0.83728431  0.63823977  0.20618457  1
  K  K2  1  0.63823977  0.83728431  0.70618457  1
  K  K3  1  0.16271569  0.36176023  0.70618457  1
  Mn  Mn0  1  0.17503283  0.82496717  0.49017955  1
  Mn  Mn1  1  0.82496717  0.17503283  0.99017955  1
  C  C0  1  0.34109364  0.65890636  0.29033216  1
  C  C1  1  0.65890636  0.34109364  0.79033216  1
  C  C2  1  0.41460214  0.58539786  0.41352677  1
  C  C3  1  0.58539786  0.41460214  0.91352677  1
  C  C4  1  0.86117215  0.13882785  0.27779327  1
  C  C5  1  0.13882785  0.86117215  0.77779327  1
  C  C6  1  0.92985925  0.07014075  0.41281903  1
  C  C7  1  0.07014075  0.92985925  0.91281903  1
  O  O0  1  0.23168994  0.76831006  0.31461189  1
  O  O1  1  0.76831006  0.23168994  0.81461189  1
  O  O2  1  0.38230517  0.61769483  0.18112848  1
  O  O3  1  0.61769483  0.38230517  0.68112848  1
  O  O4  1  0.35752870  0.64247130  0.52058073  1
  O  O5  1  0.64247130  0.35752870  0.02058073  1
  O  O6  1  0.51796187  0.48203813  0.40099398  1
  O  O7  1  0.48203813  0.51796187  0.90099398  1
  O  O8  1  0.75782262  0.24217738  0.28730242  1
  O  O9  1  0.24217738  0.75782262  0.78730242  1
  O  O10  1  0.92192194  0.07807806  0.17375791  1
  O  O11  1  0.07807806  0.92192194  0.67375791  1
  O  O12  1  0.87983619  0.12016381  0.51676034  1
  O  O13  1  0.12016381  0.87983619  0.01676034  1
  O  O14  1  0.03919333  0.96080667  0.39256461  1
  O  O15  1  0.96080667  0.03919333  0.89256461  1
  O  O16  1  0.39110100  0.00472715  0.53278887  1
  O  O17  1  0.99527285  0.60889900  0.53278887  1
  O  O18  1  0.60889900  0.99527285  0.03278887  1
  O  O19  1  0.00472715  0.39110100  0.03278887  1
loop_
_geom_bond_atom_site_label_1
_geom_bond_atom_site_label_2
_geom_bond_distance
_geom_bond_site_symmetry_2
K0 O5 2.687105 1_555
K0 O8 2.755292 1_555
K0 O0 2.792194 1_545
K0 O13 2.811388 1_545
K0 O14 2.869941 1_545
K0 O6 2.873774 1_555
K0 O10 2.943290 1_455
K0 O18 3.040625 1_545
K0 O2 3.175113 1_555
K1 O5 2.687105 1_555
K1 O8 2.755292 1_555
K1 O0 2.792194 1_655
K1 O13 2.811388 1_655
K1 O14 2.869941 1_655
K1 O6 2.873774 1_555
K1 O10 2.943290 1_565
K1 O19 3.040625 1_655
K1 O2 3.175113 1_555
K2 O4 2.687105 1_555
K2 O9 2.755292 1_555
K2 O1 2.792194 1_565
K2 O12 2.811388 1_565
K2 O15 2.869941 1_565
K2 O7 2.873774 1_555
K2 O11 2.943290 1_655
K2 O16 3.040625 1_565
K2 O3 3.175113 1_555
K3 O4 2.687105 1_555
K3 O9 2.755292 1_555
K3 O1 2.792194 1_455
K3 O12 2.811388 1_455
K3 O15 2.869941 1_455
K3 O7 2.873774 1_555
K3 O11 2.943290 1_545
K3 O17 3.040625 1_455
K3 O3 3.175113 1_555
Mn0 O16 1.607468 1_565
Mn0 O17 1.607468 1_455
Mn0 O14 1.891755 1_555
Mn0 O0 1.909377 1_555
Mn0 O4 2.184589 1_555
Mn0 O11 2.193890 1_555
Mn1 O19 1.607468 1_656
Mn1 O18 1.607468 1_546
Mn1 O15 1.891755 1_555
Mn1 O1 1.909377 1_555
Mn1 O5 2.184589 1_556
Mn1 O10 2.193890 1_556
C0 O2 1.214325 1_555
C0 O0 1.319775 1_555
C1 O3 1.214325 1_555
C1 O1 1.319775 1_555
C2 O6 1.231428 1_555
C2 O4 1.282696 1_555
C3 O7 1.231428 1_555
C3 O5 1.282696 1_556
C4 O8 1.228499 1_555
C4 O10 1.280659 1_555
C5 O9 1.228499 1_555
C5 O11 1.280659 1_555
C6 O12 1.212934 1_555
C6 O14 1.311902 1_645
C7 O13 1.212934 1_556
C7 O15 1.311902 1_465
