# generated using pymatgen
data_ThH10N4O17
_symmetry_space_group_name_H-M   'P 1'
_cell_length_a   12.74360930
_cell_length_b   12.61875820
_cell_length_c   7.71562141
_cell_angle_alpha   73.17445037
_cell_angle_beta   71.40797070
_cell_angle_gamma   35.41757894
_symmetry_Int_Tables_number   1
_chemical_formula_structural   ThH10N4O17
_chemical_formula_sum   'Th2 H20 N8 O34'
_cell_volume   680.52893185
_cell_formula_units_Z   2
loop_
 _symmetry_equiv_pos_site_id
 _symmetry_equiv_pos_as_xyz
  1  'x, y, z'
loop_
 _atom_site_type_symbol
 _atom_site_label
 _atom_site_symmetry_multiplicity
 _atom_site_fract_x
 _atom_site_fract_y
 _atom_site_fract_z
 _atom_site_occupancy
  Th  Th0  1  0.25359100  0.24640900  0.24640900  1
  Th  Th1  1  0.00359100  0.99640900  0.99640900  1
  H  H0  1  0.11710700  0.11987300  0.26308700  1
  H  H1  1  0.49993300  0.26308700  0.11987300  1
  H  H2  1  0.29712600  0.95055000  0.36462600  1
  H  H3  1  0.47188000  0.66034800  0.40132300  1
  H  H4  1  0.13012700  0.13289300  0.75006700  1
  H  H5  1  0.27100800  0.50577600  0.67718500  1
  H  H6  1  0.30316600  0.76580300  0.65996400  1
  H  H7  1  0.27106700  0.65996400  0.76580300  1
  H  H8  1  0.54603200  0.67718500  0.50577600  1
  H  H9  1  0.98691300  0.75006700  0.13289300  1
  H  H10  1  0.46644900  0.40132300  0.66034800  1
  H  H11  1  0.29945000  0.95287400  0.86230100  1
  H  H12  1  0.38769900  0.36462600  0.95055000  1
  H  H13  1  0.58965200  0.77812000  0.78355100  1
  H  H14  1  0.74422400  0.97899200  0.70396800  1
  H  H15  1  0.48419700  0.94683400  0.97893300  1
  H  H16  1  0.59003600  0.97893300  0.94683400  1
  H  H17  1  0.57281500  0.70396800  0.97899200  1
  H  H18  1  0.84867700  0.78355100  0.77812000  1
  H  H19  1  0.88537400  0.86230100  0.95287400  1
  N  N0  1  0.31235400  0.67698100  0.22052400  1
  N  N1  1  0.14669600  0.50697000  0.45102700  1
  N  N2  1  0.79897300  0.35469300  0.10330400  1
  N  N3  1  0.02947600  0.45985900  0.93764600  1
  N  N4  1  0.57301900  0.93764600  0.45985900  1
  N  N5  1  0.74303000  0.10330400  0.35469300  1
  N  N6  1  0.89530700  0.45102700  0.50697000  1
  N  N7  1  0.79014100  0.22052400  0.67698100  1
  O  O0  1  0.09737300  0.31088600  0.00432800  1
  O  O1  1  0.06142600  0.56583000  0.32220400  1
  O  O2  1  0.24567200  0.66258600  0.15262700  1
  O  O3  1  0.25819800  0.82198900  0.16592800  1
  O  O4  1  0.41251100  0.29550600  0.07254300  1
  O  O5  1  0.48162600  0.01837400  0.01837500  1
  O  O6  1  0.21944000  0.07254300  0.29550600  1
  O  O7  1  0.05053900  0.32220400  0.56583000  1
  O  O8  1  0.10474100  0.61128500  0.53208900  1
  O  O9  1  0.42073100  0.56277600  0.33245000  1
  O  O10  1  0.27642800  0.33433900  0.48934400  1
  O  O11  1  0.71791100  0.49811400  0.14525900  1
  O  O12  1  0.68417000  0.18857400  0.19946100  1
  O  O13  1  0.58741400  0.00432800  0.31088600  1
  O  O14  1  0.43298600  0.74311900  0.47406000  1
  O  O15  1  0.42801100  0.99180200  0.49611500  1
  O  O16  1  0.95449400  0.83748900  0.03056000  1
  O  O17  1  0.23162500  0.76837400  0.76837400  1
  O  O18  1  0.17745700  0.03056000  0.83748900  1
  O  O19  1  0.08407200  0.49611500  0.99180200  1
  O  O20  1  0.34983500  0.47406000  0.74311900  1
  O  O21  1  0.92779600  0.19946100  0.18857400  1
  O  O22  1  0.63871500  0.14525900  0.49811400  1
  O  O23  1  0.89988900  0.48934400  0.33433900  1
  O  O24  1  0.68722400  0.82926900  0.56595800  1
  O  O25  1  0.68404200  0.33245000  0.56277600  1
  O  O26  1  0.91566100  0.97357200  0.35011100  1
  O  O27  1  0.75188600  0.53208900  0.61128500  1
  O  O28  1  0.50688100  0.81701400  0.90016500  1
  O  O29  1  0.75388500  0.16592800  0.82198900  1
  O  O30  1  0.77594000  0.90016500  0.81701400  1
  O  O31  1  0.93911400  0.15262700  0.66258600  1
  O  O32  1  0.76065600  0.35011100  0.97357200  1
  O  O33  1  0.91755000  0.56595800  0.82926900  1
loop_
_geom_bond_atom_site_label_1
_geom_bond_atom_site_label_2
_geom_bond_distance
_geom_bond_site_symmetry_2
H0 O6 0.985886 1_555
H1 O4 0.985886 1_555
H2 O6 1.005822 1_565
H3 O14 0.984746 1_555
H4 O18 0.985886 1_555
H5 O20 0.990350 1_555
H6 O17 1.006537 1_555
H7 O17 1.006522 1_555
H8 O14 0.990361 1_555
H9 O16 0.985886 1_555
H10 O20 0.984746 1_555
H11 O18 1.005819 1_565
H12 O4 1.005824 1_556
H13 O28 0.984746 1_555
H14 O30 0.990355 1_555
H15 O5 1.006534 1_566
H16 O5 1.006531 1_566
H17 O28 0.990357 1_555
H18 O30 0.984746 1_555
H19 O16 1.005830 1_556
N0 O9 1.235336 1_555
N0 O2 1.272824 1_555
N0 O3 1.297242 1_555
N1 O8 1.235330 1_555
N1 O10 1.278628 1_555
N1 O1 1.290831 1_555
N2 O11 1.235319 1_555
N2 O32 1.278628 1_554
N2 O21 1.290827 1_555
N3 O33 1.235335 1_455
N3 O0 1.272814 1_556
N3 O19 1.297242 1_555
N4 O24 1.235342 1_555
N4 O13 1.272819 1_565
N4 O15 1.297242 1_555
N5 O22 1.235324 1_555
N5 O26 1.278628 1_545
N5 O12 1.290824 1_555
N6 O27 1.235322 1_555
N6 O23 1.278628 1_555
N6 O7 1.290823 1_655
N7 O25 1.235341 1_555
N7 O31 1.272812 1_555
N7 O29 1.297242 1_555
O0 Th0 2.639157 1_555
O1 Th0 2.636039 1_555
O2 Th1 2.639164 1_554
O3 Th1 2.546059 1_554
O4 Th0 2.473143 1_555
O5 Th0 2.421127 1_555
O6 Th0 2.473143 1_555
O7 Th0 2.636044 1_555
O10 Th0 2.628185 1_555
O12 Th1 2.636042 1_644
O13 Th0 2.639167 1_555
O15 Th0 2.546059 1_565
O16 Th1 2.473143 1_654
O17 Th1 2.421132 1_555
O18 Th1 2.473143 1_545
O19 Th0 2.546059 1_556
O21 Th1 2.636050 1_644
O23 Th0 2.628185 1_655
O26 Th1 2.628185 1_654
O29 Th1 2.546059 1_645
O31 Th1 2.639164 1_645
O32 Th1 2.628185 1_645
