# generated using pymatgen
data_Sr15Pd5O24
_symmetry_space_group_name_H-M   'P 1'
_cell_length_a   6.91871363
_cell_length_b   6.91871363
_cell_length_c   13.82475956
_cell_angle_alpha   89.81625838
_cell_angle_beta   89.81625838
_cell_angle_gamma   90.15241342
_symmetry_Int_Tables_number   1
_chemical_formula_structural   Sr15Pd5O24
_chemical_formula_sum   'Sr15 Pd5 O24'
_cell_volume   661.76269702
_cell_formula_units_Z   1
loop_
 _symmetry_equiv_pos_site_id
 _symmetry_equiv_pos_as_xyz
  1  'x, y, z'
loop_
 _atom_site_type_symbol
 _atom_site_label
 _atom_site_symmetry_multiplicity
 _atom_site_fract_x
 _atom_site_fract_y
 _atom_site_fract_z
 _atom_site_occupancy
  Sr  Sr0  1  0.24939700  0.37973200  0.81628600  1
  Sr  Sr1  1  0.25044100  0.39227700  0.32008300  1
  Sr  Sr2  1  0.38026400  0.24929300  0.06685600  1
  Sr  Sr3  1  0.38064600  0.25068600  0.56368200  1
  Sr  Sr4  1  0.12188100  0.88226000  0.74458100  1
  Sr  Sr5  1  0.11774000  0.87811900  0.25541900  1
  Sr  Sr6  1  0.75079700  0.25053200  0.75024100  1
  Sr  Sr7  1  0.24934600  0.75065400  0.00000000  1
  Sr  Sr8  1  0.74946800  0.24920300  0.24975900  1
  Sr  Sr9  1  0.89086000  0.10914000  0.50000000  1
  Sr  Sr10  1  0.88168200  0.11831800  0.00000000  1
  Sr  Sr11  1  0.62026800  0.75060300  0.18371400  1
  Sr  Sr12  1  0.60772300  0.74955900  0.67991700  1
  Sr  Sr13  1  0.75070700  0.61973600  0.93314400  1
  Sr  Sr14  1  0.74931400  0.61935400  0.43631800  1
  Pd  Pd0  1  0.00068200  0.50109400  0.62404500  1
  Pd  Pd1  1  0.49890600  0.99931800  0.37595500  1
  Pd  Pd2  1  0.50018000  0.99987000  0.87451800  1
  Pd  Pd3  1  0.25116000  0.74884000  0.50000000  1
  Pd  Pd4  1  0.00013000  0.49982000  0.12548200  1
  O  O0  1  0.07405500  0.44188700  0.98180300  1
  O  O1  1  0.07775300  0.45175000  0.48271200  1
  O  O2  1  0.05869100  0.21620300  0.66107000  1
  O  O3  1  0.05816600  0.21360700  0.16193600  1
  O  O4  1  0.21359500  0.05860000  0.91091300  1
  O  O5  1  0.21583000  0.04813100  0.41513600  1
  O  O6  1  0.71421800  0.42770100  0.09560400  1
  O  O7  1  0.57229900  0.28578200  0.90439600  1
  O  O8  1  0.57376400  0.28430800  0.40390100  1
  O  O9  1  0.71569200  0.42623600  0.59609900  1
  O  O10  1  0.44267200  0.07545400  0.73197800  1
  O  O11  1  0.44079300  0.07079000  0.23274500  1
  O  O12  1  0.55811300  0.92594500  0.01819700  1
  O  O13  1  0.54825000  0.92224700  0.51728800  1
  O  O14  1  0.42059600  0.71656900  0.35376600  1
  O  O15  1  0.42609500  0.71282200  0.84384300  1
  O  O16  1  0.28717800  0.57390500  0.15615700  1
  O  O17  1  0.28343100  0.57940400  0.64623400  1
  O  O18  1  0.78639300  0.94183400  0.83806400  1
  O  O19  1  0.78379700  0.94130900  0.33893000  1
  O  O20  1  0.95186900  0.78417000  0.58486400  1
  O  O21  1  0.94140000  0.78640500  0.08908700  1
  O  O22  1  0.92454600  0.55732800  0.26802200  1
  O  O23  1  0.92921000  0.55920700  0.76725500  1
loop_
_geom_bond_atom_site_label_1
_geom_bond_atom_site_label_2
_geom_bond_distance
_geom_bond_site_symmetry_2
O0 Pd4 2.089841 1_556
O0 Sr7 2.467674 1_556
O0 Sr10 2.612443 1_456
O0 Sr0 2.623725 1_555
O0 Sr13 2.643948 1_455
O0 Sr2 2.769017 1_556
O1 Pd0 2.053572 1_555
O1 Pd3 2.390272 1_555
O1 Sr1 2.577404 1_555
O1 Sr14 2.634074 1_455
O1 Sr9 2.706676 1_455
O1 Sr3 2.756889 1_555
O2 Pd0 2.075401 1_555
O2 Sr6 2.470169 1_455
O2 Sr3 2.609084 1_555
O2 Sr4 2.617969 1_545
O2 Sr9 2.622602 1_455
O2 Sr0 2.766109 1_555
O3 Pd4 2.082219 1_555
O3 Sr8 2.466671 1_455
O3 Sr2 2.594454 1_555
O3 Sr10 2.638220 1_455
O3 Sr5 2.686469 1_545
O3 Sr1 2.846952 1_555
O4 Pd2 2.085417 1_545
O4 Sr7 2.470906 1_546
O4 Sr0 2.585647 1_555
O4 Sr10 2.636520 1_456
O4 Sr4 2.683671 1_545
O4 Sr2 2.782857 1_556
O5 Pd1 2.059407 1_545
O5 Pd3 2.390186 1_545
O5 Sr9 2.569265 1_455
O5 Sr5 2.596474 1_545
O5 Sr1 2.725515 1_555
O5 Sr3 2.739817 1_555
O6 Pd4 2.081814 1_655
O6 Sr8 2.472757 1_555
O6 Sr13 2.617027 1_554
O6 Sr11 2.630102 1_555
O6 Sr2 2.648397 1_555
O6 Sr10 2.773577 1_555
O7 Pd2 2.081814 1_545
O7 Sr6 2.472757 1_555
O7 Sr2 2.617027 1_556
O7 Sr0 2.630102 1_555
O7 Sr13 2.648397 1_555
O7 Sr10 2.773577 1_556
O8 Pd1 2.075114 1_545
O8 Sr8 2.462950 1_555
O8 Sr3 2.587443 1_555
O8 Sr1 2.631500 1_555
O8 Sr14 2.654196 1_555
O8 Sr9 2.840690 1_555
O9 Pd0 2.075114 1_655
O9 Sr6 2.462950 1_555
O9 Sr14 2.587443 1_555
O9 Sr12 2.631500 1_555
O9 Sr3 2.654196 1_555
O9 Sr9 2.840690 1_555
O10 Pd2 2.077137 1_545
O10 Sr6 2.463209 1_555
O10 Sr4 2.592923 1_545
O10 Sr12 2.631517 1_545
O10 Sr3 2.656768 1_555
O10 Sr0 2.756675 1_555
O11 Pd1 2.079867 1_545
O11 Sr8 2.476092 1_555
O11 Sr5 2.616857 1_545
O11 Sr11 2.632056 1_545
O11 Sr2 2.636465 1_555
O11 Sr1 2.856985 1_555
O12 Pd2 2.089841 1_554
O12 Sr7 2.467674 1_555
O12 Sr10 2.612443 1_565
O12 Sr11 2.623725 1_555
O12 Sr2 2.643948 1_565
O12 Sr13 2.769017 1_554
O13 Pd1 2.053572 1_555
O13 Pd3 2.390272 1_555
O13 Sr12 2.577404 1_555
O13 Sr3 2.634074 1_565
O13 Sr9 2.706676 1_565
O13 Sr14 2.756889 1_555
O14 Pd1 2.052773 1_555
O14 Pd3 2.345260 1_555
O14 Sr1 2.575470 1_555
O14 Sr14 2.635754 1_555
O14 Sr11 2.732154 1_555
O14 Sr5 2.740337 1_555
O15 Pd2 2.094793 1_555
O15 Sr7 2.492567 1_556
O15 Sr12 2.599212 1_555
O15 Sr0 2.635204 1_555
O15 Sr13 2.646387 1_555
O15 Sr4 2.776472 1_555
O16 Pd4 2.094793 1_555
O16 Sr7 2.492567 1_555
O16 Sr1 2.599212 1_555
O16 Sr11 2.635204 1_555
O16 Sr2 2.646387 1_555
O16 Sr5 2.776472 1_555
O17 Pd0 2.052773 1_555
O17 Pd3 2.345260 1_555
O17 Sr12 2.575470 1_555
O17 Sr3 2.635754 1_555
O17 Sr0 2.732154 1_555
O17 Sr4 2.740337 1_555
O18 Pd2 2.082219 1_555
O18 Sr6 2.466671 1_565
O18 Sr13 2.594454 1_555
O18 Sr10 2.638220 1_566
O18 Sr4 2.686469 1_655
O18 Sr12 2.846952 1_555
O19 Pd1 2.075401 1_555
O19 Sr8 2.470169 1_565
O19 Sr14 2.609084 1_555
O19 Sr5 2.617969 1_655
O19 Sr9 2.622602 1_565
O19 Sr11 2.766109 1_555
O20 Pd0 2.059407 1_655
O20 Pd3 2.390186 1_655
O20 Sr9 2.569265 1_565
O20 Sr4 2.596474 1_655
O20 Sr12 2.725515 1_555
O20 Sr14 2.739817 1_555
O21 Pd4 2.085417 1_655
O21 Sr7 2.470906 1_655
O21 Sr11 2.585647 1_555
O21 Sr10 2.636520 1_565
O21 Sr5 2.683671 1_655
O21 Sr13 2.782857 1_554
O22 Pd4 2.077137 1_655
O22 Sr8 2.463209 1_555
O22 Sr5 2.592923 1_655
O22 Sr1 2.631517 1_655
O22 Sr14 2.656768 1_555
O22 Sr11 2.756675 1_555
O23 Pd0 2.079867 1_655
O23 Sr6 2.476092 1_555
O23 Sr4 2.616857 1_655
O23 Sr0 2.632056 1_655
O23 Sr13 2.636465 1_555
O23 Sr12 2.856985 1_555
