# generated using pymatgen
data_Li2CoSiO4
_symmetry_space_group_name_H-M   'P 1'
_cell_length_a   7.35990700
_cell_length_b   8.23902824
_cell_length_c   7.63913600
_cell_angle_alpha   62.37900065
_cell_angle_beta   89.99985494
_cell_angle_gamma   116.52907528
_symmetry_Int_Tables_number   1
_chemical_formula_structural   Li2CoSiO4
_chemical_formula_sum   'Li8 Co4 Si4 O16'
_cell_volume   354.46802708
_cell_formula_units_Z   4
loop_
 _symmetry_equiv_pos_site_id
 _symmetry_equiv_pos_as_xyz
  1  'x, y, z'
loop_
 _atom_site_type_symbol
 _atom_site_label
 _atom_site_symmetry_multiplicity
 _atom_site_fract_x
 _atom_site_fract_y
 _atom_site_fract_z
 _atom_site_occupancy
  Li  Li0  1  0.56865100  0.49999000  0.75003200  1
  Li  Li1  1  0.06868600  0.49999100  0.25000400  1
  Li  Li2  1  0.68135200  0.00001700  0.99992800  1
  Li  Li3  1  0.18134900  0.00001000  0.50005600  1
  Li  Li4  1  0.87501700  0.75002800  0.93795600  1
  Li  Li5  1  0.37497800  0.74996500  0.43804900  1
  Li  Li6  1  0.62498000  0.24995500  0.56203600  1
  Li  Li7  1  0.12502400  0.25005500  0.06194400  1
  Co  Co0  1  0.62499000  0.25000400  0.19638600  1
  Co  Co1  1  0.87498900  0.75000100  0.30362300  1
  Co  Co2  1  0.12500700  0.24998100  0.69632000  1
  Co  Co3  1  0.37500600  0.75000700  0.80374700  1
  Si  Si0  1  0.32402400  0.99992600  0.99997100  1
  Si  Si1  1  0.82409300  0.00009200  0.49999900  1
  Si  Si2  1  0.92590900  0.49997200  0.75003200  1
  Si  Si3  1  0.42594600  0.50000500  0.24996900  1
  O  O0  1  0.30480000  0.21589600  0.89346000  1
  O  O1  1  0.80489200  0.21607500  0.39354600  1
  O  O2  1  0.58886300  0.78414600  0.60653700  1
  O  O3  1  0.08886800  0.78393700  0.10636400  1
  O  O4  1  0.16117500  0.71589800  0.64063500  1
  O  O5  1  0.66108700  0.71600800  0.14029100  1
  O  O6  1  0.94529400  0.28407900  0.85943400  1
  O  O7  1  0.44508900  0.28398200  0.35958100  1
  O  O8  1  0.46313400  0.00098600  0.17036700  1
  O  O9  1  0.96306900  0.00102700  0.67051600  1
  O  O10  1  0.96218500  0.99907600  0.32962700  1
  O  O11  1  0.46213700  0.99901200  0.82949000  1
  O  O12  1  0.78687900  0.49908100  0.92139000  1
  O  O13  1  0.28694900  0.49903400  0.42143100  1
  O  O14  1  0.78775800  0.50086100  0.57869900  1
  O  O15  1  0.28781800  0.50090500  0.07858100  1
loop_
_geom_bond_atom_site_label_1
_geom_bond_atom_site_label_2
_geom_bond_distance
_geom_bond_site_symmetry_2
Li0 O0 2.002954 1_555
Li0 O2 2.003518 1_555
Li0 O14 2.072329 1_555
Li0 O12 2.072427 1_555
Li1 O1 2.002064 1_455
Li1 O3 2.002098 1_555
Li1 O15 2.072679 1_555
Li1 O13 2.072981 1_555
Li2 O5 2.002283 1_546
Li2 O6 2.003133 1_555
Li2 O8 2.072633 1_556
Li2 O11 2.072778 1_545
Li3 O7 2.002107 1_555
Li3 O4 2.003325 1_545
Li3 O10 2.072474 1_445
Li3 O9 2.073342 1_455
Li4 O9 1.937971 1_565
Li4 O12 1.938073 1_555
Li4 O5 2.037338 1_556
Li4 O3 2.037356 1_656
Li5 O13 1.938284 1_555
Li5 O8 1.938975 1_565
Li5 O4 2.037790 1_555
Li5 O2 2.038151 1_555
Li6 O11 1.937780 1_545
Li6 O14 1.938176 1_555
Li6 O1 2.037459 1_555
Li6 O7 2.037887 1_555
Li7 O15 1.937703 1_555
Li7 O10 1.938845 1_445
Li7 O6 2.037335 1_454
Li7 O0 2.038372 1_554
Co0 O12 1.965311 1_554
Co0 O8 1.965391 1_555
Co0 O1 2.009968 1_555
Co0 O7 2.010071 1_555
Co1 O10 1.965735 1_555
Co1 O14 1.965836 1_555
Co1 O3 2.010702 1_655
Co1 O5 2.010923 1_555
Co2 O9 1.964083 1_455
Co2 O13 1.964832 1_555
Co2 O6 2.009363 1_455
Co2 O0 2.009396 1_555
Co3 O11 1.964091 1_555
Co3 O15 1.964673 1_556
Co3 O2 2.009396 1_555
Co3 O4 2.009469 1_555
O0 Si0 1.652480 1_545
O1 Si1 1.652482 1_555
O2 Si1 1.652545 1_565
O3 Si0 1.652380 1_554
O4 Si2 1.652633 1_455
O5 Si3 1.652364 1_555
O6 Si2 1.652590 1_555
O7 Si3 1.652535 1_555
O8 Si0 1.656878 1_544
O9 Si1 1.656903 1_555
O10 Si1 1.656686 1_565
O11 Si0 1.656897 1_555
O12 Si2 1.656809 1_555
O13 Si3 1.656865 1_555
O14 Si2 1.656718 1_555
O15 Si3 1.656937 1_555
