# generated using pymatgen
data_Li3(FeO3)2
_symmetry_space_group_name_H-M   'P 1'
_cell_length_a   4.94352800
_cell_length_b   4.96100900
_cell_length_c   8.37632700
_cell_angle_alpha   90.00000000
_cell_angle_beta   90.00000000
_cell_angle_gamma   90.00000000
_symmetry_Int_Tables_number   1
_chemical_formula_structural   Li3(FeO3)2
_chemical_formula_sum   'Li6 Fe4 O12'
_cell_volume   205.42847231
_cell_formula_units_Z   2
loop_
 _symmetry_equiv_pos_site_id
 _symmetry_equiv_pos_as_xyz
  1  'x, y, z'
loop_
 _atom_site_type_symbol
 _atom_site_label
 _atom_site_symmetry_multiplicity
 _atom_site_fract_x
 _atom_site_fract_y
 _atom_site_fract_z
 _atom_site_occupancy
  Li  Li0  1  0.00000000  0.00000000  0.77394200  1
  Li  Li1  1  0.00000000  0.00000000  0.06934800  1
  Li  Li2  1  0.00000000  0.50000000  0.72077200  1
  Li  Li3  1  0.50000000  0.00000000  0.22077200  1
  Li  Li4  1  0.50000000  0.50000000  0.27394200  1
  Li  Li5  1  0.50000000  0.50000000  0.56934800  1
  Fe  Fe0  1  0.00000000  0.50000000  0.10147800  1
  Fe  Fe1  1  0.50000000  0.00000000  0.60147800  1
  Fe  Fe2  1  0.00000000  0.00000000  0.41325200  1
  Fe  Fe3  1  0.50000000  0.50000000  0.91325200  1
  O  O0  1  0.14926800  0.75790000  0.24751400  1
  O  O1  1  0.17105800  0.70515000  0.92721600  1
  O  O2  1  0.18539900  0.79302900  0.58671300  1
  O  O3  1  0.31460100  0.29302900  0.08671300  1
  O  O4  1  0.32894200  0.20515000  0.42721600  1
  O  O5  1  0.35073200  0.25790000  0.74751400  1
  O  O6  1  0.64926800  0.74210000  0.74751400  1
  O  O7  1  0.67105800  0.79485000  0.42721600  1
  O  O8  1  0.68539900  0.70697100  0.08671300  1
  O  O9  1  0.81460100  0.20697100  0.58671300  1
  O  O10  1  0.82894200  0.29485000  0.92721600  1
  O  O11  1  0.85073200  0.24210000  0.24751400  1
loop_
_geom_bond_atom_site_label_1
_geom_bond_atom_site_label_2
_geom_bond_distance
_geom_bond_site_symmetry_2
Li0 O2 2.086587 1_545
Li0 O9 2.086587 1_455
Li0 O1 2.122043 1_545
Li0 O10 2.122043 1_455
Li0 O5 2.166156 1_555
Li0 O6 2.166156 1_445
Li1 O0 2.052863 1_545
Li1 O11 2.052863 1_455
Li1 O1 2.066914 1_544
Li1 O10 2.066914 1_454
Li1 O3 2.133829 1_555
Li1 O8 2.133829 1_445
Li2 O2 2.052869 1_555
Li2 O9 2.052869 1_455
Li2 O5 2.121077 1_555
Li2 O6 2.121077 1_455
Li2 O10 2.177427 1_455
Li2 O1 2.177427 1_555
Li3 O8 2.052869 1_545
Li3 O3 2.052869 1_555
Li3 O11 2.121077 1_555
Li3 O0 2.121077 1_545
Li3 O7 2.177427 1_545
Li3 O4 2.177427 1_555
Li4 O8 2.086587 1_555
Li4 O3 2.086587 1_555
Li4 O7 2.122043 1_555
Li4 O4 2.122043 1_555
Li4 O11 2.166156 1_555
Li4 O0 2.166156 1_555
Li5 O5 2.052863 1_555
Li5 O6 2.052863 1_555
Li5 O7 2.066914 1_555
Li5 O4 2.066914 1_555
Li5 O9 2.133829 1_555
Li5 O2 2.133829 1_555
Fe0 O3 1.867713 1_555
Fe0 O8 1.867713 1_455
Fe0 O0 1.917764 1_555
Fe0 O11 1.917764 1_455
Fe0 O1 1.970167 1_554
Fe0 O10 1.970167 1_454
Fe1 O9 1.867713 1_555
Fe1 O2 1.867713 1_545
Fe1 O6 1.917764 1_545
Fe1 O5 1.917764 1_555
Fe1 O7 1.970167 1_545
Fe1 O4 1.970167 1_555
Fe2 O4 1.921929 1_555
Fe2 O7 1.921929 1_445
Fe2 O0 1.978476 1_545
Fe2 O11 1.978476 1_455
Fe2 O2 2.001354 1_545
Fe2 O9 2.001354 1_455
Fe3 O10 1.921929 1_555
Fe3 O1 1.921929 1_555
Fe3 O6 1.978476 1_555
Fe3 O5 1.978476 1_555
Fe3 O8 2.001354 1_556
Fe3 O3 2.001354 1_556
