# generated using pymatgen
data_Na14Ni2O9
_symmetry_space_group_name_H-M   'P 1'
_cell_length_a   6.63414174
_cell_length_b   6.65436703
_cell_length_c   18.75516475
_cell_angle_alpha   90.05437776
_cell_angle_beta   89.97004903
_cell_angle_gamma   119.85294906
_symmetry_Int_Tables_number   1
_chemical_formula_structural   Na14Ni2O9
_chemical_formula_sum   'Na28 Ni4 O18'
_cell_volume   718.09919670
_cell_formula_units_Z   2
loop_
 _symmetry_equiv_pos_site_id
 _symmetry_equiv_pos_as_xyz
  1  'x, y, z'
loop_
 _atom_site_type_symbol
 _atom_site_label
 _atom_site_symmetry_multiplicity
 _atom_site_fract_x
 _atom_site_fract_y
 _atom_site_fract_z
 _atom_site_occupancy
  Na  Na0  1  0.00003000  0.99944400  0.12562800  1
  Na  Na1  1  0.99988000  0.99927800  0.62509400  1
  Na  Na2  1  0.00015400  0.00075100  0.37490800  1
  Na  Na3  1  0.99999700  0.00057600  0.87436100  1
  Na  Na4  1  0.03562300  0.67596500  0.45417600  1
  Na  Na5  1  0.03570000  0.67580900  0.95381900  1
  Na  Na6  1  0.32647700  0.36067600  0.45379800  1
  Na  Na7  1  0.32448100  0.36059600  0.95375200  1
  Na  Na8  1  0.63824900  0.96388300  0.45428000  1
  Na  Na9  1  0.63915800  0.96357400  0.95403300  1
  Na  Na10  1  0.36081400  0.03652000  0.04593300  1
  Na  Na11  1  0.36166600  0.03605900  0.54570800  1
  Na  Na12  1  0.67558800  0.63940100  0.04622900  1
  Na  Na13  1  0.67354800  0.63936000  0.54616800  1
  Na  Na14  1  0.96415700  0.32412000  0.04614900  1
  Na  Na15  1  0.96432000  0.32400700  0.54579100  1
  Na  Na16  1  0.31121300  0.93573000  0.29645500  1
  Na  Na17  1  0.31165300  0.93590900  0.79596900  1
  Na  Na18  1  0.06742100  0.37773000  0.29639700  1
  Na  Na19  1  0.06491800  0.37615600  0.79614200  1
  Na  Na20  1  0.37814300  0.31198300  0.20340400  1
  Na  Na21  1  0.37879300  0.31243700  0.70292900  1
  Na  Na22  1  0.62126600  0.68756100  0.29710800  1
  Na  Na23  1  0.62190500  0.68805100  0.79663800  1
  Na  Na24  1  0.93510200  0.62382400  0.20389500  1
  Na  Na25  1  0.93257700  0.62228800  0.70363600  1
  Na  Na26  1  0.68833000  0.06409100  0.20405500  1
  Na  Na27  1  0.68876400  0.06430100  0.70355400  1
  Ni  Ni0  1  0.33195100  0.66721800  0.63178300  1
  Ni  Ni1  1  0.66797100  0.33267900  0.36825200  1
  Ni  Ni2  1  0.33376400  0.66717700  0.13035200  1
  Ni  Ni3  1  0.66638000  0.33287200  0.86961300  1
  O  O0  1  0.99997100  0.00000000  0.49999100  1
  O  O1  1  0.99996300  0.99999700  0.99996400  1
  O  O2  1  0.33246700  0.66637700  0.02016400  1
  O  O3  1  0.33305500  0.66693600  0.52270700  1
  O  O4  1  0.66675100  0.33292500  0.47729500  1
  O  O5  1  0.66737100  0.33360600  0.97981400  1
  O  O6  1  0.30452700  0.94035500  0.16826400  1
  O  O7  1  0.30900100  0.94575000  0.66749100  1
  O  O8  1  0.06051600  0.36498500  0.16877200  1
  O  O9  1  0.05643400  0.35873100  0.66828600  1
  O  O10  1  0.36317700  0.30334400  0.33176900  1
  O  O11  1  0.36418600  0.30399900  0.83105600  1
  O  O12  1  0.63583100  0.69596900  0.16898800  1
  O  O13  1  0.63689500  0.69676400  0.66823100  1
  O  O14  1  0.94346800  0.64130000  0.33173800  1
  O  O15  1  0.93944100  0.63504100  0.83120300  1
  O  O16  1  0.69098300  0.05419100  0.33254800  1
  O  O17  1  0.69556400  0.05970900  0.83171400  1
loop_
_geom_bond_atom_site_label_1
_geom_bond_atom_site_label_2
_geom_bond_distance
_geom_bond_site_symmetry_2
Na0 O1 2.356856 1_454
Na0 O6 2.380713 1_555
Na0 O12 2.391806 1_455
Na0 O8 2.399466 1_565
Na1 O0 2.346336 1_565
Na1 O9 2.370977 1_665
Na1 O13 2.383448 1_555
Na1 O7 2.386253 1_655
Na2 O0 2.345961 1_455
Na2 O14 2.370523 1_445
Na2 O10 2.383789 1_555
Na2 O16 2.385994 1_455
Na3 O1 2.355711 1_545
Na3 O17 2.380559 1_555
Na3 O11 2.391298 1_655
Na3 O15 2.399361 1_545
Na4 O14 2.358017 1_455
Na4 O3 2.381176 1_555
Na4 O4 2.413879 1_455
Na4 O0 2.438788 1_465
Na5 O2 2.356720 1_556
Na5 O15 2.365972 1_455
Na5 O5 2.419775 1_455
Na5 O1 2.442221 1_455
Na6 O10 2.352252 1_555
Na6 O3 2.394165 1_555
Na6 O4 2.395932 1_555
Na6 O0 2.455442 1_455
Na7 O2 2.362733 1_556
Na7 O11 2.367098 1_555
Na7 O5 2.419478 1_555
Na7 O1 2.450105 1_445
Na8 O16 2.342766 1_565
Na8 O3 2.381192 1_555
Na8 O4 2.405937 1_565
Na8 O0 2.445194 1_565
Na9 O17 2.361311 1_565
Na9 O2 2.363326 1_556
Na9 O5 2.422995 1_565
Na9 O1 2.440183 1_555
Na10 O6 2.361550 1_545
Na10 O5 2.362511 1_554
Na10 O2 2.423292 1_545
Na10 O1 2.440460 1_444
Na11 O7 2.343690 1_545
Na11 O4 2.380515 1_555
Na11 O3 2.406108 1_545
Na11 O0 2.445217 1_455
Na12 O5 2.362220 1_554
Na12 O12 2.368271 1_555
Na12 O2 2.420936 1_555
Na12 O1 2.450076 1_554
Na13 O13 2.352917 1_555
Na13 O4 2.394193 1_555
Na13 O3 2.396596 1_555
Na13 O0 2.454990 1_565
Na14 O5 2.356887 1_554
Na14 O8 2.366228 1_655
Na14 O2 2.419826 1_655
Na14 O1 2.442329 1_544
Na15 O9 2.358988 1_655
Na15 O4 2.381263 1_555
Na15 O3 2.412941 1_655
Na15 O0 2.438512 1_555
Na16 O16 2.334697 1_565
Na16 O14 2.338945 1_455
Na16 O10 2.387300 1_565
Na16 O6 2.405184 1_555
Na17 O17 2.350914 1_565
Na17 O15 2.370979 1_455
Na17 O11 2.387766 1_565
Na17 O7 2.410889 1_555
Na18 O10 2.346017 1_555
Na18 O14 2.371657 1_455
Na18 O8 2.394704 1_555
Na18 O16 2.445380 1_455
Na19 O15 2.349051 1_455
Na19 O11 2.356293 1_555
Na19 O17 2.397412 1_455
Na19 O9 2.399988 1_555
Na20 O12 2.349756 1_555
Na20 O6 2.362885 1_545
Na20 O8 2.393377 1_555
Na20 O10 2.409062 1_555
Na21 O7 2.341488 1_545
Na21 O13 2.353374 1_555
Na21 O9 2.397554 1_555
Na21 O11 2.404528 1_555
Na22 O16 2.341300 1_565
Na22 O10 2.352635 1_555
Na22 O14 2.396366 1_555
Na22 O12 2.404388 1_555
Na23 O11 2.350123 1_555
Na23 O17 2.362650 1_565
Na23 O15 2.392490 1_555
Na23 O13 2.409856 1_555
Na24 O8 2.348797 1_655
Na24 O12 2.356225 1_555
Na24 O6 2.398203 1_655
Na24 O14 2.399757 1_555
Na25 O13 2.346106 1_555
Na25 O9 2.371170 1_655
Na25 O15 2.393618 1_555
Na25 O7 2.445104 1_655
Na26 O6 2.350590 1_545
Na26 O8 2.371185 1_655
Na26 O12 2.387948 1_545
Na26 O16 2.411183 1_555
Na27 O7 2.334372 1_545
Na27 O9 2.338554 1_655
Na27 O13 2.387089 1_545
Na27 O17 2.404617 1_555
Ni0 O3 2.045750 1_555
Ni0 O7 2.045840 1_555
Ni0 O13 2.050331 1_555
Ni0 O9 2.071107 1_555
Ni1 O4 2.045134 1_555
Ni1 O16 2.045755 1_555
Ni1 O10 2.050171 1_555
Ni1 O14 2.071617 1_555
Ni2 O6 2.048445 1_555
Ni2 O12 2.048571 1_555
Ni2 O8 2.054597 1_555
Ni2 O2 2.066607 1_555
Ni3 O17 2.048078 1_555
Ni3 O11 2.048620 1_555
Ni3 O15 2.053959 1_555
Ni3 O5 2.066845 1_555
