# generated using pymatgen
data_LiVPCO7
_symmetry_space_group_name_H-M   'P 1'
_cell_length_a   8.36947676
_cell_length_b   8.25374996
_cell_length_c   8.25457476
_cell_angle_alpha   78.35746435
_cell_angle_beta   93.67980604
_cell_angle_gamma   86.28162531
_symmetry_Int_Tables_number   1
_chemical_formula_structural   LiVPCO7
_chemical_formula_sum   'Li4 V4 P4 C4 O28'
_cell_volume   555.57047006
_cell_formula_units_Z   4
loop_
 _symmetry_equiv_pos_site_id
 _symmetry_equiv_pos_as_xyz
  1  'x, y, z'
loop_
 _atom_site_type_symbol
 _atom_site_label
 _atom_site_symmetry_multiplicity
 _atom_site_fract_x
 _atom_site_fract_y
 _atom_site_fract_z
 _atom_site_occupancy
  Li  Li0  1  0.09987100  0.53014100  0.71987900  1
  Li  Li1  1  0.09989000  0.03008900  0.21984300  1
  Li  Li2  1  0.90011800  0.46992600  0.28005800  1
  Li  Li3  1  0.90015100  0.96983400  0.78013600  1
  V  V0  1  0.32287500  0.26941900  0.48067200  1
  V  V1  1  0.67708700  0.73068500  0.51939600  1
  V  V2  1  0.32309000  0.76940100  0.98073500  1
  V  V3  1  0.67703100  0.23058300  0.01932400  1
  P  P0  1  0.42307900  0.49875100  0.75138000  1
  P  P1  1  0.42310300  0.99877300  0.25141600  1
  P  P2  1  0.57691600  0.50120200  0.24867800  1
  P  P3  1  0.57690700  0.00124900  0.74860600  1
  C  C0  1  0.05111200  0.70074700  0.04930700  1
  C  C1  1  0.05104500  0.20067000  0.54930600  1
  C  C2  1  0.94890400  0.29925500  0.95064800  1
  C  C3  1  0.94892400  0.79928500  0.45065400  1
  O  O0  1  0.07704500  0.82499400  0.92528900  1
  O  O1  1  0.07690300  0.32494300  0.42532200  1
  O  O2  1  0.92304600  0.17503800  0.07469100  1
  O  O3  1  0.92304100  0.67504600  0.57468200  1
  O  O4  1  0.08137300  0.34230600  0.90763500  1
  O  O5  1  0.08138300  0.84231300  0.40766100  1
  O  O6  1  0.91861400  0.65780600  0.09221400  1
  O  O7  1  0.91858400  0.15764900  0.59231400  1
  O  O8  1  0.19038700  0.62686400  0.12307800  1
  O  O9  1  0.19035100  0.12681900  0.62306400  1
  O  O10  1  0.80960700  0.37314100  0.87692300  1
  O  O11  1  0.80961400  0.87314700  0.37689600  1
  O  O12  1  0.43820100  0.41355200  0.33645100  1
  O  O13  1  0.43822800  0.91361700  0.83644300  1
  O  O14  1  0.56179900  0.58640800  0.66355600  1
  O  O15  1  0.56178300  0.08637100  0.16356000  1
  O  O16  1  0.49625800  0.35789100  0.89265100  1
  O  O17  1  0.49620600  0.85795300  0.39276500  1
  O  O18  1  0.50374400  0.64204100  0.10738700  1
  O  O19  1  0.50371400  0.14207500  0.60733700  1
  O  O20  1  0.30960700  0.43367000  0.62744900  1
  O  O21  1  0.30970100  0.93369900  0.12743600  1
  O  O22  1  0.30929600  0.62281200  0.81607000  1
  O  O23  1  0.30925700  0.12281300  0.31606700  1
  O  O24  1  0.69070700  0.37717800  0.18395400  1
  O  O25  1  0.69072700  0.87718600  0.68393800  1
  O  O26  1  0.69035100  0.56634900  0.37258300  1
  O  O27  1  0.69036900  0.06630700  0.87254500  1
loop_
_geom_bond_atom_site_label_1
_geom_bond_atom_site_label_2
_geom_bond_distance
_geom_bond_site_symmetry_2
Li0 O4 1.980327 1_555
Li0 O3 2.005349 1_455
Li0 O22 2.127935 1_555
Li0 O20 2.129159 1_555
Li1 O5 1.980356 1_545
Li1 O2 2.005423 1_455
Li1 O23 2.127856 1_555
Li1 O21 2.129321 1_545
Li2 O6 1.981015 1_555
Li2 O1 2.005614 1_655
Li2 O24 2.127867 1_555
Li2 O26 2.129599 1_555
Li3 O7 1.980469 1_565
Li3 O0 2.005318 1_655
Li3 O25 2.127858 1_555
Li3 O27 2.129398 1_565
C0 O6 1.237552 1_455
C0 O8 1.329759 1_555
C0 O0 1.334328 1_554
C1 O7 1.237691 1_455
C1 O9 1.329856 1_555
C1 O1 1.334123 1_555
C2 O4 1.237836 1_655
C2 O10 1.329800 1_555
C2 O2 1.334138 1_556
C3 O5 1.237656 1_655
C3 O11 1.329912 1_555
C3 O3 1.334229 1_555
O0 V2 2.081419 1_555
O1 V0 2.080679 1_555
O2 V3 2.081060 1_555
O3 V1 2.080582 1_555
O8 V2 1.943521 1_554
O9 V0 1.943029 1_555
O10 V3 1.943169 1_556
O11 V1 1.942916 1_555
O12 P2 1.549684 1_555
O12 V0 1.867875 1_555
O13 P3 1.549601 1_565
O13 V2 1.867622 1_555
O14 P0 1.549920 1_555
O14 V1 1.868056 1_555
O15 P1 1.549555 1_545
O15 V3 1.867904 1_555
O16 P0 1.534743 1_555
O16 V3 1.906261 1_556
O17 P1 1.534735 1_555
O17 V1 1.906652 1_555
O18 P2 1.534721 1_555
O18 V2 1.905641 1_554
O19 P3 1.534606 1_555
O19 V0 1.906750 1_555
O20 P0 1.549274 1_555
O20 V0 1.994701 1_555
O21 P1 1.549176 1_555
O21 V2 1.994593 1_554
O22 P0 1.549201 1_555
O22 V2 1.996616 1_555
O23 P1 1.549228 1_545
O23 V0 1.996247 1_555
O24 P2 1.549175 1_555
O24 V3 1.996369 1_555
O25 P3 1.549302 1_565
O25 V1 1.995193 1_555
O26 P2 1.549225 1_555
O26 V1 1.995482 1_555
O27 P3 1.549171 1_555
O27 V3 1.994908 1_556
