# generated using pymatgen
data_Li3V2S2(O4F3)2
_symmetry_space_group_name_H-M   'P 1'
_cell_length_a   7.15436000
_cell_length_b   7.82977637
_cell_length_c   10.36942710
_cell_angle_alpha   91.62220561
_cell_angle_beta   90.72405802
_cell_angle_gamma   90.54742184
_symmetry_Int_Tables_number   1
_chemical_formula_structural   Li3V2S2(O4F3)2
_chemical_formula_sum   'Li6 V4 S4 O16 F12'
_cell_volume   580.55689055
_cell_formula_units_Z   2
loop_
 _symmetry_equiv_pos_site_id
 _symmetry_equiv_pos_as_xyz
  1  'x, y, z'
loop_
 _atom_site_type_symbol
 _atom_site_label
 _atom_site_symmetry_multiplicity
 _atom_site_fract_x
 _atom_site_fract_y
 _atom_site_fract_z
 _atom_site_occupancy
  Li  Li0  1  0.27961400  0.11549000  0.29039400  1
  Li  Li1  1  0.25013500  0.60682000  0.78349700  1
  Li  Li2  1  0.70557100  0.42012300  0.22711600  1
  Li  Li3  1  0.71203800  0.91766600  0.25070000  1
  Li  Li4  1  0.78278400  0.42587700  0.74837300  1
  Li  Li5  1  0.77597800  0.92115100  0.73211300  1
  V  V0  1  0.99822900  0.49229800  0.49383800  1
  V  V1  1  0.99963700  0.00099400  0.99837300  1
  V  V2  1  0.49947100  0.50037600  0.49747900  1
  V  V3  1  0.49967400  0.99224700  0.99367300  1
  S  S0  1  0.27604300  0.33105000  0.01097100  1
  S  S1  1  0.23351700  0.83120300  0.50925000  1
  S  S2  1  0.74189500  0.15695300  0.50146300  1
  S  S3  1  0.75072700  0.65725100  0.00065400  1
  O  O0  1  0.11490100  0.21433200  0.05978400  1
  O  O1  1  0.09371400  0.71509600  0.43817000  1
  O  O2  1  0.19558400  0.45201500  0.92226500  1
  O  O3  1  0.15000900  0.91406000  0.62038100  1
  O  O4  1  0.36971700  0.40299600  0.12455100  1
  O  O5  1  0.31986800  0.94211200  0.41593500  1
  O  O6  1  0.40572000  0.21331500  0.93626200  1
  O  O7  1  0.38843100  0.71057800  0.56243300  1
  O  O8  1  0.59546900  0.27374000  0.43871400  1
  O  O9  1  0.61025200  0.77410000  0.06696900  1
  O  O10  1  0.65640500  0.05674500  0.60166000  1
  O  O11  1  0.66604300  0.55700600  0.89418800  1
  O  O12  1  0.82181000  0.05543300  0.39638300  1
  O  O13  1  0.83695200  0.55510700  0.09989300  1
  O  O14  1  0.88539000  0.27507300  0.56760000  1
  O  O15  1  0.89663800  0.77495200  0.93896400  1
  F  F0  1  0.97051900  0.06394500  0.83063600  1
  F  F1  1  0.03406700  0.54530800  0.68010800  1
  F  F2  1  0.25859300  0.39253000  0.47334300  1
  F  F3  1  0.23687000  0.89249100  0.98069700  1
  F  F4  1  0.47903300  0.04763400  0.18006400  1
  F  F5  1  0.53241200  0.57116400  0.33252900  1
  F  F6  1  0.52095600  0.43050500  0.66660100  1
  F  F7  1  0.54994600  0.90449200  0.82617600  1
  F  F8  1  0.75559800  0.10371400  0.01760300  1
  F  F9  1  0.74632600  0.60330200  0.52542800  1
  F  F10  1  0.93596400  0.40693600  0.32638900  1
  F  F11  1  0.97355500  0.93404400  0.16670800  1
loop_
_geom_bond_atom_site_label_1
_geom_bond_atom_site_label_2
_geom_bond_distance
_geom_bond_site_symmetry_2
Li0 O5 1.928336 1_545
Li1 O2 1.948317 1_555
Li2 O13 1.957598 1_555
Li3 O12 1.980899 1_565
Li3 O9 2.291647 1_555
Li4 O11 1.999578 1_555
Li4 O14 2.317950 1_555
Li5 O10 1.938620 1_565
O0 S0 1.562460 1_555
O0 V1 1.943173 1_454
O1 S1 1.515309 1_555
O1 V0 1.971605 1_455
O2 S0 1.456316 1_556
O3 S1 1.445076 1_555
O4 S0 1.445289 1_555
O5 S1 1.457564 1_555
O6 S0 1.518136 1_556
O6 V3 1.967931 1_545
O7 S1 1.567973 1_555
O7 V2 1.941461 1_555
O8 S2 1.546521 1_555
O8 V2 1.991117 1_555
O9 S3 1.522946 1_555
O9 V3 2.050622 1_554
O10 S2 1.456788 1_555
O11 S3 1.458380 1_556
O12 S2 1.456496 1_555
O13 S3 1.455712 1_555
O14 S2 1.519134 1_555
O14 V0 2.047576 1_555
O15 S3 1.542757 1_556
O15 V1 1.989167 1_565
F0 V1 1.831113 1_555
F0 Li5 2.024983 1_545
F1 Li1 1.919783 1_555
F1 V0 1.977072 1_455
F1 Li4 2.155230 1_455
F2 V2 1.922200 1_555
F2 V0 2.038033 1_455
F3 V1 1.913791 1_465
F3 V3 2.030492 1_555
F4 Li0 1.909970 1_555
F4 V3 1.976474 1_544
F4 Li3 2.096352 1_545
F5 V2 1.830219 1_555
F5 Li2 2.029076 1_555
F6 V2 1.856741 1_555
F6 Li4 2.047465 1_555
F7 V3 1.889722 1_555
F7 Li5 1.904330 1_555
F8 V1 1.939455 1_554
F8 V3 2.030140 1_544
F9 V2 1.949144 1_555
F9 V0 2.034545 1_555
F10 V0 1.889212 1_555
F10 Li2 1.937436 1_555
F11 V1 1.847885 1_564
F11 Li3 2.078103 1_555
