# generated using pymatgen
data_MnF3
_symmetry_space_group_name_H-M   'P 1'
_cell_length_a   5.24184132
_cell_length_b   5.24184132
_cell_length_c   4.77170269
_cell_angle_alpha   89.55632073
_cell_angle_beta   89.55632073
_cell_angle_gamma   115.58870689
_symmetry_Int_Tables_number   1
_chemical_formula_structural   MnF3
_chemical_formula_sum   'Mn2 F6'
_cell_volume   118.23938639
_cell_formula_units_Z   2
loop_
 _symmetry_equiv_pos_site_id
 _symmetry_equiv_pos_as_xyz
  1  'x, y, z'
loop_
 _atom_site_type_symbol
 _atom_site_label
 _atom_site_symmetry_multiplicity
 _atom_site_fract_x
 _atom_site_fract_y
 _atom_site_fract_z
 _atom_site_occupancy
  Mn  Mn0  1  0.33014200  0.66985800  0.50000000  1
  Mn  Mn1  1  0.66985800  0.33014200  0.50000000  1
  F  F0  1  0.35044000  0.97748600  0.28445400  1
  F  F1  1  0.97748600  0.35044000  0.28445400  1
  F  F2  1  0.62033000  0.62033000  0.28180900  1
  F  F3  1  0.37967000  0.37967000  0.71819100  1
  F  F4  1  0.02251400  0.64956000  0.71554600  1
  F  F5  1  0.64956000  0.02251400  0.71554600  1
loop_
_geom_bond_atom_site_label_1
_geom_bond_atom_site_label_2
_geom_bond_distance
_geom_bond_site_symmetry_2
F0 Mn0 1.869188 1_555
F0 Mn1 2.158926 1_565
F1 Mn1 1.869188 1_555
F1 Mn0 2.158926 1_655
F2 Mn1 1.945758 1_555
F2 Mn0 1.945758 1_555
F3 Mn1 1.945758 1_555
F3 Mn0 1.945758 1_555
F4 Mn0 1.869188 1_555
F4 Mn1 2.158926 1_455
F5 Mn1 1.869188 1_555
F5 Mn0 2.158926 1_545
