# generated using pymatgen
data_Li3(CoO2)5
_symmetry_space_group_name_H-M   'P 1'
_cell_length_a   2.83398600
_cell_length_b   9.95666382
_cell_length_c   12.27620208
_cell_angle_alpha   91.01981036
_cell_angle_beta   96.20678426
_cell_angle_gamma   90.59552830
_symmetry_Int_Tables_number   1
_chemical_formula_structural   Li3(CoO2)5
_chemical_formula_sum   'Li6 Co10 O20'
_cell_volume   344.28664223
_cell_formula_units_Z   2
loop_
 _symmetry_equiv_pos_site_id
 _symmetry_equiv_pos_as_xyz
  1  'x, y, z'
loop_
 _atom_site_type_symbol
 _atom_site_label
 _atom_site_symmetry_multiplicity
 _atom_site_fract_x
 _atom_site_fract_y
 _atom_site_fract_z
 _atom_site_occupancy
  Li  Li0  1  0.66462700  0.25111500  0.81970800  1
  Li  Li1  1  0.45426000  0.75446900  0.90306500  1
  Li  Li2  1  0.82077300  0.75088500  0.67944600  1
  Li  Li3  1  0.20426400  0.75406300  0.46452300  1
  Li  Li4  1  0.87175000  0.25117000  0.22912400  1
  Li  Li5  1  0.57350700  0.74964900  0.24528400  1
  Co  Co0  1  0.70602500  0.49717500  0.90234800  1
  Co  Co1  1  0.39242700  0.99308400  0.79733000  1
  Co  Co2  1  0.79094500  0.99958200  0.59755600  1
  Co  Co3  1  0.10640700  0.50247100  0.70284200  1
  Co  Co4  1  0.50889400  0.49997000  0.50435100  1
  Co  Co5  1  0.91175100  0.50262300  0.30489600  1
  Co  Co6  1  0.19113500  0.00591700  0.39605900  1
  Co  Co7  1  0.58933100  0.99678000  0.19763700  1
  Co  Co8  1  0.30806600  0.49987500  0.10161800  1
  Co  Co9  1  0.99404300  0.00224900  0.99777200  1
  O  O0  1  0.23961500  0.59623300  0.97070600  1
  O  O1  1  0.92628900  0.89172400  0.86804700  1
  O  O2  1  0.46767900  0.09649100  0.93043400  1
  O  O3  1  0.86514700  0.09316100  0.73494800  1
  O  O4  1  0.63880900  0.60499500  0.77365700  1
  O  O5  1  0.16943400  0.39678400  0.83186900  1
  O  O6  1  0.31837700  0.89127500  0.66145000  1
  O  O7  1  0.56773300  0.40922500  0.63230700  1
  O  O8  1  0.26126700  0.08794200  0.52985500  1
  O  O9  1  0.71833900  0.89922200  0.45980000  1
  O  O10  1  0.03845600  0.60923400  0.56881600  1
  O  O11  1  0.97271300  0.40784100  0.43692500  1
  O  O12  1  0.66509300  0.10089400  0.33053700  1
  O  O13  1  0.44531600  0.60808600  0.37042200  1
  O  O14  1  0.84787100  0.59964900  0.17116900  1
  O  O15  1  0.37397800  0.39935300  0.23503700  1
  O  O16  1  0.11556800  0.89409300  0.26599300  1
  O  O17  1  0.76997400  0.40317200  0.03631200  1
  O  O18  1  0.52110000  0.90239300  0.06047300  1
  O  O19  1  0.06340100  0.09715200  0.13420700  1
loop_
_geom_bond_atom_site_label_1
_geom_bond_atom_site_label_2
_geom_bond_distance
_geom_bond_site_symmetry_2
Li0 O3 1.991781 1_555
Li0 O5 2.018792 1_655
Li0 O5 2.043339 1_555
Li0 O2 2.179467 1_555
Li1 O0 1.917715 1_555
Li1 O1 1.987252 1_555
Li1 O1 2.053177 1_455
Li1 O4 2.263608 1_555
Li1 O18 2.398523 1_556
Li2 O4 1.971477 1_555
Li2 O6 2.003548 1_555
Li2 O6 2.007175 1_655
Li2 O10 2.084533 1_655
Li3 O9 2.003936 1_455
Li3 O13 2.011265 1_555
Li3 O10 2.030063 1_555
Li3 O9 2.047494 1_555
Li4 O19 2.023594 1_655
Li4 O15 2.034231 1_655
Li4 O15 2.057598 1_555
Li4 O12 2.082656 1_555
Li5 O14 1.947226 1_555
Li5 O16 1.978481 1_555
Li5 O16 2.085544 1_655
Li5 O13 2.160032 1_555
Co0 O17 1.899299 1_556
Co0 O0 1.904947 1_655
Co0 O0 1.913537 1_555
Co0 O4 1.919422 1_555
Co0 O5 1.927000 1_555
Co0 O5 1.927346 1_655
Co1 O3 1.896142 1_565
Co1 O3 1.903408 1_465
Co1 O2 1.906758 1_565
Co1 O6 1.927123 1_555
Co1 O1 1.941323 1_455
Co1 O1 1.959621 1_555
Co2 O8 1.866151 1_665
Co2 O8 1.871297 1_565
Co2 O3 1.902745 1_565
Co2 O9 1.939345 1_555
Co2 O6 1.949095 1_555
Co2 O6 1.955114 1_655
Co3 O7 1.887440 1_555
Co3 O7 1.896925 1_455
Co3 O5 1.910553 1_555
Co3 O4 1.930565 1_555
Co3 O4 1.949225 1_455
Co3 O10 1.967783 1_555
Co4 O7 1.818961 1_555
Co4 O11 1.867533 1_555
Co4 O11 1.872852 1_455
Co4 O10 1.934099 1_655
Co4 O10 1.953187 1_555
Co4 O13 1.974192 1_555
Co5 O11 1.882755 1_555
Co5 O14 1.912304 1_555
Co5 O13 1.926163 1_655
Co5 O13 1.930222 1_555
Co5 O15 1.936031 1_655
Co5 O15 1.941351 1_555
Co6 O8 1.811797 1_555
Co6 O12 1.887013 1_455
Co6 O12 1.892013 1_555
Co6 O16 1.921675 1_545
Co6 O9 1.939814 1_445
Co6 O9 1.944973 1_545
Co7 O18 1.904055 1_555
Co7 O19 1.906387 1_565
Co7 O19 1.906856 1_665
Co7 O12 1.908386 1_565
Co7 O16 1.940429 1_655
Co7 O16 1.948801 1_555
Co8 O17 1.873243 1_555
Co8 O0 1.879416 1_554
Co8 O17 1.890211 1_455
Co8 O14 1.911626 1_455
Co8 O14 1.926642 1_555
Co8 O15 1.927524 1_555
Co9 O2 1.891848 1_555
Co9 O18 1.897380 1_546
Co9 O19 1.898795 1_656
Co9 O2 1.899185 1_655
Co9 O18 1.903035 1_646
Co9 O1 1.910795 1_545
