# generated using pymatgen
data_Li12MnCo3P4(CO7)4
_symmetry_space_group_name_H-M   'P 1'
_cell_length_a   8.46067129
_cell_length_b   10.02954975
_cell_length_c   6.49318900
_cell_angle_alpha   90.00000000
_cell_angle_beta   90.00000000
_cell_angle_gamma   85.11513797
_symmetry_Int_Tables_number   1
_chemical_formula_structural   Li12MnCo3P4(CO7)4
_chemical_formula_sum   'Li12 Mn1 Co3 P4 C4 O28'
_cell_volume   548.98945148
_cell_formula_units_Z   1
loop_
 _symmetry_equiv_pos_site_id
 _symmetry_equiv_pos_as_xyz
  1  'x, y, z'
loop_
 _atom_site_type_symbol
 _atom_site_label
 _atom_site_symmetry_multiplicity
 _atom_site_fract_x
 _atom_site_fract_y
 _atom_site_fract_z
 _atom_site_occupancy
  Li  Li0  1  0.09928200  0.38265500  0.25000000  1
  Li  Li1  1  0.09382500  0.88214200  0.25000000  1
  Li  Li2  1  0.27758000  0.12589400  0.02325100  1
  Li  Li3  1  0.27758000  0.12589400  0.47674900  1
  Li  Li4  1  0.27525700  0.62355000  0.02174200  1
  Li  Li5  1  0.27525700  0.62355000  0.47825800  1
  Li  Li6  1  0.72240000  0.37374300  0.52318000  1
  Li  Li7  1  0.72240000  0.37374300  0.97682000  1
  Li  Li8  1  0.72388600  0.87764500  0.52349200  1
  Li  Li9  1  0.72388600  0.87764500  0.97650800  1
  Li  Li10  1  0.90183700  0.11671500  0.75000000  1
  Li  Li11  1  0.90121400  0.61624200  0.75000000  1
  Mn  Mn0  1  0.66075000  0.61149500  0.25000000  1
  Co  Co0  1  0.33198100  0.39458000  0.75000000  1
  Co  Co1  1  0.33113800  0.89551900  0.75000000  1
  Co  Co2  1  0.66845100  0.10478800  0.25000000  1
  P  P0  1  0.41409900  0.35864200  0.25000000  1
  P  P1  1  0.41014700  0.86371000  0.25000000  1
  P  P2  1  0.58658500  0.13896600  0.75000000  1
  P  P3  1  0.58710200  0.63802300  0.75000000  1
  C  C0  1  0.03779300  0.35065000  0.75000000  1
  C  C1  1  0.03716200  0.85083500  0.75000000  1
  C  C2  1  0.96173500  0.15004100  0.25000000  1
  C  C3  1  0.96780200  0.64906700  0.25000000  1
  O  O0  1  0.07246500  0.47389000  0.75000000  1
  O  O1  1  0.10754900  0.18093900  0.25000000  1
  O  O2  1  0.07165000  0.97388100  0.75000000  1
  O  O3  1  0.15505500  0.25692200  0.75000000  1
  O  O4  1  0.11452800  0.67961600  0.25000000  1
  O  O5  1  0.15476700  0.75710100  0.75000000  1
  O  O6  1  0.31022900  0.41089200  0.06329100  1
  O  O7  1  0.31022900  0.41089200  0.43670900  1
  O  O8  1  0.30833100  0.91638300  0.06279000  1
  O  O9  1  0.30833100  0.91638300  0.43721000  1
  O  O10  1  0.42024500  0.08611000  0.75000000  1
  O  O11  1  0.43314700  0.20235000  0.25000000  1
  O  O12  1  0.41995200  0.58532800  0.75000000  1
  O  O13  1  0.42557700  0.70768200  0.25000000  1
  O  O14  1  0.56681400  0.29484500  0.75000000  1
  O  O15  1  0.58047000  0.41009000  0.25000000  1
  O  O16  1  0.56586000  0.79449700  0.75000000  1
  O  O17  1  0.57977500  0.91146200  0.25000000  1
  O  O18  1  0.69075500  0.08708500  0.93663200  1
  O  O19  1  0.69075500  0.08708500  0.56336800  1
  O  O20  1  0.69099900  0.58541500  0.56573000  1
  O  O21  1  0.69099900  0.58541500  0.93427000  1
  O  O22  1  0.84502400  0.24388000  0.25000000  1
  O  O23  1  0.89229900  0.31856200  0.75000000  1
  O  O24  1  0.85440500  0.74570500  0.25000000  1
  O  O25  1  0.92597800  0.02685000  0.25000000  1
  O  O26  1  0.89170400  0.81870600  0.75000000  1
  O  O27  1  0.93295500  0.52629900  0.25000000  1
loop_
_geom_bond_atom_site_label_1
_geom_bond_atom_site_label_2
_geom_bond_distance
_geom_bond_site_symmetry_2
Li0 O27 1.926295 1_455
Li0 O1 2.018368 1_555
Li0 O6 2.195767 1_555
Li0 O7 2.195767 1_555
Li1 O25 1.942189 1_465
Li1 O4 2.023868 1_555
Li1 O9 2.235057 1_555
Li1 O8 2.235057 1_555
Li1 O24 2.539266 1_455
Li2 O1 2.099231 1_555
Li2 O8 2.110915 1_545
Li2 O11 2.158709 1_555
Li2 O10 2.163833 1_554
Li2 O3 2.391161 1_554
Li3 O1 2.099231 1_555
Li3 O9 2.110915 1_545
Li3 O11 2.158709 1_555
Li3 O10 2.163833 1_555
Li3 O3 2.391161 1_555
Li4 O4 2.057162 1_555
Li4 O6 2.145219 1_555
Li4 O12 2.163123 1_554
Li4 O13 2.170013 1_555
Li4 O5 2.390436 1_554
Li5 O4 2.057162 1_555
Li5 O7 2.145219 1_555
Li5 O12 2.163123 1_555
Li5 O13 2.170013 1_555
Li5 O5 2.390436 1_555
Li6 O23 2.099094 1_555
Li6 O20 2.134920 1_555
Li6 O15 2.155624 1_555
Li6 O14 2.169212 1_555
Li6 O22 2.385174 1_555
Li7 O23 2.099094 1_555
Li7 O21 2.134920 1_555
Li7 O15 2.155624 1_556
Li7 O14 2.169212 1_555
Li7 O22 2.385174 1_556
Li8 O26 2.094185 1_555
Li8 O19 2.111352 1_565
Li8 O17 2.164447 1_555
Li8 O16 2.199104 1_555
Li8 O24 2.423896 1_555
Li9 O26 2.094185 1_555
Li9 O18 2.111352 1_565
Li9 O17 2.164447 1_556
Li9 O16 2.199104 1_555
Li9 O24 2.423896 1_556
Li10 O2 1.940593 1_645
Li10 O23 2.019164 1_555
Li10 O18 2.199243 1_555
Li10 O19 2.199243 1_555
Li11 O0 1.945612 1_655
Li11 O26 2.025358 1_555
Li11 O21 2.187266 1_555
Li11 O20 2.187266 1_555
Mn0 O21 2.079761 1_554
Mn0 O20 2.079761 1_555
Mn0 O13 2.136061 1_555
Mn0 O15 2.185273 1_555
Mn0 O24 2.207266 1_555
Mn0 O27 2.387250 1_555
Co0 O6 2.047855 1_556
Co0 O7 2.047855 1_555
Co0 O12 2.111041 1_555
Co0 O3 2.121064 1_555
Co0 O14 2.147015 1_555
Co0 O0 2.270747 1_555
Co1 O8 2.049177 1_556
Co1 O9 2.049177 1_555
Co1 O10 2.113717 1_565
Co1 O5 2.122926 1_555
Co1 O16 2.151215 1_555
Co1 O2 2.267995 1_555
Co2 O18 2.049797 1_554
Co2 O19 2.049797 1_555
Co2 O22 2.129051 1_555
Co2 O17 2.137815 1_545
Co2 O11 2.142220 1_555
Co2 O25 2.251302 1_555
C0 O0 1.294451 1_555
C0 O23 1.298594 1_455
C0 O3 1.307345 1_555
C1 O2 1.292077 1_555
C1 O26 1.298434 1_455
C1 O5 1.309411 1_555
C2 O25 1.296830 1_555
C2 O1 1.297352 1_655
C2 O22 1.304828 1_555
C3 O27 1.290298 1_555
C3 O4 1.303737 1_655
C3 O24 1.304425 1_555
O6 P0 1.561492 1_555
O7 P0 1.561492 1_555
O8 P1 1.556055 1_555
O9 P1 1.556055 1_555
O10 P2 1.545548 1_555
O11 P0 1.562090 1_555
O12 P3 1.551314 1_555
O13 P1 1.559209 1_555
O14 P2 1.558092 1_555
O15 P0 1.539910 1_555
O16 P3 1.564343 1_555
O17 P1 1.551173 1_555
O18 P2 1.561402 1_555
O19 P2 1.561402 1_555
O20 P3 1.550396 1_555
O21 P3 1.550396 1_555
