# generated using pymatgen
data_Li4MnF8
_symmetry_space_group_name_H-M   'P 1'
_cell_length_a   5.95077490
_cell_length_b   5.95077490
_cell_length_c   5.95077490
_cell_angle_alpha   122.61134830
_cell_angle_beta   122.61134830
_cell_angle_gamma   85.53355343
_symmetry_Int_Tables_number   1
_chemical_formula_structural   Li4MnF8
_chemical_formula_sum   'Li4 Mn1 F8'
_cell_volume   142.65253469
_cell_formula_units_Z   1
loop_
 _symmetry_equiv_pos_site_id
 _symmetry_equiv_pos_as_xyz
  1  'x, y, z'
loop_
 _atom_site_type_symbol
 _atom_site_label
 _atom_site_symmetry_multiplicity
 _atom_site_fract_x
 _atom_site_fract_y
 _atom_site_fract_z
 _atom_site_occupancy
  Li  Li0  1  0.50000000  0.00000000  0.00000000  1
  Li  Li1  1  0.50000000  0.50000000  0.50000000  1
  Li  Li2  1  0.00000000  0.00000000  0.50000000  1
  Li  Li3  1  0.00000000  0.50000000  0.00000000  1
  Mn  Mn0  1  0.00000000  0.00000000  0.00000000  1
  F  F0  1  0.75000000  0.25000000  0.50000000  1
  F  F1  1  0.21630900  0.21630900  0.00000000  1
  F  F2  1  0.77432200  0.22567800  0.00000000  1
  F  F3  1  0.22567800  0.22567800  0.45135500  1
  F  F4  1  0.77432200  0.77432200  0.54864500  1
  F  F5  1  0.22567800  0.77432200  0.00000000  1
  F  F6  1  0.78369100  0.78369100  0.00000000  1
  F  F7  1  0.25000000  0.75000000  0.50000000  1
loop_
_geom_bond_atom_site_label_1
_geom_bond_atom_site_label_2
_geom_bond_distance
_geom_bond_site_symmetry_2
F0 Li2 2.020335 1_655
F0 Li3 2.020335 1_656
F0 Li0 2.020335 1_555
F0 Li1 2.020335 1_555
F1 Mn0 1.889937 1_555
F1 Li2 2.041667 1_554
F1 Li0 2.041667 1_555
F1 Li1 2.041667 1_555
F1 Li3 2.041667 1_555
F2 Mn0 1.823781 1_655
F2 Li3 2.193128 1_655
F2 Li0 2.193128 1_555
F3 Mn0 1.823777 1_555
F3 Li1 2.193124 1_555
F3 Li2 2.193133 1_555
F4 Mn0 1.823777 1_666
F4 Li1 2.193124 1_555
F4 Li2 2.193133 1_665
F5 Mn0 1.823781 1_565
F5 Li3 2.193128 1_555
F5 Li0 2.193128 1_565
F6 Mn0 1.889937 1_665
F6 Li0 2.041667 1_565
F6 Li3 2.041667 1_655
F6 Li1 2.041667 1_554
F6 Li2 2.041667 1_665
F7 Li3 2.020335 1_555
F7 Li1 2.020335 1_555
F7 Li2 2.020335 1_565
F7 Li0 2.020335 1_566
