# generated using pymatgen
data_Ba2YF7
_symmetry_space_group_name_H-M   'P 1'
_cell_length_a   7.70376718
_cell_length_b   7.70376718
_cell_length_c   8.23227546
_cell_angle_alpha   58.67643194
_cell_angle_beta   58.67643194
_cell_angle_gamma   52.41534679
_symmetry_Int_Tables_number   1
_chemical_formula_structural   Ba2YF7
_chemical_formula_sum   'Ba4 Y2 F14'
_cell_volume   315.54868051
_cell_formula_units_Z   2
loop_
 _symmetry_equiv_pos_site_id
 _symmetry_equiv_pos_as_xyz
  1  'x, y, z'
loop_
 _atom_site_type_symbol
 _atom_site_label
 _atom_site_symmetry_multiplicity
 _atom_site_fract_x
 _atom_site_fract_y
 _atom_site_fract_z
 _atom_site_occupancy
  Ba  Ba0  1  0.68563900  0.67333800  0.73910800  1
  Ba  Ba1  1  0.67333800  0.68563900  0.23910800  1
  Ba  Ba2  1  0.32666200  0.31436100  0.76089200  1
  Ba  Ba3  1  0.31436100  0.32666200  0.26089200  1
  Y  Y0  1  0.01481400  0.98518600  0.75000000  1
  Y  Y1  1  0.98518600  0.01481400  0.25000000  1
  F  F0  1  0.93032700  0.69736100  0.86046700  1
  F  F1  1  0.69736100  0.93032700  0.36046700  1
  F  F2  1  0.94251900  0.22139100  0.92724500  1
  F  F3  1  0.88579500  0.36633000  0.54605200  1
  F  F4  1  0.36533900  0.63466100  0.75000000  1
  F  F5  1  0.22139100  0.94251900  0.42724500  1
  F  F6  1  0.63367000  0.11420500  0.95394800  1
  F  F7  1  0.36633000  0.88579500  0.04605200  1
  F  F8  1  0.77860900  0.05748100  0.57275500  1
  F  F9  1  0.63466100  0.36533900  0.25000000  1
  F  F10  1  0.11420500  0.63367000  0.45394800  1
  F  F11  1  0.05748100  0.77860900  0.07275500  1
  F  F12  1  0.30263900  0.06967300  0.63953300  1
  F  F13  1  0.06967300  0.30263900  0.13953300  1
loop_
_geom_bond_atom_site_label_1
_geom_bond_atom_site_label_2
_geom_bond_distance
_geom_bond_site_symmetry_2
Ba0 F4 2.612375 1_555
Ba0 F1 2.674491 1_555
Ba0 F0 2.676109 1_555
Ba0 F3 2.721902 1_555
Ba0 F2 2.759033 1_555
Ba0 F12 2.760984 1_565
Ba0 F10 2.821563 1_655
Ba0 F7 2.835633 1_556
Ba0 F8 2.915151 1_565
Ba1 F9 2.612375 1_555
Ba1 F0 2.674491 1_554
Ba1 F1 2.676109 1_555
Ba1 F7 2.721902 1_555
Ba1 F5 2.759033 1_555
Ba1 F13 2.760984 1_655
Ba1 F6 2.821563 1_564
Ba1 F3 2.835633 1_555
Ba1 F11 2.915151 1_655
Ba2 F4 2.612375 1_555
Ba2 F13 2.674491 1_556
Ba2 F12 2.676109 1_555
Ba2 F6 2.721902 1_555
Ba2 F8 2.759033 1_555
Ba2 F0 2.760984 1_455
Ba2 F7 2.821563 1_546
Ba2 F10 2.835633 1_555
Ba2 F2 2.915151 1_455
Ba3 F9 2.612375 1_555
Ba3 F12 2.674491 1_555
Ba3 F13 2.676109 1_555
Ba3 F10 2.721902 1_555
Ba3 F11 2.759033 1_555
Ba3 F1 2.760984 1_545
Ba3 F3 2.821563 1_455
Ba3 F6 2.835633 1_554
Ba3 F5 2.915151 1_545
F0 Y0 2.283796 1_655
F1 Y1 2.283796 1_565
F2 Y1 2.360899 1_556
F2 Y0 2.535717 1_645
F3 Y0 2.340423 1_645
F4 Y0 2.385101 1_555
F5 Y0 2.360899 1_555
F5 Y1 2.535717 1_465
F6 Y0 2.340423 1_645
F7 Y1 2.340423 1_465
F8 Y1 2.360899 1_555
F8 Y0 2.535717 1_645
F9 Y1 2.385101 1_555
F10 Y1 2.340423 1_465
F11 Y0 2.360899 1_554
F11 Y1 2.535717 1_465
F12 Y0 2.283796 1_545
F13 Y1 2.283796 1_455
