# generated using pymatgen
data_Li4Ti3V3(SbO8)2
_symmetry_space_group_name_H-M   'P 1'
_cell_length_a   5.94461882
_cell_length_b   5.94461882
_cell_length_c   10.49226121
_cell_angle_alpha   89.78850331
_cell_angle_beta   89.78850331
_cell_angle_gamma   59.89462435
_symmetry_Int_Tables_number   1
_chemical_formula_structural   Li4Ti3V3(SbO8)2
_chemical_formula_sum   'Li4 Ti3 V3 Sb2 O16'
_cell_volume   320.76108926
_cell_formula_units_Z   1
loop_
 _symmetry_equiv_pos_site_id
 _symmetry_equiv_pos_as_xyz
  1  'x, y, z'
loop_
 _atom_site_type_symbol
 _atom_site_label
 _atom_site_symmetry_multiplicity
 _atom_site_fract_x
 _atom_site_fract_y
 _atom_site_fract_z
 _atom_site_occupancy
  Li  Li0  1  0.66965100  0.66965100  0.90154300  1
  Li  Li1  1  0.99611800  0.99611800  0.98892700  1
  Li  Li2  1  0.00260600  0.00260600  0.49805100  1
  Li  Li3  1  0.33492600  0.33492600  0.38865400  1
  Ti  Ti0  1  0.33984900  0.83038300  0.21685000  1
  Ti  Ti1  1  0.83038300  0.33984900  0.21685000  1
  Ti  Ti2  1  0.17337500  0.17337500  0.72694800  1
  V  V0  1  0.82600400  0.82600400  0.21280300  1
  V  V1  1  0.18502800  0.64569900  0.71962500  1
  V  V2  1  0.64569900  0.18502800  0.71962500  1
  Sb  Sb0  1  0.67242100  0.67242100  0.51616200  1
  Sb  Sb1  1  0.33349300  0.33349300  0.00436200  1
  O  O0  1  0.31975600  0.83995500  0.61041000  1
  O  O1  1  0.50992000  0.50992000  0.31230900  1
  O  O2  1  0.65986100  0.65986100  0.10628900  1
  O  O3  1  0.00180300  0.00180300  0.31160500  1
  O  O4  1  0.00063400  0.00063400  0.80878800  1
  O  O5  1  0.83995500  0.31975600  0.61041000  1
  O  O6  1  0.50671500  0.98242100  0.31137600  1
  O  O7  1  0.98242100  0.50671500  0.31137600  1
  O  O8  1  0.15266500  0.15266500  0.10129300  1
  O  O9  1  0.84632200  0.84632200  0.61555800  1
  O  O10  1  0.02678800  0.48557900  0.82798600  1
  O  O11  1  0.48557900  0.02678800  0.82798600  1
  O  O12  1  0.32941200  0.32941200  0.60812900  1
  O  O13  1  0.14820700  0.69344400  0.10394700  1
  O  O14  1  0.49042000  0.49042000  0.82602300  1
  O  O15  1  0.69344400  0.14820700  0.10394700  1
loop_
_geom_bond_atom_site_label_1
_geom_bond_atom_site_label_2
_geom_bond_distance
_geom_bond_site_symmetry_2
Li0 O11 1.990965 1_565
Li0 O10 1.990965 1_655
Li0 O14 2.012350 1_555
Li0 O2 2.150185 1_556
Li1 O4 1.890440 1_665
Li1 O15 1.967572 1_566
Li1 O13 1.967572 1_656
Li1 O8 2.001762 1_666
Li2 O3 1.956293 1_555
Li2 O5 2.014560 1_455
Li2 O0 2.014560 1_545
Li2 O9 2.023687 1_445
Li3 O1 1.969593 1_555
Li3 O7 1.987742 1_455
Li3 O6 1.987742 1_545
Li3 O12 2.303248 1_555
O0 V1 2.049231 1_555
O0 Sb0 2.064529 1_555
O0 Ti2 2.112029 1_565
O1 Ti1 1.927615 1_555
O1 Ti0 1.927615 1_555
O2 Ti0 2.012471 1_555
O2 Ti1 2.012471 1_555
O2 V0 2.048114 1_555
O3 Ti0 2.000892 1_545
O3 Ti1 2.000892 1_455
O3 V0 2.090591 1_445
O4 Ti2 1.972593 1_555
O4 V2 2.053159 1_455
O4 V1 2.053159 1_545
O5 V2 2.049231 1_555
O5 Sb0 2.064529 1_555
O5 Ti2 2.112029 1_655
O6 Ti0 1.922957 1_555
O6 V0 1.938811 1_555
O7 Ti1 1.922957 1_555
O7 V0 1.938811 1_555
O8 Ti1 2.057396 1_455
O8 Ti0 2.057396 1_545
O8 Sb1 2.118597 1_555
O9 V1 2.065512 1_655
O9 V2 2.065512 1_565
O9 Sb0 2.076779 1_555
O10 Ti2 1.926907 1_555
O10 V1 1.991458 1_555
O10 Sb1 2.434171 1_556
O11 Ti2 1.926907 1_555
O11 V2 1.991458 1_555
O11 Sb1 2.434171 1_556
O12 V2 2.007560 1_555
O12 V1 2.007560 1_555
O12 Ti2 2.030047 1_555
O13 V0 2.017540 1_455
O13 Ti0 2.076360 1_555
O13 Sb1 2.127728 1_555
O14 V1 1.928826 1_555
O14 V2 1.928826 1_555
O14 Sb1 2.467601 1_556
O15 V0 2.017540 1_545
O15 Ti1 2.076360 1_555
O15 Sb1 2.127728 1_555
