# generated using pymatgen
data_Ni7(PO4)6
_symmetry_space_group_name_H-M   'P 1'
_cell_length_a   8.79966693
_cell_length_b   8.79966602
_cell_length_c   6.57155880
_cell_angle_alpha   80.75019876
_cell_angle_beta   99.24979964
_cell_angle_gamma   71.96214012
_symmetry_Int_Tables_number   1
_chemical_formula_structural   Ni7(PO4)6
_chemical_formula_sum   'Ni7 P6 O24'
_cell_volume   465.39263482
_cell_formula_units_Z   1
loop_
 _symmetry_equiv_pos_site_id
 _symmetry_equiv_pos_as_xyz
  1  'x, y, z'
loop_
 _atom_site_type_symbol
 _atom_site_label
 _atom_site_symmetry_multiplicity
 _atom_site_fract_x
 _atom_site_fract_y
 _atom_site_fract_z
 _atom_site_occupancy
  Ni  Ni0  1  0.00721100  0.35562500  0.19196400  1
  Ni  Ni1  1  0.00301700  0.99698300  0.00135400  1
  Ni  Ni2  1  0.64437500  0.99278900  0.19196400  1
  Ni  Ni3  1  0.36347700  0.99701100  0.81389700  1
  Ni  Ni4  1  0.67480000  0.66590300  0.00349700  1
  Ni  Ni5  1  0.33409700  0.32520000  0.00349700  1
  Ni  Ni6  1  0.00298900  0.63652300  0.81389700  1
  P  P0  1  0.72552000  0.90678600  0.70818300  1
  P  P1  1  0.91735500  0.71771700  0.29725200  1
  P  P2  1  0.32899500  0.67100500  0.07083300  1
  P  P3  1  0.28228300  0.08264500  0.29725200  1
  P  P4  1  0.09321400  0.27448000  0.70818300  1
  P  P5  1  0.67874300  0.32125700  0.93855800  1
  O  O0  1  0.24720700  0.57219900  0.93672700  1
  O  O1  1  0.65793100  0.01814100  0.49136600  1
  O  O2  1  0.39388200  0.03146600  0.13720500  1
  O  O3  1  0.09562200  0.10791200  0.20882000  1
  O  O4  1  0.42780100  0.75279300  0.93672700  1
  O  O5  1  0.26052200  0.27093200  0.28141100  1
  O  O6  1  0.75020700  0.71789500  0.72501300  1
  O  O7  1  0.02900700  0.65325500  0.51415100  1
  O  O8  1  0.96853400  0.60611800  0.13720500  1
  O  O9  1  0.72906800  0.73947800  0.28141100  1
  O  O10  1  0.98185900  0.34206900  0.49136600  1
  O  O11  1  0.55204100  0.44795800  0.75034200  1
  O  O12  1  0.61422600  0.95632600  0.86936200  1
  O  O13  1  0.19968300  0.80031700  0.14025100  1
  O  O14  1  0.91136000  0.88500300  0.79469300  1
  O  O15  1  0.80630500  0.19369500  0.86394600  1
  O  O16  1  0.76273500  0.41836400  0.07343600  1
  O  O17  1  0.11499700  0.08864000  0.79469300  1
  O  O18  1  0.89208800  0.90437800  0.20882000  1
  O  O19  1  0.04367400  0.38577400  0.86936200  1
  O  O20  1  0.34674500  0.97099300  0.51415100  1
  O  O21  1  0.28210500  0.24979300  0.72501300  1
  O  O22  1  0.45382800  0.54617200  0.26331000  1
  O  O23  1  0.58163600  0.23726500  0.07343600  1
loop_
_geom_bond_atom_site_label_1
_geom_bond_atom_site_label_2
_geom_bond_distance
_geom_bond_site_symmetry_2
Ni0 O10 2.004330 1_455
Ni0 O16 2.031540 1_455
Ni0 O3 2.052675 1_555
Ni0 O5 2.068520 1_555
Ni0 O8 2.084490 1_455
Ni0 O19 2.181356 1_554
Ni1 O15 1.986832 1_464
Ni1 O13 1.988135 1_555
Ni1 O14 2.009023 1_454
Ni1 O17 2.009023 1_564
Ni1 O3 2.009720 1_565
Ni1 O18 2.009720 1_455
Ni2 O1 2.004330 1_565
Ni2 O23 2.031540 1_565
Ni2 O18 2.052675 1_555
Ni2 O9 2.068520 1_555
Ni2 O2 2.084491 1_565
Ni2 O12 2.181356 1_554
Ni3 O20 2.006695 1_555
Ni3 O4 2.032840 1_555
Ni3 O17 2.057614 1_565
Ni3 O21 2.064778 1_565
Ni3 O12 2.083264 1_555
Ni3 O2 2.179948 1_566
Ni4 O4 2.014363 1_554
Ni4 O16 2.018615 1_555
Ni4 O9 2.067344 1_555
Ni4 O6 2.075578 1_554
Ni4 O12 2.423526 1_554
Ni4 O8 2.451320 1_555
Ni5 O0 2.014363 1_554
Ni5 O23 2.018616 1_555
Ni5 O5 2.067344 1_555
Ni5 O21 2.075578 1_554
Ni5 O19 2.423526 1_554
Ni5 O2 2.451320 1_555
Ni6 O7 2.006695 1_555
Ni6 O0 2.032841 1_555
Ni6 O14 2.057613 1_455
Ni6 O6 2.064778 1_455
Ni6 O19 2.083264 1_555
Ni6 O8 2.179948 1_456
O0 P2 1.574978 1_556
O1 P0 1.503947 1_545
O2 P3 1.576018 1_555
O3 P3 1.584477 1_555
O4 P2 1.574978 1_556
O5 P3 1.591967 1_555
O6 P0 1.591169 1_555
O7 P1 1.504482 1_455
O8 P1 1.576018 1_555
O9 P1 1.591967 1_555
O10 P4 1.503947 1_655
O11 P5 1.536072 1_555
O12 P0 1.577525 1_555
O13 P2 1.526313 1_555
O14 P0 1.583102 1_555
O15 P5 1.527742 1_555
O16 P5 1.576737 1_554
O17 P4 1.583101 1_555
O18 P1 1.584476 1_555
O19 P4 1.577525 1_555
O20 P3 1.504482 1_565
O21 P4 1.591169 1_555
O22 P2 1.540332 1_555
O23 P5 1.576737 1_554
