# generated using pymatgen
data_Li3TiV3O8
_symmetry_space_group_name_H-M   'P 1'
_cell_length_a   5.98236289
_cell_length_b   8.46993876
_cell_length_c   6.04052408
_cell_angle_alpha   89.39808904
_cell_angle_beta   90.00013268
_cell_angle_gamma   89.99959708
_symmetry_Int_Tables_number   1
_chemical_formula_structural   Li3TiV3O8
_chemical_formula_sum   'Li6 Ti2 V6 O16'
_cell_volume   306.05795962
_cell_formula_units_Z   2
loop_
 _symmetry_equiv_pos_site_id
 _symmetry_equiv_pos_as_xyz
  1  'x, y, z'
loop_
 _atom_site_type_symbol
 _atom_site_label
 _atom_site_symmetry_multiplicity
 _atom_site_fract_x
 _atom_site_fract_y
 _atom_site_fract_z
 _atom_site_occupancy
  Li  Li0  1  0.25003600  0.75038800  0.75019000  1
  Li  Li1  1  0.74996600  0.24961200  0.24978700  1
  Li  Li2  1  0.75005800  0.74964000  0.74977400  1
  Li  Li3  1  0.24993700  0.25035500  0.25019800  1
  Li  Li4  1  0.50000000  0.50000000  0.99999000  1
  Li  Li5  1  0.00000000  0.00000200  0.49999100  1
  Ti  Ti0  1  0.49998100  0.49999000  0.49995700  1
  Ti  Ti1  1  0.00001200  0.99998000  0.99996500  1
  V  V0  1  0.75060000  0.25095600  0.74959100  1
  V  V1  1  0.24940500  0.74902900  0.25038500  1
  V  V2  1  0.50003500  0.00005000  0.00016900  1
  V  V3  1  0.74943200  0.75097900  0.24962800  1
  V  V4  1  0.25054400  0.24898900  0.75033800  1
  V  V5  1  0.00000500  0.50004800  0.50014100  1
  O  O0  1  0.49902300  0.75799700  0.01243200  1
  O  O1  1  0.00098200  0.25789500  0.51238300  1
  O  O2  1  0.50096500  0.24199800  0.98756000  1
  O  O3  1  0.99902700  0.74210300  0.48760300  1
  O  O4  1  0.26350600  0.50774300  0.27340400  1
  O  O5  1  0.75796300  0.00841800  0.77593000  1
  O  O6  1  0.74214100  0.50847400  0.27596000  1
  O  O7  1  0.23646500  0.00781000  0.77335300  1
  O  O8  1  0.50042900  0.26763300  0.51411100  1
  O  O9  1  0.99970800  0.76760400  0.01411200  1
  O  O10  1  0.73649100  0.49225600  0.72657900  1
  O  O11  1  0.24203600  0.99158200  0.22405400  1
  O  O12  1  0.25785600  0.49152900  0.72403300  1
  O  O13  1  0.76353300  0.99218600  0.22663900  1
  O  O14  1  0.49957900  0.73236300  0.48586800  1
  O  O15  1  0.00028200  0.23238800  0.98586300  1
loop_
_geom_bond_atom_site_label_1
_geom_bond_atom_site_label_2
_geom_bond_distance
_geom_bond_site_symmetry_2
Li0 O0 2.175844 1_556
Li0 O3 2.185875 1_455
Li0 O7 2.187806 1_565
Li0 O14 2.192334 1_555
Li0 O9 2.193258 1_456
Li0 O12 2.200358 1_555
Li1 O2 2.175837 1_554
Li1 O1 2.185943 1_655
Li1 O13 2.187832 1_545
Li1 O8 2.192316 1_555
Li1 O15 2.193223 1_654
Li1 O6 2.200392 1_555
Li2 O3 2.175440 1_555
Li2 O0 2.186322 1_556
Li2 O10 2.187500 1_555
Li2 O9 2.192797 1_556
Li2 O14 2.193839 1_555
Li2 O5 2.199684 1_565
Li3 O1 2.175445 1_555
Li3 O2 2.186206 1_554
Li3 O4 2.187539 1_555
Li3 O15 2.192806 1_554
Li3 O8 2.193924 1_555
Li3 O11 2.199636 1_545
Li4 O10 2.176185 1_555
Li4 O4 2.176210 1_556
Li4 O0 2.187308 1_556
Li4 O2 2.187346 1_555
Li4 O12 2.210138 1_555
Li4 O6 2.210187 1_556
Li5 O13 2.175840 1_445
Li5 O7 2.175875 1_555
Li5 O1 2.186414 1_555
Li5 O3 2.186463 1_445
Li5 O11 2.209611 1_545
Li5 O5 2.209623 1_455
O0 V2 2.050743 1_565
O0 V3 2.073338 1_555
O0 V1 2.073513 1_555
O1 V5 2.051586 1_555
O1 V4 2.073259 1_555
O1 V0 2.073263 1_455
O2 V2 2.049908 1_556
O2 V4 2.073494 1_555
O2 V0 2.073650 1_555
O3 V5 2.050803 1_655
O3 V1 2.073285 1_655
O3 V3 2.073477 1_555
O4 Ti0 1.968888 1_555
O4 V1 2.048681 1_555
O4 V5 2.088809 1_555
O5 Ti1 1.982733 1_645
O5 V2 2.053936 1_556
O5 V0 2.059238 1_555
O6 Ti0 1.983079 1_555
O6 V5 2.053425 1_655
O6 V3 2.058948 1_555
O7 Ti1 1.969063 1_545
O7 V4 2.047772 1_555
O7 V2 2.089441 1_556
O8 Ti0 1.969010 1_555
O8 V0 2.068540 1_555
O8 V4 2.071495 1_555
O9 Ti1 1.969169 1_654
O9 V3 2.069123 1_555
O9 V1 2.070829 1_655
O10 Ti0 1.969324 1_555
O10 V0 2.048799 1_555
O10 V5 2.087705 1_655
O11 Ti1 1.982837 1_554
O11 V2 2.052870 1_565
O11 V1 2.059362 1_555
O12 Ti0 1.983245 1_555
O12 V5 2.052239 1_555
O12 V4 2.059235 1_555
O13 Ti1 1.969427 1_654
O13 V3 2.048005 1_555
O13 V2 2.087769 1_565
O14 Ti0 1.969132 1_555
O14 V1 2.068560 1_555
O14 V3 2.071395 1_555
O15 Ti1 1.969430 1_545
O15 V4 2.069087 1_555
O15 V0 2.070756 1_455
