# generated using pymatgen
data_Li3La14(CuO7)4
_symmetry_space_group_name_H-M   'P 1'
_cell_length_a   11.62343503
_cell_length_b   11.62343503
_cell_length_c   11.88803757
_cell_angle_alpha   65.79931359
_cell_angle_beta   114.20068641
_cell_angle_gamma   111.06151712
_symmetry_Int_Tables_number   1
_chemical_formula_structural   Li3La14(CuO7)4
_chemical_formula_sum   'Li6 La28 Cu8 O56'
_cell_volume   1300.40807566
_cell_formula_units_Z   2
loop_
 _symmetry_equiv_pos_site_id
 _symmetry_equiv_pos_as_xyz
  1  'x, y, z'
loop_
 _atom_site_type_symbol
 _atom_site_label
 _atom_site_symmetry_multiplicity
 _atom_site_fract_x
 _atom_site_fract_y
 _atom_site_fract_z
 _atom_site_occupancy
  Li  Li0  1  0.92842551  0.07157449  0.64267737  1
  Li  Li1  1  0.78566754  0.21433246  0.92898296  1
  Li  Li2  1  0.50004646  0.49995354  0.49958904  1
  Li  Li3  1  0.35728949  0.64271051  0.78589363  1
  Li  Li4  1  0.21413825  0.78586175  0.07129333  1
  Li  Li5  1  0.07157575  0.92842425  0.35727867  1
  La  La0  1  0.71848247  0.00488553  0.78556803  1
  La  La1  1  0.99511447  0.28151753  0.78556803  1
  La  La2  1  0.92704030  0.35153164  0.43157208  1
  La  La3  1  0.20948360  0.06662499  0.85684005  1
  La  La4  1  0.64846836  0.07295970  0.43157208  1
  La  La5  1  0.50561759  0.21990359  0.71428600  1
  La  La6  1  0.93337501  0.79051640  0.85684005  1
  La  La7  1  0.78009641  0.49438241  0.71428600  1
  La  La8  1  0.57501256  0.14430093  0.06932878  1
  La  La9  1  0.86159399  0.86161490  0.49993275  1
  La  La10  1  0.43001493  0.28929856  0.35924222  1
  La  La11  1  0.85569907  0.42498744  0.06932878  1
  La  La12  1  0.29059953  0.43276747  0.64300397  1
  La  La13  1  0.14732990  0.57587999  0.92863825  1
  La  La14  1  0.13838510  0.13840601  0.49993275  1
  La  La15  1  0.56723253  0.70940047  0.64300397  1
  La  La16  1  0.42412001  0.85267010  0.92863825  1
  La  La17  1  0.71070144  0.56998507  0.35924222  1
  La  La18  1  0.79098029  0.93384968  0.14316844  1
  La  La19  1  0.07623140  0.64766101  0.57173095  1
  La  La20  1  0.06615032  0.20901971  0.14316844  1
  La  La21  1  0.21956368  0.50526629  0.28540256  1
  La  La22  1  0.35233899  0.92376860  0.57173095  1
  La  La23  1  0.63724664  0.64132630  0.99699992  1
  La  La24  1  0.49473371  0.78043632  0.28540256  1
  La  La25  1  0.35867370  0.36275336  0.99699992  1
  La  La26  1  0.00398997  0.71827497  0.21428600  1
  La  La27  1  0.28172503  0.99601003  0.21428600  1
  Cu  Cu0  1  0.85775416  0.14224584  0.28592532  1
  Cu  Cu1  1  0.71455249  0.28544751  0.57232554  1
  Cu  Cu2  1  0.57116251  0.42883749  0.85624546  1
  Cu  Cu3  1  0.64285700  0.35714300  0.21428600  1
  Cu  Cu4  1  0.00018687  0.99981313  0.00006089  1
  Cu  Cu5  1  0.42796084  0.57203916  0.14264568  1
  Cu  Cu6  1  0.14285700  0.85714300  0.71428600  1
  Cu  Cu7  1  0.28552713  0.71447287  0.42851011  1
  O  O0  1  0.89573383  0.10426617  0.96497783  1
  O  O1  1  0.96509417  0.03490583  0.82596676  1
  O  O2  1  0.60557101  0.03417622  0.92938678  1
  O  O3  1  0.96582378  0.39442899  0.92938678  1
  O  O4  1  0.89262099  0.10737901  0.46075893  1
  O  O5  1  0.74989968  0.25010032  0.74782177  1
  O  O6  1  0.96308716  0.03691284  0.32144242  1
  O  O7  1  0.67620357  0.32379643  0.89216733  1
  O  O8  1  0.81945890  0.18054110  0.60731635  1
  O  O9  1  0.95701358  0.67129858  0.71428600  1
  O  O10  1  0.52861435  0.10003836  0.57092553  1
  O  O11  1  0.89996164  0.47138565  0.57092553  1
  O  O12  1  0.32870142  0.04298642  0.71428600  1
  O  O13  1  0.38575236  0.24290035  0.85764547  1
  O  O14  1  0.75709965  0.61424764  0.85764547  1
  O  O15  1  0.46625510  0.53374490  0.82125465  1
  O  O16  1  0.82228031  0.17771969  0.11092304  1
  O  O17  1  0.53581432  0.46418568  0.68075023  1
  O  O18  1  0.39309401  0.60690599  0.96781207  1
  O  O19  1  0.67910912  0.32089088  0.39649818  1
  O  O20  1  0.75218558  0.24781442  0.25028929  1
  O  O21  1  0.60951043  0.39048957  0.53640467  1
  O  O22  1  0.10827168  0.25167695  0.64242204  1
  O  O23  1  0.89178164  0.74849314  0.35720194  1
  O  O24  1  0.82221262  0.53649862  0.21428600  1
  O  O25  1  0.53739095  0.82255768  0.78614896  1
  O  O26  1  0.17744232  0.46260905  0.78614896  1
  O  O27  1  0.68014399  0.68010978  0.49918522  1
  O  O28  1  0.46350138  0.17778738  0.21428600  1
  O  O29  1  0.25150686  0.10821836  0.35720194  1
  O  O30  1  0.31989022  0.31985601  0.49918522  1
  O  O31  1  0.74832305  0.89172832  0.64242204  1
  O  O32  1  0.32062083  0.67937917  0.60260424  1
  O  O33  1  0.17774637  0.82225363  0.88827412  1
  O  O34  1  0.46343469  0.53656531  0.31764896  1
  O  O35  1  0.60660488  0.39339512  0.03207282  1
  O  O36  1  0.53352842  0.46647158  0.17828171  1
  O  O37  1  0.38998017  0.61001983  0.46359417  1
  O  O38  1  0.24736088  0.75263912  0.74939402  1
  O  O39  1  0.81445866  0.81429308  0.00012422  1
  O  O40  1  0.10000708  0.52874466  0.42844778  1
  O  O41  1  0.24324574  0.38532908  0.14319127  1
  O  O42  1  0.47125534  0.89999292  0.42844778  1
  O  O43  1  0.04246826  0.32895692  0.28537973  1
  O  O44  1  0.18570692  0.18554134  0.00012422  1
  O  O45  1  0.61467092  0.75675426  0.14319127  1
  O  O46  1  0.67104308  0.95753174  0.28537973  1
  O  O47  1  0.18099055  0.81900945  0.39305949  1
  O  O48  1  0.03835412  0.96164588  0.67917798  1
  O  O49  1  0.32262684  0.67737316  0.10712858  1
  O  O50  1  0.25040972  0.74959028  0.25442759  1
  O  O51  1  0.10796763  0.89203237  0.54029688  1
  O  O52  1  0.39393336  0.96579186  0.07136906  1
  O  O53  1  0.03420814  0.60606664  0.07136906  1
  O  O54  1  0.03530428  0.96469572  0.17414341  1
  O  O55  1  0.10472345  0.89527655  0.03551151  1
loop_
_geom_bond_atom_site_label_1
_geom_bond_atom_site_label_2
_geom_bond_distance
_geom_bond_site_symmetry_2
Li0 O8 1.914431 1_555
Li0 O4 1.916281 1_555
Li0 O48 1.928179 1_645
Li0 O1 1.928441 1_555
Li0 O31 2.367903 1_545
Li0 O22 2.367903 1_655
Li1 O5 1.907868 1_555
Li1 O16 1.913439 1_556
Li1 O7 1.918261 1_555
Li1 O0 1.932690 1_555
Li1 O3 2.369907 1_555
Li1 O2 2.369907 1_555
Li2 O17 1.907868 1_555
Li2 O34 1.913443 1_555
Li2 O21 1.918261 1_555
Li2 O37 1.932690 1_555
Li2 O30 2.369913 1_555
Li2 O27 2.369913 1_555
Li3 O15 1.914412 1_555
Li3 O18 1.916281 1_555
Li3 O38 1.928183 1_555
Li3 O32 1.928441 1_555
Li3 O26 2.367903 1_555
Li3 O25 2.367903 1_555
Li4 O49 1.903630 1_555
Li4 O55 1.921251 1_555
Li4 O33 1.926446 1_554
Li4 O50 1.928207 1_555
Li4 O52 2.366433 1_555
Li4 O53 2.366433 1_555
Li5 O6 1.903626 1_465
Li5 O47 1.921254 1_555
Li5 O51 1.926435 1_555
Li5 O54 1.928218 1_555
Li5 O29 2.366433 1_565
Li5 O23 2.366433 1_455
La0 O25 2.390756 1_545
La0 O5 2.606957 1_555
La0 O8 2.608866 1_555
La0 O0 2.614338 1_555
La0 O1 2.618951 1_555
La0 O31 2.719006 1_545
La0 O2 2.720216 1_555
La0 O10 2.725505 1_555
La0 O39 2.732899 1_546
La1 O26 2.390756 1_655
La1 O5 2.606957 1_555
La1 O8 2.608866 1_555
La1 O0 2.614338 1_555
La1 O1 2.618951 1_555
La1 O22 2.719006 1_655
La1 O3 2.720216 1_555
La1 O11 2.725505 1_555
La1 O44 2.732899 1_656
La2 O40 2.303970 1_655
La2 O4 2.612386 1_555
La2 O8 2.613434 1_555
La2 O19 2.646592 1_555
La2 O20 2.646975 1_555
La2 O22 2.666566 1_655
La2 O11 2.723803 1_555
La2 O43 2.725435 1_655
La2 O24 2.743822 1_555
La3 O13 2.319211 1_555
La3 O48 2.613495 1_545
La3 O33 2.614089 1_545
La3 O1 2.615974 1_455
La3 O55 2.621087 1_546
La3 O52 2.710509 1_546
La3 O22 2.715325 1_555
La3 O12 2.729184 1_555
La3 O44 2.734811 1_556
La4 O42 2.303970 1_545
La4 O4 2.612386 1_555
La4 O8 2.613434 1_555
La4 O19 2.646592 1_555
La4 O20 2.646975 1_555
La4 O31 2.666566 1_545
La4 O10 2.723803 1_555
La4 O46 2.725435 1_545
La4 O28 2.743822 1_555
La5 O12 2.327672 1_555
La5 O21 2.607025 1_555
La5 O7 2.607025 1_555
La5 O17 2.610489 1_555
La5 O5 2.610489 1_555
La5 O30 2.718465 1_555
La5 O2 2.718469 1_555
La5 O13 2.739525 1_555
La5 O10 2.739536 1_555
La6 O14 2.319211 1_555
La6 O48 2.613495 1_655
La6 O33 2.614089 1_655
La6 O1 2.615974 1_565
La6 O55 2.621087 1_656
La6 O53 2.710509 1_656
La6 O31 2.715325 1_555
La6 O9 2.729184 1_555
La6 O39 2.734811 1_556
La7 O9 2.327672 1_555
La7 O21 2.607025 1_555
La7 O7 2.607025 1_555
La7 O17 2.610489 1_555
La7 O5 2.610489 1_555
La7 O27 2.718465 1_555
La7 O3 2.718469 1_555
La7 O14 2.739525 1_555
La7 O11 2.739536 1_555
La8 O52 2.365909 1_545
La8 O7 2.614689 1_554
La8 O16 2.616436 1_555
La8 O20 2.650581 1_555
La8 O35 2.651748 1_555
La8 O2 2.662607 1_554
La8 O46 2.715743 1_545
La8 O13 2.719259 1_554
La8 O28 2.746791 1_555
La9 O27 2.387697 1_555
La9 O4 2.610322 1_565
La9 O6 2.612616 1_565
La9 O48 2.615083 1_655
La9 O51 2.615500 1_655
La9 O31 2.714978 1_555
La9 O23 2.716611 1_555
La9 O9 2.727963 1_555
La9 O46 2.732386 1_555
La10 O29 2.365909 1_555
La10 O21 2.614697 1_555
La10 O34 2.616425 1_555
La10 O36 2.650581 1_555
La10 O19 2.651748 1_555
La10 O30 2.662611 1_555
La10 O41 2.715743 1_555
La10 O10 2.719259 1_555
La10 O28 2.746781 1_555
La11 O53 2.365909 1_655
La11 O7 2.614689 1_554
La11 O16 2.616436 1_555
La11 O20 2.650581 1_555
La11 O35 2.651748 1_555
La11 O3 2.662607 1_554
La11 O43 2.715743 1_655
La11 O14 2.719259 1_554
La11 O24 2.746791 1_555
La12 O22 2.390749 1_555
La12 O17 2.606955 1_555
La12 O15 2.608864 1_555
La12 O37 2.614341 1_555
La12 O32 2.618946 1_555
La12 O26 2.719002 1_555
La12 O30 2.720216 1_555
La12 O13 2.725493 1_555
La12 O40 2.732902 1_555
La13 O3 2.387710 1_455
La13 O18 2.610324 1_555
La13 O49 2.612613 1_556
La13 O38 2.615071 1_555
La13 O33 2.615503 1_555
La13 O26 2.714972 1_555
La13 O53 2.716604 1_556
La13 O9 2.727954 1_455
La13 O41 2.732383 1_556
La14 O30 2.387697 1_555
La14 O4 2.610322 1_455
La14 O6 2.612616 1_455
La14 O48 2.615083 1_545
La14 O51 2.615500 1_545
La14 O22 2.714978 1_555
La14 O29 2.716611 1_555
La14 O12 2.727963 1_555
La14 O43 2.732386 1_555
La15 O31 2.390749 1_555
La15 O17 2.606955 1_555
La15 O15 2.608864 1_555
La15 O37 2.614341 1_555
La15 O32 2.618946 1_555
La15 O25 2.719002 1_555
La15 O27 2.720216 1_555
La15 O14 2.725493 1_555
La15 O42 2.732902 1_555
La16 O2 2.387710 1_565
La16 O18 2.610324 1_555
La16 O49 2.612613 1_556
La16 O38 2.615071 1_555
La16 O33 2.615503 1_555
La16 O25 2.714972 1_555
La16 O52 2.716604 1_556
La16 O12 2.727954 1_565
La16 O45 2.732383 1_556
La17 O23 2.365909 1_555
La17 O21 2.614697 1_555
La17 O34 2.616425 1_555
La17 O36 2.650581 1_555
La17 O19 2.651748 1_555
La17 O27 2.662611 1_555
La17 O45 2.715743 1_555
La17 O11 2.719259 1_555
La17 O24 2.746781 1_555
La18 O45 2.324865 1_555
La18 O16 2.607021 1_565
La18 O6 2.609913 1_565
La18 O0 2.614293 1_564
La18 O54 2.616895 1_655
La18 O2 2.710951 1_564
La18 O23 2.713741 1_555
La18 O46 2.732595 1_555
La18 O39 2.736400 1_555
La19 O11 2.319218 1_455
La19 O38 2.613497 1_555
La19 O51 2.614092 1_555
La19 O32 2.615976 1_555
La19 O47 2.621081 1_555
La19 O23 2.710505 1_455
La19 O26 2.715322 1_555
La19 O9 2.729188 1_455
La19 O40 2.734794 1_555
La20 O41 2.324865 1_555
La20 O16 2.607021 1_455
La20 O6 2.609913 1_455
La20 O0 2.614293 1_454
La20 O54 2.616895 1_545
La20 O3 2.710951 1_454
La20 O29 2.713741 1_555
La20 O43 2.732595 1_555
La20 O44 2.736400 1_555
La21 O43 2.324865 1_555
La21 O34 2.607032 1_555
La21 O49 2.609913 1_555
La21 O37 2.614301 1_555
La21 O50 2.616895 1_555
La21 O30 2.710963 1_555
La21 O53 2.713731 1_555
La21 O41 2.732595 1_555
La21 O40 2.736410 1_555
La22 O10 2.319218 1_565
La22 O38 2.613497 1_555
La22 O51 2.614092 1_555
La22 O32 2.615976 1_555
La22 O47 2.621081 1_555
La22 O29 2.710505 1_565
La22 O25 2.715322 1_555
La22 O12 2.729188 1_565
La22 O42 2.734794 1_555
La23 O39 2.303964 1_556
La23 O18 2.612380 1_555
La23 O15 2.613446 1_555
La23 O35 2.646593 1_556
La23 O36 2.646973 1_556
La23 O25 2.666575 1_555
La23 O14 2.723804 1_555
La23 O45 2.725431 1_556
La23 O24 2.743815 1_556
La24 O46 2.324865 1_555
La24 O34 2.607032 1_555
La24 O49 2.609913 1_555
La24 O37 2.614301 1_555
La24 O50 2.616895 1_555
La24 O27 2.710963 1_555
La24 O52 2.713731 1_555
La24 O45 2.732595 1_555
La24 O42 2.736410 1_555
La25 O44 2.303964 1_556
La25 O18 2.612380 1_555
La25 O15 2.613446 1_555
La25 O35 2.646593 1_556
La25 O36 2.646973 1_556
La25 O26 2.666575 1_555
La25 O13 2.723804 1_555
La25 O41 2.725431 1_556
La25 O28 2.743815 1_556
La26 O24 2.391617 1_455
La26 O50 2.614683 1_555
La26 O54 2.614694 1_555
La26 O47 2.616183 1_555
La26 O55 2.616189 1_555
La26 O23 2.710397 1_455
La26 O53 2.710408 1_555
La26 O40 2.723929 1_555
La26 O39 2.723939 1_455
La27 O28 2.391617 1_565
La27 O50 2.614683 1_555
La27 O54 2.614694 1_555
La27 O47 2.616183 1_555
La27 O55 2.616189 1_555
La27 O29 2.710397 1_565
La27 O52 2.710408 1_555
La27 O42 2.723929 1_555
La27 O44 2.723939 1_565
Cu0 O16 1.839519 1_555
Cu0 O4 1.839894 1_555
Cu0 O6 1.845529 1_555
Cu0 O20 1.849508 1_555
Cu0 O43 2.443458 1_655
Cu0 O46 2.443458 1_545
Cu1 O21 1.838560 1_555
Cu1 O8 1.839492 1_555
Cu1 O5 1.845554 1_555
Cu1 O19 1.848926 1_555
Cu1 O11 2.442932 1_555
Cu1 O10 2.442932 1_555
Cu2 O7 1.838537 1_555
Cu2 O15 1.839511 1_555
Cu2 O17 1.845539 1_555
Cu2 O35 1.848929 1_556
Cu2 O13 2.442932 1_555
Cu2 O14 2.442932 1_555
Cu3 O19 1.917872 1_555
Cu3 O35 1.917883 1_555
Cu3 O36 1.918781 1_555
Cu3 O20 1.918785 1_555
Cu3 O28 2.359761 1_555
Cu3 O24 2.359761 1_555
Cu4 O54 1.830482 1_555
Cu4 O0 1.830626 1_464
Cu4 O1 1.830705 1_464
Cu4 O55 1.830819 1_555
Cu4 O44 2.442237 1_565
Cu4 O39 2.442237 1_455
Cu5 O34 1.839530 1_555
Cu5 O18 1.839894 1_554
Cu5 O49 1.845547 1_555
Cu5 O36 1.849489 1_555
Cu5 O41 2.443457 1_555
Cu5 O45 2.443457 1_555
Cu6 O33 1.830272 1_555
Cu6 O51 1.830283 1_555
Cu6 O48 1.831469 1_555
Cu6 O38 1.831487 1_555
Cu6 O9 2.445127 1_455
Cu6 O12 2.445127 1_565
Cu7 O50 1.830482 1_555
Cu7 O37 1.830622 1_555
Cu7 O32 1.830701 1_555
Cu7 O47 1.830819 1_555
Cu7 O42 2.442237 1_555
Cu7 O40 2.442237 1_555
