# generated using pymatgen
data_Li8Mn5Fe3(BO3)8
_symmetry_space_group_name_H-M   'P 1'
_cell_length_a   6.03076100
_cell_length_b   9.73820999
_cell_length_c   9.84769558
_cell_angle_alpha   64.43309447
_cell_angle_beta   79.23444174
_cell_angle_gamma   78.49231346
_symmetry_Int_Tables_number   1
_chemical_formula_structural   Li8Mn5Fe3(BO3)8
_chemical_formula_sum   'Li8 Mn5 Fe3 B8 O24'
_cell_volume   507.89798460
_cell_formula_units_Z   1
loop_
 _symmetry_equiv_pos_site_id
 _symmetry_equiv_pos_as_xyz
  1  'x, y, z'
loop_
 _atom_site_type_symbol
 _atom_site_label
 _atom_site_symmetry_multiplicity
 _atom_site_fract_x
 _atom_site_fract_y
 _atom_site_fract_z
 _atom_site_occupancy
  Li  Li0  1  0.04630500  0.46706200  0.81681000  1
  Li  Li1  1  0.04493500  0.96706400  0.31470400  1
  Li  Li2  1  0.45563100  0.03470700  0.18506100  1
  Li  Li3  1  0.54478700  0.46576200  0.31333100  1
  Li  Li4  1  0.45432500  0.53343900  0.68579100  1
  Li  Li5  1  0.54455400  0.96638300  0.81525700  1
  Li  Li6  1  0.95409500  0.03378500  0.68381900  1
  Li  Li7  1  0.95264200  0.53251100  0.18262700  1
  Mn  Mn0  1  0.31430500  0.29352300  0.62507300  1
  Mn  Mn1  1  0.31303600  0.79328400  0.12452800  1
  Mn  Mn2  1  0.68688100  0.20696000  0.87571700  1
  Mn  Mn3  1  0.68578000  0.70554600  0.37307900  1
  Mn  Mn4  1  0.81458100  0.79356900  0.62713600  1
  Fe  Fe0  1  0.18265800  0.20251800  0.37435600  1
  Fe  Fe1  1  0.18330800  0.70901500  0.87192200  1
  Fe  Fe2  1  0.81957200  0.29031600  0.12970500  1
  B  B0  1  0.33499200  0.36784700  0.03940300  1
  B  B1  1  0.16660200  0.13336000  0.96537100  1
  B  B2  1  0.16735100  0.63243400  0.46350500  1
  B  B3  1  0.33272400  0.86818400  0.53886100  1
  B  B4  1  0.66345600  0.13354400  0.46163500  1
  B  B5  1  0.83357600  0.36785100  0.53431100  1
  B  B6  1  0.83414200  0.86738500  0.03449100  1
  B  B7  1  0.66684300  0.63044300  0.96309300  1
  O  O0  1  0.17649500  0.01514600  0.10789700  1
  O  O1  1  0.01452100  0.24717200  0.56066700  1
  O  O2  1  0.01488200  0.74550200  0.06106600  1
  O  O3  1  0.16004500  0.36305700  0.15581900  1
  O  O4  1  0.17537600  0.51564500  0.60756200  1
  O  O5  1  0.51726000  0.24769000  0.06562500  1
  O  O6  1  0.16271100  0.86186900  0.65778100  1
  O  O7  1  0.33707300  0.13567500  0.84790700  1
  O  O8  1  0.34035900  0.63464500  0.34784900  1
  O  O9  1  0.48304100  0.25345600  0.43406300  1
  O  O10  1  0.32604200  0.48532900  0.89583800  1
  O  O11  1  0.31901300  0.98872400  0.39699800  1
  O  O12  1  0.67563300  0.01660300  0.60495700  1
  O  O13  1  0.67641300  0.51267100  0.10539500  1
  O  O14  1  0.51266400  0.74868300  0.56309200  1
  O  O15  1  0.66294900  0.36498800  0.65203500  1
  O  O16  1  0.66280700  0.86562800  0.15117900  1
  O  O17  1  0.83614600  0.13579200  0.34488900  1
  O  O18  1  0.48570200  0.75161800  0.93497400  1
  O  O19  1  0.82407700  0.48490800  0.39135900  1
  O  O20  1  0.84199800  0.63466400  0.84728500  1
  O  O21  1  0.98632600  0.25464500  0.93939300  1
  O  O22  1  0.98680200  0.75376900  0.43539900  1
  O  O23  1  0.82458300  0.98563300  0.89138600  1
loop_
_geom_bond_atom_site_label_1
_geom_bond_atom_site_label_2
_geom_bond_distance
_geom_bond_site_symmetry_2
Li0 O20 1.937613 1_455
Li0 O4 1.944765 1_555
Li0 O21 1.961412 1_455
Li0 O10 2.052579 1_555
Li1 O0 1.928179 1_565
Li1 O17 1.957008 1_465
Li1 O22 1.963160 1_455
Li1 O11 2.054360 1_555
Li2 O5 1.965194 1_555
Li2 O16 1.970043 1_545
Li2 O11 1.983289 1_545
Li2 O0 2.044096 1_555
Li3 O13 1.939562 1_555
Li3 O9 1.961334 1_555
Li3 O8 1.963980 1_555
Li3 O19 2.048079 1_555
Li4 O10 1.951144 1_555
Li4 O15 1.968591 1_555
Li4 O14 1.981603 1_555
Li4 O4 2.041872 1_555
Li5 O12 1.954855 1_565
Li5 O7 1.967508 1_565
Li5 O18 1.975247 1_555
Li5 O23 2.042006 1_555
Li6 O23 1.931450 1_545
Li6 O6 1.964941 1_645
Li6 O1 1.970672 1_655
Li6 O12 2.040291 1_555
Li7 O19 1.940828 1_555
Li7 O3 1.945864 1_655
Li7 O2 1.968678 1_655
Li7 O13 2.029650 1_555
Mn0 O7 2.077016 1_555
Mn0 O4 2.102263 1_555
Mn0 O9 2.118002 1_555
Mn0 O1 2.208097 1_555
Mn0 O15 2.434667 1_555
Mn1 O8 2.086044 1_555
Mn1 O0 2.099506 1_565
Mn1 O18 2.119531 1_554
Mn1 O2 2.201105 1_555
Mn1 O16 2.444188 1_555
Mn2 O15 2.084579 1_555
Mn2 O23 2.098940 1_545
Mn2 O5 2.113029 1_556
Mn2 O21 2.208851 1_555
Mn2 O7 2.443685 1_555
Mn3 O16 2.076333 1_555
Mn3 O19 2.086100 1_555
Mn3 O14 2.131068 1_555
Mn3 O22 2.213129 1_555
Mn3 O8 2.406923 1_555
Mn4 O20 2.063536 1_555
Mn4 O12 2.097617 1_565
Mn4 O22 2.128977 1_555
Mn4 O14 2.211019 1_555
Mn4 O6 2.430725 1_655
Fe0 O11 2.011279 1_545
Fe0 O3 2.052987 1_555
Fe0 O1 2.097907 1_555
Fe0 O9 2.209445 1_555
Fe0 O17 2.409253 1_455
Fe1 O6 1.998219 1_555
Fe1 O2 2.085142 1_556
Fe1 O10 2.103856 1_555
Fe1 O18 2.197878 1_555
Fe1 O20 2.398496 1_455
Fe2 O17 2.007893 1_555
Fe2 O21 2.088736 1_554
Fe2 O13 2.091714 1_555
Fe2 O5 2.202801 1_555
Fe2 O3 2.391410 1_655
B0 O10 1.385054 1_554
B0 O3 1.396870 1_555
B0 O5 1.405762 1_555
B1 O0 1.381316 1_556
B1 O7 1.392111 1_555
B1 O21 1.404708 1_455
B2 O4 1.385434 1_555
B2 O8 1.389293 1_555
B2 O22 1.405458 1_455
B3 O11 1.387593 1_555
B3 O6 1.393167 1_555
B3 O14 1.393551 1_555
B4 O12 1.382871 1_555
B4 O17 1.395326 1_555
B4 O9 1.396747 1_555
B5 O19 1.379656 1_555
B5 O15 1.393387 1_555
B5 O1 1.403604 1_655
B6 O23 1.385104 1_554
B6 O16 1.391015 1_555
B6 O2 1.409833 1_655
B7 O13 1.378060 1_556
B7 O20 1.394606 1_555
B7 O18 1.406823 1_555
