# generated using pymatgen
data_Cd4NiH20(ClO)10
_symmetry_space_group_name_H-M   'P 1'
_cell_length_a   12.04719900
_cell_length_b   6.72840300
_cell_length_c   16.46402095
_cell_angle_alpha   70.91715487
_cell_angle_beta   90.00000000
_cell_angle_gamma   90.00000000
_symmetry_Int_Tables_number   1
_chemical_formula_structural   Cd4NiH20(ClO)10
_chemical_formula_sum   'Cd8 Ni2 H40 Cl20 O20'
_cell_volume   1261.20976636
_cell_formula_units_Z   2
loop_
 _symmetry_equiv_pos_site_id
 _symmetry_equiv_pos_as_xyz
  1  'x, y, z'
loop_
 _atom_site_type_symbol
 _atom_site_label
 _atom_site_symmetry_multiplicity
 _atom_site_fract_x
 _atom_site_fract_y
 _atom_site_fract_z
 _atom_site_occupancy
  Cd  Cd0  1  0.51680100  0.19433500  0.56815800  1
  Cd  Cd1  1  0.01680100  0.80566500  0.93184200  1
  Cd  Cd2  1  0.48319900  0.80566500  0.43184200  1
  Cd  Cd3  1  0.98319900  0.19433500  0.06815800  1
  Cd  Cd4  1  0.52488000  0.61013400  0.69077100  1
  Cd  Cd5  1  0.02488000  0.38986600  0.80922900  1
  Cd  Cd6  1  0.47512000  0.38986600  0.30922900  1
  Cd  Cd7  1  0.97512000  0.61013400  0.19077100  1
  Ni  Ni0  1  0.50000000  0.00000000  0.00000000  1
  Ni  Ni1  1  0.00000000  0.00000000  0.50000000  1
  H  H0  1  0.74364600  0.40380200  0.74239600  1
  H  H1  1  0.24364600  0.59619800  0.75760400  1
  H  H2  1  0.25635400  0.59619800  0.25760400  1
  H  H3  1  0.75635400  0.40380200  0.24239600  1
  H  H4  1  0.65803000  0.28626000  0.81473800  1
  H  H5  1  0.15803000  0.71374000  0.68526200  1
  H  H6  1  0.34197000  0.71374000  0.18526200  1
  H  H7  1  0.84197000  0.28626000  0.31473800  1
  H  H8  1  0.69931800  0.88466500  0.07670300  1
  H  H9  1  0.19931800  0.11533500  0.42329700  1
  H  H10  1  0.30068200  0.11533500  0.92329700  1
  H  H11  1  0.80068200  0.88466500  0.57670300  1
  H  H12  1  0.62353700  0.68219600  0.10194100  1
  H  H13  1  0.12353700  0.31780400  0.39805900  1
  H  H14  1  0.37646300  0.31780400  0.89805900  1
  H  H15  1  0.87646300  0.68219600  0.60194100  1
  H  H16  1  0.51541100  0.05411300  0.83291700  1
  H  H17  1  0.01541100  0.94588700  0.66708300  1
  H  H18  1  0.48458900  0.94588700  0.16708300  1
  H  H19  1  0.98458900  0.05411300  0.33291700  1
  H  H20  1  0.61063700  0.89777700  0.88391900  1
  H  H21  1  0.11063700  0.10222300  0.61608100  1
  H  H22  1  0.38936300  0.10222300  0.11608100  1
  H  H23  1  0.88936300  0.89777700  0.38391900  1
  H  H24  1  0.57671400  0.30650500  0.05445600  1
  H  H25  1  0.07671400  0.69349500  0.44554400  1
  H  H26  1  0.42328600  0.69349500  0.94554400  1
  H  H27  1  0.92328600  0.30650500  0.55445600  1
  H  H28  1  0.60737500  0.39533200  0.95564800  1
  H  H29  1  0.10737500  0.60466800  0.54435200  1
  H  H30  1  0.39262500  0.60466800  0.04435200  1
  H  H31  1  0.89262500  0.39533200  0.45564800  1
  H  H32  1  0.73279300  0.63996100  0.94583900  1
  H  H33  1  0.23279300  0.36003900  0.55416100  1
  H  H34  1  0.26720700  0.36003900  0.05416100  1
  H  H35  1  0.76720700  0.63996100  0.44583900  1
  H  H36  1  0.71571300  0.64706100  0.85145900  1
  H  H37  1  0.21571300  0.35293900  0.64854100  1
  H  H38  1  0.28428700  0.35293900  0.14854100  1
  H  H39  1  0.78428700  0.64706100  0.35145900  1
  Cl  Cl0  1  0.62636900  0.55299600  0.54489100  1
  Cl  Cl1  1  0.12636900  0.44700400  0.95510900  1
  Cl  Cl2  1  0.37363100  0.44700400  0.45510900  1
  Cl  Cl3  1  0.87363100  0.55299600  0.04489100  1
  Cl  Cl4  1  0.42186000  0.26326200  0.70039700  1
  Cl  Cl5  1  0.92186000  0.73673800  0.79960300  1
  Cl  Cl6  1  0.57814000  0.73673800  0.29960300  1
  Cl  Cl7  1  0.07814000  0.26326200  0.20039700  1
  Cl  Cl8  1  0.61175900  0.13607600  0.42813400  1
  Cl  Cl9  1  0.11175900  0.86392400  0.07186600  1
  Cl  Cl10  1  0.38824100  0.86392400  0.57186600  1
  Cl  Cl11  1  0.88824100  0.13607600  0.92813400  1
  Cl  Cl12  1  0.65512400  0.93293400  0.66695200  1
  Cl  Cl13  1  0.15512400  0.06706600  0.83304800  1
  Cl  Cl14  1  0.34487600  0.06706600  0.33304800  1
  Cl  Cl15  1  0.84487600  0.93293400  0.16695200  1
  Cl  Cl16  1  0.40473900  0.63085900  0.81900600  1
  Cl  Cl17  1  0.90473900  0.36914100  0.68099400  1
  Cl  Cl18  1  0.59526100  0.36914100  0.18099400  1
  Cl  Cl19  1  0.09526100  0.63085900  0.31900600  1
  O  O0  1  0.67891900  0.42615200  0.77550000  1
  O  O1  1  0.17891900  0.57384800  0.72450000  1
  O  O2  1  0.32108100  0.57384800  0.22450000  1
  O  O3  1  0.82108100  0.42615200  0.27550000  1
  O  O4  1  0.63633200  0.82003300  0.05692900  1
  O  O5  1  0.13633200  0.17996700  0.44307100  1
  O  O6  1  0.36366800  0.17996700  0.94307100  1
  O  O7  1  0.86366800  0.82003300  0.55692900  1
  O  O8  1  0.57064100  0.03207700  0.87903400  1
  O  O9  1  0.07064100  0.96792300  0.62096600  1
  O  O10  1  0.42935900  0.96792300  0.12096600  1
  O  O11  1  0.92935900  0.03207700  0.37903400  1
  O  O12  1  0.58421900  0.26706900  0.00215500  1
  O  O13  1  0.08421900  0.73293100  0.49784500  1
  O  O14  1  0.41578100  0.73293100  0.99784500  1
  O  O15  1  0.91578100  0.26706900  0.50215500  1
  O  O16  1  0.67488900  0.65384000  0.90214800  1
  O  O17  1  0.17488900  0.34616000  0.59785200  1
  O  O18  1  0.32511100  0.34616000  0.09785200  1
  O  O19  1  0.82511100  0.65384000  0.40214800  1
loop_
_geom_bond_atom_site_label_1
_geom_bond_atom_site_label_2
_geom_bond_distance
_geom_bond_site_symmetry_2
Cd0 Cl12 2.577866 1_545
Cd0 Cl4 2.631284 1_555
Cd0 Cl0 2.666133 1_555
Cd0 Cl10 2.693710 1_545
Cd0 Cl2 2.694505 1_555
Cd0 Cl8 2.714389 1_555
Cd1 Cl13 2.577866 1_565
Cd1 Cl5 2.631284 1_455
Cd1 Cl1 2.666133 1_555
Cd1 Cl11 2.693710 1_465
Cd1 Cl3 2.694505 1_456
Cd1 Cl9 2.714389 1_556
Cd2 Cl14 2.577866 1_565
Cd2 Cl6 2.631284 1_555
Cd2 Cl2 2.666133 1_555
Cd2 Cl8 2.693710 1_565
Cd2 Cl0 2.694505 1_555
Cd2 Cl10 2.714389 1_555
Cd3 Cl15 2.577866 1_545
Cd3 Cl7 2.631284 1_655
Cd3 Cl3 2.666133 1_555
Cd3 Cl9 2.693710 1_645
Cd3 Cl1 2.694505 1_654
Cd3 Cl11 2.714389 1_554
Cd4 O0 2.406867 1_555
Cd4 Cl16 2.600816 1_555
Cd4 Cl4 2.602049 1_555
Cd4 Cl12 2.603101 1_555
Cd4 Cl10 2.696701 1_555
Cd4 Cl0 2.831069 1_555
Cd5 O1 2.406867 1_555
Cd5 Cl17 2.600816 1_455
Cd5 Cl5 2.602049 1_455
Cd5 Cl13 2.603101 1_555
Cd5 Cl11 2.696701 1_455
Cd5 Cl1 2.831069 1_555
Cd6 O2 2.406867 1_555
Cd6 Cl18 2.600816 1_555
Cd6 Cl6 2.602049 1_555
Cd6 Cl14 2.603101 1_555
Cd6 Cl8 2.696701 1_555
Cd6 Cl2 2.831069 1_555
Cd7 O3 2.406867 1_555
Cd7 Cl19 2.600816 1_655
Cd7 Cl7 2.602049 1_655
Cd7 Cl15 2.603101 1_555
Cd7 Cl9 2.696701 1_655
Cd7 Cl3 2.831069 1_555
Ni0 O6 2.073688 1_554
Ni0 O4 2.073688 1_545
Ni0 O12 2.073979 1_555
Ni0 O14 2.073979 1_544
Ni0 O10 2.110968 1_545
Ni0 O8 2.110968 1_554
Ni1 O5 2.073688 1_555
Ni1 O7 2.073688 1_445
Ni1 O13 2.073979 1_545
Ni1 O15 2.073979 1_455
Ni1 O9 2.110968 1_545
Ni1 O11 2.110968 1_455
H0 O0 0.990613 1_555
H1 O1 0.990613 1_555
H2 O2 0.990613 1_555
H3 O3 0.990613 1_555
H4 O0 0.984390 1_555
H5 O1 0.984390 1_555
H6 O2 0.984390 1_555
H7 O3 0.984390 1_555
H8 O4 0.981559 1_555
H9 O5 0.981559 1_555
H10 O6 0.981559 1_555
H11 O7 0.981559 1_555
H12 O4 0.991802 1_555
H13 O5 0.991802 1_555
H14 O6 0.991802 1_555
H15 O7 0.991802 1_555
H16 O8 0.983656 1_555
H17 O9 0.983656 1_555
H18 O10 0.983656 1_555
H19 O11 0.983656 1_555
H20 O8 1.003820 1_565
H21 O9 1.003820 1_545
H22 O10 1.003820 1_545
H23 O11 1.003820 1_565
H24 O12 0.984604 1_555
H25 O13 0.984604 1_555
H26 O14 0.984604 1_555
H27 O15 0.984604 1_555
H28 O12 0.988337 1_556
H29 O13 0.988337 1_555
H30 O14 0.988337 1_554
H31 O15 0.988337 1_555
H32 O16 0.984303 1_555
H33 O17 0.984303 1_555
H34 O18 0.984303 1_555
H35 O19 0.984303 1_555
H36 O16 0.982505 1_555
H37 O17 0.982505 1_555
H38 O18 0.982505 1_555
H39 O19 0.982505 1_555
Cl16 H14 2.110497 1_555
Cl17 H15 2.110497 1_555
Cl18 H12 2.110497 1_555
Cl19 H13 2.110497 1_555
