# generated using pymatgen
data_Li4Co3Cu2Sb3O16
_symmetry_space_group_name_H-M   'P 1'
_cell_length_a   6.00252900
_cell_length_b   5.95889466
_cell_length_c   9.80780911
_cell_angle_alpha   90.29974825
_cell_angle_beta   91.36912182
_cell_angle_gamma   119.67127905
_symmetry_Int_Tables_number   1
_chemical_formula_structural   Li4Co3Cu2Sb3O16
_chemical_formula_sum   'Li4 Co3 Cu2 Sb3 O16'
_cell_volume   304.66592883
_cell_formula_units_Z   1
loop_
 _symmetry_equiv_pos_site_id
 _symmetry_equiv_pos_as_xyz
  1  'x, y, z'
loop_
 _atom_site_type_symbol
 _atom_site_label
 _atom_site_symmetry_multiplicity
 _atom_site_fract_x
 _atom_site_fract_y
 _atom_site_fract_z
 _atom_site_occupancy
  Li  Li0  1  0.35608300  0.67768300  0.88182500  1
  Li  Li1  1  0.93038500  0.96922900  0.98672500  1
  Li  Li2  1  0.98125600  0.98568500  0.50517200  1
  Li  Li3  1  0.64830300  0.32620100  0.39825700  1
  Co  Co0  1  0.64387300  0.82584800  0.21603800  1
  Co  Co1  1  0.85964100  0.67269800  0.71392500  1
  Co  Co2  1  0.85902700  0.17987500  0.71373600  1
  Cu  Cu0  1  0.35155700  0.67208000  0.50897600  1
  Cu  Cu1  1  0.70166100  0.35191700  0.98382800  1
  Sb  Sb0  1  0.15009200  0.82439600  0.21468800  1
  Sb  Sb1  1  0.15008400  0.33140100  0.21633500  1
  Sb  Sb2  1  0.36511500  0.17986800  0.71623000  1
  O  O0  1  0.16837200  0.84358500  0.60416400  1
  O  O1  1  0.99911100  0.50446000  0.32892700  1
  O  O2  1  0.29791600  0.64950400  0.09773600  1
  O  O3  1  0.98967800  0.99833000  0.32217000  1
  O  O4  1  0.02005600  0.00738100  0.80986000  1
  O  O5  1  0.16710900  0.31564400  0.60444400  1
  O  O6  1  0.46279000  0.96261500  0.33253200  1
  O  O7  1  0.46129000  0.50638400  0.33690900  1
  O  O8  1  0.28100800  0.14325500  0.09989100  1
  O  O9  1  0.70179400  0.84927700  0.61866200  1
  O  O10  1  0.56140900  0.50569500  0.83354200  1
  O  O11  1  0.55934700  0.05158000  0.83362400  1
  O  O12  1  0.69568400  0.34458000  0.60983500  1
  O  O13  1  0.81825600  0.67123900  0.10401700  1
  O  O14  1  0.99857800  0.49468700  0.81123800  1
  O  O15  1  0.82052600  0.15520400  0.10455200  1
loop_
_geom_bond_atom_site_label_1
_geom_bond_atom_site_label_2
_geom_bond_distance
_geom_bond_site_symmetry_2
Li0 O14 1.969204 1_455
Li0 O11 2.005846 1_565
Li0 O10 2.016664 1_555
Li0 O2 2.148348 1_556
Li1 O4 1.810534 1_665
Li1 O15 1.935192 1_566
Li1 O13 1.950533 1_556
Li1 O8 2.110041 1_666
Li2 O3 1.797692 1_555
Li2 O9 1.860740 1_555
Li2 O5 1.953166 1_665
Li2 O0 1.954284 1_655
Li3 O1 1.971367 1_555
Li3 O6 1.977895 1_545
Li3 O7 1.985629 1_555
Li3 O12 2.082684 1_555
Co0 O6 2.019337 1_555
Co0 O13 2.037321 1_555
Co0 O15 2.046769 1_565
Co0 O3 2.054708 1_555
Co0 O7 2.061679 1_555
Co0 O2 2.115299 1_555
Co1 O14 1.892094 1_555
Co1 O4 1.955945 1_665
Co1 O9 1.957766 1_555
Co1 O12 1.964609 1_555
Co1 O0 1.966864 1_655
Co1 O10 1.979936 1_555
Co2 O14 1.876823 1_555
Co2 O9 1.933674 1_545
Co2 O4 1.956997 1_655
Co2 O5 1.961099 1_655
Co2 O12 1.969382 1_555
Co2 O11 1.987922 1_555
Cu0 O0 2.068022 1_555
Cu0 O5 2.087087 1_555
Cu0 O9 2.091466 1_555
Cu0 O7 2.221779 1_555
Cu0 O6 2.319472 1_555
Cu0 O1 2.510498 1_455
Cu1 O15 2.021688 1_556
Cu1 O13 2.029454 1_556
Cu1 O10 2.107044 1_555
Cu1 O11 2.121694 1_555
Cu1 O14 2.328865 1_555
Cu1 O8 2.502240 1_556
O0 Sb2 2.047006 1_565
O1 Sb1 2.016249 1_655
O1 Sb0 2.017822 1_655
O2 Sb1 2.034852 1_555
O2 Sb0 2.034895 1_555
O3 Sb1 2.030038 1_665
O3 Sb0 2.034155 1_655
O4 Sb2 2.045186 1_555
O5 Sb2 2.041646 1_555
O6 Sb0 1.973092 1_555
O7 Sb1 1.982002 1_555
O8 Sb1 2.020065 1_555
O8 Sb0 2.020343 1_545
O10 Sb2 2.031932 1_555
O11 Sb2 2.024056 1_555
O12 Sb2 2.042301 1_555
O13 Sb0 2.016220 1_655
O15 Sb1 2.011360 1_655
