# generated using pymatgen
data_Li6Fe3Co(PO4)6
_symmetry_space_group_name_H-M   'P 1'
_cell_length_a   8.51501100
_cell_length_b   8.56349188
_cell_length_c   8.56741020
_cell_angle_alpha   61.35398273
_cell_angle_beta   61.45366752
_cell_angle_gamma   61.49145883
_symmetry_Int_Tables_number   1
_chemical_formula_structural   Li6Fe3Co(PO4)6
_chemical_formula_sum   'Li6 Fe3 Co1 P6 O24'
_cell_volume   455.95933732
_cell_formula_units_Z   1
loop_
 _symmetry_equiv_pos_site_id
 _symmetry_equiv_pos_as_xyz
  1  'x, y, z'
loop_
 _atom_site_type_symbol
 _atom_site_label
 _atom_site_symmetry_multiplicity
 _atom_site_fract_x
 _atom_site_fract_y
 _atom_site_fract_z
 _atom_site_occupancy
  Li  Li0  1  0.02572400  0.00511500  0.99274200  1
  Li  Li1  1  0.75119200  0.15500800  0.34768200  1
  Li  Li2  1  0.47504100  0.50394700  0.49286000  1
  Li  Li3  1  0.22619100  0.84863700  0.65557200  1
  Li  Li4  1  0.65912400  0.22601100  0.84767200  1
  Li  Li5  1  0.84600200  0.65939500  0.22556800  1
  Fe  Fe0  1  0.14646900  0.14411300  0.13609500  1
  Fe  Fe1  1  0.35246600  0.36425700  0.35448000  1
  Fe  Fe2  1  0.64645500  0.64626900  0.64773400  1
  Co  Co0  1  0.85712200  0.85583100  0.85592700  1
  P  P0  1  0.04717800  0.74928900  0.45948600  1
  P  P1  1  0.45948600  0.04744600  0.74698900  1
  P  P2  1  0.74828900  0.46169400  0.04574900  1
  P  P3  1  0.24481400  0.54577100  0.95619400  1
  P  P4  1  0.54804900  0.96124400  0.24562600  1
  P  P5  1  0.95420900  0.24426300  0.54151500  1
  O  O0  1  0.12546600  0.29135200  0.49756100  1
  O  O1  1  0.29961400  0.51280900  0.11733100  1
  O  O2  1  0.04009700  0.92208800  0.27671500  1
  O  O3  1  0.53339200  0.11878300  0.29545200  1
  O  O4  1  0.24086600  0.59459900  0.43150900  1
  O  O5  1  0.02190000  0.79933800  0.62415200  1
  O  O6  1  0.26831000  0.06349800  0.90738900  1
  O  O7  1  0.45465200  0.23298000  0.57785400  1
  O  O8  1  0.59351900  0.43373900  0.24194500  1
  O  O9  1  0.19637500  0.38130000  0.98878700  1
  O  O10  1  0.07457600  0.73685700  0.94634000  1
  O  O11  1  0.37225800  0.00324700  0.20797200  1
  O  O12  1  0.62374000  0.01789000  0.80192300  1
  O  O13  1  0.90699500  0.26706700  0.06420700  1
  O  O14  1  0.80171600  0.62412600  0.01873800  1
  O  O15  1  0.39862100  0.58127400  0.75877700  1
  O  O16  1  0.58088500  0.76314800  0.39859800  1
  O  O17  1  0.73516900  0.94715000  0.07167800  1
  O  O18  1  0.96719700  0.20213200  0.38038900  1
  O  O19  1  0.75999100  0.39954500  0.58429400  1
  O  O20  1  0.49382800  0.88728100  0.68714100  1
  O  O21  1  0.94911000  0.07326000  0.73185700  1
  O  O22  1  0.68405300  0.49608300  0.88943900  1
  O  O23  1  0.88985700  0.68116000  0.49906100  1
loop_
_geom_bond_atom_site_label_1
_geom_bond_atom_site_label_2
_geom_bond_distance
_geom_bond_site_symmetry_2
Li0 O6 2.059889 1_555
Li0 O2 2.232164 1_546
Li0 O13 2.233703 1_456
Li0 O10 2.326737 1_545
Li0 O21 2.354026 1_455
Li0 O17 2.464986 1_446
Li1 O8 2.085825 1_555
Li1 O13 2.116735 1_555
Li1 O18 2.221230 1_555
Li1 O3 2.282829 1_555
Li1 O2 2.334353 1_645
Li1 O7 2.367377 1_555
Li2 O4 1.996948 1_555
Li2 O8 2.141938 1_555
Li2 O7 2.142061 1_555
Li2 O15 2.381276 1_555
Li2 O16 2.426251 1_555
Li2 O19 2.524772 1_555
Li3 O15 2.066504 1_555
Li3 O5 2.129370 1_555
Li3 O10 2.146701 1_555
Li3 O21 2.256804 1_465
Li3 O20 2.602116 1_555
Li4 O19 2.046642 1_555
Li4 O21 2.147626 1_555
Li4 O12 2.171639 1_555
Li4 O17 2.263312 1_546
Li5 O16 2.057418 1_555
Li5 O17 2.134341 1_555
Li5 O14 2.152647 1_555
Li5 O10 2.282979 1_654
Fe0 O11 1.932915 1_555
Fe0 O9 1.937137 1_554
Fe0 O6 2.015597 1_554
Fe0 O13 2.043284 1_455
Fe0 O18 2.043799 1_455
Fe0 O2 2.071612 1_545
Fe1 O0 1.944786 1_555
Fe1 O1 1.948873 1_555
Fe1 O4 2.022093 1_555
Fe1 O8 2.054523 1_555
Fe1 O3 2.057012 1_555
Fe1 O7 2.068396 1_555
Fe2 O23 1.926241 1_555
Fe2 O22 1.931783 1_555
Fe2 O20 1.936745 1_555
Fe2 O19 2.084002 1_555
Fe2 O15 2.088780 1_555
Fe2 O16 2.103950 1_555
Co0 O14 1.927769 1_556
Co0 O12 1.928649 1_565
Co0 O5 1.938051 1_655
Co0 O10 1.969734 1_655
Co0 O17 1.970483 1_556
Co0 O21 1.977142 1_565
O0 P5 1.523753 1_455
O1 P3 1.523018 1_554
O2 P0 1.558435 1_555
O3 P4 1.535693 1_545
O4 P0 1.540582 1_555
O5 P0 1.556188 1_555
O6 P1 1.544926 1_555
O7 P1 1.553368 1_555
O8 P2 1.554890 1_555
O9 P3 1.516310 1_555
O10 P3 1.583129 1_555
O11 P4 1.519982 1_545
O12 P1 1.555218 1_555
O13 P2 1.559038 1_555
O14 P2 1.546017 1_555
O15 P3 1.561516 1_555
O16 P4 1.561840 1_555
O17 P4 1.579140 1_555
O18 P5 1.530202 1_555
O19 P5 1.557657 1_555
O20 P1 1.541994 1_565
O21 P5 1.583985 1_555
O22 P2 1.532144 1_556
O23 P0 1.540174 1_655
