# generated using pymatgen
data_Li4Mn3Co3(CuO8)2
_symmetry_space_group_name_H-M   'P 1'
_cell_length_a   5.74049723
_cell_length_b   5.74049723
_cell_length_c   9.54958012
_cell_angle_alpha   89.87129149
_cell_angle_beta   89.87129149
_cell_angle_gamma   59.97050694
_symmetry_Int_Tables_number   1
_chemical_formula_structural   Li4Mn3Co3(CuO8)2
_chemical_formula_sum   'Li4 Mn3 Co3 Cu2 O16'
_cell_volume   272.44781294
_cell_formula_units_Z   1
loop_
 _symmetry_equiv_pos_site_id
 _symmetry_equiv_pos_as_xyz
  1  'x, y, z'
loop_
 _atom_site_type_symbol
 _atom_site_label
 _atom_site_symmetry_multiplicity
 _atom_site_fract_x
 _atom_site_fract_y
 _atom_site_fract_z
 _atom_site_occupancy
  Li  Li0  1  0.66491600  0.66491600  0.89971800  1
  Li  Li1  1  0.00444100  0.00444100  0.99806200  1
  Li  Li2  1  0.00538200  0.00538200  0.49382600  1
  Li  Li3  1  0.33170600  0.33170600  0.39433000  1
  Mn  Mn0  1  0.83080300  0.83080300  0.21418500  1
  Mn  Mn1  1  0.66171800  0.16948400  0.71552500  1
  Mn  Mn2  1  0.16948400  0.66171800  0.71552500  1
  Co  Co0  1  0.83060900  0.33818200  0.21332100  1
  Co  Co1  1  0.33818200  0.83060900  0.21332100  1
  Co  Co2  1  0.16878400  0.16878400  0.71223200  1
  Cu  Cu0  1  0.66688300  0.66688300  0.48341500  1
  Cu  Cu1  1  0.33238200  0.33238200  0.99668100  1
  O  O0  1  0.84361600  0.32386000  0.60741500  1
  O  O1  1  0.51627700  0.51627700  0.32498800  1
  O  O2  1  0.66711900  0.66711900  0.10858700  1
  O  O3  1  0.99989400  0.99989400  0.30866500  1
  O  O4  1  0.00151700  0.00151700  0.81136000  1
  O  O5  1  0.32386000  0.84361600  0.60741500  1
  O  O6  1  0.96141800  0.51518500  0.33352100  1
  O  O7  1  0.51518500  0.96141800  0.33352100  1
  O  O8  1  0.15909300  0.15909300  0.10789700  1
  O  O9  1  0.84185400  0.84185400  0.60514600  1
  O  O10  1  0.47593200  0.03614500  0.83135600  1
  O  O11  1  0.03614500  0.47593200  0.83135600  1
  O  O12  1  0.33401800  0.33401800  0.60807200  1
  O  O13  1  0.68075000  0.16003400  0.10277000  1
  O  O14  1  0.48224100  0.48224100  0.83322600  1
  O  O15  1  0.16003400  0.68075000  0.10277000  1
loop_
_geom_bond_atom_site_label_1
_geom_bond_atom_site_label_2
_geom_bond_distance
_geom_bond_site_symmetry_2
Li0 O14 1.925908 1_555
Li0 O11 1.956381 1_655
Li0 O10 1.956381 1_565
Li0 O2 1.994788 1_556
Li1 O4 1.783238 1_555
Li1 O8 1.863779 1_556
Li1 O13 1.893368 1_456
Li1 O15 1.893368 1_546
Li2 O3 1.769193 1_445
Li2 O5 1.920029 1_545
Li2 O0 1.920029 1_455
Li2 O9 1.940507 1_445
Li3 O6 1.930507 1_455
Li3 O7 1.930507 1_545
Li3 O1 1.949614 1_555
Li3 O12 2.041335 1_555
Mn0 O3 1.910323 1_555
Mn0 O2 1.917004 1_555
Mn0 O6 1.943812 1_555
Mn0 O7 1.943812 1_555
Mn0 O13 1.952326 1_565
Mn0 O15 1.952326 1_655
Mn1 O4 1.921910 1_655
Mn1 O14 1.923722 1_555
Mn1 O12 1.926076 1_555
Mn1 O10 1.937735 1_555
Mn1 O9 1.942953 1_545
Mn1 O0 1.964369 1_555
Mn2 O4 1.921910 1_565
Mn2 O14 1.923722 1_555
Mn2 O12 1.926076 1_555
Mn2 O11 1.937735 1_555
Mn2 O9 1.942953 1_455
Mn2 O5 1.964369 1_555
Co0 O1 1.894241 1_555
Co0 O3 1.910943 1_545
Co0 O2 1.915376 1_555
Co0 O8 1.918854 1_655
Co0 O6 1.920066 1_555
Co0 O13 1.946765 1_555
Co1 O1 1.894241 1_555
Co1 O3 1.910943 1_455
Co1 O2 1.915376 1_555
Co1 O8 1.918854 1_565
Co1 O7 1.920066 1_555
Co1 O15 1.946765 1_555
Co2 O0 1.902605 1_455
Co2 O5 1.902605 1_545
Co2 O10 1.908945 1_555
Co2 O11 1.908945 1_555
Co2 O4 1.911725 1_555
Co2 O12 1.918547 1_555
Cu0 O6 2.046237 1_555
Cu0 O7 2.046237 1_555
Cu0 O0 2.074687 1_555
Cu0 O5 2.074687 1_555
Cu0 O9 2.095073 1_555
Cu0 O1 2.131590 1_555
Cu1 O13 2.007174 1_556
Cu1 O15 2.007174 1_556
Cu1 O8 2.021892 1_556
Cu1 O14 2.155285 1_555
Cu1 O10 2.160350 1_555
Cu1 O11 2.160350 1_555
