# generated using pymatgen
data_MnCr(PO4)2
_symmetry_space_group_name_H-M   'P 1'
_cell_length_a   8.40077493
_cell_length_b   8.40077493
_cell_length_c   8.40077485
_cell_angle_alpha   61.61217058
_cell_angle_beta   61.61217058
_cell_angle_gamma   61.61216695
_symmetry_Int_Tables_number   1
_chemical_formula_structural   MnCr(PO4)2
_chemical_formula_sum   'Mn3 Cr3 P6 O24'
_cell_volume   434.38026708
_cell_formula_units_Z   3
loop_
 _symmetry_equiv_pos_site_id
 _symmetry_equiv_pos_as_xyz
  1  'x, y, z'
loop_
 _atom_site_type_symbol
 _atom_site_label
 _atom_site_symmetry_multiplicity
 _atom_site_fract_x
 _atom_site_fract_y
 _atom_site_fract_z
 _atom_site_occupancy
  Mn  Mn0  1  0.64473600  0.64473600  0.64473600  1
  Mn  Mn1  1  0.85519100  0.85519100  0.85519100  1
  Mn  Mn2  1  0.35484100  0.35484100  0.35484100  1
  Cr  Cr0  1  0.99955500  0.99955500  0.99955500  1
  Cr  Cr1  1  0.14230100  0.14230100  0.14230100  1
  Cr  Cr2  1  0.49981200  0.49981200  0.49981200  1
  P  P0  1  0.95310900  0.24937500  0.54667600  1
  P  P1  1  0.54667600  0.95310900  0.24937500  1
  P  P2  1  0.24937500  0.54667600  0.95310900  1
  P  P3  1  0.74973600  0.45181100  0.04885300  1
  P  P4  1  0.45181100  0.04885300  0.74973600  1
  P  P5  1  0.04885300  0.74973600  0.45181100  1
  O  O0  1  0.51241500  0.10597400  0.31980200  1
  O  O1  1  0.31980200  0.51241500  0.10597400  1
  O  O2  1  0.10597400  0.31980200  0.51241500  1
  O  O3  1  0.93693100  0.09512800  0.75048600  1
  O  O4  1  0.99641100  0.17732300  0.39140800  1
  O  O5  1  0.74941900  0.40491600  0.56028400  1
  O  O6  1  0.75048600  0.93693100  0.09512800  1
  O  O7  1  0.56028400  0.74941900  0.40491600  1
  O  O8  1  0.82202200  0.60522100  0.01031000  1
  O  O9  1  0.40491600  0.56028400  0.74941900  1
  O  O10  1  0.90653700  0.24745000  0.06521700  1
  O  O11  1  0.60522100  0.01031000  0.82202200  1
  O  O12  1  0.39140800  0.99641100  0.17732300  1
  O  O13  1  0.09512800  0.75048600  0.93693100  1
  O  O14  1  0.59688100  0.43535300  0.25252700  1
  O  O15  1  0.17732300  0.39140800  0.99641100  1
  O  O16  1  0.43535300  0.25252700  0.59688100  1
  O  O17  1  0.24745000  0.06521700  0.90653700  1
  O  O18  1  0.25252700  0.59688100  0.43535300  1
  O  O19  1  0.01031000  0.82202200  0.60522100  1
  O  O20  1  0.06521700  0.90653700  0.24745000  1
  O  O21  1  0.89632000  0.67728000  0.48838300  1
  O  O22  1  0.67728000  0.48838300  0.89632000  1
  O  O23  1  0.48838300  0.89632000  0.67728000  1
loop_
_geom_bond_atom_site_label_1
_geom_bond_atom_site_label_2
_geom_bond_distance
_geom_bond_site_symmetry_2
Mn0 O23 1.958359 1_555
Mn0 O22 1.958359 1_555
Mn0 O21 1.958359 1_555
Mn0 O5 2.101612 1_555
Mn0 O7 2.101612 1_555
Mn0 O9 2.101612 1_555
Mn1 O11 1.947973 1_565
Mn1 O19 1.947973 1_655
Mn1 O8 1.947973 1_556
Mn1 O13 2.089020 1_655
Mn1 O6 2.089020 1_556
Mn1 O3 2.089020 1_565
Mn2 O0 1.947553 1_555
Mn2 O1 1.947553 1_555
Mn2 O2 1.947553 1_555
Mn2 O18 2.103268 1_555
Mn2 O16 2.103268 1_555
Mn2 O14 2.103269 1_555
Cr0 O13 2.084963 1_655
Cr0 O3 2.084963 1_565
Cr0 O6 2.084963 1_556
Cr0 O10 2.094470 1_566
Cr0 O20 2.094470 1_656
Cr0 O17 2.094470 1_665
Cr1 O12 1.942108 1_545
Cr1 O4 1.942108 1_455
Cr1 O15 1.942108 1_554
Cr1 O10 2.033337 1_455
Cr1 O17 2.033337 1_554
Cr1 O20 2.033337 1_545
Cr2 O18 2.076705 1_555
Cr2 O14 2.076705 1_555
Cr2 O16 2.076705 1_555
Cr2 O5 2.080592 1_555
Cr2 O9 2.080592 1_555
Cr2 O7 2.080592 1_555
O0 P1 1.513633 1_545
O1 P2 1.513633 1_554
O2 P0 1.513633 1_455
O3 P0 1.570231 1_555
O4 P0 1.513367 1_555
O5 P0 1.574311 1_555
O6 P1 1.570231 1_555
O7 P1 1.574311 1_555
O8 P3 1.514900 1_555
O9 P2 1.574311 1_555
O10 P3 1.580772 1_555
O11 P4 1.514900 1_555
O12 P1 1.513367 1_555
O13 P2 1.570231 1_555
O14 P3 1.565345 1_555
O15 P2 1.513367 1_555
O16 P4 1.565345 1_555
O17 P4 1.580772 1_555
O18 P5 1.565345 1_555
O19 P5 1.514900 1_555
O20 P5 1.580772 1_555
O21 P5 1.515371 1_655
O22 P3 1.515371 1_556
O23 P4 1.515371 1_565
