# generated using pymatgen
data_Li6VCrP2(CO7)2
_symmetry_space_group_name_H-M   'P 1'
_cell_length_a   6.53157800
_cell_length_b   4.99675400
_cell_length_c   8.56425728
_cell_angle_alpha   85.37058339
_cell_angle_beta   90.00000000
_cell_angle_gamma   90.00000000
_symmetry_Int_Tables_number   1
_chemical_formula_structural   Li6VCrP2(CO7)2
_chemical_formula_sum   'Li6 V1 Cr1 P2 C2 O14'
_cell_volume   278.59711885
_cell_formula_units_Z   1
loop_
 _symmetry_equiv_pos_site_id
 _symmetry_equiv_pos_as_xyz
  1  'x, y, z'
loop_
 _atom_site_type_symbol
 _atom_site_label
 _atom_site_symmetry_multiplicity
 _atom_site_fract_x
 _atom_site_fract_y
 _atom_site_fract_z
 _atom_site_occupancy
  Li  Li0  1  0.50000000  0.76080100  0.09089900  1
  Li  Li1  1  0.27442400  0.24726500  0.27515500  1
  Li  Li2  1  0.72557600  0.24726500  0.27515500  1
  Li  Li3  1  0.77940800  0.75307900  0.72487500  1
  Li  Li4  1  0.22059200  0.75307900  0.72487500  1
  Li  Li5  1  0.00000000  0.24098300  0.90541800  1
  V  V0  1  0.50000000  0.20716900  0.67032400  1
  Cr  Cr0  1  0.00000000  0.78416000  0.33590700  1
  P  P0  1  0.50000000  0.71712800  0.41283500  1
  P  P1  1  0.00000000  0.28109200  0.59052100  1
  C  C0  1  0.00000000  0.70596500  0.03122500  1
  C  C1  1  0.50000000  0.29889600  0.96468900  1
  O  O0  1  0.00000000  0.95286600  0.06461000  1
  O  O1  1  0.50000000  0.35402900  0.11089600  1
  O  O2  1  0.00000000  0.51565300  0.14564000  1
  O  O3  1  0.31354000  0.82430200  0.31130800  1
  O  O4  1  0.68646000  0.82430200  0.31130800  1
  O  O5  1  0.00000000  0.18863100  0.42154200  1
  O  O6  1  0.50000000  0.40424400  0.42900300  1
  O  O7  1  0.00000000  0.59405900  0.57915000  1
  O  O8  1  0.50000000  0.81837600  0.57801700  1
  O  O9  1  0.18390800  0.16970800  0.69039800  1
  O  O10  1  0.81609200  0.16970800  0.69039800  1
  O  O11  1  0.50000000  0.49231900  0.85342500  1
  O  O12  1  0.00000000  0.64099000  0.88729500  1
  O  O13  1  0.50000000  0.05392800  0.92513200  1
loop_
_geom_bond_atom_site_label_1
_geom_bond_atom_site_label_2
_geom_bond_distance
_geom_bond_site_symmetry_2
Li0 O13 1.955789 1_564
Li0 O1 2.025921 1_555
Li0 O3 2.289928 1_555
Li0 O4 2.289928 1_555
Li0 O11 2.525162 1_554
Li1 O1 2.076831 1_555
Li1 O3 2.126535 1_545
Li1 O6 2.165399 1_555
Li1 O5 2.193416 1_555
Li1 O2 2.449786 1_555
Li2 O1 2.076831 1_555
Li2 O4 2.126535 1_545
Li2 O6 2.165399 1_555
Li2 O5 2.193416 1_655
Li2 O2 2.449786 1_655
Li3 O12 2.049091 1_655
Li3 O10 2.092661 1_565
Li3 O7 2.103557 1_655
Li3 O8 2.225451 1_555
Li3 O11 2.451271 1_555
Li4 O12 2.049091 1_555
Li4 O9 2.092661 1_565
Li4 O7 2.103557 1_555
Li4 O8 2.225451 1_555
Li4 O11 2.451271 1_555
Li5 O0 1.901187 1_546
Li5 O12 1.992225 1_555
Li5 O9 2.250929 1_555
Li5 O10 2.250929 1_455
Li5 O2 2.563593 1_556
Cr0 O4 2.066817 1_455
Cr0 O3 2.066817 1_555
Cr0 O2 2.192766 1_555
Cr0 O5 2.204938 1_565
Cr0 O7 2.218687 1_555
Cr0 O0 2.406846 1_555
C0 O0 1.288686 1_555
C0 O12 1.299785 1_554
C0 O2 1.309214 1_555
C1 O13 1.296145 1_555
C1 O11 1.301323 1_555
C1 O1 1.303636 1_556
O3 P0 1.565530 1_555
O4 P0 1.565530 1_555
O5 P1 1.554254 1_555
O6 P0 1.558352 1_555
O6 V0 2.216433 1_555
O7 P1 1.558984 1_555
O8 P0 1.540370 1_555
O8 V0 2.155681 1_565
O9 P1 1.551604 1_555
O9 V0 2.078915 1_555
O10 P1 1.551604 1_655
O10 V0 2.078915 1_555
O11 V0 2.202227 1_555
O13 V0 2.253610 1_555
