# generated using pymatgen
data_Na3SrPCO7
_symmetry_space_group_name_H-M   'P 1'
_cell_length_a   7.31761200
_cell_length_b   5.24345200
_cell_length_c   9.41329899
_cell_angle_alpha   89.55181460
_cell_angle_beta   90.00000000
_cell_angle_gamma   90.00000000
_symmetry_Int_Tables_number   1
_chemical_formula_structural   Na3SrPCO7
_chemical_formula_sum   'Na6 Sr2 P2 C2 O14'
_cell_volume   361.17297058
_cell_formula_units_Z   2
loop_
 _symmetry_equiv_pos_site_id
 _symmetry_equiv_pos_as_xyz
  1  'x, y, z'
loop_
 _atom_site_type_symbol
 _atom_site_label
 _atom_site_symmetry_multiplicity
 _atom_site_fract_x
 _atom_site_fract_y
 _atom_site_fract_z
 _atom_site_occupancy
  Na  Na0  1  0.75000000  0.24111600  0.91717200  1
  Na  Na1  1  0.98775100  0.76199000  0.75041300  1
  Na  Na2  1  0.51224900  0.76199000  0.75041300  1
  Na  Na3  1  0.48775100  0.23801000  0.24958700  1
  Na  Na4  1  0.01224900  0.23801000  0.24958700  1
  Na  Na5  1  0.25000000  0.75888400  0.08282800  1
  Sr  Sr0  1  0.25000000  0.23916600  0.63110700  1
  Sr  Sr1  1  0.75000000  0.76083400  0.36889300  1
  P  P0  1  0.75000000  0.29936800  0.60031000  1
  P  P1  1  0.25000000  0.70063200  0.39969000  1
  C  C0  1  0.25000000  0.26674600  0.94809800  1
  C  C1  1  0.75000000  0.73325400  0.05190200  1
  O  O0  1  0.75000000  0.71682900  0.91394300  1
  O  O1  1  0.25000000  0.04318000  0.88806700  1
  O  O2  1  0.25000000  0.47488600  0.87081100  1
  O  O3  1  0.92080900  0.19013400  0.67827400  1
  O  O4  1  0.57919100  0.19013400  0.67827400  1
  O  O5  1  0.75000000  0.59568500  0.61140200  1
  O  O6  1  0.25000000  0.76383700  0.56299700  1
  O  O7  1  0.75000000  0.23616300  0.43700300  1
  O  O8  1  0.25000000  0.40431500  0.38859800  1
  O  O9  1  0.42080900  0.80986600  0.32172600  1
  O  O10  1  0.07919100  0.80986600  0.32172600  1
  O  O11  1  0.75000000  0.52511400  0.12918900  1
  O  O12  1  0.75000000  0.95682000  0.11193300  1
  O  O13  1  0.25000000  0.28317100  0.08605700  1
loop_
_geom_bond_atom_site_label_1
_geom_bond_atom_site_label_2
_geom_bond_distance
_geom_bond_site_symmetry_2
Na0 O12 2.353839 1_546
Na0 O0 2.494326 1_555
Na0 O11 2.499428 1_556
Na0 O4 2.588500 1_555
Na0 O3 2.588500 1_555
Na0 O0 2.749479 1_545
Na1 O0 2.333836 1_555
Na1 O5 2.348907 1_555
Na1 O3 2.391036 1_565
Na1 O6 2.606710 1_655
Na1 O2 2.684539 1_655
Na1 O1 2.750546 1_665
Na2 O0 2.333836 1_555
Na2 O5 2.348907 1_555
Na2 O4 2.391036 1_565
Na2 O6 2.606710 1_555
Na2 O2 2.684539 1_555
Na2 O1 2.750546 1_565
Na3 O13 2.333836 1_555
Na3 O8 2.348907 1_555
Na3 O9 2.391036 1_545
Na3 O7 2.606710 1_555
Na3 O11 2.684539 1_555
Na3 O12 2.750546 1_545
Na4 O13 2.333836 1_555
Na4 O8 2.348907 1_555
Na4 O10 2.391036 1_545
Na4 O7 2.606710 1_455
Na4 O11 2.684539 1_455
Na4 O12 2.750546 1_445
Na5 O1 2.353839 1_564
Na5 O13 2.494326 1_555
Na5 O2 2.499428 1_554
Na5 O9 2.588500 1_555
Na5 O10 2.588500 1_555
Na5 O13 2.749479 1_565
C0 O13 1.302174 1_556
C0 O1 1.305327 1_555
C0 O2 1.306891 1_555
C1 O0 1.302174 1_554
C1 O12 1.305327 1_555
C1 O11 1.306891 1_555
O1 Sr0 2.620679 1_555
O2 Sr0 2.581213 1_555
O3 P0 1.556398 1_555
O3 Sr0 2.462561 1_655
O4 P0 1.556398 1_555
O4 Sr0 2.462561 1_555
O5 P0 1.558043 1_555
O5 Sr1 2.435193 1_555
O6 P1 1.575108 1_555
O6 Sr0 2.578360 1_565
O6 Sr0 2.819920 1_555
O7 P0 1.575108 1_555
O7 Sr1 2.578360 1_545
O7 Sr1 2.819920 1_555
O8 P1 1.558043 1_555
O8 Sr0 2.435193 1_555
O9 P1 1.556398 1_555
O9 Sr1 2.462561 1_555
O10 P1 1.556398 1_555
O10 Sr1 2.462561 1_455
O11 Sr1 2.581213 1_555
O12 Sr1 2.620679 1_555
