# generated using pymatgen
data_Li3Ti2NiO6
_symmetry_space_group_name_H-M   'P 1'
_cell_length_a   6.60615864
_cell_length_b   6.60615864
_cell_length_c   6.01621447
_cell_angle_alpha   76.18722697
_cell_angle_beta   76.18722697
_cell_angle_gamma   25.63617326
_symmetry_Int_Tables_number   1
_chemical_formula_structural   Li3Ti2NiO6
_chemical_formula_sum   'Li3 Ti2 Ni1 O6'
_cell_volume   110.13820209
_cell_formula_units_Z   1
loop_
 _symmetry_equiv_pos_site_id
 _symmetry_equiv_pos_as_xyz
  1  'x, y, z'
loop_
 _atom_site_type_symbol
 _atom_site_label
 _atom_site_symmetry_multiplicity
 _atom_site_fract_x
 _atom_site_fract_y
 _atom_site_fract_z
 _atom_site_occupancy
  Li  Li0  1  0.00000000  0.00000000  0.00000000  1
  Li  Li1  1  0.66393100  0.66393100  0.66385100  1
  Li  Li2  1  0.33606900  0.33606900  0.33614900  1
  Ti  Ti0  1  0.66092800  0.66092800  0.17431500  1
  Ti  Ti1  1  0.33907200  0.33907200  0.82568500  1
  Ni  Ni0  1  0.00000000  0.00000000  0.50000000  1
  O  O0  1  0.16701700  0.16701700  0.40267200  1
  O  O1  1  0.82597400  0.82597400  0.07132900  1
  O  O2  1  0.83298300  0.83298300  0.59732800  1
  O  O3  1  0.49182000  0.49182000  0.75120500  1
  O  O4  1  0.50818000  0.50818000  0.24879500  1
  O  O5  1  0.17402600  0.17402600  0.92867100  1
loop_
_geom_bond_atom_site_label_1
_geom_bond_atom_site_label_2
_geom_bond_distance
_geom_bond_site_symmetry_2
Li0 O3 2.115847 1_454
Li0 O3 2.115847 1_544
Li0 O4 2.115847 1_455
Li0 O4 2.115847 1_545
Li0 O1 2.177042 1_445
Li0 O5 2.177042 1_554
Li1 O2 2.115800 1_555
Li1 O0 2.141970 1_655
Li1 O0 2.141970 1_565
Li1 O3 2.149892 1_555
Li1 O5 2.191974 1_565
Li1 O5 2.191974 1_655
Li2 O0 2.115800 1_555
Li2 O2 2.141970 1_455
Li2 O2 2.141970 1_545
Li2 O4 2.149892 1_555
Li2 O1 2.191974 1_545
Li2 O1 2.191974 1_455
Ni0 O0 2.087019 1_555
Ni0 O2 2.087019 1_445
Ni0 O3 2.089303 1_545
Ni0 O4 2.089303 1_545
Ni0 O3 2.089303 1_455
Ni0 O4 2.089303 1_455
O0 Ti0 2.023466 1_545
O0 Ti0 2.023466 1_455
O1 Ti1 2.058743 1_564
O1 Ti1 2.058743 1_654
O1 Ti0 2.063947 1_555
O2 Ti1 2.023466 1_655
O2 Ti1 2.023466 1_565
O3 Ti1 1.908259 1_555
O4 Ti0 1.908259 1_555
O5 Ti0 2.058743 1_456
O5 Ti0 2.058743 1_546
O5 Ti1 2.063947 1_555
