# generated using pymatgen
data_Li4Mn3Nb3(SbO8)2
_symmetry_space_group_name_H-M   'P 1'
_cell_length_a   6.34657639
_cell_length_b   6.34657639
_cell_length_c   10.54201424
_cell_angle_alpha   89.68663589
_cell_angle_beta   89.68663589
_cell_angle_gamma   58.06342208
_symmetry_Int_Tables_number   1
_chemical_formula_structural   Li4Mn3Nb3(SbO8)2
_chemical_formula_sum   'Li4 Mn3 Nb3 Sb2 O16'
_cell_volume   360.34179200
_cell_formula_units_Z   1
loop_
 _symmetry_equiv_pos_site_id
 _symmetry_equiv_pos_as_xyz
  1  'x, y, z'
loop_
 _atom_site_type_symbol
 _atom_site_label
 _atom_site_symmetry_multiplicity
 _atom_site_fract_x
 _atom_site_fract_y
 _atom_site_fract_z
 _atom_site_occupancy
  Li  Li0  1  0.66812600  0.66812600  0.09876800  1
  Li  Li1  1  0.99675400  0.99675400  0.99756200  1
  Li  Li2  1  0.00042500  0.00042500  0.51264800  1
  Li  Li3  1  0.34476500  0.34476500  0.60870000  1
  Mn  Mn0  1  0.33576500  0.82761900  0.78330400  1
  Mn  Mn1  1  0.82761900  0.33576500  0.78330400  1
  Mn  Mn2  1  0.16372000  0.16372000  0.29273100  1
  Nb  Nb0  1  0.82384900  0.82384900  0.76896100  1
  Nb  Nb1  1  0.16156800  0.65896900  0.28175300  1
  Nb  Nb2  1  0.65896900  0.16156800  0.28175300  1
  Sb  Sb0  1  0.64249800  0.64249800  0.50236400  1
  Sb  Sb1  1  0.32265500  0.32265500  0.97646400  1
  O  O0  1  0.30630000  0.82192500  0.40530100  1
  O  O1  1  0.52410300  0.52410300  0.65429700  1
  O  O2  1  0.67349300  0.67349300  0.88460900  1
  O  O3  1  0.99579700  0.99579700  0.69488600  1
  O  O4  1  0.99425500  0.99425500  0.18309200  1
  O  O5  1  0.82192500  0.30630000  0.40530100  1
  O  O6  1  0.53256300  0.99240800  0.66981400  1
  O  O7  1  0.99240800  0.53256300  0.66981400  1
  O  O8  1  0.15577800  0.15577800  0.89203800  1
  O  O9  1  0.86165200  0.86165200  0.39242600  1
  O  O10  1  0.01213400  0.51792500  0.19067100  1
  O  O11  1  0.51792500  0.01213400  0.19067100  1
  O  O12  1  0.34895900  0.34895900  0.39330600  1
  O  O13  1  0.15183400  0.67008100  0.89686600  1
  O  O14  1  0.48965500  0.48965500  0.18316200  1
  O  O15  1  0.67008100  0.15183400  0.89686600  1
loop_
_geom_bond_atom_site_label_1
_geom_bond_atom_site_label_2
_geom_bond_distance
_geom_bond_site_symmetry_2
Li0 O10 2.103621 1_655
Li0 O11 2.103621 1_565
Li0 O14 2.166274 1_555
Li0 O2 2.258080 1_554
Li1 O4 1.955883 1_556
Li1 O15 2.061013 1_565
Li1 O13 2.061013 1_655
Li1 O8 2.080335 1_665
Li2 O3 1.921521 1_445
Li2 O0 1.998963 1_545
Li2 O5 1.998963 1_455
Li2 O9 2.000677 1_445
Li3 O6 2.002328 1_545
Li3 O7 2.002328 1_455
Li3 O1 2.050485 1_555
Li3 O12 2.270873 1_555
Mn0 O3 2.058669 1_455
Mn0 O8 2.109793 1_565
Mn0 O2 2.118266 1_555
Mn0 O1 2.136314 1_555
Mn0 O13 2.236501 1_555
Mn0 O6 2.331763 1_555
Mn1 O3 2.058669 1_545
Mn1 O8 2.109793 1_655
Mn1 O2 2.118266 1_555
Mn1 O1 2.136314 1_555
Mn1 O15 2.236501 1_555
Mn1 O7 2.331763 1_555
Mn2 O11 2.198507 1_555
Mn2 O10 2.198507 1_555
Mn2 O5 2.199902 1_455
Mn2 O0 2.199902 1_545
Mn2 O4 2.213684 1_445
Mn2 O12 2.319025 1_555
Nb0 O7 1.889729 1_555
Nb0 O6 1.889729 1_555
Nb0 O3 2.057394 1_555
Nb0 O2 2.060447 1_555
Nb0 O15 2.229492 1_565
Nb0 O13 2.229492 1_655
Nb1 O10 1.881547 1_555
Nb1 O9 2.010155 1_455
Nb1 O12 2.045207 1_555
Nb1 O14 2.047432 1_555
Nb1 O4 2.081998 1_455
Nb1 O0 2.154660 1_555
Nb2 O11 1.881547 1_555
Nb2 O9 2.010155 1_545
Nb2 O12 2.045207 1_555
Nb2 O14 2.047432 1_555
Nb2 O4 2.081998 1_545
Nb2 O5 2.154660 1_555
O0 Sb0 2.082552 1_555
O1 Sb0 2.065331 1_555
O5 Sb0 2.082552 1_555
O6 Sb0 2.631495 1_555
O7 Sb0 2.631495 1_555
O8 Sb1 2.059814 1_555
O9 Sb0 2.687692 1_555
O13 Sb1 2.049885 1_555
O15 Sb1 2.049885 1_555
