# generated using pymatgen
data_HgH4C4(Br2N)2
_symmetry_space_group_name_H-M   'P 1'
_cell_length_a   12.29487800
_cell_length_b   8.86990900
_cell_length_c   17.41191299
_cell_angle_alpha   59.33606171
_cell_angle_beta   90.00000000
_cell_angle_gamma   90.00000000
_symmetry_Int_Tables_number   1
_chemical_formula_structural   HgH4C4(Br2N)2
_chemical_formula_sum   'Hg4 H16 C16 Br16 N8'
_cell_volume   1633.33738249
_cell_formula_units_Z   4
loop_
 _symmetry_equiv_pos_site_id
 _symmetry_equiv_pos_as_xyz
  1  'x, y, z'
loop_
 _atom_site_type_symbol
 _atom_site_label
 _atom_site_symmetry_multiplicity
 _atom_site_fract_x
 _atom_site_fract_y
 _atom_site_fract_z
 _atom_site_occupancy
  Hg  Hg0  1  0.84741400  0.07790400  0.59809200  1
  Hg  Hg1  1  0.65258600  0.07790400  0.09809200  1
  Hg  Hg2  1  0.15258600  0.92209600  0.40190800  1
  Hg  Hg3  1  0.34741400  0.92209600  0.90190800  1
  H  H0  1  0.73802500  0.56724000  0.41831300  1
  H  H1  1  0.76197500  0.56724000  0.91831300  1
  H  H2  1  0.26197500  0.43276000  0.58168700  1
  H  H3  1  0.23802500  0.43276000  0.08168700  1
  H  H4  1  0.68701100  0.85755000  0.48789700  1
  H  H5  1  0.81298900  0.85755000  0.98789700  1
  H  H6  1  0.31298900  0.14245000  0.51210300  1
  H  H7  1  0.18701100  0.14245000  0.01210300  1
  H  H8  1  0.19600200  0.54421100  0.34299300  1
  H  H9  1  0.30399800  0.54421100  0.84299300  1
  H  H10  1  0.80399800  0.45578900  0.65700700  1
  H  H11  1  0.69600200  0.45578900  0.15700700  1
  H  H12  1  0.96934800  0.44990600  0.38974100  1
  H  H13  1  0.53065200  0.44990600  0.88974100  1
  H  H14  1  0.03065200  0.55009400  0.61025900  1
  H  H15  1  0.46934800  0.55009400  0.11025900  1
  C  C0  1  0.64636400  0.96758800  0.34124200  1
  C  C1  1  0.85363600  0.96758800  0.84124200  1
  C  C2  1  0.35363600  0.03241200  0.65875800  1
  C  C3  1  0.14636400  0.03241200  0.15875800  1
  C  C4  1  0.56318400  0.82711100  0.40048600  1
  C  C5  1  0.93681600  0.82711100  0.90048600  1
  C  C6  1  0.43681600  0.17288900  0.59951400  1
  C  C7  1  0.06318400  0.17288900  0.09951400  1
  C  C8  1  0.99565700  0.54810400  0.24190300  1
  C  C9  1  0.50434300  0.54810400  0.74190300  1
  C  C10  1  0.00434300  0.45189600  0.75809700  1
  C  C11  1  0.49565700  0.45189600  0.25809700  1
  C  C12  1  0.00317800  0.34808300  0.29691500  1
  C  C13  1  0.49682200  0.34808300  0.79691500  1
  C  C14  1  0.99682200  0.65191700  0.70308500  1
  C  C15  1  0.50317800  0.65191700  0.20308500  1
  Br  Br0  1  0.00992900  0.26383900  0.55563400  1
  Br  Br1  1  0.49007100  0.26383900  0.05563400  1
  Br  Br2  1  0.99007100  0.73616100  0.44436600  1
  Br  Br3  1  0.50992900  0.73616100  0.94436600  1
  Br  Br4  1  0.68336500  0.90531900  0.62155500  1
  Br  Br5  1  0.81663500  0.90531900  0.12155500  1
  Br  Br6  1  0.31663500  0.09468100  0.37844500  1
  Br  Br7  1  0.18336500  0.09468100  0.87844500  1
  Br  Br8  1  0.70601900  0.43851100  0.39621400  1
  Br  Br9  1  0.79398100  0.43851100  0.89621400  1
  Br  Br10  1  0.29398100  0.56148900  0.60378600  1
  Br  Br11  1  0.20601900  0.56148900  0.10378600  1
  Br  Br12  1  0.70538700  0.40522000  0.63228400  1
  Br  Br13  1  0.79461300  0.40522000  0.13228400  1
  Br  Br14  1  0.29461300  0.59478000  0.36771600  1
  Br  Br15  1  0.20538700  0.59478000  0.86771600  1
  N  N0  1  0.64817000  0.87707000  0.43057800  1
  N  N1  1  0.85183000  0.87707000  0.93057800  1
  N  N2  1  0.35183000  0.12293000  0.56942200  1
  N  N3  1  0.14817000  0.12293000  0.06942200  1
  N  N4  1  0.98365200  0.45154700  0.33049700  1
  N  N5  1  0.51634800  0.45154700  0.83049700  1
  N  N6  1  0.01634800  0.54845300  0.66950300  1
  N  N7  1  0.48365200  0.54845300  0.16950300  1
loop_
_geom_bond_atom_site_label_1
_geom_bond_atom_site_label_2
_geom_bond_distance
_geom_bond_site_symmetry_2
H4 N0 1.038191 1_555
H5 N1 1.038191 1_555
H6 N2 1.038191 1_555
H7 N3 1.038191 1_555
H12 N4 1.039194 1_555
H13 N5 1.039194 1_555
H14 N6 1.039194 1_555
H15 N7 1.039194 1_555
C0 N0 1.338227 1_555
C1 N1 1.338227 1_555
C2 N2 1.338227 1_555
C3 N3 1.338227 1_555
C4 N0 1.341464 1_555
C5 N1 1.341464 1_555
C6 N2 1.341464 1_555
C7 N3 1.341464 1_555
C8 N4 1.336899 1_555
C9 N5 1.336899 1_555
C10 N6 1.336899 1_555
C11 N7 1.336899 1_555
C12 N4 1.337569 1_455
C13 N5 1.337569 1_555
C14 N6 1.337569 1_655
C15 N7 1.337569 1_555
Br0 Hg0 2.452604 1_455
Br1 Hg1 2.452604 1_555
Br2 Hg2 2.452604 1_655
Br3 Hg3 2.452604 1_555
Br4 Hg0 2.437320 1_565
Br5 Hg1 2.437320 1_565
Br6 Hg2 2.437320 1_545
Br7 Hg3 2.437320 1_545
Br8 H0 1.433455 1_555
Br9 H1 1.433455 1_555
Br10 H2 1.433455 1_555
Br11 H3 1.433455 1_555
Br12 H10 1.432964 1_555
Br13 H11 1.432964 1_555
Br14 H8 1.432964 1_555
Br15 H9 1.432964 1_555
