# generated using pymatgen
data_Na3CaPCO7
_symmetry_space_group_name_H-M   'P 1'
_cell_length_a   6.88654900
_cell_length_b   5.33289600
_cell_length_c   9.19613409
_cell_angle_alpha   89.59911903
_cell_angle_beta   90.00000000
_cell_angle_gamma   90.00000000
_symmetry_Int_Tables_number   1
_chemical_formula_structural   Na3CaPCO7
_chemical_formula_sum   'Na6 Ca2 P2 C2 O14'
_cell_volume   337.72205347
_cell_formula_units_Z   2
loop_
 _symmetry_equiv_pos_site_id
 _symmetry_equiv_pos_as_xyz
  1  'x, y, z'
loop_
 _atom_site_type_symbol
 _atom_site_label
 _atom_site_symmetry_multiplicity
 _atom_site_fract_x
 _atom_site_fract_y
 _atom_site_fract_z
 _atom_site_occupancy
  Na  Na0  1  0.48248100  0.98761700  0.01579500  1
  Na  Na1  1  0.19872800  0.50401500  0.17046300  1
  Na  Na2  1  0.47364100  0.53224600  0.48066500  1
  Na  Na3  1  0.97364100  0.46775400  0.51933500  1
  Na  Na4  1  0.69872800  0.49598500  0.82953700  1
  Na  Na5  1  0.98248100  0.01238300  0.98420500  1
  Ca  Ca0  1  0.76224800  0.97504100  0.30905900  1
  Ca  Ca1  1  0.26224800  0.02495900  0.69094100  1
  P  P0  1  0.23537200  0.99692100  0.33674500  1
  P  P1  1  0.73537200  0.00307900  0.66325500  1
  C  C0  1  0.74616500  0.48556100  0.14728900  1
  C  C1  1  0.24616500  0.51443900  0.85271100  1
  O  O0  1  0.72598000  0.28749400  0.06689000  1
  O  O1  1  0.76778000  0.70608000  0.08652600  1
  O  O2  1  0.08502500  0.08332100  0.22008700  1
  O  O3  1  0.43378200  0.93883800  0.26345800  1
  O  O4  1  0.74639200  0.46568900  0.28840300  1
  O  O5  1  0.16271300  0.75410300  0.41186500  1
  O  O6  1  0.25429200  0.20621300  0.45264100  1
  O  O7  1  0.75429200  0.79378700  0.54735900  1
  O  O8  1  0.66271300  0.24589700  0.58813500  1
  O  O9  1  0.24639200  0.53431100  0.71159700  1
  O  O10  1  0.93378200  0.06116200  0.73654200  1
  O  O11  1  0.58502500  0.91667900  0.77991300  1
  O  O12  1  0.26778000  0.29392000  0.91347400  1
  O  O13  1  0.22598000  0.71250600  0.93311000  1
loop_
_geom_bond_atom_site_label_1
_geom_bond_atom_site_label_2
_geom_bond_distance
_geom_bond_site_symmetry_2
Na0 O11 2.314891 1_554
Na0 O3 2.314962 1_555
Na0 O0 2.366573 1_565
Na0 O12 2.391289 1_564
Na0 O13 2.422082 1_554
Na0 O1 2.554172 1_555
Na1 O2 2.416696 1_555
Na1 O13 2.449858 1_554
Na1 O5 2.609584 1_555
Na1 O12 2.665281 1_554
Na2 O8 2.232245 1_555
Na2 O6 2.318954 1_555
Na2 O7 2.463518 1_555
Na2 O5 2.524772 1_555
Na2 O4 2.605549 1_555
Na2 O9 2.638101 1_555
Na2 O3 2.950624 1_555
Na3 O5 2.232245 1_655
Na3 O7 2.318954 1_555
Na3 O6 2.463518 1_655
Na3 O8 2.524772 1_555
Na3 O9 2.605549 1_655
Na3 O4 2.638101 1_555
Na3 O10 2.950624 1_555
Na4 O11 2.416696 1_555
Na4 O0 2.449858 1_556
Na4 O8 2.609584 1_555
Na4 O1 2.665281 1_556
Na5 O2 2.314891 1_656
Na5 O10 2.314962 1_555
Na5 O13 2.366573 1_645
Na5 O1 2.391289 1_546
Na5 O0 2.422082 1_556
Na5 O12 2.554172 1_655
Ca0 O3 2.308873 1_555
Ca0 O7 2.389581 1_555
Ca0 O2 2.436639 1_665
Ca0 O1 2.507547 1_555
Ca0 O4 2.624407 1_565
Ca0 O4 2.726468 1_555
Ca0 O0 2.783263 1_565
Ca1 O10 2.308873 1_455
Ca1 O6 2.389581 1_555
Ca1 O11 2.436639 1_545
Ca1 O12 2.507547 1_555
Ca1 O9 2.624407 1_545
Ca1 O9 2.726468 1_555
Ca1 O13 2.783263 1_545
C0 O0 1.301004 1_555
C0 O4 1.301285 1_555
C0 O1 1.306977 1_555
C1 O13 1.301004 1_555
C1 O9 1.301285 1_555
C1 O12 1.306977 1_555
O2 P0 1.558296 1_545
O3 P0 1.555643 1_555
O5 P0 1.546577 1_555
O6 P0 1.554121 1_545
O7 P1 1.554121 1_565
O8 P1 1.546577 1_555
O10 P1 1.555643 1_555
O11 P1 1.558296 1_565
