# generated using pymatgen
data_BaYI5
_symmetry_space_group_name_H-M   'P 1'
_cell_length_a   11.43718561
_cell_length_b   11.43718561
_cell_length_c   7.81057903
_cell_angle_alpha   88.99050979
_cell_angle_beta   88.99050979
_cell_angle_gamma   147.21448206
_symmetry_Int_Tables_number   1
_chemical_formula_structural   BaYI5
_chemical_formula_sum   'Ba2 Y2 I10'
_cell_volume   552.16479885
_cell_formula_units_Z   2
loop_
 _symmetry_equiv_pos_site_id
 _symmetry_equiv_pos_as_xyz
  1  'x, y, z'
loop_
 _atom_site_type_symbol
 _atom_site_label
 _atom_site_symmetry_multiplicity
 _atom_site_fract_x
 _atom_site_fract_y
 _atom_site_fract_z
 _atom_site_occupancy
  Ba  Ba0  1  0.32777300  0.67222700  0.75000000  1
  Ba  Ba1  1  0.67222700  0.32777300  0.25000000  1
  Y  Y0  1  0.07722700  0.92277300  0.75000000  1
  Y  Y1  1  0.92277300  0.07722700  0.25000000  1
  I  I0  1  0.72440700  0.78845300  0.59662900  1
  I  I1  1  0.78845300  0.72440700  0.09662900  1
  I  I2  1  0.80525800  0.18433800  0.99730800  1
  I  I3  1  0.63038600  0.36961400  0.75000000  1
  I  I4  1  0.81566200  0.19474200  0.50269200  1
  I  I5  1  0.18433800  0.80525800  0.49730800  1
  I  I6  1  0.36961400  0.63038600  0.25000000  1
  I  I7  1  0.19474200  0.81566200  0.00269200  1
  I  I8  1  0.21154700  0.27559300  0.90337100  1
  I  I9  1  0.27559300  0.21154700  0.40337100  1
loop_
_geom_bond_atom_site_label_1
_geom_bond_atom_site_label_2
_geom_bond_distance
_geom_bond_site_symmetry_2
Ba0 I5 3.620309 1_555
Ba0 I7 3.620309 1_556
Ba0 I8 3.659774 1_555
Ba0 I0 3.659774 1_555
Ba0 I4 3.704807 1_565
Ba0 I2 3.704807 1_455
Ba0 I2 3.853427 1_565
Ba0 I4 3.853427 1_455
Ba0 I6 4.011775 1_555
Ba0 I6 4.011775 1_556
Ba1 I2 3.620309 1_554
Ba1 I4 3.620309 1_555
Ba1 I9 3.659774 1_555
Ba1 I1 3.659774 1_555
Ba1 I7 3.704807 1_655
Ba1 I5 3.704807 1_545
Ba1 I5 3.853427 1_655
Ba1 I7 3.853427 1_545
Ba1 I3 4.011775 1_555
Ba1 I3 4.011775 1_554
I0 Y0 3.144886 1_655
I0 Y1 3.202313 1_565
I1 Y1 3.144886 1_565
I1 Y0 3.202313 1_654
I2 Y1 3.159004 1_556
I3 Y0 3.432137 1_655
I3 Y0 3.432137 1_545
I4 Y1 3.159004 1_555
I5 Y0 3.159004 1_555
I6 Y1 3.432137 1_565
I6 Y1 3.432137 1_455
I7 Y0 3.159004 1_554
I8 Y0 3.144886 1_545
I8 Y1 3.202313 1_456
I9 Y1 3.144886 1_455
I9 Y0 3.202313 1_545
