# generated using pymatgen
data_Li5La3Nb2O12
_symmetry_space_group_name_H-M   'P 1'
_cell_length_a   11.13676461
_cell_length_b   11.15882142
_cell_length_c   11.15887156
_cell_angle_alpha   109.73105760
_cell_angle_beta   109.12966861
_cell_angle_gamma   109.31840115
_symmetry_Int_Tables_number   1
_chemical_formula_structural   Li5La3Nb2O12
_chemical_formula_sum   'Li20 La12 Nb8 O48'
_cell_volume   1070.57492569
_cell_formula_units_Z   4
loop_
 _symmetry_equiv_pos_site_id
 _symmetry_equiv_pos_as_xyz
  1  'x, y, z'
loop_
 _atom_site_type_symbol
 _atom_site_label
 _atom_site_symmetry_multiplicity
 _atom_site_fract_x
 _atom_site_fract_y
 _atom_site_fract_z
 _atom_site_occupancy
  Li  Li0  1  0.16836400  0.90552500  0.88802600  1
  Li  Li1  1  0.05923400  0.11081800  0.81185000  1
  Li  Li2  1  0.25500600  0.68422500  0.78975600  1
  Li  Li3  1  0.21229500  0.74657200  0.32314900  1
  Li  Li4  1  0.28496300  0.61213300  0.52651600  1
  Li  Li5  1  0.32988800  0.22140700  0.73509800  1
  Li  Li6  1  0.57368900  0.75332200  0.96079300  1
  Li  Li7  1  0.24323300  0.03795300  0.42852600  1
  Li  Li8  1  0.47509300  0.71224500  0.38750200  1
  Li  Li9  1  0.52441000  0.28415600  0.61180400  1
  Li  Li10  1  0.60518400  0.52618700  0.28497600  1
  Li  Li11  1  0.42702000  0.24594200  0.03975500  1
  Li  Li12  1  0.67577000  0.78836300  0.25654500  1
  Li  Li13  1  0.70566000  0.38830600  0.46083100  1
  Li  Li14  1  0.80278400  0.25197300  0.69029900  1
  Li  Li15  1  0.89327100  0.18236200  0.93185600  1
  Li  Li16  1  0.97194200  0.58401700  0.75937500  1
  Li  Li17  1  0.74606600  0.31863400  0.21027800  1
  Li  Li18  1  0.92878200  0.88925000  0.18304100  1
  Li  Li19  1  0.82129500  0.07399000  0.11188300  1
  La  La0  1  0.24922100  0.88590000  0.63235300  1
  La  La1  1  0.13063500  0.37750500  0.75109200  1
  La  La2  1  0.13103200  0.25894100  0.38083300  1
  La  La3  1  0.62503000  0.87273500  0.74367800  1
  La  La4  1  0.24261000  0.38030800  0.13329400  1
  La  La5  1  0.36062500  0.74928800  0.11653900  1
  La  La6  1  0.36977800  0.12133800  0.24540600  1
  La  La7  1  0.63148300  0.25064800  0.88143800  1
  La  La8  1  0.75093600  0.61939000  0.86914100  1
  La  La9  1  0.86412100  0.75528600  0.61625400  1
  La  La10  1  0.75100600  0.12200700  0.37499700  1
  La  La11  1  0.88310900  0.62876700  0.25127900  1
  Nb  Nb0  1  0.99779400  0.50012300  0.49582800  1
  Nb  Nb1  1  0.99428000  0.00091100  0.49923700  1
  Nb  Nb2  1  0.99847800  0.50308800  0.00331500  1
  Nb  Nb3  1  0.49983100  0.49699800  0.50626100  1
  Nb  Nb4  1  0.50713100  0.00086700  0.50196800  1
  Nb  Nb5  1  0.00230400  0.99422200  0.00407100  1
  Nb  Nb6  1  0.49861300  0.50110800  0.99694300  1
  Nb  Nb7  1  0.50363200  0.00004700  0.00021900  1
  O  O0  1  0.08113600  0.97248900  0.67328600  1
  O  O1  1  0.11533700  0.58073700  0.90717900  1
  O  O2  1  0.02902700  0.32389200  0.91285400  1
  O  O3  1  0.07921100  0.69876900  0.68005200  1
  O  O4  1  0.08632400  0.88457000  0.41249600  1
  O  O5  1  0.09884700  0.62710800  0.42762300  1
  O  O6  1  0.17479100  0.48620200  0.59279000  1
  O  O7  1  0.41655200  0.82679500  0.79859800  1
  O  O8  1  0.30295300  0.32220400  0.91270700  1
  O  O9  1  0.38718000  0.59156900  0.91598700  1
  O  O10  1  0.01818300  0.19173200  0.11362800  1
  O  O11  1  0.32633800  0.92670100  0.31654900  1
  O  O12  1  0.17178300  0.19067500  0.57397100  1
  O  O13  1  0.20509600  0.59233200  0.17342500  1
  O  O14  1  0.40904900  0.82133300  0.52054200  1
  O  O15  1  0.32738700  0.90659500  0.01946800  1
  O  O16  1  0.30292600  0.47449500  0.38853400  1
  O  O17  1  0.11445700  0.02912100  0.20721000  1
  O  O18  1  0.53400500  0.62013400  0.70268600  1
  O  O19  1  0.41595000  0.08890500  0.88804400  1
  O  O20  1  0.52635200  0.40207500  0.82768600  1
  O  O21  1  0.38366900  0.29269900  0.46863300  1
  O  O22  1  0.19812500  0.10838300  0.02034500  1
  O  O23  1  0.57464900  0.90146600  0.37699000  1
  O  O24  1  0.41577700  0.09712100  0.61761800  1
  O  O25  1  0.80581300  0.88250800  0.98687000  1
  O  O26  1  0.61238300  0.69197400  0.51972500  1
  O  O27  1  0.48067400  0.59453100  0.18003400  1
  O  O28  1  0.47085300  0.37889300  0.29726200  1
  O  O29  1  0.59392800  0.91794900  0.11511700  1
  O  O30  1  0.88550400  0.98496200  0.81280700  1
  O  O31  1  0.67875500  0.08870200  0.97529400  1
  O  O32  1  0.69955600  0.52212800  0.61360100  1
  O  O33  1  0.60101200  0.18005100  0.48735800  1
  O  O34  1  0.80479100  0.41719100  0.82401000  1
  O  O35  1  0.67546800  0.09023800  0.70651000  1
  O  O36  1  0.97218300  0.79851700  0.87351600  1
  O  O37  1  0.82552600  0.79381300  0.40641700  1
  O  O38  1  0.61452300  0.42085900  0.09996600  1
  O  O39  1  0.69394200  0.67835200  0.07906100  1
  O  O40  1  0.58288200  0.17419100  0.19972800  1
  O  O41  1  0.81772200  0.51611200  0.39934000  1
  O  O42  1  0.90437400  0.38986100  0.58370400  1
  O  O43  1  0.92186400  0.12382800  0.59363600  1
  O  O44  1  0.90971800  0.29657100  0.32639400  1
  O  O45  1  0.88283000  0.40830600  0.08000000  1
  O  O46  1  0.97218600  0.67209300  0.08995900  1
  O  O47  1  0.90313100  0.02064000  0.32292500  1
loop_
_geom_bond_atom_site_label_1
_geom_bond_atom_site_label_2
_geom_bond_distance
_geom_bond_site_symmetry_2
Li0 O15 1.886691 1_556
Li0 O36 2.033957 1_455
Li0 O22 2.083311 1_566
Li0 O3 2.248003 1_555
Li1 O0 1.928136 1_545
Li1 O30 1.985380 1_445
Li1 O22 2.349058 1_556
Li1 O2 2.450514 1_555
Li1 O8 2.483362 1_555
Li1 O43 2.496986 1_455
Li2 O7 1.913486 1_555
Li2 O3 2.032593 1_555
Li2 O6 2.153924 1_555
Li2 O9 2.418944 1_555
Li2 O15 2.530864 1_556
Li2 O1 2.576624 1_555
Li3 O13 1.907728 1_555
Li3 O11 2.032462 1_555
Li3 O14 2.176133 1_555
Li3 O5 2.373368 1_555
Li3 O4 2.577384 1_555
Li3 O46 2.668551 1_455
Li4 O16 1.891587 1_555
Li4 O6 2.045166 1_555
Li4 O5 2.096771 1_555
Li4 O14 2.322652 1_555
Li4 O7 2.637076 1_555
Li5 O12 1.886778 1_555
Li5 O20 2.027950 1_555
Li5 O8 2.095421 1_555
Li5 O24 2.242526 1_555
Li6 O29 1.930461 1_556
Li6 O9 2.012889 1_555
Li6 O39 2.136224 1_556
Li6 O25 2.367205 1_555
Li6 O18 2.557433 1_555
Li6 O7 2.624078 1_555
Li7 O4 1.903842 1_545
Li7 O24 2.035475 1_555
Li7 O11 2.104727 1_545
Li7 O17 2.363552 1_555
Li7 O12 2.459204 1_555
Li7 O21 2.543181 1_555
Li8 O26 1.881887 1_555
Li8 O14 2.077159 1_555
Li8 O23 2.098798 1_555
Li8 O27 2.276842 1_555
Li9 O21 1.891746 1_555
Li9 O24 2.072694 1_555
Li9 O33 2.085335 1_555
Li9 O20 2.311250 1_555
Li10 O28 1.902118 1_555
Li10 O27 2.028334 1_555
Li10 O38 2.058550 1_555
Li10 O41 2.353088 1_555
Li10 O26 2.604403 1_555
Li10 O37 2.648740 1_555
Li11 O19 1.915492 1_554
Li11 O38 2.029760 1_555
Li11 O8 2.225292 1_554
Li11 O22 2.392905 1_555
Li11 O28 2.533624 1_555
Li11 O40 2.587355 1_555
Li12 O37 1.902181 1_555
Li12 O39 2.062972 1_555
Li12 O27 2.134471 1_555
Li12 O23 2.335511 1_555
Li12 O47 2.609649 1_565
Li12 O29 2.623458 1_555
Li13 O32 1.888105 1_555
Li13 O41 2.026498 1_555
Li13 O42 2.178891 1_555
Li13 O33 2.396860 1_555
Li13 O40 2.567941 1_555
Li13 O28 2.596392 1_555
Li14 O34 1.928534 1_555
Li14 O35 1.998945 1_555
Li14 O33 2.250836 1_555
Li14 O42 2.455282 1_555
Li14 O43 2.473406 1_555
Li14 O2 2.524941 1_655
Li15 O2 1.918694 1_655
Li15 O10 1.992888 1_656
Li15 O30 2.108830 1_545
Li15 O35 2.422962 1_555
Li15 O31 2.546307 1_555
Li15 O45 2.570764 1_556
Li16 O1 1.903949 1_655
Li16 O42 2.046897 1_555
Li16 O3 2.072815 1_655
Li16 O36 2.299233 1_555
Li17 O40 1.925646 1_555
Li17 O44 2.006418 1_555
Li17 O41 2.130181 1_555
Li17 O38 2.415460 1_555
Li17 O45 2.619084 1_555
Li17 O31 2.630062 1_554
Li18 O47 1.921425 1_565
Li18 O17 1.999891 1_665
Li18 O25 2.128110 1_554
Li18 O39 2.412424 1_555
Li18 O46 2.566923 1_555
Li18 O4 2.616016 1_655
Li19 O31 1.904102 1_554
Li19 O25 2.031574 1_544
Li19 O10 2.140832 1_655
Li19 O44 2.385571 1_555
Li19 O47 2.574862 1_555
Li19 O29 2.574887 1_545
La0 O19 2.469968 1_565
La0 O0 2.470919 1_555
La0 O5 2.490236 1_555
La0 O4 2.520083 1_555
La0 O24 2.567480 1_565
La0 O7 2.592814 1_555
La0 O14 2.634618 1_555
La0 O3 2.650218 1_555
La1 O1 2.447208 1_555
La1 O43 2.472986 1_455
La1 O9 2.515098 1_555
La1 O6 2.540641 1_555
La1 O2 2.552786 1_555
La1 O8 2.565668 1_555
La1 O12 2.627990 1_555
La1 O42 2.678868 1_455
La2 O12 2.475351 1_555
La2 O16 2.482686 1_555
La2 O21 2.502154 1_555
La2 O10 2.538293 1_555
La2 O17 2.542054 1_555
La2 O44 2.548700 1_455
La2 O6 2.576758 1_555
La2 O47 2.688847 1_455
La3 O30 2.460842 1_555
La3 O18 2.473265 1_555
La3 O35 2.511695 1_565
La3 O7 2.527095 1_555
La3 O26 2.551762 1_555
La3 O14 2.551844 1_555
La3 O31 2.583134 1_565
La3 O25 2.739301 1_555
La4 O16 2.434286 1_555
La4 O13 2.456415 1_555
La4 O2 2.496765 1_554
La4 O10 2.563594 1_555
La4 O28 2.609031 1_555
La4 O22 2.656157 1_555
La4 O27 2.659727 1_555
La4 O8 2.688095 1_554
La5 O15 2.417149 1_555
La5 O1 2.430766 1_554
La5 O13 2.436142 1_555
La5 O9 2.512365 1_554
La5 O23 2.541850 1_555
La5 O27 2.646614 1_555
La5 O29 2.665523 1_555
La5 O11 2.668654 1_555
La6 O28 2.484263 1_555
La6 O21 2.494160 1_555
La6 O17 2.509853 1_555
La6 O11 2.510430 1_545
La6 O40 2.511949 1_555
La6 O22 2.531398 1_555
La6 O15 2.591067 1_545
La6 O33 2.735464 1_555
La7 O45 2.425831 1_556
La7 O35 2.470207 1_555
La7 O20 2.473636 1_555
La7 O31 2.487123 1_555
La7 O19 2.522698 1_555
La7 O24 2.570810 1_555
La7 O34 2.613658 1_555
La7 O38 2.646043 1_556
La8 O34 2.455676 1_555
La8 O32 2.463053 1_555
La8 O18 2.523760 1_555
La8 O25 2.530236 1_555
La8 O39 2.555992 1_556
La8 O46 2.563649 1_556
La8 O36 2.581781 1_555
La8 O20 2.611801 1_555
La9 O26 2.390751 1_555
La9 O37 2.448415 1_555
La9 O0 2.489037 1_655
La9 O36 2.517680 1_555
La9 O3 2.612952 1_655
La9 O32 2.624212 1_555
La9 O30 2.625674 1_555
La9 O41 2.674838 1_555
La10 O47 2.440634 1_555
La10 O29 2.497165 1_545
La10 O44 2.505269 1_555
La10 O33 2.514404 1_555
La10 O43 2.543970 1_555
La10 O42 2.567086 1_555
La10 O40 2.600047 1_555
La10 O23 2.604222 1_545
La11 O46 2.428818 1_555
La11 O4 2.469050 1_655
La11 O37 2.481207 1_555
La11 O41 2.534872 1_555
La11 O45 2.553681 1_555
La11 O5 2.569140 1_655
La11 O38 2.575636 1_555
La11 O39 2.696895 1_555
Nb0 O6 1.999645 1_655
Nb0 O5 2.021920 1_655
Nb0 O44 2.026523 1_555
Nb0 O41 2.040606 1_555
Nb0 O42 2.047980 1_555
Nb0 O3 2.081685 1_655
Nb1 O43 1.988582 1_555
Nb1 O12 2.011165 1_655
Nb1 O47 2.020170 1_555
Nb1 O37 2.044460 1_545
Nb1 O0 2.048399 1_645
Nb1 O4 2.086956 1_645
Nb2 O46 1.974052 1_555
Nb2 O45 1.985411 1_555
Nb2 O34 2.020730 1_554
Nb2 O13 2.057795 1_655
Nb2 O1 2.095688 1_654
Nb2 O2 2.108430 1_654
Nb3 O18 1.977597 1_555
Nb3 O32 2.018700 1_555
Nb3 O21 2.023221 1_555
Nb3 O16 2.030376 1_555
Nb3 O26 2.044234 1_555
Nb3 O28 2.104785 1_555
Nb4 O23 1.983763 1_545
Nb4 O11 2.007684 1_545
Nb4 O33 2.016508 1_555
Nb4 O35 2.034778 1_555
Nb4 O14 2.056831 1_545
Nb4 O24 2.121743 1_555
Nb5 O36 2.012681 1_454
Nb5 O17 2.019050 1_565
Nb5 O25 2.034125 1_454
Nb5 O22 2.039084 1_565
Nb5 O10 2.040710 1_565
Nb5 O30 2.049504 1_454
Nb6 O20 2.020618 1_555
Nb6 O9 2.021121 1_555
Nb6 O39 2.026507 1_556
Nb6 O8 2.032106 1_555
Nb6 O27 2.065938 1_556
Nb6 O38 2.068123 1_556
Nb7 O29 2.012948 1_545
Nb7 O15 2.014818 1_545
Nb7 O31 2.030882 1_554
Nb7 O7 2.032861 1_544
Nb7 O40 2.041529 1_555
Nb7 O19 2.044781 1_554
