# generated using pymatgen
data_Rb3Mn16O32
_symmetry_space_group_name_H-M   'P 1'
_cell_length_a   10.26783287
_cell_length_b   8.38786997
_cell_length_c   8.39065799
_cell_angle_alpha   73.69420075
_cell_angle_beta   67.48968555
_cell_angle_gamma   101.78856359
_symmetry_Int_Tables_number   1
_chemical_formula_structural   Rb3Mn16O32
_chemical_formula_sum   'Rb3 Mn16 O32'
_cell_volume   599.81407487
_cell_formula_units_Z   1
loop_
 _symmetry_equiv_pos_site_id
 _symmetry_equiv_pos_as_xyz
  1  'x, y, z'
loop_
 _atom_site_type_symbol
 _atom_site_label
 _atom_site_symmetry_multiplicity
 _atom_site_fract_x
 _atom_site_fract_y
 _atom_site_fract_z
 _atom_site_occupancy
  Rb  Rb0  1  0.66950500  0.66984000  0.00032200  1
  Rb  Rb1  1  0.08049500  0.08016000  0.99967800  1
  Rb  Rb2  1  0.37500000  0.37500000  0.00000000  1
  Mn  Mn0  1  0.87368400  0.36048000  0.18393900  1
  Mn  Mn1  1  0.62325300  0.11068600  0.18444400  1
  Mn  Mn2  1  0.98845300  0.17260700  0.51265800  1
  Mn  Mn3  1  0.76154700  0.57739300  0.48734200  1
  Mn  Mn4  1  0.51065400  0.32711500  0.48802600  1
  Mn  Mn5  1  0.26130600  0.07771900  0.48580600  1
  Mn  Mn6  1  0.87631600  0.38952000  0.81606100  1
  Mn  Mn7  1  0.62609500  0.14064400  0.81638100  1
  Mn  Mn8  1  0.12390500  0.60935600  0.18361900  1
  Mn  Mn9  1  0.37292500  0.86087200  0.18405200  1
  Mn  Mn10  1  0.73815200  0.92210000  0.51357900  1
  Mn  Mn11  1  0.23934600  0.42288500  0.51197400  1
  Mn  Mn12  1  0.48869400  0.67228100  0.51419400  1
  Mn  Mn13  1  0.01184800  0.82790000  0.48642100  1
  Mn  Mn14  1  0.37707500  0.88912800  0.81594800  1
  Mn  Mn15  1  0.12674700  0.63931400  0.81555600  1
  O  O0  1  0.84378700  0.20817700  0.04952000  1
  O  O1  1  0.87497400  0.16602300  0.37383500  1
  O  O2  1  0.90659300  0.52979300  0.29283400  1
  O  O3  1  0.40596200  0.03269100  0.29100200  1
  O  O4  1  0.65625100  0.28263500  0.29174300  1
  O  O5  1  0.84340700  0.22020700  0.70716600  1
  O  O6  1  0.63226200  0.58306400  0.36530800  1
  O  O7  1  0.38469300  0.33527500  0.36012700  1
  O  O8  1  0.13322300  0.08295100  0.35902800  1
  O  O9  1  0.88092200  0.83160800  0.36425500  1
  O  O10  1  0.37407400  0.08280000  0.62544700  1
  O  O11  1  0.62406000  0.33326100  0.62644400  1
  O  O12  1  0.87502600  0.58397700  0.62616600  1
  O  O13  1  0.09581300  0.45502600  0.05042500  1
  O  O14  1  0.34752100  0.70723000  0.04992600  1
  O  O15  1  0.59456600  0.96012100  0.04949500  1
  O  O16  1  0.90621300  0.54182300  0.95048000  1
  O  O17  1  0.40247900  0.04277000  0.95007400  1
  O  O18  1  0.65418700  0.29497400  0.94957500  1
  O  O19  1  0.37592600  0.66720000  0.37455300  1
  O  O20  1  0.12594000  0.41673900  0.37355600  1
  O  O21  1  0.62373700  0.91679500  0.37703700  1
  O  O22  1  0.36530700  0.41472500  0.63987300  1
  O  O23  1  0.11773800  0.16693600  0.63469200  1
  O  O24  1  0.61677700  0.66704900  0.64097200  1
  O  O25  1  0.86907800  0.91839200  0.63574500  1
  O  O26  1  0.15574000  0.78158000  0.29055400  1
  O  O27  1  0.59426000  0.96842000  0.70944600  1
  O  O28  1  0.09374900  0.46736500  0.70825700  1
  O  O29  1  0.34403800  0.71730900  0.70899800  1
  O  O30  1  0.12626300  0.83320500  0.62296300  1
  O  O31  1  0.15543400  0.78987900  0.95050500  1
loop_
_geom_bond_atom_site_label_1
_geom_bond_atom_site_label_2
_geom_bond_distance
_geom_bond_site_symmetry_2
Mn0 O2 1.932588 1_555
Mn0 O4 1.937861 1_555
Mn0 O1 1.940364 1_555
Mn0 O16 1.969960 1_554
Mn0 O13 1.972695 1_655
Mn0 O0 1.977942 1_555
Mn1 O3 1.937254 1_555
Mn1 O4 1.941285 1_555
Mn1 O21 1.946809 1_545
Mn1 O0 1.959219 1_555
Mn1 O15 1.967291 1_545
Mn1 O18 1.995880 1_554
Mn2 O20 1.939982 1_655
Mn2 O1 1.940761 1_555
Mn2 O5 1.946477 1_555
Mn2 O25 1.960098 1_545
Mn2 O23 1.962692 1_655
Mn2 O8 1.992667 1_655
Mn3 O11 1.939982 1_555
Mn3 O12 1.940768 1_555
Mn3 O2 1.946477 1_555
Mn3 O9 1.960098 1_555
Mn3 O6 1.962692 1_555
Mn3 O24 1.992667 1_555
Mn4 O11 1.937028 1_555
Mn4 O10 1.938167 1_555
Mn4 O4 1.942739 1_555
Mn4 O7 1.971493 1_555
Mn4 O6 1.976689 1_555
Mn4 O22 1.976996 1_555
Mn5 O3 1.933236 1_555
Mn5 O30 1.935004 1_545
Mn5 O10 1.939593 1_555
Mn5 O23 1.964517 1_555
Mn5 O8 1.982835 1_555
Mn5 O7 1.990893 1_555
Mn6 O5 1.932588 1_555
Mn6 O28 1.937861 1_655
Mn6 O12 1.940359 1_555
Mn6 O0 1.969960 1_556
Mn6 O18 1.972695 1_555
Mn6 O16 1.977942 1_555
Mn7 O11 1.934957 1_555
Mn7 O5 1.935566 1_555
Mn7 O27 1.938615 1_545
Mn7 O15 1.968557 1_546
Mn7 O18 1.978525 1_555
Mn7 O17 1.986127 1_555
Mn8 O20 1.934957 1_555
Mn8 O2 1.935566 1_455
Mn8 O26 1.938615 1_555
Mn8 O31 1.968557 1_554
Mn8 O13 1.978525 1_555
Mn8 O14 1.986127 1_555
Mn9 O26 1.936039 1_555
Mn9 O3 1.938287 1_565
Mn9 O19 1.948074 1_555
Mn9 O15 1.969159 1_555
Mn9 O14 1.974140 1_555
Mn9 O17 1.986680 1_564
Mn10 O21 1.931980 1_555
Mn10 O1 1.936933 1_565
Mn10 O27 1.941302 1_555
Mn10 O9 1.969070 1_555
Mn10 O24 1.969515 1_555
Mn10 O25 1.978190 1_555
Mn11 O20 1.937028 1_555
Mn11 O19 1.938167 1_555
Mn11 O28 1.942739 1_555
Mn11 O22 1.971493 1_555
Mn11 O23 1.976689 1_555
Mn11 O7 1.976996 1_555
Mn12 O29 1.933236 1_555
Mn12 O21 1.935004 1_555
Mn12 O19 1.939593 1_555
Mn12 O6 1.964517 1_555
Mn12 O24 1.982835 1_555
Mn12 O22 1.990893 1_555
Mn13 O30 1.931980 1_555
Mn13 O12 1.936934 1_455
Mn13 O26 1.941302 1_555
Mn13 O25 1.969070 1_455
Mn13 O8 1.969515 1_565
Mn13 O9 1.978190 1_455
Mn14 O27 1.936039 1_555
Mn14 O29 1.938287 1_555
Mn14 O10 1.948074 1_565
Mn14 O31 1.969159 1_555
Mn14 O17 1.974140 1_565
Mn14 O14 1.986680 1_556
Mn15 O29 1.937254 1_555
Mn15 O28 1.941285 1_555
Mn15 O30 1.946809 1_555
Mn15 O16 1.959219 1_455
Mn15 O31 1.967291 1_555
Mn15 O13 1.995880 1_556
O0 Rb1 2.788440 1_654
O6 Rb0 2.791529 1_555
O7 Rb2 2.988322 1_555
O8 Rb2 2.980575 1_555
O9 Rb1 2.788684 1_664
O13 Rb2 2.977291 1_555
O14 Rb2 2.984475 1_555
O15 Rb0 2.788779 1_555
O16 Rb0 2.788440 1_556
O17 Rb2 2.984475 1_556
O18 Rb2 2.977291 1_556
O22 Rb2 2.988322 1_556
O23 Rb1 2.791529 1_555
O24 Rb2 2.980575 1_556
O25 Rb0 2.788684 1_556
O31 Rb1 2.788779 1_565
