# generated using pymatgen
data_LiFe3O4
_symmetry_space_group_name_H-M   'P 1'
_cell_length_a   5.19440345
_cell_length_b   5.19440345
_cell_length_c   3.04956300
_cell_angle_alpha   90.00000000
_cell_angle_beta   90.00000000
_cell_angle_gamma   107.93300769
_symmetry_Int_Tables_number   1
_chemical_formula_structural   LiFe3O4
_chemical_formula_sum   'Li1 Fe3 O4'
_cell_volume   78.28525248
_cell_formula_units_Z   1
loop_
 _symmetry_equiv_pos_site_id
 _symmetry_equiv_pos_as_xyz
  1  'x, y, z'
loop_
 _atom_site_type_symbol
 _atom_site_label
 _atom_site_symmetry_multiplicity
 _atom_site_fract_x
 _atom_site_fract_y
 _atom_site_fract_z
 _atom_site_occupancy
  Li  Li0  1  0.50000000  0.50000000  0.00000000  1
  Fe  Fe0  1  0.00000000  0.50000000  0.50000000  1
  Fe  Fe1  1  0.00000000  0.00000000  0.00000000  1
  Fe  Fe2  1  0.50000000  0.00000000  0.50000000  1
  O  O0  1  0.24617800  0.24617800  0.50000000  1
  O  O1  1  0.25553600  0.74446400  0.00000000  1
  O  O2  1  0.74446400  0.25553600  0.00000000  1
  O  O3  1  0.75382200  0.75382200  0.50000000  1
loop_
_geom_bond_atom_site_label_1
_geom_bond_atom_site_label_2
_geom_bond_distance
_geom_bond_site_symmetry_2
Li0 O1 2.053779 1_555
Li0 O2 2.053779 1_555
Li0 O3 2.175115 1_555
Li0 O3 2.175115 1_554
Li0 O0 2.175115 1_555
Li0 O0 2.175115 1_554
Fe0 O3 2.100417 1_455
Fe0 O0 2.100417 1_555
Fe0 O2 2.159021 1_455
Fe0 O1 2.159021 1_555
Fe0 O1 2.159021 1_556
Fe0 O2 2.159021 1_456
Fe1 O0 2.142051 1_554
Fe1 O0 2.142051 1_555
Fe1 O3 2.142051 1_445
Fe1 O3 2.142051 1_444
Fe1 O1 2.146796 1_545
Fe1 O2 2.146796 1_455
Fe2 O0 2.100417 1_555
Fe2 O3 2.100417 1_545
Fe2 O2 2.159021 1_555
Fe2 O2 2.159021 1_556
Fe2 O1 2.159021 1_546
Fe2 O1 2.159021 1_545
