# generated using pymatgen
data_Na5Bi2As(CO4)4
_symmetry_space_group_name_H-M   'P 1'
_cell_length_a   10.43571000
_cell_length_b   10.44947636
_cell_length_c   18.04874800
_cell_angle_alpha   73.77474702
_cell_angle_beta   73.61970096
_cell_angle_gamma   60.30787526
_symmetry_Int_Tables_number   1
_chemical_formula_structural   Na5Bi2As(CO4)4
_chemical_formula_sum   'Na20 Bi8 As4 C16 O64'
_cell_volume   1617.13977465
_cell_formula_units_Z   4
loop_
 _symmetry_equiv_pos_site_id
 _symmetry_equiv_pos_as_xyz
  1  'x, y, z'
loop_
 _atom_site_type_symbol
 _atom_site_label
 _atom_site_symmetry_multiplicity
 _atom_site_fract_x
 _atom_site_fract_y
 _atom_site_fract_z
 _atom_site_occupancy
  Na  Na0  1  0.40467700  0.91676900  0.16105200  1
  Na  Na1  1  0.28457600  0.78607100  0.53506900  1
  Na  Na2  1  0.78574100  0.28454000  0.03523700  1
  Na  Na3  1  0.71294700  0.60942900  0.46483000  1
  Na  Na4  1  0.41191400  0.51219800  0.15701800  1
  Na  Na5  1  0.21520700  0.10493200  0.96372100  1
  Na  Na6  1  0.10529200  0.21500400  0.46327700  1
  Na  Na7  1  0.02263000  0.90957600  0.16441200  1
  Na  Na8  1  0.51182600  0.41183700  0.65735200  1
  Na  Na9  1  0.09163600  0.58775800  0.33982700  1
  Na  Na10  1  0.91716100  0.40491400  0.66059600  1
  Na  Na11  1  0.78438600  0.89758300  0.03409200  1
  Na  Na12  1  0.47682300  0.59088700  0.34052300  1
  Na  Na13  1  0.58995200  0.47667200  0.84057100  1
  Na  Na14  1  0.89748700  0.78454900  0.53426800  1
  Na  Na15  1  0.21376200  0.71463000  0.96394300  1
  Na  Na16  1  0.71441100  0.21372200  0.46428900  1
  Na  Na17  1  0.90890900  0.02330500  0.66431800  1
  Na  Na18  1  0.60978000  0.71282400  0.96479900  1
  Na  Na19  1  0.58778700  0.09165100  0.83979500  1
  Bi  Bi0  1  0.00689000  0.49693300  0.99947300  1
  Bi  Bi1  1  0.24980400  0.24639600  0.24827200  1
  Bi  Bi2  1  0.49608200  0.00825800  0.49932800  1
  Bi  Bi3  1  0.75447700  0.24493500  0.25215700  1
  Bi  Bi4  1  0.24545800  0.75280100  0.75183100  1
  Bi  Bi5  1  0.75364800  0.74652500  0.75079700  1
  Bi  Bi6  1  0.74733300  0.75466100  0.25032200  1
  Bi  Bi7  1  0.24645400  0.24957500  0.74807800  1
  As  As0  1  0.18719500  0.68764700  0.43754200  1
  As  As1  1  0.31427200  0.81072100  0.06254800  1
  As  As2  1  0.68773600  0.18715900  0.93747500  1
  As  As3  1  0.81057300  0.31441400  0.56250900  1
  C  C0  1  0.07877700  0.19563300  0.13643600  1
  C  C1  1  0.07832200  0.58723800  0.14153900  1
  C  C2  1  0.42097100  0.92039100  0.36075100  1
  C  C3  1  0.61284300  0.10722700  0.17067800  1
  C  C4  1  0.11015600  0.61092600  0.67078100  1
  C  C5  1  0.41922800  0.30037100  0.35797900  1
  C  C6  1  0.79889500  0.91802300  0.36042200  1
  C  C7  1  0.30081300  0.42241800  0.85769200  1
  C  C8  1  0.19541300  0.07774600  0.63693000  1
  C  C9  1  0.69710600  0.58111600  0.13925600  1
  C  C10  1  0.58093000  0.69695000  0.63917600  1
  C  C11  1  0.58777600  0.07807000  0.64108500  1
  C  C12  1  0.88612100  0.39588900  0.33289000  1
  C  C13  1  0.39602300  0.88732000  0.83274100  1
  C  C14  1  0.91811300  0.42332300  0.85969500  1
  C  C15  1  0.91939200  0.79744400  0.86203500  1
  O  O0  1  0.12899800  0.25847800  0.07019200  1
  O  O1  1  0.07617800  0.59585000  0.46763300  1
  O  O2  1  0.22682100  0.70795400  0.33608700  1
  O  O3  1  0.15264300  0.13701900  0.19394400  1
  O  O4  1  0.02629500  0.64009900  0.07587200  1
  O  O5  1  0.35927200  0.59673300  0.46839400  1
  O  O6  1  0.08654200  0.85022100  0.47784800  1
  O  O7  1  0.98825800  0.36503500  0.79667600  1
  O  O8  1  0.48485900  0.10951200  0.17677000  1
  O  O9  1  0.48612800  0.84749100  0.30211300  1
  O  O10  1  0.20043000  0.46417500  0.14875300  1
  O  O11  1  0.30344100  0.04877300  0.35562800  1
  O  O12  1  0.22843000  0.48332300  0.67730400  1
  O  O13  1  0.73479600  0.98113700  0.16615100  1
  O  O14  1  0.01707700  0.38394200  0.33178400  1
  O  O15  1  0.41450900  0.64411900  0.02698400  1
  O  O16  1  0.14405400  0.91201100  0.03067700  1
  O  O17  1  0.47594500  0.86318900  0.42595000  1
  O  O18  1  0.62086100  0.22840100  0.16966100  1
  O  O19  1  0.11830900  0.73309700  0.66879900  1
  O  O20  1  0.34967100  0.36357400  0.29788500  1
  O  O21  1  0.80677200  0.79004600  0.35864500  1
  O  O22  1  0.30605000  0.29735600  0.85338400  1
  O  O23  1  0.41435300  0.91266800  0.02892500  1
  O  O24  1  0.28466800  0.77349400  0.16361200  1
  O  O25  1  0.95385500  0.18816900  0.14414000  1
  O  O26  1  0.45671100  0.69080000  0.64467200  1
  O  O27  1  0.26176100  0.02656700  0.57061100  1
  O  O28  1  0.76154200  0.52788300  0.07397500  1
  O  O29  1  0.85033800  0.98707800  0.29753600  1
  O  O30  1  0.36497700  0.23185300  0.41983700  1
  O  O31  1  0.36612800  0.48782700  0.79888100  1
  O  O32  1  0.63391000  0.76248700  0.57470200  1
  O  O33  1  0.63948000  0.51004600  0.19859300  1
  O  O34  1  0.13567100  0.00515400  0.69350200  1
  O  O35  1  0.04695800  0.79356900  0.85829400  1
  O  O36  1  0.73836300  0.97461900  0.42470400  1
  O  O37  1  0.23085400  0.48375100  0.91995800  1
  O  O38  1  0.54233900  0.30668900  0.35512700  1
  O  O39  1  0.59578000  0.07631300  0.96762000  1
  O  O40  1  0.70871400  0.22674300  0.83600100  1
  O  O41  1  0.18685900  0.20126000  0.64461700  1
  O  O42  1  0.68839200  0.70733600  0.14450100  1
  O  O43  1  0.65316300  0.63525900  0.69807600  1
  O  O44  1  0.87089700  0.27912300  0.33529500  1
  O  O45  1  0.53983200  0.13107000  0.57501900  1
  O  O46  1  0.38257100  0.76951200  0.83320300  1
  O  O47  1  0.59625100  0.35917600  0.96838600  1
  O  O48  1  0.85021000  0.08635600  0.97777600  1
  O  O49  1  0.98339200  0.62012100  0.66672600  1
  O  O50  1  0.71268800  0.95458700  0.64781800  1
  O  O51  1  0.28093400  0.01727300  0.83274300  1
  O  O52  1  0.76857600  0.52668100  0.33327100  1
  O  O53  1  0.78987000  0.54369700  0.85826500  1
  O  O54  1  0.52761300  0.87261600  0.83402200  1
  O  O55  1  0.51463600  0.14826200  0.70066400  1
  O  O56  1  0.00709000  0.66169700  0.19996600  1
  O  O57  1  0.91207400  0.14436900  0.53041200  1
  O  O58  1  0.64394800  0.41496300  0.52708900  1
  O  O59  1  0.97405000  0.36444300  0.92418800  1
  O  O60  1  0.85013100  0.86066300  0.80194500  1
  O  O61  1  0.91276900  0.41429300  0.52885600  1
  O  O62  1  0.77322600  0.28473900  0.66358800  1
  O  O63  1  0.86037900  0.73629500  0.92634300  1
loop_
_geom_bond_atom_site_label_1
_geom_bond_atom_site_label_2
_geom_bond_distance
_geom_bond_site_symmetry_2
Na0 O24 2.366066 1_555
Na0 O23 2.369802 1_555
Na0 O3 2.540279 1_565
Na0 O8 2.638152 1_565
Na0 O42 2.663100 1_555
Na0 O9 2.703622 1_555
Na1 O6 2.287231 1_555
Na1 O5 2.289927 1_555
Na1 O19 2.643020 1_555
Na1 O17 2.646788 1_555
Na1 O27 2.646816 1_565
Na1 O26 2.695053 1_555
Na2 O48 2.289827 1_554
Na2 O47 2.294875 1_554
Na2 O18 2.653514 1_555
Na2 O25 2.654053 1_555
Na2 O59 2.654218 1_554
Na2 O28 2.697454 1_555
Na3 O58 2.372261 1_555
Na3 O61 2.381503 1_555
Na3 O52 2.568150 1_555
Na3 O32 2.591099 1_555
Na3 O21 2.635296 1_555
Na3 O17 2.661345 1_555
Na4 O15 2.366929 1_555
Na4 O24 2.394399 1_555
Na4 O10 2.543532 1_555
Na4 O18 2.664104 1_555
Na4 O33 2.673212 1_555
Na4 O20 2.675699 1_555
Na5 O23 2.379530 1_546
Na5 O16 2.385606 1_546
Na5 O0 2.528720 1_556
Na5 O51 2.563407 1_555
Na5 O59 2.714193 1_455
Na5 O22 2.737429 1_555
Na6 O61 2.380212 1_455
Na6 O57 2.382293 1_455
Na6 O27 2.600693 1_555
Na6 O14 2.622467 1_555
Na6 O11 2.670152 1_555
Na6 O30 2.680847 1_555
Na7 O24 2.374234 1_555
Na7 O16 2.388515 1_555
Na7 O56 2.564340 1_555
Na7 O25 2.570363 1_465
Na7 O29 2.621058 1_455
Na7 O13 2.705074 1_455
Na8 O58 2.367077 1_555
Na8 O62 2.391321 1_555
Na8 O12 2.606754 1_555
Na8 O26 2.630773 1_555
Na8 O55 2.631999 1_555
Na8 O31 2.685928 1_555
Na9 O2 2.286165 1_555
Na9 O1 2.289066 1_555
Na9 O20 2.627521 1_555
Na9 O21 2.650903 1_455
Na9 O14 2.653404 1_555
Na9 O56 2.690450 1_555
Na10 O61 2.364774 1_555
Na10 O62 2.370880 1_555
Na10 O41 2.546523 1_655
Na10 O7 2.627926 1_555
Na10 O43 2.670310 1_555
Na10 O49 2.696115 1_555
Na11 O48 2.285647 1_564
Na11 O39 2.288977 1_564
Na11 O13 2.594375 1_555
Na11 O63 2.624697 1_554
Na11 O4 2.718779 1_655
Na11 O42 2.749509 1_555
Na12 O2 2.282716 1_555
Na12 O5 2.289704 1_555
Na12 O9 2.619351 1_555
Na12 O38 2.647431 1_555
Na12 O33 2.737373 1_555
Na12 O52 2.745503 1_555
Na13 O40 2.284635 1_555
Na13 O47 2.292665 1_555
Na13 O31 2.590003 1_555
Na13 O53 2.625538 1_555
Na13 O46 2.727508 1_555
Na13 O43 2.745925 1_555
Na14 O6 2.284276 1_655
Na14 O1 2.286792 1_655
Na14 O49 2.618906 1_555
Na14 O36 2.646245 1_555
Na14 O50 2.736322 1_555
Na14 O32 2.748381 1_555
Na15 O15 2.360726 1_556
Na15 O16 2.375208 1_556
Na15 O46 2.626869 1_555
Na15 O4 2.629839 1_556
Na15 O35 2.630057 1_555
Na15 O37 2.654553 1_555
Na16 O58 2.361667 1_555
Na16 O57 2.372480 1_555
Na16 O45 2.569015 1_555
Na16 O44 2.574170 1_555
Na16 O36 2.663376 1_545
Na16 O38 2.692171 1_555
Na17 O62 2.372001 1_555
Na17 O57 2.393813 1_555
Na17 O34 2.473042 1_655
Na17 O50 2.591822 1_545
Na17 O60 2.692411 1_545
Na17 O19 2.715807 1_645
Na18 O15 2.374191 1_556
Na18 O23 2.379039 1_556
Na18 O54 2.572020 1_555
Na18 O28 2.593413 1_556
Na18 O63 2.626321 1_555
Na18 O53 2.631137 1_555
Na19 O39 2.289963 1_555
Na19 O40 2.291730 1_555
Na19 O22 2.636638 1_555
Na19 O55 2.653719 1_555
Na19 O60 2.666078 1_545
Na19 O54 2.690325 1_545
Bi0 O37 2.332570 1_555
Bi0 O0 2.335846 1_556
Bi0 O59 2.380010 1_455
Bi0 O4 2.406416 1_556
Bi0 O63 2.416742 1_455
Bi0 O28 2.439079 1_456
Bi1 O8 2.344905 1_555
Bi1 O11 2.358551 1_555
Bi1 O3 2.372968 1_555
Bi1 O10 2.397215 1_555
Bi1 O20 2.406354 1_555
Bi1 O14 2.433910 1_555
Bi2 O30 2.335873 1_555
Bi2 O27 2.360300 1_555
Bi2 O45 2.373530 1_555
Bi2 O17 2.385490 1_545
Bi2 O36 2.407007 1_545
Bi2 O32 2.450878 1_545
Bi3 O29 2.343129 1_545
Bi3 O44 2.369191 1_555
Bi3 O25 2.370120 1_555
Bi3 O38 2.388656 1_555
Bi3 O18 2.396775 1_555
Bi3 O33 2.431746 1_555
Bi4 O35 2.345839 1_555
Bi4 O34 2.347429 1_565
Bi4 O19 2.369295 1_555
Bi4 O31 2.410048 1_555
Bi4 O46 2.410598 1_555
Bi4 O26 2.429185 1_555
Bi5 O54 2.363263 1_555
Bi5 O60 2.370174 1_555
Bi5 O50 2.373474 1_555
Bi5 O53 2.391596 1_555
Bi5 O49 2.392934 1_555
Bi5 O43 2.397035 1_555
Bi6 O56 2.369159 1_655
Bi6 O52 2.374164 1_555
Bi6 O21 2.378880 1_555
Bi6 O9 2.386441 1_555
Bi6 O13 2.392042 1_555
Bi6 O42 2.400523 1_555
Bi7 O7 2.350090 1_455
Bi7 O12 2.360063 1_555
Bi7 O41 2.370981 1_555
Bi7 O51 2.393516 1_555
Bi7 O22 2.398575 1_555
Bi7 O55 2.430198 1_555
As0 O6 1.735037 1_555
As0 O2 1.735451 1_555
As0 O1 1.735579 1_555
As0 O5 1.736545 1_555
As1 O23 1.725518 1_555
As1 O15 1.725875 1_555
As1 O24 1.725895 1_555
As1 O16 1.726280 1_555
As2 O48 1.735385 1_555
As2 O39 1.735807 1_555
As2 O40 1.735958 1_555
As2 O47 1.735971 1_555
As3 O58 1.725658 1_555
As3 O61 1.725885 1_555
As3 O62 1.725938 1_555
As3 O57 1.726104 1_555
C0 O3 1.294200 1_555
C0 O0 1.297767 1_555
C0 O25 1.310477 1_455
C1 O10 1.292685 1_555
C1 O4 1.305603 1_555
C1 O56 1.308965 1_555
C2 O11 1.295050 1_565
C2 O9 1.301624 1_555
C2 O17 1.311164 1_555
C3 O8 1.297514 1_555
C3 O18 1.304499 1_555
C3 O13 1.304862 1_545
C4 O12 1.295770 1_555
C4 O49 1.299745 1_455
C4 O19 1.310974 1_555
C5 O30 1.295371 1_555
C5 O38 1.304769 1_555
C5 O20 1.307021 1_555
C6 O29 1.295977 1_555
C6 O36 1.301861 1_555
C6 O21 1.307561 1_555
C7 O37 1.297277 1_555
C7 O22 1.304023 1_555
C7 O31 1.306324 1_555
C8 O41 1.293041 1_555
C8 O34 1.297412 1_555
C8 O27 1.312098 1_555
C9 O33 1.301861 1_555
C9 O28 1.303330 1_555
C9 O42 1.304957 1_555
C10 O32 1.302187 1_555
C10 O26 1.304162 1_555
C10 O43 1.304420 1_555
C11 O45 1.292993 1_555
C11 O55 1.303878 1_555
C11 O50 1.309331 1_545
C12 O44 1.293997 1_555
C12 O14 1.304078 1_655
C12 O52 1.308539 1_555
C13 O51 1.292579 1_565
C13 O46 1.303849 1_555
C13 O54 1.310271 1_555
C14 O7 1.294747 1_555
C14 O59 1.304400 1_555
C14 O53 1.306734 1_555
C15 O35 1.294539 1_655
C15 O60 1.305297 1_555
C15 O63 1.306504 1_555
