# generated using pymatgen
data_Tm2TeO6
_symmetry_space_group_name_H-M   'P 1'
_cell_length_a   5.17929576
_cell_length_b   8.94572192
_cell_length_c   9.79806424
_cell_angle_alpha   89.99969633
_cell_angle_beta   90.00041763
_cell_angle_gamma   90.00008830
_symmetry_Int_Tables_number   1
_chemical_formula_structural   Tm2TeO6
_chemical_formula_sum   'Tm8 Te4 O24'
_cell_volume   453.96919950
_cell_formula_units_Z   4
loop_
 _symmetry_equiv_pos_site_id
 _symmetry_equiv_pos_as_xyz
  1  'x, y, z'
loop_
 _atom_site_type_symbol
 _atom_site_label
 _atom_site_symmetry_multiplicity
 _atom_site_fract_x
 _atom_site_fract_y
 _atom_site_fract_z
 _atom_site_occupancy
  Tm  Tm0  1  0.01773732  0.39590178  0.03707709  1
  Tm  Tm1  1  0.03973667  0.28291182  0.63395716  1
  Tm  Tm2  1  0.46026816  0.71708623  0.13395539  1
  Tm  Tm3  1  0.48226597  0.60409660  0.53707504  1
  Tm  Tm4  1  0.51773997  0.10409692  0.96292056  1
  Tm  Tm5  1  0.53974083  0.21709153  0.36604264  1
  Tm  Tm6  1  0.96026634  0.78291629  0.86604417  1
  Tm  Tm7  1  0.98226799  0.89590642  0.46292517  1
  Te  Te0  1  0.03792584  0.00510837  0.14937260  1
  Te  Te1  1  0.46209254  0.99488787  0.64937093  1
  Te  Te2  1  0.53791094  0.49488909  0.85062758  1
  Te  Te3  1  0.96210177  0.50510588  0.35062909  1
  O  O0  1  0.08994751  0.65632813  0.47075754  1
  O  O1  1  0.16933954  0.55066909  0.19743245  1
  O  O2  1  0.19027704  0.85764276  0.26313999  1
  O  O3  1  0.17751992  0.85901053  0.67961442  1
  O  O4  1  0.23557493  0.38438395  0.42917206  1
  O  O5  1  0.24280481  0.91487465  0.00408788  1
  O  O6  1  0.25719936  0.08513354  0.50407816  1
  O  O7  1  0.26441682  0.61561533  0.92916617  1
  O  O8  1  0.32248429  0.14099031  0.17961715  1
  O  O9  1  0.30971567  0.14235670  0.76312977  1
  O  O10  1  0.33064845  0.44932281  0.69742195  1
  O  O11  1  0.41005023  0.34366722  0.97075037  1
  O  O12  1  0.58994711  0.84367313  0.52924218  1
  O  O13  1  0.66934027  0.94932842  0.80256653  1
  O  O14  1  0.69027767  0.64235908  0.73686081  1
  O  O15  1  0.67752620  0.64099078  0.32038656  1
  O  O16  1  0.73556835  0.11561854  0.57082626  1
  O  O17  1  0.74280161  0.58512386  0.99591630  1
  O  O18  1  0.75719391  0.41487152  0.49591823  1
  O  O19  1  0.76442750  0.88438209  0.07083329  1
  O  O20  1  0.82246972  0.35900987  0.82038511  1
  O  O21  1  0.80971230  0.35764127  0.23686498  1
  O  O22  1  0.83064976  0.05067786  0.30258072  1
  O  O23  1  0.91005467  0.15633279  0.02925271  1
loop_
_geom_bond_atom_site_label_1
_geom_bond_atom_site_label_2
_geom_bond_distance
_geom_bond_site_symmetry_2
O0 Te3 1.911514 1_455
O0 Tm3 2.183867 1_555
O0 Tm7 2.215905 1_455
O1 Te3 1.889792 1_455
O1 Tm2 2.207618 1_555
O1 Tm0 2.236508 1_555
O2 Te0 1.898794 1_565
O2 Tm7 2.260466 1_455
O2 Tm2 2.266852 1_555
O3 Te1 1.933297 1_555
O3 Tm6 2.250814 1_455
O3 Tm7 2.374714 1_455
O4 Te3 1.940279 1_455
O4 Tm5 2.259219 1_555
O4 Tm1 2.424634 1_555
O4 Tm3 2.571649 1_555
O5 Te0 1.950382 1_565
O5 Tm4 2.248493 1_564
O5 Tm6 2.316094 1_454
O5 Tm2 2.453221 1_555
O6 Te1 1.950506 1_545
O6 Tm7 2.248487 1_445
O6 Tm5 2.316060 1_555
O6 Tm1 2.453231 1_555
O7 Te2 1.940375 1_555
O7 Tm6 2.259184 1_455
O7 Tm2 2.424687 1_556
O7 Tm0 2.571656 1_556
O8 Te0 1.933267 1_555
O8 Tm5 2.250800 1_555
O8 Tm4 2.374800 1_554
O9 Te1 1.898835 1_545
O9 Tm4 2.260529 1_555
O9 Tm1 2.266722 1_555
O10 Te2 1.889932 1_555
O10 Tm1 2.207485 1_555
O10 Tm3 2.236511 1_555
O11 Te2 1.911501 1_555
O11 Tm0 2.183883 1_556
O11 Tm4 2.215849 1_555
O12 Te1 1.911491 1_555
O12 Tm7 2.183888 1_555
O12 Tm3 2.215890 1_555
O13 Te1 1.889794 1_555
O13 Tm6 2.207577 1_555
O13 Tm4 2.236511 1_565
O14 Te2 1.898856 1_555
O14 Tm3 2.260462 1_555
O14 Tm6 2.266827 1_555
O15 Te3 1.933349 1_555
O15 Tm2 2.250828 1_555
O15 Tm3 2.374736 1_555
O16 Te1 1.940345 1_545
O16 Tm1 2.259228 1_655
O16 Tm5 2.424590 1_555
O16 Tm7 2.571670 1_545
O17 Te2 1.950435 1_555
O17 Tm0 2.248481 1_656
O17 Tm2 2.316084 1_556
O17 Tm6 2.453280 1_555
O18 Te3 1.950490 1_555
O18 Tm3 2.248476 1_555
O18 Tm1 2.316082 1_655
O18 Tm5 2.453191 1_555
O19 Te0 1.940384 1_665
O19 Tm2 2.259189 1_555
O19 Tm6 2.424655 1_554
O19 Tm4 2.571688 1_564
O20 Te2 1.933256 1_555
O20 Tm1 2.250852 1_655
O20 Tm0 2.374770 1_656
O21 Te3 1.898858 1_555
O21 Tm0 2.260520 1_655
O21 Tm5 2.266708 1_555
O22 Te0 1.890010 1_655
O22 Tm5 2.207493 1_555
O22 Tm7 2.236476 1_545
O23 Te0 1.911514 1_655
O23 Tm4 2.183900 1_554
O23 Tm0 2.215825 1_655
