# generated using pymatgen
data_MgCoO3
_symmetry_space_group_name_H-M   'P 1'
_cell_length_a   5.35634343
_cell_length_b   5.35634343
_cell_length_c   5.35634435
_cell_angle_alpha   54.75089747
_cell_angle_beta   54.75089747
_cell_angle_gamma   54.75089366
_symmetry_Int_Tables_number   1
_chemical_formula_structural   MgCoO3
_chemical_formula_sum   'Mg2 Co2 O6'
_cell_volume   95.38042627
_cell_formula_units_Z   2
loop_
 _symmetry_equiv_pos_site_id
 _symmetry_equiv_pos_as_xyz
  1  'x, y, z'
loop_
 _atom_site_type_symbol
 _atom_site_label
 _atom_site_symmetry_multiplicity
 _atom_site_fract_x
 _atom_site_fract_y
 _atom_site_fract_z
 _atom_site_occupancy
  Mg  Mg0  1  0.63960800  0.63960800  0.63960800  1
  Mg  Mg1  1  0.36039200  0.36039200  0.36039200  1
  Co  Co0  1  0.83957700  0.83957700  0.83957700  1
  Co  Co1  1  0.16042300  0.16042300  0.16042300  1
  O  O0  1  0.56027400  0.95749000  0.21281000  1
  O  O1  1  0.21281000  0.56027400  0.95749000  1
  O  O2  1  0.95749000  0.21281000  0.56027400  1
  O  O3  1  0.04251000  0.78719000  0.43972600  1
  O  O4  1  0.78719000  0.43972600  0.04251000  1
  O  O5  1  0.43972600  0.04251000  0.78719000  1
loop_
_geom_bond_atom_site_label_1
_geom_bond_atom_site_label_2
_geom_bond_distance
_geom_bond_site_symmetry_2
Mg0 O2 2.024615 1_555
Mg0 O1 2.024615 1_555
Mg0 O0 2.024616 1_555
Mg0 O3 2.180310 1_655
Mg0 O5 2.180310 1_565
Mg0 O4 2.180310 1_556
Mg1 O3 2.024615 1_555
Mg1 O4 2.024615 1_555
Mg1 O5 2.024616 1_555
Mg1 O2 2.180310 1_455
Mg1 O0 2.180310 1_545
Mg1 O1 2.180310 1_554
Co0 O5 1.871303 1_565
Co0 O4 1.871303 1_556
Co0 O3 1.871304 1_655
Co0 O1 1.883684 1_655
Co0 O2 1.883684 1_565
Co0 O0 1.883684 1_556
Co1 O0 1.871303 1_545
Co1 O1 1.871303 1_554
Co1 O2 1.871304 1_455
Co1 O4 1.883684 1_455
Co1 O3 1.883684 1_545
Co1 O5 1.883684 1_554
