# generated using pymatgen
data_Li2Mn3(BO3)3
_symmetry_space_group_name_H-M   'P 1'
_cell_length_a   5.26681900
_cell_length_b   5.30666994
_cell_length_c   15.46891519
_cell_angle_alpha   93.21775663
_cell_angle_beta   90.62036114
_cell_angle_gamma   119.41368041
_symmetry_Int_Tables_number   1
_chemical_formula_structural   Li2Mn3(BO3)3
_chemical_formula_sum   'Li4 Mn6 B6 O18'
_cell_volume   375.65382214
_cell_formula_units_Z   2
loop_
 _symmetry_equiv_pos_site_id
 _symmetry_equiv_pos_as_xyz
  1  'x, y, z'
loop_
 _atom_site_type_symbol
 _atom_site_label
 _atom_site_symmetry_multiplicity
 _atom_site_fract_x
 _atom_site_fract_y
 _atom_site_fract_z
 _atom_site_occupancy
  Li  Li0  1  0.49328800  0.32165300  0.88872400  1
  Li  Li1  1  0.18703700  0.68076000  0.56471800  1
  Li  Li2  1  0.81296300  0.31924000  0.43528200  1
  Li  Li3  1  0.50671200  0.67834700  0.11127600  1
  Mn  Mn0  1  0.15620100  0.68254500  0.91515500  1
  Mn  Mn1  1  0.53277400  0.66687800  0.75121700  1
  Mn  Mn2  1  0.83954900  0.02069300  0.58663100  1
  Mn  Mn3  1  0.16045100  0.97930700  0.41336900  1
  Mn  Mn4  1  0.46722600  0.33312200  0.24878300  1
  Mn  Mn5  1  0.84379900  0.31745500  0.08484500  1
  B  B0  1  0.84220100  0.02426500  0.91497100  1
  B  B1  1  0.83393400  0.32275300  0.75565400  1
  B  B2  1  0.50765900  0.34943700  0.58243800  1
  B  B3  1  0.49234100  0.65056300  0.41756200  1
  B  B4  1  0.16606600  0.67724700  0.24434600  1
  B  B5  1  0.15779900  0.97573500  0.08502900  1
  O  O0  1  0.58783700  0.76490700  0.88352800  1
  O  O1  1  0.80345100  0.25816600  0.94457800  1
  O  O2  1  0.10836600  0.04644200  0.91268300  1
  O  O3  1  0.10113900  0.55330300  0.78127700  1
  O  O4  1  0.57525800  0.32397500  0.76580100  1
  O  O5  1  0.81681900  0.06685400  0.72051700  1
  O  O6  1  0.47974900  0.58658100  0.61761200  1
  O  O7  1  0.77876900  0.38462000  0.56673100  1
  O  O8  1  0.25697900  0.08968000  0.55694800  1
  O  O9  1  0.74302100  0.91032000  0.44305200  1
  O  O10  1  0.22123100  0.61538000  0.43326900  1
  O  O11  1  0.52025100  0.41341900  0.38238800  1
  O  O12  1  0.18318100  0.93314600  0.27948300  1
  O  O13  1  0.42474200  0.67602500  0.23419900  1
  O  O14  1  0.89886100  0.44669700  0.21872300  1
  O  O15  1  0.89163400  0.95355800  0.08731700  1
  O  O16  1  0.19654900  0.74183400  0.05542200  1
  O  O17  1  0.41216300  0.23509300  0.11647200  1
loop_
_geom_bond_atom_site_label_1
_geom_bond_atom_site_label_2
_geom_bond_distance
_geom_bond_site_symmetry_2
Li0 O2 1.883921 1_555
Li0 O4 1.953807 1_555
Li0 O1 2.017734 1_555
Li0 O0 2.158443 1_555
Li1 O7 1.944771 1_455
Li1 O6 2.017759 1_555
Li1 O8 2.025868 1_565
Li1 O10 2.068217 1_555
Li2 O10 1.944771 1_655
Li2 O11 2.017759 1_555
Li2 O9 2.025868 1_545
Li2 O7 2.068217 1_555
Li3 O15 1.883921 1_555
Li3 O13 1.953807 1_555
Li3 O16 2.017734 1_555
Li3 O17 2.158443 1_555
Mn0 O2 2.068805 1_565
Mn0 O3 2.115536 1_555
Mn0 O0 2.161166 1_555
Mn0 O16 2.167901 1_556
Mn0 O1 2.180430 1_455
Mn1 O4 1.963947 1_555
Mn1 O5 1.994593 1_565
Mn1 O0 2.064745 1_555
Mn1 O6 2.074287 1_555
Mn1 O3 2.110952 1_555
Mn2 O5 2.083481 1_555
Mn2 O8 2.104414 1_655
Mn2 O7 2.144473 1_555
Mn2 O6 2.232353 1_545
Mn2 O9 2.251987 1_545
Mn3 O12 2.083481 1_555
Mn3 O9 2.104414 1_455
Mn3 O10 2.144473 1_555
Mn3 O11 2.232353 1_565
Mn3 O8 2.251987 1_565
Mn4 O13 1.963947 1_555
Mn4 O12 1.994593 1_545
Mn4 O17 2.064745 1_555
Mn4 O11 2.074287 1_555
Mn4 O14 2.110952 1_555
Mn5 O15 2.068805 1_545
Mn5 O14 2.115536 1_555
Mn5 O17 2.161166 1_555
Mn5 O1 2.167901 1_554
Mn5 O16 2.180430 1_655
B0 O2 1.348986 1_655
B0 O1 1.406804 1_555
B0 O0 1.423124 1_545
B1 O3 1.369959 1_655
B1 O4 1.376229 1_555
B1 O5 1.394089 1_555
B2 O7 1.372409 1_555
B2 O8 1.392430 1_555
B2 O6 1.417005 1_555
B3 O10 1.372409 1_555
B3 O9 1.392430 1_555
B3 O11 1.417005 1_555
B4 O14 1.369959 1_455
B4 O13 1.376229 1_555
B4 O12 1.394089 1_555
B5 O15 1.348986 1_455
B5 O16 1.406804 1_555
B5 O17 1.423124 1_565
