# generated using pymatgen
data_LiNiO2
_symmetry_space_group_name_H-M   'P 1'
_cell_length_a   5.04404436
_cell_length_b   5.06223016
_cell_length_c   7.55069837
_cell_angle_alpha   107.22642781
_cell_angle_beta   104.00351988
_cell_angle_gamma   100.02901995
_symmetry_Int_Tables_number   1
_chemical_formula_structural   LiNiO2
_chemical_formula_sum   'Li5 Ni5 O10'
_cell_volume   172.27922130
_cell_formula_units_Z   5
loop_
 _symmetry_equiv_pos_site_id
 _symmetry_equiv_pos_as_xyz
  1  'x, y, z'
loop_
 _atom_site_type_symbol
 _atom_site_label
 _atom_site_symmetry_multiplicity
 _atom_site_fract_x
 _atom_site_fract_y
 _atom_site_fract_z
 _atom_site_occupancy
  Li  Li0  1  0.20505200  0.91142700  0.40919500  1
  Li  Li1  1  0.38923200  0.28249400  0.78266500  1
  Li  Li2  1  0.50000000  0.50000000  0.50000000  1
  Li  Li3  1  0.61076800  0.71750600  0.21733500  1
  Li  Li4  1  0.79494800  0.08857300  0.59080500  1
  Ni  Ni0  1  0.10009400  0.69587500  0.69639000  1
  Ni  Ni1  1  0.00000000  0.50000000  0.00000000  1
  Ni  Ni2  1  0.69894900  0.89519400  0.89853500  1
  Ni  Ni3  1  0.30105100  0.10480600  0.10146500  1
  Ni  Ni4  1  0.89990600  0.30412500  0.30361000  1
  O  O0  1  0.05843400  0.10729600  0.86198900  1
  O  O1  1  0.32696100  0.71543100  0.94865800  1
  O  O2  1  0.13035900  0.30520400  0.53983700  1
  O  O3  1  0.22646100  0.47590900  0.23036900  1
  O  O4  1  0.44276600  0.88662300  0.66347600  1
  O  O5  1  0.55723400  0.11337700  0.33652400  1
  O  O6  1  0.77353900  0.52409100  0.76963100  1
  O  O7  1  0.86964100  0.69479600  0.46016300  1
  O  O8  1  0.67303900  0.28456900  0.05134200  1
  O  O9  1  0.94156600  0.89270400  0.13801100  1
loop_
_geom_bond_atom_site_label_1
_geom_bond_atom_site_label_2
_geom_bond_distance
_geom_bond_site_symmetry_2
Li0 O7 2.032701 1_455
Li0 O4 2.054491 1_555
Li0 O2 2.089349 1_565
Li0 O9 2.119489 1_455
Li0 O5 2.161798 1_565
Li0 O3 2.255174 1_555
Li1 O2 2.024474 1_555
Li1 O4 2.033885 1_545
Li1 O0 2.052387 1_555
Li1 O6 2.144992 1_555
Li1 O8 2.177535 1_556
Li1 O1 2.296978 1_555
Li2 O7 2.084689 1_555
Li2 O2 2.084689 1_555
Li2 O4 2.091856 1_555
Li2 O5 2.091856 1_555
Li2 O6 2.120928 1_555
Li2 O3 2.120928 1_555
Li3 O7 2.024474 1_555
Li3 O5 2.033885 1_565
Li3 O9 2.052387 1_555
Li3 O3 2.144992 1_555
Li3 O1 2.177535 1_554
Li3 O8 2.296978 1_555
Li4 O2 2.032701 1_655
Li4 O5 2.054491 1_555
Li4 O7 2.089349 1_545
Li4 O0 2.119489 1_655
Li4 O4 2.161798 1_545
Li4 O6 2.255174 1_555
Ni0 O7 1.876521 1_455
Ni0 O1 1.934296 1_555
Ni0 O4 1.936605 1_555
Ni0 O6 2.000496 1_455
Ni0 O2 2.034607 1_555
Ni0 O0 2.163893 1_565
Ni1 O3 1.886243 1_555
Ni1 O6 1.886243 1_454
Ni1 O8 1.998222 1_455
Ni1 O1 1.998222 1_554
Ni1 O0 2.061673 1_554
Ni1 O9 2.061673 1_455
Ni2 O4 1.909631 1_555
Ni2 O9 1.927523 1_556
Ni2 O6 1.989589 1_555
Ni2 O8 2.012276 1_566
Ni2 O0 2.063118 1_665
Ni2 O1 2.108291 1_555
Ni3 O5 1.909631 1_555
Ni3 O0 1.927523 1_554
Ni3 O3 1.989589 1_555
Ni3 O1 2.012276 1_544
Ni3 O9 2.063118 1_445
Ni3 O8 2.108291 1_555
Ni4 O2 1.876521 1_655
Ni4 O8 1.934296 1_555
Ni4 O5 1.936605 1_555
Ni4 O3 2.000496 1_655
Ni4 O7 2.034607 1_555
Ni4 O9 2.163893 1_545
