# generated using pymatgen
data_Li4V5SnO12
_symmetry_space_group_name_H-M   'P 1'
_cell_length_a   5.23737106
_cell_length_b   5.23737106
_cell_length_c   10.28645159
_cell_angle_alpha   89.75724135
_cell_angle_beta   89.75724135
_cell_angle_gamma   119.48002117
_symmetry_Int_Tables_number   1
_chemical_formula_structural   Li4V5SnO12
_chemical_formula_sum   'Li4 V5 Sn1 O12'
_cell_volume   245.61752116
_cell_formula_units_Z   1
loop_
 _symmetry_equiv_pos_site_id
 _symmetry_equiv_pos_as_xyz
  1  'x, y, z'
loop_
 _atom_site_type_symbol
 _atom_site_label
 _atom_site_symmetry_multiplicity
 _atom_site_fract_x
 _atom_site_fract_y
 _atom_site_fract_z
 _atom_site_occupancy
  Li  Li0  1  0.36400600  0.84560600  0.74699100  1
  Li  Li1  1  0.15439400  0.63599400  0.25300900  1
  Li  Li2  1  0.84560600  0.36400600  0.74699100  1
  Li  Li3  1  0.63599400  0.15439400  0.25300900  1
  V  V0  1  0.15740300  0.84259700  0.50000000  1
  V  V1  1  0.33644300  0.66355700  0.00000000  1
  V  V2  1  0.66355700  0.33644300  0.00000000  1
  V  V3  1  0.84259700  0.15740300  0.50000000  1
  V  V4  1  0.50000000  0.50000000  0.50000000  1
  Sn  Sn0  1  0.00000000  0.00000000  0.00000000  1
  O  O0  1  0.33513900  0.98382000  0.11006400  1
  O  O1  1  0.01618000  0.66486100  0.88993600  1
  O  O2  1  0.49497200  0.84338700  0.39615400  1
  O  O3  1  0.15661300  0.50502800  0.60384600  1
  O  O4  1  0.82486300  0.82486300  0.60138000  1
  O  O5  1  0.66218500  0.66218500  0.10139600  1
  O  O6  1  0.33781500  0.33781500  0.89860400  1
  O  O7  1  0.17513700  0.17513700  0.39862000  1
  O  O8  1  0.84338700  0.49497200  0.39615400  1
  O  O9  1  0.50502800  0.15661300  0.60384600  1
  O  O10  1  0.98382000  0.33513900  0.11006400  1
  O  O11  1  0.66486100  0.01618000  0.88993600  1
loop_
_geom_bond_atom_site_label_1
_geom_bond_atom_site_label_2
_geom_bond_distance
_geom_bond_site_symmetry_2
Li0 O11 2.021941 1_565
Li0 O9 2.037935 1_565
Li0 O1 2.155216 1_555
Li0 O3 2.158357 1_555
Li1 O10 2.021941 1_455
Li1 O8 2.037935 1_455
Li1 O0 2.155216 1_555
Li1 O2 2.158357 1_555
Li2 O1 2.021941 1_655
Li2 O3 2.037935 1_655
Li2 O11 2.155216 1_555
Li2 O9 2.158357 1_555
Li3 O0 2.021941 1_545
Li3 O2 2.037935 1_545
Li3 O10 2.155216 1_555
Li3 O8 2.158357 1_555
O0 V1 2.030421 1_555
O0 V2 2.119040 1_565
O0 Sn0 2.128920 1_565
O1 V1 2.030421 1_556
O1 V2 2.119040 1_456
O1 Sn0 2.128920 1_566
O2 V0 2.059994 1_555
O2 V3 2.060307 1_565
O2 V4 2.099223 1_555
O3 V0 2.059994 1_555
O3 V3 2.060307 1_455
O3 V4 2.099223 1_555
O4 V0 1.988470 1_655
O4 V3 1.988470 1_565
O4 V4 2.014464 1_555
O5 V2 2.006374 1_555
O5 V1 2.006374 1_555
O5 Sn0 2.058205 1_665
O6 V2 2.006374 1_556
O6 V1 2.006374 1_556
O6 Sn0 2.058205 1_556
O7 V3 1.988470 1_455
O7 V0 1.988470 1_545
O7 V4 2.014464 1_555
O8 V3 2.059994 1_555
O8 V0 2.060307 1_655
O8 V4 2.099223 1_555
O9 V3 2.059994 1_555
O9 V0 2.060307 1_545
O9 V4 2.099223 1_555
O10 V2 2.030421 1_555
O10 V1 2.119040 1_655
O10 Sn0 2.128920 1_655
O11 V2 2.030421 1_556
O11 V1 2.119040 1_546
O11 Sn0 2.128920 1_656
