# generated using pymatgen
data_NaCoH2C3O7
_symmetry_space_group_name_H-M   'P 1'
_cell_length_a   15.79550700
_cell_length_b   5.92345300
_cell_length_c   7.06575425
_cell_angle_alpha   79.96575572
_cell_angle_beta   90.00000000
_cell_angle_gamma   90.00000000
_symmetry_Int_Tables_number   1
_chemical_formula_structural   NaCoH2C3O7
_chemical_formula_sum   'Na4 Co4 H8 C12 O28'
_cell_volume   650.98750938
_cell_formula_units_Z   4
loop_
 _symmetry_equiv_pos_site_id
 _symmetry_equiv_pos_as_xyz
  1  'x, y, z'
loop_
 _atom_site_type_symbol
 _atom_site_label
 _atom_site_symmetry_multiplicity
 _atom_site_fract_x
 _atom_site_fract_y
 _atom_site_fract_z
 _atom_site_occupancy
  Na  Na0  1  0.31670900  0.96726600  0.69240600  1
  Na  Na1  1  0.18329100  0.96726600  0.19240600  1
  Na  Na2  1  0.81670900  0.03273400  0.80759400  1
  Na  Na3  1  0.68329100  0.03273400  0.30759400  1
  Co  Co0  1  0.10046100  0.77205000  0.78290400  1
  Co  Co1  1  0.39953900  0.77205000  0.28290400  1
  Co  Co2  1  0.60046100  0.22795000  0.71709600  1
  Co  Co3  1  0.89953900  0.22795000  0.21709600  1
  H  H0  1  0.47167000  0.67504000  0.63778700  1
  H  H1  1  0.38084900  0.54792500  0.64129700  1
  H  H2  1  0.02833000  0.67504000  0.13778700  1
  H  H3  1  0.88084900  0.45207500  0.85870300  1
  H  H4  1  0.11915100  0.54792500  0.14129700  1
  H  H5  1  0.97167000  0.32496000  0.86221300  1
  H  H6  1  0.61915100  0.45207500  0.35870300  1
  H  H7  1  0.52833000  0.32496000  0.36221300  1
  C  C0  1  0.96394500  0.99466600  0.57416600  1
  C  C1  1  0.53605500  0.99466600  0.07416600  1
  C  C2  1  0.64925600  0.70240800  0.71444900  1
  C  C3  1  0.85074400  0.70240800  0.21444900  1
  C  C4  1  0.73115000  0.55454500  0.74668000  1
  C  C5  1  0.76885000  0.55454500  0.24668000  1
  C  C6  1  0.23115000  0.44545500  0.75332000  1
  C  C7  1  0.26885000  0.44545500  0.25332000  1
  C  C8  1  0.14925600  0.29759200  0.78555100  1
  C  C9  1  0.35074400  0.29759200  0.28555100  1
  C  C10  1  0.46394500  0.00533400  0.92583400  1
  C  C11  1  0.03605500  0.00533400  0.42583400  1
  O  O0  1  0.39609700  0.90030000  0.98253400  1
  O  O1  1  0.65944200  0.91761300  0.67534000  1
  O  O2  1  0.97682900  0.88287700  0.74172900  1
  O  O3  1  0.10390300  0.90030000  0.48253400  1
  O  O4  1  0.84055800  0.91761300  0.17534000  1
  O  O5  1  0.52317100  0.88287700  0.24172900  1
  O  O6  1  0.22261100  0.65636600  0.76577700  1
  O  O7  1  0.79927500  0.64810800  0.78508100  1
  O  O8  1  0.41311100  0.68949200  0.58623700  1
  O  O9  1  0.57971900  0.59225400  0.72934900  1
  O  O10  1  0.27738900  0.65636600  0.26577700  1
  O  O11  1  0.70072500  0.64810800  0.28508100  1
  O  O12  1  0.08688900  0.68949200  0.08623700  1
  O  O13  1  0.92028100  0.59225400  0.22934900  1
  O  O14  1  0.07971900  0.40774600  0.77065100  1
  O  O15  1  0.91311100  0.31050800  0.91376300  1
  O  O16  1  0.29927500  0.35189200  0.71491900  1
  O  O17  1  0.72261100  0.34363400  0.73422300  1
  O  O18  1  0.42028100  0.40774600  0.27065100  1
  O  O19  1  0.58688900  0.31050800  0.41376300  1
  O  O20  1  0.20072500  0.35189200  0.21491900  1
  O  O21  1  0.77738900  0.34363400  0.23422300  1
  O  O22  1  0.47682900  0.11712300  0.75827100  1
  O  O23  1  0.15944200  0.08238700  0.82466000  1
  O  O24  1  0.89609700  0.09970000  0.51746600  1
  O  O25  1  0.02317100  0.11712300  0.25827100  1
  O  O26  1  0.34055800  0.08238700  0.32466000  1
  O  O27  1  0.60390300  0.09970000  0.01746600  1
loop_
_geom_bond_atom_site_label_1
_geom_bond_atom_site_label_2
_geom_bond_distance
_geom_bond_site_symmetry_2
Na0 O16 2.327691 1_565
Na0 O6 2.353024 1_555
Na0 O0 2.376725 1_555
Na0 O8 2.453328 1_555
Na0 O26 2.596374 1_565
Na0 O22 2.746859 1_565
Na0 O23 2.780489 1_565
Na1 O20 2.327691 1_565
Na1 O10 2.353024 1_555
Na1 O3 2.376725 1_555
Na1 O12 2.453328 1_555
Na1 O23 2.596374 1_564
Na1 O25 2.746859 1_565
Na1 O26 2.780489 1_565
Na2 O7 2.327691 1_545
Na2 O17 2.353024 1_555
Na2 O24 2.376725 1_555
Na2 O15 2.453328 1_555
Na2 O4 2.596374 1_546
Na2 O2 2.746859 1_545
Na2 O1 2.780489 1_545
Na3 O11 2.327691 1_545
Na3 O21 2.353024 1_555
Na3 O27 2.376725 1_555
Na3 O19 2.453328 1_555
Na3 O1 2.596374 1_545
Na3 O5 2.746859 1_545
Na3 O4 2.780489 1_545
Co0 O6 2.058100 1_555
Co0 O2 2.064606 1_455
Co0 O12 2.124499 1_556
Co0 O3 2.126631 1_555
Co0 O23 2.126784 1_565
Co0 O14 2.199235 1_555
Co1 O10 2.058100 1_555
Co1 O5 2.064606 1_555
Co1 O8 2.124499 1_555
Co1 O0 2.126631 1_554
Co1 O26 2.126784 1_565
Co1 O18 2.199235 1_555
Co2 O17 2.058100 1_555
Co2 O22 2.064606 1_555
Co2 O19 2.124499 1_555
Co2 O27 2.126631 1_556
Co2 O1 2.126784 1_545
Co2 O9 2.199235 1_555
Co3 O21 2.058100 1_555
Co3 O25 2.064606 1_655
Co3 O15 2.124499 1_554
Co3 O24 2.126631 1_555
Co3 O4 2.126784 1_545
Co3 O13 2.199235 1_555
H0 O8 0.992321 1_555
H1 O8 1.000273 1_555
H1 O16 1.751775 1_555
H2 O12 0.992321 1_555
H3 O15 1.000273 1_555
H3 O7 1.751775 1_555
H4 O12 1.000273 1_555
H4 O20 1.751775 1_555
H5 O15 0.992321 1_555
H6 O19 1.000273 1_555
H6 O11 1.751775 1_555
H7 O19 0.992321 1_555
C0 O2 1.268248 1_555
C0 O24 1.268566 1_565
C1 O5 1.268248 1_555
C1 O27 1.268566 1_565
C2 O1 1.266688 1_555
C2 O9 1.272522 1_555
C3 O4 1.266688 1_555
C3 O13 1.272522 1_555
C4 O7 1.261389 1_555
C4 O17 1.274779 1_555
C5 O11 1.261389 1_555
C5 O21 1.274779 1_555
C6 O16 1.261389 1_555
C6 O6 1.274779 1_555
C7 O20 1.261389 1_555
C7 O10 1.274779 1_555
C8 O23 1.266688 1_555
C8 O14 1.272522 1_555
C9 O26 1.266688 1_555
C9 O18 1.272522 1_555
C10 O22 1.268248 1_555
C10 O0 1.268566 1_545
C11 O25 1.268248 1_555
C11 O3 1.268566 1_545
