# generated using pymatgen
data_Fe2C9(O4F)2
_symmetry_space_group_name_H-M   'P 1'
_cell_length_a   11.84747900
_cell_length_b   6.31391100
_cell_length_c   8.50378458
_cell_angle_alpha   72.79958073
_cell_angle_beta   90.00000000
_cell_angle_gamma   90.00000000
_symmetry_Int_Tables_number   1
_chemical_formula_structural   Fe2C9(O4F)2
_chemical_formula_sum   'Fe4 C18 O16 F4'
_cell_volume   607.66694120
_cell_formula_units_Z   2
loop_
 _symmetry_equiv_pos_site_id
 _symmetry_equiv_pos_as_xyz
  1  'x, y, z'
loop_
 _atom_site_type_symbol
 _atom_site_label
 _atom_site_symmetry_multiplicity
 _atom_site_fract_x
 _atom_site_fract_y
 _atom_site_fract_z
 _atom_site_occupancy
  Fe  Fe0  1  0.75000000  0.75220800  0.00893800  1
  Fe  Fe1  1  0.75000000  0.63350400  0.31768500  1
  Fe  Fe2  1  0.25000000  0.24779200  0.99106200  1
  Fe  Fe3  1  0.25000000  0.36649600  0.68231500  1
  C  C0  1  0.86043600  0.92012200  0.88873400  1
  C  C1  1  0.75000000  0.94262100  0.16134600  1
  C  C2  1  0.62963100  0.58562400  0.16405800  1
  C  C3  1  0.13847500  0.29313700  0.56413200  1
  C  C4  1  0.87036900  0.58562400  0.16405800  1
  C  C5  1  0.36043600  0.07987800  0.11126600  1
  C  C6  1  0.75000000  0.54549800  0.89808100  1
  C  C7  1  0.75000000  0.33860700  0.42869800  1
  C  C8  1  0.36152500  0.29313700  0.56413200  1
  C  C9  1  0.13956400  0.07987800  0.11126600  1
  C  C10  1  0.86152500  0.70686300  0.43586800  1
  C  C11  1  0.63847500  0.70686300  0.43586800  1
  C  C12  1  0.25000000  0.05737900  0.83865400  1
  C  C13  1  0.37036900  0.41437600  0.83594200  1
  C  C14  1  0.25000000  0.66139300  0.57130200  1
  C  C15  1  0.63956400  0.92012200  0.88873400  1
  C  C16  1  0.25000000  0.45450200  0.10191900  1
  C  C17  1  0.12963100  0.41437600  0.83594200  1
  O  O0  1  0.46113100  0.49033800  0.83460700  1
  O  O1  1  0.92670200  0.03612100  0.80688200  1
  O  O2  1  0.75000000  0.15367700  0.50553400  1
  O  O3  1  0.57021200  0.75523700  0.51619100  1
  O  O4  1  0.03886900  0.49033800  0.83460700  1
  O  O5  1  0.42978800  0.24476300  0.48380900  1
  O  O6  1  0.42670200  0.96387900  0.19311800  1
  O  O7  1  0.25000000  0.84632300  0.49446600  1
  O  O8  1  0.25000000  0.57432800  0.18177900  1
  O  O9  1  0.92978800  0.75523700  0.51619100  1
  O  O10  1  0.75000000  0.42567200  0.81822100  1
  O  O11  1  0.57329800  0.03612100  0.80688200  1
  O  O12  1  0.53886900  0.50966200  0.16539300  1
  O  O13  1  0.07329800  0.96387900  0.19311800  1
  O  O14  1  0.96113100  0.50966200  0.16539300  1
  O  O15  1  0.07021200  0.24476300  0.48380900  1
  F  F0  1  0.65883500  0.07868100  0.15990800  1
  F  F1  1  0.34116500  0.92131900  0.84009200  1
  F  F2  1  0.84116500  0.07868100  0.15990800  1
  F  F3  1  0.15883500  0.92131900  0.84009200  1
loop_
_geom_bond_atom_site_label_1
_geom_bond_atom_site_label_2
_geom_bond_distance
_geom_bond_site_symmetry_2
C0 O1 1.155751 1_565
C0 Fe0 1.799949 1_556
C1 F2 1.377861 1_565
C1 F0 1.377861 1_565
C1 Fe1 2.010509 1_555
C1 Fe0 2.011638 1_555
C2 O12 1.176101 1_555
C2 Fe0 2.014801 1_555
C2 Fe1 2.016272 1_555
C3 O15 1.156416 1_555
C3 Fe3 1.801579 1_555
C4 O14 1.176101 1_555
C4 Fe0 2.014801 1_555
C4 Fe1 2.016272 1_555
C5 O6 1.155751 1_545
C5 Fe2 1.799949 1_554
C6 O10 1.156489 1_555
C6 Fe0 1.822027 1_556
C7 O2 1.157183 1_555
C7 Fe1 1.821671 1_555
C8 O5 1.156416 1_555
C8 Fe3 1.801579 1_555
C9 O13 1.155751 1_545
C9 Fe2 1.799949 1_554
C10 O9 1.156416 1_555
C10 Fe1 1.801579 1_555
C11 O3 1.156416 1_555
C11 Fe1 1.801579 1_555
C12 F1 1.377861 1_545
C12 F3 1.377861 1_545
C12 Fe3 2.010509 1_555
C12 Fe2 2.011638 1_555
C13 O0 1.176101 1_555
C13 Fe2 2.014801 1_555
C13 Fe3 2.016272 1_555
C14 O7 1.157183 1_555
C14 Fe3 1.821671 1_555
C15 O11 1.155751 1_565
C15 Fe0 1.799949 1_556
C16 O8 1.156489 1_555
C16 Fe2 1.822027 1_554
C17 O4 1.176101 1_555
C17 Fe2 2.014801 1_555
C17 Fe3 2.016272 1_555
