# generated using pymatgen
data_Li4Ni5O9
_symmetry_space_group_name_H-M   'P 1'
_cell_length_a   7.57941769
_cell_length_b   6.40184935
_cell_length_c   7.59249420
_cell_angle_alpha   85.38460955
_cell_angle_beta   65.06738702
_cell_angle_gamma   65.18329838
_symmetry_Int_Tables_number   1
_chemical_formula_structural   Li4Ni5O9
_chemical_formula_sum   'Li8 Ni10 O18'
_cell_volume   301.13181740
_cell_formula_units_Z   2
loop_
 _symmetry_equiv_pos_site_id
 _symmetry_equiv_pos_as_xyz
  1  'x, y, z'
loop_
 _atom_site_type_symbol
 _atom_site_label
 _atom_site_symmetry_multiplicity
 _atom_site_fract_x
 _atom_site_fract_y
 _atom_site_fract_z
 _atom_site_occupancy
  Li  Li0  1  0.71997525  0.44846831  0.94893500  1
  Li  Li1  1  0.82322475  0.67123675  0.17290144  1
  Li  Li2  1  0.59656895  0.23287199  0.72962421  1
  Li  Li3  1  0.39454352  0.77451992  0.27674599  1
  Li  Li4  1  0.16779440  0.32993999  0.83049690  1
  Li  Li5  1  0.49555845  0.00377990  0.50272441  1
  Li  Li6  1  0.29075083  0.54639597  0.04945688  1
  Li  Li7  1  0.06591793  0.10650052  0.60472537  1
  Ni  Ni0  1  0.88812221  0.77994222  0.78026373  1
  Ni  Ni1  1  0.94485092  0.88870152  0.38868519  1
  Ni  Ni2  1  0.44467898  0.88869246  0.88859151  1
  Ni  Ni3  1  0.77414882  0.55563294  0.56104225  1
  Ni  Ni4  1  0.33453634  0.66834259  0.66449134  1
  Ni  Ni5  1  0.66519385  0.33397166  0.33230394  1
  Ni  Ni6  1  0.22370230  0.44338558  0.44534949  1
  Ni  Ni7  1  0.55428635  0.10914697  0.11311834  1
  Ni  Ni8  1  0.11479171  0.22203752  0.21632433  1
  Ni  Ni9  1  0.00082943  0.99782294  -0.00295542  1
  O  O0  1  0.95725103  0.47213988  0.69124209  1
  O  O1  1  0.70656462  0.88795905  0.65097201  1
  O  O2  1  0.80380360  0.09065841  0.88260982  1
  O  O3  1  0.54014264  0.56160164  0.79085691  1
  O  O4  1  0.26022058  0.97704102  0.74268517  1
  O  O5  1  0.88532301  0.21104854  0.44833547  1
  O  O6  1  0.58404860  0.65294885  0.43884390  1
  O  O7  1  0.34882771  0.21612967  0.98651076  1
  O  O8  1  0.08510805  0.68684395  0.89495100  1
  O  O9  1  0.93143139  0.30573758  0.08623952  1
  O  O10  1  0.62881116  0.80040867  0.03483391  1
  O  O11  1  0.40824039  0.35989608  0.58651729  1
  O  O12  1  0.13607638  0.77877541  0.51924816  1
  O  O13  1  0.75311965  -0.00109103  0.25839861  1
  O  O14  1  0.48050568  0.41758413  0.19133155  1
  O  O15  1  0.18243868  0.88987001  0.12618613  1
  O  O16  1  0.30475174  0.12446735  0.33857765  1
  O  O17  1  0.00386010  0.56659202  0.32883215  1
loop_
_geom_bond_atom_site_label_1
_geom_bond_atom_site_label_2
_geom_bond_distance
_geom_bond_site_symmetry_2
Li0 O14 2.036393 1_556
Li0 O3 2.057563 1_555
Li0 O0 2.073581 1_555
Li0 O9 2.125189 1_556
Li0 O10 2.128102 1_556
Li0 O2 2.144412 1_555
Li1 O10 2.023359 1_555
Li1 O13 2.024050 1_565
Li1 O17 2.047902 1_655
Li1 O6 2.105013 1_555
Li1 O9 2.182308 1_555
Li1 O8 2.237036 1_654
Li2 O3 2.015483 1_555
Li2 O11 2.017524 1_555
Li2 O1 2.043146 1_545
Li2 O7 2.095001 1_555
Li2 O2 2.193815 1_555
Li2 O5 2.284983 1_555
Li3 O10 2.000556 1_555
Li3 O12 2.037345 1_555
Li3 O16 2.079079 1_565
Li3 O6 2.140406 1_555
Li3 O14 2.167720 1_555
Li3 O15 2.203072 1_555
Li4 O11 2.044374 1_555
Li4 O7 2.051569 1_555
Li4 O9 2.062893 1_456
Li4 O0 2.131032 1_455
Li4 O4 2.135265 1_545
Li4 O8 2.138251 1_555
Li5 O4 1.999130 1_545
Li5 O13 2.039151 1_555
Li5 O6 2.089496 1_545
Li5 O11 2.156879 1_555
Li5 O16 2.160635 1_555
Li5 O1 2.182295 1_545
Li6 O14 2.019031 1_555
Li6 O7 2.023979 1_554
Li6 O15 2.033714 1_555
Li6 O3 2.105271 1_554
Li6 O8 2.193026 1_554
Li6 O17 2.272385 1_555
Li7 O4 2.022174 1_545
Li7 O12 2.024203 1_545
Li7 O5 2.050572 1_455
Li7 O16 2.103995 1_555
Li7 O0 2.182199 1_455
Li7 O2 2.238157 1_455
Ni0 O1 1.888474 1_555
Ni0 O8 1.899531 1_655
Ni0 O0 1.913984 1_555
Ni0 O2 1.931824 1_565
Ni0 O10 2.058557 1_556
Ni0 O12 2.076031 1_655
Ni1 O12 1.954861 1_655
Ni1 O13 1.956301 1_565
Ni1 O5 1.965642 1_565
Ni1 O17 1.965717 1_655
Ni1 O15 2.048904 1_655
Ni1 O1 2.049630 1_555
Ni2 O3 1.996120 1_555
Ni2 O7 1.997913 1_565
Ni2 O4 2.010703 1_555
Ni2 O10 2.010822 1_556
Ni2 O1 2.041860 1_555
Ni2 O15 2.042431 1_556
Ni3 O3 1.880540 1_555
Ni3 O6 1.898815 1_555
Ni3 O0 1.907318 1_555
Ni3 O17 1.907685 1_655
Ni3 O1 2.068559 1_555
Ni3 O5 2.108111 1_555
Ni4 O11 1.882828 1_555
Ni4 O4 1.883540 1_555
Ni4 O6 1.913222 1_555
Ni4 O8 1.925150 1_555
Ni4 O3 2.019193 1_555
Ni4 O12 2.087800 1_555
Ni5 O14 1.983349 1_555
Ni5 O6 1.998663 1_555
Ni5 O13 2.009616 1_555
Ni5 O11 2.038836 1_555
Ni5 O9 2.040763 1_555
Ni5 O5 2.050518 1_555
Ni6 O11 1.983682 1_555
Ni6 O16 1.999156 1_555
Ni6 O12 2.012130 1_555
Ni6 O14 2.037618 1_555
Ni6 O0 2.040181 1_455
Ni6 O17 2.051459 1_555
Ni7 O14 1.883108 1_555
Ni7 O10 1.883536 1_545
Ni7 O16 1.912770 1_555
Ni7 O2 1.925744 1_554
Ni7 O7 2.019650 1_554
Ni7 O13 2.090303 1_555
Ni8 O7 1.880775 1_554
Ni8 O16 1.898215 1_555
Ni8 O5 1.905950 1_455
Ni8 O9 1.908150 1_455
Ni8 O15 2.067929 1_545
Ni8 O17 2.107839 1_555
Ni9 O15 1.887868 1_555
Ni9 O2 1.898413 1_464
Ni9 O9 1.914458 1_465
Ni9 O8 1.932798 1_554
Ni9 O4 2.057487 1_554
Ni9 O13 2.076733 1_465
