# generated using pymatgen
data_TmBiO3
_symmetry_space_group_name_H-M   'P 1'
_cell_length_a   6.10516530
_cell_length_b   6.10516530
_cell_length_c   6.10516523
_cell_angle_alpha   58.50968606
_cell_angle_beta   58.50968606
_cell_angle_gamma   58.50969275
_symmetry_Int_Tables_number   1
_chemical_formula_structural   TmBiO3
_chemical_formula_sum   'Tm2 Bi2 O6'
_cell_volume   155.42246880
_cell_formula_units_Z   2
loop_
 _symmetry_equiv_pos_site_id
 _symmetry_equiv_pos_as_xyz
  1  'x, y, z'
loop_
 _atom_site_type_symbol
 _atom_site_label
 _atom_site_symmetry_multiplicity
 _atom_site_fract_x
 _atom_site_fract_y
 _atom_site_fract_z
 _atom_site_occupancy
  Tm  Tm0  1  0.77798800  0.77798800  0.77798800  1
  Tm  Tm1  1  0.27798800  0.27798800  0.27798800  1
  Bi  Bi0  1  0.99212600  0.99212600  0.99212600  1
  Bi  Bi1  1  0.49212600  0.49212600  0.49212600  1
  O  O0  1  0.58494600  0.92482100  0.14170900  1
  O  O1  1  0.64170900  0.42482100  0.08494600  1
  O  O2  1  0.08494600  0.64170900  0.42482100  1
  O  O3  1  0.14170900  0.58494600  0.92482100  1
  O  O4  1  0.92482100  0.14170900  0.58494600  1
  O  O5  1  0.42482100  0.08494600  0.64170900  1
loop_
_geom_bond_atom_site_label_1
_geom_bond_atom_site_label_2
_geom_bond_distance
_geom_bond_site_symmetry_2
Bi0 O0 2.342212 1_556
Bi0 O4 2.342212 1_565
Bi0 O3 2.342212 1_655
Bi0 O5 2.503925 1_665
Bi0 O2 2.503925 1_656
Bi0 O1 2.503925 1_566
Bi1 O5 2.342212 1_555
Bi1 O1 2.342212 1_555
Bi1 O2 2.342212 1_555
Bi1 O0 2.503925 1_555
Bi1 O3 2.503925 1_555
Bi1 O4 2.503925 1_555
O0 Tm1 2.208406 1_565
O0 Tm0 2.316323 1_554
O1 Tm0 2.208406 1_554
O1 Tm1 2.316323 1_555
O2 Tm0 2.208406 1_455
O2 Tm1 2.316323 1_555
O3 Tm1 2.208406 1_556
O3 Tm0 2.316323 1_455
O4 Tm1 2.208406 1_655
O4 Tm0 2.316323 1_545
O5 Tm0 2.208406 1_545
O5 Tm1 2.316323 1_555
