# generated using pymatgen
data_Sr3Mn4O12
_symmetry_space_group_name_H-M   'P 1'
_cell_length_a   5.51515600
_cell_length_b   5.51515669
_cell_length_c   9.31707400
_cell_angle_alpha   90.00000000
_cell_angle_beta   90.00000000
_cell_angle_gamma   119.99999585
_symmetry_Int_Tables_number   1
_chemical_formula_structural   Sr3Mn4O12
_chemical_formula_sum   'Sr3 Mn4 O12'
_cell_volume   245.42898520
_cell_formula_units_Z   1
loop_
 _symmetry_equiv_pos_site_id
 _symmetry_equiv_pos_as_xyz
  1  'x, y, z'
loop_
 _atom_site_type_symbol
 _atom_site_label
 _atom_site_symmetry_multiplicity
 _atom_site_fract_x
 _atom_site_fract_y
 _atom_site_fract_z
 _atom_site_occupancy
  Sr  Sr0  1  0.00000000  0.00000000  0.50000000  1
  Sr  Sr1  1  0.33333300  0.66666700  0.24289500  1
  Sr  Sr2  1  0.66666700  0.33333300  0.75710500  1
  Mn  Mn0  1  0.33333300  0.66666700  0.88723300  1
  Mn  Mn1  1  0.33333300  0.66666700  0.61170500  1
  Mn  Mn2  1  0.66666700  0.33333300  0.38829500  1
  Mn  Mn3  1  0.66666700  0.33333300  0.11276700  1
  O  O0  1  0.00000000  0.50000000  0.50000000  1
  O  O1  1  0.18357800  0.81642200  0.74818400  1
  O  O2  1  0.50000000  0.00000000  0.50000000  1
  O  O3  1  0.18357800  0.36715500  0.74818400  1
  O  O4  1  0.63284500  0.81642200  0.74818400  1
  O  O5  1  0.50000000  0.50000000  0.00000000  1
  O  O6  1  0.50000000  0.50000000  0.50000000  1
  O  O7  1  0.36715500  0.18357800  0.25181600  1
  O  O8  1  0.50000000  0.00000000  0.00000000  1
  O  O9  1  0.81642200  0.63284500  0.25181600  1
  O  O10  1  0.81642200  0.18357800  0.25181600  1
  O  O11  1  0.00000000  0.50000000  0.00000000  1
loop_
_geom_bond_atom_site_label_1
_geom_bond_atom_site_label_2
_geom_bond_distance
_geom_bond_site_symmetry_2
Mn0 O11 1.907518 1_556
Mn0 O8 1.907518 1_566
Mn0 O5 1.907522 1_556
Mn0 O1 1.929984 1_555
Mn0 O4 1.929992 1_555
Mn0 O3 1.929992 1_555
Mn1 O0 1.902086 1_555
Mn1 O2 1.902086 1_565
Mn1 O6 1.902090 1_555
Mn1 O1 1.913993 1_555
Mn1 O4 1.914001 1_555
Mn1 O3 1.914001 1_555
Mn2 O0 1.902086 1_655
Mn2 O2 1.902086 1_555
Mn2 O6 1.902090 1_555
Mn2 O10 1.913993 1_555
Mn2 O7 1.914001 1_555
Mn2 O9 1.914001 1_555
Mn3 O11 1.907518 1_655
Mn3 O8 1.907518 1_555
Mn3 O5 1.907522 1_555
Mn3 O10 1.929984 1_555
Mn3 O7 1.929992 1_555
Mn3 O9 1.929992 1_555
O0 Sr0 2.757578 1_565
O0 Sr0 2.757578 1_555
O0 Sr2 2.876282 1_455
O0 Sr1 2.876282 1_555
O1 Sr2 2.763556 1_455
O1 Sr2 2.763556 1_565
O1 Sr0 2.902101 1_565
O2 Sr0 2.757578 1_655
O2 Sr0 2.757578 1_555
O2 Sr2 2.876282 1_555
O2 Sr1 2.876282 1_545
O3 Sr2 2.763556 1_555
O3 Sr2 2.763556 1_455
O3 Sr0 2.902098 1_555
O4 Sr2 2.763556 1_555
O4 Sr2 2.763556 1_565
O4 Sr0 2.902098 1_665
O5 Sr2 2.766992 1_554
O5 Sr1 2.766992 1_555
O6 Sr0 2.757578 1_665
O6 Sr0 2.757578 1_555
O6 Sr1 2.876285 1_555
O6 Sr2 2.876285 1_555
O7 Sr1 2.763556 1_555
O7 Sr1 2.763556 1_545
O7 Sr0 2.902098 1_555
O8 Sr2 2.766989 1_554
O8 Sr1 2.766989 1_545
O9 Sr1 2.763556 1_555
O9 Sr1 2.763556 1_655
O9 Sr0 2.902098 1_665
O10 Sr1 2.763556 1_655
O10 Sr1 2.763556 1_545
O10 Sr0 2.902101 1_655
O11 Sr2 2.766989 1_454
O11 Sr1 2.766989 1_555
