# generated using pymatgen
data_Zr3N2O3
_symmetry_space_group_name_H-M   'P 1'
_cell_length_a   5.77220171
_cell_length_b   5.77220171
_cell_length_c   10.82210187
_cell_angle_alpha   89.53823874
_cell_angle_beta   89.53823874
_cell_angle_gamma   41.10903034
_symmetry_Int_Tables_number   1
_chemical_formula_structural   Zr3N2O3
_chemical_formula_sum   'Zr6 N4 O6'
_cell_volume   237.06657563
_cell_formula_units_Z   2
loop_
 _symmetry_equiv_pos_site_id
 _symmetry_equiv_pos_as_xyz
  1  'x, y, z'
loop_
 _atom_site_type_symbol
 _atom_site_label
 _atom_site_symmetry_multiplicity
 _atom_site_fract_x
 _atom_site_fract_y
 _atom_site_fract_z
 _atom_site_occupancy
  Zr  Zr0  1  0.81487700  0.81487700  0.24818100  1
  Zr  Zr1  1  0.85487200  0.85487200  0.94071700  1
  Zr  Zr2  1  0.86228300  0.86228300  0.55497000  1
  Zr  Zr3  1  0.19192000  0.19192000  0.74849600  1
  Zr  Zr4  1  0.14207500  0.14207500  0.05441500  1
  Zr  Zr5  1  0.13474100  0.13474100  0.43997400  1
  N  N0  1  0.70086400  0.70086400  0.07776200  1
  N  N1  1  0.95211800  0.95211800  0.38428000  1
  N  N2  1  0.29419500  0.29419500  0.57429400  1
  N  N3  1  0.29689600  0.29689600  0.91943200  1
  O  O0  1  0.68962000  0.68962000  0.41945100  1
  O  O1  1  0.75355400  0.75355400  0.75101900  1
  O  O2  1  0.95378600  0.95378600  0.11269800  1
  O  O3  1  0.24344000  0.24344000  0.25617500  1
  O  O4  1  0.04323500  0.04323500  0.88392600  1
  O  O5  1  0.04195500  0.04195500  0.61901600  1
loop_
_geom_bond_atom_site_label_1
_geom_bond_atom_site_label_2
_geom_bond_distance
_geom_bond_site_symmetry_2
N0 Zr4 2.139530 1_565
N0 Zr4 2.139530 1_655
N0 Zr1 2.220023 1_554
N0 Zr0 2.226971 1_555
N1 Zr5 2.068977 1_665
N1 Zr2 2.079503 1_555
N1 Zr0 2.099467 1_555
N2 Zr2 2.165624 1_455
N2 Zr2 2.165624 1_545
N2 Zr3 2.177254 1_555
N2 Zr5 2.264287 1_555
N3 Zr1 2.134347 1_455
N3 Zr1 2.134347 1_545
N3 Zr3 2.178495 1_555
N3 Zr4 2.211914 1_556
O0 Zr5 2.122761 1_565
O0 Zr5 2.122761 1_655
O0 Zr0 2.285931 1_555
O0 Zr2 2.383583 1_555
O1 Zr3 2.133559 1_655
O1 Zr3 2.133559 1_565
O1 Zr1 2.335097 1_555
O1 Zr2 2.416581 1_555
O2 Zr0 2.089612 1_555
O2 Zr4 2.125607 1_665
O2 Zr1 2.154417 1_554
O3 Zr0 2.170201 1_455
O3 Zr0 2.170201 1_545
O3 Zr5 2.301484 1_555
O3 Zr4 2.451382 1_555
O4 Zr1 2.121770 1_445
O4 Zr4 2.140009 1_556
O4 Zr3 2.165792 1_555
O5 Zr2 2.067743 1_445
O5 Zr3 2.151829 1_555
O5 Zr5 2.174126 1_555
