# generated using pymatgen
data_Li2FeF5
_symmetry_space_group_name_H-M   'P 1'
_cell_length_a   5.55325827
_cell_length_b   5.55306113
_cell_length_c   7.12109975
_cell_angle_alpha   70.69492626
_cell_angle_beta   70.69457357
_cell_angle_gamma   53.67841102
_symmetry_Int_Tables_number   1
_chemical_formula_structural   Li2FeF5
_chemical_formula_sum   'Li4 Fe2 F10'
_cell_volume   164.33814200
_cell_formula_units_Z   2
loop_
 _symmetry_equiv_pos_site_id
 _symmetry_equiv_pos_as_xyz
  1  'x, y, z'
loop_
 _atom_site_type_symbol
 _atom_site_label
 _atom_site_symmetry_multiplicity
 _atom_site_fract_x
 _atom_site_fract_y
 _atom_site_fract_z
 _atom_site_occupancy
  Li  Li0  1  0.38018462  0.34855868  0.73260904  1
  Li  Li1  1  0.34854509  0.38018065  0.23263075  1
  Li  Li2  1  0.65145491  0.61981935  0.76736925  1
  Li  Li3  1  0.61981538  0.65144132  0.26739096  1
  Fe  Fe0  1  0.00000000  -0.00000000  0.50000000  1
  Fe  Fe1  1  0.00000000  -0.00000000  0.00000000  1
  F  F0  1  0.59082050  0.24216705  0.95137402  1
  F  F1  1  0.24217983  0.59078486  0.45137133  1
  F  F2  1  0.66451200  0.96484517  0.64813786  1
  F  F3  1  0.03514653  0.33543835  0.85186752  1
  F  F4  1  0.96485347  0.66456165  0.14813248  1
  F  F5  1  0.33548800  0.03515483  0.35186214  1
  F  F6  1  0.75782017  0.40921514  0.54862867  1
  F  F7  1  0.18338691  0.81659241  0.75002711  1
  F  F8  1  0.40917950  0.75783295  0.04862598  1
  F  F9  1  0.81661309  0.18340759  0.24997289  1
loop_
_geom_bond_atom_site_label_1
_geom_bond_atom_site_label_2
_geom_bond_distance
_geom_bond_site_symmetry_2
F0 Fe1 1.919388 1_656
F0 Li0 1.980362 1_555
F0 Li1 2.102529 1_556
F0 Li2 2.226238 1_555
F1 Fe0 1.919481 1_565
F1 Li1 1.980093 1_555
F1 Li0 2.102383 1_555
F1 Li3 2.226234 1_555
F2 Li2 1.856148 1_555
F2 Fe0 1.901863 1_665
F2 Li0 1.905005 1_565
F3 Li0 1.856460 1_555
F3 Fe1 1.901548 1_556
F3 Li2 1.905073 1_455
F4 Li3 1.856460 1_555
F4 Fe1 1.901548 1_665
F4 Li1 1.905073 1_655
F5 Li1 1.856148 1_555
F5 Fe0 1.901863 1_555
F5 Li3 1.905005 1_545
F6 Fe0 1.919481 1_655
F6 Li2 1.980093 1_555
F6 Li3 2.102383 1_555
F6 Li0 2.226234 1_555
F7 Fe1 2.003614 1_566
F7 Fe0 2.003921 1_565
F7 Li0 2.173328 1_555
F7 Li2 2.173473 1_555
F8 Fe1 1.919388 1_565
F8 Li3 1.980362 1_555
F8 Li2 2.102529 1_554
F8 Li1 2.226238 1_555
F9 Fe1 2.003614 1_655
F9 Fe0 2.003921 1_655
F9 Li3 2.173328 1_555
F9 Li1 2.173473 1_555
