# generated using pymatgen
data_LiFeOF2
_symmetry_space_group_name_H-M   'P 1'
_cell_length_a   5.29250300
_cell_length_b   8.81395200
_cell_length_c   12.61117157
_cell_angle_alpha   49.03233671
_cell_angle_beta   90.00000000
_cell_angle_gamma   90.00000000
_symmetry_Int_Tables_number   1
_chemical_formula_structural   LiFeOF2
_chemical_formula_sum   'Li8 Fe8 O8 F16'
_cell_volume   444.20151846
_cell_formula_units_Z   8
loop_
 _symmetry_equiv_pos_site_id
 _symmetry_equiv_pos_as_xyz
  1  'x, y, z'
loop_
 _atom_site_type_symbol
 _atom_site_label
 _atom_site_symmetry_multiplicity
 _atom_site_fract_x
 _atom_site_fract_y
 _atom_site_fract_z
 _atom_site_occupancy
  Li  Li0  1  0.06963100  0.82779600  0.00319200  1
  Li  Li1  1  0.09695200  0.95510900  0.21329500  1
  Li  Li2  1  0.90304800  0.95510900  0.71329500  1
  Li  Li3  1  0.93036900  0.82779600  0.50319200  1
  Li  Li4  1  0.57534700  0.63636300  0.00608000  1
  Li  Li5  1  0.58870500  0.15247600  0.19549900  1
  Li  Li6  1  0.41129500  0.15247600  0.69549900  1
  Li  Li7  1  0.42465300  0.63636300  0.50608000  1
  Fe  Fe0  1  0.07297300  0.32512900  0.19077900  1
  Fe  Fe1  1  0.04320400  0.44338600  0.41939500  1
  Fe  Fe2  1  0.95679600  0.44338600  0.91939500  1
  Fe  Fe3  1  0.92702700  0.32512900  0.69077900  1
  Fe  Fe4  1  0.60865400  0.78505700  0.19884200  1
  Fe  Fe5  1  0.61596300  0.23382800  0.43304600  1
  Fe  Fe6  1  0.38403700  0.23382800  0.93304600  1
  Fe  Fe7  1  0.39134600  0.78505700  0.69884200  1
  O  O0  1  0.20814400  0.41615400  0.56576100  1
  O  O1  1  0.23428900  0.26377400  0.06161200  1
  O  O2  1  0.07758400  0.33912900  0.82785600  1
  O  O3  1  0.08974700  0.70880800  0.79380000  1
  O  O4  1  0.91025300  0.70880800  0.29380000  1
  O  O5  1  0.92241600  0.33912900  0.32785600  1
  O  O6  1  0.76571100  0.26377400  0.56161200  1
  O  O7  1  0.79185600  0.41615400  0.06576100  1
  F  F0  1  0.24173300  0.58863000  0.07626300  1
  F  F1  1  0.06824400  0.04019400  0.80518900  1
  F  F2  1  0.93175600  0.04019400  0.30518900  1
  F  F3  1  0.75826700  0.58863000  0.57626300  1
  F  F4  1  0.72391400  0.77375500  0.05852400  1
  F  F5  1  0.71383600  0.93476200  0.56575700  1
  F  F6  1  0.69791500  0.09362200  0.06503600  1
  F  F7  1  0.57986700  0.50991100  0.82291500  1
  F  F8  1  0.57103000  0.85152000  0.80267500  1
  F  F9  1  0.58263500  0.20937800  0.80570300  1
  F  F10  1  0.41736500  0.20937800  0.30570300  1
  F  F11  1  0.42897000  0.85152000  0.30267500  1
  F  F12  1  0.42013300  0.50991100  0.32291500  1
  F  F13  1  0.30208500  0.09362200  0.56503600  1
  F  F14  1  0.28616400  0.93476200  0.06575700  1
  F  F15  1  0.27608600  0.77375500  0.55852400  1
loop_
_geom_bond_atom_site_label_1
_geom_bond_atom_site_label_2
_geom_bond_distance
_geom_bond_site_symmetry_2
Li1 O4 1.956987 1_455
Li1 O1 2.182868 1_565
Li2 O3 1.956987 1_655
Li2 O6 2.182868 1_565
Li4 O7 1.931610 1_555
Li5 O7 2.061094 1_555
Li5 O1 2.271512 1_555
Li6 O0 2.061094 1_555
Li6 O6 2.271512 1_555
Li7 O0 1.931610 1_555
Fe0 O7 1.919470 1_455
Fe0 O5 1.979463 1_455
Fe0 O1 2.197709 1_555
Fe1 O4 1.902093 1_455
Fe1 O0 1.909410 1_555
Fe1 O5 1.994179 1_455
Fe1 O6 2.038797 1_455
Fe2 O3 1.902093 1_655
Fe2 O7 1.909410 1_556
Fe2 O2 1.994179 1_655
Fe2 O1 2.038797 1_656
Fe3 O0 1.919470 1_655
Fe3 O2 1.979463 1_655
Fe3 O6 2.197709 1_555
Fe4 O4 1.838021 1_555
Fe5 O5 1.907174 1_555
Fe5 O6 1.971744 1_555
Fe6 O2 1.907174 1_555
Fe6 O1 1.971744 1_556
Fe7 O3 1.838021 1_555
F0 Li0 1.890845 1_555
F0 Li4 1.894634 1_555
F0 Fe0 1.969577 1_555
F1 Li0 1.900064 1_546
F1 Li2 1.951780 1_445
F1 Fe3 2.048435 1_455
F1 Li6 2.096247 1_555
F2 Li3 1.900064 1_545
F2 Li1 1.951780 1_645
F2 Fe0 2.048435 1_655
F2 Li5 2.096247 1_555
F3 Li3 1.890845 1_555
F3 Li7 1.894634 1_555
F3 Fe3 1.969577 1_555
F4 Li4 1.890059 1_555
F4 Li0 1.904155 1_655
F4 Fe4 1.935092 1_555
F5 Li3 1.949398 1_555
F5 Fe5 2.057379 1_565
F5 Fe7 2.137086 1_555
F5 Li2 2.221362 1_555
F6 Fe6 2.088100 1_554
F6 Li5 2.104585 1_555
F6 Fe4 2.109381 1_545
F7 Fe7 2.085496 1_555
F7 Fe6 2.119639 1_555
F7 Fe2 2.206435 1_555
F8 Li4 1.948895 1_556
F8 Li2 1.960217 1_555
F8 Fe7 1.991995 1_555
F8 Li6 2.208306 1_565
F9 Li6 1.979745 1_555
F9 Fe6 2.045501 1_555
F9 Fe3 2.127143 1_555
F10 Li5 1.979745 1_555
F10 Fe5 2.045501 1_555
F10 Fe0 2.127143 1_555
F11 Li7 1.948895 1_555
F11 Li1 1.960217 1_555
F11 Fe4 1.991995 1_555
F11 Li5 2.208306 1_565
F12 Fe4 2.085496 1_555
F12 Fe5 2.119639 1_555
F12 Fe1 2.206435 1_555
F13 Fe5 2.088100 1_555
F13 Li6 2.104585 1_555
F13 Fe7 2.109381 1_545
F14 Li0 1.949398 1_555
F14 Fe6 2.057379 1_564
F14 Fe4 2.137086 1_555
F14 Li1 2.221362 1_555
F15 Li7 1.890059 1_555
F15 Li3 1.904155 1_455
F15 Fe7 1.935092 1_555
