# generated using pymatgen
data_Re2H6PbC(NO5)2
_symmetry_space_group_name_H-M   'P 1'
_cell_length_a   7.47425200
_cell_length_b   10.53080100
_cell_length_c   14.70605477
_cell_angle_alpha   79.65687461
_cell_angle_beta   90.00000000
_cell_angle_gamma   90.00000000
_symmetry_Int_Tables_number   1
_chemical_formula_structural   Re2H6PbC(NO5)2
_chemical_formula_sum   'Re8 H24 Pb4 C4 N8 O40'
_cell_volume   1138.70216255
_cell_formula_units_Z   4
loop_
 _symmetry_equiv_pos_site_id
 _symmetry_equiv_pos_as_xyz
  1  'x, y, z'
loop_
 _atom_site_type_symbol
 _atom_site_label
 _atom_site_symmetry_multiplicity
 _atom_site_fract_x
 _atom_site_fract_y
 _atom_site_fract_z
 _atom_site_occupancy
  Re  Re0  1  0.84634300  0.45612300  0.34933500  1
  Re  Re1  1  0.34634300  0.54387700  0.15066500  1
  Re  Re2  1  0.15365700  0.54387700  0.65066500  1
  Re  Re3  1  0.65365700  0.45612300  0.84933500  1
  Re  Re4  1  0.74661700  0.01514000  0.41332500  1
  Re  Re5  1  0.24661700  0.98486000  0.08667500  1
  Re  Re6  1  0.25338300  0.98486000  0.58667500  1
  Re  Re7  1  0.75338300  0.01514000  0.91332500  1
  H  H0  1  0.60584700  0.16275000  0.73159700  1
  H  H1  1  0.10584700  0.83725000  0.76840300  1
  H  H2  1  0.39415300  0.83725000  0.26840300  1
  H  H3  1  0.89415300  0.16275000  0.23159700  1
  H  H4  1  0.43924200  0.26237500  0.67408600  1
  H  H5  1  0.93924200  0.73762500  0.82591400  1
  H  H6  1  0.56075800  0.73762500  0.32591400  1
  H  H7  1  0.06075800  0.26237500  0.17408600  1
  H  H8  1  0.89802500  0.18681800  0.68397600  1
  H  H9  1  0.39802500  0.81318200  0.81602400  1
  H  H10  1  0.10197500  0.81318200  0.31602400  1
  H  H11  1  0.60197500  0.18681800  0.18397600  1
  H  H12  1  0.95788800  0.29880300  0.58591600  1
  H  H13  1  0.45788800  0.70119700  0.91408400  1
  H  H14  1  0.04211200  0.70119700  0.41408400  1
  H  H15  1  0.54211200  0.29880300  0.08591600  1
  H  H16  1  0.81363400  0.84818500  0.65047000  1
  H  H17  1  0.31363400  0.15181500  0.84953000  1
  H  H18  1  0.18636600  0.15181500  0.34953000  1
  H  H19  1  0.68636600  0.84818500  0.15047000  1
  H  H20  1  0.60894600  0.85601100  0.67651100  1
  H  H21  1  0.10894600  0.14398900  0.82348900  1
  H  H22  1  0.39105400  0.14398900  0.32348900  1
  H  H23  1  0.89105400  0.85601100  0.17651100  1
  Pb  Pb0  1  0.62741000  0.64201100  0.55963400  1
  Pb  Pb1  1  0.12741000  0.35798900  0.94036600  1
  Pb  Pb2  1  0.37259000  0.35798900  0.44036600  1
  Pb  Pb3  1  0.87259000  0.64201100  0.05963400  1
  C  C0  1  0.69141600  0.29742300  0.62014700  1
  C  C1  1  0.19141600  0.70257700  0.87985300  1
  C  C2  1  0.30858400  0.70257700  0.37985300  1
  C  C3  1  0.80858400  0.29742300  0.12014700  1
  N  N0  1  0.56984500  0.23600600  0.67988800  1
  N  N1  1  0.06984500  0.76399400  0.82011200  1
  N  N2  1  0.43015500  0.76399400  0.32011200  1
  N  N3  1  0.93015500  0.23600600  0.17988800  1
  N  N4  1  0.86372100  0.26171300  0.63295800  1
  N  N5  1  0.36372100  0.73828700  0.86704200  1
  N  N6  1  0.13627900  0.73828700  0.36704200  1
  N  N7  1  0.63627900  0.26171300  0.13295800  1
  O  O0  1  0.75496100  0.58608200  0.39331300  1
  O  O1  1  0.25496100  0.41391800  0.10668700  1
  O  O2  1  0.24503900  0.41391800  0.60668700  1
  O  O3  1  0.74503900  0.58608200  0.89331300  1
  O  O4  1  0.68897400  0.33122200  0.35544200  1
  O  O5  1  0.18897400  0.66877800  0.14455800  1
  O  O6  1  0.31102600  0.66877800  0.64455800  1
  O  O7  1  0.81102600  0.33122200  0.85544200  1
  O  O8  1  0.03827100  0.39755800  0.41271400  1
  O  O9  1  0.53827100  0.60244200  0.08728600  1
  O  O10  1  0.96172900  0.60244200  0.58728600  1
  O  O11  1  0.46172900  0.39755800  0.91271400  1
  O  O12  1  0.90242500  0.50908500  0.23341100  1
  O  O13  1  0.40242500  0.49091500  0.26658900  1
  O  O14  1  0.09757500  0.49091500  0.76658900  1
  O  O15  1  0.59757500  0.50908500  0.73341100  1
  O  O16  1  0.75555000  0.84646400  0.45146800  1
  O  O17  1  0.25555000  0.15353600  0.04853200  1
  O  O18  1  0.24445000  0.15353600  0.54853200  1
  O  O19  1  0.74445000  0.84646400  0.95146800  1
  O  O20  1  0.61459300  0.05022600  0.31225500  1
  O  O21  1  0.11459300  0.94977400  0.18774500  1
  O  O22  1  0.38540700  0.94977400  0.68774500  1
  O  O23  1  0.88540700  0.05022600  0.81225500  1
  O  O24  1  0.65515400  0.08918500  0.49929400  1
  O  O25  1  0.15515400  0.91081500  0.00070600  1
  O  O26  1  0.34484600  0.91081500  0.50070600  1
  O  O27  1  0.84484600  0.08918500  0.99929400  1
  O  O28  1  0.96458700  0.07234200  0.38650200  1
  O  O29  1  0.46458700  0.92765800  0.11349800  1
  O  O30  1  0.03541300  0.92765800  0.61349800  1
  O  O31  1  0.53541300  0.07234200  0.88650200  1
  O  O32  1  0.64490400  0.38867600  0.55367900  1
  O  O33  1  0.14490400  0.61132400  0.94632100  1
  O  O34  1  0.35509600  0.61132400  0.44632100  1
  O  O35  1  0.85509600  0.38867600  0.05367900  1
  O  O36  1  0.70907000  0.79548700  0.67488600  1
  O  O37  1  0.20907000  0.20451300  0.82511400  1
  O  O38  1  0.29093000  0.20451300  0.32511400  1
  O  O39  1  0.79093000  0.79548700  0.17488600  1
loop_
_geom_bond_atom_site_label_1
_geom_bond_atom_site_label_2
_geom_bond_distance
_geom_bond_site_symmetry_2
H0 N0 1.017421 1_555
H1 N1 1.017421 1_555
H2 N2 1.017421 1_555
H3 N3 1.017421 1_555
H4 N0 1.014283 1_555
H5 N1 1.014283 1_655
H6 N2 1.014283 1_555
H7 N3 1.014283 1_455
H8 N4 1.018930 1_555
H9 N5 1.018930 1_555
H10 N6 1.018930 1_555
H11 N7 1.018930 1_555
H12 N4 1.014640 1_555
H13 N5 1.014640 1_555
H14 N6 1.014640 1_555
H15 N7 1.014640 1_555
H16 O36 0.988001 1_555
H17 O37 0.988001 1_555
H18 O38 0.988001 1_555
H19 O39 0.988001 1_555
H20 O36 0.986056 1_555
H21 O37 0.986056 1_555
H22 O38 0.986056 1_555
H23 O39 0.986056 1_555
C0 O32 1.289374 1_555
C0 N4 1.345374 1_555
C0 N0 1.346023 1_555
C1 O33 1.289374 1_555
C1 N5 1.345374 1_555
C1 N1 1.346023 1_555
C2 O34 1.289374 1_555
C2 N6 1.345374 1_555
C2 N2 1.346023 1_555
C3 O35 1.289374 1_555
C3 N7 1.345374 1_555
C3 N3 1.346023 1_555
O0 Re0 1.753740 1_555
O0 Pb0 2.784891 1_555
O1 Re1 1.753740 1_555
O1 Pb1 2.784891 1_554
O2 Re2 1.753740 1_555
O2 Pb2 2.784891 1_555
O3 Re3 1.753740 1_555
O3 Pb3 2.784891 1_556
O4 Re0 1.754755 1_555
O4 Pb2 2.712485 1_555
O5 Re1 1.754755 1_555
O5 Pb3 2.712485 1_455
O6 Re2 1.754755 1_555
O6 Pb0 2.712485 1_555
O7 Re3 1.754755 1_555
O7 Pb1 2.712485 1_655
O8 Re0 1.760829 1_455
O8 Pb2 2.553836 1_555
O9 Re1 1.760829 1_555
O9 Pb3 2.553836 1_555
O10 Re2 1.760829 1_655
O10 Pb0 2.553836 1_555
O11 Re3 1.760829 1_555
O11 Pb1 2.553836 1_555
O12 Re0 1.746894 1_555
O12 Pb3 2.693623 1_555
O13 Re1 1.746894 1_555
O13 Pb2 2.693623 1_555
O14 Re2 1.746894 1_555
O14 Pb1 2.693623 1_555
O15 Re3 1.746894 1_555
O15 Pb0 2.693623 1_555
O16 Re4 1.765371 1_565
O16 Pb0 2.617904 1_555
O17 Re5 1.765371 1_545
O17 Pb1 2.617904 1_554
O18 Re6 1.765371 1_545
O18 Pb2 2.617904 1_555
O19 Re7 1.765371 1_565
O19 Pb3 2.617904 1_556
O20 Re4 1.766992 1_555
O21 Re5 1.766992 1_555
O22 Re6 1.766992 1_555
O23 Re7 1.766992 1_555
O24 Re4 1.740030 1_555
O25 Re5 1.740030 1_555
O26 Re6 1.740030 1_555
O27 Re7 1.740030 1_555
O28 Re4 1.757075 1_555
O29 Re5 1.757075 1_555
O30 Re6 1.757075 1_555
O31 Re7 1.757075 1_555
O32 Pb2 2.686498 1_555
O32 Pb0 2.688108 1_555
O33 Pb3 2.686498 1_456
O33 Pb1 2.688108 1_555
O34 Pb0 2.686498 1_555
O34 Pb2 2.688108 1_555
O35 Pb1 2.686498 1_654
O35 Pb3 2.688108 1_555
O36 Pb0 2.615542 1_555
O37 Pb1 2.615542 1_555
O38 Pb2 2.615542 1_555
O39 Pb3 2.615542 1_555
