# generated using pymatgen
data_Li4V2Si(PO6)2
_symmetry_space_group_name_H-M   'P 1'
_cell_length_a   8.99139100
_cell_length_b   9.01214109
_cell_length_c   14.36990593
_cell_angle_alpha   72.15145144
_cell_angle_beta   71.79362183
_cell_angle_gamma   60.13476217
_symmetry_Int_Tables_number   1
_chemical_formula_structural   Li4V2Si(PO6)2
_chemical_formula_sum   'Li16 V8 Si4 P8 O48'
_cell_volume   942.99488324
_cell_formula_units_Z   4
loop_
 _symmetry_equiv_pos_site_id
 _symmetry_equiv_pos_as_xyz
  1  'x, y, z'
loop_
 _atom_site_type_symbol
 _atom_site_label
 _atom_site_symmetry_multiplicity
 _atom_site_fract_x
 _atom_site_fract_y
 _atom_site_fract_z
 _atom_site_occupancy
  Li  Li0  1  0.45233400  0.28292200  0.88635100  1
  Li  Li1  1  0.28858000  0.86741700  0.87378300  1
  Li  Li2  1  0.48994300  0.49073600  0.99924600  1
  Li  Li3  1  0.37109200  0.97284600  0.36450200  1
  Li  Li4  1  0.20313500  0.63003500  0.63409300  1
  Li  Li5  1  0.04486700  0.22145200  0.61300900  1
  Li  Li6  1  0.12891700  0.53569900  0.12365400  1
  Li  Li7  1  0.00530800  0.99619200  0.50005100  1
  Li  Li8  1  0.88260900  0.46858100  0.86195800  1
  Li  Li9  1  0.95742500  0.77782300  0.38581600  1
  Li  Li10  1  0.78950500  0.37459400  0.37382500  1
  Li  Li11  1  0.75304100  0.75134000  0.24987700  1
  Li  Li12  1  0.63372200  0.02502700  0.62643100  1
  Li  Li13  1  0.71023300  0.12353600  0.12764000  1
  Li  Li14  1  0.53618200  0.72212300  0.12459300  1
  Li  Li15  1  0.24191600  0.26729800  0.74873400  1
  V  V0  1  0.67974900  0.67983700  0.46253200  1
  V  V1  1  0.57430300  0.56509800  0.78745900  1
  V  V2  1  0.17928000  0.18202200  0.96285900  1
  V  V3  1  0.07334400  0.07045000  0.28746000  1
  V  V4  1  0.93283900  0.92539600  0.71304400  1
  V  V5  1  0.82495500  0.81991700  0.03763900  1
  V  V6  1  0.42428400  0.43287600  0.21233500  1
  V  V7  1  0.32025200  0.31972200  0.53706600  1
  Si  Si0  1  0.42265500  0.12564500  0.12515300  1
  Si  Si1  1  0.17114700  0.57776100  0.87370400  1
  Si  Si2  1  0.07531700  0.37601000  0.37452700  1
  Si  Si3  1  0.92260800  0.62647500  0.62334300  1
  P  P0  1  0.87470400  0.16951000  0.87717300  1
  P  P1  1  0.33058400  0.92119300  0.62817900  1
  P  P2  1  0.37006700  0.67203700  0.37849300  1
  P  P3  1  0.82671700  0.42499900  0.12683200  1
  P  P4  1  0.57750700  0.87162500  0.87563700  1
  P  P5  1  0.62889800  0.32581700  0.62347400  1
  P  P6  1  0.67036000  0.07869400  0.37086800  1
  P  P7  1  0.12675600  0.83080600  0.12396800  1
  O  O0  1  0.84294500  0.04502200  0.97281400  1
  O  O1  1  0.71399400  0.35072500  0.88695000  1
  O  O2  1  0.69107500  0.90042100  0.36180500  1
  O  O3  1  0.59113500  0.39218700  0.71885800  1
  O  O4  1  0.52760400  0.70919300  0.36885400  1
  O  O5  1  0.38771100  0.79572100  0.72418400  1
  O  O6  1  0.61501300  0.95410200  0.13416700  1
  O  O7  1  0.36586400  0.54044200  0.88448400  1
  O  O8  1  0.45975000  0.85306500  0.53447100  1
  O  O9  1  0.45693000  0.29582800  0.11312800  1
  O  O10  1  0.19680200  0.38847900  0.86184500  1
  O  O11  1  0.34295900  0.54463200  0.47261500  1
  O  O12  1  0.29442900  0.08161800  0.22697600  1
  O  O13  1  0.04227900  0.65057000  0.97450000  1
  O  O14  1  0.14746300  0.95959500  0.61507000  1
  O  O15  1  0.34995400  0.16642500  0.02466000  1
  O  O16  1  0.10434800  0.70959200  0.77249700  1
  O  O17  1  0.20363700  0.85009200  0.38879200  1
  O  O18  1  0.03828100  0.19772200  0.86632800  1
  O  O19  1  0.14810400  0.33404000  0.47561900  1
  O  O20  1  0.11676100  0.45911100  0.63570000  1
  O  O21  1  0.20605000  0.41882400  0.27369000  1
  O  O22  1  0.90719900  0.10277700  0.78309000  1
  O  O23  1  0.04280300  0.20428500  0.38663100  1
  O  O24  1  0.94685800  0.80270700  0.61275600  1
  O  O25  1  0.09829900  0.89425700  0.21833900  1
  O  O26  1  0.79266100  0.58118200  0.72341200  1
  O  O27  1  0.88193800  0.54545200  0.36314500  1
  O  O28  1  0.85441900  0.66626800  0.52141500  1
  O  O29  1  0.96561300  0.79810400  0.13694800  1
  O  O30  1  0.79396800  0.14578400  0.61644700  1
  O  O31  1  0.89039900  0.29991400  0.22143700  1
  O  O32  1  0.64098000  0.83996000  0.97064700  1
  O  O33  1  0.85512500  0.04185800  0.38068100  1
  O  O34  1  0.95007200  0.36075500  0.03105800  1
  O  O35  1  0.70187100  0.90610700  0.77998700  1
  O  O36  1  0.66209800  0.44966800  0.52865900  1
  O  O37  1  0.80054800  0.60607100  0.13645400  1
  O  O38  1  0.55097100  0.70739600  0.88516600  1
  O  O39  1  0.54573000  0.14505000  0.46628100  1
  O  O40  1  0.64134900  0.46053900  0.11905900  1
  O  O41  1  0.39365100  0.03005300  0.86651500  1
  O  O42  1  0.61040400  0.20402900  0.27587700  1
  O  O43  1  0.47177100  0.28892100  0.63204500  1
  O  O44  1  0.40628900  0.60741300  0.28254300  1
  O  O45  1  0.30979000  0.09968100  0.63738500  1
  O  O46  1  0.29216700  0.65251500  0.11182500  1
  O  O47  1  0.15480000  0.95833500  0.02888500  1
loop_
_geom_bond_atom_site_label_1
_geom_bond_atom_site_label_2
_geom_bond_distance
_geom_bond_site_symmetry_2
Li0 O7 2.041856 1_555
Li0 O10 2.105075 1_555
Li0 O15 2.107109 1_556
Li0 O3 2.492833 1_555
Li1 O41 2.067670 1_565
Li1 O38 2.093002 1_555
Li1 O5 2.216715 1_555
Li1 O47 2.355510 1_556
Li2 O9 2.074902 1_556
Li2 O7 2.089024 1_555
Li2 O1 2.222535 1_555
Li2 O46 2.229609 1_556
Li2 O38 2.311666 1_555
Li2 O40 2.387473 1_556
Li3 O4 2.064901 1_555
Li3 O12 2.081424 1_565
Li3 O17 2.169434 1_555
Li3 O8 2.551404 1_555
Li3 O2 2.603993 1_555
Li3 O23 2.617811 1_565
Li4 O20 2.033444 1_555
Li4 O16 2.096314 1_555
Li4 O24 2.098370 1_455
Li4 O11 2.421878 1_555
Li5 O14 2.055988 1_545
Li5 O19 2.086581 1_555
Li5 O45 2.164116 1_555
Li5 O22 2.544624 1_455
Li6 O29 2.104369 1_455
Li6 O46 2.136622 1_555
Li6 O21 2.248007 1_555
Li6 O13 2.269893 1_554
Li7 O24 2.142278 1_455
Li7 O17 2.154111 1_555
Li7 O23 2.167869 1_565
Li7 O14 2.245081 1_555
Li7 O30 2.251848 1_465
Li7 O33 2.323017 1_465
Li8 O18 2.116572 1_655
Li8 O1 2.141326 1_555
Li8 O26 2.144259 1_555
Li8 O34 2.470512 1_556
Li8 O10 2.543371 1_655
Li8 O38 2.657443 1_555
Li9 O28 2.064970 1_555
Li9 O33 2.066060 1_565
Li9 O2 2.173147 1_555
Li9 O25 2.523520 1_655
Li9 O17 2.615161 1_655
Li9 O27 2.631404 1_555
Li10 O27 2.033519 1_555
Li10 O23 2.045488 1_655
Li10 O31 2.263888 1_555
Li10 O36 2.297531 1_555
Li11 O27 2.149663 1_555
Li11 O2 2.172932 1_555
Li11 O6 2.193725 1_555
Li11 O37 2.206574 1_555
Li11 O29 2.215624 1_555
Li11 O4 2.319302 1_555
Li12 O43 2.092414 1_555
Li12 O30 2.148882 1_555
Li12 O35 2.265897 1_545
Li12 O39 2.419017 1_555
Li12 O24 2.501525 1_545
Li12 O45 2.605284 1_555
Li13 O9 2.053769 1_555
Li13 O6 2.058506 1_545
Li13 O42 2.230119 1_555
Li13 O0 2.310763 1_554
Li14 O40 2.075042 1_555
Li14 O37 2.107387 1_555
Li14 O32 2.272301 1_554
Li14 O44 2.385797 1_555
Li14 O6 2.570038 1_555
Li14 O46 2.633215 1_555
Li15 O10 2.057689 1_555
Li15 O20 2.092009 1_555
Li15 O43 2.270739 1_555
Li15 O18 2.271906 1_555
Li15 O45 2.273302 1_555
Li15 O41 2.369983 1_555
O0 P0 1.535478 1_555
O0 V5 2.020807 1_546
O1 P0 1.561548 1_555
O1 V1 2.089563 1_555
O2 P6 1.564598 1_565
O2 V0 2.098327 1_555
O3 P5 1.536634 1_555
O3 V1 2.009116 1_555
O4 P2 1.568142 1_555
O4 V0 2.079779 1_555
O5 P1 1.534210 1_555
O5 V1 2.069610 1_555
O6 Si0 1.659060 1_565
O6 V5 2.017020 1_555
O7 Si1 1.659349 1_555
O7 V1 2.024289 1_555
O8 P1 1.535726 1_555
O8 V0 2.013628 1_555
O9 Si0 1.658947 1_555
O9 V6 2.025028 1_555
O10 Si1 1.659480 1_555
O10 V2 2.021680 1_555
O11 P2 1.525721 1_555
O11 V7 2.037421 1_555
O12 Si0 1.634979 1_555
O12 V3 1.945030 1_555
O13 Si1 1.627193 1_555
O13 V5 1.934326 1_456
O14 P1 1.566079 1_555
O14 V4 2.104694 1_455
O15 Si0 1.634930 1_555
O15 V2 1.929685 1_554
O16 Si1 1.631973 1_555
O16 V4 1.925673 1_455
O17 P2 1.565841 1_555
O17 V3 2.100681 1_565
O18 P0 1.567496 1_455
O18 V2 2.085998 1_555
O19 Si2 1.640852 1_555
O19 V7 1.943565 1_555
O20 Si3 1.661688 1_455
O20 V7 2.028918 1_555
O21 Si2 1.635509 1_555
O21 V6 1.934343 1_555
O22 P0 1.533444 1_555
O22 V4 2.023880 1_545
O23 Si2 1.662716 1_555
O23 V3 2.010046 1_555
O24 Si3 1.664090 1_555
O24 V4 2.009916 1_555
O25 P7 1.531108 1_555
O25 V3 2.007730 1_565
O26 Si3 1.632439 1_555
O26 V1 1.948148 1_555
O27 Si2 1.661965 1_655
O27 V0 2.014088 1_555
O28 Si3 1.634025 1_555
O28 V0 1.942464 1_555
O29 P7 1.563220 1_655
O29 V5 2.093529 1_555
O30 P5 1.566530 1_555
O30 V4 2.086596 1_545
O31 P3 1.533271 1_555
O31 V3 2.065696 1_655
O32 P4 1.535257 1_555
O32 V5 2.070415 1_556
O33 P6 1.567936 1_555
O33 V3 2.088103 1_655
O34 P3 1.534453 1_555
O34 V2 2.049829 1_654
O35 P4 1.536223 1_555
O35 V4 2.068104 1_555
O36 P5 1.528640 1_555
O36 V0 2.063072 1_555
O37 P3 1.572573 1_555
O37 V5 2.080277 1_555
O38 P4 1.572668 1_555
O38 V1 2.076455 1_555
O39 P6 1.538940 1_555
O39 V7 2.034053 1_555
O40 P3 1.567083 1_555
O40 V6 2.076771 1_555
O41 P4 1.567977 1_545
O41 V2 2.091266 1_555
O42 P6 1.529041 1_555
O42 V6 2.061773 1_555
O43 P5 1.567076 1_555
O43 V7 2.085407 1_555
O44 P2 1.539177 1_555
O44 V6 2.033598 1_555
O45 P1 1.566967 1_545
O45 V7 2.089996 1_555
O46 P7 1.566494 1_555
O46 V6 2.095973 1_555
O47 P7 1.536903 1_555
O47 V2 2.037507 1_564
