# generated using pymatgen
data_LiCrPO4
_symmetry_space_group_name_H-M   'P 1'
_cell_length_a   10.14966076
_cell_length_b   10.14966076
_cell_length_c   17.62388565
_cell_angle_alpha   73.42121904
_cell_angle_beta   73.42121904
_cell_angle_gamma   59.62866305
_symmetry_Int_Tables_number   1
_chemical_formula_structural   LiCrPO4
_chemical_formula_sum   'Li16 Cr16 P16 O64'
_cell_volume   1479.25857385
_cell_formula_units_Z   16
loop_
 _symmetry_equiv_pos_site_id
 _symmetry_equiv_pos_as_xyz
  1  'x, y, z'
loop_
 _atom_site_type_symbol
 _atom_site_label
 _atom_site_symmetry_multiplicity
 _atom_site_fract_x
 _atom_site_fract_y
 _atom_site_fract_z
 _atom_site_occupancy
  Li  Li0  1  0.55254700  0.63107900  0.81515900  1
  Li  Li1  1  0.63273500  0.05712600  0.31286700  1
  Li  Li2  1  0.73978300  0.81504500  0.56136300  1
  Li  Li3  1  0.23902600  0.37473100  0.56267300  1
  Li  Li4  1  0.31779100  0.74007600  0.06188900  1
  Li  Li5  1  0.87780700  0.23555000  0.06232700  1
  Li  Li6  1  0.49536600  0.12587700  0.81263400  1
  Li  Li7  1  0.05712600  0.63273500  0.81286700  1
  Li  Li8  1  0.12763800  0.99695900  0.31441200  1
  Li  Li9  1  0.63107900  0.55254700  0.31515900  1
  Li  Li10  1  0.74007600  0.31779100  0.56188900  1
  Li  Li11  1  0.23555000  0.87780700  0.56232700  1
  Li  Li12  1  0.81504500  0.73978300  0.06136300  1
  Li  Li13  1  0.37473100  0.23902600  0.06267300  1
  Li  Li14  1  0.99695900  0.12763800  0.81441200  1
  Li  Li15  1  0.12587700  0.49536600  0.31263400  1
  Cr  Cr0  1  0.87368000  0.49823800  0.69173100  1
  Cr  Cr1  1  0.45713500  0.36614100  0.18328700  1
  Cr  Cr2  1  0.99939300  0.86706800  0.18835000  1
  Cr  Cr3  1  0.62925100  0.75615700  0.93776300  1
  Cr  Cr4  1  0.17565900  0.25782400  0.93843400  1
  Cr  Cr5  1  0.75708300  0.12706400  0.43996000  1
  Cr  Cr6  1  0.25924200  0.67433100  0.43652600  1
  Cr  Cr7  1  0.36614100  0.45713500  0.68328700  1
  Cr  Cr8  1  0.86706800  0.99939300  0.68835000  1
  Cr  Cr9  1  0.95304700  0.36213900  0.18400700  1
  Cr  Cr10  1  0.49823800  0.87368000  0.19173100  1
  Cr  Cr11  1  0.12706400  0.75708300  0.93996000  1
  Cr  Cr12  1  0.67433100  0.25924200  0.93652600  1
  Cr  Cr13  1  0.75615700  0.62925100  0.43776300  1
  Cr  Cr14  1  0.25782400  0.17565900  0.43843400  1
  Cr  Cr15  1  0.36213900  0.95304700  0.68400700  1
  P  P0  1  0.30950800  0.93801500  0.87631800  1
  P  P1  1  0.87023200  0.43378600  0.87563200  1
  P  P2  1  0.93672000  0.80836900  0.37517500  1
  P  P3  1  0.43994300  0.36985100  0.37447700  1
  P  P4  1  0.56113300  0.12603100  0.62860000  1
  P  P5  1  0.06057000  0.68227400  0.62661200  1
  P  P6  1  0.62915500  0.56211100  0.12729100  1
  P  P7  1  0.18355500  0.05792900  0.12744600  1
  P  P8  1  0.80836900  0.93672000  0.87517500  1
  P  P9  1  0.36985100  0.43994300  0.87447700  1
  P  P10  1  0.93801500  0.30950800  0.37631800  1
  P  P11  1  0.43378600  0.87023200  0.37563200  1
  P  P12  1  0.56211100  0.62915500  0.62729100  1
  P  P13  1  0.05792900  0.18355500  0.62744600  1
  P  P14  1  0.12603100  0.56113300  0.12860000  1
  P  P15  1  0.68227400  0.06057000  0.12661200  1
  O  O0  1  0.04896300  0.34344400  0.61612500  1
  O  O1  1  0.83141400  0.33144300  0.95325900  1
  O  O2  1  0.41416000  0.86494500  0.80081700  1
  O  O3  1  0.90564100  0.35547500  0.80283500  1
  O  O4  1  0.38132500  0.82939600  0.95148000  1
  O  O5  1  0.73028200  0.59826400  0.86291100  1
  O  O6  1  0.55432200  0.98277300  0.61724900  1
  O  O7  1  0.84765400  0.04762000  0.11518300  1
  O  O8  1  0.33518300  0.33258900  0.45174300  1
  O  O9  1  0.36470200  0.40673600  0.30102000  1
  O  O10  1  0.85988900  0.91006700  0.29991600  1
  O  O11  1  0.30018700  0.10013200  0.86463300  1
  O  O12  1  0.82945600  0.88093600  0.45009100  1
  O  O13  1  0.89885000  0.69703400  0.63143000  1
  O  O14  1  0.60407100  0.22748400  0.36365800  1
  O  O15  1  0.01042000  0.45270700  0.88031700  1
  O  O16  1  0.48203300  0.55850500  0.11879600  1
  O  O17  1  0.39666000  0.26540100  0.63478200  1
  O  O18  1  0.09890900  0.80087000  0.36195900  1
  O  O19  1  0.17738100  0.60252600  0.55451900  1
  O  O20  1  0.19835300  0.89634700  0.13182200  1
  O  O21  1  0.62798000  0.08892900  0.70577900  1
  O  O22  1  0.12530700  0.57457000  0.70461400  1
  O  O23  1  0.67318700  0.16545600  0.55606700  1
  O  O24  1  0.64043800  0.96154400  0.88472200  1
  O  O25  1  0.45883700  0.50972600  0.37984400  1
  O  O26  1  0.76568100  0.39595300  0.13263500  1
  O  O27  1  0.10186700  0.17551300  0.05628100  1
  O  O28  1  0.04762000  0.84765400  0.61518300  1
  O  O29  1  0.33258900  0.33518300  0.95174300  1
  O  O30  1  0.40673600  0.36470200  0.80102000  1
  O  O31  1  0.91006700  0.85988900  0.79991600  1
  O  O32  1  0.07811300  0.12086900  0.20613200  1
  O  O33  1  0.59935000  0.62972800  0.20304800  1
  O  O34  1  0.96450900  0.13940100  0.38685800  1
  O  O35  1  0.66803500  0.67157600  0.05325300  1
  O  O36  1  0.88093600  0.82945600  0.95009100  1
  O  O37  1  0.22748400  0.60407100  0.86365800  1
  O  O38  1  0.34344400  0.04896300  0.11612500  1
  O  O39  1  0.55850500  0.48203300  0.61879600  1
  O  O40  1  0.33144300  0.83141400  0.45325900  1
  O  O41  1  0.86494500  0.41416000  0.30081700  1
  O  O42  1  0.35547500  0.90564100  0.30283500  1
  O  O43  1  0.80087000  0.09890900  0.86195900  1
  O  O44  1  0.89634700  0.19835300  0.63182200  1
  O  O45  1  0.82939600  0.38132500  0.45148000  1
  O  O46  1  0.50972600  0.45883700  0.87984400  1
  O  O47  1  0.59826400  0.73028200  0.36291100  1
  O  O48  1  0.98277300  0.55432200  0.11724900  1
  O  O49  1  0.39595300  0.76568100  0.63263500  1
  O  O50  1  0.10013200  0.30018700  0.36463300  1
  O  O51  1  0.17551300  0.10186700  0.55628100  1
  O  O52  1  0.69703400  0.89885000  0.13143000  1
  O  O53  1  0.12086900  0.07811300  0.70613200  1
  O  O54  1  0.62972800  0.59935000  0.70304800  1
  O  O55  1  0.13940100  0.96450900  0.88685800  1
  O  O56  1  0.67157600  0.66803500  0.55325300  1
  O  O57  1  0.45270700  0.01042000  0.38031700  1
  O  O58  1  0.26540100  0.39666000  0.13478200  1
  O  O59  1  0.60252600  0.17738100  0.05451900  1
  O  O60  1  0.08892900  0.62798000  0.20577900  1
  O  O61  1  0.57457000  0.12530700  0.20461400  1
  O  O62  1  0.16545600  0.67318700  0.05606700  1
  O  O63  1  0.96154400  0.64043800  0.38472200  1
loop_
_geom_bond_atom_site_label_1
_geom_bond_atom_site_label_2
_geom_bond_distance
_geom_bond_site_symmetry_2
Li0 O54 1.961126 1_555
Li0 O46 1.973056 1_555
Li0 O2 2.039574 1_555
Li0 O5 2.042612 1_555
Li1 O61 1.985814 1_555
Li1 O10 2.002438 1_545
Li1 O14 2.025234 1_555
Li1 O57 2.071554 1_555
Li2 O13 1.975920 1_555
Li2 O56 1.987143 1_555
Li2 O12 1.992449 1_555
Li2 O6 2.017404 1_555
Li3 O8 1.980853 1_555
Li3 O17 1.991594 1_555
Li3 O0 2.030094 1_555
Li3 O19 2.038766 1_555
Li4 O20 1.955235 1_555
Li4 O4 1.972914 1_554
Li4 O16 1.993437 1_555
Li4 O62 2.013390 1_555
Li5 O1 1.961969 1_554
Li5 O26 1.988456 1_555
Li5 O7 2.003325 1_555
Li5 O27 2.012918 1_655
Li6 O24 1.984683 1_545
Li6 O21 1.986165 1_555
Li6 O11 2.045300 1_555
Li6 O30 2.084183 1_555
Li7 O22 1.985814 1_555
Li7 O31 2.002438 1_455
Li7 O37 2.025234 1_555
Li7 O15 2.071554 1_555
Li8 O34 1.971842 1_465
Li8 O42 1.979781 1_555
Li8 O32 2.003638 1_565
Li8 O18 2.060078 1_555
Li9 O33 1.961126 1_555
Li9 O25 1.973056 1_555
Li9 O41 2.039574 1_555
Li9 O47 2.042612 1_555
Li10 O44 1.955235 1_555
Li10 O45 1.972914 1_555
Li10 O39 1.993437 1_555
Li10 O23 2.013390 1_555
Li11 O40 1.961969 1_555
Li11 O49 1.988456 1_555
Li11 O28 2.003325 1_555
Li11 O51 2.012918 1_565
Li12 O52 1.975920 1_555
Li12 O35 1.987143 1_555
Li12 O36 1.992449 1_554
Li12 O48 2.017404 1_555
Li13 O29 1.980853 1_554
Li13 O58 1.991594 1_555
Li13 O38 2.030094 1_555
Li13 O59 2.038766 1_555
Li14 O55 1.971842 1_645
Li14 O3 1.979781 1_555
Li14 O53 2.003638 1_655
Li14 O43 2.060078 1_555
Li15 O63 1.984683 1_455
Li15 O60 1.986165 1_555
Li15 O50 2.045300 1_555
Li15 O9 2.084183 1_555
Cr0 O3 2.075321 1_555
Cr0 O13 2.099633 1_555
Cr0 O0 2.103420 1_655
Cr0 O54 2.118769 1_555
Cr1 O16 2.058229 1_555
Cr1 O61 2.078980 1_555
Cr1 O9 2.083581 1_555
Cr1 O58 2.191447 1_555
Cr2 O60 2.076740 1_655
Cr2 O7 2.079369 1_565
Cr2 O10 2.082648 1_555
Cr2 O20 2.109149 1_655
Cr3 O5 2.032903 1_555
Cr3 O35 2.037912 1_556
Cr3 O24 2.073415 1_555
Cr3 O4 2.192488 1_555
Cr4 O11 2.013733 1_555
Cr4 O15 2.060076 1_555
Cr4 O27 2.080226 1_556
Cr4 O29 2.188924 1_555
Cr5 O14 2.016936 1_555
Cr5 O23 2.046764 1_555
Cr5 O34 2.097415 1_555
Cr5 O12 2.185583 1_545
Cr6 O18 2.041690 1_555
Cr6 O25 2.065955 1_555
Cr6 O19 2.075390 1_555
Cr6 O40 2.176921 1_555
Cr7 O39 2.058229 1_555
Cr7 O22 2.078980 1_555
Cr7 O30 2.083581 1_555
Cr7 O17 2.191447 1_555
Cr8 O21 2.076740 1_565
Cr8 O28 2.079369 1_655
Cr8 O31 2.082648 1_555
Cr8 O44 2.109149 1_565
Cr9 O32 2.086694 1_655
Cr9 O48 2.088770 1_555
Cr9 O41 2.099704 1_555
Cr9 O26 2.167765 1_555
Cr10 O42 2.075321 1_555
Cr10 O52 2.099633 1_555
Cr10 O38 2.103420 1_565
Cr10 O33 2.118769 1_555
Cr11 O37 2.016936 1_555
Cr11 O62 2.046764 1_556
Cr11 O55 2.097415 1_555
Cr11 O36 2.185583 1_455
Cr12 O43 2.041690 1_555
Cr12 O46 2.065955 1_555
Cr12 O59 2.075390 1_556
Cr12 O1 2.176921 1_555
Cr13 O47 2.032903 1_555
Cr13 O56 2.037912 1_555
Cr13 O63 2.073415 1_555
Cr13 O45 2.192488 1_555
Cr14 O50 2.013733 1_555
Cr14 O57 2.060076 1_555
Cr14 O51 2.080226 1_555
Cr14 O8 2.188924 1_555
Cr15 O53 2.086694 1_565
Cr15 O6 2.088770 1_555
Cr15 O2 2.099704 1_555
Cr15 O49 2.167765 1_555
O0 P13 1.535541 1_555
O1 P1 1.549568 1_555
O2 P0 1.552039 1_555
O3 P1 1.561048 1_555
O4 P0 1.551270 1_555
O5 P1 1.557275 1_555
O6 P4 1.560288 1_565
O7 P15 1.573038 1_555
O8 P3 1.553824 1_555
O9 P3 1.548496 1_555
O10 P2 1.558135 1_555
O11 P0 1.555360 1_545
O12 P2 1.547505 1_555
O13 P5 1.550138 1_655
O14 P3 1.562447 1_555
O15 P1 1.555838 1_455
O16 P6 1.561885 1_555
O17 P4 1.547861 1_555
O18 P2 1.560292 1_455
O19 P5 1.559474 1_555
O20 P7 1.550312 1_565
O21 P4 1.558283 1_555
O22 P5 1.564635 1_555
O23 P4 1.557662 1_555
O24 P8 1.556662 1_555
O25 P3 1.556761 1_555
O26 P6 1.547215 1_555
O27 P7 1.556727 1_555
O28 P5 1.573038 1_555
O29 P9 1.553824 1_555
O30 P9 1.548496 1_555
O31 P8 1.558135 1_555
O32 P7 1.563264 1_555
O33 P6 1.558062 1_555
O34 P10 1.569626 1_555
O35 P6 1.554000 1_555
O36 P8 1.547505 1_555
O37 P9 1.562447 1_555
O38 P7 1.535541 1_555
O39 P12 1.561885 1_555
O40 P11 1.549568 1_555
O41 P10 1.552039 1_555
O42 P11 1.561048 1_555
O43 P8 1.560292 1_545
O44 P13 1.550312 1_655
O45 P10 1.551270 1_555
O46 P9 1.556761 1_555
O47 P11 1.557275 1_555
O48 P14 1.560288 1_655
O49 P12 1.547215 1_555
O50 P10 1.555360 1_455
O51 P13 1.556727 1_555
O52 P15 1.550138 1_565
O53 P13 1.563264 1_555
O54 P12 1.558062 1_555
O55 P0 1.569626 1_555
O56 P12 1.554000 1_555
O57 P11 1.555838 1_545
O58 P14 1.547861 1_555
O59 P15 1.559474 1_555
O60 P14 1.558283 1_555
O61 P15 1.564635 1_555
O62 P14 1.557662 1_555
O63 P2 1.556662 1_555
