# generated using pymatgen
data_VCoO4
_symmetry_space_group_name_H-M   'P 1'
_cell_length_a   4.98432180
_cell_length_b   4.98432180
_cell_length_c   5.86303300
_cell_angle_alpha   90.00000000
_cell_angle_beta   90.00000000
_cell_angle_gamma   112.93466135
_symmetry_Int_Tables_number   1
_chemical_formula_structural   VCoO4
_chemical_formula_sum   'V2 Co2 O8'
_cell_volume   134.14375516
_cell_formula_units_Z   2
loop_
 _symmetry_equiv_pos_site_id
 _symmetry_equiv_pos_as_xyz
  1  'x, y, z'
loop_
 _atom_site_type_symbol
 _atom_site_label
 _atom_site_symmetry_multiplicity
 _atom_site_fract_x
 _atom_site_fract_y
 _atom_site_fract_z
 _atom_site_occupancy
  V  V0  1  0.64802700  0.35197300  0.25000000  1
  V  V1  1  0.35197300  0.64802700  0.75000000  1
  Co  Co0  1  0.00000000  0.00000000  0.00000000  1
  Co  Co1  1  0.00000000  0.00000000  0.50000000  1
  O  O0  1  0.77288600  0.22711400  0.02372800  1
  O  O1  1  0.77288600  0.22711400  0.47627200  1
  O  O2  1  0.24800100  0.21099500  0.25000000  1
  O  O3  1  0.21099500  0.24800100  0.75000000  1
  O  O4  1  0.78900500  0.75199900  0.25000000  1
  O  O5  1  0.75199900  0.78900500  0.75000000  1
  O  O6  1  0.22711400  0.77288600  0.97627200  1
  O  O7  1  0.22711400  0.77288600  0.52372800  1
loop_
_geom_bond_atom_site_label_1
_geom_bond_atom_site_label_2
_geom_bond_distance
_geom_bond_site_symmetry_2
Co0 O0 1.892341 1_455
Co0 O6 1.892341 1_544
Co0 O3 1.941463 1_554
Co0 O2 1.941463 1_555
Co0 O5 1.941463 1_444
Co0 O4 1.941463 1_445
Co1 O7 1.892341 1_545
Co1 O1 1.892341 1_455
Co1 O3 1.941463 1_555
Co1 O2 1.941463 1_555
Co1 O4 1.941463 1_445
Co1 O5 1.941463 1_445
O0 V0 1.684171 1_555
O1 V0 1.684171 1_555
O2 V0 1.837746 1_555
O3 V1 1.837746 1_555
O4 V0 1.837746 1_555
O5 V1 1.837746 1_555
O6 V1 1.684171 1_555
O7 V1 1.684171 1_555
