# generated using pymatgen
data_Ba(WO3)6
_symmetry_space_group_name_H-M   'P 1'
_cell_length_a   7.40748850
_cell_length_b   7.40748850
_cell_length_c   7.61895556
_cell_angle_alpha   90.00000000
_cell_angle_beta   90.00000000
_cell_angle_gamma   120.00000361
_symmetry_Int_Tables_number   1
_chemical_formula_structural   Ba(WO3)6
_chemical_formula_sum   'Ba1 W6 O18'
_cell_volume   362.04956388
_cell_formula_units_Z   1
loop_
 _symmetry_equiv_pos_site_id
 _symmetry_equiv_pos_as_xyz
  1  'x, y, z'
loop_
 _atom_site_type_symbol
 _atom_site_label
 _atom_site_symmetry_multiplicity
 _atom_site_fract_x
 _atom_site_fract_y
 _atom_site_fract_z
 _atom_site_occupancy
  Ba  Ba0  1  -0.00000000  -0.00000000  0.56911727  1
  W  W0  1  -0.00000000  0.50564142  0.75144916  1
  W  W1  1  0.00000000  0.48666342  0.24999836  1
  W  W2  1  0.49435858  0.49435858  0.75144916  1
  W  W3  1  0.51333658  0.51333658  0.24999836  1
  W  W4  1  0.48666342  0.00000000  0.24999836  1
  W  W5  1  0.50564142  -0.00000000  0.75144916  1
  O  O0  1  -0.00000000  0.49725552  0.99895042  1
  O  O1  1  0.00000000  0.49710584  0.50095959  1
  O  O2  1  0.20843063  0.78527816  0.25291977  1
  O  O3  1  0.20955960  0.79137256  0.74604825  1
  O  O4  1  0.20862744  0.41818704  0.74604825  1
  O  O5  1  0.21472184  0.42315247  0.25291977  1
  O  O6  1  0.57684753  0.79156937  0.25291977  1
  O  O7  1  0.58181296  0.79044040  0.74604825  1
  O  O8  1  0.50274448  0.50274448  0.99895042  1
  O  O9  1  0.50289416  0.50289416  0.50095959  1
  O  O10  1  0.42315247  0.21472184  0.25291977  1
  O  O11  1  0.41818704  0.20862744  0.74604825  1
  O  O12  1  0.49710584  0.00000000  0.50095959  1
  O  O13  1  0.79044040  0.58181296  0.74604825  1
  O  O14  1  0.79156937  0.57684753  0.25291977  1
  O  O15  1  0.49725552  -0.00000000  0.99895042  1
  O  O16  1  0.78527816  0.20843063  0.25291977  1
  O  O17  1  0.79137256  0.20955960  0.74604825  1
loop_
_geom_bond_atom_site_label_1
_geom_bond_atom_site_label_2
_geom_bond_distance
_geom_bond_site_symmetry_2
Ba0 O7 3.002345 1_445
Ba0 O13 3.002345 1_445
Ba0 O4 3.002345 1_555
Ba0 O11 3.002345 1_555
Ba0 O17 3.002345 1_455
Ba0 O3 3.002345 1_545
O0 W0 1.886724 1_555
O0 W1 1.914332 1_556
O1 W0 1.909516 1_555
O1 W1 1.913626 1_555
O2 W4 1.870817 1_565
O2 W1 1.965187 1_555
O3 W0 1.898842 1_555
O3 W5 1.952121 1_565
O4 W2 1.898842 1_555
O4 W0 1.952122 1_555
O5 W1 1.870817 1_555
O5 W3 1.965187 1_555
O6 W3 1.870817 1_555
O6 W4 1.965187 1_565
O7 W5 1.898842 1_565
O7 W2 1.952122 1_555
O8 W2 1.886724 1_555
O8 W3 1.914332 1_556
O9 W2 1.909516 1_555
O9 W3 1.913626 1_555
O10 W4 1.870817 1_555
O10 W3 1.965187 1_555
O11 W2 1.898842 1_555
O11 W5 1.952122 1_555
O12 W5 1.909516 1_555
O12 W4 1.913626 1_555
O13 W0 1.898842 1_655
O13 W2 1.952122 1_555
O14 W3 1.870817 1_555
O14 W1 1.965187 1_655
O15 W5 1.886724 1_555
O15 W4 1.914332 1_556
O16 W1 1.870817 1_655
O16 W4 1.965187 1_555
O17 W5 1.898842 1_555
O17 W0 1.952121 1_655
