# generated using pymatgen
data_Li32Ti3Cr13O48
_symmetry_space_group_name_H-M   'P 1'
_cell_length_a   5.06604600
_cell_length_b   8.72442781
_cell_length_c   19.55797161
_cell_angle_alpha   98.25723622
_cell_angle_beta   95.08585857
_cell_angle_gamma   89.90572005
_symmetry_Int_Tables_number   1
_chemical_formula_structural   Li32Ti3Cr13O48
_chemical_formula_sum   'Li32 Ti3 Cr13 O48'
_cell_volume   852.04690930
_cell_formula_units_Z   1
loop_
 _symmetry_equiv_pos_site_id
 _symmetry_equiv_pos_as_xyz
  1  'x, y, z'
loop_
 _atom_site_type_symbol
 _atom_site_label
 _atom_site_symmetry_multiplicity
 _atom_site_fract_x
 _atom_site_fract_y
 _atom_site_fract_z
 _atom_site_occupancy
  Li  Li0  1  0.99354000  0.17117400  0.24998500  1
  Li  Li1  1  0.87429300  0.37538700  0.37491500  1
  Li  Li2  1  0.74711100  0.25130000  0.99981400  1
  Li  Li3  1  0.74181100  0.91898700  0.99991400  1
  Li  Li4  1  0.99400300  0.17118400  0.75052500  1
  Li  Li5  1  0.75940600  0.58056900  0.50021300  1
  Li  Li6  1  0.87532000  0.37579300  0.87526400  1
  Li  Li7  1  0.74175300  0.25293000  0.50008300  1
  Li  Li8  1  0.74566300  0.92004400  0.49941700  1
  Li  Li9  1  0.62631300  0.12500800  0.12482200  1
  Li  Li10  1  0.76211700  0.58157100  0.00012000  1
  Li  Li11  1  0.51046700  0.33068100  0.24967900  1
  Li  Li12  1  0.62597700  0.12571700  0.62506100  1
  Li  Li13  1  0.50071400  0.99932200  0.24976900  1
  Li  Li14  1  0.49194100  0.66896600  0.24932100  1
  Li  Li15  1  0.51403600  0.33159500  0.74980200  1
  Li  Li16  1  0.37378400  0.87535800  0.37557000  1
  Li  Li17  1  0.49895900  0.00038500  0.74943900  1
  Li  Li18  1  0.24945700  0.74922400  0.00049200  1
  Li  Li19  1  0.49031300  0.66710700  0.74909100  1
  Li  Li20  1  0.24141000  0.42026100  0.00025200  1
  Li  Li21  1  0.37624100  0.87497200  0.87482100  1
  Li  Li22  1  0.25606300  0.07803400  0.49974200  1
  Li  Li23  1  0.24973000  0.74934600  0.49987800  1
  Li  Li24  1  0.12565000  0.62495300  0.12515900  1
  Li  Li25  1  0.24420900  0.42092400  0.50045700  1
  Li  Li26  1  0.00866500  0.82956800  0.25055800  1
  Li  Li27  1  0.25629400  0.07927100  0.00058800  1
  Li  Li28  1  0.12695400  0.62498100  0.62442400  1
  Li  Li29  1  0.99344500  0.50101200  0.25017300  1
  Li  Li30  1  0.00735600  0.82964100  0.75104400  1
  Li  Li31  1  0.99210500  0.50095000  0.75064900  1
  Ti  Ti0  1  0.37542100  0.53800300  0.37318800  1
  Ti  Ti1  1  0.37643200  0.53905000  0.87577800  1
  Ti  Ti2  1  0.12798300  0.28909000  0.62646900  1
  Cr  Cr0  1  0.87016500  0.71132900  0.37509700  1
  Cr  Cr1  1  0.87887900  0.04702000  0.37583900  1
  Cr  Cr2  1  0.87637900  0.71251100  0.87539600  1
  Cr  Cr3  1  0.87400200  0.04759300  0.87473100  1
  Cr  Cr4  1  0.61962500  0.79369400  0.12411100  1
  Cr  Cr5  1  0.63043500  0.45713900  0.12577400  1
  Cr  Cr6  1  0.62261200  0.79750500  0.62425700  1
  Cr  Cr7  1  0.62801500  0.46200400  0.62488000  1
  Cr  Cr8  1  0.37544800  0.20251300  0.37477300  1
  Cr  Cr9  1  0.37340100  0.20270900  0.87494300  1
  Cr  Cr10  1  0.11777600  0.95593500  0.12398800  1
  Cr  Cr11  1  0.13244800  0.29353200  0.12605800  1
  Cr  Cr12  1  0.12216200  0.95255200  0.62477200  1
  O  O0  1  0.96616900  0.10446100  0.06877200  1
  O  O1  1  0.92960400  0.78574000  0.06899700  1
  O  O2  1  0.92767300  0.42329700  0.06818100  1
  O  O3  1  0.96448900  0.10356800  0.56886800  1
  O  O4  1  0.82093900  0.96122600  0.18127600  1
  O  O5  1  0.82177700  0.32283600  0.18226100  1
  O  O6  1  0.93564200  0.78796100  0.56892800  1
  O  O7  1  0.91986200  0.42858000  0.56751600  1
  O  O8  1  0.78326200  0.64228900  0.18052700  1
  O  O9  1  0.71667700  0.85576300  0.31978600  1
  O  O10  1  0.81562000  0.95985300  0.68161900  1
  O  O11  1  0.82543900  0.32102500  0.68360700  1
  O  O12  1  0.67535500  0.53314200  0.31731400  1
  O  O13  1  0.68396200  0.17284200  0.31727300  1
  O  O14  1  0.78252800  0.64183900  0.67966100  1
  O  O15  1  0.71374600  0.86045800  0.81931300  1
  O  O16  1  0.46711800  0.60851600  0.06894100  1
  O  O17  1  0.57969100  0.71707400  0.43115300  1
  O  O18  1  0.56580500  0.07545800  0.43227700  1
  O  O19  1  0.68009000  0.53612600  0.81858000  1
  O  O20  1  0.68344000  0.17432900  0.81762200  1
  O  O21  1  0.42840500  0.92722400  0.06755700  1
  O  O22  1  0.42818000  0.28949100  0.06900000  1
  O  O23  1  0.53525100  0.39059700  0.43107700  1
  O  O24  1  0.46305700  0.61103800  0.56857500  1
  O  O25  1  0.57713400  0.71619300  0.93132400  1
  O  O26  1  0.56507000  0.07513000  0.93251900  1
  O  O27  1  0.32231800  0.82569900  0.18203800  1
  O  O28  1  0.32177600  0.46398000  0.18118700  1
  O  O29  1  0.43279300  0.92490500  0.56744700  1
  O  O30  1  0.43059300  0.28635900  0.56875100  1
  O  O31  1  0.53674300  0.38989000  0.93160600  1
  O  O32  1  0.28254300  0.14403500  0.18063800  1
  O  O33  1  0.21301800  0.35307000  0.31812500  1
  O  O34  1  0.31491000  0.82495700  0.68230900  1
  O  O35  1  0.32639700  0.46670200  0.68120300  1
  O  O36  1  0.17399700  0.67973300  0.31749400  1
  O  O37  1  0.18664400  0.03808200  0.31870800  1
  O  O38  1  0.28766800  0.13981600  0.68177100  1
  O  O39  1  0.21468000  0.35345900  0.81860600  1
  O  O40  1  0.07031600  0.57419200  0.43209200  1
  O  O41  1  0.06523300  0.21210400  0.43126500  1
  O  O42  1  0.16960200  0.67829100  0.81756200  1
  O  O43  1  0.18566300  0.03797100  0.81902300  1
  O  O44  1  0.03832300  0.89757200  0.43119100  1
  O  O45  1  0.07484900  0.57132100  0.93362700  1
  O  O46  1  0.06560100  0.21067500  0.93159100  1
  O  O47  1  0.03407100  0.89274100  0.93014500  1
loop_
_geom_bond_atom_site_label_1
_geom_bond_atom_site_label_2
_geom_bond_distance
_geom_bond_site_symmetry_2
Li0 O32 2.073127 1_655
Li0 O37 2.079248 1_655
Li0 O13 2.133576 1_555
Li0 O5 2.134860 1_555
Li0 O33 2.160167 1_655
Li0 O4 2.239504 1_545
Li1 O12 2.102050 1_555
Li1 O41 2.106431 1_655
Li1 O23 2.113329 1_555
Li1 O33 2.119176 1_655
Li1 O40 2.120543 1_655
Li1 O13 2.136339 1_555
Li2 O2 2.021806 1_556
Li2 O26 2.038012 1_555
Li2 O31 2.141107 1_555
Li2 O46 2.180206 1_655
Li2 O22 2.192920 1_556
Li2 O0 2.217637 1_556
Li3 O1 2.074046 1_556
Li3 O47 2.091393 1_655
Li3 O21 2.149651 1_556
Li3 O26 2.167340 1_565
Li3 O25 2.179577 1_555
Li3 O0 2.198337 1_566
Li4 O43 2.073914 1_655
Li4 O38 2.084236 1_655
Li4 O11 2.107304 1_555
Li4 O20 2.133955 1_555
Li4 O39 2.164578 1_655
Li4 O10 2.260110 1_545
Li5 O17 2.076530 1_555
Li5 O24 2.089194 1_555
Li5 O7 2.111839 1_555
Li5 O40 2.146977 1_655
Li5 O23 2.226002 1_555
Li5 O6 2.229625 1_555
Li6 O19 2.100098 1_555
Li6 O31 2.113515 1_555
Li6 O45 2.115773 1_655
Li6 O46 2.116851 1_655
Li6 O39 2.120431 1_655
Li6 O20 2.132463 1_555
Li7 O7 2.028538 1_555
Li7 O18 2.038560 1_555
Li7 O23 2.137661 1_555
Li7 O30 2.152890 1_555
Li7 O41 2.208033 1_655
Li7 O3 2.238461 1_555
Li8 O44 2.071668 1_655
Li8 O6 2.077687 1_555
Li8 O29 2.154495 1_555
Li8 O18 2.165223 1_565
Li8 O3 2.179866 1_565
Li8 O17 2.179908 1_555
Li9 O5 2.114921 1_555
Li9 O0 2.115503 1_555
Li9 O4 2.118618 1_545
Li9 O21 2.118638 1_545
Li9 O22 2.123612 1_555
Li9 O32 2.129867 1_555
Li10 O25 2.072391 1_554
Li10 O16 2.089269 1_555
Li10 O45 2.130890 1_654
Li10 O2 2.169867 1_555
Li10 O1 2.195583 1_555
Li10 O31 2.233197 1_554
Li11 O28 2.068203 1_555
Li11 O33 2.093434 1_555
Li11 O5 2.138452 1_555
Li11 O12 2.169196 1_555
Li11 O13 2.174719 1_555
Li11 O32 2.215036 1_555
Li12 O30 2.098183 1_555
Li12 O3 2.111444 1_555
Li12 O11 2.115596 1_555
Li12 O38 2.116570 1_555
Li12 O10 2.123063 1_545
Li12 O29 2.130727 1_545
Li13 O27 2.020385 1_555
Li13 O13 2.027283 1_565
Li13 O37 2.170594 1_565
Li13 O4 2.189147 1_555
Li13 O9 2.205317 1_555
Li13 O32 2.205552 1_565
Li14 O12 2.065402 1_555
Li14 O8 2.074503 1_555
Li14 O27 2.156934 1_555
Li14 O36 2.173773 1_555
Li14 O28 2.198655 1_555
Li14 O9 2.221316 1_555
Li15 O35 2.077862 1_555
Li15 O39 2.105771 1_555
Li15 O11 2.121486 1_555
Li15 O20 2.166910 1_555
Li15 O19 2.194567 1_555
Li15 O38 2.231881 1_555
Li16 O44 2.091708 1_555
Li16 O17 2.098163 1_555
Li16 O37 2.100763 1_565
Li16 O36 2.114822 1_555
Li16 O18 2.117120 1_565
Li16 O9 2.125695 1_555
Li17 O34 2.036191 1_545
Li17 O20 2.038910 1_555
Li17 O38 2.141036 1_555
Li17 O10 2.167633 1_545
Li17 O43 2.175275 1_555
Li17 O15 2.180156 1_545
Li18 O45 2.029307 1_554
Li18 O21 2.040262 1_555
Li18 O16 2.172774 1_555
Li18 O1 2.186981 1_455
Li18 O47 2.208051 1_554
Li18 O25 2.225615 1_554
Li19 O19 2.070757 1_555
Li19 O14 2.086474 1_555
Li19 O35 2.156839 1_555
Li19 O34 2.167709 1_555
Li19 O42 2.188682 1_555
Li19 O15 2.253494 1_555
Li20 O22 2.053360 1_555
Li20 O31 2.088995 1_554
Li20 O45 2.107489 1_554
Li20 O2 2.157801 1_455
Li20 O16 2.215815 1_555
Li20 O46 2.242333 1_554
Li21 O43 2.097571 1_565
Li21 O15 2.099282 1_555
Li21 O25 2.100379 1_555
Li21 O47 2.117342 1_555
Li21 O26 2.118030 1_565
Li21 O42 2.130846 1_555
Li22 O41 2.076802 1_555
Li22 O3 2.079859 1_455
Li22 O18 2.135947 1_555
Li22 O44 2.151820 1_545
Li22 O29 2.152634 1_545
Li22 O30 2.235144 1_555
Li23 O40 2.031730 1_555
Li23 O29 2.039222 1_555
Li23 O24 2.152469 1_555
Li23 O6 2.172025 1_455
Li23 O44 2.205309 1_555
Li23 O17 2.228964 1_555
Li24 O28 2.098741 1_555
Li24 O1 2.098874 1_455
Li24 O8 2.118798 1_455
Li24 O16 2.124414 1_555
Li24 O27 2.132412 1_555
Li24 O2 2.141850 1_455
Li25 O30 2.068112 1_555
Li25 O23 2.082194 1_555
Li25 O40 2.157019 1_555
Li25 O7 2.186577 1_455
Li25 O24 2.205591 1_555
Li25 O41 2.247717 1_555
Li26 O4 2.067580 1_455
Li26 O9 2.082940 1_455
Li26 O36 2.101844 1_555
Li26 O27 2.164779 1_555
Li26 O8 2.221620 1_455
Li26 O37 2.234894 1_565
Li27 O0 2.061350 1_455
Li27 O46 2.068366 1_554
Li27 O21 2.127957 1_545
Li27 O26 2.139115 1_554
Li27 O47 2.213795 1_544
Li27 O22 2.237424 1_555
Li28 O6 2.095586 1_455
Li28 O35 2.097108 1_555
Li28 O24 2.097149 1_555
Li28 O34 2.116424 1_555
Li28 O14 2.126278 1_455
Li28 O7 2.127581 1_455
Li29 O5 2.035565 1_555
Li29 O36 2.050110 1_655
Li29 O12 2.160480 1_555
Li29 O8 2.174668 1_555
Li29 O33 2.212560 1_655
Li29 O28 2.227647 1_655
Li30 O10 2.069616 1_455
Li30 O15 2.077312 1_455
Li30 O42 2.100456 1_555
Li30 O34 2.142860 1_555
Li30 O43 2.232827 1_565
Li30 O14 2.235654 1_455
Li31 O11 2.028086 1_555
Li31 O42 2.032092 1_655
Li31 O19 2.147446 1_555
Li31 O14 2.188671 1_555
Li31 O39 2.216864 1_655
Li31 O35 2.256481 1_655
Cr0 O9 1.897867 1_555
Cr0 O17 1.907868 1_555
Cr0 O40 1.969995 1_655
Cr0 O44 1.973912 1_655
Cr0 O36 1.982745 1_655
Cr0 O12 1.992627 1_555
Cr1 O41 1.874918 1_655
Cr1 O13 1.910274 1_555
Cr1 O44 1.942004 1_645
Cr1 O37 1.992233 1_655
Cr1 O9 1.995165 1_545
Cr1 O18 2.006475 1_555
Cr2 O47 1.904226 1_655
Cr2 O42 1.942847 1_655
Cr2 O25 1.944090 1_555
Cr2 O15 1.947030 1_555
Cr2 O19 1.977288 1_555
Cr2 O45 2.005290 1_655
Cr3 O46 1.887298 1_655
Cr3 O20 1.887366 1_555
Cr3 O15 1.959460 1_545
Cr3 O47 1.979522 1_645
Cr3 O43 1.991309 1_655
Cr3 O26 2.004723 1_555
Cr4 O21 1.922354 1_555
Cr4 O16 1.930506 1_555
Cr4 O4 1.939025 1_555
Cr4 O27 1.959680 1_555
Cr4 O8 1.975444 1_555
Cr4 O1 1.977637 1_555
Cr5 O5 1.926470 1_555
Cr5 O8 1.927619 1_555
Cr5 O22 1.938773 1_555
Cr5 O2 1.956320 1_555
Cr5 O28 1.976052 1_555
Cr5 O16 1.979712 1_555
Cr6 O29 1.885853 1_555
Cr6 O10 1.890637 1_555
Cr6 O24 1.955828 1_555
Cr6 O14 1.984531 1_555
Cr6 O6 1.992661 1_555
Cr6 O34 2.002714 1_555
Cr7 O14 1.895989 1_555
Cr7 O7 1.930918 1_555
Cr7 O35 1.958364 1_555
Cr7 O24 1.961170 1_555
Cr7 O30 1.969985 1_555
Cr7 O11 2.007591 1_555
Cr8 O37 1.882004 1_555
Cr8 O18 1.893636 1_555
Cr8 O33 1.970475 1_555
Cr8 O23 1.971788 1_555
Cr8 O41 1.994596 1_555
Cr8 O13 2.000294 1_555
Cr9 O43 1.880148 1_555
Cr9 O26 1.900623 1_555
Cr9 O39 1.961137 1_555
Cr9 O31 1.975288 1_555
Cr9 O46 1.986869 1_555
Cr9 O20 2.004077 1_555
Cr10 O1 1.906423 1_455
Cr10 O0 1.920113 1_465
Cr10 O4 1.950010 1_455
Cr10 O27 1.952398 1_555
Cr10 O32 1.983859 1_565
Cr10 O21 1.996116 1_555
Cr11 O28 1.911713 1_555
Cr11 O32 1.916132 1_555
Cr11 O22 1.943216 1_555
Cr11 O2 1.948144 1_455
Cr11 O5 1.993841 1_455
Cr11 O0 1.998062 1_455
Cr12 O6 1.875834 1_455
Cr12 O34 1.902742 1_555
Cr12 O3 1.955723 1_465
Cr12 O38 1.982578 1_565
Cr12 O10 1.984265 1_455
Cr12 O29 2.006367 1_555
O3 Ti2 1.972351 1_655
O7 Ti2 2.026170 1_655
O11 Ti2 1.971916 1_655
O12 Ti0 1.945677 1_555
O17 Ti0 2.021253 1_555
O19 Ti1 1.978732 1_555
O23 Ti0 1.960516 1_555
O25 Ti1 1.982313 1_555
O30 Ti2 1.980919 1_555
O31 Ti1 1.947484 1_555
O33 Ti0 1.946286 1_555
O35 Ti2 1.973664 1_555
O36 Ti0 1.985541 1_555
O38 Ti2 1.940708 1_555
O39 Ti1 1.966059 1_555
O40 Ti0 2.006397 1_555
O42 Ti1 2.012859 1_555
O45 Ti1 1.976662 1_555
