# generated using pymatgen
data_Li3B5(HO5)2
_symmetry_space_group_name_H-M   'P 1'
_cell_length_a   6.92498400
_cell_length_b   6.92498400
_cell_length_c   14.68827500
_cell_angle_alpha   90.00000000
_cell_angle_beta   90.00000000
_cell_angle_gamma   90.00000000
_symmetry_Int_Tables_number   1
_chemical_formula_structural   Li3B5(HO5)2
_chemical_formula_sum   'Li12 B20 H8 O40'
_cell_volume   704.38215288
_cell_formula_units_Z   4
loop_
 _symmetry_equiv_pos_site_id
 _symmetry_equiv_pos_as_xyz
  1  'x, y, z'
loop_
 _atom_site_type_symbol
 _atom_site_label
 _atom_site_symmetry_multiplicity
 _atom_site_fract_x
 _atom_site_fract_y
 _atom_site_fract_z
 _atom_site_occupancy
  Li  Li0  1  0.63211000  0.34935100  0.34360300  1
  Li  Li1  1  0.36789000  0.65064900  0.84360300  1
  Li  Li2  1  0.84935100  0.86789000  0.09360300  1
  Li  Li3  1  0.15064900  0.13211000  0.59360300  1
  Li  Li4  1  0.65064900  0.36789000  0.15639700  1
  Li  Li5  1  0.34935100  0.63211000  0.65639700  1
  Li  Li6  1  0.86789000  0.84935100  0.90639700  1
  Li  Li7  1  0.13211000  0.15064900  0.40639700  1
  Li  Li8  1  0.80484900  0.19515100  0.75000000  1
  Li  Li9  1  0.19515100  0.80484900  0.25000000  1
  Li  Li10  1  0.69515100  0.69515100  0.50000000  1
  Li  Li11  1  0.30484900  0.30484900  0.00000000  1
  B  B0  1  0.74542200  0.23822300  0.52215600  1
  B  B1  1  0.25457800  0.76177700  0.02215600  1
  B  B2  1  0.73822300  0.75457800  0.27215600  1
  B  B3  1  0.26177700  0.24542200  0.77215600  1
  B  B4  1  0.76177700  0.25457800  0.97784400  1
  B  B5  1  0.23822300  0.74542200  0.47784400  1
  B  B6  1  0.75457800  0.73822300  0.72784400  1
  B  B7  1  0.24542200  0.26177700  0.22784400  1
  B  B8  1  0.50571900  0.24473200  0.64264300  1
  B  B9  1  0.49428100  0.75526800  0.14264300  1
  B  B10  1  0.74473200  0.99428100  0.39264300  1
  B  B11  1  0.25526800  0.00571900  0.89264300  1
  B  B12  1  0.75526800  0.49428100  0.85735700  1
  B  B13  1  0.24473200  0.50571900  0.35735700  1
  B  B14  1  0.99428100  0.74473200  0.60735700  1
  B  B15  1  0.00571900  0.25526800  0.10735700  1
  B  B16  1  0.06286700  0.93713300  0.75000000  1
  B  B17  1  0.93713300  0.06286700  0.25000000  1
  B  B18  1  0.43713300  0.43713300  0.50000000  1
  B  B19  1  0.56286700  0.56286700  0.00000000  1
  H  H0  1  0.90047500  0.50903100  0.26724600  1
  H  H1  1  0.09952500  0.49096900  0.76724600  1
  H  H2  1  0.00903100  0.59952500  0.01724600  1
  H  H3  1  0.99096900  0.40047500  0.51724600  1
  H  H4  1  0.49096900  0.09952500  0.23275400  1
  H  H5  1  0.50903100  0.90047500  0.73275400  1
  H  H6  1  0.59952500  0.00903100  0.98275400  1
  H  H7  1  0.40047500  0.99096900  0.48275400  1
  O  O0  1  0.64298500  0.40324400  0.48062300  1
  O  O1  1  0.35701500  0.59675600  0.98062300  1
  O  O2  1  0.90324400  0.85701500  0.23062300  1
  O  O3  1  0.09675600  0.14298500  0.73062300  1
  O  O4  1  0.59675600  0.35701500  0.01937700  1
  O  O5  1  0.40324400  0.64298500  0.51937700  1
  O  O6  1  0.85701500  0.90324400  0.76937700  1
  O  O7  1  0.14298500  0.09675600  0.26937700  1
  O  O8  1  0.68759600  0.05067400  0.47803300  1
  O  O9  1  0.31240400  0.94932600  0.97803300  1
  O  O10  1  0.55067400  0.81240400  0.22803300  1
  O  O11  1  0.44932600  0.18759600  0.72803300  1
  O  O12  1  0.94932600  0.31240400  0.02196700  1
  O  O13  1  0.05067400  0.68759600  0.52196700  1
  O  O14  1  0.81240400  0.55067400  0.77196700  1
  O  O15  1  0.18759600  0.44932600  0.27196700  1
  O  O16  1  0.95703800  0.26263200  0.51232700  1
  O  O17  1  0.04296200  0.73736800  0.01232700  1
  O  O18  1  0.76263200  0.54296200  0.26232700  1
  O  O19  1  0.23736800  0.45703800  0.76232700  1
  O  O20  1  0.73736800  0.04296200  0.98767300  1
  O  O21  1  0.26263200  0.95703800  0.48767300  1
  O  O22  1  0.54296200  0.76263200  0.73767300  1
  O  O23  1  0.45703800  0.23736800  0.23767300  1
  O  O24  1  0.82450700  0.12655400  0.33211700  1
  O  O25  1  0.17549300  0.87344600  0.83211700  1
  O  O26  1  0.62655400  0.67549300  0.08211700  1
  O  O27  1  0.37344600  0.32450700  0.58211700  1
  O  O28  1  0.87344600  0.17549300  0.16788300  1
  O  O29  1  0.12655400  0.82450700  0.66788300  1
  O  O30  1  0.67549300  0.62655400  0.91788300  1
  O  O31  1  0.32450700  0.37344600  0.41788300  1
  O  O32  1  0.69510000  0.21918700  0.61991200  1
  O  O33  1  0.30490000  0.78081300  0.11991200  1
  O  O34  1  0.71918700  0.80490000  0.36991200  1
  O  O35  1  0.28081300  0.19510000  0.86991200  1
  O  O36  1  0.78081300  0.30490000  0.88008800  1
  O  O37  1  0.21918700  0.69510000  0.38008800  1
  O  O38  1  0.80490000  0.71918700  0.63008800  1
  O  O39  1  0.19510000  0.28081300  0.13008800  1
loop_
_geom_bond_atom_site_label_1
_geom_bond_atom_site_label_2
_geom_bond_distance
_geom_bond_site_symmetry_2
Li0 O18 2.009914 1_555
Li0 O24 2.045493 1_555
Li0 O0 2.048283 1_555
Li0 O23 2.119464 1_555
Li0 O31 2.399113 1_555
Li1 O19 2.009914 1_555
Li1 O25 2.045493 1_555
Li1 O1 2.048283 1_555
Li1 O22 2.119464 1_555
Li1 O30 2.399113 1_555
Li2 O17 2.009914 1_655
Li2 O26 2.045493 1_555
Li2 O2 2.048283 1_555
Li2 O20 2.119464 1_564
Li2 O28 2.399113 1_565
Li3 O16 2.009914 1_455
Li3 O27 2.045493 1_555
Li3 O3 2.048283 1_555
Li3 O21 2.119464 1_545
Li3 O29 2.399113 1_545
Li4 O23 2.009914 1_555
Li4 O28 2.045493 1_555
Li4 O4 2.048283 1_555
Li4 O18 2.119464 1_555
Li4 O26 2.399113 1_555
Li5 O22 2.009914 1_555
Li5 O29 2.045493 1_555
Li5 O5 2.048283 1_555
Li5 O19 2.119464 1_555
Li5 O27 2.399113 1_555
Li6 O20 2.009914 1_565
Li6 O30 2.045493 1_555
Li6 O6 2.048283 1_555
Li6 O17 2.119464 1_656
Li6 O25 2.399113 1_655
Li7 O21 2.009914 1_545
Li7 O31 2.045493 1_555
Li7 O7 2.048283 1_555
Li7 O16 2.119464 1_455
Li7 O24 2.399113 1_455
Li8 O36 2.063094 1_555
Li8 O32 2.063094 1_555
Li8 O6 2.073107 1_545
Li8 O3 2.073107 1_655
Li8 O14 2.483595 1_555
Li8 O11 2.483595 1_555
Li9 O33 2.063094 1_555
Li9 O37 2.063094 1_555
Li9 O2 2.073107 1_455
Li9 O7 2.073107 1_565
Li9 O15 2.483595 1_555
Li9 O10 2.483595 1_555
Li10 O34 2.063094 1_555
Li10 O38 2.063094 1_555
Li10 O0 2.073107 1_555
Li10 O5 2.073107 1_555
Li10 O8 2.483595 1_565
Li10 O13 2.483595 1_655
Li11 O39 2.063094 1_555
Li11 O35 2.063094 1_554
Li11 O1 2.073107 1_554
Li11 O4 2.073107 1_555
Li11 O9 2.483595 1_544
Li11 O12 2.483595 1_455
B0 O0 1.476919 1_555
B0 O16 1.482202 1_555
B0 O32 1.483418 1_555
B0 O8 1.505719 1_555
B1 O1 1.476919 1_554
B1 O17 1.482202 1_555
B1 O33 1.483418 1_555
B1 O9 1.505719 1_554
B2 O2 1.476919 1_555
B2 O18 1.482202 1_555
B2 O34 1.483418 1_555
B2 O10 1.505719 1_555
B3 O3 1.476919 1_555
B3 O19 1.482202 1_555
B3 O35 1.483418 1_555
B3 O11 1.505719 1_555
B4 O4 1.476919 1_556
B4 O20 1.482202 1_555
B4 O36 1.483418 1_555
B4 O12 1.505719 1_556
B5 O5 1.476919 1_555
B5 O21 1.482202 1_555
B5 O37 1.483418 1_555
B5 O13 1.505719 1_555
B6 O6 1.476919 1_555
B6 O22 1.482202 1_555
B6 O38 1.483418 1_555
B6 O14 1.505719 1_555
B7 O7 1.476919 1_555
B7 O23 1.482202 1_555
B7 O39 1.483418 1_555
B7 O15 1.505719 1_555
B8 O32 1.364807 1_555
B8 O11 1.371917 1_555
B8 O27 1.390894 1_555
B9 O33 1.364807 1_555
B9 O10 1.371917 1_555
B9 O26 1.390894 1_555
B10 O34 1.364807 1_555
B10 O8 1.371917 1_565
B10 O24 1.390894 1_565
B11 O35 1.364807 1_555
B11 O9 1.371917 1_545
B11 O25 1.390894 1_545
B12 O36 1.364807 1_555
B12 O14 1.371917 1_555
B12 O30 1.390894 1_555
B13 O37 1.364807 1_555
B13 O15 1.371917 1_555
B13 O31 1.390894 1_555
B14 O38 1.364807 1_555
B14 O13 1.371917 1_655
B14 O29 1.390894 1_655
B15 O39 1.364807 1_555
B15 O12 1.371917 1_455
B15 O28 1.390894 1_455
B16 O3 1.472479 1_565
B16 O6 1.472479 1_455
B16 O25 1.502538 1_555
B16 O29 1.502538 1_555
B17 O7 1.472479 1_655
B17 O2 1.472479 1_545
B17 O24 1.502538 1_555
B17 O28 1.502538 1_555
B18 O5 1.472479 1_555
B18 O0 1.472479 1_555
B18 O31 1.502538 1_555
B18 O27 1.502538 1_555
B19 O4 1.472479 1_555
B19 O1 1.472479 1_554
B19 O30 1.502538 1_554
B19 O26 1.502538 1_555
H0 O18 0.985707 1_555
H1 O19 0.985707 1_555
H2 O17 0.985707 1_555
H3 O16 0.985707 1_555
H4 O23 0.985707 1_555
H5 O22 0.985707 1_555
H6 O20 0.985707 1_555
H7 O21 0.985707 1_555
