# generated using pymatgen
data_Li2Cr3SnO8
_symmetry_space_group_name_H-M   'P 1'
_cell_length_a   5.95572376
_cell_length_b   5.95572376
_cell_length_c   9.68989500
_cell_angle_alpha   90.00000000
_cell_angle_beta   90.00000000
_cell_angle_gamma   119.99999729
_symmetry_Int_Tables_number   1
_chemical_formula_structural   Li2Cr3SnO8
_chemical_formula_sum   'Li4 Cr6 Sn2 O16'
_cell_volume   297.65885441
_cell_formula_units_Z   2
loop_
 _symmetry_equiv_pos_site_id
 _symmetry_equiv_pos_as_xyz
  1  'x, y, z'
loop_
 _atom_site_type_symbol
 _atom_site_label
 _atom_site_symmetry_multiplicity
 _atom_site_fract_x
 _atom_site_fract_y
 _atom_site_fract_z
 _atom_site_occupancy
  Li  Li0  1  0.33333300  0.66666700  0.89166800  1
  Li  Li1  1  0.00000000  0.00000000  0.99372700  1
  Li  Li2  1  0.00000000  0.00000000  0.49372700  1
  Li  Li3  1  0.66666700  0.33333300  0.39166800  1
  Cr  Cr0  1  0.17079800  0.82920200  0.21635300  1
  Cr  Cr1  1  0.17079800  0.34159600  0.21635300  1
  Cr  Cr2  1  0.65840400  0.82920200  0.21635300  1
  Cr  Cr3  1  0.34159600  0.17079800  0.71635300  1
  Cr  Cr4  1  0.82920200  0.65840400  0.71635300  1
  Cr  Cr5  1  0.82920200  0.17079800  0.71635300  1
  Sn  Sn0  1  0.33333300  0.66666700  0.49415900  1
  Sn  Sn1  1  0.66666700  0.33333300  0.99415900  1
  O  O0  1  0.15969000  0.84031000  0.60075200  1
  O  O1  1  0.03397000  0.51698500  0.33789800  1
  O  O2  1  0.33333300  0.66666700  0.10727200  1
  O  O3  1  0.00000000  0.00000000  0.30256300  1
  O  O4  1  0.00000000  0.00000000  0.80256300  1
  O  O5  1  0.15969000  0.31938000  0.60075200  1
  O  O6  1  0.48301500  0.96603000  0.33789800  1
  O  O7  1  0.48301500  0.51698500  0.33789800  1
  O  O8  1  0.31938000  0.15969000  0.10075200  1
  O  O9  1  0.68062000  0.84031000  0.60075200  1
  O  O10  1  0.51698500  0.48301500  0.83789800  1
  O  O11  1  0.51698500  0.03397000  0.83789800  1
  O  O12  1  0.66666700  0.33333300  0.60727200  1
  O  O13  1  0.84031000  0.68062000  0.10075200  1
  O  O14  1  0.96603000  0.48301500  0.83789800  1
  O  O15  1  0.84031000  0.15969000  0.10075200  1
loop_
_geom_bond_atom_site_label_1
_geom_bond_atom_site_label_2
_geom_bond_distance
_geom_bond_site_symmetry_2
Li0 O14 1.964820 1_455
Li0 O11 1.964820 1_565
Li0 O10 1.964825 1_555
Li0 O2 2.089180 1_556
Li1 O4 1.852359 1_555
Li1 O15 1.946560 1_456
Li1 O8 1.946560 1_556
Li1 O13 1.946560 1_446
Li2 O3 1.852359 1_555
Li2 O0 1.946560 1_545
Li2 O9 1.946560 1_445
Li2 O5 1.946560 1_555
Li3 O6 1.964820 1_545
Li3 O1 1.964820 1_655
Li3 O7 1.964825 1_555
Li3 O12 2.089180 1_555
Cr0 O3 1.949892 1_565
Cr0 O2 1.982010 1_555
Cr0 O1 1.998386 1_555
Cr0 O6 1.998386 1_555
Cr0 O8 2.042119 1_565
Cr0 O13 2.042119 1_455
Cr1 O3 1.949892 1_555
Cr1 O2 1.982015 1_555
Cr1 O1 1.998386 1_555
Cr1 O7 1.998386 1_555
Cr1 O8 2.042119 1_555
Cr1 O15 2.042119 1_455
Cr2 O3 1.949892 1_665
Cr2 O2 1.982015 1_555
Cr2 O6 1.998386 1_555
Cr2 O7 1.998386 1_555
Cr2 O13 2.042119 1_555
Cr2 O15 2.042119 1_565
Cr3 O4 1.949892 1_555
Cr3 O12 1.982015 1_555
Cr3 O11 1.998386 1_555
Cr3 O10 1.998386 1_555
Cr3 O5 2.042119 1_555
Cr3 O0 2.042119 1_545
Cr4 O4 1.949892 1_665
Cr4 O12 1.982015 1_555
Cr4 O14 1.998386 1_555
Cr4 O10 1.998386 1_555
Cr4 O9 2.042119 1_555
Cr4 O0 2.042119 1_655
Cr5 O4 1.949892 1_655
Cr5 O12 1.982010 1_555
Cr5 O11 1.998386 1_555
Cr5 O14 1.998386 1_555
Cr5 O5 2.042119 1_655
Cr5 O9 2.042119 1_545
O0 Sn0 2.067692 1_555
O1 Sn0 2.162584 1_555
O5 Sn0 2.067697 1_555
O6 Sn0 2.162584 1_555
O7 Sn0 2.162588 1_555
O8 Sn1 2.067697 1_554
O9 Sn0 2.067697 1_555
O10 Sn1 2.162588 1_555
O11 Sn1 2.162584 1_555
O13 Sn1 2.067697 1_554
O14 Sn1 2.162584 1_555
O15 Sn1 2.067692 1_554
