# generated using pymatgen
data_Y2HfO5
_symmetry_space_group_name_H-M   'P 1'
_cell_length_a   3.73437528
_cell_length_b   7.46130828
_cell_length_c   15.65011004
_cell_angle_alpha   90.00000000
_cell_angle_beta   90.00000000
_cell_angle_gamma   90.00000000
_symmetry_Int_Tables_number   1
_chemical_formula_structural   Y2HfO5
_chemical_formula_sum   'Y8 Hf4 O20'
_cell_volume   436.06410542
_cell_formula_units_Z   4
loop_
 _symmetry_equiv_pos_site_id
 _symmetry_equiv_pos_as_xyz
  1  'x, y, z'
loop_
 _atom_site_type_symbol
 _atom_site_label
 _atom_site_symmetry_multiplicity
 _atom_site_fract_x
 _atom_site_fract_y
 _atom_site_fract_z
 _atom_site_occupancy
  Y  Y0  1  0.25000000  0.09438999  0.08896727  1
  Y  Y1  1  0.25000000  0.14121767  0.73992875  1
  Y  Y2  1  0.75000000  0.35878233  0.23992875  1
  Y  Y3  1  0.75000000  0.40561001  0.58896727  1
  Y  Y4  1  0.25000000  0.59438999  0.41103273  1
  Y  Y5  1  0.25000000  0.64121767  0.76007125  1
  Y  Y6  1  0.75000000  0.85878233  0.26007125  1
  Y  Y7  1  0.75000000  0.90561001  0.91103273  1
  Hf  Hf0  1  0.25000000  0.12382332  0.42836216  1
  Hf  Hf1  1  0.75000000  0.37617668  0.92836216  1
  Hf  Hf2  1  0.25000000  0.62382332  0.07163784  1
  Hf  Hf3  1  0.75000000  0.87617668  0.57163784  1
  O  O0  1  0.75000000  0.09659162  0.17911526  1
  O  O1  1  0.75000000  0.08998705  0.46630252  1
  O  O2  1  0.75000000  0.09736241  0.65341897  1
  O  O3  1  0.75000000  0.14336797  0.00370887  1
  O  O4  1  0.25000000  0.29839462  0.33011232  1
  O  O5  1  0.75000000  0.20160538  0.83011232  1
  O  O6  1  0.25000000  0.35663203  0.50370887  1
  O  O7  1  0.25000000  0.40263759  0.15341897  1
  O  O8  1  0.25000000  0.41001295  0.96630252  1
  O  O9  1  0.25000000  0.40340838  0.67911526  1
  O  O10  1  0.75000000  0.59659162  0.32088474  1
  O  O11  1  0.75000000  0.58998705  0.03369748  1
  O  O12  1  0.75000000  0.59736241  0.84658103  1
  O  O13  1  0.75000000  0.64336797  0.49629113  1
  O  O14  1  0.25000000  0.79839462  0.16988768  1
  O  O15  1  0.75000000  0.70160538  0.66988768  1
  O  O16  1  0.25000000  0.85663203  0.99629113  1
  O  O17  1  0.25000000  0.90263759  0.34658103  1
  O  O18  1  0.25000000  0.91001295  0.53369748  1
  O  O19  1  0.25000000  0.90340838  0.82088474  1
loop_
_geom_bond_atom_site_label_1
_geom_bond_atom_site_label_2
_geom_bond_distance
_geom_bond_site_symmetry_2
Hf0 O1 1.975523 1_555
Hf0 O1 1.975523 1_455
Hf0 O4 2.015158 1_555
Hf0 O17 2.088470 1_545
Hf0 O6 2.099487 1_555
Hf0 O18 2.294032 1_545
Hf1 O8 1.975523 1_555
Hf1 O8 1.975523 1_655
Hf1 O5 2.015158 1_555
Hf1 O12 2.088470 1_555
Hf1 O3 2.099487 1_556
Hf1 O11 2.294032 1_556
Hf2 O11 1.975523 1_555
Hf2 O11 1.975523 1_455
Hf2 O14 2.015158 1_555
Hf2 O7 2.088470 1_555
Hf2 O16 2.099487 1_554
Hf2 O8 2.294032 1_554
Hf3 O18 1.975523 1_555
Hf3 O18 1.975523 1_655
Hf3 O15 2.015158 1_555
Hf3 O2 2.088470 1_565
Hf3 O13 2.099487 1_555
Hf3 O1 2.294032 1_565
O0 Y2 2.175513 1_555
O0 Y6 2.180274 1_545
O0 Y0 2.340318 1_655
O0 Y0 2.340318 1_555
O2 Y1 2.329479 1_655
O2 Y1 2.329479 1_555
O2 Y3 2.511396 1_555
O3 Y7 2.291432 1_544
O3 Y0 2.323855 1_655
O3 Y0 2.323855 1_555
O4 Y2 2.383570 1_555
O4 Y2 2.383570 1_455
O4 Y4 2.545846 1_555
O5 Y1 2.383570 1_655
O5 Y1 2.383570 1_555
O5 Y7 2.545846 1_545
O6 Y4 2.291432 1_555
O6 Y3 2.323855 1_455
O6 Y3 2.323855 1_555
O7 Y2 2.329479 1_555
O7 Y2 2.329479 1_455
O7 Y0 2.511396 1_555
O9 Y1 2.175513 1_555
O9 Y5 2.180274 1_555
O9 Y3 2.340318 1_555
O9 Y3 2.340318 1_455
O10 Y6 2.175513 1_555
O10 Y2 2.180274 1_555
O10 Y4 2.340318 1_655
O10 Y4 2.340318 1_555
O12 Y5 2.329479 1_655
O12 Y5 2.329479 1_555
O12 Y7 2.511396 1_555
O13 Y3 2.291432 1_555
O13 Y4 2.323855 1_555
O13 Y4 2.323855 1_655
O14 Y6 2.383570 1_555
O14 Y6 2.383570 1_455
O14 Y0 2.545846 1_565
O15 Y5 2.383570 1_655
O15 Y5 2.383570 1_555
O15 Y3 2.545846 1_555
O16 Y0 2.291432 1_566
O16 Y7 2.323855 1_555
O16 Y7 2.323855 1_455
O17 Y6 2.329479 1_455
O17 Y6 2.329479 1_555
O17 Y4 2.511396 1_555
O19 Y5 2.175513 1_555
O19 Y1 2.180274 1_565
O19 Y7 2.340318 1_555
O19 Y7 2.340318 1_455
