# generated using pymatgen
data_V3(OF)4
_symmetry_space_group_name_H-M   'P 1'
_cell_length_a   2.99993200
_cell_length_b   4.79117800
_cell_length_c   9.67409776
_cell_angle_alpha   89.33033451
_cell_angle_beta   90.00000000
_cell_angle_gamma   90.00000000
_symmetry_Int_Tables_number   1
_chemical_formula_structural   V3(OF)4
_chemical_formula_sum   'V3 O4 F4'
_cell_volume   139.03832401
_cell_formula_units_Z   1
loop_
 _symmetry_equiv_pos_site_id
 _symmetry_equiv_pos_as_xyz
  1  'x, y, z'
loop_
 _atom_site_type_symbol
 _atom_site_label
 _atom_site_symmetry_multiplicity
 _atom_site_fract_x
 _atom_site_fract_y
 _atom_site_fract_z
 _atom_site_occupancy
  V  V0  1  0.50000000  0.98192000  0.13757200  1
  V  V1  1  0.50000000  0.55487100  0.62904300  1
  V  V2  1  0.00000000  0.46848100  0.36180900  1
  O  O0  1  0.00000000  0.71193400  0.52605800  1
  O  O1  1  0.50000000  0.67560100  0.27294200  1
  O  O2  1  0.50000000  0.30511100  0.46550100  1
  O  O3  1  0.00000000  0.16300600  0.23006200  1
  F  F0  1  0.50000000  0.79538200  0.76527600  1
  F  F1  1  0.00000000  0.77269200  0.05341500  1
  F  F2  1  0.00000000  0.33012200  0.70538300  1
  F  F3  1  0.50000000  0.21175800  0.99345700  1
loop_
_geom_bond_atom_site_label_1
_geom_bond_atom_site_label_2
_geom_bond_distance
_geom_bond_site_symmetry_2
O0 V1 1.947111 1_555
O0 V1 1.947111 1_455
O0 V2 1.982088 1_555
O1 V0 1.955509 1_555
O1 V2 1.988419 1_655
O1 V2 1.988419 1_555
O2 V2 1.962264 1_555
O2 V2 1.962264 1_655
O2 V1 1.994824 1_555
O3 V2 1.951953 1_555
O3 V0 1.954838 1_445
O3 V0 1.954838 1_545
F0 V1 1.760770 1_555
F1 V0 1.984114 1_455
F1 V0 1.984114 1_555
F2 V1 1.983998 1_455
F2 V1 1.983998 1_555
F3 V0 1.766490 1_546
