# generated using pymatgen
data_CaMn3O4
_symmetry_space_group_name_H-M   'P 1'
_cell_length_a   5.61471627
_cell_length_b   5.61471627
_cell_length_c   3.25689300
_cell_angle_alpha   90.00000000
_cell_angle_beta   90.00000000
_cell_angle_gamma   109.53789500
_symmetry_Int_Tables_number   1
_chemical_formula_structural   CaMn3O4
_chemical_formula_sum   'Ca1 Mn3 O4'
_cell_volume   96.76177993
_cell_formula_units_Z   1
loop_
 _symmetry_equiv_pos_site_id
 _symmetry_equiv_pos_as_xyz
  1  'x, y, z'
loop_
 _atom_site_type_symbol
 _atom_site_label
 _atom_site_symmetry_multiplicity
 _atom_site_fract_x
 _atom_site_fract_y
 _atom_site_fract_z
 _atom_site_occupancy
  Ca  Ca0  1  0.50000000  0.50000000  0.00000000  1
  Mn  Mn0  1  0.00000000  0.50000000  0.50000000  1
  Mn  Mn1  1  0.50000000  0.00000000  0.50000000  1
  Mn  Mn2  1  0.00000000  0.00000000  0.00000000  1
  O  O0  1  0.24515100  0.75484900  0.00000000  1
  O  O1  1  0.75898800  0.75898800  0.50000000  1
  O  O2  1  0.24101200  0.24101200  0.50000000  1
  O  O3  1  0.75484900  0.24515100  0.00000000  1
loop_
_geom_bond_atom_site_label_1
_geom_bond_atom_site_label_2
_geom_bond_distance
_geom_bond_site_symmetry_2
Ca0 O3 2.337619 1_555
Ca0 O0 2.337619 1_555
Ca0 O2 2.338072 1_554
Ca0 O2 2.338072 1_555
Ca0 O1 2.338072 1_555
Ca0 O1 2.338072 1_554
Mn0 O2 2.293880 1_555
Mn0 O1 2.293880 1_455
Mn0 O3 2.297081 1_455
Mn0 O3 2.297081 1_456
Mn0 O0 2.297081 1_555
Mn0 O0 2.297081 1_556
Mn1 O2 2.293880 1_555
Mn1 O1 2.293880 1_545
Mn1 O0 2.297081 1_545
Mn1 O3 2.297081 1_555
Mn1 O3 2.297081 1_556
Mn1 O0 2.297081 1_546
Mn2 O3 2.248663 1_455
Mn2 O0 2.248663 1_545
Mn2 O1 2.255971 1_444
Mn2 O2 2.255971 1_554
Mn2 O1 2.255971 1_445
Mn2 O2 2.255971 1_555
