# generated using pymatgen
data_V2O3F
_symmetry_space_group_name_H-M   'P 1'
_cell_length_a   4.60987949
_cell_length_b   4.60987949
_cell_length_c   14.86231246
_cell_angle_alpha   90.00000000
_cell_angle_beta   90.00000000
_cell_angle_gamma   94.28854591
_symmetry_Int_Tables_number   1
_chemical_formula_structural   V2O3F
_chemical_formula_sum   'V10 O15 F5'
_cell_volume   314.95452129
_cell_formula_units_Z   5
loop_
 _symmetry_equiv_pos_site_id
 _symmetry_equiv_pos_as_xyz
  1  'x, y, z'
loop_
 _atom_site_type_symbol
 _atom_site_label
 _atom_site_symmetry_multiplicity
 _atom_site_fract_x
 _atom_site_fract_y
 _atom_site_fract_z
 _atom_site_occupancy
  V  V0  1  -0.00056098  0.00056098  0.39975134  1
  V  V1  1  -0.00056098  0.00056098  0.60024866  1
  V  V2  1  -0.00083457  0.00083457  0.80086187  1
  V  V3  1  -0.00083457  0.00083457  0.19913813  1
  V  V4  1  0.98731987  0.01268013  0.00000000  1
  V  V5  1  0.45210333  0.54789667  0.69992484  1
  V  V6  1  0.45210333  0.54789667  0.30007516  1
  V  V7  1  0.53976542  0.46023458  0.09966676  1
  V  V8  1  0.53976542  0.46023458  0.90033324  1
  V  V9  1  0.54635877  0.45364123  0.50000000  1
  O  O0  1  0.80360457  0.19639543  0.90090119  1
  O  O1  1  0.80360457  0.19639543  0.09909881  1
  O  O2  1  0.80558711  0.19441289  0.50000000  1
  O  O3  1  0.30174128  0.30616603  0.79950539  1
  O  O4  1  0.30386317  0.30517596  0.59992750  1
  O  O5  1  0.30386317  0.30517596  0.40007250  1
  O  O6  1  0.30174128  0.30616603  0.20049461  1
  O  O7  1  0.30447286  0.30213391  0.00000000  1
  O  O8  1  0.69383397  0.69825872  0.79950539  1
  O  O9  1  0.69482404  0.69613683  0.59992750  1
  O  O10  1  0.69482404  0.69613683  0.40007250  1
  O  O11  1  0.69383397  0.69825872  0.20049461  1
  O  O12  1  0.69786609  0.69552714  0.00000000  1
  O  O13  1  0.19260815  0.80739185  0.70023558  1
  O  O14  1  0.19260815  0.80739185  0.29976442  1
  F  F0  1  0.80081829  0.19918171  0.70035473  1
  F  F1  1  0.80081829  0.19918171  0.29964527  1
  F  F2  1  0.19782605  0.80217395  0.50000000  1
  F  F3  1  0.19851598  0.80148402  0.89954261  1
  F  F4  1  0.19851598  0.80148402  0.10045739  1
loop_
_geom_bond_atom_site_label_1
_geom_bond_atom_site_label_2
_geom_bond_distance
_geom_bond_site_symmetry_2
O0 V8 1.783234 1_555
O0 V4 1.926400 1_556
O0 V2 1.989376 1_655
O1 V7 1.783234 1_555
O1 V4 1.926400 1_555
O1 V3 1.989376 1_655
O2 V9 1.752051 1_555
O2 V1 1.984057 1_655
O2 V0 1.984057 1_655
O3 V2 1.906181 1_555
O3 V5 1.948616 1_555
O3 V8 1.958948 1_555
O4 V1 1.909606 1_555
O4 V9 1.951747 1_555
O4 V5 1.952785 1_555
O5 V0 1.909606 1_555
O5 V9 1.951747 1_555
O5 V6 1.952785 1_555
O6 V3 1.906181 1_555
O6 V6 1.948616 1_555
O6 V7 1.958948 1_555
O7 V4 1.904276 1_455
O7 V8 1.945161 1_554
O7 V7 1.945161 1_555
O8 V2 1.906181 1_665
O8 V5 1.948616 1_555
O8 V8 1.958948 1_555
O9 V1 1.909606 1_665
O9 V9 1.951747 1_555
O9 V5 1.952785 1_555
O10 V0 1.909606 1_665
O10 V9 1.951747 1_555
O10 V6 1.952785 1_555
O11 V3 1.906181 1_665
O11 V6 1.948616 1_555
O11 V7 1.958948 1_555
O12 V4 1.904276 1_565
O12 V8 1.945161 1_554
O12 V7 1.945161 1_555
O13 V5 1.753860 1_555
O13 V1 1.978088 1_565
O13 V2 1.986453 1_565
O14 V6 1.753860 1_555
O14 V0 1.978088 1_565
O14 V3 1.986453 1_565
F0 V1 2.003913 1_655
F0 V2 2.007107 1_655
F0 V5 2.356874 1_555
F1 V0 2.003913 1_655
F1 V3 2.007107 1_655
F1 V6 2.356874 1_555
F2 V0 2.004430 1_565
F2 V1 2.004430 1_565
F2 V9 2.355634 1_555
F3 V2 1.991569 1_565
F3 V4 2.065587 1_466
F3 V8 2.306438 1_555
F4 V3 1.991569 1_565
F4 V4 2.065587 1_465
F4 V7 2.306438 1_555
