# generated using pymatgen
data_SrBi5O9
_symmetry_space_group_name_H-M   'P 1'
_cell_length_a   4.06570100
_cell_length_b   6.89485153
_cell_length_c   9.99715605
_cell_angle_alpha   98.18353285
_cell_angle_beta   101.61318572
_cell_angle_gamma   90.08466167
_symmetry_Int_Tables_number   1
_chemical_formula_structural   SrBi5O9
_chemical_formula_sum   'Sr1 Bi5 O9'
_cell_volume   271.58092051
_cell_formula_units_Z   1
loop_
 _symmetry_equiv_pos_site_id
 _symmetry_equiv_pos_as_xyz
  1  'x, y, z'
loop_
 _atom_site_type_symbol
 _atom_site_label
 _atom_site_symmetry_multiplicity
 _atom_site_fract_x
 _atom_site_fract_y
 _atom_site_fract_z
 _atom_site_occupancy
  Sr  Sr0  1  0.02730900  0.00071400  0.01164300  1
  Bi  Bi0  1  0.17894400  0.41656900  0.31786400  1
  Bi  Bi1  1  0.36380300  0.10179700  0.68275400  1
  Bi  Bi2  1  0.52171500  0.50285400  0.01271000  1
  Bi  Bi3  1  0.67876300  0.87625600  0.33118600  1
  Bi  Bi4  1  0.86240500  0.60439500  0.67429400  1
  O  O0  1  0.35760100  0.43388300  0.66447300  1
  O  O1  1  0.18808800  0.09269400  0.30703700  1
  O  O2  1  0.06928300  0.38033600  0.09675900  1
  O  O3  1  0.22284100  0.73763200  0.39982400  1
  O  O4  1  0.46973300  0.14921400  0.89709400  1
  O  O5  1  0.86359800  0.94014900  0.68418500  1
  O  O6  1  0.65282300  0.51696100  0.26711700  1
  O  O7  1  0.57491000  0.83260500  0.11179300  1
  O  O8  1  0.97204100  0.63836000  0.88766400  1
loop_
_geom_bond_atom_site_label_1
_geom_bond_atom_site_label_2
_geom_bond_distance
_geom_bond_site_symmetry_2
Bi0 O2 2.143092 1_555
Bi0 O1 2.220980 1_555
Bi0 O6 2.222170 1_555
Bi0 O6 2.231475 1_455
Bi0 O3 2.242138 1_555
Bi1 O4 2.076660 1_555
Bi1 O5 2.317547 1_545
Bi1 O5 2.321169 1_445
Bi1 O0 2.322527 1_555
Bi2 O7 2.338439 1_555
Bi2 O2 2.371276 1_555
Bi2 O2 2.414602 1_655
Bi2 O6 2.479074 1_555
Bi2 O4 2.534502 1_554
Bi2 O8 2.577584 1_454
Bi2 O8 2.652690 1_554
Bi3 O7 2.125630 1_555
Bi3 O3 2.348180 1_555
Bi3 O3 2.420629 1_655
Bi3 O6 2.465487 1_555
Bi3 O1 2.486464 1_565
Bi3 O1 2.620694 1_665
Bi4 O8 2.068403 1_555
Bi4 O5 2.302935 1_555
Bi4 O0 2.341571 1_555
Bi4 O0 2.344989 1_655
O1 Sr0 2.870315 1_555
O2 Sr0 2.628747 1_555
O4 Sr0 2.598649 1_556
O4 Sr0 2.606576 1_656
O5 Sr0 3.172841 1_666
O7 Sr0 2.596777 1_565
O7 Sr0 2.606628 1_665
O8 Sr0 2.614046 1_666
