# generated using pymatgen
data_Li24Ti5Cr7O36
_symmetry_space_group_name_H-M   'P 1'
_cell_length_a   5.06972700
_cell_length_b   9.78922348
_cell_length_c   13.35764940
_cell_angle_alpha   97.19702559
_cell_angle_beta   100.87935400
_cell_angle_gamma   94.98820225
_symmetry_Int_Tables_number   1
_chemical_formula_structural   Li24Ti5Cr7O36
_chemical_formula_sum   'Li24 Ti5 Cr7 O36'
_cell_volume   641.70386584
_cell_formula_units_Z   1
loop_
 _symmetry_equiv_pos_site_id
 _symmetry_equiv_pos_as_xyz
  1  'x, y, z'
loop_
 _atom_site_type_symbol
 _atom_site_label
 _atom_site_symmetry_multiplicity
 _atom_site_fract_x
 _atom_site_fract_y
 _atom_site_fract_z
 _atom_site_occupancy
  Li  Li0  1  0.17080500  0.00015300  0.83164400  1
  Li  Li1  1  0.04545600  0.99977600  0.61390200  1
  Li  Li2  1  0.99783000  0.75128200  0.24977600  1
  Li  Li3  1  0.33424600  0.75033700  0.91766500  1
  Li  Li4  1  0.04893100  0.49902600  0.11247000  1
  Li  Li5  1  0.37984800  0.50023100  0.77899800  1
  Li  Li6  1  0.17077700  0.49935800  0.33368000  1
  Li  Li7  1  0.50029600  0.50063900  0.99973500  1
  Li  Li8  1  0.28396300  0.50082100  0.55466700  1
  Li  Li9  1  0.33317200  0.25002400  0.41747800  1
  Li  Li10  1  0.50814600  0.99971700  0.49823600  1
  Li  Li11  1  0.28065300  0.99901600  0.05262100  1
  Li  Li12  1  0.61436300  0.99839500  0.71903500  1
  Li  Li13  1  0.38269800  0.99843800  0.28021200  1
  Li  Li14  1  0.71991400  0.00175300  0.94825400  1
  Li  Li15  1  0.66551700  0.74956300  0.58293000  1
  Li  Li16  1  0.70955200  0.49929700  0.44587300  1
  Li  Li17  1  0.83898400  0.50019200  0.66468600  1
  Li  Li18  1  0.62303700  0.50203400  0.22236100  1
  Li  Li19  1  0.94911700  0.49906500  0.88715100  1
  Li  Li20  1  0.66610600  0.25027500  0.08235200  1
  Li  Li21  1  0.82842500  0.99962900  0.16764400  1
  Li  Li22  1  0.00033500  0.25006500  0.75016500  1
  Li  Li23  1  0.94974000  0.00076200  0.38773300  1
  Ti  Ti0  1  0.10775700  0.74672000  0.47259000  1
  Ti  Ti1  1  0.22168400  0.24843000  0.19184600  1
  Ti  Ti2  1  0.44422100  0.24891500  0.64058400  1
  Ti  Ti3  1  0.77826800  0.74958000  0.80621200  1
  Ti  Ti4  1  0.77733600  0.25132700  0.30641000  1
  Cr  Cr0  1  0.11002000  0.25031400  0.96827400  1
  Cr  Cr1  1  0.22567600  0.75085300  0.69532500  1
  Cr  Cr2  1  0.55941700  0.25091600  0.86424800  1
  Cr  Cr3  1  0.44615300  0.75157500  0.13495000  1
  Cr  Cr4  1  0.55025200  0.74949800  0.35846500  1
  Cr  Cr5  1  0.88943400  0.24992700  0.52749500  1
  Cr  Cr6  1  0.89387200  0.75082600  0.03086400  1
  O  O0  1  0.00093000  0.86258000  0.93116600  1
  O  O1  1  0.07396100  0.63508300  0.78486300  1
  O  O2  1  0.00408500  0.36318000  0.43011400  1
  O  O3  1  0.14183000  0.36232900  0.64395800  1
  O  O4  1  0.25812100  0.36487600  0.88336900  1
  O  O5  1  0.33296800  0.86302800  0.59765400  1
  O  O6  1  0.06898700  0.13360000  0.28463600  1
  O  O7  1  0.18306300  0.13744200  0.52279300  1
  O  O8  1  0.40907700  0.13606900  0.94908100  1
  O  O9  1  0.13560500  0.86212900  0.14121300  1
  O  O10  1  0.27024800  0.86451100  0.38078700  1
  O  O11  1  0.47279100  0.86260100  0.81042400  1
  O  O12  1  0.33509400  0.13731100  0.73960300  1
  O  O13  1  0.19751300  0.63719000  0.02663700  1
  O  O14  1  0.39938700  0.63325900  0.45196000  1
  O  O15  1  0.52102600  0.63683700  0.69010000  1
  O  O16  1  0.33714400  0.64023400  0.23857500  1
  O  O17  1  0.66782600  0.63716200  0.90638400  1
  O  O18  1  0.33283300  0.36223800  0.09328600  1
  O  O19  1  0.66683600  0.36311700  0.76412100  1
  O  O20  1  0.47669400  0.36386600  0.31011000  1
  O  O21  1  0.60307000  0.36394200  0.54771700  1
  O  O22  1  0.80297000  0.36262300  0.97459000  1
  O  O23  1  0.66485000  0.86210700  0.25867700  1
  O  O24  1  0.52277400  0.13576300  0.18935400  1
  O  O25  1  0.73792000  0.13422400  0.61924800  1
  O  O26  1  0.86491300  0.13803700  0.85923700  1
  O  O27  1  0.59228300  0.86537000  0.04966000  1
  O  O28  1  0.80625500  0.86179500  0.47455800  1
  O  O29  1  0.92997500  0.86573000  0.71514300  1
  O  O30  1  0.66373700  0.13762200  0.40612800  1
  O  O31  1  0.74288700  0.63602100  0.11606400  1
  O  O32  1  0.85210500  0.63756700  0.35544100  1
  O  O33  1  0.99747800  0.63764300  0.57298300  1
  O  O34  1  0.92988100  0.36680200  0.21502100  1
  O  O35  1  0.99688800  0.13738500  0.06881100  1
loop_
_geom_bond_atom_site_label_1
_geom_bond_atom_site_label_2
_geom_bond_distance
_geom_bond_site_symmetry_2
Li0 O29 2.033290 1_445
Li0 O8 2.042661 1_555
Li0 O12 2.147958 1_555
Li0 O11 2.159648 1_545
Li0 O26 2.194953 1_455
Li0 O0 2.236450 1_545
Li1 O5 2.085586 1_555
Li1 O7 2.086112 1_565
Li1 O29 2.122117 1_455
Li1 O25 2.131554 1_465
Li1 O12 2.224229 1_565
Li1 O28 2.234433 1_455
Li2 O23 2.098284 1_555
Li2 O9 2.100734 1_655
Li2 O32 2.102716 1_555
Li2 O31 2.122200 1_555
Li2 O10 2.129300 1_655
Li2 O16 2.131878 1_655
Li3 O11 2.095983 1_555
Li3 O27 2.112757 1_556
Li3 O13 2.116009 1_556
Li3 O0 2.117449 1_555
Li3 O17 2.119045 1_555
Li3 O1 2.125326 1_555
Li4 O13 2.061221 1_555
Li4 O18 2.078154 1_555
Li4 O34 2.129938 1_455
Li4 O31 2.140550 1_455
Li4 O22 2.226488 1_454
Li4 O16 2.240414 1_555
Li5 O15 2.064680 1_555
Li5 O19 2.083242 1_555
Li5 O1 2.128288 1_555
Li5 O4 2.173847 1_555
Li5 O3 2.194802 1_555
Li5 O17 2.230266 1_555
Li6 O14 2.020722 1_555
Li6 O34 2.041063 1_455
Li6 O20 2.168205 1_555
Li6 O2 2.189935 1_555
Li6 O16 2.206408 1_555
Li6 O32 2.232473 1_455
Li7 O31 2.040262 1_556
Li7 O4 2.041569 1_555
Li7 O17 2.163864 1_555
Li7 O13 2.171860 1_556
Li7 O22 2.175820 1_555
Li7 O18 2.177749 1_556
Li8 O3 2.083149 1_555
Li8 O33 2.086526 1_455
Li8 O14 2.126547 1_555
Li8 O15 2.188026 1_555
Li8 O2 2.193515 1_555
Li8 O21 2.196311 1_555
Li9 O30 2.101678 1_555
Li9 O7 2.102250 1_555
Li9 O2 2.102342 1_555
Li9 O20 2.116987 1_555
Li9 O21 2.119517 1_555
Li9 O6 2.138259 1_555
Li10 O10 2.038521 1_555
Li10 O25 2.047624 1_565
Li10 O30 2.134422 1_565
Li10 O28 2.152987 1_555
Li10 O5 2.241993 1_555
Li10 O7 2.262993 1_565
Li11 O9 2.071531 1_555
Li11 O35 2.081831 1_465
Li11 O27 2.139923 1_555
Li11 O0 2.164752 1_554
Li11 O8 2.188533 1_564
Li11 O24 2.211312 1_565
Li12 O12 2.077820 1_565
Li12 O11 2.084192 1_555
Li12 O25 2.133416 1_565
Li12 O29 2.150663 1_555
Li12 O5 2.163277 1_555
Li12 O26 2.268919 1_565
Li13 O23 2.073907 1_555
Li13 O24 2.086273 1_565
Li13 O10 2.109297 1_555
Li13 O6 2.159969 1_565
Li13 O30 2.213362 1_565
Li13 O9 2.237779 1_555
Li14 O26 2.071469 1_555
Li14 O0 2.078531 1_645
Li14 O8 2.139051 1_555
Li14 O35 2.148097 1_556
Li14 O27 2.160942 1_546
Li14 O11 2.240291 1_545
Li15 O33 2.102124 1_555
Li15 O15 2.110618 1_555
Li15 O28 2.112759 1_555
Li15 O5 2.123879 1_555
Li15 O14 2.126024 1_555
Li15 O29 2.132495 1_555
Li16 O32 2.093488 1_555
Li16 O2 2.108042 1_655
Li16 O21 2.121853 1_555
Li16 O14 2.139881 1_555
Li16 O20 2.181114 1_555
Li16 O33 2.234323 1_555
Li17 O21 2.036088 1_555
Li17 O1 2.052599 1_655
Li17 O33 2.133798 1_555
Li17 O3 2.163902 1_655
Li17 O15 2.229511 1_555
Li17 O19 2.237615 1_555
Li18 O20 2.074780 1_555
Li18 O16 2.089019 1_555
Li18 O34 2.136637 1_555
Li18 O32 2.151921 1_555
Li18 O31 2.181587 1_555
Li18 O18 2.260785 1_555
Li19 O22 2.059756 1_555
Li19 O17 2.076954 1_555
Li19 O4 2.133858 1_655
Li19 O1 2.162428 1_655
Li19 O19 2.180107 1_555
Li19 O13 2.252240 1_656
Li20 O22 2.098570 1_554
Li20 O18 2.110084 1_555
Li20 O35 2.110193 1_555
Li20 O24 2.116453 1_555
Li20 O8 2.118792 1_554
Li20 O34 2.136268 1_555
Li21 O6 2.034301 1_665
Li21 O27 2.034577 1_555
Li21 O23 2.139008 1_555
Li21 O24 2.166358 1_565
Li21 O9 2.194233 1_655
Li21 O35 2.227602 1_565
Li22 O3 2.091096 1_555
Li22 O26 2.108014 1_455
Li22 O25 2.115772 1_455
Li22 O12 2.120288 1_555
Li22 O4 2.121973 1_555
Li22 O19 2.123871 1_455
Li23 O28 2.065568 1_545
Li23 O30 2.085068 1_555
Li23 O6 2.139915 1_655
Li23 O7 2.181408 1_655
Li23 O10 2.197876 1_645
Li23 O23 2.243453 1_545
Cr0 O26 1.884587 1_455
Cr0 O4 1.897737 1_555
Cr0 O18 1.969569 1_556
Cr0 O35 1.976618 1_456
Cr0 O22 1.990723 1_455
Cr0 O8 1.996222 1_555
Cr1 O5 1.930496 1_555
Cr1 O11 1.934718 1_555
Cr1 O15 1.950182 1_555
Cr1 O1 1.960029 1_555
Cr1 O33 1.961326 1_455
Cr1 O29 1.987577 1_455
Cr2 O22 1.888695 1_555
Cr2 O8 1.903992 1_555
Cr2 O19 1.957237 1_555
Cr2 O12 1.975749 1_555
Cr2 O26 1.985558 1_555
Cr2 O4 2.003793 1_555
Cr3 O27 1.892296 1_555
Cr3 O13 1.896366 1_555
Cr3 O23 1.945016 1_555
Cr3 O16 1.992836 1_555
Cr3 O31 1.993490 1_555
Cr3 O9 1.995067 1_555
Cr4 O16 1.895438 1_555
Cr4 O10 1.930086 1_555
Cr4 O32 1.961613 1_555
Cr4 O28 1.965372 1_555
Cr4 O23 1.969405 1_555
Cr4 O14 2.001189 1_555
Cr5 O7 1.932734 1_655
Cr5 O30 1.944360 1_555
Cr5 O21 1.944388 1_555
Cr5 O2 1.947741 1_655
Cr5 O3 1.960355 1_655
Cr5 O25 1.981645 1_555
Cr6 O9 1.882879 1_655
Cr6 O31 1.908897 1_555
Cr6 O0 1.949238 1_654
Cr6 O17 1.977755 1_554
Cr6 O13 1.981208 1_655
Cr6 O27 2.007639 1_555
O0 Ti3 1.973012 1_455
O1 Ti3 1.989554 1_455
O2 Ti4 1.965080 1_455
O3 Ti2 1.973422 1_555
O5 Ti0 1.992000 1_555
O6 Ti1 1.989747 1_555
O6 Ti4 1.993404 1_455
O7 Ti2 1.987853 1_555
O10 Ti0 2.020495 1_555
O11 Ti3 1.985182 1_555
O12 Ti2 1.944811 1_555
O14 Ti0 1.964223 1_555
O15 Ti3 1.970198 1_555
O17 Ti3 1.964585 1_555
O18 Ti1 1.957129 1_555
O19 Ti2 1.965176 1_555
O20 Ti4 1.961127 1_555
O20 Ti1 1.992895 1_555
O21 Ti2 2.006159 1_555
O24 Ti1 1.962226 1_555
O24 Ti4 1.982759 1_555
O25 Ti2 1.982304 1_555
O28 Ti0 1.978201 1_655
O29 Ti3 1.977828 1_555
O30 Ti4 1.973434 1_555
O32 Ti0 1.960842 1_655
O33 Ti0 1.946543 1_655
O34 Ti4 1.978948 1_555
O34 Ti1 2.002046 1_655
O35 Ti1 1.952266 1_655
