# generated using pymatgen
data_NaH2SO4
_symmetry_space_group_name_H-M   'P 1'
_cell_length_a   6.89299500
_cell_length_b   10.90863000
_cell_length_c   11.02785100
_cell_angle_alpha   90.00000000
_cell_angle_beta   90.00000000
_cell_angle_gamma   90.00000000
_symmetry_Int_Tables_number   1
_chemical_formula_structural   NaH2SO4
_chemical_formula_sum   'Na8 H16 S8 O32'
_cell_volume   829.21865644
_cell_formula_units_Z   8
loop_
 _symmetry_equiv_pos_site_id
 _symmetry_equiv_pos_as_xyz
  1  'x, y, z'
loop_
 _atom_site_type_symbol
 _atom_site_label
 _atom_site_symmetry_multiplicity
 _atom_site_fract_x
 _atom_site_fract_y
 _atom_site_fract_z
 _atom_site_occupancy
  Na  Na0  1  0.53330200  0.66634600  0.44407900  1
  Na  Na1  1  0.03330200  0.83365400  0.05592100  1
  Na  Na2  1  0.46669800  0.33365400  0.94407900  1
  Na  Na3  1  0.96669800  0.16634600  0.55592100  1
  Na  Na4  1  0.46669800  0.33365400  0.55592100  1
  Na  Na5  1  0.96669800  0.16634600  0.94407900  1
  Na  Na6  1  0.53330200  0.66634600  0.05592100  1
  Na  Na7  1  0.03330200  0.83365400  0.44407900  1
  H  H0  1  0.34208200  0.11351100  0.44754600  1
  H  H1  1  0.84208200  0.38648900  0.05245400  1
  H  H2  1  0.65791800  0.88648900  0.94754600  1
  H  H3  1  0.15791800  0.61351100  0.55245400  1
  H  H4  1  0.65791800  0.88648900  0.55245400  1
  H  H5  1  0.15791800  0.61351100  0.94754600  1
  H  H6  1  0.34208200  0.11351100  0.05245400  1
  H  H7  1  0.84208200  0.38648900  0.44754600  1
  H  H8  1  0.26092100  0.22554300  0.37192100  1
  H  H9  1  0.76092100  0.27445700  0.12807900  1
  H  H10  1  0.73907900  0.77445700  0.87192100  1
  H  H11  1  0.23907900  0.72554300  0.62807900  1
  H  H12  1  0.73907900  0.77445700  0.62807900  1
  H  H13  1  0.23907900  0.72554300  0.87192100  1
  H  H14  1  0.26092100  0.22554300  0.12807900  1
  H  H15  1  0.76092100  0.27445700  0.37192100  1
  S  S0  1  0.82827000  0.04790400  0.25000000  1
  S  S1  1  0.32827000  0.45209600  0.25000000  1
  S  S2  1  0.17173000  0.95209600  0.75000000  1
  S  S3  1  0.67173000  0.54790400  0.75000000  1
  S  S4  1  0.45423000  0.89588000  0.25000000  1
  S  S5  1  0.95423000  0.60412000  0.25000000  1
  S  S6  1  0.54577000  0.10412000  0.75000000  1
  S  S7  1  0.04577000  0.39588000  0.75000000  1
  O  O0  1  0.93963100  0.01916300  0.13830800  1
  O  O1  1  0.43963100  0.48083700  0.36169200  1
  O  O2  1  0.06036900  0.98083700  0.63830800  1
  O  O3  1  0.56036900  0.51916300  0.86169200  1
  O  O4  1  0.06036900  0.98083700  0.86169200  1
  O  O5  1  0.56036900  0.51916300  0.63830800  1
  O  O6  1  0.93963100  0.01916300  0.36169200  1
  O  O7  1  0.43963100  0.48083700  0.13830800  1
  O  O8  1  0.74904800  0.17454000  0.25000000  1
  O  O9  1  0.24904800  0.32546000  0.25000000  1
  O  O10  1  0.25095200  0.82546000  0.75000000  1
  O  O11  1  0.75095200  0.67454000  0.75000000  1
  O  O12  1  0.48423800  0.03142100  0.85889600  1
  O  O13  1  0.98423800  0.46857900  0.64110400  1
  O  O14  1  0.51576200  0.96857900  0.35889600  1
  O  O15  1  0.01576200  0.53142100  0.14110400  1
  O  O16  1  0.51576200  0.96857900  0.14110400  1
  O  O17  1  0.01576200  0.53142100  0.35889600  1
  O  O18  1  0.48423800  0.03142100  0.64110400  1
  O  O19  1  0.98423800  0.46857900  0.85889600  1
  O  O20  1  0.55309800  0.77245900  0.25000000  1
  O  O21  1  0.05309800  0.72754100  0.25000000  1
  O  O22  1  0.44690200  0.22754100  0.75000000  1
  O  O23  1  0.94690200  0.27245900  0.75000000  1
  O  O24  1  0.77101900  0.30909800  0.04494100  1
  O  O25  1  0.27101900  0.19090200  0.45505900  1
  O  O26  1  0.22898100  0.69090200  0.54494100  1
  O  O27  1  0.72898100  0.80909800  0.95505900  1
  O  O28  1  0.22898100  0.69090200  0.95505900  1
  O  O29  1  0.72898100  0.80909800  0.54494100  1
  O  O30  1  0.77101900  0.30909800  0.45505900  1
  O  O31  1  0.27101900  0.19090200  0.04494100  1
loop_
_geom_bond_atom_site_label_1
_geom_bond_atom_site_label_2
_geom_bond_distance
_geom_bond_site_symmetry_2
Na0 O1 2.310306 1_555
Na0 O29 2.341250 1_555
Na0 O26 2.389398 1_555
Na0 O20 2.437070 1_555
Na0 O5 2.683376 1_555
Na1 O0 2.310306 1_465
Na1 O28 2.341250 1_554
Na1 O27 2.389398 1_454
Na1 O21 2.437070 1_555
Na1 O4 2.683376 1_554
Na2 O3 2.310306 1_555
Na2 O31 2.341250 1_556
Na2 O24 2.389398 1_556
Na2 O22 2.437070 1_555
Na2 O7 2.683376 1_556
Na3 O2 2.310306 1_645
Na3 O30 2.341250 1_555
Na3 O25 2.389398 1_655
Na3 O23 2.437070 1_555
Na3 O6 2.683376 1_555
Na4 O5 2.310306 1_555
Na4 O25 2.341250 1_555
Na4 O30 2.389398 1_555
Na4 O22 2.437070 1_555
Na4 O1 2.683376 1_555
Na5 O4 2.310306 1_645
Na5 O24 2.341250 1_556
Na5 O31 2.389398 1_656
Na5 O23 2.437070 1_555
Na5 O0 2.683376 1_556
Na6 O7 2.310306 1_555
Na6 O27 2.341250 1_554
Na6 O28 2.389398 1_554
Na6 O20 2.437070 1_555
Na6 O3 2.683376 1_554
Na7 O6 2.310306 1_465
Na7 O26 2.341250 1_555
Na7 O29 2.389398 1_455
Na7 O21 2.437070 1_555
Na7 O2 2.683376 1_555
H0 O25 0.979555 1_555
H1 O24 0.979555 1_555
H2 O27 0.979555 1_555
H3 O26 0.979555 1_555
H4 O29 0.979555 1_555
H5 O28 0.979555 1_555
H6 O31 0.979555 1_555
H7 O30 0.979555 1_555
H8 O25 0.994096 1_555
H9 O24 0.994096 1_555
H10 O27 0.994096 1_555
H11 O26 0.994096 1_555
H12 O29 0.994096 1_555
H13 O28 0.994096 1_555
H14 O31 0.994096 1_555
H15 O30 0.994096 1_555
O0 S0 1.484811 1_555
O1 S1 1.484811 1_555
O2 S2 1.484811 1_555
O3 S3 1.484811 1_555
O4 S2 1.484811 1_555
O5 S3 1.484811 1_555
O6 S0 1.484811 1_555
O7 S1 1.484811 1_555
O8 S0 1.485441 1_555
O9 S1 1.485441 1_555
O10 S2 1.485441 1_555
O11 S3 1.485441 1_555
O12 S6 1.500317 1_555
O13 S7 1.500317 1_655
O14 S4 1.500317 1_555
O15 S5 1.500317 1_455
O16 S4 1.500317 1_555
O17 S5 1.500317 1_455
O18 S6 1.500317 1_555
O19 S7 1.500317 1_655
O20 S4 1.509009 1_555
O21 S5 1.509009 1_455
O22 S6 1.509009 1_555
O23 S7 1.509009 1_655
