# generated using pymatgen
data_Ti3Fe2Co(PO4)6
_symmetry_space_group_name_H-M   'P 1'
_cell_length_a   8.53510598
_cell_length_b   8.53510598
_cell_length_c   8.53510648
_cell_angle_alpha   61.07186612
_cell_angle_beta   61.07186612
_cell_angle_gamma   61.07186630
_symmetry_Int_Tables_number   1
_chemical_formula_structural   Ti3Fe2Co(PO4)6
_chemical_formula_sum   'Ti3 Fe2 Co1 P6 O24'
_cell_volume   450.26445869
_cell_formula_units_Z   1
loop_
 _symmetry_equiv_pos_site_id
 _symmetry_equiv_pos_as_xyz
  1  'x, y, z'
loop_
 _atom_site_type_symbol
 _atom_site_label
 _atom_site_symmetry_multiplicity
 _atom_site_fract_x
 _atom_site_fract_y
 _atom_site_fract_z
 _atom_site_occupancy
  Ti  Ti0  1  0.64421000  0.64421000  0.64421000  1
  Ti  Ti1  1  0.85788800  0.85788800  0.85788800  1
  Ti  Ti2  1  0.35500100  0.35500100  0.35500100  1
  Fe  Fe0  1  0.00346800  0.00346800  0.00346800  1
  Fe  Fe1  1  0.50105400  0.50105400  0.50105400  1
  Co  Co0  1  0.14292600  0.14292600  0.14292600  1
  P  P0  1  0.54179600  0.95498500  0.24777400  1
  P  P1  1  0.24777400  0.54179600  0.95498500  1
  P  P2  1  0.95498500  0.24777400  0.54179600  1
  P  P3  1  0.04429600  0.74933400  0.45655600  1
  P  P4  1  0.74933400  0.45655600  0.04429600  1
  P  P5  1  0.45655600  0.04429600  0.74933400  1
  O  O0  1  0.31458600  0.49560400  0.11916300  1
  O  O1  1  0.11916300  0.31458600  0.49560400  1
  O  O2  1  0.49560400  0.11916300  0.31458600  1
  O  O3  1  0.74189300  0.94218000  0.09027500  1
  O  O4  1  0.39106600  0.98671800  0.18504200  1
  O  O5  1  0.56635400  0.75946600  0.41131800  1
  O  O6  1  0.09027500  0.74189300  0.94218000  1
  O  O7  1  0.41131800  0.56635400  0.75946600  1
  O  O8  1  0.99713400  0.81543600  0.62000100  1
  O  O9  1  0.75946600  0.41131800  0.56635400  1
  O  O10  1  0.05271900  0.90340600  0.26406200  1
  O  O11  1  0.81543600  0.62000100  0.99713400  1
  O  O12  1  0.18504200  0.39106600  0.98671800  1
  O  O13  1  0.94218000  0.09027500  0.74189300  1
  O  O14  1  0.23875600  0.58660800  0.44724700  1
  O  O15  1  0.98671800  0.18504200  0.39106600  1
  O  O16  1  0.58660800  0.44724700  0.23875600  1
  O  O17  1  0.90340600  0.26406200  0.05271900  1
  O  O18  1  0.44724700  0.23875600  0.58660800  1
  O  O19  1  0.62000100  0.99713400  0.81543600  1
  O  O20  1  0.26406200  0.05271900  0.90340600  1
  O  O21  1  0.51217200  0.88531900  0.67418600  1
  O  O22  1  0.88531900  0.67418600  0.51217200  1
  O  O23  1  0.67418600  0.51217200  0.88531900  1
loop_
_geom_bond_atom_site_label_1
_geom_bond_atom_site_label_2
_geom_bond_distance
_geom_bond_site_symmetry_2
Fe0 O20 2.138380 1_554
Fe0 O17 2.138380 1_455
Fe0 O10 2.138380 1_545
Fe0 O3 2.227459 1_445
Fe0 O6 2.227459 1_544
Fe0 O13 2.227459 1_454
Fe1 O18 2.201091 1_555
Fe1 O14 2.201091 1_555
Fe1 O16 2.201091 1_555
Fe1 O5 2.214456 1_555
Fe1 O9 2.214456 1_555
Fe1 O7 2.214456 1_555
Co0 O12 1.983289 1_554
Co0 O4 1.983289 1_545
Co0 O15 1.983289 1_455
Co0 O10 2.132802 1_545
Co0 O17 2.132802 1_455
Co0 O20 2.132802 1_554
O0 P1 1.570121 1_554
O0 Ti2 1.882883 1_555
O1 P2 1.570120 1_455
O1 Ti2 1.882883 1_555
O2 P0 1.570121 1_545
O2 Ti2 1.882883 1_555
O3 P0 1.573624 1_555
O3 Ti1 2.055125 1_554
O4 P0 1.484624 1_555
O5 P0 1.571096 1_555
O5 Ti0 2.028353 1_555
O6 P1 1.573624 1_555
O6 Ti1 2.055125 1_455
O7 P1 1.571096 1_555
O7 Ti0 2.028353 1_555
O8 P3 1.557203 1_655
O8 Ti1 1.904442 1_555
O9 P2 1.571096 1_555
O9 Ti0 2.028353 1_555
O10 P3 1.523419 1_555
O11 P4 1.557203 1_556
O11 Ti1 1.904442 1_555
O12 P1 1.484624 1_555
O13 P2 1.573624 1_555
O13 Ti1 2.055125 1_545
O14 P3 1.561771 1_555
O14 Ti2 2.089148 1_555
O15 P2 1.484624 1_555
O16 P4 1.561771 1_555
O16 Ti2 2.089148 1_555
O17 P4 1.523419 1_555
O18 P5 1.561771 1_555
O18 Ti2 2.089148 1_555
O19 P5 1.557203 1_565
O19 Ti1 1.904442 1_555
O20 P5 1.523419 1_555
O21 P5 1.549886 1_565
O21 Ti0 1.886059 1_555
O22 P3 1.549886 1_655
O22 Ti0 1.886059 1_555
O23 P4 1.549886 1_556
O23 Ti0 1.886059 1_555
