# generated using pymatgen
data_Li4NbFe5O12
_symmetry_space_group_name_H-M   'P 1'
_cell_length_a   5.27761517
_cell_length_b   5.27761517
_cell_length_c   10.49404115
_cell_angle_alpha   87.07919341
_cell_angle_beta   87.07919341
_cell_angle_gamma   120.09691829
_symmetry_Int_Tables_number   1
_chemical_formula_structural   Li4NbFe5O12
_chemical_formula_sum   'Li4 Nb1 Fe5 O12'
_cell_volume   251.56493776
_cell_formula_units_Z   1
loop_
 _symmetry_equiv_pos_site_id
 _symmetry_equiv_pos_as_xyz
  1  'x, y, z'
loop_
 _atom_site_type_symbol
 _atom_site_label
 _atom_site_symmetry_multiplicity
 _atom_site_fract_x
 _atom_site_fract_y
 _atom_site_fract_z
 _atom_site_occupancy
  Li  Li0  1  0.87496800  0.53607100  0.28940200  1
  Li  Li1  1  0.46392900  0.12503200  0.71059800  1
  Li  Li2  1  0.53607100  0.87496800  0.28940200  1
  Li  Li3  1  0.12503200  0.46392900  0.71059800  1
  Nb  Nb0  1  0.00000000  0.00000000  0.00000000  1
  Fe  Fe0  1  0.83682200  0.16317800  0.50000000  1
  Fe  Fe1  1  0.66529600  0.33470400  0.00000000  1
  Fe  Fe2  1  0.50000000  0.50000000  0.50000000  1
  Fe  Fe3  1  0.33470400  0.66529600  0.00000000  1
  Fe  Fe4  1  0.16317800  0.83682200  0.50000000  1
  O  O0  1  0.01803400  0.34974100  0.89851100  1
  O  O1  1  0.65025900  0.98196600  0.10148900  1
  O  O2  1  0.81265700  0.46468900  0.60712600  1
  O  O3  1  0.53531100  0.18734300  0.39287400  1
  O  O4  1  0.83933900  0.83933900  0.39572900  1
  O  O5  1  0.68964700  0.68964700  0.90363700  1
  O  O6  1  0.31035300  0.31035300  0.09636300  1
  O  O7  1  0.16066100  0.16066100  0.60427100  1
  O  O8  1  0.46468900  0.81265700  0.60712600  1
  O  O9  1  0.18734300  0.53531100  0.39287400  1
  O  O10  1  0.34974100  0.01803400  0.89851100  1
  O  O11  1  0.98196600  0.65025900  0.10148900  1
loop_
_geom_bond_atom_site_label_1
_geom_bond_atom_site_label_2
_geom_bond_distance
_geom_bond_site_symmetry_2
Li0 O11 1.998702 1_555
Li0 O3 2.017128 1_555
Li0 O9 2.021274 1_655
Li0 O4 2.074735 1_555
Li1 O10 1.998702 1_555
Li1 O2 2.017128 1_555
Li1 O8 2.021274 1_545
Li1 O7 2.074735 1_555
Li2 O1 1.998702 1_555
Li2 O9 2.017128 1_555
Li2 O3 2.021274 1_565
Li2 O4 2.074735 1_555
Li3 O0 1.998702 1_555
Li3 O8 2.017128 1_555
Li3 O2 2.021274 1_455
Li3 O7 2.074735 1_555
Nb0 O5 2.008765 1_444
Nb0 O6 2.008765 1_555
Nb0 O1 2.040455 1_445
Nb0 O11 2.040455 1_445
Nb0 O0 2.040455 1_554
Nb0 O10 2.040455 1_554
Fe0 O3 2.045334 1_555
Fe0 O2 2.045334 1_555
Fe0 O4 2.080960 1_545
Fe0 O7 2.080960 1_655
Fe0 O8 2.112440 1_545
Fe0 O9 2.112440 1_655
Fe1 O5 2.024957 1_554
Fe1 O6 2.024957 1_555
Fe1 O1 2.060912 1_545
Fe1 O0 2.060912 1_654
Fe1 O11 2.066787 1_555
Fe1 O10 2.066787 1_554
Fe2 O4 1.998960 1_555
Fe2 O7 1.998960 1_555
Fe2 O9 2.120707 1_555
Fe2 O3 2.120707 1_555
Fe2 O2 2.120707 1_555
Fe2 O8 2.120707 1_555
Fe3 O6 2.024957 1_555
Fe3 O5 2.024957 1_554
Fe3 O11 2.060912 1_455
Fe3 O10 2.060912 1_564
Fe3 O1 2.066787 1_555
Fe3 O0 2.066787 1_554
Fe4 O9 2.045334 1_555
Fe4 O8 2.045334 1_555
Fe4 O7 2.080960 1_565
Fe4 O4 2.080960 1_455
Fe4 O2 2.112440 1_455
Fe4 O3 2.112440 1_565
