# generated using pymatgen
data_Li4Co3Cu3(WO8)2
_symmetry_space_group_name_H-M   'P 1'
_cell_length_a   5.90276177
_cell_length_b   5.90276177
_cell_length_c   9.59259716
_cell_angle_alpha   86.32187908
_cell_angle_beta   86.32187908
_cell_angle_gamma   58.51497972
_symmetry_Int_Tables_number   1
_chemical_formula_structural   Li4Co3Cu3(WO8)2
_chemical_formula_sum   'Li4 Co3 Cu3 W2 O16'
_cell_volume   284.25282544
_cell_formula_units_Z   1
loop_
 _symmetry_equiv_pos_site_id
 _symmetry_equiv_pos_as_xyz
  1  'x, y, z'
loop_
 _atom_site_type_symbol
 _atom_site_label
 _atom_site_symmetry_multiplicity
 _atom_site_fract_x
 _atom_site_fract_y
 _atom_site_fract_z
 _atom_site_occupancy
  Li  Li0  1  0.67131500  0.67131500  0.90476500  1
  Li  Li1  1  0.99549800  0.99549800  0.99014600  1
  Li  Li2  1  0.99403600  0.99403600  0.48848900  1
  Li  Li3  1  0.34406100  0.34406100  0.40956100  1
  Co  Co0  1  0.82976400  0.82976400  0.21650100  1
  Co  Co1  1  0.65965100  0.16709400  0.71320800  1
  Co  Co2  1  0.16709400  0.65965100  0.71320800  1
  Cu  Cu0  1  0.82442500  0.33831400  0.21372900  1
  Cu  Cu1  1  0.33831400  0.82442500  0.21372900  1
  Cu  Cu2  1  0.16692800  0.16692800  0.71450900  1
  W  W0  1  0.67701400  0.67701400  0.49244300  1
  W  W1  1  0.33071000  0.33071000  0.98519500  1
  O  O0  1  0.82546500  0.33470900  0.58674500  1
  O  O1  1  0.52967500  0.52967500  0.35708900  1
  O  O2  1  0.67456900  0.67456900  0.12339700  1
  O  O3  1  0.99179700  0.99179700  0.29496200  1
  O  O4  1  0.99183300  0.99183300  0.80116400  1
  O  O5  1  0.33470900  0.82546500  0.58674500  1
  O  O6  1  0.97570900  0.54863100  0.35631100  1
  O  O7  1  0.54863100  0.97570900  0.35631100  1
  O  O8  1  0.16062400  0.16062400  0.07530700  1
  O  O9  1  0.82910300  0.82910300  0.60824600  1
  O  O10  1  0.49528800  0.03837800  0.84374900  1
  O  O11  1  0.03837800  0.49528800  0.84374900  1
  O  O12  1  0.33839500  0.33839500  0.61759900  1
  O  O13  1  0.64617600  0.14996400  0.08501100  1
  O  O14  1  0.47858900  0.47858900  0.82970700  1
  O  O15  1  0.14996400  0.64617600  0.08501100  1
loop_
_geom_bond_atom_site_label_1
_geom_bond_atom_site_label_2
_geom_bond_distance
_geom_bond_site_symmetry_2
Li0 O11 1.918452 1_655
Li0 O10 1.918452 1_565
Li0 O2 2.099979 1_556
Li0 O14 2.160729 1_555
Li1 O4 1.815994 1_555
Li1 O8 1.940132 1_666
Li1 O13 1.952700 1_566
Li1 O15 1.952700 1_656
Li2 O3 1.858265 1_555
Li2 O9 1.979493 1_555
Li2 O0 1.988718 1_565
Li2 O5 1.988718 1_655
Li3 O1 1.940766 1_555
Li3 O7 1.940997 1_545
Li3 O6 1.940997 1_455
Li3 O12 1.992184 1_555
Co0 O3 1.880504 1_555
Co0 O2 1.887479 1_555
Co0 O7 1.914164 1_555
Co0 O6 1.914164 1_555
Co0 O13 2.016850 1_565
Co0 O15 2.016850 1_655
Co1 O12 1.887009 1_555
Co1 O10 1.891732 1_555
Co1 O4 1.899534 1_545
Co1 O14 1.956936 1_555
Co1 O9 2.009637 1_545
Co1 O0 2.028223 1_555
Co2 O12 1.887009 1_555
Co2 O11 1.891732 1_555
Co2 O4 1.899534 1_455
Co2 O14 1.956936 1_555
Co2 O9 2.009637 1_455
Co2 O5 2.028223 1_555
Cu0 O2 1.875264 1_555
Cu0 O3 1.884259 1_545
Cu0 O1 2.008387 1_555
Cu0 O8 2.113737 1_655
Cu0 O13 2.330750 1_555
Cu0 O6 2.396223 1_555
Cu1 O2 1.875264 1_555
Cu1 O3 1.884259 1_455
Cu1 O1 2.008387 1_555
Cu1 O8 2.113737 1_565
Cu1 O15 2.330750 1_555
Cu1 O7 2.396223 1_555
Cu2 O4 1.929441 1_445
Cu2 O12 1.934323 1_555
Cu2 O11 2.126227 1_555
Cu2 O10 2.126227 1_555
Cu2 O0 2.149780 1_455
Cu2 O5 2.149780 1_545
O0 W0 1.920032 1_555
O1 W0 2.068446 1_555
O5 W0 1.920032 1_555
O6 W0 1.955526 1_555
O7 W0 1.955526 1_555
O8 W1 1.895607 1_554
O9 W0 1.985860 1_555
O10 W1 2.035336 1_555
O11 W1 2.035336 1_555
O13 W1 1.882830 1_554
O14 W1 2.051918 1_555
O15 W1 1.882830 1_554
