# generated using pymatgen
data_Mn2V3Fe(PO4)6
_symmetry_space_group_name_H-M   'P 1'
_cell_length_a   8.63311397
_cell_length_b   8.63311397
_cell_length_c   8.63311375
_cell_angle_alpha   60.03951551
_cell_angle_beta   60.03951551
_cell_angle_gamma   60.03951694
_symmetry_Int_Tables_number   1
_chemical_formula_structural   Mn2V3Fe(PO4)6
_chemical_formula_sum   'Mn2 V3 Fe1 P6 O24'
_cell_volume   455.38239674
_cell_formula_units_Z   1
loop_
 _symmetry_equiv_pos_site_id
 _symmetry_equiv_pos_as_xyz
  1  'x, y, z'
loop_
 _atom_site_type_symbol
 _atom_site_label
 _atom_site_symmetry_multiplicity
 _atom_site_fract_x
 _atom_site_fract_y
 _atom_site_fract_z
 _atom_site_occupancy
  Mn  Mn0  1  0.99878100  0.99878100  0.99878100  1
  Mn  Mn1  1  0.49968500  0.49968500  0.49968500  1
  V  V0  1  0.35559700  0.35559700  0.35559700  1
  V  V1  1  0.14351000  0.14351000  0.14351000  1
  V  V2  1  0.64417000  0.64417000  0.64417000  1
  Fe  Fe0  1  0.85469100  0.85469100  0.85469100  1
  P  P0  1  0.45720900  0.75037800  0.04238100  1
  P  P1  1  0.75037800  0.04238100  0.45720900  1
  P  P2  1  0.04238100  0.45720900  0.75037800  1
  P  P3  1  0.95900300  0.54132100  0.25064800  1
  P  P4  1  0.25064800  0.95900300  0.54132100  1
  P  P5  1  0.54132100  0.25064800  0.95900300  1
  O  O0  1  0.69291800  0.88094500  0.49448400  1
  O  O1  1  0.88094500  0.49448400  0.69291800  1
  O  O2  1  0.49448400  0.69291800  0.88094500  1
  O  O3  1  0.26245000  0.91401200  0.05984200  1
  O  O4  1  0.61560500  0.80636900  0.00983700  1
  O  O5  1  0.43748800  0.58416500  0.23635600  1
  O  O6  1  0.91401200  0.05984200  0.26245000  1
  O  O7  1  0.58416500  0.23635600  0.43748800  1
  O  O8  1  0.99578200  0.38059100  0.19376700  1
  O  O9  1  0.23635600  0.43748800  0.58416500  1
  O  O10  1  0.94561100  0.73446400  0.08818500  1
  O  O11  1  0.19376700  0.99578200  0.38059100  1
  O  O12  1  0.80636900  0.00983700  0.61560500  1
  O  O13  1  0.05984200  0.26245000  0.91401200  1
  O  O14  1  0.76472900  0.55746300  0.41609100  1
  O  O15  1  0.00983700  0.61560500  0.80636900  1
  O  O16  1  0.41609100  0.76472900  0.55746300  1
  O  O17  1  0.08818500  0.94561100  0.73446400  1
  O  O18  1  0.55746300  0.41609100  0.76472900  1
  O  O19  1  0.38059100  0.19376700  0.99578200  1
  O  O20  1  0.73446400  0.08818500  0.94561100  1
  O  O21  1  0.49899000  0.31396600  0.11854100  1
  O  O22  1  0.11854100  0.49899000  0.31396600  1
  O  O23  1  0.31396600  0.11854100  0.49899000  1
loop_
_geom_bond_atom_site_label_1
_geom_bond_atom_site_label_2
_geom_bond_distance
_geom_bond_site_symmetry_2
Mn0 O17 2.224093 1_655
Mn0 O10 2.224093 1_556
Mn0 O20 2.224093 1_565
Mn0 O6 2.268096 1_566
Mn0 O13 2.268096 1_665
Mn0 O3 2.268096 1_656
Mn1 O18 2.266357 1_555
Mn1 O14 2.266357 1_555
Mn1 O16 2.266357 1_555
Mn1 O5 2.271651 1_555
Mn1 O9 2.271651 1_555
Mn1 O7 2.271651 1_555
Fe0 O12 1.941391 1_565
Fe0 O4 1.941391 1_556
Fe0 O15 1.941391 1_655
Fe0 O10 2.105624 1_556
Fe0 O17 2.105624 1_655
Fe0 O20 2.105624 1_565
O0 P1 1.541152 1_565
O0 V2 1.924341 1_555
O1 P2 1.541152 1_655
O1 V2 1.924341 1_555
O2 P0 1.541152 1_556
O2 V2 1.924341 1_555
O3 P0 1.559660 1_555
O3 V1 2.039163 1_565
O4 P0 1.524249 1_555
O5 P0 1.565726 1_555
O5 V0 2.022582 1_555
O6 P1 1.559660 1_555
O6 V1 2.039163 1_655
O7 P1 1.565726 1_555
O7 V0 2.022582 1_555
O8 P3 1.533681 1_555
O8 V1 1.931587 1_655
O9 P2 1.565726 1_555
O9 V0 2.022582 1_555
O10 P3 1.547383 1_555
O11 P4 1.533681 1_555
O11 V1 1.931587 1_565
O12 P1 1.524249 1_555
O13 P2 1.559660 1_555
O13 V1 2.039163 1_556
O14 P3 1.563681 1_555
O14 V2 2.041509 1_555
O15 P2 1.524249 1_555
O16 P4 1.563682 1_555
O16 V2 2.041509 1_555
O17 P4 1.547383 1_555
O18 P5 1.563681 1_555
O18 V2 2.041509 1_555
O19 P5 1.533681 1_555
O19 V1 1.931587 1_556
O20 P5 1.547383 1_555
O21 P5 1.542420 1_554
O21 V0 1.899938 1_555
O22 P3 1.542420 1_455
O22 V0 1.899939 1_555
O23 P4 1.542420 1_545
O23 V0 1.899938 1_555
