# generated using pymatgen
data_Li2MnCuO4
_symmetry_space_group_name_H-M   'P 1'
_cell_length_a   5.62302728
_cell_length_b   5.62299658
_cell_length_c   6.26352796
_cell_angle_alpha   63.84616665
_cell_angle_beta   63.84431136
_cell_angle_gamma   90.02318763
_symmetry_Int_Tables_number   1
_chemical_formula_structural   Li2MnCuO4
_chemical_formula_sum   'Li4 Mn2 Cu2 O8'
_cell_volume   154.83254097
_cell_formula_units_Z   2
loop_
 _symmetry_equiv_pos_site_id
 _symmetry_equiv_pos_as_xyz
  1  'x, y, z'
loop_
 _atom_site_type_symbol
 _atom_site_label
 _atom_site_symmetry_multiplicity
 _atom_site_fract_x
 _atom_site_fract_y
 _atom_site_fract_z
 _atom_site_occupancy
  Li  Li0  1  0.49999500  0.00000800  0.00000800  1
  Li  Li1  1  0.49999300  0.00000500  0.50000200  1
  Li  Li2  1  0.99999100  0.00000000  0.50000900  1
  Li  Li3  1  0.49999900  0.50000500  0.00000400  1
  Mn  Mn0  1  0.00002700  0.49999000  0.99999900  1
  Mn  Mn1  1  0.00002800  0.50002000  0.49992800  1
  Cu  Cu0  1  0.49998700  0.50000200  0.50000500  1
  Cu  Cu1  1  0.99999200  0.99999600  0.00000400  1
  O  O0  1  0.78126700  0.25073400  0.97820900  1
  O  O1  1  0.24925300  0.71874800  0.52179600  1
  O  O2  1  0.75072400  0.28123200  0.47821100  1
  O  O3  1  0.21875500  0.74927300  0.02180600  1
  O  O4  1  0.19812200  0.21370400  0.05520000  1
  O  O5  1  0.28628100  0.30186700  0.44480500  1
  O  O6  1  0.71370900  0.69812400  0.55519800  1
  O  O7  1  0.80187800  0.78629100  0.94481700  1
loop_
_geom_bond_atom_site_label_1
_geom_bond_atom_site_label_2
_geom_bond_distance
_geom_bond_site_symmetry_2
Li0 O3 2.036036 1_545
Li0 O0 2.036133 1_554
Li0 O4 2.072484 1_555
Li0 O7 2.072603 1_544
Li0 O1 2.559206 1_545
Li0 O2 2.559239 1_554
Li1 O2 2.035991 1_555
Li1 O1 2.036139 1_545
Li1 O5 2.072510 1_555
Li1 O6 2.072604 1_545
Li1 O0 2.559229 1_554
Li1 O3 2.559271 1_546
Li2 O2 2.112845 1_555
Li2 O1 2.112905 1_645
Li2 O5 2.140531 1_655
Li2 O6 2.140586 1_545
Li2 O7 2.181375 1_545
Li2 O4 2.181375 1_655
Li3 O3 2.112894 1_555
Li3 O0 2.113001 1_554
Li3 O7 2.140620 1_554
Li3 O4 2.140640 1_555
Li3 O5 2.181328 1_555
Li3 O6 2.181360 1_554
Mn0 O4 1.949881 1_556
Mn0 O7 1.950134 1_455
Mn0 O0 1.952279 1_455
Mn0 O3 1.952345 1_556
Mn0 O1 2.344869 1_555
Mn0 O2 2.344928 1_456
Mn1 O5 1.949911 1_555
Mn1 O6 1.950070 1_455
Mn1 O2 1.952283 1_455
Mn1 O1 1.952356 1_555
Mn1 O3 2.344490 1_555
Mn1 O0 2.345269 1_455
Cu0 O1 1.870580 1_555
Cu0 O2 1.870686 1_555
Cu0 O6 1.873376 1_555
Cu0 O5 1.873392 1_555
Cu1 O0 1.870521 1_564
Cu1 O3 1.870609 1_655
Cu1 O7 1.873248 1_554
Cu1 O4 1.873362 1_665
