# generated using pymatgen
data_LiMn3P3(HO6)2
_symmetry_space_group_name_H-M   'P 1'
_cell_length_a   8.73116577
_cell_length_b   8.73116577
_cell_length_c   6.68574599
_cell_angle_alpha   72.98927981
_cell_angle_beta   72.98927981
_cell_angle_gamma   92.44433844
_symmetry_Int_Tables_number   1
_chemical_formula_structural   LiMn3P3(HO6)2
_chemical_formula_sum   'Li2 Mn6 P6 H4 O24'
_cell_volume   461.44953210
_cell_formula_units_Z   2
loop_
 _symmetry_equiv_pos_site_id
 _symmetry_equiv_pos_as_xyz
  1  'x, y, z'
loop_
 _atom_site_type_symbol
 _atom_site_label
 _atom_site_symmetry_multiplicity
 _atom_site_fract_x
 _atom_site_fract_y
 _atom_site_fract_z
 _atom_site_occupancy
  Li  Li0  1  0.99531300  0.00468700  0.75000000  1
  Li  Li1  1  0.00468700  0.99531300  0.25000000  1
  Mn  Mn0  1  0.95495800  0.63331900  0.62024300  1
  Mn  Mn1  1  0.63331900  0.95495800  0.12024300  1
  Mn  Mn2  1  0.28980500  0.71019500  0.75000000  1
  Mn  Mn3  1  0.71019500  0.28980500  0.25000000  1
  Mn  Mn4  1  0.36668100  0.04504200  0.87975700  1
  Mn  Mn5  1  0.04504200  0.36668100  0.37975700  1
  P  P0  1  0.68435000  0.90223900  0.60364800  1
  P  P1  1  0.90223900  0.68435000  0.10364800  1
  P  P2  1  0.67644900  0.32355100  0.75000000  1
  P  P3  1  0.32355100  0.67644900  0.25000000  1
  P  P4  1  0.09776100  0.31565000  0.89635200  1
  P  P5  1  0.31565000  0.09776100  0.39635200  1
  H  H0  1  0.62660200  0.62751300  0.68728600  1
  H  H1  1  0.62751300  0.62660200  0.18728600  1
  H  H2  1  0.37248700  0.37339800  0.81271400  1
  H  H3  1  0.37339800  0.37248700  0.31271400  1
  O  O0  1  0.86158200  0.86884200  0.57438300  1
  O  O1  1  0.61597100  0.96516900  0.79852300  1
  O  O2  1  0.86884200  0.86158200  0.07438300  1
  O  O3  1  0.96516900  0.61597100  0.29852300  1
  O  O4  1  0.32151000  0.97685900  0.61481200  1
  O  O5  1  0.57142000  0.73820600  0.64686600  1
  O  O6  1  0.71187900  0.50336900  0.73677100  1
  O  O7  1  0.70915900  0.21684400  0.96043700  1
  O  O8  1  0.97685900  0.32151000  0.11481200  1
  O  O9  1  0.73820600  0.57142000  0.14686600  1
  O  O10  1  0.50336900  0.71187900  0.23677100  1
  O  O11  1  0.78315600  0.29084100  0.53956300  1
  O  O12  1  0.21684400  0.70915900  0.46043700  1
  O  O13  1  0.49663100  0.28812100  0.76322900  1
  O  O14  1  0.26179400  0.42858000  0.85313400  1
  O  O15  1  0.02314100  0.67849000  0.88518800  1
  O  O16  1  0.29084100  0.78315600  0.03956300  1
  O  O17  1  0.28812100  0.49663100  0.26322900  1
  O  O18  1  0.42858000  0.26179400  0.35313400  1
  O  O19  1  0.67849000  0.02314100  0.38518800  1
  O  O20  1  0.03483100  0.38402900  0.70147700  1
  O  O21  1  0.13115800  0.13841800  0.92561700  1
  O  O22  1  0.38402900  0.03483100  0.20147700  1
  O  O23  1  0.13841800  0.13115800  0.42561700  1
loop_
_geom_bond_atom_site_label_1
_geom_bond_atom_site_label_2
_geom_bond_distance
_geom_bond_site_symmetry_2
Li0 O23 2.092744 1_655
Li0 O2 2.092744 1_546
Li0 O0 2.376462 1_545
Li0 O21 2.376462 1_655
Li1 O21 2.092744 1_564
Li1 O0 2.092744 1_455
Li1 O2 2.376462 1_455
Li1 O23 2.376462 1_565
Mn0 O15 2.157170 1_655
Mn0 O6 2.169949 1_555
Mn0 O3 2.176465 1_555
Mn0 O12 2.199065 1_655
Mn0 O0 2.215353 1_555
Mn0 O20 2.275585 1_655
Mn1 O19 2.157170 1_565
Mn1 O10 2.169949 1_555
Mn1 O1 2.176465 1_554
Mn1 O7 2.199065 1_564
Mn1 O2 2.215353 1_555
Mn1 O22 2.275585 1_565
Mn2 O15 2.209484 1_555
Mn2 O4 2.209484 1_555
Mn2 O12 2.210230 1_555
Mn2 O16 2.210230 1_556
Mn2 O5 2.332195 1_555
Mn2 O14 2.332195 1_555
Mn3 O19 2.209484 1_555
Mn3 O8 2.209484 1_555
Mn3 O7 2.210230 1_554
Mn3 O11 2.210230 1_555
Mn3 O18 2.332195 1_555
Mn3 O9 2.332195 1_555
Mn4 O4 2.157170 1_545
Mn4 O13 2.169949 1_555
Mn4 O22 2.176465 1_556
Mn4 O16 2.199065 1_546
Mn4 O21 2.215353 1_555
Mn4 O1 2.275585 1_545
Mn5 O8 2.157170 1_455
Mn5 O17 2.169949 1_555
Mn5 O20 2.176465 1_555
Mn5 O11 2.199065 1_455
Mn5 O23 2.215353 1_555
Mn5 O3 2.275585 1_455
H0 O5 1.096507 1_555
H0 O6 1.357157 1_555
H1 O9 1.096507 1_555
H1 O10 1.357157 1_555
H2 O14 1.096507 1_555
H2 O13 1.357157 1_555
H3 O18 1.096507 1_555
H3 O17 1.357157 1_555
O0 P0 1.553256 1_555
O1 P0 1.532176 1_555
O2 P1 1.553256 1_555
O3 P1 1.532176 1_555
O4 P5 1.548039 1_565
O5 P0 1.605497 1_555
O6 P2 1.558781 1_555
O7 P2 1.555596 1_555
O8 P4 1.548039 1_654
O9 P1 1.605497 1_555
O10 P3 1.558781 1_555
O11 P2 1.555596 1_555
O12 P3 1.555596 1_555
O13 P2 1.558781 1_555
O14 P4 1.605497 1_555
O15 P1 1.548039 1_456
O16 P3 1.555596 1_555
O17 P3 1.558781 1_555
O18 P5 1.605497 1_555
O19 P0 1.548039 1_545
O20 P4 1.532176 1_555
O21 P4 1.553256 1_555
O22 P5 1.532176 1_555
O23 P5 1.553256 1_555
