# generated using pymatgen
data_Li12Fe5O16
_symmetry_space_group_name_H-M   'P 1'
_cell_length_a   5.87027700
_cell_length_b   5.89256291
_cell_length_c   9.79066973
_cell_angle_alpha   92.47110465
_cell_angle_beta   90.54255442
_cell_angle_gamma   118.61776660
_symmetry_Int_Tables_number   1
_chemical_formula_structural   Li12Fe5O16
_chemical_formula_sum   'Li12 Fe5 O16'
_cell_volume   296.84350585
_cell_formula_units_Z   1
loop_
 _symmetry_equiv_pos_site_id
 _symmetry_equiv_pos_as_xyz
  1  'x, y, z'
loop_
 _atom_site_type_symbol
 _atom_site_label
 _atom_site_symmetry_multiplicity
 _atom_site_fract_x
 _atom_site_fract_y
 _atom_site_fract_z
 _atom_site_occupancy
  Li  Li0  1  0.66962500  0.91278800  0.22349900  1
  Li  Li1  1  0.58534200  0.78959700  0.96696100  1
  Li  Li2  1  0.98686100  0.01319800  0.02970200  1
  Li  Li3  1  0.22747200  0.91590400  0.22352100  1
  Li  Li4  1  0.90056600  0.80333700  0.45322700  1
  Li  Li5  1  0.15959100  0.77968900  0.95689000  1
  Li  Li6  1  0.32181100  0.65673400  0.72158000  1
  Li  Li7  1  0.18461100  0.38176800  0.94829700  1
  Li  Li8  1  0.71765800  0.43616800  0.23470300  1
  Li  Li9  1  0.81543800  0.65611500  0.71975500  1
  Li  Li10  1  0.87906300  0.26040500  0.44614100  1
  Li  Li11  1  0.37593800  0.26104000  0.44851200  1
  Fe  Fe0  1  0.32642600  0.16328800  0.71515700  1
  Fe  Fe1  1  0.38594100  0.76985000  0.45965700  1
  Fe  Fe2  1  0.65948700  0.34618300  0.97246600  1
  Fe  Fe3  1  0.19604800  0.40125100  0.21417300  1
  Fe  Fe4  1  0.83358600  0.16744700  0.71409200  1
  O  O0  1  0.66439900  0.85356400  0.59812500  1
  O  O1  1  0.52634000  0.06317800  0.35722200  1
  O  O2  1  0.19311500  0.84786200  0.58717800  1
  O  O3  1  0.31953900  0.67503700  0.10235800  1
  O  O4  1  0.52233000  0.59006600  0.35225500  1
  O  O5  1  0.06825100  0.57961300  0.34532700  1
  O  O6  1  0.81953300  0.66834100  0.06544800  1
  O  O7  1  0.15700500  0.32276100  0.60473400  1
  O  O8  1  0.97152900  0.46827100  0.83552800  1
  O  O9  1  0.82715500  0.21244500  0.08728000  1
  O  O10  1  0.04297400  0.10420100  0.31281600  1
  O  O11  1  0.65344900  0.30880900  0.61766200  1
  O  O12  1  0.00470300  0.01739900  0.82231000  1
  O  O13  1  0.49662300  0.47734600  0.84635700  1
  O  O14  1  0.33091300  0.22050900  0.09516000  1
  O  O15  1  0.49958200  0.02141500  0.85369400  1
loop_
_geom_bond_atom_site_label_1
_geom_bond_atom_site_label_2
_geom_bond_distance
_geom_bond_site_symmetry_2
Li0 O1 1.960037 1_565
Li0 O10 2.085887 1_665
Li0 O9 2.100944 1_565
Li0 O4 2.146002 1_555
Li0 O3 2.155324 1_555
Li0 O6 2.508299 1_555
Li1 O3 1.937777 1_556
Li1 O13 1.983437 1_555
Li1 O15 2.031752 1_565
Li1 O6 2.074982 1_556
Li1 O9 2.436834 1_566
Li2 O6 1.836433 1_545
Li2 O14 1.877944 1_655
Li2 O9 1.892756 1_555
Li2 O12 2.034802 1_654
Li3 O1 1.986145 1_565
Li3 O10 2.062492 1_565
Li3 O3 2.077396 1_555
Li3 O14 2.081996 1_565
Li3 O5 2.161775 1_555
Li4 O2 2.057697 1_655
Li4 O0 2.101491 1_555
Li4 O10 2.131654 1_665
Li4 O4 2.159845 1_555
Li4 O5 2.228362 1_655
Li5 O8 1.960751 1_455
Li5 O3 1.973671 1_556
Li5 O6 2.095413 1_456
Li5 O15 2.114740 1_565
Li5 O12 2.425147 1_565
Li6 O7 2.019568 1_555
Li6 O2 2.120077 1_555
Li6 O8 2.160763 1_455
Li6 O0 2.187050 1_555
Li6 O13 2.188513 1_555
Li6 O15 2.228565 1_565
Li7 O8 1.917442 1_455
Li7 O13 1.939846 1_555
Li7 O3 2.080934 1_556
Li7 O14 2.141083 1_556
Li7 O12 2.195813 1_555
Li7 O9 2.327195 1_456
Li8 O5 2.082220 1_655
Li8 O4 2.095904 1_555
Li8 O6 2.099021 1_555
Li8 O9 2.213507 1_555
Li8 O1 2.327909 1_555
Li8 O14 2.379827 1_555
Li9 O11 2.008238 1_555
Li9 O12 2.074496 1_665
Li9 O8 2.099925 1_555
Li9 O13 2.101593 1_555
Li9 O0 2.155362 1_555
Li9 O2 2.378699 1_655
Li10 O5 1.981264 1_655
Li10 O1 1.992320 1_555
Li10 O10 2.060470 1_655
Li10 O7 2.129937 1_655
Li10 O11 2.240129 1_555
Li11 O1 1.961860 1_555
Li11 O4 1.990600 1_555
Li11 O10 2.134043 1_555
Li11 O7 2.135520 1_555
Li11 O11 2.223776 1_555
Fe0 O11 1.964726 1_555
Fe0 O12 1.991605 1_555
Fe0 O7 2.000871 1_555
Fe0 O2 2.006074 1_545
Fe0 O13 2.018052 1_555
Fe0 O15 2.111287 1_555
Fe1 O1 1.863641 1_565
Fe1 O2 1.878064 1_555
Fe1 O4 1.897749 1_555
Fe1 O5 1.958879 1_555
Fe1 O0 1.970073 1_555
Fe2 O6 1.855106 1_556
Fe2 O9 1.910987 1_556
Fe2 O13 1.950289 1_555
Fe2 O15 1.990554 1_555
Fe2 O14 2.112837 1_556
Fe2 O8 2.130208 1_555
Fe3 O3 1.836771 1_555
Fe3 O10 1.859987 1_555
Fe3 O14 1.958819 1_555
Fe3 O5 1.993356 1_555
Fe3 O4 2.124631 1_555
Fe3 O9 2.234422 1_455
Fe4 O11 1.896343 1_555
Fe4 O8 1.906963 1_555
Fe4 O0 1.932443 1_545
Fe4 O12 1.955706 1_655
Fe4 O7 2.011722 1_655
Fe4 O15 2.233584 1_555
