# generated using pymatgen
data_LiV3P2(HO3)4
_symmetry_space_group_name_H-M   'P 1'
_cell_length_a   10.51452300
_cell_length_b   7.46668900
_cell_length_c   13.04708575
_cell_angle_alpha   63.79922532
_cell_angle_beta   90.00000000
_cell_angle_gamma   90.00000000
_symmetry_Int_Tables_number   1
_chemical_formula_structural   LiV3P2(HO3)4
_chemical_formula_sum   'Li4 V12 P8 H16 O48'
_cell_volume   919.06405985
_cell_formula_units_Z   4
loop_
 _symmetry_equiv_pos_site_id
 _symmetry_equiv_pos_as_xyz
  1  'x, y, z'
loop_
 _atom_site_type_symbol
 _atom_site_label
 _atom_site_symmetry_multiplicity
 _atom_site_fract_x
 _atom_site_fract_y
 _atom_site_fract_z
 _atom_site_occupancy
  Li  Li0  1  0.38537200  0.22543900  0.16561400  1
  Li  Li1  1  0.88537200  0.77456100  0.33438600  1
  Li  Li2  1  0.11462800  0.22543900  0.66561400  1
  Li  Li3  1  0.61462800  0.77456100  0.83438600  1
  V  V0  1  0.78236600  0.51481800  0.04453400  1
  V  V1  1  0.23817100  0.01586800  0.04538000  1
  V  V2  1  0.43355700  0.76034600  0.23469500  1
  V  V3  1  0.93355700  0.23965400  0.26530500  1
  V  V4  1  0.28236600  0.48518200  0.45546600  1
  V  V5  1  0.73817100  0.98413200  0.45462000  1
  V  V6  1  0.26182900  0.01586800  0.54538000  1
  V  V7  1  0.71763400  0.51481800  0.54453400  1
  V  V8  1  0.06644300  0.76034600  0.73469500  1
  V  V9  1  0.56644300  0.23965400  0.76530500  1
  V  V10  1  0.76182900  0.98413200  0.95462000  1
  V  V11  1  0.21763400  0.48518200  0.95546600  1
  P  P0  1  0.17964100  0.54193500  0.19575300  1
  P  P1  1  0.68867000  0.05563300  0.17739400  1
  P  P2  1  0.67964100  0.45806500  0.30424700  1
  P  P3  1  0.18867000  0.94436700  0.32260600  1
  P  P4  1  0.81133000  0.05563300  0.67739400  1
  P  P5  1  0.32035900  0.54193500  0.69575300  1
  P  P6  1  0.31133000  0.94436700  0.82260600  1
  P  P7  1  0.82035900  0.45806500  0.80424700  1
  H  H0  1  0.39143200  0.77052400  0.03004400  1
  H  H1  1  0.95468000  0.76445900  0.06239900  1
  H  H2  1  0.59839900  0.70427700  0.06619500  1
  H  H3  1  0.99409700  0.28962900  0.06142900  1
  H  H4  1  0.09839900  0.29572300  0.43380500  1
  H  H5  1  0.45468000  0.23554100  0.43760100  1
  H  H6  1  0.89143200  0.22947600  0.46995600  1
  H  H7  1  0.49409700  0.71037100  0.43857100  1
  H  H8  1  0.50590300  0.28962900  0.56142900  1
  H  H9  1  0.10856800  0.77052400  0.53004400  1
  H  H10  1  0.54532000  0.76445900  0.56239900  1
  H  H11  1  0.90160100  0.70427700  0.56619500  1
  H  H12  1  0.00590300  0.71037100  0.93857100  1
  H  H13  1  0.40160100  0.29572300  0.93380500  1
  H  H14  1  0.04532000  0.23554100  0.93760100  1
  H  H15  1  0.60856800  0.22947600  0.96995600  1
  O  O0  1  0.64665200  0.72991800  0.99632100  1
  O  O1  1  0.10388300  0.22989700  0.99766900  1
  O  O2  1  0.39466400  0.85311000  0.07164700  1
  O  O3  1  0.13430800  0.75752000  0.11505400  1
  O  O4  1  0.23603900  0.43827900  0.12609100  1
  O  O5  1  0.93101000  0.34508800  0.09808700  1
  O  O6  1  0.66664200  0.27858200  0.09160500  1
  O  O7  1  0.75960300  0.94381600  0.12078500  1
  O  O8  1  0.78788100  0.45493500  0.22150900  1
  O  O9  1  0.56706900  0.57307700  0.22753700  1
  O  O10  1  0.27596900  0.96833100  0.21798500  1
  O  O11  1  0.06706900  0.42692300  0.27246300  1
  O  O12  1  0.28788100  0.54506500  0.27849100  1
  O  O13  1  0.55396500  0.97621700  0.22219300  1
  O  O14  1  0.05396500  0.02378300  0.27780700  1
  O  O15  1  0.77596900  0.03166900  0.28201500  1
  O  O16  1  0.73603900  0.56172100  0.37390900  1
  O  O17  1  0.63430800  0.24248000  0.38494600  1
  O  O18  1  0.25960300  0.05618400  0.37921500  1
  O  O19  1  0.89466400  0.14689000  0.42835300  1
  O  O20  1  0.16664200  0.72141800  0.40839500  1
  O  O21  1  0.43101000  0.65491200  0.40191300  1
  O  O22  1  0.14665200  0.27008200  0.50367900  1
  O  O23  1  0.39611700  0.22989700  0.49766900  1
  O  O24  1  0.60388300  0.77010300  0.50233100  1
  O  O25  1  0.85334800  0.72991800  0.49632100  1
  O  O26  1  0.56899000  0.34508800  0.59808700  1
  O  O27  1  0.83335800  0.27858200  0.59160500  1
  O  O28  1  0.10533600  0.85311000  0.57164700  1
  O  O29  1  0.74039700  0.94381600  0.62078500  1
  O  O30  1  0.36569200  0.75752000  0.61505400  1
  O  O31  1  0.26396100  0.43827900  0.62609100  1
  O  O32  1  0.22403100  0.96833100  0.71798500  1
  O  O33  1  0.94603500  0.97621700  0.72219300  1
  O  O34  1  0.44603500  0.02378300  0.77780700  1
  O  O35  1  0.71211900  0.45493500  0.72150900  1
  O  O36  1  0.93293100  0.57307700  0.72753700  1
  O  O37  1  0.72403100  0.03166900  0.78201500  1
  O  O38  1  0.43293100  0.42692300  0.77246300  1
  O  O39  1  0.21211900  0.54506500  0.77849100  1
  O  O40  1  0.24039700  0.05618400  0.87921500  1
  O  O41  1  0.33335800  0.72141800  0.90839500  1
  O  O42  1  0.06899000  0.65491200  0.90191300  1
  O  O43  1  0.76396100  0.56172100  0.87390900  1
  O  O44  1  0.86569200  0.24248000  0.88494600  1
  O  O45  1  0.60533600  0.14689000  0.92835300  1
  O  O46  1  0.89611700  0.77010300  0.00233100  1
  O  O47  1  0.35334800  0.27008200  0.00367900  1
loop_
_geom_bond_atom_site_label_1
_geom_bond_atom_site_label_2
_geom_bond_distance
_geom_bond_site_symmetry_2
Li0 O47 2.016541 1_555
Li0 O10 2.077794 1_545
Li0 O4 2.129148 1_555
Li0 O13 2.436619 1_545
Li1 O25 2.016541 1_555
Li1 O15 2.077794 1_565
Li1 O16 2.129148 1_555
Li1 O14 2.436619 1_665
Li2 O22 2.016541 1_555
Li2 O32 2.077794 1_545
Li2 O31 2.129148 1_555
Li2 O33 2.436619 1_445
Li3 O0 2.016541 1_555
Li3 O37 2.077794 1_565
Li3 O43 2.129148 1_555
Li3 O34 2.436619 1_565
H0 O2 0.985697 1_555
H1 O46 0.982843 1_555
H2 O0 0.985419 1_554
H3 O5 1.007532 1_555
H3 O1 1.597212 1_654
H4 O22 0.985419 1_555
H5 O23 0.982843 1_555
H6 O19 0.985697 1_555
H7 O21 1.007532 1_555
H7 O24 1.597212 1_555
H8 O26 1.007532 1_555
H8 O23 1.597212 1_555
H9 O28 0.985697 1_555
H10 O24 0.982843 1_555
H11 O25 0.985419 1_555
H12 O42 1.007532 1_555
H12 O46 1.597212 1_456
H13 O47 0.985419 1_556
H14 O1 0.982843 1_555
H15 O45 0.985697 1_555
O0 V0 2.029609 1_556
O0 V10 2.110355 1_555
O1 V1 2.014103 1_556
O1 V11 2.107187 1_555
O2 V2 1.967557 1_555
O2 V1 1.983444 1_565
O3 P0 1.558949 1_555
O3 V1 2.047337 1_565
O4 P0 1.548520 1_555
O4 V11 2.104150 1_554
O5 V0 1.937808 1_555
O5 V3 1.965623 1_555
O6 P1 1.559590 1_555
O6 V0 2.003122 1_555
O7 P1 1.530798 1_565
O7 V10 2.053039 1_554
O8 P2 1.575873 1_555
O8 V3 2.108420 1_555
O8 V0 2.150148 1_555
O9 P2 1.543115 1_555
O9 V2 2.012440 1_555
O10 P3 1.588118 1_555
O10 V1 2.156285 1_565
O10 V2 2.214897 1_555
O11 P0 1.543115 1_555
O11 V3 2.012440 1_455
O12 P0 1.575873 1_555
O12 V2 2.108420 1_555
O12 V4 2.150148 1_555
O13 P1 1.547021 1_565
O13 V2 1.998828 1_555
O14 P3 1.547021 1_545
O14 V3 1.998828 1_455
O15 P1 1.588118 1_555
O15 V5 2.156285 1_545
O15 V3 2.214897 1_555
O16 P2 1.548520 1_555
O16 V7 2.104150 1_555
O17 P2 1.558949 1_555
O17 V5 2.047337 1_545
O18 P3 1.530798 1_545
O18 V6 2.053039 1_555
O19 V3 1.967557 1_555
O19 V5 1.983444 1_545
O20 P3 1.559590 1_555
O20 V4 2.003122 1_555
O21 V4 1.937808 1_555
O21 V2 1.965623 1_555
O22 V4 2.029609 1_555
O22 V6 2.110355 1_555
O23 V6 2.014103 1_555
O23 V4 2.107187 1_555
O24 V5 2.014103 1_555
O24 V7 2.107187 1_555
O25 V7 2.029609 1_555
O25 V5 2.110355 1_555
O26 V7 1.937808 1_555
O26 V9 1.965623 1_555
O27 P4 1.559590 1_555
O27 V7 2.003122 1_555
O28 V8 1.967557 1_555
O28 V6 1.983444 1_565
O29 P4 1.530798 1_565
O29 V5 2.053039 1_555
O30 P5 1.558949 1_555
O30 V6 2.047337 1_565
O31 P5 1.548520 1_555
O31 V4 2.104150 1_555
O32 P6 1.588118 1_555
O32 V6 2.156285 1_565
O32 V8 2.214897 1_555
O33 P4 1.547021 1_565
O33 V8 1.998828 1_655
O34 P6 1.547021 1_545
O34 V9 1.998828 1_555
O35 P7 1.575873 1_555
O35 V9 2.108420 1_555
O35 V7 2.150148 1_555
O36 P7 1.543115 1_555
O36 V8 2.012440 1_655
O37 P4 1.588118 1_555
O37 V10 2.156285 1_545
O37 V9 2.214897 1_555
O38 P5 1.543115 1_555
O38 V9 2.012440 1_555
O39 P5 1.575873 1_555
O39 V8 2.108420 1_555
O39 V11 2.150148 1_555
O40 P6 1.530798 1_545
O40 V1 2.053039 1_556
O41 P6 1.559590 1_555
O41 V11 2.003122 1_555
O42 V11 1.937808 1_555
O42 V8 1.965623 1_555
O43 P7 1.548520 1_555
O43 V0 2.104150 1_556
O44 P7 1.558949 1_555
O44 V10 2.047337 1_545
O45 V9 1.967557 1_555
O45 V10 1.983444 1_545
O46 V10 2.014103 1_554
O46 V0 2.107187 1_555
O47 V11 2.029609 1_554
O47 V1 2.110355 1_555
