# generated using pymatgen
data_Li8MnFe7(BO3)8
_symmetry_space_group_name_H-M   'P 1'
_cell_length_a   6.02617500
_cell_length_b   9.71531305
_cell_length_c   9.72073798
_cell_angle_alpha   65.09719966
_cell_angle_beta   79.67351681
_cell_angle_gamma   78.52291007
_symmetry_Int_Tables_number   1
_chemical_formula_structural   Li8MnFe7(BO3)8
_chemical_formula_sum   'Li8 Mn1 Fe7 B8 O24'
_cell_volume   502.94985421
_cell_formula_units_Z   1
loop_
 _symmetry_equiv_pos_site_id
 _symmetry_equiv_pos_as_xyz
  1  'x, y, z'
loop_
 _atom_site_type_symbol
 _atom_site_label
 _atom_site_symmetry_multiplicity
 _atom_site_fract_x
 _atom_site_fract_y
 _atom_site_fract_z
 _atom_site_occupancy
  Li  Li0  1  0.04455000  0.46587200  0.81498900  1
  Li  Li1  1  0.04489500  0.96676500  0.31447400  1
  Li  Li2  1  0.45516600  0.03355700  0.18444400  1
  Li  Li3  1  0.54430800  0.46633900  0.31538800  1
  Li  Li4  1  0.45340900  0.53263700  0.68449800  1
  Li  Li5  1  0.54519600  0.96688900  0.81686500  1
  Li  Li6  1  0.95516500  0.03531100  0.68504600  1
  Li  Li7  1  0.95423600  0.53332500  0.18469700  1
  Mn  Mn0  1  0.81433000  0.79417400  0.62509300  1
  Fe  Fe0  1  0.18382800  0.20970100  0.37490100  1
  Fe  Fe1  1  0.31524400  0.29249900  0.62829500  1
  Fe  Fe2  1  0.31507700  0.79323900  0.12215100  1
  Fe  Fe3  1  0.18750600  0.70465400  0.87251100  1
  Fe  Fe4  1  0.81644500  0.28974300  0.12752500  1
  Fe  Fe5  1  0.68477200  0.20967900  0.87227700  1
  Fe  Fe6  1  0.68106100  0.70897500  0.37084700  1
  B  B0  1  0.33577100  0.36713100  0.03840800  1
  B  B1  1  0.16491000  0.13209900  0.96251500  1
  B  B2  1  0.16625700  0.63220300  0.46001500  1
  B  B3  1  0.33328300  0.86793000  0.53736900  1
  B  B4  1  0.66319000  0.13362000  0.46278200  1
  B  B5  1  0.83510700  0.36840700  0.53706500  1
  B  B6  1  0.83553000  0.86797100  0.03718100  1
  B  B7  1  0.66798600  0.62991800  0.96493500  1
  O  O0  1  0.17818300  0.01287300  0.10439800  1
  O  O1  1  0.01678300  0.24696800  0.56194000  1
  O  O2  1  0.01600000  0.74697000  0.06249400  1
  O  O3  1  0.16378100  0.36137900  0.15660700  1
  O  O4  1  0.17691000  0.51314700  0.60303000  1
  O  O5  1  0.51650900  0.24582700  0.06216000  1
  O  O6  1  0.16392000  0.86328700  0.65779400  1
  O  O7  1  0.33571600  0.13797900  0.84302800  1
  O  O8  1  0.34070100  0.63790600  0.34339400  1
  O  O9  1  0.48239400  0.25458400  0.43670700  1
  O  O10  1  0.32329100  0.48677400  0.89656600  1
  O  O11  1  0.32098300  0.98728300  0.39562800  1
  O  O12  1  0.67657200  0.01649400  0.60596400  1
  O  O13  1  0.67630100  0.51149100  0.10669200  1
  O  O14  1  0.51281900  0.74572700  0.56153300  1
  O  O15  1  0.66397000  0.36207300  0.65692100  1
  O  O16  1  0.66261700  0.86233900  0.15589500  1
  O  O17  1  0.83486500  0.13717900  0.34432400  1
  O  O18  1  0.48615300  0.75193100  0.93877900  1
  O  O19  1  0.82188300  0.48645300  0.39606400  1
  O  O20  1  0.84086700  0.63473400  0.84744500  1
  O  O21  1  0.98400400  0.25337400  0.93847100  1
  O  O22  1  0.98508400  0.75298700  0.43398500  1
  O  O23  1  0.82247500  0.98760100  0.89590500  1
loop_
_geom_bond_atom_site_label_1
_geom_bond_atom_site_label_2
_geom_bond_distance
_geom_bond_site_symmetry_2
Li0 O20 1.947623 1_455
Li0 O4 1.962660 1_555
Li0 O21 1.972773 1_455
Li0 O10 2.059249 1_555
Li1 O0 1.949544 1_565
Li1 O17 1.966275 1_465
Li1 O22 1.977101 1_455
Li1 O11 2.040859 1_555
Li2 O11 1.960237 1_545
Li2 O16 1.960539 1_545
Li2 O5 1.970777 1_555
Li2 O0 2.040264 1_555
Li3 O13 1.936890 1_555
Li3 O8 1.951003 1_555
Li3 O9 1.966424 1_555
Li3 O19 2.044656 1_555
Li4 O15 1.960417 1_555
Li4 O10 1.961876 1_555
Li4 O14 1.974933 1_555
Li4 O4 2.040648 1_555
Li5 O12 1.949329 1_565
Li5 O7 1.956276 1_565
Li5 O18 1.988123 1_555
Li5 O23 2.036444 1_555
Li6 O23 1.953281 1_545
Li6 O6 1.965341 1_645
Li6 O1 1.967373 1_655
Li6 O12 2.036197 1_555
Li7 O19 1.958094 1_555
Li7 O3 1.969970 1_655
Li7 O2 1.982508 1_655
Li7 O13 2.038962 1_555
Mn0 O20 2.074246 1_555
Mn0 O12 2.095827 1_565
Mn0 O22 2.108761 1_555
Mn0 O14 2.211859 1_555
Mn0 O6 2.443932 1_655
Fe0 O3 2.019048 1_555
Fe0 O1 2.050192 1_555
Fe0 O11 2.091735 1_545
Fe0 O9 2.169942 1_555
Fe0 O17 2.448897 1_455
Fe1 O7 2.001397 1_555
Fe1 O4 2.066259 1_555
Fe1 O9 2.091954 1_555
Fe1 O1 2.195318 1_555
Fe1 O15 2.425671 1_555
Fe2 O18 2.044555 1_554
Fe2 O8 2.054160 1_555
Fe2 O0 2.074583 1_565
Fe2 O2 2.168700 1_555
Fe2 O16 2.436345 1_555
Fe3 O6 2.015444 1_555
Fe3 O10 2.041428 1_555
Fe3 O2 2.105655 1_556
Fe3 O18 2.204225 1_555
Fe3 O20 2.402270 1_455
Fe4 O17 2.009565 1_555
Fe4 O21 2.064297 1_554
Fe4 O13 2.089337 1_555
Fe4 O5 2.190807 1_555
Fe4 O3 2.429594 1_655
Fe5 O15 2.000044 1_555
Fe5 O5 2.071638 1_556
Fe5 O23 2.082047 1_545
Fe5 O21 2.190093 1_555
Fe5 O7 2.440283 1_555
Fe6 O16 1.998457 1_555
Fe6 O14 2.081063 1_555
Fe6 O19 2.086176 1_555
Fe6 O22 2.202722 1_555
Fe6 O8 2.381136 1_555
B0 O10 1.382224 1_554
B0 O3 1.392671 1_555
B0 O5 1.406646 1_555
B1 O0 1.381155 1_556
B1 O7 1.396683 1_555
B1 O21 1.406980 1_455
B2 O4 1.386697 1_555
B2 O8 1.391522 1_555
B2 O22 1.404333 1_455
B3 O11 1.380357 1_555
B3 O6 1.399839 1_555
B3 O14 1.407246 1_555
B4 O12 1.381476 1_555
B4 O17 1.396797 1_555
B4 O9 1.403919 1_555
B5 O19 1.370855 1_555
B5 O15 1.399608 1_555
B5 O1 1.410560 1_655
B6 O23 1.378815 1_554
B6 O16 1.399596 1_555
B6 O2 1.403142 1_655
B7 O13 1.375404 1_556
B7 O20 1.392749 1_555
B7 O18 1.414090 1_555
