# generated using pymatgen
data_Li8Cr3SbO12
_symmetry_space_group_name_H-M   'P 1'
_cell_length_a   8.54451800
_cell_length_b   5.01695900
_cell_length_c   5.04783203
_cell_angle_alpha   89.43660529
_cell_angle_beta   90.00000000
_cell_angle_gamma   90.00000000
_symmetry_Int_Tables_number   1
_chemical_formula_structural   Li8Cr3SbO12
_chemical_formula_sum   'Li8 Cr3 Sb1 O12'
_cell_volume   216.37746083
_cell_formula_units_Z   1
loop_
 _symmetry_equiv_pos_site_id
 _symmetry_equiv_pos_as_xyz
  1  'x, y, z'
loop_
 _atom_site_type_symbol
 _atom_site_label
 _atom_site_symmetry_multiplicity
 _atom_site_fract_x
 _atom_site_fract_y
 _atom_site_fract_z
 _atom_site_occupancy
  Li  Li0  1  0.07662600  0.50000000  0.00000000  1
  Li  Li1  1  0.24666700  0.50000000  0.50000000  1
  Li  Li2  1  0.93206000  0.50000000  0.50000000  1
  Li  Li3  1  0.27766800  0.00000000  0.50000000  1
  Li  Li4  1  0.57902600  0.00000000  0.50000000  1
  Li  Li5  1  0.76866000  0.50000000  0.00000000  1
  Li  Li6  1  0.74112900  0.00000000  0.00000000  1
  Li  Li7  1  0.44077000  0.00000000  0.00000000  1
  Cr  Cr0  1  0.60158100  0.50000000  0.50000000  1
  Cr  Cr1  1  0.42877300  0.50000000  0.00000000  1
  Cr  Cr2  1  0.90752700  0.00000000  0.50000000  1
  Sb  Sb0  1  0.09730700  0.00000000  0.00000000  1
  O  O0  1  0.25882000  0.74594200  0.85330000  1
  O  O1  1  0.92749900  0.77660400  0.82977900  1
  O  O2  1  0.58100800  0.72168700  0.82346700  1
  O  O3  1  0.43546300  0.28950400  0.67369600  1
  O  O4  1  0.08300300  0.22218600  0.66933400  1
  O  O5  1  0.75007900  0.25920100  0.64705700  1
  O  O6  1  0.75007900  0.74079900  0.35294300  1
  O  O7  1  0.08300300  0.77781400  0.33066600  1
  O  O8  1  0.43546300  0.71049600  0.32630400  1
  O  O9  1  0.58100800  0.27831300  0.17653300  1
  O  O10  1  0.92749900  0.22339600  0.17022100  1
  O  O11  1  0.25882000  0.25405800  0.14670000  1
loop_
_geom_bond_atom_site_label_1
_geom_bond_atom_site_label_2
_geom_bond_distance
_geom_bond_site_symmetry_2
Li0 O10 2.065001 1_455
Li0 O1 2.065001 1_454
Li0 O0 2.115741 1_554
Li0 O11 2.115741 1_555
Li0 O4 2.185726 1_554
Li0 O7 2.185726 1_555
Li1 O8 2.113790 1_555
Li1 O3 2.113790 1_555
Li1 O4 2.146028 1_555
Li1 O7 2.146028 1_555
Li1 O0 2.181062 1_555
Li1 O11 2.181062 1_555
Li2 O7 2.076835 1_655
Li2 O4 2.076835 1_655
Li2 O6 2.100165 1_555
Li2 O5 2.100165 1_555
Li2 O10 2.178030 1_555
Li2 O1 2.178030 1_555
Li3 O3 2.172837 1_555
Li3 O8 2.172837 1_545
Li3 O7 2.181410 1_545
Li3 O4 2.181410 1_555
Li3 O0 2.187772 1_545
Li3 O11 2.187772 1_555
Li4 O6 2.096959 1_545
Li4 O5 2.096959 1_555
Li4 O3 2.099545 1_555
Li4 O8 2.099545 1_545
Li4 O9 2.138018 1_555
Li4 O2 2.138018 1_545
Li5 O1 2.117214 1_554
Li5 O10 2.117214 1_555
Li5 O2 2.140663 1_554
Li5 O9 2.140663 1_555
Li5 O5 2.168196 1_554
Li5 O6 2.168196 1_555
Li6 O1 2.132894 1_544
Li6 O10 2.132894 1_555
Li6 O2 2.154068 1_544
Li6 O9 2.154068 1_555
Li6 O5 2.196683 1_554
Li6 O6 2.196683 1_545
Li7 O9 2.050365 1_555
Li7 O2 2.050365 1_544
Li7 O0 2.146752 1_544
Li7 O11 2.146752 1_555
Li7 O8 2.185770 1_545
Li7 O3 2.185770 1_554
Cr0 O6 1.898110 1_555
Cr0 O5 1.898110 1_555
Cr0 O3 1.969894 1_555
Cr0 O8 1.969894 1_555
Cr0 O2 1.992398 1_555
Cr0 O9 1.992398 1_555
Cr1 O2 1.924468 1_554
Cr1 O9 1.924468 1_555
Cr1 O8 1.966150 1_555
Cr1 O3 1.966150 1_554
Cr1 O0 2.040011 1_554
Cr1 O11 2.040011 1_555
Cr2 O10 2.004913 1_555
Cr2 O1 2.004913 1_545
Cr2 O5 2.017658 1_555
Cr2 O6 2.017658 1_545
Cr2 O4 2.059125 1_655
Cr2 O7 2.059125 1_645
O0 Sb0 2.023875 1_566
O1 Sb0 2.029423 1_666
O4 Sb0 2.001737 1_556
O7 Sb0 2.001737 1_565
O10 Sb0 2.029423 1_655
O11 Sb0 2.023875 1_555
