# generated using pymatgen
data_Li2AgF5
_symmetry_space_group_name_H-M   'P 1'
_cell_length_a   5.48806331
_cell_length_b   5.48806331
_cell_length_c   9.58830988
_cell_angle_alpha   90.00000000
_cell_angle_beta   90.00000000
_cell_angle_gamma   133.44884720
_symmetry_Int_Tables_number   1
_chemical_formula_structural   Li2AgF5
_chemical_formula_sum   'Li4 Ag2 F10'
_cell_volume   209.65735767
_cell_formula_units_Z   2
loop_
 _symmetry_equiv_pos_site_id
 _symmetry_equiv_pos_as_xyz
  1  'x, y, z'
loop_
 _atom_site_type_symbol
 _atom_site_label
 _atom_site_symmetry_multiplicity
 _atom_site_fract_x
 _atom_site_fract_y
 _atom_site_fract_z
 _atom_site_occupancy
  Li  Li0  1  0.86755040  0.13244960  0.41928528  1
  Li  Li1  1  0.86755040  0.13244960  0.08071472  1
  Li  Li2  1  0.13244960  0.86755040  0.91928528  1
  Li  Li3  1  0.13244960  0.86755040  0.58071472  1
  Ag  Ag0  1  0.80568117  0.19431883  0.75000000  1
  Ag  Ag1  1  0.19431883  0.80568117  0.25000000  1
  F  F0  1  0.68040454  0.31959546  0.90853186  1
  F  F1  1  0.68040454  0.31959546  0.59146814  1
  F  F2  1  0.93998849  0.06001151  0.89353927  1
  F  F3  1  0.93998849  0.06001151  0.60646073  1
  F  F4  1  0.78853266  0.21146734  0.25000000  1
  F  F5  1  0.21146734  0.78853266  0.75000000  1
  F  F6  1  0.06001151  0.93998849  0.39353927  1
  F  F7  1  0.06001151  0.93998849  0.10646073  1
  F  F8  1  0.31959546  0.68040454  0.09146814  1
  F  F9  1  0.31959546  0.68040454  0.40853186  1
loop_
_geom_bond_atom_site_label_1
_geom_bond_atom_site_label_2
_geom_bond_distance
_geom_bond_site_symmetry_2
Ag0 F2 1.930816 1_555
Ag0 F3 1.930816 1_555
Ag0 F0 1.976383 1_555
Ag0 F1 1.976383 1_555
Ag0 F5 2.367561 1_655
Ag0 F5 2.367561 1_545
Ag1 F6 1.930816 1_555
Ag1 F7 1.930816 1_555
Ag1 F8 1.976383 1_555
Ag1 F9 1.976383 1_555
Ag1 F4 2.367561 1_565
Ag1 F4 2.367561 1_455
F0 Li2 2.224271 1_545
F0 Li2 2.224271 1_655
F0 Li1 2.507236 1_556
F1 Li3 2.224271 1_545
F1 Li3 2.224271 1_655
F1 Li0 2.507236 1_555
F2 Li1 1.937625 1_556
F2 Li2 1.956192 1_645
F3 Li0 1.937625 1_555
F3 Li3 1.956192 1_645
F4 Li0 1.808152 1_555
F4 Li1 1.808152 1_555
F5 Li3 1.808152 1_555
F5 Li2 1.808152 1_555
F6 Li3 1.937625 1_555
F6 Li0 1.956192 1_465
F7 Li2 1.937625 1_554
F7 Li1 1.956192 1_465
F8 Li1 2.224271 1_455
F8 Li1 2.224271 1_565
F8 Li2 2.507236 1_554
F9 Li0 2.224271 1_455
F9 Li0 2.224271 1_565
F9 Li3 2.507236 1_555
