# generated using pymatgen
data_TiFe2O5
_symmetry_space_group_name_H-M   'P 1'
_cell_length_a   5.33100605
_cell_length_b   5.33100605
_cell_length_c   10.06644000
_cell_angle_alpha   90.00000000
_cell_angle_beta   90.00000000
_cell_angle_gamma   138.25729743
_symmetry_Int_Tables_number   1
_chemical_formula_structural   TiFe2O5
_chemical_formula_sum   'Ti2 Fe4 O10'
_cell_volume   190.47120825
_cell_formula_units_Z   2
loop_
 _symmetry_equiv_pos_site_id
 _symmetry_equiv_pos_as_xyz
  1  'x, y, z'
loop_
 _atom_site_type_symbol
 _atom_site_label
 _atom_site_symmetry_multiplicity
 _atom_site_fract_x
 _atom_site_fract_y
 _atom_site_fract_z
 _atom_site_occupancy
  Ti  Ti0  1  0.13174100  0.86825900  0.06086100  1
  Ti  Ti1  1  0.86825900  0.13174100  0.56086100  1
  Fe  Fe0  1  0.13972700  0.86027300  0.43395100  1
  Fe  Fe1  1  0.19168600  0.80831400  0.75088300  1
  Fe  Fe2  1  0.80831400  0.19168600  0.25088300  1
  Fe  Fe3  1  0.86027300  0.13972700  0.93395100  1
  O  O0  1  0.04443800  0.95556200  0.61677900  1
  O  O1  1  0.05090900  0.94909100  0.88736000  1
  O  O2  1  0.68586100  0.31413900  0.07346100  1
  O  O3  1  0.69555300  0.30444700  0.43053400  1
  O  O4  1  0.23541900  0.76458100  0.24617000  1
  O  O5  1  0.76458100  0.23541900  0.74617000  1
  O  O6  1  0.30444700  0.69555300  0.93053400  1
  O  O7  1  0.31413900  0.68586100  0.57346100  1
  O  O8  1  0.94909100  0.05090900  0.38736000  1
  O  O9  1  0.95556200  0.04443800  0.11677900  1
loop_
_geom_bond_atom_site_label_1
_geom_bond_atom_site_label_2
_geom_bond_distance
_geom_bond_site_symmetry_2
Fe0 O8 1.956246 1_465
Fe0 O3 1.979336 1_455
Fe0 O3 1.979336 1_565
Fe0 O0 2.070835 1_555
Fe0 O4 2.117075 1_555
Fe0 O7 2.234138 1_555
Fe1 O1 1.963255 1_555
Fe1 O0 1.993562 1_555
Fe1 O5 2.033938 1_455
Fe1 O5 2.033938 1_565
Fe1 O6 2.128952 1_555
Fe1 O7 2.162878 1_555
Fe2 O8 1.963255 1_555
Fe2 O9 1.993562 1_555
Fe2 O4 2.033938 1_655
Fe2 O4 2.033938 1_545
Fe2 O3 2.128952 1_555
Fe2 O2 2.162878 1_555
Fe3 O1 1.956246 1_645
Fe3 O6 1.979336 1_545
Fe3 O6 1.979336 1_655
Fe3 O9 2.070835 1_556
Fe3 O5 2.117075 1_555
Fe3 O2 2.234138 1_556
O0 Ti1 1.843219 1_465
O1 Ti0 1.923245 1_556
O2 Ti0 1.978398 1_655
O2 Ti0 1.978398 1_545
O3 Ti1 2.163679 1_555
O4 Ti0 2.132269 1_555
O5 Ti1 2.132269 1_555
O6 Ti0 2.163679 1_556
O7 Ti1 1.978398 1_565
O7 Ti1 1.978398 1_455
O8 Ti1 1.923245 1_555
O9 Ti0 1.843219 1_645
