# generated using pymatgen
data_LiH4SNO4
_symmetry_space_group_name_H-M   'P 1'
_cell_length_a   9.02146297
_cell_length_b   5.28115380
_cell_length_c   17.12744709
_cell_angle_alpha   90.00000000
_cell_angle_beta   90.12109251
_cell_angle_gamma   90.00000000
_symmetry_Int_Tables_number   1
_chemical_formula_structural   LiH4SNO4
_chemical_formula_sum   'Li8 H32 S8 N8 O32'
_cell_volume   816.01370118
_cell_formula_units_Z   8
loop_
 _symmetry_equiv_pos_site_id
 _symmetry_equiv_pos_as_xyz
  1  'x, y, z'
loop_
 _atom_site_type_symbol
 _atom_site_label
 _atom_site_symmetry_multiplicity
 _atom_site_fract_x
 _atom_site_fract_y
 _atom_site_fract_z
 _atom_site_occupancy
  Li  Li0  1  0.09007306  0.23050330  0.65997783  1
  Li  Li1  1  0.90992694  0.73050330  0.84002217  1
  Li  Li2  1  0.90992694  0.76949670  0.34002217  1
  Li  Li3  1  0.09007306  0.26949670  0.15997783  1
  Li  Li4  1  0.40974215  0.27198720  0.91251062  1
  Li  Li5  1  0.59025785  0.77198720  0.58748938  1
  Li  Li6  1  0.59025785  0.72801280  0.08748938  1
  Li  Li7  1  0.40974215  0.22801280  0.41251062  1
  H  H0  1  0.16637001  0.69363422  0.75005283  1
  H  H1  1  0.83362999  0.19363422  0.74994717  1
  H  H2  1  0.83362999  0.30636578  0.24994717  1
  H  H3  1  0.16637001  0.80636578  0.25005283  1
  H  H4  1  0.28996888  0.91862887  0.72887453  1
  H  H5  1  0.71003112  0.41862887  0.77112547  1
  H  H6  1  0.71003112  0.08137113  0.27112547  1
  H  H7  1  0.28996888  0.58137113  0.22887453  1
  H  H8  1  0.32471235  0.62461250  0.70189871  1
  H  H9  1  0.67528765  0.12461250  0.79810129  1
  H  H10  1  0.67528765  0.37538750  0.29810129  1
  H  H11  1  0.32471235  0.87538750  0.20189871  1
  H  H12  1  0.33236838  0.69834591  0.79789413  1
  H  H13  1  0.66763162  0.19834591  0.70210587  1
  H  H14  1  0.66763162  0.30165409  0.20210587  1
  H  H15  1  0.33236838  0.80165409  0.29789413  1
  H  H16  1  0.28635613  0.64052328  0.01076428  1
  H  H17  1  0.71364387  0.14052328  0.48923572  1
  H  H18  1  0.71364387  0.35947672  0.98923572  1
  H  H19  1  0.28635613  0.85947672  0.51076428  1
  H  H20  1  0.23904238  0.90438732  0.96038629  1
  H  H21  1  0.76095762  0.40438732  0.53961371  1
  H  H22  1  0.76095762  0.09561268  0.03961371  1
  H  H23  1  0.23904238  0.59561268  0.46038629  1
  H  H24  1  0.13448238  0.64602467  0.95588786  1
  H  H25  1  0.86551762  0.14602467  0.54411214  1
  H  H26  1  0.86551762  0.35397533  0.04411214  1
  H  H27  1  0.13448238  0.85397533  0.45588786  1
  H  H28  1  0.14039954  0.82145334  0.03937319  1
  H  H29  1  0.85960046  0.32145334  0.46062681  1
  H  H30  1  0.85960046  0.17854666  0.96062681  1
  H  H31  1  0.14039954  0.67854666  0.53937319  1
  S  S0  1  0.41668956  0.25812802  0.60339064  1
  S  S1  1  0.58331044  0.75812802  0.89660936  1
  S  S2  1  0.58331044  0.74187198  0.39660936  1
  S  S3  1  0.41668956  0.24187198  0.10339064  1
  S  S4  1  0.07399998  0.22545497  0.85262790  1
  S  S5  1  0.92600002  0.72545497  0.64737210  1
  S  S6  1  0.92600002  0.77454503  0.14737210  1
  S  S7  1  0.07399998  0.27454503  0.35262790  1
  N  N0  1  0.27772358  0.73231529  0.74561080  1
  N  N1  1  0.72227642  0.23231529  0.75438920  1
  N  N2  1  0.72227642  0.26768471  0.25438920  1
  N  N3  1  0.27772358  0.76768471  0.24561080  1
  N  N4  1  0.20102700  0.75396732  0.99243149  1
  N  N5  1  0.79897300  0.25396732  0.50756851  1
  N  N6  1  0.79897300  0.24603268  0.00756851  1
  N  N7  1  0.20102700  0.74603268  0.49243149  1
  O  O0  1  0.37393965  0.20982911  0.52213533  1
  O  O1  1  0.62606035  0.70982911  0.97786467  1
  O  O2  1  0.62606035  0.79017089  0.47786467  1
  O  O3  1  0.37393965  0.29017089  0.02213533  1
  O  O4  1  0.29690649  0.17519517  0.65569859  1
  O  O5  1  0.70309351  0.67519517  0.84430141  1
  O  O6  1  0.70309351  0.82480483  0.34430141  1
  O  O7  1  0.29690649  0.32480483  0.15569859  1
  O  O8  1  0.44212587  0.53074264  0.61606373  1
  O  O9  1  0.55787413  0.03074264  0.88393627  1
  O  O10  1  0.55787413  0.46925736  0.38393627  1
  O  O11  1  0.44212587  0.96925736  0.11606373  1
  O  O12  1  0.55302397  0.11467857  0.62197937  1
  O  O13  1  0.44697603  0.61467857  0.87802063  1
  O  O14  1  0.44697603  0.88532143  0.37802063  1
  O  O15  1  0.55302397  0.38532143  0.12197937  1
  O  O16  1  0.05456242  0.22826970  0.76802441  1
  O  O17  1  0.94543758  0.72826970  0.73197559  1
  O  O18  1  0.94543758  0.77173030  0.23197559  1
  O  O19  1  0.05456242  0.27173030  0.26802441  1
  O  O20  1  0.22621653  0.15377910  0.87287309  1
  O  O21  1  0.77378347  0.65377910  0.62712691  1
  O  O22  1  0.77378347  0.84622090  0.12712691  1
  O  O23  1  0.22621653  0.34622090  0.37287309  1
  O  O24  1  0.03869111  0.47862640  0.88453677  1
  O  O25  1  0.96130889  0.97862640  0.61546323  1
  O  O26  1  0.96130889  0.52137360  0.11546323  1
  O  O27  1  0.03869111  0.02137360  0.38453677  1
  O  O28  1  0.96952614  0.04085416  0.88727508  1
  O  O29  1  0.03047386  0.54085416  0.61272492  1
  O  O30  1  0.03047386  0.95914584  0.11272492  1
  O  O31  1  0.96952614  0.45914584  0.38727508  1
loop_
_geom_bond_atom_site_label_1
_geom_bond_atom_site_label_2
_geom_bond_distance
_geom_bond_site_symmetry_2
Li0 O16 1.878791 1_555
Li0 O4 1.890238 1_555
Li0 O29 1.904891 1_555
Li0 O25 1.922599 1_445
Li1 O17 1.878791 1_555
Li1 O5 1.890238 1_555
Li1 O28 1.904891 1_565
Li1 O24 1.922599 1_655
Li2 O18 1.878791 1_555
Li2 O6 1.890238 1_555
Li2 O31 1.904891 1_555
Li2 O27 1.922599 1_665
Li3 O19 1.878791 1_555
Li3 O7 1.890238 1_555
Li3 O30 1.904891 1_545
Li3 O26 1.922599 1_455
Li4 O20 1.893964 1_555
Li4 O3 1.908260 1_556
Li4 O9 1.910854 1_555
Li4 O13 1.933397 1_555
Li5 O21 1.893964 1_555
Li5 O2 1.908260 1_555
Li5 O8 1.910854 1_555
Li5 O12 1.933397 1_565
Li6 O22 1.893964 1_555
Li6 O1 1.908260 1_554
Li6 O11 1.910854 1_555
Li6 O15 1.933397 1_555
Li7 O23 1.893964 1_555
Li7 O0 1.908260 1_555
Li7 O10 1.910854 1_555
Li7 O14 1.933397 1_545
H0 N0 1.028108 1_555
H1 N1 1.028108 1_555
H2 N2 1.028108 1_555
H3 N3 1.028108 1_555
H4 N0 1.030856 1_555
H5 N1 1.030856 1_555
H6 N2 1.030856 1_555
H7 N3 1.030856 1_555
H8 N0 1.032029 1_555
H9 N1 1.032029 1_555
H10 N2 1.032029 1_555
H11 N3 1.032029 1_555
H12 N0 1.036932 1_555
H13 N1 1.036932 1_555
H14 N2 1.036932 1_555
H15 N3 1.036932 1_555
H16 N4 1.024252 1_554
H17 N5 1.024252 1_555
H18 N6 1.024252 1_556
H19 N7 1.024252 1_555
H20 N4 1.025041 1_555
H21 N5 1.025041 1_555
H22 N6 1.025041 1_555
H23 N7 1.025041 1_555
H24 N4 1.037077 1_555
H25 N5 1.037077 1_555
H26 N6 1.037077 1_555
H27 N7 1.037077 1_555
H28 N4 1.036551 1_554
H29 N5 1.036551 1_555
H30 N6 1.036551 1_556
H31 N7 1.036551 1_555
O0 S0 1.465725 1_555
O1 S1 1.465725 1_555
O2 S2 1.465725 1_555
O3 S3 1.465725 1_555
O4 S0 1.471834 1_555
O5 S1 1.471834 1_555
O6 S2 1.471834 1_555
O7 S3 1.471834 1_555
O8 S0 1.473891 1_555
O9 S1 1.473891 1_545
O10 S2 1.473891 1_555
O11 S3 1.473891 1_565
O12 S0 1.478640 1_555
O13 S1 1.478640 1_555
O14 S2 1.478640 1_555
O15 S3 1.478640 1_555
O16 S4 1.459321 1_555
O17 S5 1.459321 1_555
O18 S6 1.459321 1_555
O19 S7 1.459321 1_555
O20 S4 1.465343 1_555
O21 S5 1.465343 1_555
O22 S6 1.465343 1_555
O23 S7 1.465343 1_555
O24 S4 1.479376 1_555
O25 S5 1.479376 1_555
O26 S6 1.479376 1_555
O27 S7 1.479376 1_555
O28 S4 1.480969 1_655
O29 S5 1.480969 1_455
O30 S6 1.480969 1_455
O31 S7 1.480969 1_655
