# generated using pymatgen
data_Mn5Te3O16
_symmetry_space_group_name_H-M   'P 1'
_cell_length_a   6.08044600
_cell_length_b   6.17770973
_cell_length_c   9.38268347
_cell_angle_alpha   92.63417955
_cell_angle_beta   89.21858838
_cell_angle_gamma   118.47444971
_symmetry_Int_Tables_number   1
_chemical_formula_structural   Mn5Te3O16
_chemical_formula_sum   'Mn5 Te3 O16'
_cell_volume   309.46759100
_cell_formula_units_Z   1
loop_
 _symmetry_equiv_pos_site_id
 _symmetry_equiv_pos_as_xyz
  1  'x, y, z'
loop_
 _atom_site_type_symbol
 _atom_site_label
 _atom_site_symmetry_multiplicity
 _atom_site_fract_x
 _atom_site_fract_y
 _atom_site_fract_z
 _atom_site_occupancy
  Mn  Mn0  1  0.32400700  0.64267400  0.49264200  1
  Mn  Mn1  1  0.16520800  0.33924500  0.79325300  1
  Mn  Mn2  1  0.65070100  0.30355600  0.02086500  1
  Mn  Mn3  1  0.33663200  0.16449900  0.29007200  1
  Mn  Mn4  1  0.83791000  0.16754100  0.28632200  1
  Te  Te0  1  0.16557500  0.83722100  0.78987500  1
  Te  Te1  1  0.66046100  0.83539600  0.78945500  1
  Te  Te2  1  0.84217500  0.66800400  0.28448900  1
  O  O0  1  0.15237800  0.82637600  0.39200300  1
  O  O1  1  0.48017100  0.96824600  0.67082100  1
  O  O2  1  0.34869300  0.70810800  0.90947300  1
  O  O3  1  0.98230200  0.97741900  0.68004100  1
  O  O4  1  0.98374000  0.97415200  0.18036800  1
  O  O5  1  0.66981700  0.82847700  0.38675100  1
  O  O6  1  0.04577200  0.54900700  0.67139900  1
  O  O7  1  0.50398400  0.54593200  0.67157000  1
  O  O8  1  0.84031900  0.69081400  0.89878000  1
  O  O9  1  0.15534400  0.30956400  0.38726200  1
  O  O10  1  0.54301400  0.48398300  0.15440800  1
  O  O11  1  0.96429300  0.47721000  0.16240200  1
  O  O12  1  0.69245800  0.36747300  0.39652800  1
  O  O13  1  0.31104000  0.13983300  0.90029900  1
  O  O14  1  0.53336100  0.05190200  0.17677900  1
  O  O15  1  0.81044300  0.14337000  0.89842400  1
loop_
_geom_bond_atom_site_label_1
_geom_bond_atom_site_label_2
_geom_bond_distance
_geom_bond_site_symmetry_2
Mn0 O9 2.022971 1_555
Mn0 O5 2.114799 1_555
Mn0 O0 2.126796 1_555
Mn0 O6 2.255751 1_555
Mn0 O7 2.266977 1_555
Mn0 O1 2.378021 1_555
Mn1 O13 2.119501 1_555
Mn1 O6 2.137751 1_555
Mn1 O15 2.157297 1_455
Mn1 O7 2.176914 1_555
Mn1 O3 2.192061 1_445
Mn1 O2 2.237637 1_555
Mn2 O10 1.945841 1_555
Mn2 O15 2.006013 1_554
Mn2 O14 2.046690 1_555
Mn2 O13 2.129513 1_554
Mn2 O11 2.130223 1_555
Mn2 O8 2.439387 1_554
Mn3 O9 1.920729 1_555
Mn3 O14 1.932732 1_555
Mn3 O0 2.110919 1_545
Mn3 O4 2.142311 1_445
Mn3 O12 2.146627 1_555
Mn3 O10 2.217230 1_555
Mn4 O14 1.928438 1_555
Mn4 O9 1.936728 1_655
Mn4 O4 2.019600 1_545
Mn4 O12 2.067895 1_555
Mn4 O11 2.092950 1_555
Mn4 O5 2.105664 1_545
O0 Te2 1.932362 1_455
O1 Te1 2.022241 1_555
O1 Te0 2.027442 1_555
O2 Te1 2.020352 1_555
O2 Te0 2.024440 1_555
O3 Te1 2.010994 1_555
O3 Te0 2.021800 1_655
O4 Te2 1.966441 1_555
O5 Te2 1.969152 1_555
O6 Te0 1.881476 1_555
O7 Te1 1.884400 1_555
O8 Te1 2.022917 1_555
O8 Te0 2.024269 1_655
O10 Te2 2.012978 1_555
O11 Te2 1.984949 1_555
O12 Te2 1.980513 1_555
O13 Te0 1.902865 1_545
O15 Te1 1.920673 1_545
