# generated using pymatgen
data_Li2Cr3CoO8
_symmetry_space_group_name_H-M   'P 1'
_cell_length_a   8.24173100
_cell_length_b   8.24173100
_cell_length_c   8.24173100
_cell_angle_alpha   90.00000000
_cell_angle_beta   90.00000000
_cell_angle_gamma   90.00000000
_symmetry_Int_Tables_number   1
_chemical_formula_structural   Li2Cr3CoO8
_chemical_formula_sum   'Li8 Cr12 Co4 O32'
_cell_volume   559.82889031
_cell_formula_units_Z   4
loop_
 _symmetry_equiv_pos_site_id
 _symmetry_equiv_pos_as_xyz
  1  'x, y, z'
loop_
 _atom_site_type_symbol
 _atom_site_label
 _atom_site_symmetry_multiplicity
 _atom_site_fract_x
 _atom_site_fract_y
 _atom_site_fract_z
 _atom_site_occupancy
  Li  Li0  1  0.99860500  0.99860500  0.99860500  1
  Li  Li1  1  0.25139500  0.25139500  0.25139500  1
  Li  Li2  1  0.24860500  0.74860500  0.75139500  1
  Li  Li3  1  0.50139500  0.00139500  0.49860500  1
  Li  Li4  1  0.49860500  0.50139500  0.00139500  1
  Li  Li5  1  0.75139500  0.24860500  0.74860500  1
  Li  Li6  1  0.74860500  0.75139500  0.24860500  1
  Li  Li7  1  0.00139500  0.49860500  0.50139500  1
  Cr  Cr0  1  0.12674700  0.12325300  0.62500000  1
  Cr  Cr1  1  0.12500000  0.37325300  0.87674700  1
  Cr  Cr2  1  0.12325300  0.62500000  0.12674700  1
  Cr  Cr3  1  0.37674700  0.37500000  0.62674700  1
  Cr  Cr4  1  0.37500000  0.62674700  0.37674700  1
  Cr  Cr5  1  0.37325300  0.87674700  0.12500000  1
  Cr  Cr6  1  0.62674700  0.37674700  0.37500000  1
  Cr  Cr7  1  0.62500000  0.12674700  0.12325300  1
  Cr  Cr8  1  0.62325300  0.87500000  0.87325300  1
  Cr  Cr9  1  0.87674700  0.12500000  0.37325300  1
  Cr  Cr10  1  0.87500000  0.87325300  0.62325300  1
  Cr  Cr11  1  0.87325300  0.62325300  0.87500000  1
  Co  Co0  1  0.12500000  0.87500000  0.37500000  1
  Co  Co1  1  0.37500000  0.12500000  0.87500000  1
  Co  Co2  1  0.62500000  0.62500000  0.62500000  1
  Co  Co3  1  0.87500000  0.37500000  0.12500000  1
  O  O0  1  0.11336200  0.11125500  0.38784100  1
  O  O1  1  0.11215900  0.88663800  0.61125500  1
  O  O2  1  0.10720400  0.60720400  0.89279600  1
  O  O3  1  0.13874500  0.13663800  0.86215900  1
  O  O4  1  0.11125500  0.38784100  0.11336200  1
  O  O5  1  0.14279600  0.35720400  0.64279600  1
  O  O6  1  0.13784100  0.63874500  0.36336200  1
  O  O7  1  0.13663800  0.86215900  0.13874500  1
  O  O8  1  0.36336200  0.13784100  0.63874500  1
  O  O9  1  0.36215900  0.36125500  0.86336200  1
  O  O10  1  0.35720400  0.64279600  0.14279600  1
  O  O11  1  0.38874500  0.61215900  0.61336200  1
  O  O12  1  0.36125500  0.86336200  0.36215900  1
  O  O13  1  0.39279600  0.39279600  0.39279600  1
  O  O14  1  0.38784100  0.11336200  0.11125500  1
  O  O15  1  0.38663800  0.88874500  0.88784100  1
  O  O16  1  0.61336200  0.38874500  0.61215900  1
  O  O17  1  0.61215900  0.61336200  0.38874500  1
  O  O18  1  0.60720400  0.89279600  0.10720400  1
  O  O19  1  0.63874500  0.36336200  0.13784100  1
  O  O20  1  0.61125500  0.11215900  0.88663800  1
  O  O21  1  0.64279600  0.14279600  0.35720400  1
  O  O22  1  0.63784100  0.86125500  0.63663800  1
  O  O23  1  0.63663800  0.63784100  0.86125500  1
  O  O24  1  0.86336200  0.36215900  0.36125500  1
  O  O25  1  0.86215900  0.13874500  0.13663800  1
  O  O26  1  0.85720400  0.85720400  0.85720400  1
  O  O27  1  0.88874500  0.88784100  0.38663800  1
  O  O28  1  0.86125500  0.63663800  0.63784100  1
  O  O29  1  0.89279600  0.10720400  0.60720400  1
  O  O30  1  0.88784100  0.38663800  0.88874500  1
  O  O31  1  0.88663800  0.61125500  0.11215900  1
loop_
_geom_bond_atom_site_label_1
_geom_bond_atom_site_label_2
_geom_bond_distance
_geom_bond_site_symmetry_2
Li0 O7 1.973027 1_656
Li0 O25 1.973027 1_566
Li0 O3 1.973027 1_665
Li0 O26 2.018513 1_555
Li1 O0 1.973027 1_555
Li1 O14 1.973027 1_555
Li1 O4 1.973027 1_555
Li1 O13 2.018513 1_555
Li2 O15 1.973027 1_555
Li2 O11 1.973027 1_555
Li2 O1 1.973027 1_555
Li2 O2 2.018513 1_555
Li3 O8 1.973027 1_555
Li3 O22 1.973027 1_545
Li3 O12 1.973027 1_545
Li3 O21 2.018513 1_555
Li4 O19 1.973027 1_555
Li4 O23 1.973027 1_554
Li4 O9 1.973027 1_554
Li4 O10 2.018513 1_555
Li5 O30 1.973027 1_555
Li5 O16 1.973027 1_555
Li5 O20 1.973027 1_555
Li5 O29 2.018513 1_555
Li6 O27 1.973027 1_555
Li6 O17 1.973027 1_555
Li6 O31 1.973027 1_555
Li6 O18 2.018513 1_555
Li7 O28 1.973027 1_455
Li7 O6 1.973027 1_555
Li7 O24 1.973027 1_455
Li7 O5 2.018513 1_555
Cr0 O29 1.938250 1_455
Cr0 O5 1.938250 1_555
Cr0 O1 1.957101 1_545
Cr0 O8 1.957101 1_555
Cr0 O3 1.960207 1_555
Cr0 O0 1.960207 1_555
Cr1 O2 1.938250 1_555
Cr1 O5 1.938250 1_555
Cr1 O4 1.957101 1_556
Cr1 O3 1.957101 1_555
Cr1 O9 1.960207 1_555
Cr1 O30 1.960207 1_455
Cr2 O2 1.938250 1_554
Cr2 O10 1.938250 1_555
Cr2 O31 1.957101 1_455
Cr2 O6 1.957101 1_555
Cr2 O7 1.960207 1_555
Cr2 O4 1.960207 1_555
Cr3 O5 1.938250 1_555
Cr3 O13 1.938250 1_555
Cr3 O9 1.957101 1_555
Cr3 O16 1.957101 1_555
Cr3 O8 1.960207 1_555
Cr3 O11 1.960207 1_555
Cr4 O10 1.938250 1_555
Cr4 O13 1.938250 1_555
Cr4 O12 1.957101 1_555
Cr4 O11 1.957101 1_555
Cr4 O6 1.960207 1_555
Cr4 O17 1.960207 1_555
Cr5 O18 1.938250 1_555
Cr5 O10 1.938250 1_555
Cr5 O14 1.957101 1_565
Cr5 O7 1.957101 1_555
Cr5 O12 1.960207 1_555
Cr5 O15 1.960207 1_554
Cr6 O21 1.938250 1_555
Cr6 O13 1.938250 1_555
Cr6 O24 1.957101 1_555
Cr6 O17 1.957101 1_555
Cr6 O19 1.960207 1_555
Cr6 O16 1.960207 1_555
Cr7 O18 1.938250 1_545
Cr7 O21 1.938250 1_555
Cr7 O20 1.957101 1_554
Cr7 O19 1.957101 1_555
Cr7 O25 1.960207 1_555
Cr7 O14 1.960207 1_555
Cr8 O26 1.938250 1_555
Cr8 O18 1.938250 1_556
Cr8 O22 1.957101 1_555
Cr8 O15 1.957101 1_555
Cr8 O20 1.960207 1_565
Cr8 O23 1.960207 1_555
Cr9 O29 1.938250 1_555
Cr9 O21 1.938250 1_555
Cr9 O0 1.957101 1_655
Cr9 O25 1.957101 1_555
Cr9 O27 1.960207 1_545
Cr9 O24 1.960207 1_555
Cr10 O26 1.938250 1_555
Cr10 O29 1.938250 1_565
Cr10 O28 1.957101 1_555
Cr10 O27 1.957101 1_555
Cr10 O1 1.960207 1_655
Cr10 O22 1.960207 1_555
Cr11 O26 1.938250 1_555
Cr11 O2 1.938250 1_655
Cr11 O23 1.957101 1_555
Cr11 O30 1.957101 1_555
Cr11 O31 1.960207 1_556
Cr11 O28 1.960207 1_555
Co0 O6 1.952382 1_555
Co0 O7 1.952382 1_555
Co0 O27 1.952382 1_455
Co0 O12 1.952382 1_555
Co0 O1 1.952382 1_555
Co0 O0 1.952382 1_565
Co1 O15 1.952382 1_545
Co1 O8 1.952382 1_555
Co1 O9 1.952382 1_555
Co1 O20 1.952382 1_555
Co1 O3 1.952382 1_555
Co1 O14 1.952382 1_556
Co2 O22 1.952382 1_555
Co2 O28 1.952382 1_555
Co2 O16 1.952382 1_555
Co2 O11 1.952382 1_555
Co2 O17 1.952382 1_555
Co2 O23 1.952382 1_555
Co3 O25 1.952382 1_555
Co3 O19 1.952382 1_555
Co3 O30 1.952382 1_554
Co3 O31 1.952382 1_555
Co3 O24 1.952382 1_555
Co3 O4 1.952382 1_655
