# generated using pymatgen
data_Li3Mn2V5O12
_symmetry_space_group_name_H-M   'P 1'
_cell_length_a   5.23126799
_cell_length_b   5.23126799
_cell_length_c   9.83734038
_cell_angle_alpha   85.40040120
_cell_angle_beta   85.40040120
_cell_angle_gamma   118.61194314
_symmetry_Int_Tables_number   1
_chemical_formula_structural   Li3Mn2V5O12
_chemical_formula_sum   'Li3 Mn2 V5 O12'
_cell_volume   233.40054851
_cell_formula_units_Z   1
loop_
 _symmetry_equiv_pos_site_id
 _symmetry_equiv_pos_as_xyz
  1  'x, y, z'
loop_
 _atom_site_type_symbol
 _atom_site_label
 _atom_site_symmetry_multiplicity
 _atom_site_fract_x
 _atom_site_fract_y
 _atom_site_fract_z
 _atom_site_occupancy
  Li  Li0  1  0.68198400  0.85092500  0.74686300  1
  Li  Li1  1  0.14907500  0.31801600  0.25313700  1
  Li  Li2  1  0.07754600  0.92245400  0.50000000  1
  Mn  Mn0  1  0.74581500  0.25418500  0.50000000  1
  Mn  Mn1  1  0.24043300  0.75956700  0.00000000  1
  V  V0  1  0.91647400  0.08352600  0.00000000  1
  V  V1  1  0.57701100  0.42298900  0.00000000  1
  V  V2  1  0.41871000  0.58129000  0.50000000  1
  V  V3  1  0.50086100  0.00114100  0.25328600  1
  V  V4  1  0.99885900  0.49913900  0.74671400  1
  O  O0  1  0.84199600  0.34086200  0.12321700  1
  O  O1  1  0.65913800  0.15800400  0.87678300  1
  O  O2  1  0.91835200  0.76144000  0.87969200  1
  O  O3  1  0.73301800  0.54458900  0.60685600  1
  O  O4  1  0.45541100  0.26698200  0.39314400  1
  O  O5  1  0.75961500  0.96060100  0.39034500  1
  O  O6  1  0.55718600  0.74095900  0.11458100  1
  O  O7  1  0.23856000  0.08164800  0.12030800  1
  O  O8  1  0.37641400  0.81056700  0.62595400  1
  O  O9  1  0.25904100  0.44281400  0.88541900  1
  O  O10  1  0.03939900  0.24038500  0.60965500  1
  O  O11  1  0.18943300  0.62358600  0.37404600  1
loop_
_geom_bond_atom_site_label_1
_geom_bond_atom_site_label_2
_geom_bond_distance
_geom_bond_site_symmetry_2
Li0 O8 2.009117 1_555
Li0 O2 2.042281 1_555
Li0 O1 2.171857 1_565
Li0 O10 2.230344 1_665
Li0 O3 2.289341 1_555
Li0 O9 2.415916 1_555
Li1 O11 2.009117 1_555
Li1 O7 2.042281 1_555
Li1 O0 2.171857 1_455
Li1 O5 2.230344 1_445
Li1 O4 2.289341 1_555
Li1 O6 2.415916 1_555
Li2 O3 2.052185 1_455
Li2 O4 2.052185 1_565
Li2 O5 2.130896 1_455
Li2 O10 2.130896 1_565
Li2 O11 2.322298 1_555
Li2 O8 2.322298 1_555
Mn0 O3 1.938971 1_555
Mn0 O4 1.938971 1_555
Mn0 O10 1.971541 1_655
Mn0 O5 1.971541 1_545
Mn0 O11 2.348369 1_655
Mn0 O8 2.348369 1_545
Mn1 O9 2.112381 1_554
Mn1 O6 2.112381 1_555
Mn1 O7 2.138557 1_565
Mn1 O2 2.138557 1_454
Mn1 O0 2.325466 1_455
Mn1 O1 2.325466 1_564
O0 V0 2.030170 1_555
O0 V3 2.052270 1_555
O0 V1 2.081288 1_555
O1 V0 2.030170 1_556
O1 V4 2.052270 1_555
O1 V1 2.081288 1_556
O2 V1 2.005248 1_556
O2 V4 2.127081 1_555
O2 V0 2.138588 1_566
O3 V2 2.095831 1_555
O3 V4 2.110577 1_555
O4 V2 2.095831 1_555
O4 V3 2.110577 1_555
O5 V3 2.053517 1_565
O5 V2 2.059213 1_555
O6 V0 2.031000 1_565
O6 V3 2.102064 1_565
O6 V1 2.120214 1_555
O7 V1 2.005248 1_555
O7 V3 2.127081 1_555
O7 V0 2.138588 1_455
O8 V2 1.863154 1_555
O8 V4 2.048875 1_455
O9 V0 2.031000 1_456
O9 V4 2.102064 1_455
O9 V1 2.120214 1_556
O10 V4 2.053517 1_455
O10 V2 2.059213 1_555
O11 V2 1.863154 1_555
O11 V3 2.048875 1_565
