# generated using pymatgen
data_K2B6H5NO2
_symmetry_space_group_name_H-M   'P 1'
_cell_length_a   9.02257290
_cell_length_b   9.02257290
_cell_length_c   8.21937800
_cell_angle_alpha   90.00000000
_cell_angle_beta   90.00000000
_cell_angle_gamma   140.79420608
_symmetry_Int_Tables_number   1
_chemical_formula_structural   K2B6H5NO2
_chemical_formula_sum   'K4 B12 H10 N2 O4'
_cell_volume   422.95173324
_cell_formula_units_Z   2
loop_
 _symmetry_equiv_pos_site_id
 _symmetry_equiv_pos_as_xyz
  1  'x, y, z'
loop_
 _atom_site_type_symbol
 _atom_site_label
 _atom_site_symmetry_multiplicity
 _atom_site_fract_x
 _atom_site_fract_y
 _atom_site_fract_z
 _atom_site_occupancy
  K  K0  1  0.71044500  0.28955500  0.75000000  1
  K  K1  1  0.28955500  0.71044500  0.25000000  1
  K  K2  1  0.00000000  0.00000000  0.50000000  1
  K  K3  1  0.00000000  0.00000000  0.00000000  1
  B  B0  1  0.42207700  0.57792300  0.75000000  1
  B  B1  1  0.57792300  0.42207700  0.25000000  1
  B  B2  1  0.50464400  0.20924700  0.35501800  1
  B  B3  1  0.49535600  0.79075300  0.85501800  1
  B  B4  1  0.49535600  0.79075300  0.64498200  1
  B  B5  1  0.50464400  0.20924700  0.14498200  1
  B  B6  1  0.20924700  0.50464400  0.64498200  1
  B  B7  1  0.79075300  0.49535600  0.14498200  1
  B  B8  1  0.79075300  0.49535600  0.35501800  1
  B  B9  1  0.20924700  0.50464400  0.85501800  1
  B  B10  1  0.28102600  0.71897400  0.75000000  1
  B  B11  1  0.71897400  0.28102600  0.25000000  1
  H  H0  1  0.63128000  0.93044900  0.53945800  1
  H  H1  1  0.36872000  0.06955100  0.03945800  1
  H  H2  1  0.36872000  0.06955100  0.46054200  1
  H  H3  1  0.63128000  0.93044900  0.96054200  1
  H  H4  1  0.06955100  0.36872000  0.53945800  1
  H  H5  1  0.93044900  0.63128000  0.03945800  1
  H  H6  1  0.93044900  0.63128000  0.46054200  1
  H  H7  1  0.06955100  0.36872000  0.96054200  1
  H  H8  1  0.21050200  0.78949800  0.75000000  1
  H  H9  1  0.78949800  0.21050200  0.25000000  1
  N  N0  1  0.51054200  0.48945800  0.75000000  1
  N  N1  1  0.48945800  0.51054200  0.25000000  1
  O  O0  1  0.72882600  0.63168100  0.75000000  1
  O  O1  1  0.27117400  0.36831900  0.25000000  1
  O  O2  1  0.36831900  0.27117400  0.75000000  1
  O  O3  1  0.63168100  0.72882600  0.25000000  1
loop_
_geom_bond_atom_site_label_1
_geom_bond_atom_site_label_2
_geom_bond_distance
_geom_bond_site_symmetry_2
K0 O0 2.960204 1_555
K0 O2 2.960204 1_555
K1 O3 2.960204 1_555
K1 O1 2.960204 1_555
K2 O1 2.941332 1_555
K2 O2 2.941332 1_555
K2 O3 2.941332 1_445
K2 O0 2.941332 1_445
K3 O1 2.941332 1_555
K3 O2 2.941332 1_554
K3 O3 2.941332 1_445
K3 O0 2.941332 1_444
B0 N0 1.503839 1_555
B1 N1 1.503839 1_555
B2 H2 1.203910 1_555
B3 H3 1.203910 1_555
B4 H0 1.203910 1_555
B5 H1 1.203910 1_555
B6 H4 1.203910 1_555
B7 H5 1.203910 1_555
B8 H6 1.203910 1_555
B9 H7 1.203910 1_555
B10 H8 1.198856 1_555
B11 H9 1.198856 1_555
H0 K2 2.886384 1_665
H1 K3 2.886384 1_555
H2 K2 2.886384 1_555
H3 K3 2.886384 1_666
H4 K2 2.886384 1_555
H5 K3 2.886384 1_665
H6 K2 2.886384 1_665
H7 K3 2.886384 1_556
N0 O0 1.268400 1_555
N0 O2 1.268400 1_555
N1 O3 1.268400 1_555
N1 O1 1.268400 1_555
