# generated using pymatgen
data_Li3CrPCO7
_symmetry_space_group_name_H-M   'P 1'
_cell_length_a   6.48494100
_cell_length_b   8.55502200
_cell_length_c   9.98871122
_cell_angle_alpha   84.91204430
_cell_angle_beta   90.00000000
_cell_angle_gamma   90.00000000
_symmetry_Int_Tables_number   1
_chemical_formula_structural   Li3CrPCO7
_chemical_formula_sum   'Li12 Cr4 P4 C4 O28'
_cell_volume   551.97829380
_cell_formula_units_Z   4
loop_
 _symmetry_equiv_pos_site_id
 _symmetry_equiv_pos_as_xyz
  1  'x, y, z'
loop_
 _atom_site_type_symbol
 _atom_site_label
 _atom_site_symmetry_multiplicity
 _atom_site_fract_x
 _atom_site_fract_y
 _atom_site_fract_z
 _atom_site_occupancy
  Li  Li0  1  0.74631000  0.89311000  0.61503800  1
  Li  Li1  1  0.75369000  0.89311000  0.11503800  1
  Li  Li2  1  0.98054100  0.70748800  0.88358900  1
  Li  Li3  1  0.51945900  0.70748800  0.38358900  1
  Li  Li4  1  0.25822800  0.64570500  0.61112800  1
  Li  Li5  1  0.24177200  0.64570500  0.11112800  1
  Li  Li6  1  0.75822800  0.35429500  0.88887200  1
  Li  Li7  1  0.74177200  0.35429500  0.38887200  1
  Li  Li8  1  0.48054100  0.29251200  0.61641100  1
  Li  Li9  1  0.01945900  0.29251200  0.11641100  1
  Li  Li10  1  0.24631000  0.10689000  0.88496200  1
  Li  Li11  1  0.25369000  0.10689000  0.38496200  1
  Cr  Cr0  1  0.48992000  0.73824900  0.87562000  1
  Cr  Cr1  1  0.01008000  0.73824900  0.37562000  1
  Cr  Cr2  1  0.98992000  0.26175100  0.62438000  1
  Cr  Cr3  1  0.51008000  0.26175100  0.12438000  1
  P  P0  1  0.75343200  0.58954300  0.63900200  1
  P  P1  1  0.74656800  0.58954300  0.13900200  1
  P  P2  1  0.25343200  0.41045700  0.86099800  1
  P  P3  1  0.24656800  0.41045700  0.36099800  1
  C  C0  1  0.25048100  0.96185200  0.64719000  1
  C  C1  1  0.24951900  0.96185200  0.14719000  1
  C  C2  1  0.75048100  0.03814800  0.85281000  1
  C  C3  1  0.74951900  0.03814800  0.35281000  1
  O  O0  1  0.24669300  0.93536400  0.52354200  1
  O  O1  1  0.73407400  0.89238500  0.81774700  1
  O  O2  1  0.25330700  0.93536400  0.02354200  1
  O  O3  1  0.26763600  0.85024100  0.74266000  1
  O  O4  1  0.76592600  0.89238500  0.31774700  1
  O  O5  1  0.23236400  0.85024100  0.24266000  1
  O  O6  1  0.94300300  0.68830700  0.58343200  1
  O  O7  1  0.56401000  0.68593700  0.58638800  1
  O  O8  1  0.93599000  0.68593700  0.08638800  1
  O  O9  1  0.55699700  0.68830700  0.08343200  1
  O  O10  1  0.25175100  0.57827000  0.91114500  1
  O  O11  1  0.76150900  0.57365200  0.79480900  1
  O  O12  1  0.24824900  0.57827000  0.41114500  1
  O  O13  1  0.73849100  0.57365200  0.29480900  1
  O  O14  1  0.26150900  0.42634800  0.70519100  1
  O  O15  1  0.75175100  0.42173000  0.58885500  1
  O  O16  1  0.23849100  0.42634800  0.20519100  1
  O  O17  1  0.74824900  0.42173000  0.08885500  1
  O  O18  1  0.06401000  0.31406300  0.91361200  1
  O  O19  1  0.44300300  0.31169300  0.91656800  1
  O  O20  1  0.43599000  0.31406300  0.41361200  1
  O  O21  1  0.05699700  0.31169300  0.41656800  1
  O  O22  1  0.76763600  0.14975900  0.75734000  1
  O  O23  1  0.23407400  0.10761500  0.68225300  1
  O  O24  1  0.73236400  0.14975900  0.25734000  1
  O  O25  1  0.74669300  0.06463600  0.97645800  1
  O  O26  1  0.26592600  0.10761500  0.18225300  1
  O  O27  1  0.75330700  0.06463600  0.47645800  1
loop_
_geom_bond_atom_site_label_1
_geom_bond_atom_site_label_2
_geom_bond_distance
_geom_bond_site_symmetry_2
Li0 O27 1.926441 1_565
Li0 O1 2.025816 1_555
Li0 O7 2.170429 1_555
Li0 O6 2.212379 1_555
Li1 O25 1.926441 1_564
Li1 O4 2.025816 1_555
Li1 O8 2.170429 1_555
Li1 O9 2.212379 1_555
Li2 O8 2.038303 1_556
Li2 O11 2.072444 1_555
Li2 O10 2.082583 1_655
Li2 O1 2.303203 1_555
Li2 O3 2.575739 1_655
Li3 O7 2.038303 1_555
Li3 O13 2.072444 1_555
Li3 O12 2.082583 1_555
Li3 O4 2.303203 1_555
Li3 O5 2.575739 1_555
Li4 O14 2.022905 1_555
Li4 O7 2.024018 1_555
Li4 O6 2.090526 1_455
Li4 O12 2.128781 1_555
Li4 O3 2.280238 1_555
Li4 O0 2.554827 1_555
Li5 O16 2.022905 1_555
Li5 O8 2.024018 1_455
Li5 O9 2.090526 1_555
Li5 O10 2.128781 1_554
Li5 O5 2.280238 1_555
Li5 O2 2.554827 1_555
Li6 O11 2.022905 1_555
Li6 O18 2.024018 1_655
Li6 O19 2.090526 1_555
Li6 O17 2.128781 1_556
Li6 O22 2.280238 1_555
Li6 O25 2.554827 1_555
Li7 O13 2.022905 1_555
Li7 O20 2.024018 1_555
Li7 O21 2.090526 1_655
Li7 O15 2.128781 1_555
Li7 O24 2.280238 1_555
Li7 O27 2.554827 1_555
Li8 O20 2.038303 1_555
Li8 O14 2.072444 1_555
Li8 O15 2.082583 1_555
Li8 O23 2.303203 1_555
Li8 O22 2.575739 1_555
Li9 O18 2.038303 1_554
Li9 O16 2.072444 1_555
Li9 O17 2.082583 1_455
Li9 O26 2.303203 1_555
Li9 O24 2.575739 1_455
Li10 O2 1.926441 1_546
Li10 O23 2.025816 1_555
Li10 O18 2.170429 1_555
Li10 O19 2.212379 1_555
Li11 O0 1.926441 1_545
Li11 O26 2.025816 1_555
Li11 O20 2.170429 1_555
Li11 O21 2.212379 1_555
Cr0 O10 2.073264 1_555
Cr0 O1 2.108243 1_555
Cr0 O9 2.126804 1_556
Cr0 O3 2.129323 1_555
Cr0 O11 2.436795 1_555
Cr1 O12 2.073264 1_555
Cr1 O4 2.108243 1_455
Cr1 O6 2.126804 1_455
Cr1 O5 2.129323 1_555
Cr1 O13 2.436795 1_455
Cr2 O15 2.073264 1_555
Cr2 O23 2.108243 1_655
Cr2 O21 2.126804 1_655
Cr2 O22 2.129323 1_555
Cr2 O14 2.436795 1_655
Cr3 O17 2.073264 1_555
Cr3 O26 2.108243 1_555
Cr3 O19 2.126804 1_554
Cr3 O24 2.129323 1_555
Cr3 O16 2.436795 1_555
C0 O0 1.275550 1_555
C0 O3 1.293049 1_555
C0 O23 1.329087 1_565
C1 O2 1.275550 1_555
C1 O5 1.293049 1_555
C1 O26 1.329087 1_565
C2 O25 1.275550 1_555
C2 O22 1.293049 1_555
C2 O1 1.329087 1_545
C3 O27 1.275550 1_555
C3 O24 1.293049 1_555
C3 O4 1.329087 1_545
O6 P0 1.565293 1_555
O7 P0 1.545420 1_555
O8 P1 1.545420 1_555
O9 P1 1.565293 1_555
O10 P2 1.561937 1_555
O11 P0 1.551065 1_555
O12 P3 1.561937 1_555
O13 P1 1.551065 1_555
O14 P2 1.551065 1_555
O15 P0 1.561937 1_555
O16 P3 1.551065 1_555
O17 P1 1.561937 1_555
O18 P2 1.545420 1_555
O19 P2 1.565293 1_555
O20 P3 1.545420 1_555
O21 P3 1.565293 1_555
