# generated using pymatgen
data_Li10Cr(SiO5)2
_symmetry_space_group_name_H-M   'P 1'
_cell_length_a   6.13186887
_cell_length_b   15.39878260
_cell_length_c   5.16146551
_cell_angle_alpha   79.78907330
_cell_angle_beta   90.02375198
_cell_angle_gamma   78.57482852
_symmetry_Int_Tables_number   1
_chemical_formula_structural   Li10Cr(SiO5)2
_chemical_formula_sum   'Li20 Cr2 Si4 O20'
_cell_volume   469.82024718
_cell_formula_units_Z   2
loop_
 _symmetry_equiv_pos_site_id
 _symmetry_equiv_pos_as_xyz
  1  'x, y, z'
loop_
 _atom_site_type_symbol
 _atom_site_label
 _atom_site_symmetry_multiplicity
 _atom_site_fract_x
 _atom_site_fract_y
 _atom_site_fract_z
 _atom_site_occupancy
  Li  Li0  1  0.50934400  0.98121400  0.75915600  1
  Li  Li1  1  0.35184500  0.86837600  0.23784400  1
  Li  Li2  1  0.77766200  0.86735400  0.23701400  1
  Li  Li3  1  0.13025100  0.73685300  0.48226800  1
  Li  Li4  1  0.34614500  0.73855700  0.02639500  1
  Li  Li5  1  0.91558000  0.73841500  0.02405800  1
  Li  Li6  1  0.67237500  0.65017000  0.41718300  1
  Li  Li7  1  0.43833600  0.61062200  0.78892600  1
  Li  Li8  1  0.95275400  0.61088100  0.78599600  1
  Li  Li9  1  0.73219300  0.54051300  0.13334500  1
  Li  Li10  1  0.26933000  0.45999600  0.86122800  1
  Li  Li11  1  0.56268500  0.38967000  0.21005800  1
  Li  Li12  1  0.04765200  0.38980500  0.21093500  1
  Li  Li13  1  0.32622500  0.34882500  0.57897800  1
  Li  Li14  1  0.08277500  0.26211400  0.97593600  1
  Li  Li15  1  0.64909700  0.26178200  0.97496200  1
  Li  Li16  1  0.86670600  0.26214100  0.51955600  1
  Li  Li17  1  0.64448400  0.13171000  0.76544600  1
  Li  Li18  1  0.21964400  0.13116500  0.76637500  1
  Li  Li19  1  0.48999900  0.01739300  0.24637400  1
  Cr  Cr0  1  0.03380200  0.92963100  0.87120900  1
  Cr  Cr1  1  0.96094500  0.07244300  0.13474300  1
  Si  Si0  1  0.60025400  0.79965000  0.69257800  1
  Si  Si1  1  0.22034600  0.56256200  0.30740700  1
  Si  Si2  1  0.78123500  0.43781000  0.68998800  1
  Si  Si3  1  0.39863100  0.19962600  0.30915900  1
  O  O0  1  0.55028100  0.89962900  0.49839700  1
  O  O1  1  0.08835500  0.81626200  0.13227300  1
  O  O2  1  0.59450400  0.80973700  0.00725500  1
  O  O3  1  0.41017700  0.74263000  0.63478000  1
  O  O4  1  0.84481900  0.74195900  0.63383100  1
  O  O5  1  0.97021900  0.61378400  0.16847700  1
  O  O6  1  0.42050100  0.61376400  0.17069600  1
  O  O7  1  0.21488900  0.57284700  0.61861800  1
  O  O8  1  0.72899800  0.54365800  0.73601500  1
  O  O9  1  0.27228300  0.45678400  0.26106900  1
  O  O10  1  0.78591200  0.42809900  0.37787200  1
  O  O11  1  0.03191100  0.38654400  0.82761000  1
  O  O12  1  0.58219300  0.38655900  0.82801600  1
  O  O13  1  0.15176500  0.25715300  0.36687300  1
  O  O14  1  0.58522000  0.25741200  0.36796800  1
  O  O15  1  0.40230800  0.18990700  0.99468300  1
  O  O16  1  0.90317300  0.18323600  0.87142900  1
  O  O17  1  0.44694500  0.09952300  0.50447800  1
  O  O18  1  0.24942000  0.99989700  0.00354600  1
  O  O19  1  0.76024000  0.00055700  0.00005700  1
loop_
_geom_bond_atom_site_label_1
_geom_bond_atom_site_label_2
_geom_bond_distance
_geom_bond_site_symmetry_2
Li0 O0 1.981817 1_555
Li0 O17 2.016856 1_565
Li0 O18 2.040308 1_556
Li0 O19 2.076752 1_566
Li1 O0 1.995209 1_555
Li1 O1 2.054101 1_555
Li1 O2 2.072699 1_555
Li1 O18 2.141424 1_555
Li1 O3 2.528494 1_555
Li2 O0 1.993959 1_555
Li2 O1 2.024501 1_655
Li2 O2 2.054649 1_555
Li2 O19 2.176734 1_565
Li2 O4 2.524901 1_555
Li3 O4 1.910468 1_455
Li3 O3 1.912601 1_555
Li3 O1 1.979045 1_555
Li3 O7 2.448066 1_555
Li4 O6 1.897512 1_555
Li4 O1 1.926743 1_555
Li4 O2 2.038000 1_555
Li4 O3 2.051645 1_554
Li5 O5 1.894450 1_555
Li5 O1 1.900372 1_655
Li5 O4 2.049132 1_554
Li5 O2 2.049226 1_555
Li6 O8 2.082247 1_555
Li6 O6 2.216411 1_555
Li6 O5 2.269108 1_555
Li6 O4 2.349008 1_555
Li6 O3 2.352654 1_555
Li7 O7 1.866660 1_555
Li7 O8 1.920056 1_555
Li7 O6 1.982177 1_556
Li7 O3 2.020488 1_555
Li8 O7 1.865640 1_655
Li8 O8 1.917721 1_555
Li8 O5 1.985899 1_556
Li8 O4 2.009293 1_555
Li9 O10 1.922783 1_555
Li9 O5 2.039831 1_555
Li9 O8 2.042770 1_554
Li9 O6 2.045898 1_555
Li10 O7 1.922928 1_555
Li10 O11 2.037298 1_555
Li10 O12 2.048926 1_555
Li10 O9 2.055560 1_556
Li11 O10 1.864317 1_555
Li11 O9 1.917311 1_555
Li11 O12 1.984036 1_554
Li11 O14 2.032505 1_555
Li12 O10 1.863430 1_455
Li12 O9 1.919673 1_555
Li12 O11 1.990819 1_554
Li12 O13 2.031736 1_555
Li13 O9 2.092877 1_555
Li13 O12 2.253410 1_555
Li13 O11 2.256561 1_555
Li13 O14 2.312817 1_555
Li13 O13 2.341126 1_555
Li14 O11 1.896754 1_555
Li14 O16 1.934135 1_455
Li14 O15 2.045305 1_555
Li14 O13 2.046505 1_556
Li15 O12 1.898990 1_555
Li15 O16 1.912859 1_555
Li15 O15 2.036929 1_555
Li15 O14 2.058011 1_556
Li16 O13 1.910935 1_655
Li16 O14 1.914563 1_555
Li16 O16 1.983551 1_555
Li16 O10 2.479232 1_555
Li17 O17 2.000103 1_555
Li17 O16 2.024043 1_555
Li17 O15 2.063597 1_555
Li17 O19 2.147846 1_556
Li17 O14 2.529926 1_555
Li18 O17 1.993328 1_555
Li18 O15 2.059037 1_555
Li18 O16 2.059439 1_455
Li18 O18 2.143385 1_546
Li18 O13 2.539692 1_555
Li19 O17 1.977188 1_555
Li19 O0 2.003730 1_545
Li19 O18 2.023691 1_545
Li19 O19 2.092341 1_555
Cr0 O1 1.977237 1_556
Cr0 O19 1.995390 1_466
Cr0 O18 2.052659 1_556
Cr1 O16 1.954836 1_554
Cr1 O19 2.008752 1_555
Cr1 O18 2.078899 1_645
O0 Si0 1.653608 1_555
O2 Si0 1.658524 1_554
O3 Si0 1.648157 1_555
O4 Si0 1.642604 1_555
O5 Si1 1.675709 1_655
O6 Si1 1.677119 1_555
O7 Si1 1.641511 1_555
O8 Si2 1.657173 1_555
O9 Si1 1.656641 1_555
O10 Si2 1.643830 1_555
O11 Si2 1.676315 1_455
O12 Si2 1.674215 1_555
O13 Si3 1.651539 1_555
O14 Si3 1.640675 1_555
O15 Si3 1.656009 1_556
O17 Si3 1.657733 1_555
