# generated using pymatgen
data_Li2FeNi3O8
_symmetry_space_group_name_H-M   'P 1'
_cell_length_a   5.85039257
_cell_length_b   5.85039257
_cell_length_c   5.86202248
_cell_angle_alpha   60.46892470
_cell_angle_beta   60.46892470
_cell_angle_gamma   58.55365925
_symmetry_Int_Tables_number   1
_chemical_formula_structural   Li2FeNi3O8
_chemical_formula_sum   'Li2 Fe1 Ni3 O8'
_cell_volume   141.22362606
_cell_formula_units_Z   1
loop_
 _symmetry_equiv_pos_site_id
 _symmetry_equiv_pos_as_xyz
  1  'x, y, z'
loop_
 _atom_site_type_symbol
 _atom_site_label
 _atom_site_symmetry_multiplicity
 _atom_site_fract_x
 _atom_site_fract_y
 _atom_site_fract_z
 _atom_site_occupancy
  Li  Li0  1  0.50000000  0.00000000  0.50000000  1
  Li  Li1  1  0.00000000  0.50000000  0.50000000  1
  Fe  Fe0  1  0.00000000  0.00000000  0.00000000  1
  Ni  Ni0  1  0.50000000  0.00000000  0.00000000  1
  Ni  Ni1  1  0.00000000  0.50000000  0.00000000  1
  Ni  Ni2  1  0.50000000  0.50000000  0.00000000  1
  O  O0  1  0.72304800  0.72304800  0.79677400  1
  O  O1  1  0.25287700  0.74893500  0.78545100  1
  O  O2  1  0.74893500  0.25287700  0.78545100  1
  O  O3  1  0.22636900  0.22636900  0.78709800  1
  O  O4  1  0.77363100  0.77363100  0.21290200  1
  O  O5  1  0.25106500  0.74712300  0.21454900  1
  O  O6  1  0.74712300  0.25106500  0.21454900  1
  O  O7  1  0.27695200  0.27695200  0.20322600  1
loop_
_geom_bond_atom_site_label_1
_geom_bond_atom_site_label_2
_geom_bond_distance
_geom_bond_site_symmetry_2
Li0 O1 2.110851 1_545
Li0 O6 2.110851 1_555
Li0 O3 2.116174 1_555
Li0 O4 2.116174 1_545
Li0 O7 2.146562 1_555
Li0 O0 2.146562 1_545
Li1 O2 2.110851 1_455
Li1 O5 2.110851 1_555
Li1 O3 2.116174 1_555
Li1 O4 2.116174 1_455
Li1 O7 2.146562 1_555
Li1 O0 2.146562 1_455
Fe0 O3 1.907015 1_554
Fe0 O4 1.907015 1_445
Fe0 O2 1.909837 1_454
Fe0 O1 1.909837 1_544
Fe0 O6 1.909837 1_455
Fe0 O5 1.909837 1_545
Ni0 O7 1.977778 1_555
Ni0 O0 1.977778 1_544
Ni0 O4 2.000574 1_545
Ni0 O3 2.000574 1_554
Ni0 O2 2.121260 1_554
Ni0 O5 2.121260 1_545
Ni1 O7 1.977778 1_555
Ni1 O0 1.977778 1_454
Ni1 O4 2.000574 1_455
Ni1 O3 2.000574 1_554
Ni1 O1 2.121260 1_554
Ni1 O6 2.121260 1_455
Ni2 O0 1.880587 1_554
Ni2 O7 1.880587 1_555
Ni2 O6 1.892866 1_555
Ni2 O1 1.892866 1_554
Ni2 O2 1.892866 1_554
Ni2 O5 1.892866 1_555
