# generated using pymatgen
data_Li6V2C4SO16
_symmetry_space_group_name_H-M   'P 1'
_cell_length_a   9.47050598
_cell_length_b   9.47050598
_cell_length_c   9.47050598
_cell_angle_alpha   60.00000000
_cell_angle_beta   60.00000000
_cell_angle_gamma   60.00000000
_symmetry_Int_Tables_number   1
_chemical_formula_structural   Li6V2C4SO16
_chemical_formula_sum   'Li12 V4 C8 S2 O32'
_cell_volume   600.62658371
_cell_formula_units_Z   2
loop_
 _symmetry_equiv_pos_site_id
 _symmetry_equiv_pos_as_xyz
  1  'x, y, z'
loop_
 _atom_site_type_symbol
 _atom_site_label
 _atom_site_symmetry_multiplicity
 _atom_site_fract_x
 _atom_site_fract_y
 _atom_site_fract_z
 _atom_site_occupancy
  Li  Li0  1  0.71740200  0.71740200  0.28259800  1
  Li  Li1  1  0.28259800  0.71740200  0.71740200  1
  Li  Li2  1  0.71740200  0.28259800  0.71740200  1
  Li  Li3  1  0.28259800  0.71740200  0.28259800  1
  Li  Li4  1  0.53259800  0.96740200  0.96740200  1
  Li  Li5  1  0.96740200  0.96740200  0.53259800  1
  Li  Li6  1  0.71740200  0.28259800  0.28259800  1
  Li  Li7  1  0.28259800  0.28259800  0.71740200  1
  Li  Li8  1  0.53259800  0.96740200  0.53259800  1
  Li  Li9  1  0.96740200  0.53259800  0.96740200  1
  Li  Li10  1  0.53259800  0.53259800  0.96740200  1
  Li  Li11  1  0.96740200  0.53259800  0.53259800  1
  V  V0  1  0.12500000  0.62500000  0.12500000  1
  V  V1  1  0.12500000  0.12500000  0.62500000  1
  V  V2  1  0.62500000  0.12500000  0.12500000  1
  V  V3  1  0.12500000  0.12500000  0.12500000  1
  C  C0  1  0.89992700  0.89992700  0.89992700  1
  C  C1  1  0.89992700  0.89992700  0.30021800  1
  C  C2  1  0.30021800  0.89992700  0.89992700  1
  C  C3  1  0.89992700  0.30021800  0.89992700  1
  C  C4  1  0.35007300  0.94978200  0.35007300  1
  C  C5  1  0.35007300  0.35007300  0.94978200  1
  C  C6  1  0.94978200  0.35007300  0.35007300  1
  C  C7  1  0.35007300  0.35007300  0.35007300  1
  S  S0  1  0.75000000  0.75000000  0.75000000  1
  S  S1  1  0.50000000  0.50000000  0.50000000  1
  O  O0  1  0.68551200  0.68551200  0.68551200  1
  O  O1  1  0.68551200  0.68551200  0.94346500  1
  O  O2  1  0.94346500  0.68551200  0.68551200  1
  O  O3  1  0.68551200  0.94346500  0.68551200  1
  O  O4  1  0.90734100  0.75900000  0.03271800  1
  O  O5  1  0.03271800  0.90734100  0.75900000  1
  O  O6  1  0.30094100  0.75900000  0.90734100  1
  O  O7  1  0.75900000  0.03271800  0.90734100  1
  O  O8  1  0.03271800  0.75900000  0.30094100  1
  O  O9  1  0.75900000  0.90734100  0.30094100  1
  O  O10  1  0.30094100  0.03271800  0.75900000  1
  O  O11  1  0.30094100  0.90734100  0.03271800  1
  O  O12  1  0.90734100  0.30094100  0.75900000  1
  O  O13  1  0.90734100  0.03271800  0.30094100  1
  O  O14  1  0.75900000  0.30094100  0.03271800  1
  O  O15  1  0.21728200  0.94905900  0.34265900  1
  O  O16  1  0.03271800  0.30094100  0.90734100  1
  O  O17  1  0.49100000  0.94905900  0.21728200  1
  O  O18  1  0.34265900  0.21728200  0.94905900  1
  O  O19  1  0.34265900  0.94905900  0.49100000  1
  O  O20  1  0.94905900  0.34265900  0.21728200  1
  O  O21  1  0.94905900  0.21728200  0.49100000  1
  O  O22  1  0.49100000  0.34265900  0.94905900  1
  O  O23  1  0.21728200  0.49100000  0.94905900  1
  O  O24  1  0.49100000  0.21728200  0.34265900  1
  O  O25  1  0.94905900  0.49100000  0.34265900  1
  O  O26  1  0.21728200  0.34265900  0.49100000  1
  O  O27  1  0.34265900  0.49100000  0.21728200  1
  O  O28  1  0.56448800  0.30653500  0.56448800  1
  O  O29  1  0.56448800  0.56448800  0.30653500  1
  O  O30  1  0.30653500  0.56448800  0.56448800  1
  O  O31  1  0.56448800  0.56448800  0.56448800  1
loop_
_geom_bond_atom_site_label_1
_geom_bond_atom_site_label_2
_geom_bond_distance
_geom_bond_site_symmetry_2
Li0 O4 2.123841 1_555
Li0 O9 2.123841 1_555
Li0 O17 2.249084 1_555
Li0 O25 2.249084 1_555
Li0 O31 2.384616 1_555
Li0 O29 2.384621 1_555
Li1 O5 2.123841 1_555
Li1 O6 2.123841 1_555
Li1 O23 2.249084 1_555
Li1 O19 2.249084 1_555
Li1 O31 2.384616 1_555
Li1 O30 2.384621 1_555
Li2 O7 2.123841 1_555
Li2 O12 2.123841 1_555
Li2 O21 2.249084 1_555
Li2 O22 2.249084 1_555
Li2 O31 2.384616 1_555
Li2 O28 2.384621 1_555
Li3 O8 2.123841 1_555
Li3 O11 2.123841 1_555
Li3 O27 2.249084 1_555
Li3 O15 2.249084 1_555
Li3 O29 2.384613 1_555
Li3 O30 2.384613 1_555
Li4 O17 2.123841 1_556
Li4 O18 2.123841 1_565
Li4 O7 2.249084 1_565
Li4 O11 2.249084 1_556
Li4 O1 2.384613 1_555
Li4 O3 2.384613 1_555
Li5 O21 2.123841 1_565
Li5 O15 2.123841 1_655
Li5 O5 2.249084 1_655
Li5 O13 2.249084 1_565
Li5 O2 2.384613 1_555
Li5 O3 2.384613 1_555
Li6 O14 2.123841 1_555
Li6 O13 2.123841 1_555
Li6 O24 2.249084 1_555
Li6 O20 2.249084 1_555
Li6 O29 2.384613 1_555
Li6 O28 2.384613 1_555
Li7 O10 2.123841 1_555
Li7 O16 2.123841 1_555
Li7 O26 2.249084 1_555
Li7 O18 2.249084 1_555
Li7 O28 2.384613 1_555
Li7 O30 2.384613 1_555
Li8 O24 2.123841 1_565
Li8 O19 2.123841 1_555
Li8 O9 2.249084 1_555
Li8 O10 2.249084 1_565
Li8 O0 2.384616 1_555
Li8 O3 2.384621 1_555
Li9 O23 2.123841 1_655
Li9 O20 2.123841 1_556
Li9 O16 2.249084 1_655
Li9 O4 2.249084 1_556
Li9 O1 2.384613 1_555
Li9 O2 2.384613 1_555
Li10 O27 2.123841 1_556
Li10 O22 2.123841 1_555
Li10 O6 2.249084 1_555
Li10 O14 2.249084 1_556
Li10 O0 2.384616 1_555
Li10 O1 2.384621 1_555
Li11 O26 2.123841 1_655
Li11 O25 2.123841 1_555
Li11 O12 2.249084 1_555
Li11 O8 2.249084 1_655
Li11 O0 2.384616 1_555
Li11 O2 2.384621 1_555
C0 O4 1.297656 1_556
C0 O7 1.297656 1_565
C0 O5 1.297656 1_655
C1 O9 1.297651 1_555
C1 O8 1.297655 1_655
C1 O13 1.297660 1_565
C2 O6 1.297651 1_555
C2 O10 1.297655 1_565
C2 O11 1.297660 1_556
C3 O12 1.297651 1_555
C3 O14 1.297655 1_556
C3 O16 1.297660 1_655
C4 O19 1.297651 1_555
C4 O17 1.297655 1_555
C4 O15 1.297660 1_555
C5 O22 1.297651 1_555
C5 O23 1.297655 1_555
C5 O18 1.297660 1_555
C6 O25 1.297651 1_555
C6 O21 1.297655 1_555
C6 O20 1.297660 1_555
C7 O24 1.297656 1_555
C7 O27 1.297656 1_555
C7 O26 1.297656 1_555
O0 S0 1.495987 1_555
O1 S0 1.495994 1_555
O2 S0 1.495994 1_555
O3 S0 1.495994 1_555
O4 V0 2.167925 1_655
O5 V1 2.167925 1_565
O6 V0 2.167925 1_556
O7 V2 2.167925 1_556
O8 V0 2.167925 1_555
O9 V2 2.167925 1_565
O10 V1 2.167925 1_555
O11 V3 2.167925 1_565
O12 V1 2.167925 1_655
O13 V3 2.167925 1_655
O14 V2 2.167925 1_555
O15 V3 2.167925 1_565
O16 V3 2.167925 1_556
O17 V2 2.167925 1_565
O18 V3 2.167925 1_556
O19 V1 2.167925 1_565
O20 V3 2.167925 1_655
O21 V1 2.167925 1_655
O22 V2 2.167925 1_556
O23 V0 2.167925 1_556
O24 V2 2.167925 1_555
O25 V0 2.167925 1_655
O26 V1 2.167925 1_555
O27 V0 2.167925 1_555
O28 S1 1.495994 1_555
O29 S1 1.495994 1_555
O30 S1 1.495994 1_555
O31 S1 1.495987 1_555
