# generated using pymatgen
data_Li2VCoO4
_symmetry_space_group_name_H-M   'P 1'
_cell_length_a   5.18371463
_cell_length_b   5.90049077
_cell_length_c   7.87015490
_cell_angle_alpha   78.40266979
_cell_angle_beta   70.48689402
_cell_angle_gamma   90.36106544
_symmetry_Int_Tables_number   1
_chemical_formula_structural   Li2VCoO4
_chemical_formula_sum   'Li6 V3 Co3 O12'
_cell_volume   221.55791620
_cell_formula_units_Z   3
loop_
 _symmetry_equiv_pos_site_id
 _symmetry_equiv_pos_as_xyz
  1  'x, y, z'
loop_
 _atom_site_type_symbol
 _atom_site_label
 _atom_site_symmetry_multiplicity
 _atom_site_fract_x
 _atom_site_fract_y
 _atom_site_fract_z
 _atom_site_occupancy
  Li  Li0  1  0.00424300  0.50373800  0.00270800  1
  Li  Li1  1  0.00404300  0.33162900  0.66351000  1
  Li  Li2  1  0.99827300  0.00059600  0.00104800  1
  Li  Li3  1  0.99831400  0.65785100  0.33159300  1
  Li  Li4  1  0.00159500  0.16908000  0.33186000  1
  Li  Li5  1  0.99442700  0.83489800  0.66980400  1
  V  V0  1  0.50222200  0.25966300  0.99583600  1
  V  V1  1  0.49906700  0.90810700  0.33526100  1
  V  V2  1  0.50089900  0.08279200  0.66650100  1
  Co  Co0  1  0.50124100  0.74897700  0.00231300  1
  Co  Co1  1  0.49659200  0.41971000  0.33058000  1
  Co  Co2  1  0.49848700  0.58281500  0.66696600  1
  O  O0  1  0.28146900  0.97498300  0.16234000  1
  O  O1  1  0.26173900  0.44612600  0.15882600  1
  O  O2  1  0.27308700  0.11241700  0.50120800  1
  O  O3  1  0.26011200  0.64826600  0.48946100  1
  O  O4  1  0.26954900  0.27944700  0.83652600  1
  O  O5  1  0.27483800  0.81251500  0.82008300  1
  O  O6  1  0.74001700  0.72271100  0.17645600  1
  O  O7  1  0.71961300  0.19294700  0.16911000  1
  O  O8  1  0.72527900  0.35208100  0.51347300  1
  O  O9  1  0.72935700  0.88481500  0.49719700  1
  O  O10  1  0.73767800  0.52017900  0.84600800  1
  O  O11  1  0.72786100  0.05365500  0.83133100  1
loop_
_geom_bond_atom_site_label_1
_geom_bond_atom_site_label_2
_geom_bond_distance
_geom_bond_site_symmetry_2
Li0 O1 2.083324 1_555
Li0 O10 2.128777 1_454
Li0 O4 2.206952 1_554
Li0 O6 2.212850 1_455
Li0 O5 2.218306 1_554
Li0 O7 2.228087 1_455
Li1 O11 2.078576 1_455
Li1 O10 2.131700 1_455
Li1 O8 2.140515 1_455
Li1 O2 2.178673 1_555
Li1 O3 2.203179 1_555
Li1 O4 2.220784 1_555
Li2 O6 2.052815 1_545
Li2 O4 2.063756 1_654
Li2 O7 2.114722 1_555
Li2 O5 2.146351 1_644
Li2 O11 2.221522 1_554
Li2 O0 2.227060 1_645
Li3 O6 2.083419 1_555
Li3 O3 2.118410 1_655
Li3 O1 2.176752 1_655
Li3 O8 2.209818 1_555
Li3 O9 2.224254 1_555
Li3 O0 2.255517 1_655
Li4 O1 2.048321 1_555
Li4 O9 2.089006 1_445
Li4 O8 2.129057 1_455
Li4 O0 2.130401 1_545
Li4 O2 2.224531 1_555
Li4 O7 2.231118 1_455
Li5 O2 2.084405 1_665
Li5 O3 2.113204 1_655
Li5 O5 2.148774 1_655
Li5 O11 2.168009 1_565
Li5 O10 2.200757 1_555
Li5 O9 2.216147 1_555
Co0 O1 2.077812 1_555
Co0 O11 2.089828 1_564
Co0 O0 2.097212 1_555
Co0 O6 2.117702 1_555
Co0 O5 2.118625 1_554
Co0 O10 2.125870 1_554
Co1 O6 2.082578 1_555
Co1 O1 2.085805 1_555
Co1 O2 2.094857 1_555
Co1 O7 2.112677 1_555
Co1 O8 2.133381 1_555
Co1 O3 2.135366 1_555
Co2 O9 2.083367 1_555
Co2 O4 2.085229 1_555
Co2 O5 2.091971 1_555
Co2 O8 2.104188 1_555
Co2 O3 2.137731 1_555
Co2 O10 2.150120 1_555
O0 V0 1.984244 1_564
O0 V1 2.023683 1_555
O1 V0 1.981521 1_554
O2 V2 2.013665 1_555
O2 V1 2.039611 1_545
O3 V1 1.892484 1_555
O4 V0 1.998370 1_555
O4 V2 2.035927 1_555
O5 V2 1.905954 1_565
O6 V1 1.960318 1_555
O7 V1 1.983713 1_545
O7 V0 2.025061 1_554
O8 V2 1.897245 1_555
O9 V1 2.004047 1_555
O9 V2 2.032633 1_565
O10 V0 1.878607 1_555
O11 V2 2.007238 1_555
O11 V0 2.039819 1_555
