# generated using pymatgen
data_Eu4O3F7
_symmetry_space_group_name_H-M   'P 1'
_cell_length_a   5.54381047
_cell_length_b   5.88118435
_cell_length_c   5.72539300
_cell_angle_alpha   90.00000000
_cell_angle_beta   90.00000000
_cell_angle_gamma   91.22414654
_symmetry_Int_Tables_number   1
_chemical_formula_structural   Eu4O3F7
_chemical_formula_sum   'Eu4 O3 F7'
_cell_volume   186.62909018
_cell_formula_units_Z   1
loop_
 _symmetry_equiv_pos_site_id
 _symmetry_equiv_pos_as_xyz
  1  'x, y, z'
loop_
 _atom_site_type_symbol
 _atom_site_label
 _atom_site_symmetry_multiplicity
 _atom_site_fract_x
 _atom_site_fract_y
 _atom_site_fract_z
 _atom_site_occupancy
  Eu  Eu0  1  0.02568800  0.24728700  0.27767000  1
  Eu  Eu1  1  0.98439800  0.75034500  0.79577900  1
  Eu  Eu2  1  0.51560200  0.24965500  0.79577900  1
  Eu  Eu3  1  0.47431200  0.75271300  0.27767000  1
  O  O0  1  0.25000000  0.00000000  0.04415600  1
  O  O1  1  0.75000000  0.00000000  0.02196500  1
  O  O2  1  0.25000000  0.50000000  0.99377300  1
  F  F0  1  0.25000000  0.00000000  0.56649200  1
  F  F1  1  0.75000000  0.00000000  0.49007000  1
  F  F2  1  0.42797300  0.35482100  0.39920900  1
  F  F3  1  0.07202700  0.64517900  0.39920900  1
  F  F4  1  0.57455700  0.65362800  0.68541400  1
  F  F5  1  0.92544300  0.34637200  0.68541400  1
  F  F6  1  0.75000000  0.50000000  0.08619900  1
loop_
_geom_bond_atom_site_label_1
_geom_bond_atom_site_label_2
_geom_bond_distance
_geom_bond_site_symmetry_2
Eu0 O0 2.350796 1_555
Eu0 F2 2.407836 1_555
Eu0 F1 2.415545 1_455
Eu0 F6 2.417364 1_455
Eu0 F3 2.449589 1_555
Eu0 F5 2.472272 1_455
Eu0 O2 2.513637 1_554
Eu0 F0 2.544256 1_555
Eu0 O1 2.549383 1_455
Eu1 O1 2.367056 1_566
Eu1 O2 2.390294 1_655
Eu1 F3 2.405543 1_655
Eu1 F4 2.414529 1_555
Eu1 F0 2.440260 1_665
Eu1 F5 2.473365 1_555
Eu1 O0 2.500755 1_666
Eu1 F6 2.557222 1_556
Eu1 F1 2.643764 1_565
Eu2 O1 2.367056 1_556
Eu2 O2 2.390294 1_555
Eu2 F2 2.405543 1_555
Eu2 F5 2.414529 1_555
Eu2 F0 2.440260 1_555
Eu2 F4 2.473365 1_555
Eu2 O0 2.500755 1_556
Eu2 F6 2.557222 1_556
Eu2 F1 2.643764 1_555
Eu3 O0 2.350796 1_565
Eu3 F3 2.407836 1_555
Eu3 F1 2.415545 1_565
Eu3 F6 2.417364 1_555
Eu3 F2 2.449589 1_555
Eu3 F4 2.472272 1_555
Eu3 O2 2.513637 1_554
Eu3 F0 2.544256 1_565
Eu3 O1 2.549383 1_565
