# generated using pymatgen
data_Be2P2O7
_symmetry_space_group_name_H-M   'P 1'
_cell_length_a   4.98303617
_cell_length_b   4.98303617
_cell_length_c   8.89111981
_cell_angle_alpha   76.38212977
_cell_angle_beta   76.38212977
_cell_angle_gamma   96.16445770
_symmetry_Int_Tables_number   1
_chemical_formula_structural   Be2P2O7
_chemical_formula_sum   'Be4 P4 O14'
_cell_volume   205.41251772
_cell_formula_units_Z   2
loop_
 _symmetry_equiv_pos_site_id
 _symmetry_equiv_pos_as_xyz
  1  'x, y, z'
loop_
 _atom_site_type_symbol
 _atom_site_label
 _atom_site_symmetry_multiplicity
 _atom_site_fract_x
 _atom_site_fract_y
 _atom_site_fract_z
 _atom_site_occupancy
  Be  Be0  1  0.60851900  0.27244700  0.47259900  1
  Be  Be1  1  0.72755300  0.39148100  0.02740100  1
  Be  Be2  1  0.27244700  0.60851900  0.97259900  1
  Be  Be3  1  0.39148100  0.72755300  0.52740100  1
  P  P0  1  0.79427700  0.81243400  0.20420400  1
  P  P1  1  0.81243400  0.79427700  0.70420400  1
  P  P2  1  0.18756600  0.20572300  0.29579600  1
  P  P3  1  0.20572300  0.18756600  0.79579600  1
  O  O0  1  0.94532600  0.30264600  0.39512300  1
  O  O1  1  0.88657800  0.60176400  0.10895700  1
  O  O2  1  0.57847600  0.64920100  0.36491100  1
  O  O3  1  0.07225900  0.92774100  0.25000000  1
  O  O4  1  0.30264600  0.94532600  0.89512300  1
  O  O5  1  0.60176400  0.88657800  0.60895700  1
  O  O6  1  0.64920100  0.57847600  0.86491100  1
  O  O7  1  0.35079900  0.42152400  0.13508900  1
  O  O8  1  0.39823600  0.11342200  0.39104300  1
  O  O9  1  0.69735400  0.05467400  0.10487700  1
  O  O10  1  0.92774100  0.07225900  0.75000000  1
  O  O11  1  0.42152400  0.35079900  0.63508900  1
  O  O12  1  0.11342200  0.39823600  0.89104300  1
  O  O13  1  0.05467400  0.69735400  0.60487700  1
loop_
_geom_bond_atom_site_label_1
_geom_bond_atom_site_label_2
_geom_bond_distance
_geom_bond_site_symmetry_2
Be0 O0 1.632932 1_555
Be0 O8 1.643707 1_555
Be0 O11 1.678612 1_555
Be0 O2 1.935232 1_555
Be0 O5 2.009305 1_545
Be1 O9 1.632932 1_555
Be1 O1 1.643707 1_555
Be1 O6 1.678612 1_554
Be1 O7 1.935232 1_555
Be1 O12 2.009305 1_654
Be2 O4 1.632932 1_555
Be2 O12 1.643707 1_555
Be2 O7 1.678612 1_556
Be2 O6 1.935232 1_555
Be2 O1 2.009305 1_456
Be3 O13 1.632932 1_555
Be3 O5 1.643707 1_555
Be3 O2 1.678612 1_555
Be3 O11 1.935232 1_555
Be3 O8 2.009305 1_565
O0 P2 1.514701 1_655
O1 P0 1.539364 1_555
O2 P0 1.549505 1_555
O3 P2 1.618495 1_565
O3 P0 1.618495 1_455
O4 P3 1.514701 1_565
O5 P1 1.539364 1_555
O6 P1 1.549505 1_555
O7 P2 1.549505 1_555
O8 P2 1.539364 1_555
O9 P0 1.514701 1_545
O10 P3 1.618495 1_655
O10 P1 1.618495 1_545
O11 P3 1.549505 1_555
O12 P3 1.539364 1_555
O13 P1 1.514701 1_455
