# generated using pymatgen
data_Li4CrFe3O8
_symmetry_space_group_name_H-M   'P 1'
_cell_length_a   5.96697820
_cell_length_b   5.96697820
_cell_length_c   5.19167242
_cell_angle_alpha   73.28169522
_cell_angle_beta   73.28169522
_cell_angle_gamma   59.98112753
_symmetry_Int_Tables_number   1
_chemical_formula_structural   Li4CrFe3O8
_chemical_formula_sum   'Li4 Cr1 Fe3 O8'
_cell_volume   150.96710139
_cell_formula_units_Z   1
loop_
 _symmetry_equiv_pos_site_id
 _symmetry_equiv_pos_as_xyz
  1  'x, y, z'
loop_
 _atom_site_type_symbol
 _atom_site_label
 _atom_site_symmetry_multiplicity
 _atom_site_fract_x
 _atom_site_fract_y
 _atom_site_fract_z
 _atom_site_occupancy
  Li  Li0  1  0.75084700  0.75084700  0.99773100  1
  Li  Li1  1  0.24915300  0.24915300  0.00226900  1
  Li  Li2  1  0.24854600  0.75145400  0.00000000  1
  Li  Li3  1  0.75145400  0.24854600  0.00000000  1
  Cr  Cr0  1  0.00000000  0.00000000  0.50000000  1
  Fe  Fe0  1  0.00000000  0.50000000  0.50000000  1
  Fe  Fe1  1  0.50000000  0.00000000  0.50000000  1
  Fe  Fe2  1  0.50000000  0.50000000  0.50000000  1
  O  O0  1  0.62857100  0.62857100  0.72883900  1
  O  O1  1  0.87203600  0.36995800  0.27174100  1
  O  O2  1  0.12810900  0.12810900  0.72704600  1
  O  O3  1  0.36995800  0.87203600  0.27174100  1
  O  O4  1  0.12796400  0.63004200  0.72825900  1
  O  O5  1  0.37142900  0.37142900  0.27116100  1
  O  O6  1  0.63004200  0.12796400  0.72825900  1
  O  O7  1  0.87189100  0.87189100  0.27295400  1
loop_
_geom_bond_atom_site_label_1
_geom_bond_atom_site_label_2
_geom_bond_distance
_geom_bond_site_symmetry_2
Li0 O6 2.164821 1_565
Li0 O4 2.164821 1_655
Li0 O0 2.172131 1_555
Li0 O7 2.189631 1_556
Li0 O3 2.190734 1_556
Li0 O1 2.190734 1_556
Li1 O1 2.164821 1_455
Li1 O3 2.164821 1_545
Li1 O5 2.172131 1_555
Li1 O2 2.189631 1_554
Li1 O6 2.190734 1_554
Li1 O4 2.190734 1_554
Li2 O7 2.171008 1_455
Li2 O2 2.171008 1_564
Li2 O4 2.174043 1_554
Li2 O3 2.174043 1_555
Li2 O5 2.180621 1_555
Li2 O0 2.180621 1_554
Li3 O7 2.171008 1_545
Li3 O2 2.171008 1_654
Li3 O6 2.174043 1_554
Li3 O1 2.174043 1_555
Li3 O5 2.180621 1_555
Li3 O0 2.180621 1_554
Cr0 O2 2.044415 1_555
Cr0 O7 2.044415 1_445
Cr0 O6 2.046830 1_455
Cr0 O4 2.046830 1_545
Cr0 O1 2.046830 1_455
Cr0 O3 2.046830 1_545
Fe0 O2 2.052869 1_555
Fe0 O7 2.052869 1_455
Fe0 O5 2.054330 1_555
Fe0 O0 2.054330 1_455
Fe0 O1 2.057165 1_455
Fe0 O4 2.057165 1_555
Fe1 O7 2.052869 1_545
Fe1 O2 2.052869 1_555
Fe1 O5 2.054330 1_555
Fe1 O0 2.054330 1_545
Fe1 O3 2.057165 1_545
Fe1 O6 2.057165 1_555
Fe2 O5 2.055795 1_555
Fe2 O0 2.055795 1_555
Fe2 O3 2.055842 1_555
Fe2 O6 2.055842 1_555
Fe2 O1 2.055842 1_555
Fe2 O4 2.055842 1_555
