# generated using pymatgen
data_Li2Cr3CuO8
_symmetry_space_group_name_H-M   'P 1'
_cell_length_a   5.90868671
_cell_length_b   5.90868671
_cell_length_c   5.90868670
_cell_angle_alpha   59.47817554
_cell_angle_beta   59.47817554
_cell_angle_gamma   59.47818012
_symmetry_Int_Tables_number   1
_chemical_formula_structural   Li2Cr3CuO8
_chemical_formula_sum   'Li2 Cr3 Cu1 O8'
_cell_volume   144.13595119
_cell_formula_units_Z   1
loop_
 _symmetry_equiv_pos_site_id
 _symmetry_equiv_pos_as_xyz
  1  'x, y, z'
loop_
 _atom_site_type_symbol
 _atom_site_label
 _atom_site_symmetry_multiplicity
 _atom_site_fract_x
 _atom_site_fract_y
 _atom_site_fract_z
 _atom_site_occupancy
  Li  Li0  1  0.12383100  0.12383100  0.12383100  1
  Li  Li1  1  0.49979900  0.49979900  0.49979900  1
  Cr  Cr0  1  0.49848000  0.49848000  0.00703600  1
  Cr  Cr1  1  0.49848000  0.00703600  0.49848000  1
  Cr  Cr2  1  0.00703600  0.49848000  0.49848000  1
  Cu  Cu0  1  0.87900100  0.87900100  0.87900100  1
  O  O0  1  0.25999600  0.25999600  0.25999600  1
  O  O1  1  0.71050500  0.24825200  0.24825200  1
  O  O2  1  0.24825200  0.71050500  0.24825200  1
  O  O3  1  0.24825200  0.24825200  0.71050500  1
  O  O4  1  0.74821600  0.74821600  0.28824300  1
  O  O5  1  0.74821600  0.28824300  0.74821600  1
  O  O6  1  0.28824300  0.74821600  0.74821600  1
  O  O7  1  0.74169300  0.74169300  0.74169300  1
loop_
_geom_bond_atom_site_label_1
_geom_bond_atom_site_label_2
_geom_bond_distance
_geom_bond_site_symmetry_2
Li0 O0 1.978489 1_555
Li0 O3 1.986695 1_554
Li0 O2 1.986696 1_545
Li0 O1 1.986696 1_455
Li1 O4 2.081485 1_555
Li1 O6 2.081485 1_555
Li1 O5 2.081485 1_555
Li1 O3 2.110216 1_555
Li1 O2 2.110216 1_555
Li1 O1 2.110216 1_555
Cr0 O1 1.891743 1_555
Cr0 O2 1.891743 1_555
Cr0 O6 1.958279 1_554
Cr0 O5 1.958279 1_554
Cr0 O0 1.985840 1_555
Cr0 O7 2.027074 1_554
Cr1 O1 1.891743 1_555
Cr1 O3 1.891743 1_555
Cr1 O6 1.958279 1_545
Cr1 O4 1.958279 1_545
Cr1 O0 1.985841 1_555
Cr1 O7 2.027075 1_545
Cr2 O2 1.891743 1_555
Cr2 O3 1.891743 1_555
Cr2 O5 1.958279 1_455
Cr2 O4 1.958279 1_455
Cr2 O0 1.985841 1_555
Cr2 O7 2.027075 1_455
Cu0 O4 1.962651 1_556
Cu0 O5 1.962651 1_565
Cu0 O6 1.962651 1_655
Cu0 O7 1.995097 1_555
