# generated using pymatgen
data_K5YO4
_symmetry_space_group_name_H-M   'P 1'
_cell_length_a   11.77991514
_cell_length_b   12.08980092
_cell_length_c   12.28607667
_cell_angle_alpha   90.00000000
_cell_angle_beta   90.00000000
_cell_angle_gamma   90.00000000
_symmetry_Int_Tables_number   1
_chemical_formula_structural   K5YO4
_chemical_formula_sum   'K40 Y8 O32'
_cell_volume   1749.74407893
_cell_formula_units_Z   8
loop_
 _symmetry_equiv_pos_site_id
 _symmetry_equiv_pos_as_xyz
  1  'x, y, z'
loop_
 _atom_site_type_symbol
 _atom_site_label
 _atom_site_symmetry_multiplicity
 _atom_site_fract_x
 _atom_site_fract_y
 _atom_site_fract_z
 _atom_site_occupancy
  K  K0  1  0.86091321  0.38352840  0.09446201  1
  K  K1  1  0.36091321  0.11647160  0.09446201  1
  K  K2  1  0.17697914  0.89612315  0.11524059  1
  K  K3  1  0.67697914  0.60387685  0.11524059  1
  K  K4  1  0.64125021  0.15136021  0.11954833  1
  K  K5  1  0.14125021  0.34863979  0.11954833  1
  K  K6  1  0.91866656  0.12511556  0.14255150  1
  K  K7  1  0.41866656  0.37488444  0.14255150  1
  K  K8  1  0.60004782  0.87870258  0.16779739  1
  K  K9  1  0.10004782  0.62129742  0.16779739  1
  K  K10  1  0.10004782  0.12129742  0.33220261  1
  K  K11  1  0.60004782  0.37870258  0.33220261  1
  K  K12  1  0.41866656  0.87488444  0.35744850  1
  K  K13  1  0.91866656  0.62511556  0.35744850  1
  K  K14  1  0.64125021  0.65136021  0.38045167  1
  K  K15  1  0.14125021  0.84863979  0.38045167  1
  K  K16  1  0.17697914  0.39612315  0.38475941  1
  K  K17  1  0.67697914  0.10387685  0.38475941  1
  K  K18  1  0.86091321  0.88352840  0.40553799  1
  K  K19  1  0.36091321  0.61647160  0.40553799  1
  K  K20  1  0.63908679  0.38352840  0.59446201  1
  K  K21  1  0.13908679  0.11647160  0.59446201  1
  K  K22  1  0.82302086  0.60387685  0.61524059  1
  K  K23  1  0.32302086  0.89612315  0.61524059  1
  K  K24  1  0.35874979  0.34863979  0.61954833  1
  K  K25  1  0.85874979  0.15136021  0.61954833  1
  K  K26  1  0.08133344  0.37488444  0.64255150  1
  K  K27  1  0.58133344  0.12511556  0.64255150  1
  K  K28  1  0.89995218  0.87870258  0.66779739  1
  K  K29  1  0.39995218  0.62129742  0.66779739  1
  K  K30  1  0.89995218  0.37870258  0.83220261  1
  K  K31  1  0.39995218  0.12129742  0.83220261  1
  K  K32  1  0.58133344  0.62511556  0.85744850  1
  K  K33  1  0.08133344  0.87488444  0.85744850  1
  K  K34  1  0.35874979  0.84863979  0.88045167  1
  K  K35  1  0.85874979  0.65136021  0.88045167  1
  K  K36  1  0.32302086  0.39612315  0.88475941  1
  K  K37  1  0.82302086  0.10387685  0.88475941  1
  K  K38  1  0.63908679  0.88352840  0.90553799  1
  K  K39  1  0.13908679  0.61647160  0.90553799  1
  Y  Y0  1  0.88760636  0.85187537  0.13005890  1
  Y  Y1  1  0.38760636  0.64812463  0.13005890  1
  Y  Y2  1  0.88760636  0.35187537  0.36994110  1
  Y  Y3  1  0.38760636  0.14812463  0.36994110  1
  Y  Y4  1  0.61239364  0.85187537  0.63005890  1
  Y  Y5  1  0.11239364  0.64812463  0.63005890  1
  Y  Y6  1  0.61239364  0.35187537  0.86994110  1
  Y  Y7  1  0.11239364  0.14812463  0.86994110  1
  O  O0  1  0.49792009  0.74350106  0.02348264  1
  O  O1  1  0.99792009  0.75649894  0.02348264  1
  O  O2  1  0.77425996  0.97247957  0.05647069  1
  O  O3  1  0.27425996  0.52752043  0.05647069  1
  O  O4  1  0.99804918  0.94190513  0.23825923  1
  O  O5  1  0.49804918  0.55809487  0.23825923  1
  O  O6  1  0.78247685  0.75641557  0.23835639  1
  O  O7  1  0.28247685  0.74358443  0.23835639  1
  O  O8  1  0.28247685  0.24358443  0.26164361  1
  O  O9  1  0.78247685  0.25641557  0.26164361  1
  O  O10  1  0.99804918  0.44190513  0.26174077  1
  O  O11  1  0.49804918  0.05809487  0.26174077  1
  O  O12  1  0.77425996  0.47247957  0.44352931  1
  O  O13  1  0.27425996  0.02752043  0.44352931  1
  O  O14  1  0.49792009  0.24350106  0.47651736  1
  O  O15  1  0.99792009  0.25649894  0.47651736  1
  O  O16  1  0.00207991  0.74350106  0.52348264  1
  O  O17  1  0.50207991  0.75649894  0.52348264  1
  O  O18  1  0.72574004  0.97247957  0.55647069  1
  O  O19  1  0.22574004  0.52752043  0.55647069  1
  O  O20  1  0.00195082  0.55809487  0.73825923  1
  O  O21  1  0.50195082  0.94190513  0.73825923  1
  O  O22  1  0.71752315  0.75641557  0.73835639  1
  O  O23  1  0.21752315  0.74358443  0.73835639  1
  O  O24  1  0.71752315  0.25641557  0.76164361  1
  O  O25  1  0.21752315  0.24358443  0.76164361  1
  O  O26  1  0.50195082  0.44190513  0.76174077  1
  O  O27  1  0.00195082  0.05809487  0.76174077  1
  O  O28  1  0.72574004  0.47247957  0.94352931  1
  O  O29  1  0.22574004  0.02752043  0.94352931  1
  O  O30  1  0.00207991  0.24350106  0.97651736  1
  O  O31  1  0.50207991  0.25649894  0.97651736  1
loop_
_geom_bond_atom_site_label_1
_geom_bond_atom_site_label_2
_geom_bond_distance
_geom_bond_site_symmetry_2
K0 O28 2.670335 1_554
K0 O10 2.707698 1_555
K0 O9 2.726596 1_555
K0 O30 2.780483 1_654
K1 O29 2.670335 1_554
K1 O11 2.707698 1_555
K1 O8 2.726596 1_555
K1 O31 2.780483 1_554
K2 O4 2.652069 1_455
K2 O7 2.689491 1_555
K2 O29 2.702617 1_564
K2 O1 2.927370 1_455
K3 O5 2.652069 1_555
K3 O6 2.689491 1_555
K3 O28 2.702617 1_554
K3 O0 2.927370 1_555
K4 O11 2.677494 1_555
K4 O31 2.718723 1_554
K4 O9 2.725552 1_555
K4 O2 2.780748 1_545
K5 O10 2.677494 1_455
K5 O30 2.718723 1_554
K5 O8 2.725552 1_555
K5 O3 2.780748 1_555
K6 O4 2.676425 1_545
K6 O30 2.678662 1_654
K6 O9 2.689699 1_555
K6 O2 2.723512 1_545
K7 O5 2.676425 1_555
K7 O31 2.678662 1_554
K7 O8 2.689699 1_555
K7 O3 2.723512 1_555
K8 O0 2.694973 1_555
K8 O2 2.714353 1_555
K8 O11 2.734890 1_565
K8 O6 2.748716 1_555
K9 O1 2.694973 1_455
K9 O3 2.714353 1_555
K9 O10 2.734890 1_455
K9 O7 2.748716 1_555
K10 O15 2.694973 1_455
K10 O13 2.714353 1_555
K10 O4 2.734890 1_445
K10 O8 2.748716 1_555
K11 O14 2.694973 1_555
K11 O12 2.714353 1_555
K11 O5 2.734890 1_555
K11 O9 2.748716 1_555
K12 O11 2.676425 1_565
K12 O17 2.678662 1_555
K12 O7 2.689699 1_555
K12 O13 2.723512 1_565
K13 O10 2.676425 1_555
K13 O16 2.678662 1_655
K13 O6 2.689699 1_555
K13 O12 2.723512 1_555
K14 O5 2.677494 1_555
K14 O17 2.718723 1_555
K14 O6 2.725552 1_555
K14 O12 2.780748 1_555
K15 O4 2.677494 1_455
K15 O16 2.718723 1_555
K15 O7 2.725552 1_555
K15 O13 2.780748 1_565
K16 O10 2.652069 1_455
K16 O8 2.689491 1_555
K16 O19 2.702617 1_555
K16 O15 2.927370 1_455
K17 O11 2.652069 1_555
K17 O9 2.689491 1_555
K17 O18 2.702617 1_545
K17 O14 2.927370 1_555
K18 O18 2.670335 1_555
K18 O4 2.707698 1_555
K18 O6 2.726596 1_555
K18 O16 2.780483 1_655
K19 O19 2.670335 1_555
K19 O5 2.707698 1_555
K19 O7 2.726596 1_555
K19 O17 2.780483 1_555
K20 O12 2.670335 1_555
K20 O26 2.707698 1_555
K20 O24 2.726596 1_555
K20 O14 2.780483 1_555
K21 O13 2.670335 1_555
K21 O27 2.707698 1_555
K21 O25 2.726596 1_555
K21 O15 2.780483 1_455
K22 O20 2.652069 1_655
K22 O22 2.689491 1_555
K22 O12 2.702617 1_555
K22 O16 2.927370 1_655
K23 O21 2.652069 1_555
K23 O23 2.689491 1_555
K23 O13 2.702617 1_565
K23 O17 2.927370 1_555
K24 O26 2.677494 1_555
K24 O14 2.718723 1_555
K24 O25 2.725552 1_555
K24 O19 2.780748 1_555
K25 O27 2.677494 1_655
K25 O15 2.718723 1_555
K25 O24 2.725552 1_555
K25 O18 2.780748 1_545
K26 O20 2.676425 1_555
K26 O15 2.678662 1_455
K26 O25 2.689699 1_555
K26 O19 2.723512 1_555
K27 O21 2.676425 1_545
K27 O14 2.678662 1_555
K27 O24 2.689699 1_555
K27 O18 2.723512 1_545
K28 O16 2.694973 1_655
K28 O18 2.714353 1_555
K28 O27 2.734890 1_665
K28 O22 2.748716 1_555
K29 O17 2.694973 1_555
K29 O19 2.714353 1_555
K29 O26 2.734890 1_555
K29 O23 2.748716 1_555
K30 O30 2.694973 1_655
K30 O28 2.714353 1_555
K30 O20 2.734890 1_655
K30 O24 2.748716 1_555
K31 O31 2.694973 1_555
K31 O29 2.714353 1_555
K31 O21 2.734890 1_545
K31 O25 2.748716 1_555
K32 O26 2.676425 1_555
K32 O0 2.678662 1_556
K32 O22 2.689699 1_555
K32 O28 2.723512 1_555
K33 O27 2.676425 1_565
K33 O1 2.678662 1_456
K33 O23 2.689699 1_555
K33 O29 2.723512 1_565
K34 O21 2.677494 1_555
K34 O0 2.718723 1_556
K34 O23 2.725552 1_555
K34 O29 2.780748 1_565
K35 O20 2.677494 1_655
K35 O1 2.718723 1_556
K35 O22 2.725552 1_555
K35 O28 2.780748 1_555
K36 O26 2.652069 1_555
K36 O25 2.689491 1_555
K36 O3 2.702617 1_556
K36 O31 2.927370 1_555
K37 O27 2.652069 1_655
K37 O24 2.689491 1_555
K37 O2 2.702617 1_546
K37 O30 2.927370 1_655
K38 O2 2.670335 1_556
K38 O21 2.707698 1_555
K38 O22 2.726596 1_555
K38 O0 2.780483 1_556
K39 O3 2.670335 1_556
K39 O20 2.707698 1_555
K39 O23 2.726596 1_555
K39 O1 2.780483 1_456
O0 Y1 2.175500 1_555
O1 Y0 2.175500 1_555
O2 Y0 2.173983 1_555
O3 Y1 2.173983 1_555
O4 Y0 2.155114 1_555
O5 Y1 2.155114 1_555
O6 Y0 2.153129 1_555
O7 Y1 2.153129 1_555
O8 Y3 2.153129 1_555
O9 Y2 2.153129 1_555
O10 Y2 2.155114 1_555
O11 Y3 2.155114 1_555
O12 Y2 2.173983 1_555
O13 Y3 2.173983 1_555
O14 Y3 2.175500 1_555
O15 Y2 2.175500 1_555
O16 Y5 2.175500 1_555
O17 Y4 2.175500 1_555
O18 Y4 2.173983 1_555
O19 Y5 2.173983 1_555
O20 Y5 2.155114 1_555
O21 Y4 2.155114 1_555
O22 Y4 2.153129 1_555
O23 Y5 2.153129 1_555
O24 Y6 2.153129 1_555
O25 Y7 2.153129 1_555
O26 Y6 2.155114 1_555
O27 Y7 2.155114 1_555
O28 Y6 2.173983 1_555
O29 Y7 2.173983 1_555
O30 Y7 2.175500 1_555
O31 Y6 2.175500 1_555
