# generated using pymatgen
data_MnCo3(PO4)4
_symmetry_space_group_name_H-M   'P 1'
_cell_length_a   5.94123200
_cell_length_b   4.83762700
_cell_length_c   9.76834120
_cell_angle_alpha   89.95362183
_cell_angle_beta   90.00000000
_cell_angle_gamma   90.00000000
_symmetry_Int_Tables_number   1
_chemical_formula_structural   MnCo3(PO4)4
_chemical_formula_sum   'Mn1 Co3 P4 O16'
_cell_volume   280.75633825
_cell_formula_units_Z   1
loop_
 _symmetry_equiv_pos_site_id
 _symmetry_equiv_pos_as_xyz
  1  'x, y, z'
loop_
 _atom_site_type_symbol
 _atom_site_label
 _atom_site_symmetry_multiplicity
 _atom_site_fract_x
 _atom_site_fract_y
 _atom_site_fract_z
 _atom_site_occupancy
  Mn  Mn0  1  0.00000000  0.93428500  0.28338000  1
  Co  Co0  1  0.50000000  0.03285300  0.72910300  1
  Co  Co1  1  0.50000000  0.42985400  0.21402900  1
  Co  Co2  1  0.00000000  0.53324600  0.77101700  1
  P  P0  1  0.00000000  0.09193200  0.59870600  1
  P  P1  1  0.00000000  0.41845500  0.09697600  1
  P  P2  1  0.50000000  0.59169100  0.90323300  1
  P  P3  1  0.50000000  0.91081000  0.40048300  1
  O  O0  1  0.00000000  0.15301700  0.44434400  1
  O  O1  1  0.20285800  0.23994900  0.66960300  1
  O  O2  1  0.79714200  0.23994900  0.66960300  1
  O  O3  1  0.50000000  0.22536100  0.38017600  1
  O  O4  1  0.50000000  0.27675400  0.87974200  1
  O  O5  1  0.20364200  0.27155800  0.17045500  1
  O  O6  1  0.79635800  0.27155800  0.17045500  1
  O  O7  1  0.00000000  0.35458000  0.94290100  1
  O  O8  1  0.50000000  0.65654600  0.05721900  1
  O  O9  1  0.70300400  0.74052000  0.83178500  1
  O  O10  1  0.29699600  0.74052000  0.83178500  1
  O  O11  1  0.00000000  0.73218300  0.11670500  1
  O  O12  1  0.00000000  0.77636900  0.62116000  1
  O  O13  1  0.70213000  0.76047600  0.33029800  1
  O  O14  1  0.29787000  0.76047600  0.33029800  1
  O  O15  1  0.50000000  0.85705700  0.55654700  1
loop_
_geom_bond_atom_site_label_1
_geom_bond_atom_site_label_2
_geom_bond_distance
_geom_bond_site_symmetry_2
Mn0 O0 1.895956 1_565
Mn0 O11 1.899815 1_555
Mn0 O13 2.012039 1_455
Mn0 O14 2.012039 1_555
Mn0 O6 2.310808 1_465
Mn0 O5 2.310808 1_565
Co0 O4 1.886868 1_555
Co0 O15 1.888587 1_545
Co0 O2 2.111203 1_555
Co0 O1 2.111203 1_555
Co0 O9 2.111492 1_545
Co0 O10 2.111492 1_545
Co1 O8 1.883150 1_555
Co1 O3 1.900027 1_555
Co1 O5 1.966797 1_555
Co1 O6 1.966797 1_555
Co1 O14 2.300697 1_555
Co1 O13 2.300697 1_555
Co2 O12 1.877068 1_555
Co2 O7 1.887806 1_555
Co2 O1 2.109359 1_555
Co2 O2 2.109359 1_455
Co2 O10 2.114782 1_555
Co2 O9 2.114782 1_455
O0 P0 1.536309 1_555
O1 P0 1.563881 1_555
O2 P0 1.563881 1_655
O3 P3 1.534396 1_545
O4 P2 1.540915 1_555
O5 P1 1.575812 1_555
O6 P1 1.575812 1_655
O7 P1 1.536696 1_556
O8 P2 1.536809 1_554
O9 P2 1.568223 1_555
O10 P2 1.568223 1_555
O11 P1 1.530041 1_555
O12 P0 1.542077 1_565
O13 P3 1.562662 1_555
O14 P3 1.562662 1_555
O15 P3 1.546298 1_555
