# generated using pymatgen
data_Zr6BI12
_symmetry_space_group_name_H-M   'P 1'
_cell_length_a   9.23137012
_cell_length_b   9.23140491
_cell_length_c   9.23137848
_cell_angle_alpha   107.09326847
_cell_angle_beta   107.09324004
_cell_angle_gamma   107.09317596
_symmetry_Int_Tables_number   1
_chemical_formula_structural   Zr6BI12
_chemical_formula_sum   'Zr6 B1 I12'
_cell_volume   653.48494241
_cell_formula_units_Z   1
loop_
 _symmetry_equiv_pos_site_id
 _symmetry_equiv_pos_as_xyz
  1  'x, y, z'
loop_
 _atom_site_type_symbol
 _atom_site_label
 _atom_site_symmetry_multiplicity
 _atom_site_fract_x
 _atom_site_fract_y
 _atom_site_fract_z
 _atom_site_occupancy
  Zr  Zr0  1  0.72591589  0.97198487  0.90955526  1
  Zr  Zr1  1  0.09044474  0.27408311  0.02801513  1
  Zr  Zr2  1  0.02801513  0.09044474  0.27408311  1
  Zr  Zr3  1  0.97198487  0.90955526  0.72591689  1
  Zr  Zr4  1  0.90955526  0.72591689  0.97198487  1
  Zr  Zr5  1  0.27408411  0.02801513  0.09044474  1
  B  B0  1  -0.00000000  -0.00000000  -0.00000000  1
  I  I0  1  0.30863457  0.92112431  0.77458615  1
  I  I1  1  0.22541685  0.69136743  0.07887469  1
  I  I2  1  0.14438731  0.44535931  0.37026160  1
  I  I3  1  0.62973640  0.85561269  0.55464069  1
  I  I4  1  0.07887469  0.22541585  0.69136643  1
  I  I5  1  0.55463969  0.62973940  0.85561169  1
  I  I6  1  0.44536031  0.37026060  0.14438831  1
  I  I7  1  0.92112531  0.77458415  0.30863357  1
  I  I8  1  0.37026360  0.14438731  0.44535931  1
  I  I9  1  0.85561269  0.55464069  0.62973840  1
  I  I10  1  0.77458315  0.30863257  0.92112531  1
  I  I11  1  0.69136543  0.07887569  0.22541385  1
loop_
_geom_bond_atom_site_label_1
_geom_bond_atom_site_label_2
_geom_bond_distance
_geom_bond_site_symmetry_2
B0 Zr3 2.326431 1_444
B0 Zr2 2.326431 1_555
B0 Zr5 2.326437 1_555
B0 Zr0 2.326437 1_444
B0 Zr4 2.326439 1_444
B0 Zr1 2.326439 1_555
I0 Zr5 2.935592 1_566
I0 Zr3 2.971058 1_455
I0 Zr0 3.518927 1_555
I1 Zr4 2.935610 1_454
I1 Zr5 2.971052 1_565
I1 Zr1 3.518971 1_555
I2 Zr2 2.887401 1_555
I2 Zr1 2.899222 1_555
I3 Zr0 2.887389 1_555
I3 Zr3 2.899235 1_555
I4 Zr3 2.935618 1_445
I4 Zr1 2.971051 1_556
I4 Zr2 3.518950 1_555
I5 Zr4 2.887398 1_555
I5 Zr0 2.899220 1_555
I6 Zr1 2.887398 1_555
I6 Zr5 2.899220 1_555
I7 Zr2 2.935618 1_665
I7 Zr4 2.971051 1_554
I7 Zr3 3.518950 1_555
I8 Zr5 2.887389 1_555
I8 Zr2 2.899235 1_555
I9 Zr3 2.887401 1_555
I9 Zr4 2.899222 1_555
I10 Zr1 2.935610 1_656
I10 Zr0 2.971052 1_545
I10 Zr4 3.518971 1_555
I11 Zr0 2.935592 1_544
I11 Zr2 2.971058 1_655
I11 Zr5 3.518927 1_555
