# generated using pymatgen
data_Li7Ti2P7O24
_symmetry_space_group_name_H-M   'P 1'
_cell_length_a   5.17231400
_cell_length_b   11.75608300
_cell_length_c   15.28489626
_cell_angle_alpha   82.62720890
_cell_angle_beta   90.00000000
_cell_angle_gamma   90.00000000
_symmetry_Int_Tables_number   1
_chemical_formula_structural   Li7Ti2P7O24
_chemical_formula_sum   'Li14 Ti4 P14 O48'
_cell_volume   921.73152484
_cell_formula_units_Z   2
loop_
 _symmetry_equiv_pos_site_id
 _symmetry_equiv_pos_as_xyz
  1  'x, y, z'
loop_
 _atom_site_type_symbol
 _atom_site_label
 _atom_site_symmetry_multiplicity
 _atom_site_fract_x
 _atom_site_fract_y
 _atom_site_fract_z
 _atom_site_occupancy
  Li  Li0  1  0.27568800  0.48207100  0.05789900  1
  Li  Li1  1  0.18187000  0.11138700  0.13793800  1
  Li  Li2  1  0.72431200  0.98207100  0.05789900  1
  Li  Li3  1  0.81813000  0.61138700  0.13793800  1
  Li  Li4  1  0.84877700  0.44853100  0.41085300  1
  Li  Li5  1  0.15122300  0.94853100  0.41085300  1
  Li  Li6  1  0.29129700  0.25000000  0.50000000  1
  Li  Li7  1  0.70870300  0.75000000  0.50000000  1
  Li  Li8  1  0.84877700  0.05146900  0.58914700  1
  Li  Li9  1  0.15122300  0.55146900  0.58914700  1
  Li  Li10  1  0.18187000  0.38861300  0.86206200  1
  Li  Li11  1  0.27568800  0.01792900  0.94210100  1
  Li  Li12  1  0.81813000  0.88861300  0.86206200  1
  Li  Li13  1  0.72431200  0.51792900  0.94210100  1
  Ti  Ti0  1  0.35429100  0.31243000  0.27776500  1
  Ti  Ti1  1  0.64570900  0.81243000  0.27776500  1
  Ti  Ti2  1  0.35429100  0.18757000  0.72223500  1
  Ti  Ti3  1  0.64570900  0.68757000  0.72223500  1
  P  P0  1  0.57275600  0.25000000  0.00000000  1
  P  P1  1  0.42724400  0.75000000  0.00000000  1
  P  P2  1  0.87365200  0.34469900  0.13778000  1
  P  P3  1  0.12634800  0.84469900  0.13778000  1
  P  P4  1  0.61636400  0.05038500  0.27566700  1
  P  P5  1  0.38363600  0.55038500  0.27566700  1
  P  P6  1  0.84424900  0.19758700  0.39262000  1
  P  P7  1  0.15575100  0.69758700  0.39262000  1
  P  P8  1  0.84424900  0.30241300  0.60738000  1
  P  P9  1  0.15575100  0.80241300  0.60738000  1
  P  P10  1  0.61636400  0.44961500  0.72433300  1
  P  P11  1  0.38363600  0.94961500  0.72433300  1
  P  P12  1  0.87365200  0.15530100  0.86222000  1
  P  P13  1  0.12634800  0.65530100  0.86222000  1
  O  O0  1  0.42887000  0.13754200  0.01406300  1
  O  O1  1  0.57113000  0.63754200  0.01406300  1
  O  O2  1  0.77252700  0.24424600  0.08082400  1
  O  O3  1  0.89844700  0.45635900  0.07710000  1
  O  O4  1  0.22747300  0.74424600  0.08082400  1
  O  O5  1  0.10155300  0.95635900  0.07710000  1
  O  O6  1  0.13198300  0.28817900  0.17031100  1
  O  O7  1  0.73804900  0.99441500  0.20093300  1
  O  O8  1  0.67960000  0.35066000  0.21026100  1
  O  O9  1  0.86801700  0.78817900  0.17031100  1
  O  O10  1  0.26195100  0.49441500  0.20093300  1
  O  O11  1  0.40344300  0.13695900  0.24776100  1
  O  O12  1  0.32040000  0.85066000  0.21026100  1
  O  O13  1  0.59655700  0.63695900  0.24776100  1
  O  O14  1  0.85926400  0.11463200  0.31504800  1
  O  O15  1  0.14073600  0.61463200  0.31504800  1
  O  O16  1  0.02526100  0.29953100  0.36197800  1
  O  O17  1  0.47298600  0.45329500  0.34750700  1
  O  O18  1  0.55787900  0.23296400  0.39704400  1
  O  O19  1  0.97473900  0.79953100  0.36197800  1
  O  O20  1  0.52701400  0.95329500  0.34750700  1
  O  O21  1  0.44212100  0.73296400  0.39704400  1
  O  O22  1  0.95009000  0.12465700  0.47420900  1
  O  O23  1  0.04991000  0.62465700  0.47420900  1
  O  O24  1  0.95009000  0.37534300  0.52579100  1
  O  O25  1  0.04991000  0.87534300  0.52579100  1
  O  O26  1  0.55787900  0.26703600  0.60295600  1
  O  O27  1  0.47298600  0.04670500  0.65249300  1
  O  O28  1  0.02526100  0.20046900  0.63802200  1
  O  O29  1  0.44212100  0.76703600  0.60295600  1
  O  O30  1  0.52701400  0.54670500  0.65249300  1
  O  O31  1  0.97473900  0.70046900  0.63802200  1
  O  O32  1  0.85926400  0.38536800  0.68495200  1
  O  O33  1  0.14073600  0.88536800  0.68495200  1
  O  O34  1  0.40344300  0.36304100  0.75223900  1
  O  O35  1  0.67960000  0.14934000  0.78973900  1
  O  O36  1  0.59655700  0.86304100  0.75223900  1
  O  O37  1  0.73804900  0.50558500  0.79906700  1
  O  O38  1  0.13198300  0.21182100  0.82968900  1
  O  O39  1  0.32040000  0.64934000  0.78973900  1
  O  O40  1  0.26195100  0.00558500  0.79906700  1
  O  O41  1  0.86801700  0.71182100  0.82968900  1
  O  O42  1  0.89844700  0.04364100  0.92290000  1
  O  O43  1  0.77252700  0.25575400  0.91917600  1
  O  O44  1  0.10155300  0.54364100  0.92290000  1
  O  O45  1  0.22747300  0.75575400  0.91917600  1
  O  O46  1  0.42887000  0.36245800  0.98593700  1
  O  O47  1  0.57113000  0.86245800  0.98593700  1
loop_
_geom_bond_atom_site_label_1
_geom_bond_atom_site_label_2
_geom_bond_distance
_geom_bond_site_symmetry_2
Li0 O3 1.990465 1_455
Li0 O46 2.052292 1_554
Li0 O10 2.210716 1_555
Li0 O44 2.282461 1_554
Li0 O1 2.410473 1_555
Li1 O11 2.085934 1_555
Li1 O5 2.189485 1_545
Li1 O6 2.212473 1_555
Li1 O0 2.272073 1_555
Li2 O5 1.990465 1_655
Li2 O47 2.052292 1_554
Li2 O7 2.210716 1_555
Li2 O42 2.282461 1_564
Li2 O0 2.410473 1_565
Li3 O13 2.085934 1_555
Li3 O3 2.189485 1_555
Li3 O9 2.212473 1_555
Li3 O1 2.272073 1_555
Li4 O24 1.927006 1_555
Li4 O17 2.169034 1_555
Li4 O16 2.189860 1_655
Li4 O23 2.611866 1_655
Li5 O25 1.927006 1_555
Li5 O20 2.169034 1_555
Li5 O19 2.189860 1_455
Li5 O22 2.611866 1_465
Li6 O26 2.121004 1_555
Li6 O18 2.121004 1_555
Li6 O24 2.364411 1_455
Li6 O22 2.364411 1_455
Li6 O28 2.523461 1_555
Li6 O16 2.523461 1_555
Li7 O29 2.121004 1_555
Li7 O21 2.121004 1_555
Li7 O23 2.364411 1_655
Li7 O25 2.364411 1_655
Li7 O31 2.523461 1_555
Li7 O19 2.523461 1_555
Li8 O22 1.927006 1_555
Li8 O27 2.169034 1_555
Li8 O28 2.189860 1_655
Li8 O25 2.611866 1_645
Li9 O23 1.927006 1_555
Li9 O30 2.169034 1_555
Li9 O31 2.189860 1_455
Li9 O24 2.611866 1_455
Li10 O34 2.085934 1_555
Li10 O44 2.189485 1_555
Li10 O38 2.212473 1_555
Li10 O46 2.272073 1_555
Li11 O42 1.990465 1_455
Li11 O0 2.052292 1_556
Li11 O40 2.210716 1_555
Li11 O5 2.282461 1_546
Li11 O47 2.410473 1_545
Li12 O36 2.085934 1_555
Li12 O42 2.189485 1_565
Li12 O41 2.212473 1_555
Li12 O47 2.272073 1_555
Li13 O44 1.990465 1_655
Li13 O1 2.052292 1_556
Li13 O37 2.210716 1_555
Li13 O3 2.282461 1_556
Li13 O46 2.410473 1_555
O0 P0 1.508309 1_555
O1 P1 1.508309 1_555
O2 P0 1.605295 1_555
O2 P2 1.640100 1_555
O3 P2 1.512399 1_555
O4 P1 1.605295 1_555
O4 P3 1.640100 1_555
O5 P3 1.512399 1_555
O6 P2 1.545734 1_455
O6 Ti0 2.054546 1_555
O7 P4 1.525398 1_565
O7 Ti1 2.353634 1_555
O8 P2 1.503200 1_555
O8 Ti0 1.994672 1_555
O9 P3 1.545734 1_655
O9 Ti1 2.054546 1_555
O10 P5 1.525398 1_555
O10 Ti0 2.353634 1_555
O11 P4 1.522901 1_555
O11 Ti0 2.184745 1_555
O12 P3 1.503200 1_555
O12 Ti1 1.994672 1_555
O13 P5 1.522901 1_555
O13 Ti1 2.184745 1_555
O14 P4 1.621081 1_555
O14 P6 1.630858 1_555
O15 P5 1.621081 1_555
O15 P7 1.630858 1_555
O16 P6 1.545373 1_455
O16 Ti0 2.127447 1_555
O17 P5 1.549340 1_555
O17 Ti0 2.169962 1_555
O18 P6 1.542303 1_555
O18 Ti0 2.206447 1_555
O19 P7 1.545373 1_655
O19 Ti1 2.127447 1_555
O20 P4 1.549340 1_565
O20 Ti1 2.169962 1_555
O21 P7 1.542303 1_555
O21 Ti1 2.206447 1_555
O22 P6 1.521701 1_555
O23 P7 1.521701 1_555
O24 P8 1.521701 1_555
O25 P9 1.521701 1_555
O26 P8 1.542303 1_555
O26 Ti2 2.206447 1_555
O27 P11 1.549340 1_545
O27 Ti2 2.169962 1_555
O28 P8 1.545373 1_455
O28 Ti2 2.127447 1_555
O29 P9 1.542303 1_555
O29 Ti3 2.206447 1_555
O30 P10 1.549340 1_555
O30 Ti3 2.169962 1_555
O31 P9 1.545373 1_655
O31 Ti3 2.127447 1_555
O32 P10 1.621081 1_555
O32 P8 1.630858 1_555
O33 P11 1.621081 1_555
O33 P9 1.630858 1_555
O34 P10 1.522901 1_555
O34 Ti2 2.184745 1_555
O35 P12 1.503200 1_555
O35 Ti2 1.994672 1_555
O36 P11 1.522901 1_555
O36 Ti3 2.184745 1_555
O37 P10 1.525398 1_555
O37 Ti3 2.353634 1_555
O38 P12 1.545734 1_455
O38 Ti2 2.054546 1_555
O39 P13 1.503200 1_555
O39 Ti3 1.994672 1_555
O40 P11 1.525398 1_545
O40 Ti2 2.353634 1_555
O41 P13 1.545734 1_655
O41 Ti3 2.054546 1_555
O42 P12 1.512399 1_555
O43 P0 1.605295 1_556
O43 P12 1.640100 1_555
O44 P13 1.512399 1_555
O45 P1 1.605295 1_556
O45 P13 1.640100 1_555
O46 P0 1.508309 1_556
O47 P1 1.508309 1_556
