# generated using pymatgen
data_Li4Co13O28
_symmetry_space_group_name_H-M   'P 1'
_cell_length_a   7.47781300
_cell_length_b   8.12001960
_cell_length_c   8.60839586
_cell_angle_alpha   100.21513248
_cell_angle_beta   104.30126878
_cell_angle_gamma   104.94881455
_symmetry_Int_Tables_number   1
_chemical_formula_structural   Li4Co13O28
_chemical_formula_sum   'Li4 Co13 O28'
_cell_volume   472.86089376
_cell_formula_units_Z   1
loop_
 _symmetry_equiv_pos_site_id
 _symmetry_equiv_pos_as_xyz
  1  'x, y, z'
loop_
 _atom_site_type_symbol
 _atom_site_label
 _atom_site_symmetry_multiplicity
 _atom_site_fract_x
 _atom_site_fract_y
 _atom_site_fract_z
 _atom_site_occupancy
  Li  Li0  1  0.91700600  0.26914900  0.20877500  1
  Li  Li1  1  0.77903600  0.86522700  0.64982800  1
  Li  Li2  1  0.28847700  0.34318000  0.13990300  1
  Li  Li3  1  0.07752300  0.71595200  0.80356500  1
  Co  Co0  1  0.93200400  0.79079400  0.20829800  1
  Co  Co1  1  0.85526300  0.57053200  0.42454000  1
  Co  Co2  1  0.64197500  0.91752900  0.05708000  1
  Co  Co3  1  0.78056000  0.34856700  0.63530700  1
  Co  Co4  1  0.57037300  0.71353900  0.28192500  1
  Co  Co5  1  0.72045300  0.14520000  0.86046100  1
  Co  Co6  1  0.49965600  0.49960600  0.49948700  1
  Co  Co7  1  0.28591100  0.86648700  0.14485300  1
  Co  Co8  1  0.43064900  0.28955400  0.71915000  1
  Co  Co9  1  0.21999900  0.65676600  0.36662400  1
  Co  Co10  1  0.35317000  0.07078500  0.93056000  1
  Co  Co11  1  0.14317400  0.42819600  0.57105800  1
  Co  Co12  1  0.07171100  0.21200200  0.79093400  1
  O  O0  1  0.89270200  0.99821800  0.19470900  1
  O  O1  1  0.95147700  0.56343700  0.24550500  1
  O  O2  1  0.87400700  0.34851000  0.44641700  1
  O  O3  1  0.63171800  0.14582200  0.04980300  1
  O  O4  1  0.83641100  0.78820900  0.40247700  1
  O  O5  1  0.65982700  0.70426100  0.09087400  1
  O  O6  1  0.98051500  0.23988000  0.97230600  1
  O  O7  1  0.80092600  0.12873500  0.66739800  1
  O  O8  1  0.77653600  0.58241800  0.61601200  1
  O  O9  1  0.58383600  0.49246200  0.30574800  1
  O  O10  1  0.55613600  0.93188000  0.25001700  1
  O  O11  1  0.70285600  0.36538800  0.82687100  1
  O  O12  1  0.51570100  0.27696100  0.52968100  1
  O  O13  1  0.29663800  0.08583500  0.12425400  1
  O  O14  1  0.70130400  0.91615800  0.86880700  1
  O  O15  1  0.49252400  0.72817500  0.47512700  1
  O  O16  1  0.30017900  0.63648300  0.17544500  1
  O  O17  1  0.45059300  0.07207200  0.74751800  1
  O  O18  1  0.40924900  0.50757400  0.68811100  1
  O  O19  1  0.22710300  0.42374800  0.37741000  1
  O  O20  1  0.19947600  0.87129300  0.33505700  1
  O  O21  1  0.02558100  0.76671100  0.03557900  1
  O  O22  1  0.34094700  0.29772600  0.91064000  1
  O  O23  1  0.16260100  0.21082800  0.60286800  1
  O  O24  1  0.36304500  0.84421200  0.94999500  1
  O  O25  1  0.12349700  0.65137100  0.55074000  1
  O  O26  1  0.05011500  0.43529900  0.75574300  1
  O  O27  1  0.09898400  0.99755500  0.79825300  1
loop_
_geom_bond_atom_site_label_1
_geom_bond_atom_site_label_2
_geom_bond_distance
_geom_bond_site_symmetry_2
Li0 O3 2.096696 1_555
Li0 O0 2.139137 1_545
Li0 O2 2.160531 1_555
Li0 O6 2.188608 1_554
Li0 O19 2.291091 1_655
Li0 O1 2.291436 1_555
Li1 O7 2.078516 1_565
Li1 O14 2.109783 1_555
Li1 O15 2.162143 1_555
Li1 O8 2.257580 1_555
Li1 O27 2.277655 1_655
Li1 O4 2.286160 1_555
Li2 O13 2.087702 1_555
Li2 O22 2.093831 1_554
Li2 O9 2.198367 1_555
Li2 O19 2.227752 1_555
Li2 O6 2.240786 1_454
Li2 O16 2.322544 1_555
Li3 O24 2.071160 1_555
Li3 O21 2.117474 1_556
Li3 O26 2.188492 1_555
Li3 O27 2.260062 1_555
Li3 O8 2.274402 1_455
Li3 O25 2.277680 1_555
Co0 O21 1.794448 1_655
Co0 O0 1.801431 1_555
Co0 O20 1.900701 1_655
Co0 O5 1.910959 1_555
Co0 O1 1.964030 1_555
Co0 O4 1.974991 1_555
Co1 O4 1.847848 1_555
Co1 O1 1.853099 1_555
Co1 O8 1.877485 1_555
Co1 O2 1.882294 1_555
Co1 O25 1.904100 1_655
Co1 O9 1.909984 1_555
Co2 O14 1.781879 1_554
Co2 O0 1.828021 1_555
Co2 O5 1.838516 1_555
Co2 O3 1.886356 1_565
Co2 O10 1.918529 1_555
Co2 O24 1.941521 1_554
Co3 O12 1.848283 1_555
Co3 O11 1.873531 1_555
Co3 O7 1.892154 1_555
Co3 O26 1.900012 1_655
Co3 O2 1.921861 1_555
Co3 O8 1.942446 1_555
Co4 O10 1.867012 1_555
Co4 O9 1.867718 1_555
Co4 O4 1.880636 1_555
Co4 O16 1.882379 1_555
Co4 O15 1.887597 1_555
Co4 O5 1.919256 1_555
Co5 O6 1.827838 1_555
Co5 O14 1.843827 1_545
Co5 O17 1.891504 1_555
Co5 O11 1.893033 1_555
Co5 O7 1.897077 1_555
Co5 O3 1.905287 1_556
Co6 O12 1.900938 1_555
Co6 O18 1.904053 1_555
Co6 O15 1.917051 1_555
Co6 O9 1.919452 1_555
Co6 O19 1.924114 1_555
Co6 O8 1.939480 1_555
Co7 O13 1.804321 1_565
Co7 O21 1.828170 1_555
Co7 O10 1.885971 1_555
Co7 O24 1.898245 1_554
Co7 O20 1.900893 1_555
Co7 O16 1.957594 1_555
Co8 O17 1.863150 1_555
Co8 O18 1.877197 1_555
Co8 O23 1.883892 1_555
Co8 O12 1.887347 1_555
Co8 O11 1.897546 1_555
Co8 O22 1.924077 1_555
Co9 O20 1.848526 1_555
Co9 O16 1.880793 1_555
Co9 O1 1.895698 1_455
Co9 O25 1.899493 1_555
Co9 O15 1.902505 1_555
Co9 O19 1.924385 1_555
Co10 O13 1.810099 1_556
Co10 O27 1.835977 1_545
Co10 O17 1.892800 1_555
Co10 O24 1.895095 1_545
Co10 O22 1.903885 1_555
Co10 O3 1.957196 1_556
Co11 O23 1.869623 1_555
Co11 O18 1.872714 1_555
Co11 O26 1.884125 1_555
Co11 O25 1.890379 1_555
Co11 O2 1.906856 1_455
Co11 O19 1.918669 1_555
Co12 O27 1.814805 1_545
Co12 O6 1.853194 1_455
Co12 O22 1.896677 1_555
Co12 O23 1.903810 1_555
Co12 O7 1.913898 1_455
Co12 O26 1.930590 1_555
