# generated using pymatgen
data_Li4La5Ti6Nb2O26
_symmetry_space_group_name_H-M   'P 1'
_cell_length_a   17.01610636
_cell_length_b   17.01610636
_cell_length_c   5.57445100
_cell_angle_alpha   90.00000000
_cell_angle_beta   90.00000000
_cell_angle_gamma   161.16289273
_symmetry_Int_Tables_number   1
_chemical_formula_structural   Li4La5Ti6Nb2O26
_chemical_formula_sum   'Li4 La5 Ti6 Nb2 O26'
_cell_volume   521.14899851
_cell_formula_units_Z   1
loop_
 _symmetry_equiv_pos_site_id
 _symmetry_equiv_pos_as_xyz
  1  'x, y, z'
loop_
 _atom_site_type_symbol
 _atom_site_label
 _atom_site_symmetry_multiplicity
 _atom_site_fract_x
 _atom_site_fract_y
 _atom_site_fract_z
 _atom_site_occupancy
  Li  Li0  1  0.50000000  0.00000000  0.76035600  1
  Li  Li1  1  0.00000000  0.50000000  0.76035600  1
  Li  Li2  1  0.50000000  0.00000000  0.23964400  1
  Li  Li3  1  0.00000000  0.50000000  0.23964400  1
  La  La0  1  0.50000000  0.50000000  0.00000000  1
  La  La1  1  0.38180700  0.61819300  0.00000000  1
  La  La2  1  0.61819300  0.38180700  0.00000000  1
  La  La3  1  0.11785800  0.88214200  0.50000000  1
  La  La4  1  0.88214200  0.11785800  0.50000000  1
  Ti  Ti0  1  0.05797900  0.94202100  0.00000000  1
  Ti  Ti1  1  0.18092000  0.81908000  0.00000000  1
  Ti  Ti2  1  0.94202100  0.05797900  0.00000000  1
  Ti  Ti3  1  0.44256600  0.55743400  0.50000000  1
  Ti  Ti4  1  0.81908000  0.18092000  0.00000000  1
  Ti  Ti5  1  0.55743400  0.44256600  0.50000000  1
  Nb  Nb0  1  0.31855100  0.68144900  0.50000000  1
  Nb  Nb1  1  0.68144900  0.31855100  0.50000000  1
  O  O0  1  0.11655400  0.88344600  0.00000000  1
  O  O1  1  0.23455800  0.76544200  0.00000000  1
  O  O2  1  0.19829600  0.32163900  0.75912200  1
  O  O3  1  0.07649400  0.41911600  0.75085100  1
  O  O4  1  0.32163900  0.19829600  0.75912200  1
  O  O5  1  0.00000000  0.00000000  0.00000000  1
  O  O6  1  0.58088400  0.92350600  0.75085100  1
  O  O7  1  0.88344600  0.11655400  0.00000000  1
  O  O8  1  0.50000000  0.50000000  0.50000000  1
  O  O9  1  0.19829600  0.32163900  0.24087800  1
  O  O10  1  0.07649400  0.41911600  0.24914900  1
  O  O11  1  0.67836100  0.80170400  0.75912200  1
  O  O12  1  0.76544200  0.23455800  0.00000000  1
  O  O13  1  0.26272900  0.73727100  0.50000000  1
  O  O14  1  0.41911600  0.07649400  0.75085100  1
  O  O15  1  0.38338000  0.61662000  0.50000000  1
  O  O16  1  0.92350600  0.58088400  0.75085100  1
  O  O17  1  0.58088400  0.92350600  0.24914900  1
  O  O18  1  0.67836100  0.80170400  0.24087800  1
  O  O19  1  0.80170400  0.67836100  0.75912200  1
  O  O20  1  0.32163900  0.19829600  0.24087800  1
  O  O21  1  0.73727100  0.26272900  0.50000000  1
  O  O22  1  0.41911600  0.07649400  0.24914900  1
  O  O23  1  0.61662000  0.38338000  0.50000000  1
  O  O24  1  0.80170400  0.67836100  0.24087800  1
  O  O25  1  0.92350600  0.58088400  0.24914900  1
loop_
_geom_bond_atom_site_label_1
_geom_bond_atom_site_label_2
_geom_bond_distance
_geom_bond_site_symmetry_2
Li0 O12 1.997968 1_556
Li0 O1 1.997968 1_546
Li0 O13 2.056097 1_545
Li0 O21 2.056097 1_555
Li1 O1 1.997968 1_556
Li1 O12 1.997968 1_456
Li1 O21 2.056097 1_455
Li1 O13 2.056097 1_555
Li2 O12 1.997968 1_555
Li2 O1 1.997968 1_545
Li2 O13 2.056097 1_545
Li2 O21 2.056097 1_555
Li3 O1 1.997968 1_555
Li3 O12 1.997968 1_455
Li3 O21 2.056097 1_455
Li3 O13 2.056097 1_555
La0 O5 2.784608 1_665
La0 O5 2.784608 1_555
La0 O8 2.787225 1_554
La0 O8 2.787225 1_555
La0 O20 2.806616 1_555
La0 O24 2.806616 1_555
La0 O9 2.806616 1_555
La0 O18 2.806616 1_555
La0 O4 2.806616 1_554
La0 O19 2.806616 1_554
La0 O2 2.806616 1_554
La0 O11 2.806616 1_554
La1 O17 2.661204 1_555
La1 O6 2.661204 1_554
La1 O10 2.661204 1_555
La1 O3 2.661204 1_554
La1 O18 2.681602 1_555
La1 O9 2.681602 1_555
La1 O2 2.681602 1_554
La1 O11 2.681602 1_554
La1 O7 2.785152 1_565
La1 O7 2.785152 1_455
La1 O15 2.787726 1_554
La1 O15 2.787726 1_555
La2 O25 2.661204 1_555
La2 O16 2.661204 1_554
La2 O22 2.661204 1_555
La2 O14 2.661204 1_554
La2 O20 2.681602 1_555
La2 O24 2.681602 1_555
La2 O4 2.681602 1_554
La2 O19 2.681602 1_554
La2 O0 2.785152 1_655
La2 O0 2.785152 1_545
La2 O23 2.787726 1_555
La2 O23 2.787726 1_554
La3 O16 2.660942 1_455
La3 O25 2.660942 1_455
La3 O14 2.660942 1_565
La3 O22 2.660942 1_565
La3 O19 2.782274 1_455
La3 O24 2.782274 1_455
La3 O4 2.782274 1_565
La3 O20 2.782274 1_565
La3 O23 2.784918 1_455
La3 O23 2.784918 1_565
La3 O0 2.787569 1_556
La3 O0 2.787569 1_555
La4 O6 2.660942 1_545
La4 O17 2.660942 1_545
La4 O3 2.660942 1_655
La4 O10 2.660942 1_655
La4 O11 2.782274 1_545
La4 O18 2.782274 1_545
La4 O2 2.782274 1_655
La4 O9 2.782274 1_655
La4 O15 2.784918 1_545
La4 O15 2.784918 1_655
La4 O7 2.787569 1_555
La4 O7 2.787569 1_556
Nb0 O13 1.874136 1_555
Nb0 O3 2.010958 1_555
Nb0 O6 2.010958 1_555
Nb0 O10 2.010958 1_555
Nb0 O17 2.010958 1_555
Nb0 O15 2.176532 1_555
Nb1 O21 1.874136 1_555
Nb1 O14 2.010958 1_555
Nb1 O16 2.010958 1_555
Nb1 O22 2.010958 1_555
Nb1 O25 2.010958 1_555
Nb1 O23 2.176532 1_555
O0 Ti0 1.966564 1_555
O0 Ti1 2.160988 1_555
O1 Ti1 1.800812 1_555
O2 Ti3 1.973253 1_555
O2 Ti2 1.978522 1_456
O3 Ti4 1.984352 1_456
O4 Ti5 1.973253 1_555
O4 Ti0 1.978522 1_546
O5 Ti2 1.946554 1_455
O5 Ti0 1.946554 1_545
O6 Ti4 1.984352 1_566
O7 Ti2 1.966564 1_555
O7 Ti4 2.160988 1_555
O8 Ti3 1.928256 1_555
O8 Ti5 1.928256 1_555
O9 Ti3 1.973253 1_555
O9 Ti2 1.978522 1_455
O10 Ti4 1.984352 1_455
O11 Ti3 1.973253 1_555
O11 Ti2 1.978522 1_566
O12 Ti4 1.800812 1_555
O14 Ti1 1.984352 1_546
O15 Ti3 1.987077 1_555
O16 Ti1 1.984352 1_656
O17 Ti4 1.984352 1_565
O18 Ti3 1.973253 1_555
O18 Ti2 1.978522 1_565
O19 Ti5 1.973253 1_555
O19 Ti0 1.978522 1_656
O20 Ti5 1.973253 1_555
O20 Ti0 1.978522 1_545
O22 Ti1 1.984352 1_545
O23 Ti5 1.987077 1_555
O24 Ti5 1.973253 1_555
O24 Ti0 1.978522 1_655
O25 Ti1 1.984352 1_655
