# generated using pymatgen
data_CuH20Se2(NO7)2
_symmetry_space_group_name_H-M   'P 1'
_cell_length_a   12.67350800
_cell_length_b   6.58927100
_cell_length_c   9.30929617
_cell_angle_alpha   74.12145329
_cell_angle_beta   90.00000000
_cell_angle_gamma   90.00000000
_symmetry_Int_Tables_number   1
_chemical_formula_structural   CuH20Se2(NO7)2
_chemical_formula_sum   'Cu2 H40 Se4 N4 O28'
_cell_volume   747.74861869
_cell_formula_units_Z   2
loop_
 _symmetry_equiv_pos_site_id
 _symmetry_equiv_pos_as_xyz
  1  'x, y, z'
loop_
 _atom_site_type_symbol
 _atom_site_label
 _atom_site_symmetry_multiplicity
 _atom_site_fract_x
 _atom_site_fract_y
 _atom_site_fract_z
 _atom_site_occupancy
  Cu  Cu0  1  0.50000000  0.50000000  0.00000000  1
  Cu  Cu1  1  0.00000000  0.50000000  0.50000000  1
  H  H0  1  0.55683700  0.81369800  0.10181700  1
  H  H1  1  0.05683700  0.18630200  0.39818300  1
  H  H2  1  0.44316300  0.18630200  0.89818300  1
  H  H3  1  0.94316300  0.81369800  0.60181700  1
  H  H4  1  0.64098200  0.81357600  0.97518000  1
  H  H5  1  0.14098200  0.18642400  0.52482000  1
  H  H6  1  0.35901800  0.18642400  0.02482000  1
  H  H7  1  0.85901800  0.81357600  0.47518000  1
  H  H8  1  0.68021500  0.48882800  0.87063700  1
  H  H9  1  0.18021500  0.51117200  0.62936300  1
  H  H10  1  0.31978500  0.51117200  0.12936300  1
  H  H11  1  0.81978500  0.48882800  0.37063700  1
  H  H12  1  0.59227400  0.55982400  0.74240500  1
  H  H13  1  0.09227400  0.44017600  0.75759500  1
  H  H14  1  0.40772600  0.44017600  0.25759500  1
  H  H15  1  0.90772600  0.55982400  0.24240500  1
  H  H16  1  0.59063500  0.17224700  0.21405800  1
  H  H17  1  0.09063500  0.82775300  0.28594200  1
  H  H18  1  0.40936500  0.82775300  0.78594200  1
  H  H19  1  0.90936500  0.17224700  0.71405800  1
  H  H20  1  0.62574600  0.37685200  0.26073600  1
  H  H21  1  0.12574600  0.62314800  0.23926400  1
  H  H22  1  0.37425400  0.62314800  0.73926400  1
  H  H23  1  0.87425400  0.37685200  0.76073600  1
  H  H24  1  0.58026600  0.12623900  0.66456200  1
  H  H25  1  0.08026600  0.87376100  0.83543800  1
  H  H26  1  0.41973400  0.87376100  0.33543800  1
  H  H27  1  0.91973400  0.12623900  0.16456200  1
  H  H28  1  0.70556600  0.10686800  0.73030600  1
  H  H29  1  0.20556600  0.89313200  0.76969400  1
  H  H30  1  0.29443400  0.89313200  0.26969400  1
  H  H31  1  0.79443400  0.10686800  0.23030600  1
  H  H32  1  0.67376900  0.29300800  0.56875000  1
  H  H33  1  0.17376900  0.70699200  0.93125000  1
  H  H34  1  0.32623100  0.70699200  0.43125000  1
  H  H35  1  0.82623100  0.29300800  0.06875000  1
  H  H36  1  0.68066800  0.03801600  0.57247400  1
  H  H37  1  0.18066800  0.96198400  0.92752600  1
  H  H38  1  0.31933200  0.96198400  0.42752600  1
  H  H39  1  0.81933200  0.03801600  0.07247400  1
  Se  Se0  1  0.63524500  0.75033500  0.41926000  1
  Se  Se1  1  0.13524500  0.24966500  0.08074000  1
  Se  Se2  1  0.36475500  0.24966500  0.58074000  1
  Se  Se3  1  0.86475500  0.75033500  0.91926000  1
  N  N0  1  0.65994400  0.14087300  0.63543400  1
  N  N1  1  0.15994400  0.85912700  0.86456600  1
  N  N2  1  0.34005600  0.85912700  0.36456600  1
  N  N3  1  0.84005600  0.14087300  0.13543400  1
  O  O0  1  0.68314100  0.52131700  0.39833700  1
  O  O1  1  0.18314100  0.47868300  0.10166300  1
  O  O2  1  0.31685900  0.47868300  0.60166300  1
  O  O3  1  0.81685900  0.52131700  0.89833700  1
  O  O4  1  0.55879100  0.87306600  0.27411600  1
  O  O5  1  0.05879100  0.12693400  0.22588400  1
  O  O6  1  0.44120900  0.12693400  0.72588400  1
  O  O7  1  0.94120900  0.87306600  0.77411600  1
  O  O8  1  0.73712900  0.91203200  0.42565000  1
  O  O9  1  0.23712900  0.08796800  0.07435000  1
  O  O10  1  0.26287100  0.08796800  0.57435000  1
  O  O11  1  0.76287100  0.91203200  0.92565000  1
  O  O12  1  0.56513800  0.71259700  0.57534900  1
  O  O13  1  0.06513800  0.28740300  0.92465100  1
  O  O14  1  0.43486200  0.28740300  0.42465100  1
  O  O15  1  0.93486200  0.71259700  0.07534900  1
  O  O16  1  0.56511600  0.78317700  0.00343400  1
  O  O17  1  0.06511600  0.21682300  0.49656600  1
  O  O18  1  0.43488400  0.21682300  0.99656600  1
  O  O19  1  0.93488400  0.78317700  0.50343400  1
  O  O20  1  0.60582100  0.46538400  0.84544500  1
  O  O21  1  0.10582100  0.53461600  0.65455500  1
  O  O22  1  0.39417900  0.53461600  0.15455500  1
  O  O23  1  0.89417900  0.46538400  0.34544500  1
  O  O24  1  0.61967100  0.31574400  0.17567100  1
  O  O25  1  0.11967100  0.68425600  0.32432900  1
  O  O26  1  0.38032900  0.68425600  0.82432900  1
  O  O27  1  0.88032900  0.31574400  0.67567100  1
loop_
_geom_bond_atom_site_label_1
_geom_bond_atom_site_label_2
_geom_bond_distance
_geom_bond_site_symmetry_2
Cu0 O22 2.024934 1_555
Cu0 O20 2.024934 1_554
Cu0 O18 2.048510 1_554
Cu0 O16 2.048510 1_555
Cu0 O24 2.315658 1_555
Cu0 O26 2.315658 1_554
Cu1 O21 2.024934 1_555
Cu1 O23 2.024934 1_455
Cu1 O17 2.048510 1_555
Cu1 O19 2.048510 1_455
Cu1 O27 2.315658 1_455
Cu1 O25 2.315658 1_555
H0 O16 0.995527 1_555
H1 O17 0.995527 1_555
H2 O18 0.995527 1_555
H3 O19 0.995527 1_555
H4 O16 1.002465 1_556
H4 O11 1.689996 1_555
H5 O17 1.002465 1_555
H5 O10 1.689996 1_555
H6 O18 1.002465 1_554
H6 O9 1.689996 1_555
H7 O19 1.002465 1_555
H7 O8 1.689996 1_555
H8 O20 0.993791 1_555
H9 O21 0.993791 1_555
H10 O22 0.993791 1_555
H11 O23 0.993791 1_555
H12 O20 1.005093 1_555
H12 O12 1.641204 1_555
H13 O21 1.005093 1_555
H13 O13 1.641204 1_555
H14 O22 1.005093 1_555
H14 O14 1.641204 1_555
H15 O23 1.005093 1_555
H15 O15 1.641204 1_555
H16 O24 0.986038 1_555
H17 O25 0.986038 1_555
H18 O26 0.986038 1_555
H19 O27 0.986038 1_555
H20 O24 0.984703 1_555
H21 O25 0.984703 1_555
H22 O26 0.984703 1_555
H23 O27 0.984703 1_555
H24 N0 1.043175 1_555
H25 N1 1.043175 1_555
H26 N2 1.043175 1_555
H27 N3 1.043175 1_555
H28 N0 1.027741 1_555
H29 N1 1.027741 1_555
H30 N2 1.027741 1_555
H31 N3 1.027741 1_555
H32 N0 1.039455 1_555
H33 N1 1.039455 1_555
H34 N2 1.039455 1_555
H35 N3 1.039455 1_555
H36 N0 1.043661 1_555
H37 N1 1.043661 1_555
H38 N2 1.043661 1_555
H39 N3 1.043661 1_555
O0 Se0 1.686567 1_555
O1 Se1 1.686567 1_555
O2 Se2 1.686567 1_555
O3 Se3 1.686567 1_555
O4 Se0 1.679474 1_555
O5 Se1 1.679474 1_555
O6 Se2 1.679474 1_555
O7 Se3 1.679474 1_555
O8 Se0 1.685439 1_555
O9 Se1 1.685439 1_555
O10 Se2 1.685439 1_555
O11 Se3 1.685439 1_555
O12 Se0 1.662825 1_555
O13 Se1 1.662825 1_556
O14 Se2 1.662825 1_555
O15 Se3 1.662825 1_554
