# generated using pymatgen
data_SmDyO3
_symmetry_space_group_name_H-M   'P 1'
_cell_length_a   5.80191200
_cell_length_b   6.05917300
_cell_length_c   8.47748700
_cell_angle_alpha   90.00000000
_cell_angle_beta   90.00000000
_cell_angle_gamma   90.00000000
_symmetry_Int_Tables_number   1
_chemical_formula_structural   SmDyO3
_chemical_formula_sum   'Sm4 Dy4 O12'
_cell_volume   298.02426283
_cell_formula_units_Z   4
loop_
 _symmetry_equiv_pos_site_id
 _symmetry_equiv_pos_as_xyz
  1  'x, y, z'
loop_
 _atom_site_type_symbol
 _atom_site_label
 _atom_site_symmetry_multiplicity
 _atom_site_fract_x
 _atom_site_fract_y
 _atom_site_fract_z
 _atom_site_occupancy
  Sm  Sm0  1  0.98694600  0.05145600  0.25000000  1
  Sm  Sm1  1  0.48694600  0.44854400  0.75000000  1
  Sm  Sm2  1  0.51305400  0.55145600  0.25000000  1
  Sm  Sm3  1  0.01305400  0.94854400  0.75000000  1
  Dy  Dy0  1  0.50000000  0.00000000  0.00000000  1
  Dy  Dy1  1  0.50000000  0.00000000  0.50000000  1
  Dy  Dy2  1  0.00000000  0.50000000  0.00000000  1
  Dy  Dy3  1  0.00000000  0.50000000  0.50000000  1
  O  O0  1  0.64068600  0.07359600  0.75000000  1
  O  O1  1  0.18060700  0.18387900  0.57257900  1
  O  O2  1  0.18060700  0.18387900  0.92742100  1
  O  O3  1  0.68060700  0.31612100  0.42742100  1
  O  O4  1  0.68060700  0.31612100  0.07257900  1
  O  O5  1  0.14068600  0.42640400  0.25000000  1
  O  O6  1  0.85931400  0.57359600  0.75000000  1
  O  O7  1  0.31939300  0.68387900  0.92742100  1
  O  O8  1  0.31939300  0.68387900  0.57257900  1
  O  O9  1  0.81939300  0.81612100  0.07257900  1
  O  O10  1  0.81939300  0.81612100  0.42742100  1
  O  O11  1  0.35931400  0.92640400  0.25000000  1
loop_
_geom_bond_atom_site_label_1
_geom_bond_atom_site_label_2
_geom_bond_distance
_geom_bond_site_symmetry_2
Dy0 O2 2.248080 1_554
Dy0 O9 2.248080 1_545
Dy0 O4 2.268365 1_555
Dy0 O7 2.268365 1_544
Dy0 O11 2.314487 1_545
Dy0 O0 2.314487 1_554
Dy1 O1 2.248080 1_555
Dy1 O10 2.248080 1_545
Dy1 O3 2.268365 1_555
Dy1 O8 2.268365 1_545
Dy1 O0 2.314487 1_555
Dy1 O11 2.314487 1_545
Dy2 O7 2.248080 1_554
Dy2 O4 2.248080 1_455
Dy2 O2 2.268365 1_554
Dy2 O9 2.268365 1_455
Dy2 O6 2.314487 1_454
Dy2 O5 2.314487 1_555
Dy3 O8 2.248080 1_555
Dy3 O3 2.248080 1_455
Dy3 O1 2.268365 1_555
Dy3 O10 2.268365 1_455
Dy3 O5 2.314487 1_555
Dy3 O6 2.314487 1_455
O0 Sm3 2.289466 1_645
O0 Sm1 2.440708 1_555
O1 Sm3 2.289234 1_545
O1 Sm1 2.827180 1_555
O1 Sm0 3.063438 1_455
O2 Sm3 2.289234 1_545
O2 Sm1 2.827180 1_555
O2 Sm0 3.063438 1_456
O3 Sm2 2.289234 1_555
O3 Sm0 2.827180 1_555
O3 Sm1 3.063438 1_555
O4 Sm2 2.289234 1_555
O4 Sm0 2.827180 1_555
O4 Sm1 3.063438 1_554
O5 Sm2 2.289466 1_555
O5 Sm0 2.440708 1_455
O6 Sm1 2.289466 1_555
O6 Sm3 2.440708 1_655
O7 Sm1 2.289234 1_555
O7 Sm3 2.827180 1_555
O7 Sm2 3.063438 1_556
O8 Sm1 2.289234 1_555
O8 Sm3 2.827180 1_555
O8 Sm2 3.063438 1_555
O9 Sm0 2.289234 1_565
O9 Sm2 2.827180 1_555
O9 Sm3 3.063438 1_654
O10 Sm0 2.289234 1_565
O10 Sm2 2.827180 1_555
O10 Sm3 3.063438 1_655
O11 Sm0 2.289466 1_465
O11 Sm2 2.440708 1_555
