# generated using pymatgen
data_Li24Ti11CrO36
_symmetry_space_group_name_H-M   'P 1'
_cell_length_a   5.10492400
_cell_length_b   10.68642761
_cell_length_c   13.20071374
_cell_angle_alpha   112.21904760
_cell_angle_beta   97.15736409
_cell_angle_gamma   94.73528625
_symmetry_Int_Tables_number   1
_chemical_formula_structural   Li24Ti11CrO36
_chemical_formula_sum   'Li24 Ti11 Cr1 O36'
_cell_volume   654.85031531
_cell_formula_units_Z   1
loop_
 _symmetry_equiv_pos_site_id
 _symmetry_equiv_pos_as_xyz
  1  'x, y, z'
loop_
 _atom_site_type_symbol
 _atom_site_label
 _atom_site_symmetry_multiplicity
 _atom_site_fract_x
 _atom_site_fract_y
 _atom_site_fract_z
 _atom_site_occupancy
  Li  Li0  1  0.78421300  0.05842700  0.05886700  1
  Li  Li1  1  0.66508600  0.33332100  0.08296300  1
  Li  Li2  1  0.88498800  0.27476900  0.27473100  1
  Li  Li3  1  0.33304000  0.16642000  0.16576500  1
  Li  Li4  1  0.55633700  0.60750600  0.10768100  1
  Li  Li5  1  0.00002900  0.00001300  0.25002100  1
  Li  Li6  1  0.00096600  0.49913900  0.99983300  1
  Li  Li7  1  0.77787200  0.05928800  0.55882600  1
  Li  Li8  1  0.44698300  0.39191800  0.39212700  1
  Li  Li9  1  0.66671500  0.33337700  0.58342300  1
  Li  Li10  1  0.66675100  0.83322300  0.33327100  1
  Li  Li11  1  0.11099800  0.72589100  0.22541900  1
  Li  Li12  1  0.89030600  0.27387600  0.77508900  1
  Li  Li13  1  0.33370500  0.16657800  0.66620500  1
  Li  Li14  1  0.33323100  0.66627000  0.41639200  1
  Li  Li15  1  0.55239800  0.60818400  0.60757400  1
  Li  Li16  1  0.00000900  0.49994600  0.49996200  1
  Li  Li17  1  0.22206000  0.94078700  0.44121500  1
  Li  Li18  1  0.44075000  0.39283200  0.89269500  1
  Li  Li19  1  0.66722400  0.83303300  0.83328900  1
  Li  Li20  1  0.11426700  0.72519900  0.72578300  1
  Li  Li21  1  0.33330800  0.66676500  0.91670700  1
  Li  Li22  1  0.99976800  0.00100300  0.75125300  1
  Li  Li23  1  0.21670500  0.94279700  0.94107000  1
  Ti  Ti0  1  0.88935100  0.77804500  0.02810500  1
  Ti  Ti1  1  0.55572800  0.11143900  0.36133800  1
  Ti  Ti2  1  0.78043100  0.55381600  0.30525600  1
  Ti  Ti3  1  0.22647500  0.44645900  0.19275300  1
  Ti  Ti4  1  0.44400600  0.88825900  0.13806300  1
  Ti  Ti5  1  0.11054500  0.22160000  0.47156700  1
  Ti  Ti6  1  0.88980700  0.77828600  0.52851600  1
  Ti  Ti7  1  0.55484200  0.10933100  0.86316500  1
  Ti  Ti8  1  0.77724700  0.55473100  0.80508000  1
  Ti  Ti9  1  0.22258300  0.44488000  0.69485900  1
  Ti  Ti10  1  0.44487800  0.88923700  0.63839200  1
  Cr  Cr0  1  0.10636300  0.22327700  0.97242000  1
  O  O0  1  0.42449900  0.14168100  0.00276300  1
  O  O1  1  0.64298200  0.07688300  0.21137100  1
  O  O2  1  0.90438400  0.52720500  0.16395800  1
  O  O3  1  0.31347200  0.41157100  0.04557700  1
  O  O4  1  0.88078700  0.04345400  0.40649200  1
  O  O5  1  0.02397200  0.25426800  0.11796600  1
  O  O6  1  0.54746800  0.37633800  0.23976600  1
  O  O7  1  0.78552700  0.28991500  0.42679700  1
  O  O8  1  0.76203100  0.80563800  0.16894100  1
  O  O9  1  0.23774000  0.19419900  0.33086500  1
  O  O10  1  0.21441300  0.71019400  0.07317900  1
  O  O11  1  0.45167300  0.62278800  0.25955700  1
  O  O12  1  0.42848300  0.13900700  0.50218900  1
  O  O13  1  0.97612900  0.74313700  0.37804100  1
  O  O14  1  0.11903300  0.95655600  0.09345100  1
  O  O15  1  0.69031000  0.58998400  0.45521800  1
  O  O16  1  0.09376600  0.47131800  0.33465100  1
  O  O17  1  0.64038100  0.07759900  0.71202800  1
  O  O18  1  0.35719600  0.92326300  0.28848100  1
  O  O19  1  0.90479800  0.52746600  0.66437800  1
  O  O20  1  0.30953700  0.41002600  0.54478100  1
  O  O21  1  0.87703000  0.04249100  0.90595500  1
  O  O22  1  0.02395000  0.25645100  0.62190800  1
  O  O23  1  0.57123500  0.86118200  0.49782400  1
  O  O24  1  0.54744000  0.37663500  0.74021700  1
  O  O25  1  0.79616600  0.29014000  0.92860200  1
  O  O26  1  0.76174400  0.80590800  0.66894100  1
  O  O27  1  0.23675400  0.19508700  0.83371600  1
  O  O28  1  0.21438100  0.71025600  0.57331100  1
  O  O29  1  0.45226500  0.62315500  0.76005300  1
  O  O30  1  0.97607700  0.74325000  0.87810300  1
  O  O31  1  0.11893000  0.95665300  0.59358400  1
  O  O32  1  0.69056000  0.58983800  0.95519400  1
  O  O33  1  0.09533700  0.47237900  0.83559900  1
  O  O34  1  0.35792700  0.92306800  0.78907500  1
  O  O35  1  0.57166100  0.86109900  0.99779100  1
loop_
_geom_bond_atom_site_label_1
_geom_bond_atom_site_label_2
_geom_bond_distance
_geom_bond_site_symmetry_2
Li0 O21 2.078393 1_554
Li0 O35 2.095839 1_544
Li0 O5 2.142657 1_655
Li0 O1 2.167116 1_555
Li0 O14 2.191727 1_645
Li0 O0 2.267437 1_555
Li1 O0 2.108148 1_555
Li1 O6 2.119435 1_555
Li1 O25 2.119539 1_554
Li1 O3 2.122238 1_555
Li1 O2 2.123577 1_555
Li1 O5 2.150239 1_655
Li2 O7 2.082161 1_555
Li2 O16 2.082571 1_655
Li2 O1 2.161307 1_555
Li2 O6 2.202141 1_555
Li2 O5 2.209639 1_655
Li2 O9 2.222433 1_655
Li3 O5 2.052624 1_555
Li3 O1 2.056616 1_555
Li3 O0 2.181369 1_555
Li3 O14 2.202484 1_545
Li3 O6 2.203532 1_555
Li3 O9 2.207601 1_555
Li4 O11 2.089348 1_555
Li4 O8 2.089496 1_555
Li4 O3 2.147856 1_555
Li4 O32 2.152831 1_554
Li4 O2 2.202293 1_555
Li4 O10 2.225882 1_555
Li5 O4 2.118309 1_455
Li5 O14 2.118982 1_545
Li5 O9 2.122352 1_555
Li5 O8 2.124669 1_445
Li5 O18 2.141513 1_545
Li5 O1 2.142381 1_455
Li6 O3 2.054064 1_556
Li6 O32 2.061670 1_455
Li6 O25 2.178695 1_455
Li6 O2 2.196865 1_456
Li6 O33 2.197326 1_555
Li6 O10 2.211666 1_556
Li7 O4 2.090225 1_555
Li7 O23 2.091260 1_545
Li7 O22 2.164762 1_655
Li7 O17 2.167494 1_555
Li7 O12 2.205960 1_555
Li7 O31 2.222985 1_645
Li8 O6 2.086628 1_555
Li8 O9 2.092651 1_555
Li8 O20 2.161109 1_555
Li8 O15 2.166006 1_555
Li8 O7 2.208103 1_555
Li8 O16 2.223856 1_555
Li9 O7 2.119244 1_555
Li9 O19 2.122491 1_555
Li9 O24 2.122586 1_555
Li9 O12 2.125270 1_555
Li9 O20 2.141639 1_555
Li9 O22 2.142922 1_655
Li10 O13 2.054057 1_555
Li10 O18 2.054536 1_555
Li10 O8 2.198226 1_555
Li10 O23 2.200612 1_555
Li10 O4 2.205592 1_565
Li10 O11 2.209213 1_555
Li11 O10 2.090380 1_555
Li11 O2 2.095969 1_455
Li11 O13 2.157052 1_455
Li11 O18 2.166796 1_555
Li11 O8 2.203608 1_455
Li11 O11 2.222201 1_555
Li12 O25 2.087555 1_555
Li12 O33 2.092130 1_655
Li12 O22 2.160784 1_655
Li12 O17 2.166386 1_555
Li12 O27 2.198495 1_655
Li12 O24 2.231643 1_555
Li13 O17 2.041035 1_555
Li13 O22 2.051791 1_555
Li13 O12 2.193355 1_555
Li13 O24 2.203473 1_555
Li13 O31 2.204369 1_545
Li13 O27 2.239547 1_555
Li14 O11 2.120976 1_555
Li14 O28 2.122216 1_555
Li14 O23 2.129224 1_555
Li14 O16 2.132996 1_555
Li14 O15 2.139777 1_555
Li14 O13 2.141513 1_455
Li15 O29 2.089194 1_555
Li15 O26 2.092813 1_555
Li15 O15 2.158253 1_555
Li15 O20 2.165946 1_555
Li15 O28 2.204839 1_555
Li15 O19 2.225284 1_555
Li16 O20 2.053750 1_555
Li16 O15 2.054866 1_455
Li16 O19 2.199349 1_455
Li16 O7 2.204678 1_455
Li16 O16 2.205517 1_555
Li16 O28 2.206876 1_555
Li17 O31 2.090995 1_555
Li17 O12 2.091881 1_565
Li17 O18 2.158332 1_555
Li17 O13 2.168417 1_455
Li17 O23 2.204238 1_555
Li17 O4 2.223943 1_465
Li18 O27 2.084833 1_555
Li18 O24 2.098402 1_555
Li18 O3 2.139578 1_556
Li18 O32 2.172585 1_555
Li18 O33 2.191078 1_555
Li18 O25 2.286650 1_555
Li19 O30 2.050128 1_555
Li19 O34 2.050690 1_555
Li19 O21 2.191307 1_565
Li19 O26 2.198172 1_555
Li19 O35 2.199798 1_555
Li19 O29 2.204217 1_555
Li20 O28 2.089149 1_555
Li20 O19 2.093100 1_455
Li20 O30 2.158820 1_455
Li20 O34 2.164965 1_555
Li20 O29 2.204598 1_555
Li20 O26 2.225921 1_455
Li21 O10 2.117582 1_556
Li21 O29 2.119704 1_555
Li21 O33 2.124720 1_555
Li21 O35 2.125125 1_555
Li21 O30 2.140781 1_455
Li21 O32 2.143009 1_555
Li22 O21 2.107035 1_555
Li22 O27 2.121401 1_655
Li22 O26 2.131484 1_545
Li22 O31 2.131600 1_645
Li22 O34 2.150415 1_645
Li22 O17 2.153091 1_555
Li23 O14 2.086831 1_556
Li23 O0 2.099778 1_566
Li23 O34 2.157687 1_555
Li23 O30 2.172487 1_455
Li23 O21 2.198842 1_465
Li23 O35 2.241384 1_555
Cr0 O25 1.903640 1_455
Cr0 O5 1.929030 1_556
Cr0 O27 1.950898 1_555
Cr0 O0 1.973373 1_556
Cr0 O21 1.990350 1_455
Cr0 O3 2.005999 1_556
O0 Ti7 1.954447 1_554
O1 Ti1 1.986924 1_555
O1 Ti4 1.993262 1_545
O2 Ti2 1.970540 1_555
O2 Ti3 1.979693 1_655
O3 Ti3 1.950730 1_555
O4 Ti5 1.970102 1_655
O4 Ti1 1.979096 1_555
O5 Ti3 2.030565 1_555
O6 Ti2 1.972353 1_555
O6 Ti3 1.983143 1_555
O7 Ti1 1.972837 1_555
O7 Ti5 1.979167 1_655
O8 Ti0 1.970769 1_555
O8 Ti4 1.981256 1_555
O9 Ti5 1.969204 1_555
O9 Ti1 1.980529 1_555
O10 Ti4 1.969072 1_555
O10 Ti0 1.977967 1_455
O11 Ti3 1.944981 1_555
O11 Ti2 2.003010 1_555
O12 Ti1 1.970825 1_555
O12 Ti5 1.979794 1_555
O13 Ti6 1.990512 1_555
O13 Ti2 1.992826 1_555
O14 Ti0 1.972847 1_455
O14 Ti4 1.978175 1_555
O15 Ti2 1.989352 1_555
O15 Ti6 1.991530 1_555
O16 Ti2 1.955315 1_455
O16 Ti3 2.001959 1_555
O17 Ti10 1.984824 1_545
O17 Ti7 2.004004 1_555
O18 Ti1 1.988440 1_565
O18 Ti4 1.990960 1_555
O19 Ti8 1.970303 1_555
O19 Ti9 1.978597 1_655
O20 Ti9 1.987219 1_555
O20 Ti5 1.991581 1_555
O21 Ti7 1.949884 1_555
O22 Ti5 1.989872 1_555
O22 Ti9 1.990802 1_555
O23 Ti10 1.964347 1_555
O23 Ti6 1.984647 1_555
O24 Ti8 1.969827 1_555
O24 Ti9 1.980676 1_555
O25 Ti7 2.019099 1_555
O26 Ti6 1.967430 1_555
O26 Ti10 1.979650 1_555
O27 Ti7 1.996388 1_555
O28 Ti6 1.975715 1_455
O28 Ti10 1.978558 1_555
O29 Ti9 1.970955 1_555
O29 Ti8 1.980792 1_555
O30 Ti0 1.985947 1_556
O30 Ti8 1.991962 1_555
O31 Ti6 1.970388 1_455
O31 Ti10 1.978015 1_555
O32 Ti8 1.986716 1_555
O32 Ti0 1.989212 1_556
O33 Ti9 1.969600 1_555
O33 Ti8 1.978552 1_455
O34 Ti7 1.970128 1_565
O34 Ti10 1.996742 1_555
O35 Ti4 1.965485 1_556
O35 Ti0 1.980557 1_556
