# generated using pymatgen
data_Mn2Ni3Sb(PO4)6
_symmetry_space_group_name_H-M   'P 1'
_cell_length_a   8.64101804
_cell_length_b   8.64101804
_cell_length_c   8.64101822
_cell_angle_alpha   60.47072665
_cell_angle_beta   60.47072665
_cell_angle_gamma   60.47072612
_symmetry_Int_Tables_number   1
_chemical_formula_structural   Mn2Ni3Sb(PO4)6
_chemical_formula_sum   'Mn2 Ni3 Sb1 P6 O24'
_cell_volume   461.08012388
_cell_formula_units_Z   1
loop_
 _symmetry_equiv_pos_site_id
 _symmetry_equiv_pos_as_xyz
  1  'x, y, z'
loop_
 _atom_site_type_symbol
 _atom_site_label
 _atom_site_symmetry_multiplicity
 _atom_site_fract_x
 _atom_site_fract_y
 _atom_site_fract_z
 _atom_site_occupancy
  Mn  Mn0  1  0.00621900  0.00621900  0.00621900  1
  Mn  Mn1  1  0.49937400  0.49937400  0.49937400  1
  Ni  Ni0  1  0.14442800  0.14442800  0.14442800  1
  Ni  Ni1  1  0.35669500  0.35669500  0.35669500  1
  Ni  Ni2  1  0.64216900  0.64216900  0.64216900  1
  Sb  Sb0  1  0.85692100  0.85692100  0.85692100  1
  P  P0  1  0.74600600  0.04564700  0.45536400  1
  P  P1  1  0.04564700  0.45536400  0.74600600  1
  P  P2  1  0.45536400  0.74600600  0.04564700  1
  P  P3  1  0.54046000  0.25356900  0.95285300  1
  P  P4  1  0.95285300  0.54046000  0.25356900  1
  P  P5  1  0.25356900  0.95285300  0.54046000  1
  O  O0  1  0.31014500  0.10700900  0.51296000  1
  O  O1  1  0.51296000  0.31014500  0.10700900  1
  O  O2  1  0.90758200  0.06078600  0.26380600  1
  O  O3  1  0.10700900  0.51296000  0.31014500  1
  O  O4  1  0.81321400  0.00917800  0.61408500  1
  O  O5  1  0.58979600  0.24148700  0.44519500  1
  O  O6  1  0.06078600  0.26380600  0.90758200  1
  O  O7  1  0.24148700  0.44519500  0.58979600  1
  O  O8  1  0.39174500  0.18481900  0.98803800  1
  O  O9  1  0.44519500  0.58979600  0.24148700  1
  O  O10  1  0.74407200  0.08722900  0.93530100  1
  O  O11  1  0.98803800  0.39174500  0.18481900  1
  O  O12  1  0.00917800  0.61408400  0.81321400  1
  O  O13  1  0.26380600  0.90758200  0.06078600  1
  O  O14  1  0.55944000  0.40963600  0.75517600  1
  O  O15  1  0.61408400  0.81321400  0.00917800  1
  O  O16  1  0.75517600  0.55944000  0.40963600  1
  O  O17  1  0.93530100  0.74407200  0.08722900  1
  O  O18  1  0.40963600  0.75517600  0.55944000  1
  O  O19  1  0.18481900  0.98803800  0.39174500  1
  O  O20  1  0.89208300  0.49801900  0.67949800  1
  O  O21  1  0.08722900  0.93530100  0.74407200  1
  O  O22  1  0.49801900  0.67949800  0.89208300  1
  O  O23  1  0.67949800  0.89208300  0.49801900  1
loop_
_geom_bond_atom_site_label_1
_geom_bond_atom_site_label_2
_geom_bond_distance
_geom_bond_site_symmetry_2
Mn0 O13 2.161332 1_545
Mn0 O6 2.161332 1_554
Mn0 O2 2.161332 1_455
Mn0 O17 2.319306 1_445
Mn0 O10 2.319306 1_454
Mn0 O21 2.319306 1_544
Mn1 O5 2.178751 1_555
Mn1 O7 2.178751 1_555
Mn1 O9 2.178751 1_555
Mn1 O18 2.191146 1_555
Mn1 O16 2.191146 1_555
Mn1 O14 2.191146 1_555
Ni0 O11 1.984595 1_455
Ni0 O8 1.984595 1_554
Ni0 O19 1.984596 1_545
Ni0 O13 2.101693 1_545
Ni0 O2 2.101693 1_455
Ni0 O6 2.101693 1_554
Ni1 O3 2.021976 1_555
Ni1 O0 2.021976 1_555
Ni1 O1 2.021976 1_555
Ni1 O5 2.103407 1_555
Ni1 O9 2.103407 1_555
Ni1 O7 2.103407 1_555
Ni2 O20 1.989503 1_555
Ni2 O23 1.989503 1_555
Ni2 O22 1.989503 1_555
Ni2 O18 2.072592 1_555
Ni2 O14 2.072592 1_555
Ni2 O16 2.072592 1_555
O0 P5 1.511705 1_545
O1 P3 1.511705 1_554
O2 P0 1.547523 1_555
O3 P4 1.511705 1_455
O4 P0 1.579973 1_555
O4 Sb0 1.961305 1_545
O5 P0 1.553107 1_555
O6 P1 1.547523 1_555
O7 P1 1.553107 1_555
O8 P3 1.511972 1_555
O9 P2 1.553107 1_555
O10 P3 1.625897 1_555
O10 Sb0 2.033412 1_545
O11 P4 1.511972 1_555
O12 P1 1.579965 1_555
O12 Sb0 1.961312 1_455
O13 P2 1.547523 1_555
O14 P3 1.560273 1_555
O15 P2 1.579965 1_555
O15 Sb0 1.961312 1_554
O16 P4 1.560273 1_555
O17 P4 1.625897 1_555
O17 Sb0 2.033412 1_554
O18 P5 1.560273 1_555
O19 P5 1.511972 1_555
O20 P1 1.512522 1_655
O21 P5 1.625897 1_555
O21 Sb0 2.033412 1_455
O22 P2 1.512522 1_556
O23 P0 1.512522 1_565
