# generated using pymatgen
data_Li2MnCo(PO4)2
_symmetry_space_group_name_H-M   'P 1'
_cell_length_a   4.77660666
_cell_length_b   10.44174732
_cell_length_c   6.08521052
_cell_angle_alpha   90.12629346
_cell_angle_beta   89.94051947
_cell_angle_gamma   89.99919464
_symmetry_Int_Tables_number   1
_chemical_formula_structural   Li2MnCo(PO4)2
_chemical_formula_sum   'Li4 Mn2 Co2 P4 O16'
_cell_volume   303.50578748
_cell_formula_units_Z   2
loop_
 _symmetry_equiv_pos_site_id
 _symmetry_equiv_pos_as_xyz
  1  'x, y, z'
loop_
 _atom_site_type_symbol
 _atom_site_label
 _atom_site_symmetry_multiplicity
 _atom_site_fract_x
 _atom_site_fract_y
 _atom_site_fract_z
 _atom_site_occupancy
  Li  Li0  1  0.99879500  0.00064000  0.00016100  1
  Li  Li1  1  0.99807200  0.00139500  0.49923900  1
  Li  Li2  1  0.49927300  0.50014900  0.99895000  1
  Li  Li3  1  0.50035400  0.50057800  0.50119300  1
  Mn  Mn0  1  0.52025700  0.77830300  0.24887100  1
  Mn  Mn1  1  0.47972600  0.22143900  0.75003000  1
  Co  Co0  1  0.02279100  0.71946500  0.74965200  1
  Co  Co1  1  0.97905300  0.28288500  0.24973400  1
  P  P0  1  0.40993400  0.09685800  0.25000500  1
  P  P1  1  0.58921000  0.90264300  0.74996100  1
  P  P2  1  0.92010900  0.41010600  0.74974200  1
  P  P3  1  0.08148700  0.58958200  0.25066900  1
  O  O0  1  0.70523400  0.04175900  0.74833100  1
  O  O1  1  0.29342300  0.95768100  0.24994700  1
  O  O2  1  0.73177000  0.10327000  0.24961700  1
  O  O3  1  0.26706200  0.89658800  0.75227600  1
  O  O4  1  0.24144100  0.40752900  0.75006600  1
  O  O5  1  0.75997500  0.59216400  0.25036700  1
  O  O6  1  0.20749700  0.45193600  0.25158800  1
  O  O7  1  0.79443900  0.54781200  0.74920200  1
  O  O8  1  0.27123400  0.16571000  0.04796500  1
  O  O9  1  0.27075400  0.16575900  0.45241600  1
  O  O10  1  0.72456200  0.83237100  0.54783400  1
  O  O11  1  0.73029200  0.83487000  0.95187100  1
  O  O12  1  0.78788400  0.33859600  0.54643300  1
  O  O13  1  0.78758400  0.33939400  0.95353600  1
  O  O14  1  0.21349100  0.65950000  0.04624000  1
  O  O15  1  0.21429700  0.66101800  0.45410200  1
loop_
_geom_bond_atom_site_label_1
_geom_bond_atom_site_label_2
_geom_bond_distance
_geom_bond_site_symmetry_2
Li0 O1 2.121226 1_645
Li0 O0 2.122803 1_554
Li0 O11 2.173927 1_544
Li0 O8 2.178897 1_655
Li0 O2 2.251290 1_555
Li0 O3 2.255336 1_644
Li1 O0 2.103461 1_555
Li1 O1 2.119526 1_645
Li1 O9 2.173621 1_655
Li1 O10 2.216013 1_545
Li1 O2 2.251238 1_555
Li1 O3 2.287124 1_645
Li2 O7 2.131687 1_555
Li2 O6 2.135013 1_556
Li2 O14 2.170669 1_556
Li2 O4 2.177900 1_555
Li2 O13 2.188055 1_555
Li2 O5 2.193630 1_556
Li3 O7 2.120212 1_555
Li3 O6 2.126704 1_555
Li3 O15 2.181404 1_555
Li3 O4 2.183955 1_555
Li3 O5 2.187379 1_555
Li3 O12 2.196722 1_555
Mn0 O10 2.140079 1_555
Mn0 O11 2.150050 1_554
Mn0 O1 2.163813 1_555
Mn0 O5 2.255854 1_555
Mn0 O15 2.279982 1_555
Mn0 O14 2.281107 1_555
Mn1 O9 2.147880 1_555
Mn1 O8 2.149018 1_556
Mn1 O0 2.163388 1_555
Mn1 O4 2.251905 1_555
Mn1 O12 2.280581 1_555
Mn1 O13 2.282560 1_555
Co0 O7 2.098171 1_455
Co0 O15 2.106061 1_555
Co0 O14 2.118365 1_556
Co0 O3 2.186817 1_555
Co0 O11 2.215450 1_455
Co0 O10 2.222018 1_455
Co1 O6 2.075258 1_655
Co1 O12 2.103306 1_555
Co1 O13 2.107473 1_554
Co1 O2 2.216463 1_555
Co1 O8 2.223073 1_655
Co1 O9 2.229009 1_655
O0 P1 1.554799 1_545
O1 P0 1.556176 1_565
O2 P0 1.538742 1_555
O3 P1 1.540125 1_555
O4 P2 1.535115 1_455
O5 P3 1.535976 1_655
O6 P3 1.558224 1_555
O7 P2 1.558164 1_555
O8 P0 1.572555 1_555
O9 P0 1.571964 1_555
O10 P1 1.569592 1_555
O11 P1 1.571650 1_555
O12 P2 1.576268 1_555
O13 P2 1.576777 1_555
O14 P3 1.574952 1_555
O15 P3 1.577619 1_555
