# generated using pymatgen
data_LiFeF3
_symmetry_space_group_name_H-M   'P 1'
_cell_length_a   7.03236141
_cell_length_b   7.03236141
_cell_length_c   5.79063177
_cell_angle_alpha   72.29659831
_cell_angle_beta   72.29659831
_cell_angle_gamma   67.64287451
_symmetry_Int_Tables_number   1
_chemical_formula_structural   LiFeF3
_chemical_formula_sum   'Li4 Fe4 F12'
_cell_volume   246.46485684
_cell_formula_units_Z   4
loop_
 _symmetry_equiv_pos_site_id
 _symmetry_equiv_pos_as_xyz
  1  'x, y, z'
loop_
 _atom_site_type_symbol
 _atom_site_label
 _atom_site_symmetry_multiplicity
 _atom_site_fract_x
 _atom_site_fract_y
 _atom_site_fract_z
 _atom_site_occupancy
  Li  Li0  1  0.93164300  0.06835700  0.25000000  1
  Li  Li1  1  0.30791000  0.69209000  0.25000000  1
  Li  Li2  1  0.06835700  0.93164300  0.75000000  1
  Li  Li3  1  0.69209000  0.30791000  0.75000000  1
  Fe  Fe0  1  0.83264900  0.66062600  0.18732200  1
  Fe  Fe1  1  0.66062600  0.83264900  0.68732200  1
  Fe  Fe2  1  0.33937400  0.16735100  0.31267800  1
  Fe  Fe3  1  0.16735100  0.33937400  0.81267800  1
  F  F0  1  0.06163200  0.79054200  0.11532600  1
  F  F1  1  0.79054200  0.06163200  0.61532600  1
  F  F2  1  0.02746400  0.34554700  0.21545600  1
  F  F3  1  0.58335800  0.68232400  0.06040300  1
  F  F4  1  0.34554700  0.02746400  0.71545600  1
  F  F5  1  0.68232400  0.58335800  0.56040300  1
  F  F6  1  0.31767600  0.41664200  0.43959700  1
  F  F7  1  0.65445300  0.97253600  0.28454400  1
  F  F8  1  0.41664200  0.31767600  0.93959700  1
  F  F9  1  0.97253600  0.65445300  0.78454400  1
  F  F10  1  0.20945800  0.93836800  0.38467400  1
  F  F11  1  0.93836800  0.20945800  0.88467400  1
loop_
_geom_bond_atom_site_label_1
_geom_bond_atom_site_label_2
_geom_bond_distance
_geom_bond_site_symmetry_2
F0 Li1 1.915171 1_555
F0 Fe0 2.020103 1_455
F0 Li2 2.039672 1_554
F0 Li0 2.096453 1_465
F1 Li3 1.915171 1_555
F1 Fe1 2.020103 1_545
F1 Li0 2.039672 1_555
F1 Li2 2.096453 1_645
F2 Fe0 2.102347 1_455
F2 Fe2 2.220234 1_555
F2 Li0 2.230250 1_455
F2 Fe3 2.245686 1_554
F3 Li1 1.900919 1_555
F3 Fe0 2.036832 1_555
F3 Fe1 2.100978 1_554
F4 Fe1 2.102347 1_545
F4 Fe3 2.220234 1_555
F4 Li2 2.230250 1_545
F4 Fe2 2.245686 1_555
F5 Li3 1.900919 1_555
F5 Fe1 2.036832 1_555
F5 Fe0 2.100978 1_555
F6 Li1 1.900919 1_555
F6 Fe2 2.036832 1_555
F6 Fe3 2.100978 1_555
F7 Fe2 2.102347 1_565
F7 Fe0 2.220234 1_555
F7 Li0 2.230250 1_565
F7 Fe1 2.245686 1_555
F8 Li3 1.900919 1_555
F8 Fe3 2.036832 1_555
F8 Fe2 2.100978 1_556
F9 Fe3 2.102347 1_655
F9 Fe1 2.220234 1_555
F9 Li2 2.230250 1_655
F9 Fe0 2.245686 1_556
F10 Li1 1.915171 1_555
F10 Fe2 2.020103 1_565
F10 Li2 2.039672 1_555
F10 Li0 2.096453 1_465
F11 Li3 1.915171 1_555
F11 Fe3 2.020103 1_655
F11 Li0 2.039672 1_556
F11 Li2 2.096453 1_645
