# generated using pymatgen
data_Ti5O9
_symmetry_space_group_name_H-M   'P 1'
_cell_length_a   5.58406157
_cell_length_b   7.12422228
_cell_length_c   8.48650545
_cell_angle_alpha   69.66846529
_cell_angle_beta   75.37801253
_cell_angle_gamma   71.45366995
_symmetry_Int_Tables_number   1
_chemical_formula_structural   Ti5O9
_chemical_formula_sum   'Ti10 O18'
_cell_volume   296.28671313
_cell_formula_units_Z   2
loop_
 _symmetry_equiv_pos_site_id
 _symmetry_equiv_pos_as_xyz
  1  'x, y, z'
loop_
 _atom_site_type_symbol
 _atom_site_label
 _atom_site_symmetry_multiplicity
 _atom_site_fract_x
 _atom_site_fract_y
 _atom_site_fract_z
 _atom_site_occupancy
  Ti  Ti0  1  0.72809377  0.32562228  0.42381976  1
  Ti  Ti1  1  0.27190153  0.67438207  0.57618359  1
  Ti  Ti2  1  0.71723356  0.82906144  0.41800484  1
  Ti  Ti3  1  0.28274804  0.17094109  0.58199928  1
  Ti  Ti4  1  0.34757932  0.65602955  0.20386576  1
  Ti  Ti5  1  0.65241072  0.34397661  0.79613698  1
  Ti  Ti6  1  0.34879164  0.15571727  0.20688385  1
  Ti  Ti7  1  0.65123231  0.84428088  0.79311474  1
  Ti  Ti8  1  0.00001141  -0.00001622  0.00000288  1
  Ti  Ti9  1  -0.00001264  0.49999655  0.00000735  1
  O  O0  1  0.31265012  0.46918873  0.45805620  1
  O  O1  1  0.68734805  0.53081481  0.54194600  1
  O  O2  1  0.07193826  0.19569563  0.41944708  1
  O  O3  1  0.92805558  0.80430997  0.58054463  1
  O  O4  1  0.58499966  0.13495820  0.36742024  1
  O  O5  1  0.41500148  0.86504320  0.63258095  1
  O  O6  1  0.40791838  0.84520294  0.32514111  1
  O  O7  1  0.59208373  0.15480212  0.67485410  1
  O  O8  1  0.98317719  0.80755937  0.23898572  1
  O  O9  1  0.01681872  0.19243141  0.76102259  1
  O  O10  1  0.37493650  0.85280379  0.97917765  1
  O  O11  1  0.62507710  0.14719573  0.02081807  1
  O  O12  1  0.91826142  0.80312658  0.91881504  1
  O  O13  1  0.08174029  0.19687272  0.08118008  1
  O  O14  1  0.74029451  0.53801850  0.86337226  1
  O  O15  1  0.25970459  0.46198036  0.13662393  1
  O  O16  1  0.28332002  0.48826840  0.79651404  1
  O  O17  1  0.71668675  0.51173800  0.20347929  1
loop_
_geom_bond_atom_site_label_1
_geom_bond_atom_site_label_2
_geom_bond_distance
_geom_bond_site_symmetry_2
O0 Ti1 1.971127 1_555
O0 Ti3 2.057404 1_555
O0 Ti4 2.102543 1_555
O0 Ti0 2.206602 1_555
O1 Ti0 1.971119 1_555
O1 Ti2 2.057369 1_555
O1 Ti5 2.102542 1_555
O1 Ti1 2.206617 1_555
O2 Ti0 1.844468 1_455
O2 Ti3 1.959240 1_555
O2 Ti6 2.096227 1_555
O3 Ti1 1.844483 1_655
O3 Ti2 1.959212 1_555
O3 Ti7 2.096179 1_555
O4 Ti2 1.991240 1_545
O4 Ti0 2.011956 1_555
O4 Ti6 2.064198 1_555
O4 Ti3 2.174371 1_555
O5 Ti3 1.991257 1_565
O5 Ti1 2.011949 1_555
O5 Ti7 2.064271 1_555
O5 Ti2 2.174296 1_555
O6 Ti2 2.028687 1_555
O6 Ti6 2.042012 1_565
O6 Ti4 2.101654 1_555
O6 Ti1 2.136853 1_555
O7 Ti3 2.028756 1_555
O7 Ti7 2.042051 1_545
O7 Ti5 2.101676 1_555
O7 Ti0 2.136792 1_555
O8 Ti2 1.847933 1_555
O8 Ti4 1.978584 1_655
O8 Ti8 2.013732 1_665
O9 Ti3 1.847901 1_555
O9 Ti5 1.978637 1_455
O9 Ti8 2.013771 1_556
O10 Ti7 1.911658 1_555
O10 Ti4 1.938073 1_556
O10 Ti8 2.014780 1_566
O11 Ti6 1.911639 1_555
O11 Ti5 1.938042 1_554
O11 Ti8 2.014874 1_655
O12 Ti7 1.937774 1_555
O12 Ti9 1.960751 1_656
O12 Ti8 1.971684 1_666
O13 Ti6 1.937899 1_555
O13 Ti9 1.960702 1_555
O13 Ti8 1.971766 1_555
O14 Ti5 1.896972 1_555
O14 Ti9 1.975264 1_656
O14 Ti7 1.979609 1_555
O15 Ti4 1.897026 1_555
O15 Ti9 1.975276 1_555
O15 Ti6 1.979610 1_555
O16 Ti1 1.882015 1_555
O16 Ti5 1.988903 1_555
O16 Ti9 2.032046 1_556
O17 Ti0 1.882080 1_555
O17 Ti4 1.988977 1_555
O17 Ti9 2.031835 1_655
