# generated using pymatgen
data_Li4CuSi2O7
_symmetry_space_group_name_H-M   'P 1'
_cell_length_a   7.13640048
_cell_length_b   7.13640048
_cell_length_c   8.15404591
_cell_angle_alpha   86.66615672
_cell_angle_beta   86.66615672
_cell_angle_gamma   44.88313795
_symmetry_Int_Tables_number   1
_chemical_formula_structural   Li4CuSi2O7
_chemical_formula_sum   'Li8 Cu2 Si4 O14'
_cell_volume   292.46078157
_cell_formula_units_Z   2
loop_
 _symmetry_equiv_pos_site_id
 _symmetry_equiv_pos_as_xyz
  1  'x, y, z'
loop_
 _atom_site_type_symbol
 _atom_site_label
 _atom_site_symmetry_multiplicity
 _atom_site_fract_x
 _atom_site_fract_y
 _atom_site_fract_z
 _atom_site_occupancy
  Li  Li0  1  0.41354100  0.73522700  0.12321500  1
  Li  Li1  1  0.73522700  0.41354100  0.62321500  1
  Li  Li2  1  0.53637900  0.87983100  0.40640200  1
  Li  Li3  1  0.87983100  0.53637900  0.90640200  1
  Li  Li4  1  0.42866300  0.12796200  0.05383400  1
  Li  Li5  1  0.12796200  0.42866300  0.55383400  1
  Li  Li6  1  0.81487400  0.18173500  0.98056500  1
  Li  Li7  1  0.18173400  0.81487400  0.48056500  1
  Cu  Cu0  1  0.01720400  0.68303100  0.20347100  1
  Cu  Cu1  1  0.68303100  0.01720400  0.70347100  1
  Si  Si0  1  0.96704800  0.30940700  0.25991000  1
  Si  Si1  1  0.30940700  0.96704800  0.75991000  1
  Si  Si2  1  0.59997900  0.24976400  0.33042800  1
  Si  Si3  1  0.24976400  0.59997900  0.83042800  1
  O  O0  1  0.84331100  0.21901800  0.39342500  1
  O  O1  1  0.21901800  0.84331100  0.89342500  1
  O  O2  1  0.79212600  0.42818000  0.09479600  1
  O  O3  1  0.42818000  0.79212600  0.59479600  1
  O  O4  1  0.28100000  0.04901200  0.22677300  1
  O  O5  1  0.04901200  0.28100000  0.72677300  1
  O  O6  1  0.91420100  0.54076200  0.35777200  1
  O  O7  1  0.54076200  0.91420100  0.85777200  1
  O  O8  1  0.53225700  0.14349900  0.48134300  1
  O  O9  1  0.14349900  0.53225700  0.98134300  1
  O  O10  1  0.70584400  0.07123200  0.16590700  1
  O  O11  1  0.07123200  0.70584400  0.66590700  1
  O  O12  1  0.33656600  0.56736400  0.29247800  1
  O  O13  1  0.56736400  0.33656600  0.79247800  1
loop_
_geom_bond_atom_site_label_1
_geom_bond_atom_site_label_2
_geom_bond_distance
_geom_bond_site_symmetry_2
Li0 O4 1.935889 1_565
Li0 O2 1.936856 1_555
Li0 O12 2.072137 1_555
Li0 O1 2.156368 1_554
Li1 O5 1.935889 1_655
Li1 O3 1.936856 1_555
Li1 O13 2.072137 1_555
Li1 O0 2.156368 1_555
Li2 O3 1.944961 1_555
Li2 O4 1.977664 1_565
Li2 O8 1.991996 1_565
Li2 O6 2.005994 1_555
Li3 O2 1.944961 1_556
Li3 O5 1.977664 1_655
Li3 O9 1.991996 1_655
Li3 O7 2.005994 1_555
Li4 O7 1.982030 1_544
Li4 O10 1.985995 1_555
Li4 O4 1.998136 1_555
Li4 O9 2.106246 1_554
Li5 O6 1.982030 1_455
Li5 O11 1.985995 1_555
Li5 O5 1.998136 1_555
Li5 O8 2.106246 1_555
Li6 O2 1.937892 1_556
Li6 O13 2.011271 1_555
Li6 O10 2.026182 1_556
Li6 O1 2.178608 1_645
Li7 O3 1.937898 1_555
Li7 O12 2.011270 1_555
Li7 O11 2.026178 1_555
Li7 O0 2.178607 1_465
Cu0 O12 1.964470 1_555
Cu0 O9 1.978181 1_554
Cu0 O6 1.988869 1_455
Cu0 O10 1.990774 1_465
Cu1 O13 1.964470 1_555
Cu1 O8 1.978181 1_555
Cu1 O7 1.988869 1_545
Cu1 O11 1.990774 1_645
O0 Si2 1.696524 1_555
O0 Si0 1.730543 1_555
O1 Si3 1.696524 1_555
O1 Si1 1.730543 1_555
O2 Si0 1.628718 1_555
O3 Si1 1.628718 1_555
O4 Si0 1.622953 1_455
O5 Si1 1.622953 1_545
O6 Si0 1.655530 1_555
O7 Si1 1.655530 1_555
O8 Si2 1.632368 1_555
O9 Si3 1.632368 1_555
O10 Si2 1.646382 1_555
O11 Si3 1.646382 1_555
O12 Si2 1.647705 1_555
O13 Si3 1.647705 1_555
