# generated using pymatgen
data_Mn3OF8
_symmetry_space_group_name_H-M   'P 1'
_cell_length_a   5.22617300
_cell_length_b   5.10600783
_cell_length_c   13.43074468
_cell_angle_alpha   87.93444097
_cell_angle_beta   90.00000000
_cell_angle_gamma   59.21840347
_symmetry_Int_Tables_number   1
_chemical_formula_structural   Mn3OF8
_chemical_formula_sum   'Mn6 O2 F16'
_cell_volume   307.63718900
_cell_formula_units_Z   2
loop_
 _symmetry_equiv_pos_site_id
 _symmetry_equiv_pos_as_xyz
  1  'x, y, z'
loop_
 _atom_site_type_symbol
 _atom_site_label
 _atom_site_symmetry_multiplicity
 _atom_site_fract_x
 _atom_site_fract_y
 _atom_site_fract_z
 _atom_site_occupancy
  Mn  Mn0  1  0.00765800  0.98221200  0.00481500  1
  Mn  Mn1  1  0.01013100  0.98221200  0.50481500  1
  Mn  Mn2  1  0.32406800  0.35129700  0.66184000  1
  Mn  Mn3  1  0.32463500  0.35129700  0.16184000  1
  Mn  Mn4  1  0.66510700  0.66628800  0.83328900  1
  Mn  Mn5  1  0.66860400  0.66628800  0.33328900  1
  O  O0  1  0.04440500  0.66900900  0.08446000  1
  O  O1  1  0.28658600  0.66900900  0.58446000  1
  F  F0  1  0.06091800  0.27758600  0.58130500  1
  F  F1  1  0.00722200  0.39967600  0.25172200  1
  F  F2  1  0.27091800  0.06046200  0.08456100  1
  F  F3  1  0.39500800  0.99981600  0.75109500  1
  F  F4  1  0.60517700  0.99981600  0.25109500  1
  F  F5  1  0.66862000  0.06046200  0.58456100  1
  F  F6  1  0.33554500  0.72822900  0.92002400  1
  F  F7  1  0.40153500  0.60370100  0.24647400  1
  F  F8  1  0.59310200  0.39967600  0.75172200  1
  F  F9  1  0.66149800  0.27758600  0.08130500  1
  F  F10  1  0.33190300  0.93010100  0.41558000  1
  F  F11  1  0.73240000  0.33162500  0.41483400  1
  F  F12  1  0.93597500  0.33162500  0.91483400  1
  F  F13  1  0.73799700  0.93010100  0.91558000  1
  F  F14  1  0.99476400  0.60370100  0.74647400  1
  F  F15  1  0.93622600  0.72822900  0.42002400  1
loop_
_geom_bond_atom_site_label_1
_geom_bond_atom_site_label_2
_geom_bond_distance
_geom_bond_site_symmetry_2
Mn0 O0 1.816852 1_555
Mn1 O1 1.816850 1_555
Mn2 O1 1.817507 1_555
Mn3 O0 1.817507 1_555
F0 Mn2 1.939615 1_555
F0 Mn1 1.980368 1_545
F1 Mn5 1.956220 1_455
F1 Mn3 1.967787 1_555
F2 Mn0 1.947619 1_545
F2 Mn3 1.974622 1_555
F3 Mn4 1.874941 1_555
F3 Mn2 1.989773 1_565
F4 Mn5 1.874944 1_555
F4 Mn3 1.989774 1_565
F5 Mn1 1.947623 1_645
F5 Mn2 1.974622 1_555
F6 Mn0 1.935712 1_556
F6 Mn4 1.972954 1_555
F7 Mn3 1.936566 1_555
F7 Mn5 1.973111 1_555
F8 Mn4 1.956216 1_555
F8 Mn2 1.967787 1_555
F9 Mn3 1.939623 1_555
F9 Mn0 1.980365 1_645
F10 Mn5 1.952855 1_555
F10 Mn1 1.974865 1_555
F11 Mn5 1.874186 1_555
F11 Mn1 1.986040 1_645
F12 Mn4 1.874188 1_555
F12 Mn0 1.986038 1_646
F13 Mn4 1.952861 1_555
F13 Mn0 1.974865 1_656
F14 Mn2 1.936566 1_655
F14 Mn4 1.973116 1_555
F15 Mn1 1.935715 1_655
F15 Mn5 1.972958 1_555
