# generated using pymatgen
data_NaLi2FePCO7
_symmetry_space_group_name_H-M   'P 1'
_cell_length_a   6.61333997
_cell_length_b   10.21565752
_cell_length_c   9.65626983
_cell_angle_alpha   116.67042777
_cell_angle_beta   87.76731309
_cell_angle_gamma   89.22853478
_symmetry_Int_Tables_number   1
_chemical_formula_structural   NaLi2FePCO7
_chemical_formula_sum   'Na4 Li8 Fe4 P4 C4 O28'
_cell_volume   582.17077509
_cell_formula_units_Z   4
loop_
 _symmetry_equiv_pos_site_id
 _symmetry_equiv_pos_as_xyz
  1  'x, y, z'
loop_
 _atom_site_type_symbol
 _atom_site_label
 _atom_site_symmetry_multiplicity
 _atom_site_fract_x
 _atom_site_fract_y
 _atom_site_fract_z
 _atom_site_occupancy
  Na  Na0  1  0.50004500  0.26209100  0.26004900  1
  Na  Na1  1  0.49875500  0.76324900  0.26070100  1
  Na  Na2  1  0.50126200  0.73678000  0.73931100  1
  Na  Na3  1  0.49999200  0.23786000  0.73996100  1
  Li  Li0  1  0.20130600  0.43279900  0.08912300  1
  Li  Li1  1  0.20049600  0.93269500  0.08903100  1
  Li  Li2  1  0.79960800  0.56729200  0.91095400  1
  Li  Li3  1  0.79888300  0.06723700  0.91096700  1
  Li  Li4  1  0.03114500  0.27326700  0.28418700  1
  Li  Li5  1  0.02947700  0.77322000  0.28400200  1
  Li  Li6  1  0.97054500  0.72679400  0.71595100  1
  Li  Li7  1  0.96886400  0.22679900  0.71584700  1
  Fe  Fe0  1  0.76746600  0.06311000  0.33939000  1
  Fe  Fe1  1  0.23261600  0.43681300  0.66055400  1
  Fe  Fe2  1  0.76791800  0.56322100  0.33913900  1
  Fe  Fe3  1  0.23187000  0.93703100  0.66088300  1
  P  P0  1  0.24906300  0.56772300  0.41158800  1
  P  P1  1  0.24818400  0.06754500  0.41168400  1
  P  P2  1  0.75178900  0.43242900  0.58829300  1
  P  P3  1  0.75084900  0.93227600  0.58843800  1
  C  C0  1  0.77105700  0.36544900  0.04267100  1
  C  C1  1  0.77040300  0.86565700  0.04294400  1
  C  C2  1  0.22966000  0.63430100  0.95705600  1
  C  C3  1  0.22892100  0.13459100  0.95735700  1
  O  O0  1  0.23587000  0.24005000  0.09670500  1
  O  O1  1  0.23568600  0.73999400  0.09625800  1
  O  O2  1  0.76438700  0.75999500  0.90372600  1
  O  O3  1  0.76410200  0.25999900  0.90339900  1
  O  O4  1  0.76535000  0.50260300  0.07157500  1
  O  O5  1  0.76291000  0.00275400  0.07171300  1
  O  O6  1  0.23716400  0.49716600  0.92827900  1
  O  O7  1  0.23465300  0.99742300  0.92841100  1
  O  O8  1  0.78573400  0.33450600  0.15962700  1
  O  O9  1  0.78587300  0.83495900  0.16001400  1
  O  O10  1  0.21415500  0.66499100  0.83996800  1
  O  O11  1  0.21425200  0.16561100  0.84052300  1
  O  O12  1  0.08371500  0.57231400  0.30110700  1
  O  O13  1  0.08358900  0.07301500  0.30101400  1
  O  O14  1  0.91640300  0.42699400  0.69896000  1
  O  O15  1  0.91623100  0.92758700  0.69889400  1
  O  O16  1  0.45477300  0.55983300  0.32453000  1
  O  O17  1  0.45454100  0.05820800  0.32486700  1
  O  O18  1  0.54547700  0.44176400  0.67512000  1
  O  O19  1  0.54504100  0.94007800  0.67533200  1
  O  O20  1  0.22483300  0.42597400  0.43315000  1
  O  O21  1  0.22259500  0.92592900  0.43323400  1
  O  O22  1  0.77729600  0.57401800  0.56673000  1
  O  O23  1  0.77516400  0.07401300  0.56684700  1
  O  O24  1  0.77241100  0.29666500  0.42827700  1
  O  O25  1  0.77181500  0.79671900  0.42838300  1
  O  O26  1  0.22819700  0.70331300  0.57158900  1
  O  O27  1  0.22761000  0.20329900  0.57168600  1
loop_
_geom_bond_atom_site_label_1
_geom_bond_atom_site_label_2
_geom_bond_distance
_geom_bond_site_symmetry_2
Na0 O0 2.344636 1_555
Na0 O8 2.365612 1_555
Na0 O24 2.395444 1_555
Na0 O17 2.448030 1_555
Na0 O20 2.465400 1_555
Na0 O16 2.826597 1_555
Na0 O5 2.941538 1_555
Na1 O1 2.343586 1_555
Na1 O9 2.370743 1_555
Na1 O25 2.397324 1_555
Na1 O16 2.436142 1_555
Na1 O21 2.463466 1_555
Na1 O17 2.799092 1_565
Na1 O4 2.964937 1_555
Na2 O2 2.343771 1_555
Na2 O10 2.370943 1_555
Na2 O26 2.397602 1_555
Na2 O19 2.435728 1_555
Na2 O22 2.463340 1_555
Na2 O18 2.799596 1_555
Na2 O7 2.964922 1_555
Na3 O3 2.344706 1_555
Na3 O11 2.365719 1_555
Na3 O27 2.395837 1_555
Na3 O18 2.448362 1_555
Na3 O23 2.465123 1_555
Na3 O19 2.826492 1_545
Na3 O6 2.941174 1_555
Li0 O6 1.947617 1_554
Li0 O12 2.013276 1_555
Li0 O0 2.013306 1_555
Li1 O7 1.947109 1_554
Li1 O1 2.011602 1_555
Li1 O13 2.013792 1_565
Li2 O4 1.946900 1_556
Li2 O2 2.011648 1_555
Li2 O14 2.013561 1_555
Li3 O5 1.947623 1_556
Li3 O3 2.013519 1_555
Li3 O15 2.013663 1_545
Li4 O20 2.079997 1_555
Li4 O24 2.103765 1_455
Li4 O0 2.114442 1_555
Li4 O13 2.148323 1_555
Li4 O8 2.296171 1_455
Li5 O21 2.078534 1_555
Li5 O25 2.099628 1_455
Li5 O1 2.122286 1_555
Li5 O12 2.158089 1_555
Li5 O9 2.286365 1_455
Li6 O22 2.079365 1_555
Li6 O26 2.099505 1_655
Li6 O2 2.122367 1_555
Li6 O15 2.156796 1_555
Li6 O10 2.286911 1_655
Li7 O23 2.080546 1_555
Li7 O27 2.104022 1_655
Li7 O3 2.115143 1_555
Li7 O14 2.148062 1_555
Li7 O11 2.296556 1_655
Fe0 O17 2.079427 1_555
Fe0 O13 2.120680 1_655
Fe0 O24 2.143889 1_555
Fe0 O23 2.151363 1_555
Fe0 O9 2.190672 1_545
Fe0 O5 2.374435 1_555
Fe1 O18 2.079048 1_555
Fe1 O14 2.121186 1_455
Fe1 O27 2.143535 1_555
Fe1 O20 2.151153 1_555
Fe1 O10 2.190985 1_555
Fe1 O6 2.374890 1_555
Fe2 O16 2.080908 1_555
Fe2 O12 2.116910 1_655
Fe2 O25 2.142702 1_555
Fe2 O22 2.153835 1_555
Fe2 O8 2.195126 1_555
Fe2 O4 2.372029 1_555
Fe3 O19 2.080930 1_555
Fe3 O15 2.116341 1_455
Fe3 O26 2.144689 1_555
Fe3 O21 2.153083 1_555
Fe3 O11 2.194521 1_565
Fe3 O7 2.372293 1_555
C0 O3 1.294909 1_554
C0 O4 1.299674 1_555
C0 O8 1.308811 1_555
C1 O2 1.294831 1_554
C1 O5 1.299582 1_565
C1 O9 1.308873 1_555
C2 O1 1.294850 1_556
C2 O6 1.299943 1_555
C2 O10 1.309017 1_555
C3 O0 1.295429 1_556
C3 O7 1.299706 1_545
C3 O11 1.308152 1_555
O12 P0 1.571787 1_555
O13 P1 1.572464 1_555
O14 P2 1.572415 1_555
O15 P3 1.572101 1_555
O16 P0 1.552765 1_555
O17 P1 1.552383 1_555
O18 P2 1.552178 1_555
O19 P3 1.552736 1_555
O20 P0 1.562118 1_555
O21 P1 1.561726 1_565
O22 P2 1.561459 1_555
O23 P3 1.562211 1_545
O24 P2 1.544128 1_555
O25 P3 1.543492 1_555
O26 P0 1.543307 1_555
O27 P1 1.543990 1_555
