# generated using pymatgen
data_Na6Mn2B4AsO16
_symmetry_space_group_name_H-M   'P 1'
_cell_length_a   9.91663803
_cell_length_b   9.91663803
_cell_length_c   9.91663803
_cell_angle_alpha   60.00000000
_cell_angle_beta   60.00000000
_cell_angle_gamma   60.00000000
_symmetry_Int_Tables_number   1
_chemical_formula_structural   Na6Mn2B4AsO16
_chemical_formula_sum   'Na12 Mn4 B8 As2 O32'
_cell_volume   689.57004316
_cell_formula_units_Z   2
loop_
 _symmetry_equiv_pos_site_id
 _symmetry_equiv_pos_as_xyz
  1  'x, y, z'
loop_
 _atom_site_type_symbol
 _atom_site_label
 _atom_site_symmetry_multiplicity
 _atom_site_fract_x
 _atom_site_fract_y
 _atom_site_fract_z
 _atom_site_occupancy
  Na  Na0  1  0.28298300  0.71701700  0.28298300  1
  Na  Na1  1  0.53298300  0.96701700  0.53298300  1
  Na  Na2  1  0.28298300  0.71701700  0.71701700  1
  Na  Na3  1  0.28298300  0.28298300  0.71701700  1
  Na  Na4  1  0.53298300  0.96701700  0.96701700  1
  Na  Na5  1  0.53298300  0.53298300  0.96701700  1
  Na  Na6  1  0.71701700  0.28298300  0.28298300  1
  Na  Na7  1  0.71701700  0.71701700  0.28298300  1
  Na  Na8  1  0.96701700  0.96701700  0.53298300  1
  Na  Na9  1  0.96701700  0.53298300  0.53298300  1
  Na  Na10  1  0.71701700  0.28298300  0.71701700  1
  Na  Na11  1  0.96701700  0.53298300  0.96701700  1
  Mn  Mn0  1  0.62500000  0.12500000  0.12500000  1
  Mn  Mn1  1  0.12500000  0.62500000  0.12500000  1
  Mn  Mn2  1  0.12500000  0.12500000  0.12500000  1
  Mn  Mn3  1  0.12500000  0.12500000  0.62500000  1
  B  B0  1  0.33484600  0.33484600  0.33484600  1
  B  B1  1  0.33484600  0.99546200  0.33484600  1
  B  B2  1  0.99546200  0.33484600  0.33484600  1
  B  B3  1  0.91515400  0.91515400  0.25453800  1
  B  B4  1  0.25453800  0.91515400  0.91515400  1
  B  B5  1  0.33484600  0.33484600  0.99546200  1
  B  B6  1  0.91515400  0.25453800  0.91515400  1
  B  B7  1  0.91515400  0.91515400  0.91515400  1
  As  As0  1  0.50000000  0.50000000  0.50000000  1
  As  As1  1  0.75000000  0.75000000  0.75000000  1
  O  O0  1  0.48998700  0.30441800  0.21724800  1
  O  O1  1  0.57077300  0.57077300  0.28768000  1
  O  O2  1  0.48998700  0.98834700  0.30441800  1
  O  O3  1  0.30441800  0.98834700  0.21724800  1
  O  O4  1  0.57077300  0.57077300  0.57077300  1
  O  O5  1  0.57077300  0.28768000  0.57077300  1
  O  O6  1  0.21724800  0.48998700  0.30441800  1
  O  O7  1  0.30441800  0.21724800  0.48998700  1
  O  O8  1  0.28768000  0.57077300  0.57077300  1
  O  O9  1  0.98834700  0.48998700  0.21724800  1
  O  O10  1  0.03275200  0.94558200  0.26165300  1
  O  O11  1  0.21724800  0.98834700  0.48998700  1
  O  O12  1  0.98834700  0.21724800  0.30441800  1
  O  O13  1  0.94558200  0.76001300  0.26165300  1
  O  O14  1  0.48998700  0.21724800  0.98834700  1
  O  O15  1  0.26165300  0.94558200  0.76001300  1
  O  O16  1  0.76001300  0.03275200  0.26165300  1
  O  O17  1  0.98834700  0.30441800  0.48998700  1
  O  O18  1  0.30441800  0.48998700  0.98834700  1
  O  O19  1  0.26165300  0.03275200  0.94558200  1
  O  O20  1  0.03275200  0.26165300  0.76001300  1
  O  O21  1  0.21724800  0.30441800  0.98834700  1
  O  O22  1  0.26165300  0.76001300  0.03275200  1
  O  O23  1  0.96232000  0.67922700  0.67922700  1
  O  O24  1  0.94558200  0.03275200  0.76001300  1
  O  O25  1  0.03275200  0.76001300  0.94558200  1
  O  O26  1  0.67922700  0.96232000  0.67922700  1
  O  O27  1  0.67922700  0.67922700  0.67922700  1
  O  O28  1  0.94558200  0.26165300  0.03275200  1
  O  O29  1  0.76001300  0.26165300  0.94558200  1
  O  O30  1  0.67922700  0.67922700  0.96232000  1
  O  O31  1  0.76001300  0.94558200  0.03275200  1
loop_
_geom_bond_atom_site_label_1
_geom_bond_atom_site_label_2
_geom_bond_distance
_geom_bond_site_symmetry_2
Na0 O10 2.400166 1_555
Na0 O22 2.400166 1_555
Na0 O1 2.485295 1_555
Na0 O8 2.485295 1_555
Na0 O6 2.527704 1_555
Na0 O3 2.527704 1_555
Na1 O2 2.400166 1_555
Na1 O7 2.400166 1_565
Na1 O27 2.485298 1_555
Na1 O26 2.485304 1_555
Na1 O16 2.527704 1_565
Na1 O15 2.527704 1_555
Na2 O25 2.400166 1_555
Na2 O15 2.400166 1_555
Na2 O4 2.485298 1_555
Na2 O8 2.485304 1_555
Na2 O18 2.527704 1_555
Na2 O11 2.527704 1_555
Na3 O20 2.400166 1_555
Na3 O19 2.400166 1_555
Na3 O5 2.485295 1_555
Na3 O8 2.485295 1_555
Na3 O7 2.527704 1_555
Na3 O21 2.527704 1_555
Na4 O3 2.400166 1_556
Na4 O14 2.400166 1_565
Na4 O30 2.485295 1_555
Na4 O26 2.485295 1_555
Na4 O31 2.527704 1_556
Na4 O19 2.527704 1_565
Na5 O18 2.400166 1_555
Na5 O0 2.400166 1_556
Na5 O27 2.485298 1_555
Na5 O30 2.485304 1_555
Na5 O22 2.527704 1_556
Na5 O29 2.527704 1_555
Na6 O16 2.400166 1_555
Na6 O28 2.400166 1_555
Na6 O1 2.485295 1_555
Na6 O5 2.485295 1_555
Na6 O0 2.527704 1_555
Na6 O12 2.527704 1_555
Na7 O31 2.400166 1_555
Na7 O13 2.400166 1_555
Na7 O4 2.485298 1_555
Na7 O1 2.485304 1_555
Na7 O9 2.527704 1_555
Na7 O2 2.527704 1_555
Na8 O12 2.400166 1_565
Na8 O11 2.400166 1_655
Na8 O26 2.485295 1_555
Na8 O23 2.485295 1_555
Na8 O10 2.527704 1_655
Na8 O24 2.527704 1_565
Na9 O17 2.400166 1_555
Na9 O6 2.400166 1_655
Na9 O27 2.485298 1_555
Na9 O23 2.485304 1_555
Na9 O13 2.527704 1_555
Na9 O20 2.527704 1_655
Na10 O24 2.400166 1_555
Na10 O29 2.400166 1_555
Na10 O4 2.485298 1_555
Na10 O5 2.485304 1_555
Na10 O14 2.527704 1_555
Na10 O17 2.527704 1_555
Na11 O21 2.400166 1_655
Na11 O9 2.400166 1_556
Na11 O30 2.485295 1_555
Na11 O23 2.485295 1_555
Na11 O25 2.527704 1_655
Na11 O28 2.527704 1_556
Mn0 O31 1.953390 1_545
Mn0 O14 1.953390 1_554
Mn0 O0 1.953390 1_555
Mn0 O2 1.953390 1_545
Mn0 O29 1.953390 1_554
Mn0 O16 1.953390 1_555
Mn1 O25 1.953390 1_554
Mn1 O6 1.953390 1_555
Mn1 O18 1.953390 1_554
Mn1 O9 1.953390 1_455
Mn1 O13 1.953390 1_455
Mn1 O22 1.953390 1_555
Mn2 O28 1.953390 1_455
Mn2 O19 1.953390 1_554
Mn2 O10 1.953390 1_545
Mn2 O12 1.953390 1_455
Mn2 O3 1.953390 1_545
Mn2 O21 1.953390 1_554
Mn3 O24 1.953390 1_455
Mn3 O17 1.953390 1_455
Mn3 O11 1.953390 1_545
Mn3 O7 1.953390 1_555
Mn3 O15 1.953390 1_545
Mn3 O20 1.953390 1_555
B0 O0 1.382553 1_555
B0 O7 1.382553 1_555
B0 O6 1.382553 1_555
B1 O3 1.382553 1_555
B1 O11 1.382553 1_555
B1 O2 1.382553 1_555
B2 O12 1.382553 1_555
B2 O9 1.382553 1_555
B2 O17 1.382553 1_555
B3 O10 1.382553 1_655
B3 O16 1.382553 1_565
B3 O13 1.382553 1_555
B4 O19 1.382553 1_565
B4 O22 1.382553 1_556
B4 O15 1.382553 1_555
B5 O21 1.382553 1_555
B5 O14 1.382553 1_555
B5 O18 1.382553 1_555
B6 O28 1.382553 1_556
B6 O20 1.382553 1_655
B6 O29 1.382553 1_555
B7 O31 1.382553 1_556
B7 O25 1.382553 1_655
B7 O24 1.382553 1_565
As0 O4 1.719126 1_555
As0 O8 1.719134 1_555
As0 O5 1.719134 1_555
As0 O1 1.719134 1_555
As1 O27 1.719126 1_555
As1 O30 1.719134 1_555
As1 O23 1.719134 1_555
As1 O26 1.719134 1_555
