# generated using pymatgen
data_Cs3NO4
_symmetry_space_group_name_H-M   'P 1'
_cell_length_a   10.88635000
_cell_length_b   11.05329400
_cell_length_c   11.93213700
_cell_angle_alpha   90.00000000
_cell_angle_beta   90.00000000
_cell_angle_gamma   90.00000000
_symmetry_Int_Tables_number   1
_chemical_formula_structural   Cs3NO4
_chemical_formula_sum   'Cs24 N8 O32'
_cell_volume   1435.79436901
_cell_formula_units_Z   8
loop_
 _symmetry_equiv_pos_site_id
 _symmetry_equiv_pos_as_xyz
  1  'x, y, z'
loop_
 _atom_site_type_symbol
 _atom_site_label
 _atom_site_symmetry_multiplicity
 _atom_site_fract_x
 _atom_site_fract_y
 _atom_site_fract_z
 _atom_site_occupancy
  Cs  Cs0  1  0.04919500  0.12094300  0.89183400  1
  Cs  Cs1  1  0.04919500  0.62094300  0.60816600  1
  Cs  Cs2  1  0.11664400  0.54027800  0.14961700  1
  Cs  Cs3  1  0.11664400  0.04027800  0.35038300  1
  Cs  Cs4  1  0.19169400  0.24117400  0.61281500  1
  Cs  Cs5  1  0.19169400  0.74117400  0.88718500  1
  Cs  Cs6  1  0.30830600  0.24117400  0.11281500  1
  Cs  Cs7  1  0.30830600  0.74117400  0.38718500  1
  Cs  Cs8  1  0.38335600  0.04027800  0.85038300  1
  Cs  Cs9  1  0.38335600  0.54027800  0.64961700  1
  Cs  Cs10  1  0.45080500  0.62094300  0.10816600  1
  Cs  Cs11  1  0.45080500  0.12094300  0.39183400  1
  Cs  Cs12  1  0.54919500  0.87905700  0.60816600  1
  Cs  Cs13  1  0.54919500  0.37905700  0.89183400  1
  Cs  Cs14  1  0.61664400  0.45972200  0.35038300  1
  Cs  Cs15  1  0.61664400  0.95972200  0.14961700  1
  Cs  Cs16  1  0.69169400  0.25882600  0.61281500  1
  Cs  Cs17  1  0.69169400  0.75882600  0.88718500  1
  Cs  Cs18  1  0.80830600  0.25882600  0.11281500  1
  Cs  Cs19  1  0.80830600  0.75882600  0.38718500  1
  Cs  Cs20  1  0.88335600  0.95972200  0.64961700  1
  Cs  Cs21  1  0.88335600  0.45972200  0.85038300  1
  Cs  Cs22  1  0.95080500  0.87905700  0.10816600  1
  Cs  Cs23  1  0.95080500  0.37905700  0.39183400  1
  N  N0  1  0.21170300  0.90183100  0.61901300  1
  N  N1  1  0.21170300  0.40183100  0.88098700  1
  N  N2  1  0.28829700  0.90183100  0.11901300  1
  N  N3  1  0.28829700  0.40183100  0.38098700  1
  N  N4  1  0.71170300  0.59816900  0.61901300  1
  N  N5  1  0.71170300  0.09816900  0.88098700  1
  N  N6  1  0.78829700  0.59816900  0.11901300  1
  N  N7  1  0.78829700  0.09816900  0.38098700  1
  O  O0  1  0.12391900  0.36523100  0.95976800  1
  O  O1  1  0.12391900  0.86523100  0.54023200  1
  O  O2  1  0.15263500  0.95281000  0.71216900  1
  O  O3  1  0.15263500  0.45281000  0.78783100  1
  O  O4  1  0.20841800  0.98671800  0.06979900  1
  O  O5  1  0.20841800  0.48671800  0.43020100  1
  O  O6  1  0.21876700  0.80002600  0.15358200  1
  O  O7  1  0.21876700  0.30002600  0.34641800  1
  O  O8  1  0.28123300  0.30002600  0.84641800  1
  O  O9  1  0.28123300  0.80002600  0.65358200  1
  O  O10  1  0.29158200  0.98671800  0.56979900  1
  O  O11  1  0.29158200  0.48671800  0.93020100  1
  O  O12  1  0.34736500  0.95281000  0.21216900  1
  O  O13  1  0.34736500  0.45281000  0.28783100  1
  O  O14  1  0.37608100  0.36523100  0.45976800  1
  O  O15  1  0.37608100  0.86523100  0.04023200  1
  O  O16  1  0.62391900  0.63476900  0.54023200  1
  O  O17  1  0.62391900  0.13476900  0.95976800  1
  O  O18  1  0.65263500  0.54719000  0.71216900  1
  O  O19  1  0.65263500  0.04719000  0.78783100  1
  O  O20  1  0.70841800  0.51328200  0.06979900  1
  O  O21  1  0.70841800  0.01328200  0.43020100  1
  O  O22  1  0.71876700  0.19997400  0.34641800  1
  O  O23  1  0.71876700  0.69997400  0.15358200  1
  O  O24  1  0.78123300  0.19997400  0.84641800  1
  O  O25  1  0.78123300  0.69997400  0.65358200  1
  O  O26  1  0.79158200  0.51328200  0.56979900  1
  O  O27  1  0.79158200  0.01328200  0.93020100  1
  O  O28  1  0.84736500  0.54719000  0.21216900  1
  O  O29  1  0.84736500  0.04719000  0.28783100  1
  O  O30  1  0.87608100  0.63476900  0.04023200  1
  O  O31  1  0.87608100  0.13476900  0.45976800  1
loop_
_geom_bond_atom_site_label_1
_geom_bond_atom_site_label_2
_geom_bond_distance
_geom_bond_site_symmetry_2
Cs0 O0 2.934249 1_555
Cs0 O2 3.052479 1_545
Cs0 O27 3.080702 1_455
Cs0 O24 3.092959 1_455
Cs0 O4 3.116881 1_546
Cs0 O8 3.254663 1_555
Cs1 O1 2.934249 1_555
Cs1 O3 3.052479 1_555
Cs1 O26 3.080702 1_455
Cs1 O25 3.092959 1_455
Cs1 O5 3.116881 1_555
Cs1 O9 3.254663 1_555
Cs2 O0 2.980185 1_554
Cs2 O28 3.025956 1_455
Cs2 O6 3.079167 1_555
Cs2 O30 3.106892 1_455
Cs2 O13 3.156458 1_555
Cs2 O11 3.291172 1_554
Cs2 O5 3.543661 1_555
Cs3 O1 2.980185 1_545
Cs3 O29 3.025956 1_455
Cs3 O7 3.079167 1_555
Cs3 O31 3.106892 1_455
Cs3 O12 3.156458 1_545
Cs3 O10 3.291172 1_545
Cs3 O4 3.543661 1_545
Cs4 O8 3.023708 1_555
Cs4 O14 3.040474 1_555
Cs4 O10 3.058841 1_545
Cs4 O3 3.164502 1_555
Cs4 O7 3.257924 1_555
Cs4 O2 3.427181 1_545
Cs4 O5 3.485291 1_555
Cs5 O9 3.023708 1_555
Cs5 O15 3.040474 1_556
Cs5 O11 3.058841 1_555
Cs5 O2 3.164502 1_555
Cs5 O6 3.257924 1_556
Cs5 O3 3.427181 1_555
Cs5 O4 3.485291 1_556
Cs6 O7 3.023708 1_555
Cs6 O0 3.040474 1_554
Cs6 O4 3.058841 1_545
Cs6 O13 3.164502 1_555
Cs6 O8 3.257924 1_554
Cs6 O12 3.427181 1_545
Cs6 O11 3.485291 1_554
Cs7 O6 3.023708 1_555
Cs7 O1 3.040474 1_555
Cs7 O5 3.058841 1_555
Cs7 O12 3.164502 1_555
Cs7 O9 3.257924 1_555
Cs7 O13 3.427181 1_555
Cs7 O10 3.485291 1_555
Cs8 O15 2.980185 1_546
Cs8 O19 3.025956 1_555
Cs8 O8 3.079167 1_555
Cs8 O17 3.106892 1_555
Cs8 O2 3.156458 1_545
Cs8 O4 3.291172 1_546
Cs8 O10 3.543661 1_545
Cs9 O14 2.980185 1_555
Cs9 O18 3.025956 1_555
Cs9 O9 3.079167 1_555
Cs9 O16 3.106892 1_555
Cs9 O3 3.156458 1_555
Cs9 O5 3.291172 1_555
Cs9 O11 3.543661 1_555
Cs10 O15 2.934249 1_555
Cs10 O13 3.052479 1_555
Cs10 O20 3.080702 1_555
Cs10 O23 3.092959 1_555
Cs10 O11 3.116881 1_554
Cs10 O6 3.254663 1_555
Cs11 O14 2.934249 1_555
Cs11 O12 3.052479 1_545
Cs11 O21 3.080702 1_555
Cs11 O22 3.092959 1_555
Cs11 O10 3.116881 1_545
Cs11 O7 3.254663 1_555
Cs12 O16 2.934249 1_555
Cs12 O19 3.052479 1_565
Cs12 O10 3.080702 1_555
Cs12 O9 3.092959 1_555
Cs12 O21 3.116881 1_565
Cs12 O25 3.254663 1_555
Cs13 O17 2.934249 1_555
Cs13 O18 3.052479 1_555
Cs13 O11 3.080702 1_555
Cs13 O8 3.092959 1_555
Cs13 O20 3.116881 1_556
Cs13 O24 3.254663 1_555
Cs14 O16 2.980185 1_555
Cs14 O13 3.025956 1_555
Cs14 O22 3.079167 1_555
Cs14 O14 3.106892 1_555
Cs14 O28 3.156458 1_555
Cs14 O26 3.291172 1_555
Cs14 O20 3.543661 1_555
Cs15 O17 2.980185 1_564
Cs15 O12 3.025956 1_555
Cs15 O23 3.079167 1_555
Cs15 O15 3.106892 1_555
Cs15 O29 3.156458 1_565
Cs15 O27 3.291172 1_564
Cs15 O21 3.543661 1_565
Cs16 O24 3.023708 1_555
Cs16 O31 3.040474 1_555
Cs16 O26 3.058841 1_555
Cs16 O19 3.164502 1_555
Cs16 O22 3.257924 1_555
Cs16 O18 3.427181 1_555
Cs16 O21 3.485291 1_555
Cs17 O25 3.023708 1_555
Cs17 O30 3.040474 1_556
Cs17 O27 3.058841 1_565
Cs17 O18 3.164502 1_555
Cs17 O23 3.257924 1_556
Cs17 O19 3.427181 1_565
Cs17 O20 3.485291 1_556
Cs18 O22 3.023708 1_555
Cs18 O17 3.040474 1_554
Cs18 O20 3.058841 1_555
Cs18 O29 3.164502 1_555
Cs18 O24 3.257924 1_554
Cs18 O28 3.427181 1_555
Cs18 O27 3.485291 1_554
Cs19 O23 3.023708 1_555
Cs19 O16 3.040474 1_555
Cs19 O21 3.058841 1_565
Cs19 O28 3.164502 1_555
Cs19 O25 3.257924 1_555
Cs19 O29 3.427181 1_565
Cs19 O26 3.485291 1_555
Cs20 O31 2.980185 1_565
Cs20 O2 3.025956 1_655
Cs20 O25 3.079167 1_555
Cs20 O1 3.106892 1_655
Cs20 O19 3.156458 1_565
Cs20 O21 3.291172 1_565
Cs20 O27 3.543661 1_565
Cs21 O30 2.980185 1_556
Cs21 O3 3.025956 1_655
Cs21 O24 3.079167 1_555
Cs21 O0 3.106892 1_655
Cs21 O18 3.156458 1_555
Cs21 O20 3.291172 1_556
Cs21 O26 3.543661 1_555
Cs22 O30 2.934249 1_555
Cs22 O29 3.052479 1_565
Cs22 O4 3.080702 1_655
Cs22 O6 3.092959 1_655
Cs22 O27 3.116881 1_564
Cs22 O23 3.254663 1_555
Cs23 O31 2.934249 1_555
Cs23 O28 3.052479 1_555
Cs23 O5 3.080702 1_655
Cs23 O7 3.092959 1_655
Cs23 O26 3.116881 1_555
Cs23 O22 3.254663 1_555
N0 O1 1.400204 1_555
N0 O2 1.402339 1_555
N0 O10 1.407621 1_555
N0 O9 1.417511 1_555
N1 O0 1.400204 1_555
N1 O3 1.402339 1_555
N1 O11 1.407621 1_555
N1 O8 1.417511 1_555
N2 O15 1.400204 1_555
N2 O12 1.402339 1_555
N2 O4 1.407621 1_555
N2 O6 1.417511 1_555
N3 O14 1.400204 1_555
N3 O13 1.402339 1_555
N3 O5 1.407621 1_555
N3 O7 1.417511 1_555
N4 O16 1.400204 1_555
N4 O18 1.402339 1_555
N4 O26 1.407621 1_555
N4 O25 1.417511 1_555
N5 O17 1.400204 1_555
N5 O19 1.402339 1_555
N5 O27 1.407621 1_555
N5 O24 1.417511 1_555
N6 O30 1.400204 1_555
N6 O28 1.402339 1_555
N6 O20 1.407621 1_555
N6 O23 1.417511 1_555
N7 O31 1.400204 1_555
N7 O29 1.402339 1_555
N7 O21 1.407621 1_555
N7 O22 1.417511 1_555
