# generated using pymatgen
data_Sr3(RhO2)16
_symmetry_space_group_name_H-M   'P 1'
_cell_length_a   8.20123900
_cell_length_b   8.75325784
_cell_length_c   9.86898938
_cell_angle_alpha   66.91288361
_cell_angle_beta   72.38195978
_cell_angle_gamma   77.30034563
_symmetry_Int_Tables_number   1
_chemical_formula_structural   Sr3(RhO2)16
_chemical_formula_sum   'Sr3 Rh16 O32'
_cell_volume   617.01202589
_cell_formula_units_Z   1
loop_
 _symmetry_equiv_pos_site_id
 _symmetry_equiv_pos_as_xyz
  1  'x, y, z'
loop_
 _atom_site_type_symbol
 _atom_site_label
 _atom_site_symmetry_multiplicity
 _atom_site_fract_x
 _atom_site_fract_y
 _atom_site_fract_z
 _atom_site_occupancy
  Sr  Sr0  1  0.98413800  0.98368400  0.01592400  1
  Sr  Sr1  1  0.67212600  0.67228300  0.32747600  1
  Sr  Sr2  1  0.30463100  0.30430800  0.69601700  1
  Rh  Rh0  1  0.94397100  0.21994300  0.24613800  1
  Rh  Rh1  1  0.87962000  0.19984900  0.62056300  1
  Rh  Rh2  1  0.37054600  0.05041800  0.12925800  1
  Rh  Rh3  1  0.80640500  0.53054800  0.00500500  1
  Rh  Rh4  1  0.55539100  0.28081000  0.25546200  1
  Rh  Rh5  1  0.30552800  0.02954900  0.50451200  1
  Rh  Rh6  1  0.62186800  0.29931900  0.88096100  1
  Rh  Rh7  1  0.87020800  0.54817800  0.63243100  1
  Rh  Rh8  1  0.13009700  0.45091300  0.36872700  1
  Rh  Rh9  1  0.37751200  0.70083500  0.11884400  1
  Rh  Rh10  1  0.19262400  0.47015500  0.99599900  1
  Rh  Rh11  1  0.69438200  0.96962900  0.49527900  1
  Rh  Rh12  1  0.44441200  0.71814700  0.74480200  1
  Rh  Rh13  1  0.62814200  0.94914200  0.87105500  1
  Rh  Rh14  1  0.11952900  0.79879700  0.38069700  1
  Rh  Rh15  1  0.05608500  0.77985800  0.75419700  1
  O  O0  1  0.86941800  0.11045200  0.47094600  1
  O  O1  1  0.75659900  0.08681300  0.26116000  1
  O  O2  1  0.63256800  0.05062400  0.02452900  1
  O  O3  1  0.88256000  0.29909800  0.77581400  1
  O  O4  1  0.62035700  0.19554500  0.72847100  1
  O  O5  1  0.87222400  0.44589900  0.47776900  1
  O  O6  1  0.49346000  0.16232100  0.48886200  1
  O  O7  1  0.74543000  0.41417200  0.23776900  1
  O  O8  1  0.38108300  0.13938400  0.27947400  1
  O  O9  1  0.63237800  0.38825700  0.03062000  1
  O  O10  1  0.11326400  0.02769700  0.21233400  1
  O  O11  1  0.99435300  0.66641500  0.98796300  1
  O  O12  1  0.88019100  0.63871500  0.78071500  1
  O  O13  1  0.36378300  0.27889700  0.96061600  1
  O  O14  1  0.86187200  0.77591900  0.46192600  1
  O  O15  1  0.61514500  0.52694800  0.71475100  1
  O  O16  1  0.13724700  0.22263200  0.53819500  1
  O  O17  1  0.63530600  0.72128100  0.04110400  1
  O  O18  1  0.38512100  0.47284500  0.28498200  1
  O  O19  1  0.11919900  0.36122800  0.22029400  1
  O  O20  1  0.00478500  0.33573800  0.01292200  1
  O  O21  1  0.88582900  0.97160900  0.78838000  1
  O  O22  1  0.61817600  0.86042300  0.72044800  1
  O  O23  1  0.36797000  0.61176800  0.96920500  1
  O  O24  1  0.25364200  0.58449500  0.76344000  1
  O  O25  1  0.50575700  0.83672500  0.51149300  1
  O  O26  1  0.12844900  0.55182100  0.52383100  1
  O  O27  1  0.37738500  0.80424400  0.27220600  1
  O  O28  1  0.11634900  0.70048900  0.22446700  1
  O  O29  1  0.36698300  0.94925500  0.97599700  1
  O  O30  1  0.24472300  0.91210300  0.73763500  1
  O  O31  1  0.12987600  0.88852000  0.52963900  1
loop_
_geom_bond_atom_site_label_1
_geom_bond_atom_site_label_2
_geom_bond_distance
_geom_bond_site_symmetry_2
O0 Rh1 1.951748 1_555
O0 Rh11 1.993740 1_545
O0 Rh0 1.995889 1_555
O1 Rh0 2.062837 1_555
O1 Rh11 2.075756 1_545
O1 Rh4 2.087815 1_555
O1 Sr0 2.897164 1_545
O2 Rh13 2.046251 1_544
O2 Rh6 2.080000 1_554
O2 Rh2 2.083703 1_555
O2 Sr0 2.794995 1_545
O3 Rh1 2.044099 1_555
O3 Rh6 2.074754 1_555
O3 Rh7 2.082365 1_555
O3 Sr0 2.997429 1_546
O4 Rh6 2.044112 1_555
O4 Rh13 2.061478 1_545
O4 Rh1 2.071141 1_555
O4 Sr2 2.625389 1_555
O5 Rh7 2.044865 1_555
O5 Rh1 2.059657 1_555
O5 Rh8 2.063682 1_655
O5 Sr1 2.560925 1_555
O6 Rh5 2.062224 1_555
O6 Rh4 2.071045 1_555
O6 Rh11 2.078837 1_545
O6 Sr2 2.711546 1_555
O7 Rh3 2.063502 1_555
O7 Rh4 2.073076 1_555
O7 Rh0 2.074296 1_555
O7 Sr1 2.626594 1_555
O8 Rh2 1.955556 1_555
O8 Rh4 1.993789 1_555
O8 Rh5 1.998748 1_555
O9 Rh6 1.950205 1_554
O9 Rh3 1.992100 1_555
O9 Rh4 1.995817 1_555
O10 Rh0 2.000839 1_455
O10 Rh2 2.042889 1_555
O10 Rh14 2.042901 1_545
O10 Sr0 2.652320 1_445
O11 Rh15 2.069330 1_655
O11 Rh3 2.076249 1_556
O11 Rh10 2.084372 1_655
O11 Sr0 2.877565 1_556
O12 Rh7 1.946003 1_555
O12 Rh3 1.989907 1_556
O12 Rh15 1.994318 1_655
O13 Rh10 2.005885 1_555
O13 Rh2 2.041926 1_556
O13 Rh6 2.044241 1_555
O13 Sr2 2.714353 1_555
O14 Rh11 2.002543 1_555
O14 Rh14 2.045163 1_655
O14 Rh7 2.046728 1_555
O14 Sr1 2.796386 1_555
O15 Rh12 1.989243 1_555
O15 Rh7 2.023387 1_555
O15 Rh6 2.026563 1_555
O16 Rh5 2.002248 1_555
O16 Rh8 2.044584 1_555
O16 Rh1 2.045283 1_455
O16 Sr2 2.724085 1_555
O17 Rh3 2.004272 1_555
O17 Rh9 2.041420 1_555
O17 Rh13 2.044759 1_554
O17 Sr1 2.787758 1_555
O18 Rh4 1.991518 1_555
O18 Rh8 2.024863 1_555
O18 Rh9 2.028760 1_555
O19 Rh8 1.944775 1_555
O19 Rh10 1.990454 1_554
O19 Rh0 1.992957 1_455
O20 Rh0 2.066712 1_455
O20 Rh10 2.067006 1_554
O20 Rh3 2.076905 1_455
O20 Sr0 3.111386 1_445
O21 Rh15 2.002285 1_655
O21 Rh1 2.036733 1_565
O21 Rh13 2.045422 1_555
O21 Sr0 2.650224 1_556
O22 Rh13 1.955927 1_555
O22 Rh12 1.994450 1_555
O22 Rh11 1.999631 1_555
O23 Rh9 1.947966 1_556
O23 Rh12 1.990882 1_555
O23 Rh10 1.992732 1_555
O24 Rh10 2.059895 1_555
O24 Rh15 2.075246 1_555
O24 Rh12 2.076559 1_555
O24 Sr2 2.700574 1_555
O25 Rh11 2.065789 1_555
O25 Rh12 2.070297 1_555
O25 Rh5 2.075758 1_565
O25 Sr1 2.630255 1_555
O26 Rh8 2.041088 1_555
O26 Rh7 2.064952 1_455
O26 Rh14 2.066973 1_555
O26 Sr2 2.625239 1_555
O27 Rh9 2.045276 1_555
O27 Rh2 2.060899 1_565
O27 Rh14 2.062630 1_555
O27 Sr1 2.559528 1_555
O28 Rh14 2.047720 1_555
O28 Rh9 2.079186 1_555
O28 Rh8 2.088486 1_555
O28 Sr0 2.779260 1_455
O29 Rh2 2.039917 1_566
O29 Rh9 2.076111 1_556
O29 Rh13 2.077770 1_555
O29 Sr0 3.005431 1_456
O30 Rh15 2.060594 1_555
O30 Rh5 2.067529 1_565
O30 Rh12 2.079148 1_555
O30 Sr0 3.116177 1_456
O31 Rh14 1.948026 1_555
O31 Rh15 1.992579 1_555
O31 Rh5 1.996544 1_565
