# generated using pymatgen
data_NaMn2O4
_symmetry_space_group_name_H-M   'P 1'
_cell_length_a   5.17872567
_cell_length_b   5.17872567
_cell_length_c   9.82211200
_cell_angle_alpha   90.00000000
_cell_angle_beta   90.00000000
_cell_angle_gamma   146.12760636
_symmetry_Int_Tables_number   1
_chemical_formula_structural   NaMn2O4
_chemical_formula_sum   'Na2 Mn4 O8'
_cell_volume   146.81651210
_cell_formula_units_Z   2
loop_
 _symmetry_equiv_pos_site_id
 _symmetry_equiv_pos_as_xyz
  1  'x, y, z'
loop_
 _atom_site_type_symbol
 _atom_site_label
 _atom_site_symmetry_multiplicity
 _atom_site_fract_x
 _atom_site_fract_y
 _atom_site_fract_z
 _atom_site_occupancy
  Na  Na0  1  0.39487000  0.60513000  0.25000000  1
  Na  Na1  1  0.60513000  0.39487000  0.75000000  1
  Mn  Mn0  1  0.86267100  0.13732900  0.92798000  1
  Mn  Mn1  1  0.13732900  0.86267100  0.42798000  1
  Mn  Mn2  1  0.86267100  0.13732900  0.57202000  1
  Mn  Mn3  1  0.13732900  0.86267100  0.07202000  1
  O  O0  1  0.23418300  0.76581700  0.60404300  1
  O  O1  1  0.23418300  0.76581700  0.89595700  1
  O  O2  1  0.76581700  0.23418300  0.39595700  1
  O  O3  1  0.76581700  0.23418300  0.10404300  1
  O  O4  1  0.06647100  0.93352900  0.25000000  1
  O  O5  1  0.93352900  0.06647100  0.75000000  1
  O  O6  1  0.50000000  0.50000000  0.50000000  1
  O  O7  1  0.50000000  0.50000000  0.00000000  1
loop_
_geom_bond_atom_site_label_1
_geom_bond_atom_site_label_2
_geom_bond_distance
_geom_bond_site_symmetry_2
Na0 O4 2.273052 1_655
Na0 O4 2.273052 1_545
Na0 O2 2.442568 1_565
Na0 O3 2.442568 1_565
Na0 O3 2.442568 1_455
Na0 O2 2.442568 1_455
Na0 O6 2.667332 1_555
Na0 O7 2.667332 1_555
Na1 O5 2.273052 1_565
Na1 O5 2.273052 1_455
Na1 O0 2.442568 1_655
Na1 O1 2.442568 1_655
Na1 O1 2.442568 1_545
Na1 O0 2.442568 1_545
Na1 O7 2.667332 1_556
Na1 O6 2.667332 1_555
Mn0 O5 1.883854 1_555
Mn0 O3 1.977738 1_556
Mn0 O1 1.998889 1_655
Mn0 O1 1.998889 1_545
Mn0 O7 2.151218 1_656
Mn0 O7 2.151218 1_546
Mn1 O4 1.883854 1_555
Mn1 O0 1.977738 1_555
Mn1 O2 1.998889 1_565
Mn1 O2 1.998889 1_455
Mn1 O6 2.151218 1_455
Mn1 O6 2.151218 1_565
Mn2 O5 1.883854 1_555
Mn2 O2 1.977738 1_555
Mn2 O0 1.998889 1_545
Mn2 O0 1.998889 1_655
Mn2 O6 2.151218 1_545
Mn2 O6 2.151218 1_655
Mn3 O4 1.883854 1_555
Mn3 O1 1.977738 1_554
Mn3 O3 1.998889 1_565
Mn3 O3 1.998889 1_455
Mn3 O7 2.151218 1_565
Mn3 O7 2.151218 1_455
