# generated using pymatgen
data_Li3NbV3O8
_symmetry_space_group_name_H-M   'P 1'
_cell_length_a   6.08252777
_cell_length_b   6.10895552
_cell_length_c   10.53716135
_cell_angle_alpha   106.41461743
_cell_angle_beta   89.98984747
_cell_angle_gamma   119.83538798
_symmetry_Int_Tables_number   1
_chemical_formula_structural   Li3NbV3O8
_chemical_formula_sum   'Li6 Nb2 V6 O16'
_cell_volume   321.12828978
_cell_formula_units_Z   2
loop_
 _symmetry_equiv_pos_site_id
 _symmetry_equiv_pos_as_xyz
  1  'x, y, z'
loop_
 _atom_site_type_symbol
 _atom_site_label
 _atom_site_symmetry_multiplicity
 _atom_site_fract_x
 _atom_site_fract_y
 _atom_site_fract_z
 _atom_site_occupancy
  Li  Li0  1  0.24998700  0.50000900  0.25000600  1
  Li  Li1  1  0.74998300  0.50000200  0.75000400  1
  Li  Li2  1  0.49995000  0.49996700  0.50000700  1
  Li  Li3  1  0.99995100  0.49996800  0.00000500  1
  Li  Li4  1  0.99999600  0.50003800  0.49998800  1
  Li  Li5  1  0.49999300  0.50003600  0.99998900  1
  Nb  Nb0  1  0.50004500  0.00001100  0.50000500  1
  Nb  Nb1  1  0.99999000  0.00000000  0.00000000  1
  V  V0  1  0.49947600  0.00000000  0.00001000  1
  V  V1  1  0.25060600  0.99974200  0.75000600  1
  V  V2  1  0.25086700  0.00025900  0.24998700  1
  V  V3  1  0.99948500  0.00000300  0.50001000  1
  V  V4  1  0.75059600  0.99974100  0.24999600  1
  V  V5  1  0.75085600  0.00025700  0.74999400  1
  O  O0  1  0.38901700  0.77815000  0.13745600  1
  O  O1  1  0.88903500  0.77817400  0.63746700  1
  O  O2  1  0.61062800  0.22182300  0.86254600  1
  O  O3  1  0.11061900  0.22180600  0.36253100  1
  O  O4  1  0.88605400  0.77163400  0.12073900  1
  O  O5  1  0.38614100  0.77164200  0.62074100  1
  O  O6  1  0.11428000  0.22836200  0.87926200  1
  O  O7  1  0.61435700  0.22835500  0.37925600  1
  O  O8  1  0.15263700  0.77654400  0.37892300  1
  O  O9  1  0.65260100  0.77651200  0.87892800  1
  O  O10  1  0.62337000  0.77600500  0.37858700  1
  O  O11  1  0.12337000  0.77603300  0.87859300  1
  O  O12  1  0.84716300  0.22399100  0.62142600  1
  O  O13  1  0.34712900  0.22395600  0.12141500  1
  O  O14  1  0.37590700  0.22347500  0.62106700  1
  O  O15  1  0.87591200  0.22350700  0.12106200  1
loop_
_geom_bond_atom_site_label_1
_geom_bond_atom_site_label_2
_geom_bond_distance
_geom_bond_site_symmetry_2
Li0 O0 2.171989 1_555
Li0 O3 2.172070 1_555
Li0 O13 2.174578 1_555
Li0 O10 2.176301 1_555
Li0 O8 2.178960 1_555
Li0 O15 2.180863 1_455
Li1 O1 2.172025 1_555
Li1 O2 2.172098 1_555
Li1 O12 2.174486 1_555
Li1 O11 2.176369 1_655
Li1 O9 2.179006 1_555
Li1 O14 2.180849 1_555
Li2 O5 2.191272 1_555
Li2 O7 2.193569 1_555
Li2 O14 2.235804 1_555
Li2 O10 2.236851 1_555
Li2 O1 2.279279 1_555
Li2 O3 2.280336 1_555
Li3 O4 2.191601 1_555
Li3 O6 2.193182 1_654
Li3 O15 2.235638 1_555
Li3 O11 2.236909 1_654
Li3 O0 2.279154 1_655
Li3 O2 2.280222 1_554
Li4 O7 2.192985 1_555
Li4 O5 2.195172 1_655
Li4 O8 2.235977 1_655
Li4 O12 2.237117 1_555
Li4 O3 2.277256 1_655
Li4 O1 2.278307 1_555
Li5 O6 2.193274 1_555
Li5 O4 2.194803 1_556
Li5 O9 2.235806 1_555
Li5 O13 2.237169 1_556
Li5 O2 2.277159 1_555
Li5 O0 2.278218 1_556
Nb0 O5 2.021355 1_545
Nb0 O7 2.021361 1_555
Nb0 O14 2.025362 1_555
Nb0 O8 2.025572 1_545
Nb0 O10 2.025772 1_545
Nb0 O12 2.025827 1_555
Nb1 O6 2.021342 1_654
Nb1 O4 2.021368 1_545
Nb1 O15 2.025283 1_555
Nb1 O9 2.025440 1_544
Nb1 O11 2.025795 1_644
Nb1 O13 2.025892 1_655
O0 V2 2.044018 1_565
O0 V4 2.051100 1_555
O0 V0 2.142120 1_565
O1 V5 2.044020 1_565
O1 V1 2.051064 1_655
O1 V3 2.142133 1_565
O2 V1 2.043962 1_545
O2 V5 2.051156 1_555
O2 V0 2.142171 1_556
O3 V4 2.043949 1_445
O3 V2 2.051132 1_555
O3 V3 2.142224 1_455
O4 V4 2.131922 1_555
O4 V2 2.138143 1_665
O5 V1 2.132265 1_555
O5 V5 2.137745 1_565
O6 V5 2.132357 1_455
O6 V1 2.137764 1_545
O7 V2 2.132650 1_555
O7 V4 2.137382 1_545
O8 V2 2.075385 1_565
O8 V3 2.154011 1_465
O9 V5 2.075490 1_565
O9 V0 2.153987 1_566
O10 V4 2.072883 1_555
O10 V3 2.154025 1_565
O11 V1 2.072742 1_555
O11 V0 2.153969 1_566
O12 V5 2.072708 1_555
O12 V3 2.153877 1_555
O13 V2 2.072597 1_555
O13 V0 2.153809 1_555
O14 V1 2.075457 1_545
O14 V3 2.154021 1_455
O15 V4 2.075549 1_545
O15 V0 2.154050 1_555
