# generated using pymatgen
data_Cu(TeO3)4
_symmetry_space_group_name_H-M   'P 1'
_cell_length_a   5.21718600
_cell_length_b   5.43144613
_cell_length_c   7.54318064
_cell_angle_alpha   86.94717864
_cell_angle_beta   89.87712418
_cell_angle_gamma   89.89496455
_symmetry_Int_Tables_number   1
_chemical_formula_structural   Cu(TeO3)4
_chemical_formula_sum   'Cu1 Te4 O12'
_cell_volume   213.44594115
_cell_formula_units_Z   1
loop_
 _symmetry_equiv_pos_site_id
 _symmetry_equiv_pos_as_xyz
  1  'x, y, z'
loop_
 _atom_site_type_symbol
 _atom_site_label
 _atom_site_symmetry_multiplicity
 _atom_site_fract_x
 _atom_site_fract_y
 _atom_site_fract_z
 _atom_site_occupancy
  Cu  Cu0  1  0.00122200  0.52170800  0.25529400  1
  Te  Te0  1  0.00177700  0.98329200  0.98196500  1
  Te  Te1  1  0.49876600  0.47710100  0.49842800  1
  Te  Te2  1  0.00411100  0.97573100  0.49381600  1
  Te  Te3  1  0.49678900  0.47286600  0.98131700  1
  O  O0  1  0.69828000  0.77570700  0.42847600  1
  O  O1  1  0.87560500  0.97813700  0.73771300  1
  O  O2  1  0.69418000  0.17250400  0.04835000  1
  O  O3  1  0.81436300  0.29177500  0.42140800  1
  O  O4  1  0.18903300  0.28846600  0.92663800  1
  O  O5  1  0.62652800  0.47531600  0.73931900  1
  O  O6  1  0.37361000  0.47170600  0.23919500  1
  O  O7  1  0.81024200  0.66366600  0.05099900  1
  O  O8  1  0.18641100  0.66010900  0.54522400  1
  O  O9  1  0.30596600  0.78135800  0.92779800  1
  O  O10  1  0.10948900  0.96429900  0.23692000  1
  O  O11  1  0.31362700  0.16485800  0.54644000  1
loop_
_geom_bond_atom_site_label_1
_geom_bond_atom_site_label_2
_geom_bond_distance
_geom_bond_site_symmetry_2
Cu0 O7 1.959404 1_455
Cu0 O6 1.965607 1_555
Cu0 O3 1.978051 1_455
Cu0 O10 2.467022 1_555
Cu0 O0 2.506568 1_455
Cu0 O8 2.543292 1_555
O0 Te1 1.976112 1_555
O0 Te2 2.008945 1_655
O1 Te2 1.957450 1_655
O1 Te0 1.959447 1_655
O2 Te3 1.971266 1_554
O2 Te0 1.981814 1_644
O3 Te1 2.028279 1_555
O3 Te2 2.030069 1_645
O4 Te3 1.950382 1_555
O4 Te0 1.951035 1_545
O5 Te1 1.936358 1_555
O5 Te3 1.944914 1_555
O6 Te3 2.047014 1_554
O6 Te1 2.064611 1_555
O7 Te3 2.022994 1_554
O7 Te0 2.047281 1_654
O8 Te1 1.948652 1_555
O8 Te2 1.979525 1_555
O9 Te3 1.971083 1_555
O9 Te0 1.981685 1_555
O10 Te0 2.002077 1_554
O10 Te2 2.017263 1_555
O11 Te2 1.967900 1_545
O11 Te1 1.969619 1_555
