# generated using pymatgen
data_LiV2(PO4)2
_symmetry_space_group_name_H-M   'P 1'
_cell_length_a   9.08348801
_cell_length_b   6.43073336
_cell_length_c   4.93632727
_cell_angle_alpha   90.03801495
_cell_angle_beta   89.99911634
_cell_angle_gamma   90.00630912
_symmetry_Int_Tables_number   1
_chemical_formula_structural   LiV2(PO4)2
_chemical_formula_sum   'Li2 V4 P4 O16'
_cell_volume   288.34803566
_cell_formula_units_Z   2
loop_
 _symmetry_equiv_pos_site_id
 _symmetry_equiv_pos_as_xyz
  1  'x, y, z'
loop_
 _atom_site_type_symbol
 _atom_site_label
 _atom_site_symmetry_multiplicity
 _atom_site_fract_x
 _atom_site_fract_y
 _atom_site_fract_z
 _atom_site_occupancy
  Li  Li0  1  0.33292400  0.25000100  0.96502400  1
  Li  Li1  1  0.83297100  0.24978100  0.53497800  1
  V  V0  1  0.99948800  0.98746000  0.99950500  1
  V  V1  1  0.99946600  0.51270700  0.99975000  1
  V  V2  1  0.49949700  0.98756000  0.50056700  1
  V  V3  1  0.49939700  0.51262700  0.50029900  1
  P  P0  1  0.17535500  0.24997100  0.47299100  1
  P  P1  1  0.32399700  0.75011800  0.98669100  1
  P  P2  1  0.67537900  0.24987700  0.02699500  1
  P  P3  1  0.82397700  0.75003000  0.51331300  1
  O  O0  1  0.11996800  0.05389200  0.33454800  1
  O  O1  1  0.11988900  0.44582200  0.33467800  1
  O  O2  1  0.12784000  0.24980500  0.78240600  1
  O  O3  1  0.15216800  0.75005200  0.95699400  1
  O  O4  1  0.35094000  0.25005400  0.44418600  1
  O  O5  1  0.37923900  0.74989900  0.28749900  1
  O  O6  1  0.37808900  0.54952900  0.84834300  1
  O  O7  1  0.37807700  0.95087100  0.84897400  1
  O  O8  1  0.61997900  0.05390800  0.16530800  1
  O  O9  1  0.61992500  0.44586900  0.16542700  1
  O  O10  1  0.62787200  0.24990700  0.71753700  1
  O  O11  1  0.65215100  0.75000900  0.54304200  1
  O  O12  1  0.85096200  0.24995200  0.05583000  1
  O  O13  1  0.87921000  0.75025600  0.21244100  1
  O  O14  1  0.87807400  0.54934500  0.65108300  1
  O  O15  1  0.87805000  0.95069700  0.65159200  1
loop_
_geom_bond_atom_site_label_1
_geom_bond_atom_site_label_2
_geom_bond_distance
_geom_bond_site_symmetry_2
Li0 O7 2.048274 1_545
Li0 O6 2.052203 1_555
Li0 O2 2.069541 1_555
Li0 O4 2.370957 1_556
Li0 O4 2.576227 1_555
Li1 O15 2.049361 1_545
Li1 O14 2.050799 1_555
Li1 O10 2.069512 1_555
Li1 O12 2.370869 1_555
Li1 O12 2.576286 1_556
O0 P0 1.519483 1_555
O0 V0 2.028426 1_444
O1 P0 1.519060 1_555
O1 V1 2.028814 1_454
O2 P0 1.587178 1_555
O2 V0 2.314282 1_445
O2 V1 2.316705 1_455
O3 P1 1.567678 1_555
O3 V1 2.073174 1_455
O3 V0 2.073235 1_455
O4 P0 1.601248 1_555
O4 V3 2.178358 1_555
O4 V2 2.179211 1_545
O5 P1 1.567389 1_554
O5 V3 2.150677 1_555
O5 V2 2.152399 1_555
O6 P1 1.539709 1_555
O6 V3 2.054673 1_555
O7 P1 1.539847 1_555
O7 V2 2.056794 1_555
O8 P2 1.519392 1_555
O8 V2 2.029626 1_545
O9 P2 1.519281 1_555
O9 V3 2.028438 1_555
O10 P2 1.587374 1_556
O10 V2 2.313082 1_545
O10 V3 2.317125 1_555
O11 P3 1.567661 1_555
O11 V3 2.073457 1_555
O11 V2 2.073946 1_555
O12 P2 1.601247 1_555
O12 V0 2.178700 1_544
O12 V1 2.179788 1_554
O13 P3 1.567648 1_555
O13 V0 2.151062 1_554
O13 V1 2.151125 1_554
O14 P3 1.539743 1_555
O14 V1 2.057750 1_555
O15 P3 1.539840 1_555
O15 V0 2.054664 1_555
