# generated using pymatgen
data_Ta2CuO6
_symmetry_space_group_name_H-M   'P 1'
_cell_length_a   5.26957109
_cell_length_b   5.26957109
_cell_length_c   5.64067769
_cell_angle_alpha   61.11487473
_cell_angle_beta   61.11487473
_cell_angle_gamma   58.76517748
_symmetry_Int_Tables_number   1
_chemical_formula_structural   Ta2CuO6
_chemical_formula_sum   'Ta2 Cu1 O6'
_cell_volume   111.46494945
_cell_formula_units_Z   1
loop_
 _symmetry_equiv_pos_site_id
 _symmetry_equiv_pos_as_xyz
  1  'x, y, z'
loop_
 _atom_site_type_symbol
 _atom_site_label
 _atom_site_symmetry_multiplicity
 _atom_site_fract_x
 _atom_site_fract_y
 _atom_site_fract_z
 _atom_site_occupancy
  Ta  Ta0  1  0.99573800  0.49604700  0.76175200  1
  Ta  Ta1  1  0.50395300  0.00426200  0.23824800  1
  Cu  Cu0  1  0.76612700  0.23387300  0.50000000  1
  O  O0  1  0.73744900  0.88204300  0.50417300  1
  O  O1  1  0.11795700  0.26255100  0.49582700  1
  O  O2  1  0.38450300  0.61549700  0.50000000  1
  O  O3  1  0.65566700  0.34433300  0.00000000  1
  O  O4  1  0.84295300  0.76096700  0.98978100  1
  O  O5  1  0.23903300  0.15704700  0.01021900  1
loop_
_geom_bond_atom_site_label_1
_geom_bond_atom_site_label_2
_geom_bond_distance
_geom_bond_site_symmetry_2
Cu0 O1 1.925008 1_655
Cu0 O0 1.925008 1_545
Cu0 O2 1.973345 1_555
O0 Ta1 2.051011 1_565
O0 Ta0 2.070025 1_555
O1 Ta0 2.051011 1_455
O1 Ta1 2.070025 1_555
O2 Ta1 2.071298 1_565
O2 Ta0 2.071298 1_455
O3 Ta0 1.943632 1_554
O3 Ta1 1.943632 1_555
O4 Ta1 1.934177 1_566
O4 Ta0 1.954512 1_555
O5 Ta0 1.934177 1_454
O5 Ta1 1.954512 1_555
