# generated using pymatgen
data_LiMnF4
_symmetry_space_group_name_H-M   'P 1'
_cell_length_a   4.84427800
_cell_length_b   5.95635700
_cell_length_c   10.50041909
_cell_angle_alpha   89.86058024
_cell_angle_beta   90.00000000
_cell_angle_gamma   90.00000000
_symmetry_Int_Tables_number   1
_chemical_formula_structural   LiMnF4
_chemical_formula_sum   'Li4 Mn4 F16'
_cell_volume   302.98081179
_cell_formula_units_Z   4
loop_
 _symmetry_equiv_pos_site_id
 _symmetry_equiv_pos_as_xyz
  1  'x, y, z'
loop_
 _atom_site_type_symbol
 _atom_site_label
 _atom_site_symmetry_multiplicity
 _atom_site_fract_x
 _atom_site_fract_y
 _atom_site_fract_z
 _atom_site_occupancy
  Li  Li0  1  0.50834500  0.87693600  0.85319200  1
  Li  Li1  1  0.99165500  0.87693600  0.35319200  1
  Li  Li2  1  0.00834500  0.12306400  0.64680800  1
  Li  Li3  1  0.49165500  0.12306400  0.14680800  1
  Mn  Mn0  1  0.03154100  0.63167100  0.63487500  1
  Mn  Mn1  1  0.46845900  0.63167100  0.13487500  1
  Mn  Mn2  1  0.53154100  0.36832900  0.86512500  1
  Mn  Mn3  1  0.96845900  0.36832900  0.36512500  1
  F  F0  1  0.25069600  0.86098100  0.70371700  1
  F  F1  1  0.24930400  0.86098100  0.20371700  1
  F  F2  1  0.81851900  0.85900100  0.56543500  1
  F  F3  1  0.68148100  0.85900100  0.06543500  1
  F  F4  1  0.31309600  0.60595800  0.93702000  1
  F  F5  1  0.18690400  0.60595800  0.43702000  1
  F  F6  1  0.75856400  0.60543100  0.80024200  1
  F  F7  1  0.74143600  0.60543100  0.30024200  1
  F  F8  1  0.25856400  0.39456900  0.69975800  1
  F  F9  1  0.24143600  0.39456900  0.19975800  1
  F  F10  1  0.81309600  0.39404200  0.56298000  1
  F  F11  1  0.68690400  0.39404200  0.06298000  1
  F  F12  1  0.31851900  0.14099900  0.93456500  1
  F  F13  1  0.18148100  0.14099900  0.43456500  1
  F  F14  1  0.75069600  0.13901900  0.79628300  1
  F  F15  1  0.74930400  0.13901900  0.29628300  1
loop_
_geom_bond_atom_site_label_1
_geom_bond_atom_site_label_2
_geom_bond_distance
_geom_bond_site_symmetry_2
F0 Mn0 1.876165 1_555
F0 Li0 2.007749 1_555
F0 Li2 2.041511 1_565
F1 Mn1 1.876165 1_555
F1 Li1 2.007749 1_455
F1 Li3 2.041511 1_565
F2 Mn0 1.850736 1_655
F2 Li2 2.013977 1_665
F2 Li1 2.383389 1_555
F3 Mn1 1.850736 1_555
F3 Li3 2.013977 1_565
F3 Li0 2.383389 1_554
F4 Mn2 1.923093 1_555
F4 Li0 2.065825 1_555
F4 Mn1 2.215333 1_556
F5 Mn3 1.923093 1_455
F5 Li1 2.065825 1_455
F5 Mn0 2.215333 1_555
F6 Mn2 1.914015 1_555
F6 Li0 2.097151 1_555
F6 Mn0 2.187910 1_655
F7 Mn3 1.914015 1_555
F7 Li1 2.097151 1_555
F7 Mn1 2.187910 1_555
F8 Mn0 1.914015 1_555
F8 Li2 2.097151 1_555
F8 Mn2 2.187910 1_555
F9 Mn1 1.914015 1_555
F9 Li3 2.097151 1_555
F9 Mn3 2.187910 1_455
F10 Mn0 1.923093 1_655
F10 Li2 2.065825 1_655
F10 Mn3 2.215333 1_555
F11 Mn1 1.923093 1_555
F11 Li3 2.065825 1_555
F11 Mn2 2.215333 1_554
F12 Mn2 1.850736 1_555
F12 Li0 2.013977 1_545
F12 Li3 2.383389 1_556
F13 Mn3 1.850736 1_455
F13 Li1 2.013977 1_445
F13 Li2 2.383389 1_555
F14 Mn2 1.876165 1_555
F14 Li2 2.007749 1_655
F14 Li0 2.041511 1_545
F15 Mn3 1.876165 1_555
F15 Li3 2.007749 1_555
F15 Li1 2.041511 1_545
