# generated using pymatgen
data_LiTiCrO4
_symmetry_space_group_name_H-M   'P 1'
_cell_length_a   5.97182507
_cell_length_b   5.98089300
_cell_length_c   8.40005600
_cell_angle_alpha   89.99983172
_cell_angle_beta   89.99994710
_cell_angle_gamma   90.00063661
_symmetry_Int_Tables_number   1
_chemical_formula_structural   LiTiCrO4
_chemical_formula_sum   'Li4 Ti4 Cr4 O16'
_cell_volume   300.02351285
_cell_formula_units_Z   4
loop_
 _symmetry_equiv_pos_site_id
 _symmetry_equiv_pos_as_xyz
  1  'x, y, z'
loop_
 _atom_site_type_symbol
 _atom_site_label
 _atom_site_symmetry_multiplicity
 _atom_site_fract_x
 _atom_site_fract_y
 _atom_site_fract_z
 _atom_site_occupancy
  Li  Li0  1  0.00001600  0.24996800  0.12176500  1
  Li  Li1  1  0.50000400  0.74997300  0.62180000  1
  Li  Li2  1  0.00001500  0.74996700  0.87818600  1
  Li  Li3  1  0.50000600  0.24996900  0.37821600  1
  Ti  Ti0  1  0.25001700  0.75004200  0.25000400  1
  Ti  Ti1  1  0.75002100  0.25003200  0.75000500  1
  Ti  Ti2  1  0.74998400  0.75003500  0.24999700  1
  Ti  Ti3  1  0.24998600  0.25004100  0.74999600  1
  Cr  Cr0  1  0.49999300  0.99981700  0.00004700  1
  Cr  Cr1  1  0.00000700  0.99996800  0.50001700  1
  Cr  Cr2  1  0.99995100  0.49997400  0.49996400  1
  Cr  Cr3  1  0.49999000  0.49998600  0.99999200  1
  O  O0  1  0.99999500  0.52837900  0.25796000  1
  O  O1  1  0.50000800  0.02832800  0.75797000  1
  O  O2  1  0.00000700  0.97164500  0.25796000  1
  O  O3  1  0.50000600  0.47161800  0.75805000  1
  O  O4  1  0.99999700  0.02837400  0.74199100  1
  O  O5  1  0.50000800  0.52835500  0.24208000  1
  O  O6  1  0.99999800  0.47164900  0.74198900  1
  O  O7  1  0.50001400  0.97159500  0.24199500  1
  O  O8  1  0.77236900  0.75010700  0.48330400  1
  O  O9  1  0.27244700  0.24996500  0.98335300  1
  O  O10  1  0.22759600  0.75009500  0.48330300  1
  O  O11  1  0.72757400  0.24998000  0.98335400  1
  O  O12  1  0.22755800  0.25010600  0.51665400  1
  O  O13  1  0.72764400  0.74997100  0.01669700  1
  O  O14  1  0.77241400  0.25009000  0.51665100  1
  O  O15  1  0.27237700  0.74997200  0.01670000  1
loop_
_geom_bond_atom_site_label_1
_geom_bond_atom_site_label_2
_geom_bond_distance
_geom_bond_site_symmetry_2
Li0 O9 1.999658 1_554
Li0 O11 1.999708 1_454
Li0 O2 2.019849 1_545
Li0 O0 2.020288 1_455
Li1 O8 1.999748 1_555
Li1 O10 1.999963 1_555
Li1 O1 2.019893 1_565
Li1 O3 2.020268 1_555
Li2 O15 1.999823 1_556
Li2 O13 1.999850 1_456
Li2 O6 2.019839 1_455
Li2 O4 2.020263 1_465
Li3 O14 1.999660 1_555
Li3 O12 1.999868 1_555
Li3 O5 2.019879 1_555
Li3 O7 2.020229 1_545
Cr0 O15 2.024869 1_555
Cr0 O13 2.025034 1_555
Cr0 O9 2.025972 1_564
Cr0 O11 2.026156 1_564
Cr0 O7 2.039373 1_555
Cr0 O1 2.040597 1_564
Cr1 O10 2.024942 1_555
Cr1 O8 2.025063 1_455
Cr1 O12 2.025893 1_565
Cr1 O14 2.026011 1_465
Cr1 O4 2.039684 1_465
Cr1 O2 2.040337 1_555
Cr2 O14 2.024744 1_555
Cr2 O12 2.024978 1_655
Cr2 O8 2.026030 1_555
Cr2 O10 2.026208 1_655
Cr2 O0 2.039933 1_555
Cr2 O6 2.040069 1_555
Cr3 O9 2.025346 1_555
Cr3 O11 2.025465 1_555
Cr3 O15 2.025534 1_556
Cr3 O13 2.025670 1_556
Cr3 O3 2.039397 1_555
Cr3 O5 2.040619 1_556
O0 Ti2 1.997778 1_555
O0 Ti0 1.997830 1_655
O1 Ti1 1.997955 1_555
O1 Ti3 1.998056 1_555
O2 Ti0 1.997561 1_555
O2 Ti2 1.997627 1_455
O3 Ti3 1.997508 1_555
O3 Ti1 1.997541 1_555
O4 Ti1 1.997644 1_555
O4 Ti3 1.997713 1_655
O5 Ti2 1.997682 1_555
O5 Ti0 1.997801 1_555
O6 Ti1 1.997464 1_555
O6 Ti3 1.997497 1_655
O7 Ti2 1.997225 1_555
O7 Ti0 1.997297 1_555
O8 Ti2 1.964346 1_555
O9 Ti3 1.964796 1_555
O10 Ti0 1.964293 1_555
O11 Ti1 1.964723 1_555
O12 Ti3 1.964657 1_555
O13 Ti2 1.964269 1_555
O14 Ti1 1.964743 1_555
O15 Ti0 1.964310 1_555
