# generated using pymatgen
data_Na2V2O5
_symmetry_space_group_name_H-M   'P 1'
_cell_length_a   5.44023000
_cell_length_b   8.71149400
_cell_length_c   12.44444708
_cell_angle_alpha   77.58914518
_cell_angle_beta   90.00000000
_cell_angle_gamma   90.00000000
_symmetry_Int_Tables_number   1
_chemical_formula_structural   Na2V2O5
_chemical_formula_sum   'Na8 V8 O20'
_cell_volume   575.99176051
_cell_formula_units_Z   4
loop_
 _symmetry_equiv_pos_site_id
 _symmetry_equiv_pos_as_xyz
  1  'x, y, z'
loop_
 _atom_site_type_symbol
 _atom_site_label
 _atom_site_symmetry_multiplicity
 _atom_site_fract_x
 _atom_site_fract_y
 _atom_site_fract_z
 _atom_site_occupancy
  Na  Na0  1  0.69725400  0.14728100  0.03109600  1
  Na  Na1  1  0.26803400  0.38484600  0.05735300  1
  Na  Na2  1  0.76803400  0.61515400  0.44264700  1
  Na  Na3  1  0.80274600  0.14728100  0.53109600  1
  Na  Na4  1  0.19725400  0.85271900  0.46890400  1
  Na  Na5  1  0.23196600  0.38484600  0.55735300  1
  Na  Na6  1  0.73196600  0.61515400  0.94264700  1
  Na  Na7  1  0.30274600  0.85271900  0.96890400  1
  V  V0  1  0.80100200  0.39764200  0.22614800  1
  V  V1  1  0.66659200  0.02220200  0.32638900  1
  V  V2  1  0.16659200  0.97779800  0.17361100  1
  V  V3  1  0.30100200  0.60235800  0.27385200  1
  V  V4  1  0.69899800  0.39764200  0.72614800  1
  V  V5  1  0.83340800  0.02220200  0.82638900  1
  V  V6  1  0.33340800  0.97779800  0.67361100  1
  V  V7  1  0.19899800  0.60235800  0.77385200  1
  O  O0  1  0.26795900  0.11338300  0.06064900  1
  O  O1  1  0.71219900  0.39621600  0.09137600  1
  O  O2  1  0.34082500  0.00425600  0.29796500  1
  O  O3  1  0.13324200  0.44079600  0.22638100  1
  O  O4  1  0.24249100  0.77391900  0.16075900  1
  O  O5  1  0.74249100  0.22608100  0.33924100  1
  O  O6  1  0.63324200  0.55920400  0.27361900  1
  O  O7  1  0.84082500  0.99574400  0.20203500  1
  O  O8  1  0.21219900  0.60378400  0.40862400  1
  O  O9  1  0.23204100  0.11338300  0.56064900  1
  O  O10  1  0.76795900  0.88661700  0.43935100  1
  O  O11  1  0.78780100  0.39621600  0.59137600  1
  O  O12  1  0.15917500  0.00425600  0.79796500  1
  O  O13  1  0.36675800  0.44079600  0.72638100  1
  O  O14  1  0.25750900  0.77391900  0.66075900  1
  O  O15  1  0.75750900  0.22608100  0.83924100  1
  O  O16  1  0.86675800  0.55920400  0.77361900  1
  O  O17  1  0.65917500  0.99574400  0.70203500  1
  O  O18  1  0.28780100  0.60378400  0.90862400  1
  O  O19  1  0.73204100  0.88661700  0.93935100  1
loop_
_geom_bond_atom_site_label_1
_geom_bond_atom_site_label_2
_geom_bond_distance
_geom_bond_site_symmetry_2
Na0 O15 2.361037 1_554
Na0 O0 2.372797 1_555
Na0 O7 2.381351 1_545
Na0 O1 2.443645 1_555
Na0 O19 2.758647 1_544
Na1 O0 2.356373 1_555
Na1 O18 2.357444 1_554
Na1 O3 2.374980 1_555
Na1 O1 2.458841 1_555
Na2 O10 2.356373 1_555
Na2 O11 2.357444 1_555
Na2 O6 2.374980 1_555
Na2 O8 2.458841 1_655
Na3 O5 2.361037 1_555
Na3 O9 2.372797 1_655
Na3 O17 2.381351 1_545
Na3 O11 2.443645 1_555
Na3 O10 2.758647 1_545
Na4 O14 2.361037 1_555
Na4 O10 2.372797 1_455
Na4 O2 2.381351 1_565
Na4 O8 2.443645 1_555
Na4 O9 2.758647 1_565
Na5 O9 2.356373 1_555
Na5 O8 2.357444 1_555
Na5 O13 2.374980 1_555
Na5 O11 2.458841 1_455
Na6 O19 2.356373 1_555
Na6 O1 2.357444 1_556
Na6 O16 2.374980 1_555
Na6 O18 2.458841 1_555
Na7 O4 2.361037 1_556
Na7 O19 2.372797 1_555
Na7 O12 2.381351 1_565
Na7 O18 2.443645 1_555
Na7 O0 2.758647 1_566
O0 V2 1.720943 1_545
O1 V0 1.747964 1_555
O2 V1 1.820492 1_555
O2 V2 1.870750 1_545
O3 V0 1.846273 1_455
O3 V3 1.876224 1_555
O4 V3 1.847052 1_555
O4 V2 1.863511 1_555
O5 V0 1.847052 1_555
O5 V1 1.863511 1_555
O6 V3 1.846273 1_555
O6 V0 1.876224 1_555
O7 V2 1.820492 1_655
O7 V1 1.870750 1_565
O8 V3 1.747964 1_555
O9 V6 1.720943 1_545
O10 V1 1.720943 1_565
O11 V4 1.747964 1_555
O12 V5 1.820492 1_455
O12 V6 1.870750 1_545
O13 V4 1.846273 1_555
O13 V7 1.876224 1_555
O14 V7 1.847052 1_555
O14 V6 1.863511 1_555
O15 V4 1.847052 1_555
O15 V5 1.863511 1_555
O16 V7 1.846273 1_655
O16 V4 1.876224 1_555
O17 V6 1.820492 1_555
O17 V5 1.870750 1_565
O18 V7 1.747964 1_555
O19 V5 1.720943 1_565
