# generated using pymatgen
data_Li2SiNiO4
_symmetry_space_group_name_H-M   'P 1'
_cell_length_a   10.71008400
_cell_length_b   5.05084200
_cell_length_c   8.01550703
_cell_angle_alpha   52.51318509
_cell_angle_beta   90.00000000
_cell_angle_gamma   90.00000000
_symmetry_Int_Tables_number   1
_chemical_formula_structural   Li2SiNiO4
_chemical_formula_sum   'Li8 Si4 Ni4 O16'
_cell_volume   344.05746362
_cell_formula_units_Z   4
loop_
 _symmetry_equiv_pos_site_id
 _symmetry_equiv_pos_as_xyz
  1  'x, y, z'
loop_
 _atom_site_type_symbol
 _atom_site_label
 _atom_site_symmetry_multiplicity
 _atom_site_fract_x
 _atom_site_fract_y
 _atom_site_fract_z
 _atom_site_occupancy
  Li  Li0  1  0.66327300  0.68662000  0.50545500  1
  Li  Li1  1  0.42160200  0.46361700  0.74055500  1
  Li  Li2  1  0.92160200  0.53638300  0.75944500  1
  Li  Li3  1  0.16327300  0.31338000  0.99454500  1
  Li  Li4  1  0.83672700  0.68662000  0.00545500  1
  Li  Li5  1  0.07839800  0.46361700  0.24055500  1
  Li  Li6  1  0.57839800  0.53638300  0.25944500  1
  Li  Li7  1  0.33672700  0.31338000  0.49454500  1
  Si  Si0  1  0.08628800  0.06490500  0.74561100  1
  Si  Si1  1  0.58628800  0.93509500  0.75438900  1
  Si  Si2  1  0.41371200  0.06490500  0.24561100  1
  Si  Si3  1  0.91371200  0.93509500  0.25438900  1
  Ni  Ni0  1  0.83634000  0.19363600  0.50023200  1
  Ni  Ni1  1  0.33634000  0.80636400  0.99976800  1
  Ni  Ni2  1  0.66366000  0.19363600  0.00023200  1
  Ni  Ni3  1  0.16366000  0.80636400  0.49976800  1
  O  O0  1  0.15969800  0.17443500  0.52954600  1
  O  O1  1  0.66064900  0.24765900  0.54426200  1
  O  O2  1  0.44194200  0.05429500  0.74639600  1
  O  O3  1  0.08659300  0.39006200  0.74735100  1
  O  O4  1  0.58659300  0.60993800  0.75264900  1
  O  O5  1  0.94194200  0.94570500  0.75360400  1
  O  O6  1  0.16064900  0.75234100  0.95573800  1
  O  O7  1  0.65969800  0.82556500  0.97045400  1
  O  O8  1  0.34030200  0.17443500  0.02954600  1
  O  O9  1  0.83935100  0.24765900  0.04426200  1
  O  O10  1  0.05805800  0.05429500  0.24639600  1
  O  O11  1  0.41340700  0.39006200  0.24735100  1
  O  O12  1  0.91340700  0.60993800  0.25264900  1
  O  O13  1  0.55805800  0.94570500  0.25360400  1
  O  O14  1  0.33935100  0.75234100  0.45573800  1
  O  O15  1  0.84030200  0.82556500  0.47045400  1
loop_
_geom_bond_atom_site_label_1
_geom_bond_atom_site_label_2
_geom_bond_distance
_geom_bond_site_symmetry_2
Li0 O4 1.953533 1_555
Li0 O13 1.960128 1_555
Li0 O15 1.981508 1_555
Li0 O1 2.042979 1_555
Li1 O4 1.940441 1_555
Li1 O14 2.015521 1_555
Li1 O8 2.034505 1_556
Li1 O2 2.050869 1_555
Li2 O3 1.940441 1_655
Li2 O9 2.015521 1_556
Li2 O15 2.034505 1_555
Li2 O5 2.050869 1_555
Li3 O3 1.953533 1_555
Li3 O10 1.960128 1_556
Li3 O8 1.981508 1_556
Li3 O6 2.042979 1_555
Li4 O12 1.953533 1_555
Li4 O5 1.960128 1_554
Li4 O7 1.981508 1_554
Li4 O9 2.042979 1_555
Li5 O12 1.940441 1_455
Li5 O6 2.015521 1_554
Li5 O0 2.034505 1_555
Li5 O10 2.050869 1_555
Li6 O11 1.940441 1_555
Li6 O1 2.015521 1_555
Li6 O7 2.034505 1_554
Li6 O13 2.050869 1_555
Li7 O11 1.953533 1_555
Li7 O2 1.960128 1_555
Li7 O0 1.981508 1_555
Li7 O14 2.042979 1_555
Ni0 O1 1.963895 1_555
Ni0 O5 1.968859 1_545
Ni0 O12 1.990442 1_555
Ni0 O15 2.013703 1_545
Ni1 O6 1.963895 1_555
Ni1 O2 1.968859 1_565
Ni1 O11 1.990442 1_556
Ni1 O8 2.013703 1_566
Ni2 O9 1.963895 1_555
Ni2 O13 1.968859 1_545
Ni2 O4 1.990442 1_554
Ni2 O7 2.013703 1_544
Ni3 O14 1.963895 1_555
Ni3 O10 1.968859 1_565
Ni3 O3 1.990442 1_555
Ni3 O0 2.013703 1_565
O0 Si0 1.660547 1_555
O1 Si1 1.651357 1_545
O2 Si1 1.646092 1_545
O3 Si0 1.650845 1_555
O4 Si1 1.650845 1_555
O5 Si0 1.646092 1_665
O6 Si0 1.651357 1_565
O7 Si1 1.660547 1_555
O8 Si2 1.660547 1_555
O9 Si3 1.651357 1_545
O10 Si3 1.646092 1_445
O11 Si2 1.650845 1_555
O12 Si3 1.650845 1_555
O13 Si2 1.646092 1_565
O14 Si2 1.651357 1_565
O15 Si3 1.660547 1_555
