# generated using pymatgen
data_YbRe3O16
_symmetry_space_group_name_H-M   'P 1'
_cell_length_a   7.27331600
_cell_length_b   9.05944636
_cell_length_c   11.94888389
_cell_angle_alpha   72.58958615
_cell_angle_beta   83.43189943
_cell_angle_gamma   76.30053040
_symmetry_Int_Tables_number   1
_chemical_formula_structural   YbRe3O16
_chemical_formula_sum   'Yb2 Re6 O32'
_cell_volume   729.08993518
_cell_formula_units_Z   2
loop_
 _symmetry_equiv_pos_site_id
 _symmetry_equiv_pos_as_xyz
  1  'x, y, z'
loop_
 _atom_site_type_symbol
 _atom_site_label
 _atom_site_symmetry_multiplicity
 _atom_site_fract_x
 _atom_site_fract_y
 _atom_site_fract_z
 _atom_site_occupancy
  Yb  Yb0  1  0.14178300  0.22178600  0.21563000  1
  Yb  Yb1  1  0.85821700  0.77821400  0.78437000  1
  Re  Re0  1  0.17130900  0.33004300  0.86537500  1
  Re  Re1  1  0.82869100  0.66995700  0.13462500  1
  Re  Re2  1  0.78773800  0.32229100  0.48572400  1
  Re  Re3  1  0.21226200  0.67770900  0.51427600  1
  Re  Re4  1  0.68391200  0.20943900  0.09724000  1
  Re  Re5  1  0.31608800  0.79056100  0.90276000  1
  O  O0  1  0.14914900  0.26576800  0.01964800  1
  O  O1  1  0.85085100  0.73423200  0.98035200  1
  O  O2  1  0.08634100  0.20908800  0.80521700  1
  O  O3  1  0.91365900  0.79091200  0.19478300  1
  O  O4  1  0.40783000  0.32142200  0.82112100  1
  O  O5  1  0.59217000  0.67857800  0.17887900  1
  O  O6  1  0.04411600  0.53124700  0.80872500  1
  O  O7  1  0.95588400  0.46875300  0.19127500  1
  O  O8  1  0.76515700  0.25284000  0.65832900  1
  O  O9  1  0.23484300  0.74716000  0.34167100  1
  O  O10  1  0.81238100  0.51542900  0.44625100  1
  O  O11  1  0.18761900  0.48457100  0.55374900  1
  O  O12  1  0.57617500  0.31898700  0.43567800  1
  O  O13  1  0.42382500  0.68101300  0.56432200  1
  O  O14  1  0.97325000  0.20760800  0.42283200  1
  O  O15  1  0.02675000  0.79239200  0.57716800  1
  O  O16  1  0.86376900  0.14625600  0.20085600  1
  O  O17  1  0.13623100  0.85374400  0.79914400  1
  O  O18  1  0.45737500  0.22543500  0.17197200  1
  O  O19  1  0.54262500  0.77456500  0.82802800  1
  O  O20  1  0.70860800  0.39074500  0.00087800  1
  O  O21  1  0.29139200  0.60925500  0.99912200  1
  O  O22  1  0.70665100  0.07323400  0.01841600  1
  O  O23  1  0.29334900  0.92676600  0.98158400  1
  O  O24  1  0.44195700  0.99641300  0.38446900  1
  O  O25  1  0.55804300  0.00358700  0.61553100  1
  O  O26  1  0.21317500  0.41726100  0.29223100  1
  O  O27  1  0.78682500  0.58273900  0.70776900  1
  O  O28  1  0.77797500  0.09765700  0.70358000  1
  O  O29  1  0.22202500  0.90234300  0.29642000  1
  O  O30  1  0.38759300  0.06061600  0.61168200  1
  O  O31  1  0.61240700  0.93938400  0.38831800  1
loop_
_geom_bond_atom_site_label_1
_geom_bond_atom_site_label_2
_geom_bond_distance
_geom_bond_site_symmetry_2
O0 Re0 1.759905 1_554
O0 Yb0 2.251340 1_555
O1 Re1 1.759905 1_556
O1 Yb1 2.251340 1_555
O2 Re0 1.730064 1_555
O3 Re1 1.730064 1_555
O4 Re0 1.731500 1_555
O5 Re1 1.731500 1_555
O6 Re0 1.800772 1_555
O6 Yb1 2.277330 1_455
O7 Re1 1.800772 1_555
O7 Yb0 2.277330 1_655
O8 Re2 1.967587 1_555
O9 Re3 1.967587 1_555
O10 Re2 1.717981 1_555
O11 Re3 1.717981 1_555
O12 Re2 1.723172 1_555
O13 Re3 1.723172 1_555
O14 Re2 1.742420 1_555
O14 Yb0 2.615111 1_655
O15 Re3 1.742420 1_555
O15 Yb1 2.615111 1_455
O16 Re4 1.778636 1_555
O16 Yb0 2.323255 1_655
O17 Re5 1.778636 1_555
O17 Yb1 2.323255 1_455
O18 Re4 1.777912 1_555
O18 Yb0 2.300821 1_555
O19 Re5 1.777912 1_555
O19 Yb1 2.300821 1_555
O20 Re4 1.736836 1_555
O21 Re5 1.736836 1_555
O22 Re4 1.732125 1_555
O23 Re5 1.732125 1_555
O24 O31 1.225329 1_555
O25 O30 1.225329 1_555
O26 Yb0 2.399528 1_555
O27 Yb1 2.399528 1_555
O28 O8 1.331193 1_555
O28 Yb1 2.702716 1_545
O29 O9 1.331193 1_555
O29 Yb0 2.702716 1_565
