# generated using pymatgen
data_LiLa4FeO8
_symmetry_space_group_name_H-M   'P 1'
_cell_length_a   6.90242892
_cell_length_b   7.74004574
_cell_length_c   7.74043062
_cell_angle_alpha   89.99191198
_cell_angle_beta   73.71523171
_cell_angle_gamma   106.25875353
_symmetry_Int_Tables_number   1
_chemical_formula_structural   LiLa4FeO8
_chemical_formula_sum   'Li2 La8 Fe2 O16'
_cell_volume   379.67699321
_cell_formula_units_Z   2
loop_
 _symmetry_equiv_pos_site_id
 _symmetry_equiv_pos_as_xyz
  1  'x, y, z'
loop_
 _atom_site_type_symbol
 _atom_site_label
 _atom_site_symmetry_multiplicity
 _atom_site_fract_x
 _atom_site_fract_y
 _atom_site_fract_z
 _atom_site_occupancy
  Li  Li0  1  0.99600700  0.99936400  0.00218300  1
  Li  Li1  1  0.99599900  0.49936100  0.50218400  1
  La  La0  1  0.72564700  0.18237900  0.32120000  1
  La  La1  1  0.72564200  0.68237800  0.82120400  1
  La  La2  1  0.26960800  0.31546400  0.18336800  1
  La  La3  1  0.26960000  0.81547100  0.68337300  1
  La  La4  1  0.72322600  0.18150000  0.81981600  1
  La  La5  1  0.72322700  0.68150500  0.31982100  1
  La  La6  1  0.27206700  0.81898900  0.18278900  1
  La  La7  1  0.27207000  0.31899400  0.68277800  1
  Fe  Fe0  1  0.99738900  0.99975400  0.50191300  1
  Fe  Fe1  1  0.99738700  0.49976100  0.00191000  1
  O  O0  1  0.63066100  0.40477000  0.59255400  1
  O  O1  1  0.63066200  0.90477100  0.09255700  1
  O  O2  1  0.36520400  0.09330300  0.91424600  1
  O  O3  1  0.36520200  0.59330400  0.41424900  1
  O  O4  1  0.64786800  0.41554700  0.08917200  1
  O  O5  1  0.64787200  0.91554800  0.58917000  1
  O  O6  1  0.34768000  0.08899600  0.41016400  1
  O  O7  1  0.34767700  0.58899900  0.91015900  1
  O  O8  1  0.99701100  0.25010300  0.00417700  1
  O  O9  1  0.99700700  0.75010300  0.50418000  1
  O  O10  1  0.99969100  0.49772400  0.25071400  1
  O  O11  1  0.99968800  0.99772400  0.75071700  1
  O  O12  1  0.99553000  0.50133700  0.75289700  1
  O  O13  1  0.99553400  0.00133600  0.25289600  1
  O  O14  1  0.99859900  0.74958100  0.99952300  1
  O  O15  1  0.99860000  0.24958500  0.49952000  1
loop_
_geom_bond_atom_site_label_1
_geom_bond_atom_site_label_2
_geom_bond_distance
_geom_bond_site_symmetry_2
Li0 O14 1.938476 1_554
Li0 O8 1.938882 1_565
Li0 O11 1.939574 1_554
Li0 O13 1.939783 1_565
Li0 O1 2.315467 1_555
Li0 O2 2.340006 1_664
Li1 O15 1.938440 1_555
Li1 O9 1.938897 1_555
Li1 O10 1.939584 1_555
Li1 O12 1.939791 1_555
Li1 O0 2.315423 1_555
Li1 O3 2.340044 1_655
La0 O6 2.395697 1_555
La0 O13 2.573514 1_555
La0 O15 2.575886 1_555
La0 O10 2.582388 1_555
La0 O8 2.583969 1_555
La0 O5 2.758513 1_545
La0 O0 2.768593 1_555
La0 O4 2.802365 1_555
La0 O1 2.835826 1_545
La1 O7 2.395686 1_555
La1 O12 2.573508 1_555
La1 O14 2.575903 1_555
La1 O11 2.582400 1_555
La1 O9 2.583978 1_555
La1 O4 2.758503 1_556
La1 O1 2.768590 1_556
La1 O5 2.802374 1_555
La1 O0 2.835858 1_555
La2 O4 2.397552 1_555
La2 O13 2.575478 1_455
La2 O15 2.577990 1_455
La2 O8 2.578935 1_455
La2 O10 2.580722 1_455
La2 O6 2.739223 1_555
La2 O2 2.756277 1_554
La2 O7 2.822374 1_554
La2 O3 2.849851 1_555
La3 O5 2.397627 1_555
La3 O12 2.575501 1_455
La3 O14 2.577959 1_455
La3 O9 2.578923 1_455
La3 O11 2.580653 1_455
La3 O7 2.739210 1_555
La3 O3 2.756329 1_555
La3 O6 2.822303 1_565
La3 O2 2.849779 1_565
La4 O2 2.269235 1_555
La4 O12 2.603386 1_555
La4 O15 2.614013 1_555
La4 O8 2.615415 1_556
La4 O11 2.626514 1_545
La4 O5 2.759973 1_545
La4 O0 2.781512 1_555
La4 O4 2.796363 1_556
La4 O1 2.815810 1_546
La5 O3 2.269254 1_555
La5 O13 2.603359 1_565
La5 O14 2.614019 1_554
La5 O9 2.615375 1_555
La5 O10 2.626554 1_555
La5 O4 2.760027 1_555
La5 O1 2.781501 1_555
La5 O5 2.796301 1_555
La5 O0 2.815797 1_555
La6 O1 2.272722 1_555
La6 O14 2.607299 1_454
La6 O10 2.611853 1_455
La6 O13 2.618699 1_465
La6 O9 2.619453 1_455
La6 O6 2.764579 1_565
La6 O2 2.779755 1_564
La6 O7 2.792512 1_554
La6 O3 2.819271 1_555
La7 O0 2.272697 1_555
La7 O15 2.607264 1_455
La7 O11 2.611898 1_445
La7 O12 2.618715 1_455
La7 O8 2.619497 1_456
La7 O7 2.764594 1_555
La7 O3 2.779666 1_555
La7 O6 2.792467 1_555
La7 O2 2.819342 1_555
Fe0 O11 1.930458 1_555
Fe0 O13 1.931188 1_565
Fe0 O15 1.931443 1_565
Fe0 O9 1.931644 1_555
Fe0 O5 2.215129 1_555
Fe0 O6 2.220180 1_665
Fe1 O10 1.930468 1_555
Fe1 O12 1.931161 1_554
Fe1 O14 1.931356 1_554
Fe1 O8 1.931710 1_555
Fe1 O4 2.215141 1_555
Fe1 O7 2.220174 1_654
