# generated using pymatgen
data_V3O2F5
_symmetry_space_group_name_H-M   'P 1'
_cell_length_a   4.92194400
_cell_length_b   5.11329700
_cell_length_c   16.81532300
_cell_angle_alpha   90.00000000
_cell_angle_beta   90.00000000
_cell_angle_gamma   90.00000000
_symmetry_Int_Tables_number   1
_chemical_formula_structural   V3O2F5
_chemical_formula_sum   'V12 O8 F20'
_cell_volume   423.19731250
_cell_formula_units_Z   4
loop_
 _symmetry_equiv_pos_site_id
 _symmetry_equiv_pos_as_xyz
  1  'x, y, z'
loop_
 _atom_site_type_symbol
 _atom_site_label
 _atom_site_symmetry_multiplicity
 _atom_site_fract_x
 _atom_site_fract_y
 _atom_site_fract_z
 _atom_site_occupancy
  V  V0  1  0.44852700  0.05934800  0.75000000  1
  V  V1  1  0.04872300  0.12275000  0.59753900  1
  V  V2  1  0.04872300  0.12275000  0.90246100  1
  V  V3  1  0.54872300  0.37725000  0.09753900  1
  V  V4  1  0.54872300  0.37725000  0.40246100  1
  V  V5  1  0.94852700  0.44065200  0.25000000  1
  V  V6  1  0.05147300  0.55934800  0.75000000  1
  V  V7  1  0.45127700  0.62275000  0.90246100  1
  V  V8  1  0.45127700  0.62275000  0.59753900  1
  V  V9  1  0.95127700  0.87725000  0.09753900  1
  V  V10  1  0.95127700  0.87725000  0.40246100  1
  V  V11  1  0.55147300  0.94065200  0.25000000  1
  O  O0  1  0.78614100  0.16038100  0.17296800  1
  O  O1  1  0.78614100  0.16038100  0.32703200  1
  O  O2  1  0.28614100  0.33961900  0.82703200  1
  O  O3  1  0.28614100  0.33961900  0.67296800  1
  O  O4  1  0.71385900  0.66038100  0.32703200  1
  O  O5  1  0.71385900  0.66038100  0.17296800  1
  O  O6  1  0.21385900  0.83961900  0.67296800  1
  O  O7  1  0.21385900  0.83961900  0.82703200  1
  F  F0  1  0.31671200  0.05013800  0.11352300  1
  F  F1  1  0.31671200  0.05013800  0.38647700  1
  F  F2  1  0.82485300  0.17059700  0.02573600  1
  F  F3  1  0.82485300  0.17059700  0.47426400  1
  F  F4  1  0.82043000  0.22287200  0.75000000  1
  F  F5  1  0.32043000  0.27712800  0.25000000  1
  F  F6  1  0.32485300  0.32940300  0.52573600  1
  F  F7  1  0.32485300  0.32940300  0.97426400  1
  F  F8  1  0.81671200  0.44986200  0.61352300  1
  F  F9  1  0.81671200  0.44986200  0.88647700  1
  F  F10  1  0.18328800  0.55013800  0.38647700  1
  F  F11  1  0.18328800  0.55013800  0.11352300  1
  F  F12  1  0.67514700  0.67059700  0.02573600  1
  F  F13  1  0.67514700  0.67059700  0.47426400  1
  F  F14  1  0.67957000  0.72287200  0.75000000  1
  F  F15  1  0.17957000  0.77712800  0.25000000  1
  F  F16  1  0.17514700  0.82940300  0.97426400  1
  F  F17  1  0.17514700  0.82940300  0.52573600  1
  F  F18  1  0.68328800  0.94986200  0.88647700  1
  F  F19  1  0.68328800  0.94986200  0.61352300  1
loop_
_geom_bond_atom_site_label_1
_geom_bond_atom_site_label_2
_geom_bond_distance
_geom_bond_site_symmetry_2
O0 V3 2.050358 1_555
O0 V11 2.067430 1_545
O0 V9 2.089331 1_545
O0 V5 2.090564 1_555
O1 V4 2.050358 1_555
O1 V11 2.067430 1_545
O1 V10 2.089331 1_545
O1 V5 2.090564 1_555
O2 V2 2.050358 1_555
O2 V6 2.067430 1_555
O2 V7 2.089331 1_555
O2 V0 2.090564 1_555
O3 V1 2.050358 1_555
O3 V6 2.067430 1_555
O3 V8 2.089331 1_555
O3 V0 2.090564 1_555
O4 V10 2.050358 1_555
O4 V5 2.067430 1_555
O4 V4 2.089331 1_555
O4 V11 2.090564 1_555
O5 V9 2.050358 1_555
O5 V5 2.067430 1_555
O5 V3 2.089331 1_555
O5 V11 2.090564 1_555
O6 V8 2.050358 1_555
O6 V0 2.067430 1_565
O6 V1 2.089331 1_565
O6 V6 2.090564 1_555
O7 V7 2.050358 1_555
O7 V0 2.067430 1_565
O7 V2 2.089331 1_565
O7 V6 2.090564 1_555
F0 V9 2.022100 1_445
F0 V3 2.043022 1_555
F1 V10 2.022100 1_445
F1 V4 2.043022 1_555
F2 V9 2.023586 1_545
F2 V3 2.102737 1_555
F2 V2 2.360283 1_654
F3 V10 2.023586 1_545
F3 V4 2.102737 1_555
F3 V1 2.360283 1_655
F4 V0 2.012416 1_555
F4 V6 2.062355 1_655
F5 V5 2.012416 1_455
F5 V11 2.062355 1_545
F6 V8 2.023586 1_555
F6 V1 2.102737 1_555
F6 V4 2.360283 1_555
F7 V7 2.023586 1_555
F7 V2 2.102737 1_555
F7 V3 2.360283 1_556
F8 V8 2.022100 1_555
F8 V1 2.043022 1_655
F9 V7 2.022100 1_555
F9 V2 2.043022 1_655
F10 V4 2.022100 1_555
F10 V10 2.043022 1_455
F11 V3 2.022100 1_555
F11 V9 2.043022 1_455
F12 V3 2.023586 1_555
F12 V9 2.102737 1_555
F12 V7 2.360283 1_554
F13 V4 2.023586 1_555
F13 V10 2.102737 1_555
F13 V8 2.360283 1_555
F14 V6 2.012416 1_655
F14 V0 2.062355 1_565
F15 V11 2.012416 1_555
F15 V5 2.062355 1_455
F16 V2 2.023586 1_565
F16 V7 2.102737 1_555
F16 V9 2.360283 1_456
F17 V1 2.023586 1_565
F17 V8 2.102737 1_555
F17 V10 2.360283 1_455
F18 V2 2.022100 1_665
F18 V7 2.043022 1_555
F19 V1 2.022100 1_665
F19 V8 2.043022 1_555
