# generated using pymatgen
data_Li6VSb3(PO4)6
_symmetry_space_group_name_H-M   'P 1'
_cell_length_a   8.57729800
_cell_length_b   8.57954465
_cell_length_c   8.60954417
_cell_angle_alpha   65.24582569
_cell_angle_beta   65.40368787
_cell_angle_gamma   64.82455611
_symmetry_Int_Tables_number   1
_chemical_formula_structural   Li6VSb3(PO4)6
_chemical_formula_sum   'Li6 V1 Sb3 P6 O24'
_cell_volume   498.36940705
_cell_formula_units_Z   1
loop_
 _symmetry_equiv_pos_site_id
 _symmetry_equiv_pos_as_xyz
  1  'x, y, z'
loop_
 _atom_site_type_symbol
 _atom_site_label
 _atom_site_symmetry_multiplicity
 _atom_site_fract_x
 _atom_site_fract_y
 _atom_site_fract_z
 _atom_site_occupancy
  Li  Li0  1  0.97029200  0.01145100  0.01822400  1
  Li  Li1  1  0.15688100  0.35375300  0.74813800  1
  Li  Li2  1  0.50089700  0.52319900  0.48849700  1
  Li  Li3  1  0.88014600  0.64441900  0.22658300  1
  Li  Li4  1  0.21745500  0.88331900  0.66169300  1
  Li  Li5  1  0.64968500  0.21972100  0.86570500  1
  V  V0  1  0.85039300  0.84228200  0.84672900  1
  Sb  Sb0  1  0.16423400  0.14957800  0.15521100  1
  Sb  Sb1  1  0.36592300  0.34780800  0.34898700  1
  Sb  Sb2  1  0.65965300  0.65266300  0.65729500  1
  P  P0  1  0.74713300  0.42541400  0.06935900  1
  P  P1  1  0.06943200  0.75093100  0.42461200  1
  P  P2  1  0.43517200  0.05999400  0.74730300  1
  P  P3  1  0.58183100  0.92041500  0.25049300  1
  P  P4  1  0.93120200  0.25682500  0.59723300  1
  P  P5  1  0.24818700  0.56856100  0.90868300  1
  O  O0  1  0.29605100  0.50775000  0.07995200  1
  O  O1  1  0.56582400  0.07682200  0.30311000  1
  O  O2  1  0.91116500  0.25052500  0.08186800  1
  O  O3  1  0.05421200  0.32691500  0.61788300  1
  O  O4  1  0.60192700  0.41718700  0.25998600  1
  O  O5  1  0.80263900  0.59547200  0.01378800  1
  O  O6  1  0.08409400  0.92022700  0.25594900  1
  O  O7  1  0.25863400  0.60568100  0.42407100  1
  O  O8  1  0.42356400  0.25238500  0.60751400  1
  O  O9  1  0.41903700  0.93934000  0.20598700  1
  O  O10  1  0.75754200  0.90140400  0.08670300  1
  O  O11  1  0.99649500  0.21866900  0.41943300  1
  O  O12  1  0.99812000  0.80590900  0.59929600  1
  O  O13  1  0.25936900  0.08148700  0.90676600  1
  O  O14  1  0.60707300  0.99818900  0.80389500  1
  O  O15  1  0.61725600  0.73051900  0.39876600  1
  O  O16  1  0.73208000  0.39466400  0.61770300  1
  O  O17  1  0.91024900  0.08347500  0.76056300  1
  O  O18  1  0.19575800  0.42920200  0.89181200  1
  O  O19  1  0.40285000  0.61573300  0.72953400  1
  O  O20  1  0.94164900  0.68016600  0.40813200  1
  O  O21  1  0.08891100  0.75100800  0.90334900  1
  O  O22  1  0.42992600  0.93038800  0.67042300  1
  O  O23  1  0.66605700  0.42755000  0.93877400  1
loop_
_geom_bond_atom_site_label_1
_geom_bond_atom_site_label_2
_geom_bond_distance
_geom_bond_site_symmetry_2
Li0 O2 2.142318 1_555
Li0 O10 2.161724 1_545
Li0 O17 2.258415 1_554
Li0 O6 2.329369 1_645
Li0 O21 2.466803 1_644
Li0 O13 2.496763 1_654
Li1 O18 1.804958 1_555
Li1 O3 1.815760 1_555
Li1 O8 2.082878 1_555
Li1 O13 2.162218 1_555
Li2 O15 2.115292 1_555
Li2 O7 2.122750 1_555
Li2 O4 2.203979 1_555
Li2 O19 2.236727 1_555
Li2 O16 2.309549 1_555
Li2 O8 2.374871 1_555
Li3 O20 2.010221 1_555
Li3 O10 2.067706 1_555
Li3 O15 2.131918 1_555
Li3 O5 2.422910 1_555
Li3 O21 2.626957 1_654
Li4 O21 2.002578 1_555
Li4 O22 2.062898 1_555
Li4 O19 2.164408 1_555
Li4 O17 2.474671 1_465
Li4 O12 2.544030 1_455
Li5 O17 2.039637 1_555
Li5 O16 2.067304 1_555
Li5 O23 2.195631 1_555
Li5 O14 2.372590 1_545
O0 P5 1.514093 1_554
O0 Sb1 2.324088 1_555
O1 P3 1.524901 1_545
O1 Sb1 2.305423 1_555
O2 P0 1.561168 1_555
O2 Sb0 2.223535 1_655
O3 P4 1.513909 1_455
O4 P0 1.589325 1_555
O4 Sb1 2.095496 1_555
O5 P0 1.549543 1_555
O5 V0 2.101736 1_554
O6 P1 1.572009 1_555
O6 Sb0 2.078925 1_565
O7 P1 1.569900 1_555
O7 Sb1 2.264936 1_555
O8 P2 1.574554 1_555
O8 Sb1 2.216874 1_555
O9 P3 1.524248 1_555
O9 Sb0 2.236560 1_565
O10 P3 1.581414 1_555
O10 V0 2.079521 1_554
O11 P4 1.521223 1_555
O11 Sb0 2.296821 1_655
O12 P1 1.562475 1_655
O12 V0 2.052888 1_555
O13 P2 1.563577 1_555
O13 Sb0 2.184119 1_556
O14 P2 1.552111 1_565
O14 V0 2.033079 1_555
O15 P3 1.592572 1_555
O15 Sb2 2.180532 1_555
O16 P4 1.597556 1_555
O16 Sb2 2.165051 1_555
O17 P4 1.577098 1_555
O17 V0 2.096963 1_545
O18 P5 1.519913 1_555
O18 Sb0 2.540976 1_556
O19 P5 1.591647 1_555
O19 Sb2 2.151121 1_555
O20 P1 1.535501 1_655
O20 Sb2 2.500055 1_555
O21 P5 1.578403 1_555
O21 V0 2.045435 1_455
O22 P2 1.536336 1_565
O22 Sb2 2.370353 1_555
O23 P0 1.539699 1_556
O23 Sb2 2.388925 1_555
