# generated using pymatgen
data_Li4Cr3FeO8
_symmetry_space_group_name_H-M   'P 1'
_cell_length_a   5.10984103
_cell_length_b   5.17322673
_cell_length_c   5.94372702
_cell_angle_alpha   73.29924580
_cell_angle_beta   89.99669774
_cell_angle_gamma   80.59218807
_symmetry_Int_Tables_number   1
_chemical_formula_structural   Li4Cr3FeO8
_chemical_formula_sum   'Li4 Cr3 Fe1 O8'
_cell_volume   148.28395422
_cell_formula_units_Z   1
loop_
 _symmetry_equiv_pos_site_id
 _symmetry_equiv_pos_as_xyz
  1  'x, y, z'
loop_
 _atom_site_type_symbol
 _atom_site_label
 _atom_site_symmetry_multiplicity
 _atom_site_fract_x
 _atom_site_fract_y
 _atom_site_fract_z
 _atom_site_occupancy
  Li  Li0  1  0.00046500  0.00023000  0.99987000  1
  Li  Li1  1  0.49952600  0.99977800  0.25012700  1
  Li  Li2  1  0.99921000  0.00008000  0.50006100  1
  Li  Li3  1  0.50079100  0.99991500  0.74993900  1
  Cr  Cr0  1  0.75001600  0.49999400  0.12500500  1
  Cr  Cr1  1  0.24983500  0.50003900  0.37444900  1
  Cr  Cr2  1  0.25014700  0.49997800  0.87554400  1
  Fe  Fe0  1  0.75000800  0.49999200  0.62500400  1
  O  O0  1  0.12136000  0.27443000  0.18135700  1
  O  O1  1  0.37863900  0.72557400  0.06864000  1
  O  O2  1  0.62084900  0.27201100  0.43051400  1
  O  O3  1  0.87915100  0.72798500  0.81949000  1
  O  O4  1  0.87921300  0.72755900  0.31663200  1
  O  O5  1  0.62078800  0.27243700  0.93337200  1
  O  O6  1  0.12480200  0.27313500  0.68179200  1
  O  O7  1  0.37520200  0.72686200  0.56820800  1
loop_
_geom_bond_atom_site_label_1
_geom_bond_atom_site_label_2
_geom_bond_distance
_geom_bond_site_symmetry_2
Li0 O3 2.161163 1_445
Li0 O4 2.162766 1_446
Li0 O1 2.165362 1_546
Li0 O5 2.165688 1_455
Li0 O0 2.173332 1_556
Li0 O6 2.174887 1_555
Li1 O2 2.161157 1_565
Li1 O5 2.162730 1_564
Li1 O0 2.165320 1_565
Li1 O4 2.165756 1_555
Li1 O1 2.173333 1_555
Li1 O7 2.174898 1_555
Li2 O7 2.153214 1_645
Li2 O2 2.159737 1_555
Li2 O3 2.169926 1_545
Li2 O4 2.172163 1_545
Li2 O0 2.176353 1_655
Li2 O6 2.178843 1_655
Li3 O6 2.153207 1_565
Li3 O3 2.159731 1_555
Li3 O2 2.169909 1_565
Li3 O5 2.172184 1_565
Li3 O1 2.176324 1_556
Li3 O7 2.178828 1_555
Cr0 O0 2.031241 1_655
Cr0 O1 2.031414 1_555
Cr0 O4 2.035640 1_555
Cr0 O5 2.035699 1_554
Cr0 O3 2.036498 1_554
Cr0 O2 2.036526 1_555
Cr1 O4 2.031966 1_455
Cr1 O1 2.032324 1_555
Cr1 O0 2.032434 1_555
Cr1 O6 2.033650 1_555
Cr1 O7 2.033734 1_555
Cr1 O2 2.034640 1_555
Cr2 O5 2.032088 1_555
Cr2 O0 2.032330 1_556
Cr2 O1 2.032434 1_556
Cr2 O7 2.033628 1_555
Cr2 O6 2.033739 1_555
Cr2 O3 2.034522 1_455
Fe0 O5 2.048174 1_555
Fe0 O4 2.048183 1_555
Fe0 O6 2.048561 1_655
Fe0 O7 2.048638 1_555
Fe0 O3 2.049640 1_555
Fe0 O2 2.049642 1_555
