# generated using pymatgen
data_Li3Mn2Fe(BO3)3
_symmetry_space_group_name_H-M   'P 1'
_cell_length_a   3.10663390
_cell_length_b   8.11164419
_cell_length_c   14.09882167
_cell_angle_alpha   89.95596901
_cell_angle_beta   90.00000000
_cell_angle_gamma   90.00000000
_symmetry_Int_Tables_number   1
_chemical_formula_structural   Li3Mn2Fe(BO3)3
_chemical_formula_sum   'Li6 Mn4 Fe2 B6 O18'
_cell_volume   355.28891549
_cell_formula_units_Z   2
loop_
 _symmetry_equiv_pos_site_id
 _symmetry_equiv_pos_as_xyz
  1  'x, y, z'
loop_
 _atom_site_type_symbol
 _atom_site_label
 _atom_site_symmetry_multiplicity
 _atom_site_fract_x
 _atom_site_fract_y
 _atom_site_fract_z
 _atom_site_occupancy
  Li  Li0  1  0.50000000  0.70763207  0.99245396  1
  Li  Li1  1  0.50000000  0.65934229  0.35708570  1
  Li  Li2  1  0.50000000  0.63489599  0.65067002  1
  Li  Li3  1  0.50000000  0.20471251  0.49225102  1
  Li  Li4  1  0.50000000  0.15724003  0.85690392  1
  Li  Li5  1  0.50000000  0.13451628  0.15043499  1
  Mn  Mn0  1  -0.00000000  0.86371412  0.50577186  1
  Mn  Mn1  1  0.00000000  0.36882097  0.00615725  1
  Mn  Mn2  1  -0.00000000  0.32610984  0.31509022  1
  Mn  Mn3  1  0.00000000  0.30884401  0.67999196  1
  Fe  Fe0  1  0.00000000  0.82166978  0.81710277  1
  Fe  Fe1  1  -0.00000000  0.81512575  0.17991282  1
  B  B0  1  0.50000000  0.99705846  0.66810262  1
  B  B1  1  -0.00000000  0.99974347  0.99869724  1
  B  B2  1  0.50000000  0.99826305  0.33149209  1
  B  B3  1  0.50000000  0.50349265  0.16736731  1
  B  B4  1  -0.00000000  0.49889801  0.50004140  1
  B  B5  1  0.50000000  0.50315926  0.83350520  1
  O  O0  1  0.50000000  0.98838442  0.42910599  1
  O  O1  1  0.50000000  0.98011423  0.76546772  1
  O  O2  1  0.50000000  0.85904873  0.61051051  1
  O  O3  1  0.50000000  0.85592724  0.27742607  1
  O  O4  1  -0.00000000  0.84477814  0.95732463  1
  O  O5  1  0.50000000  0.65812229  0.12643954  1
  O  O6  1  0.50000000  0.65494814  0.78884770  1
  O  O7  1  -0.00000000  0.63556044  0.44122833  1
  O  O8  1  0.00000000  0.51904820  0.59757364  1
  O  O9  1  0.50000000  0.49425714  0.93112770  1
  O  O10  1  0.50000000  0.48677190  0.26493831  1
  O  O11  1  0.50000000  0.36302212  0.11110243  1
  O  O12  1  0.50000000  0.36039835  0.78060121  1
  O  O13  1  -0.00000000  0.34199111  0.46130490  1
  O  O14  1  0.50000000  0.15197925  0.62654552  1
  O  O15  1  0.50000000  0.15007867  0.28769056  1
  O  O16  1  -0.00000000  0.13902035  0.94288166  1
  O  O17  1  -0.00000000  0.01331375  0.09685224  1
loop_
_geom_bond_atom_site_label_1
_geom_bond_atom_site_label_2
_geom_bond_distance
_geom_bond_site_symmetry_2
Li0 O5 1.930955 1_556
Li0 O9 1.935362 1_555
Li0 O4 1.973541 1_655
Li0 O4 1.973541 1_555
Li1 O10 1.910539 1_555
Li1 O3 1.949731 1_555
Li1 O7 1.963923 1_555
Li1 O7 1.963923 1_655
Li2 O2 1.903950 1_555
Li2 O6 1.955046 1_555
Li2 O8 1.964011 1_555
Li2 O8 1.964011 1_655
Li3 O14 1.940791 1_555
Li3 O13 1.960207 1_655
Li3 O13 1.960207 1_555
Li3 O0 1.968305 1_545
Li4 O1 1.931082 1_545
Li4 O12 1.967310 1_555
Li4 O16 1.975792 1_655
Li4 O16 1.975792 1_555
Li5 O11 1.934326 1_555
Li5 O15 1.939352 1_555
Li5 O17 1.987771 1_555
Li5 O17 1.987771 1_655
Mn0 O7 2.062950 1_555
Mn0 O2 2.143539 1_455
Mn0 O2 2.143539 1_555
Mn0 O0 2.145261 1_555
Mn0 O0 2.145261 1_455
Mn1 O16 2.067158 1_554
Mn1 O9 2.136687 1_454
Mn1 O9 2.136687 1_554
Mn1 O11 2.145723 1_555
Mn1 O11 2.145723 1_455
Mn2 O13 2.065575 1_555
Mn2 O15 2.145175 1_455
Mn2 O15 2.145175 1_555
Mn2 O10 2.147035 1_555
Mn2 O10 2.147035 1_455
Mn3 O8 2.062662 1_555
Mn3 O12 2.144913 1_555
Mn3 O12 2.144913 1_455
Mn3 O14 2.145031 1_555
Mn3 O14 2.145031 1_455
Fe0 O4 1.985973 1_555
Fe0 O6 2.097919 1_455
Fe0 O6 2.097919 1_555
Fe0 O1 2.143172 1_455
Fe0 O1 2.143172 1_555
Fe1 O17 1.988204 1_565
Fe1 O3 2.100754 1_455
Fe1 O3 2.100754 1_555
Fe1 O5 2.145832 1_555
Fe1 O5 2.145832 1_455
B0 O1 1.379492 1_555
B0 O2 1.383459 1_555
B0 O14 1.386129 1_565
B1 O16 1.376323 1_565
B1 O4 1.386175 1_555
B1 O17 1.388325 1_566
B2 O15 1.377217 1_565
B2 O0 1.378510 1_555
B2 O3 1.383999 1_555
B3 O5 1.380263 1_555
B3 O10 1.382203 1_555
B3 O11 1.388886 1_555
B4 O7 1.383853 1_555
B4 O8 1.384895 1_555
B4 O13 1.385383 1_555
B5 O12 1.377931 1_555
B5 O9 1.378200 1_555
B5 O6 1.382470 1_555
