# generated using pymatgen
data_Mn2VNi3(PO4)6
_symmetry_space_group_name_H-M   'P 1'
_cell_length_a   8.55840822
_cell_length_b   8.55840822
_cell_length_c   8.55840780
_cell_angle_alpha   60.67423087
_cell_angle_beta   60.67423087
_cell_angle_gamma   60.67422868
_symmetry_Int_Tables_number   1
_chemical_formula_structural   Mn2VNi3(PO4)6
_chemical_formula_sum   'Mn2 V1 Ni3 P6 O24'
_cell_volume   450.01208478
_cell_formula_units_Z   1
loop_
 _symmetry_equiv_pos_site_id
 _symmetry_equiv_pos_as_xyz
  1  'x, y, z'
loop_
 _atom_site_type_symbol
 _atom_site_label
 _atom_site_symmetry_multiplicity
 _atom_site_fract_x
 _atom_site_fract_y
 _atom_site_fract_z
 _atom_site_occupancy
  Mn  Mn0  1  0.99750100  0.99750100  0.99750100  1
  Mn  Mn1  1  0.49894300  0.49894300  0.49894300  1
  V  V0  1  0.14470800  0.14470800  0.14470800  1
  Ni  Ni0  1  0.64223500  0.64223500  0.64223500  1
  Ni  Ni1  1  0.85607200  0.85607200  0.85607200  1
  Ni  Ni2  1  0.35705100  0.35705100  0.35705100  1
  P  P0  1  0.95591700  0.25145500  0.54359300  1
  P  P1  1  0.54359300  0.95591700  0.25145500  1
  P  P2  1  0.25145500  0.54359300  0.95591700  1
  P  P3  1  0.75058100  0.45687900  0.04451700  1
  P  P4  1  0.45687900  0.04451700  0.75058100  1
  P  P5  1  0.04451700  0.75058100  0.45687900  1
  O  O0  1  0.50658400  0.10729500  0.31957500  1
  O  O1  1  0.31957500  0.50658400  0.10729500  1
  O  O2  1  0.10729500  0.31957500  0.50658400  1
  O  O3  1  0.94254500  0.08896900  0.73535900  1
  O  O4  1  0.01415500  0.17998700  0.37596500  1
  O  O5  1  0.76141700  0.40755000  0.54342500  1
  O  O6  1  0.73535900  0.94254500  0.08896800  1
  O  O7  1  0.54342500  0.76141700  0.40755000  1
  O  O8  1  0.81194300  0.61112100  0.01345500  1
  O  O9  1  0.40755000  0.54342500  0.76141700  1
  O  O10  1  0.91657300  0.25586000  0.06944500  1
  O  O11  1  0.61112100  0.01345500  0.81194300  1
  O  O12  1  0.37596500  0.01415500  0.17998700  1
  O  O13  1  0.08896900  0.73535900  0.94254500  1
  O  O14  1  0.59244700  0.43702900  0.24367300  1
  O  O15  1  0.17998700  0.37596500  0.01415500  1
  O  O16  1  0.43702900  0.24367300  0.59244700  1
  O  O17  1  0.25586000  0.06944500  0.91657300  1
  O  O18  1  0.24367300  0.59244700  0.43702900  1
  O  O19  1  0.01345500  0.81194300  0.61112100  1
  O  O20  1  0.06944500  0.91657300  0.25586000  1
  O  O21  1  0.88923300  0.69557800  0.48137600  1
  O  O22  1  0.69557800  0.48137600  0.88923300  1
  O  O23  1  0.48137600  0.88923300  0.69557800  1
loop_
_geom_bond_atom_site_label_1
_geom_bond_atom_site_label_2
_geom_bond_distance
_geom_bond_site_symmetry_2
Mn0 O3 2.195452 1_565
Mn0 O13 2.195452 1_655
Mn0 O6 2.195455 1_556
Mn0 O20 2.272379 1_656
Mn0 O10 2.272379 1_566
Mn0 O17 2.272379 1_665
Mn1 O9 2.151220 1_555
Mn1 O5 2.151220 1_555
Mn1 O7 2.151221 1_555
Mn1 O14 2.167986 1_555
Mn1 O18 2.167986 1_555
Mn1 O16 2.167986 1_555
Ni0 O22 2.012787 1_555
Ni0 O23 2.012787 1_555
Ni0 O21 2.012787 1_555
Ni0 O7 2.145176 1_555
Ni0 O5 2.145176 1_555
Ni0 O9 2.145176 1_555
Ni1 O19 1.965460 1_655
Ni1 O11 1.965460 1_565
Ni1 O8 1.965461 1_556
Ni1 O6 2.065638 1_556
Ni1 O13 2.065645 1_655
Ni1 O3 2.065645 1_565
Ni2 O1 1.974727 1_555
Ni2 O0 1.974727 1_555
Ni2 O2 1.974727 1_555
Ni2 O16 2.062533 1_555
Ni2 O18 2.062533 1_555
Ni2 O14 2.062534 1_555
O0 P1 1.508540 1_545
O1 P2 1.508540 1_554
O2 P0 1.508540 1_455
O3 P0 1.541681 1_555
O4 P0 1.594113 1_455
O4 V0 1.829072 1_555
O5 P0 1.542002 1_555
O6 P1 1.541684 1_555
O7 P1 1.542002 1_555
O8 P3 1.512483 1_555
O9 P2 1.542002 1_555
O10 P3 1.602113 1_555
O10 V0 1.986034 1_655
O11 P4 1.512483 1_555
O12 P1 1.594113 1_545
O12 V0 1.829072 1_555
O13 P2 1.541681 1_555
O14 P3 1.564495 1_555
O15 P2 1.594113 1_554
O15 V0 1.829072 1_555
O16 P4 1.564495 1_555
O17 P4 1.602113 1_555
O17 V0 1.986034 1_556
O18 P5 1.564495 1_555
O19 P5 1.512483 1_555
O20 P5 1.602113 1_555
O20 V0 1.986034 1_565
O21 P5 1.508295 1_655
O22 P3 1.508294 1_556
O23 P4 1.508294 1_565
