# generated using pymatgen
data_Li2V3CuO8
_symmetry_space_group_name_H-M   'P 1'
_cell_length_a   8.35747100
_cell_length_b   8.39637900
_cell_length_c   8.50330900
_cell_angle_alpha   90.00000000
_cell_angle_beta   90.00000000
_cell_angle_gamma   90.00000000
_symmetry_Int_Tables_number   1
_chemical_formula_structural   Li2V3CuO8
_chemical_formula_sum   'Li8 V12 Cu4 O32'
_cell_volume   596.69839976
_cell_formula_units_Z   4
loop_
 _symmetry_equiv_pos_site_id
 _symmetry_equiv_pos_as_xyz
  1  'x, y, z'
loop_
 _atom_site_type_symbol
 _atom_site_label
 _atom_site_symmetry_multiplicity
 _atom_site_fract_x
 _atom_site_fract_y
 _atom_site_fract_z
 _atom_site_occupancy
  Li  Li0  1  0.37943700  0.87323000  0.12523000  1
  Li  Li1  1  0.25341700  0.24773500  0.24662400  1
  Li  Li2  1  0.74658300  0.74773500  0.25337600  1
  Li  Li3  1  0.62056300  0.37323000  0.37477000  1
  Li  Li4  1  0.12056300  0.12677000  0.62523000  1
  Li  Li5  1  0.24658300  0.75226500  0.74662400  1
  Li  Li6  1  0.75341700  0.25226500  0.75337600  1
  Li  Li7  1  0.87943700  0.62677000  0.87477000  1
  V  V0  1  0.13152900  0.62304400  0.13209300  1
  V  V1  1  0.86721700  0.38480300  0.12378700  1
  V  V2  1  0.62512000  0.11504100  0.11684000  1
  V  V3  1  0.37488000  0.61504100  0.38316000  1
  V  V4  1  0.13278300  0.88480300  0.37621300  1
  V  V5  1  0.86847100  0.12304400  0.36790700  1
  V  V6  1  0.36847100  0.37695600  0.63209300  1
  V  V7  1  0.63278300  0.61519700  0.62378700  1
  V  V8  1  0.87488000  0.88495900  0.61684000  1
  V  V9  1  0.12512000  0.38495900  0.88316000  1
  V  V10  1  0.36721700  0.11519700  0.87621300  1
  V  V11  1  0.63152900  0.87695600  0.86790700  1
  Cu  Cu0  1  0.00729900  0.99358200  0.99783100  1
  Cu  Cu1  1  0.99270100  0.49358200  0.50216900  1
  Cu  Cu2  1  0.49270100  0.00641800  0.49783100  1
  Cu  Cu3  1  0.50729900  0.50641800  0.00216900  1
  O  O0  1  0.63087400  0.89572300  0.10172900  1
  O  O1  1  0.39520600  0.13164200  0.09776300  1
  O  O2  1  0.11162700  0.38269700  0.11601600  1
  O  O3  1  0.89407000  0.60107400  0.12893000  1
  O  O4  1  0.64962200  0.36047200  0.11946000  1
  O  O5  1  0.86846800  0.13901400  0.13340000  1
  O  O6  1  0.12004300  0.85516700  0.15237300  1
  O  O7  1  0.35596300  0.62194100  0.14815700  1
  O  O8  1  0.64403700  0.12194100  0.35184300  1
  O  O9  1  0.87995700  0.35516700  0.34762700  1
  O  O10  1  0.13153200  0.63901400  0.36660000  1
  O  O11  1  0.35037800  0.86047200  0.38054000  1
  O  O12  1  0.10593000  0.10107400  0.37107000  1
  O  O13  1  0.88837300  0.88269700  0.38398400  1
  O  O14  1  0.60479400  0.63164200  0.40223700  1
  O  O15  1  0.36912600  0.39572300  0.39827100  1
  O  O16  1  0.86912600  0.10427700  0.60172900  1
  O  O17  1  0.10479400  0.86835800  0.59776300  1
  O  O18  1  0.38837300  0.61730300  0.61601600  1
  O  O19  1  0.60593000  0.39892600  0.62893000  1
  O  O20  1  0.85037800  0.63952800  0.61946000  1
  O  O21  1  0.63153200  0.86098600  0.63340000  1
  O  O22  1  0.37995700  0.14483300  0.65237300  1
  O  O23  1  0.14403700  0.37805900  0.64815700  1
  O  O24  1  0.85596300  0.87805900  0.85184300  1
  O  O25  1  0.62004300  0.64483300  0.84762700  1
  O  O26  1  0.36846800  0.36098600  0.86660000  1
  O  O27  1  0.14962200  0.13952800  0.88054000  1
  O  O28  1  0.39407000  0.89892600  0.87107000  1
  O  O29  1  0.61162700  0.11730300  0.88398400  1
  O  O30  1  0.89520600  0.36835800  0.90223700  1
  O  O31  1  0.13087400  0.60427700  0.89827100  1
loop_
_geom_bond_atom_site_label_1
_geom_bond_atom_site_label_2
_geom_bond_distance
_geom_bond_site_symmetry_2
Li0 O0 2.119290 1_555
Li0 O7 2.127968 1_555
Li0 O28 2.175384 1_554
Li0 O6 2.185399 1_555
Li0 O1 2.186236 1_565
Li0 O11 2.187146 1_555
Li1 O2 1.980352 1_555
Li1 O1 1.989134 1_555
Li1 O15 2.035174 1_555
Li1 O12 2.038514 1_555
Li2 O13 1.980352 1_555
Li2 O14 1.989134 1_555
Li2 O0 2.035174 1_555
Li2 O3 2.038514 1_555
Li3 O15 2.119290 1_555
Li3 O8 2.127968 1_555
Li3 O19 2.175384 1_555
Li3 O9 2.185399 1_555
Li3 O14 2.186236 1_555
Li3 O4 2.187146 1_555
Li4 O16 2.119290 1_455
Li4 O23 2.127968 1_555
Li4 O12 2.175384 1_555
Li4 O22 2.185399 1_555
Li4 O17 2.186236 1_545
Li4 O27 2.187146 1_555
Li5 O18 1.980352 1_555
Li5 O17 1.989134 1_555
Li5 O31 2.035174 1_555
Li5 O28 2.038514 1_555
Li6 O29 1.980352 1_555
Li6 O30 1.989134 1_555
Li6 O16 2.035174 1_555
Li6 O19 2.038514 1_555
Li7 O31 2.119290 1_655
Li7 O24 2.127968 1_555
Li7 O3 2.175384 1_556
Li7 O25 2.185399 1_555
Li7 O30 2.186236 1_555
Li7 O20 2.187146 1_555
Cu0 O27 1.977674 1_565
Cu0 O6 1.991337 1_556
Cu0 O24 2.020288 1_455
Cu0 O5 2.041138 1_466
Cu1 O20 1.977674 1_555
Cu1 O9 1.991337 1_555
Cu1 O23 2.020288 1_655
Cu1 O10 2.041138 1_655
Cu2 O11 1.977674 1_545
Cu2 O22 1.991337 1_555
Cu2 O8 2.020288 1_555
Cu2 O21 2.041138 1_545
Cu3 O4 1.977674 1_555
Cu3 O25 1.991337 1_554
Cu3 O7 2.020288 1_555
Cu3 O26 2.041138 1_554
O0 V2 1.846581 1_565
O0 V11 1.994503 1_554
O1 V10 1.903390 1_554
O1 V2 1.933366 1_555
O2 V9 1.983346 1_554
O2 V0 2.029497 1_555
O2 V1 2.043795 1_455
O3 V1 1.830231 1_555
O3 V0 1.993293 1_655
O4 V1 1.830353 1_555
O4 V2 2.071001 1_555
O5 V5 1.998589 1_555
O5 V2 2.048556 1_555
O5 V1 2.065382 1_555
O6 V4 1.922528 1_555
O6 V0 1.958960 1_555
O7 V0 1.880691 1_555
O7 V3 2.005384 1_555
O8 V5 1.880691 1_555
O8 V2 2.005384 1_555
O9 V1 1.922528 1_555
O9 V5 1.958960 1_555
O10 V0 1.998589 1_555
O10 V3 2.048556 1_555
O10 V4 2.065382 1_555
O11 V4 1.830353 1_555
O11 V3 2.071001 1_555
O12 V4 1.830231 1_545
O12 V5 1.993293 1_455
O13 V8 1.983346 1_555
O13 V5 2.029497 1_565
O13 V4 2.043795 1_655
O14 V7 1.903390 1_555
O14 V3 1.933366 1_555
O15 V3 1.846581 1_555
O15 V6 1.994503 1_555
O16 V8 1.846581 1_545
O16 V5 1.994503 1_555
O17 V4 1.903390 1_555
O17 V8 1.933366 1_455
O18 V3 1.983346 1_555
O18 V6 2.029497 1_555
O18 V7 2.043795 1_555
O19 V7 1.830231 1_555
O19 V6 1.993293 1_555
O20 V7 1.830353 1_555
O20 V8 2.071001 1_555
O21 V11 1.998589 1_555
O21 V8 2.048556 1_555
O21 V7 2.065382 1_555
O22 V10 1.922528 1_555
O22 V6 1.958960 1_555
O23 V6 1.880691 1_555
O23 V9 2.005384 1_555
O24 V11 1.880691 1_555
O24 V8 2.005384 1_555
O25 V7 1.922528 1_555
O25 V11 1.958960 1_555
O26 V6 1.998589 1_555
O26 V9 2.048556 1_555
O26 V10 2.065382 1_555
O27 V10 1.830353 1_555
O27 V9 2.071001 1_555
O28 V10 1.830231 1_565
O28 V11 1.993293 1_555
O29 V2 1.983346 1_556
O29 V11 2.029497 1_545
O29 V10 2.043795 1_555
O30 V1 1.903390 1_556
O30 V9 1.933366 1_655
O31 V9 1.846581 1_555
O31 V0 1.994503 1_556
