# generated using pymatgen
data_Li2MnVP2(HO5)2
_symmetry_space_group_name_H-M   'P 1'
_cell_length_a   5.17723100
_cell_length_b   7.41347564
_cell_length_c   10.29773511
_cell_angle_alpha   102.38970136
_cell_angle_beta   97.61891547
_cell_angle_gamma   105.28857093
_symmetry_Int_Tables_number   1
_chemical_formula_structural   Li2MnVP2(HO5)2
_chemical_formula_sum   'Li4 Mn2 V2 P4 H4 O20'
_cell_volume   364.79115080
_cell_formula_units_Z   2
loop_
 _symmetry_equiv_pos_site_id
 _symmetry_equiv_pos_as_xyz
  1  'x, y, z'
loop_
 _atom_site_type_symbol
 _atom_site_label
 _atom_site_symmetry_multiplicity
 _atom_site_fract_x
 _atom_site_fract_y
 _atom_site_fract_z
 _atom_site_occupancy
  Li  Li0  1  0.36072200  0.10506800  0.28879200  1
  Li  Li1  1  0.13063000  0.38763700  0.21527900  1
  Li  Li2  1  0.86878300  0.61677900  0.78091000  1
  Li  Li3  1  0.64301300  0.89405500  0.71545100  1
  Mn  Mn0  1  0.74986500  0.74840200  0.25103300  1
  Mn  Mn1  1  0.50437200  0.50226800  0.50139500  1
  V  V0  1  0.99363400  0.99715400  0.99987500  1
  V  V1  1  0.25064300  0.25084300  0.74778900  1
  P  P0  1  0.61262600  0.29460500  0.06253700  1
  P  P1  1  0.87754800  0.20017000  0.43427300  1
  P  P2  1  0.13326200  0.80154100  0.56804300  1
  P  P3  1  0.37376600  0.70261300  0.93424900  1
  H  H0  1  0.15448200  0.79235800  0.13812300  1
  H  H1  1  0.34735200  0.70386700  0.36559200  1
  H  H2  1  0.66251100  0.30232000  0.63603300  1
  H  H3  1  0.83914900  0.20129900  0.86097400  1
  O  O0  1  0.78626700  0.15999400  0.08917800  1
  O  O1  1  0.33757300  0.22545000  0.10968200  1
  O  O2  1  0.41146600  0.70359700  0.08452700  1
  O  O3  1  0.79494900  0.49535600  0.15497600  1
  O  O4  1  0.03889400  0.87957200  0.16199100  1
  O  O5  1  0.14360900  0.26295400  0.38192300  1
  O  O6  1  0.70140900  0.33707700  0.41022300  1
  O  O7  1  0.45860500  0.61352300  0.34038400  1
  O  O8  1  0.31870200  0.00472100  0.65765400  1
  O  O9  1  0.08911200  0.79469500  0.41636700  1
  O  O10  1  0.93287900  0.20771300  0.58709700  1
  O  O11  1  0.68977100  0.99807800  0.34549500  1
  O  O12  1  0.55451000  0.39298300  0.66024200  1
  O  O13  1  0.30544900  0.66329000  0.59628100  1
  O  O14  1  0.86287400  0.74200600  0.61803300  1
  O  O15  1  0.95443000  0.11578600  0.83984100  1
  O  O16  1  0.19724500  0.50135500  0.83977100  1
  O  O17  1  0.56510900  0.29186300  0.91071300  1
  O  O18  1  0.65354900  0.77148700  0.89005500  1
  O  O19  1  0.20123700  0.83752100  0.90522000  1
loop_
_geom_bond_atom_site_label_1
_geom_bond_atom_site_label_2
_geom_bond_distance
_geom_bond_site_symmetry_2
Li0 O5 2.012771 1_555
Li0 O4 2.072021 1_545
Li0 O11 2.125969 1_545
Li0 O6 2.127300 1_555
Li0 O1 2.217405 1_555
Li1 O1 2.050184 1_555
Li1 O7 2.083707 1_555
Li1 O5 2.118162 1_555
Li1 O0 2.138190 1_455
Li1 O3 2.168444 1_455
Li2 O12 2.024759 1_555
Li2 O18 2.067199 1_555
Li2 O19 2.076201 1_655
Li2 O14 2.084605 1_555
Li2 O16 2.169797 1_655
Li3 O14 2.016639 1_555
Li3 O15 2.023235 1_565
Li3 O13 2.107287 1_555
Li3 O8 2.125435 1_565
Li3 O18 2.182372 1_555
Mn0 O4 2.001145 1_655
Mn0 O3 2.011958 1_555
Mn0 O11 2.020003 1_555
Mn0 O7 2.021839 1_555
Mn0 O9 2.177100 1_655
Mn0 O2 2.184457 1_555
Mn1 O6 1.959901 1_555
Mn1 O13 1.963420 1_555
Mn1 O12 1.991610 1_555
Mn1 O7 2.017737 1_555
Mn1 O14 2.190781 1_555
Mn1 O5 2.203690 1_555
H0 O4 1.005692 1_555
H0 O2 1.734450 1_555
H1 O7 1.008069 1_555
H1 O9 1.738769 1_555
H2 O12 0.994887 1_555
H3 O15 0.990069 1_555
O0 P0 1.550644 1_555
O0 V0 1.981042 1_544
O1 P0 1.559318 1_555
O1 V0 2.090295 1_444
O2 P3 1.532086 1_554
O3 P0 1.557249 1_555
O4 V0 2.056744 1_454
O5 P1 1.539844 1_455
O6 P1 1.568163 1_555
O8 P2 1.564642 1_545
O8 V1 2.003483 1_555
O9 P2 1.536102 1_555
O10 P1 1.547932 1_555
O10 V1 2.078614 1_655
O11 P1 1.560120 1_565
O12 V1 2.075475 1_555
O13 P2 1.571844 1_555
O14 P2 1.543428 1_655
O15 V0 2.039100 1_545
O15 V1 2.058124 1_655
O16 P3 1.558883 1_555
O16 V1 2.002001 1_555
O17 P0 1.545000 1_556
O17 V1 2.086522 1_555
O18 P3 1.565394 1_555
O18 V0 2.069920 1_555
O19 P3 1.554378 1_555
O19 V0 1.989829 1_455
