# generated using pymatgen
data_Co4OF11
_symmetry_space_group_name_H-M   'P 1'
_cell_length_a   5.07630600
_cell_length_b   5.29070028
_cell_length_c   7.37696707
_cell_angle_alpha   93.94460497
_cell_angle_beta   90.31527347
_cell_angle_gamma   91.14979386
_symmetry_Int_Tables_number   1
_chemical_formula_structural   Co4OF11
_chemical_formula_sum   'Co4 O1 F11'
_cell_volume   197.61092470
_cell_formula_units_Z   1
loop_
 _symmetry_equiv_pos_site_id
 _symmetry_equiv_pos_as_xyz
  1  'x, y, z'
loop_
 _atom_site_type_symbol
 _atom_site_label
 _atom_site_symmetry_multiplicity
 _atom_site_fract_x
 _atom_site_fract_y
 _atom_site_fract_z
 _atom_site_occupancy
  Co  Co0  1  0.51110400  0.50340800  0.99801300  1
  Co  Co1  1  0.99435700  0.98454800  0.99511100  1
  Co  Co2  1  0.50033600  0.49931100  0.49856200  1
  Co  Co3  1  0.99988900  0.99980000  0.49835200  1
  O  O0  1  0.78123600  0.70274700  0.95798700  1
  F  F0  1  0.69305400  0.19344800  0.94114200  1
  F  F1  1  0.11421800  0.99593900  0.74752300  1
  F  F2  1  0.68567900  0.80441600  0.55919200  1
  F  F3  1  0.38512000  0.50018400  0.75138900  1
  F  F4  1  0.81146600  0.30587200  0.55724000  1
  F  F5  1  0.18904800  0.69374600  0.44300500  1
  F  F6  1  0.62014900  0.50085600  0.24857000  1
  F  F7  1  0.31655200  0.19426200  0.44303000  1
  F  F8  1  0.88819000  0.00639100  0.25297800  1
  F  F9  1  0.30520100  0.80524700  0.05735500  1
  F  F10  1  0.20440200  0.30982500  0.05055000  1
loop_
_geom_bond_atom_site_label_1
_geom_bond_atom_site_label_2
_geom_bond_distance
_geom_bond_site_symmetry_2
Co0 O0 1.751886 1_555
Co0 F10 1.902737 1_556
Co0 F0 1.920623 1_555
Co0 F3 1.923998 1_555
Co0 F6 1.927555 1_556
Co0 F9 1.951972 1_556
Co1 O0 1.828694 1_555
Co1 F9 1.926825 1_656
Co1 F1 1.932786 1_655
Co1 F0 1.959873 1_565
Co1 F8 1.976360 1_566
Co1 F10 2.022504 1_666
Co2 F7 1.867445 1_555
Co2 F2 1.877777 1_555
Co2 F6 1.945562 1_555
Co2 F3 1.957450 1_555
Co2 F5 1.959417 1_555
Co2 F4 1.961517 1_555
Co3 F8 1.896689 1_565
Co3 F5 1.920009 1_655
Co3 F4 1.922444 1_565
Co3 F1 1.926098 1_655
Co3 F7 1.951324 1_665
Co3 F2 1.954394 1_555
