# generated using pymatgen
data_Li2Sn(BO3)2
_symmetry_space_group_name_H-M   'P 1'
_cell_length_a   6.50745100
_cell_length_b   8.15451900
_cell_length_c   9.94281800
_cell_angle_alpha   64.18143446
_cell_angle_beta   90.00000000
_cell_angle_gamma   90.00000000
_symmetry_Int_Tables_number   1
_chemical_formula_structural   Li2Sn(BO3)2
_chemical_formula_sum   'Li8 Sn4 B8 O24'
_cell_volume   474.94901748
_cell_formula_units_Z   4
loop_
 _symmetry_equiv_pos_site_id
 _symmetry_equiv_pos_as_xyz
  1  'x, y, z'
loop_
 _atom_site_type_symbol
 _atom_site_label
 _atom_site_symmetry_multiplicity
 _atom_site_fract_x
 _atom_site_fract_y
 _atom_site_fract_z
 _atom_site_occupancy
  Li  Li0  1  0.99335300  0.59356900  0.50667200  1
  Li  Li1  1  0.49789700  0.42956900  0.98345400  1
  Li  Li2  1  0.47652700  0.80558300  0.45345600  1
  Li  Li3  1  0.52347300  0.80558300  0.95345600  1
  Li  Li4  1  0.16951000  0.27001800  0.14551000  1
  Li  Li5  1  0.00664700  0.59356900  0.00667200  1
  Li  Li6  1  0.83049000  0.27001800  0.64551000  1
  Li  Li7  1  0.50210300  0.42956900  0.48345400  1
  Sn  Sn0  1  0.20353700  0.82271400  0.17183700  1
  Sn  Sn1  1  0.79646300  0.82271400  0.67183700  1
  Sn  Sn2  1  0.70960600  0.19147900  0.30799500  1
  Sn  Sn3  1  0.29039400  0.19147900  0.80799500  1
  B  B0  1  0.09127900  0.46900600  0.80787200  1
  B  B1  1  0.60579000  0.53510800  0.69827500  1
  B  B2  1  0.57508300  0.07132800  0.12093400  1
  B  B3  1  0.08117700  0.92703900  0.38943900  1
  B  B4  1  0.42491700  0.07132800  0.62093400  1
  B  B5  1  0.91882300  0.92703900  0.88943900  1
  B  B6  1  0.90872100  0.46900600  0.30787200  1
  B  B7  1  0.39421000  0.53510800  0.19827500  1
  O  O0  1  0.54654500  0.36557300  0.71245300  1
  O  O1  1  0.05461600  0.39250300  0.70766200  1
  O  O2  1  0.22314600  0.35941400  0.92531700  1
  O  O3  1  0.71292900  0.64866300  0.56732200  1
  O  O4  1  0.57840500  0.61353900  0.79484700  1
  O  O5  1  0.44705800  0.00586500  0.04059500  1
  O  O6  1  0.19225800  0.77714800  0.46675700  1
  O  O7  1  0.01957300  0.63130800  0.79682300  1
  O  O8  1  0.57138500  0.98167700  0.27613800  1
  O  O9  1  0.09734600  0.01723200  0.23301300  1
  O  O10  1  0.68625900  0.22762300  0.06417700  1
  O  O11  1  0.93190700  0.99547100  0.45403500  1
  O  O12  1  0.55294200  0.00586500  0.54059500  1
  O  O13  1  0.80774200  0.77714800  0.96675700  1
  O  O14  1  0.42861500  0.98167700  0.77613800  1
  O  O15  1  0.90265400  0.01723200  0.73301300  1
  O  O16  1  0.45345500  0.36557300  0.21245300  1
  O  O17  1  0.31374100  0.22762300  0.56417700  1
  O  O18  1  0.06809300  0.99547100  0.95403500  1
  O  O19  1  0.94538400  0.39250300  0.20766200  1
  O  O20  1  0.77685400  0.35941400  0.42531700  1
  O  O21  1  0.28707100  0.64866300  0.06732200  1
  O  O22  1  0.42159500  0.61353900  0.29484700  1
  O  O23  1  0.98042700  0.63130800  0.29682300  1
loop_
_geom_bond_atom_site_label_1
_geom_bond_atom_site_label_2
_geom_bond_distance
_geom_bond_site_symmetry_2
Li0 O6 1.885840 1_655
Li0 O23 1.973809 1_555
Li0 O1 1.996695 1_655
Li0 O3 2.032617 1_555
Li1 O4 1.895055 1_555
Li1 O10 1.925421 1_556
Li1 O2 2.036209 1_555
Li1 O16 2.122555 1_556
Li2 O8 1.829248 1_555
Li2 O6 1.861868 1_555
Li2 O3 2.005957 1_555
Li2 O12 2.213105 1_565
Li3 O14 1.829248 1_555
Li3 O13 1.861868 1_555
Li3 O21 2.005957 1_556
Li3 O5 2.213105 1_566
Li4 O9 1.914281 1_555
Li4 O19 2.011049 1_455
Li4 O2 2.014017 1_554
Li4 O16 2.217241 1_555
Li5 O13 1.885840 1_454
Li5 O7 1.973809 1_554
Li5 O19 1.996695 1_455
Li5 O21 2.032617 1_555
Li6 O15 1.914281 1_555
Li6 O1 2.011049 1_655
Li6 O20 2.014017 1_555
Li6 O0 2.217241 1_555
Li7 O22 1.895055 1_555
Li7 O17 1.925421 1_555
Li7 O20 2.036209 1_555
Li7 O0 2.122555 1_555
B0 O7 1.361909 1_555
B0 O1 1.407225 1_555
B0 O2 1.410539 1_555
B1 O4 1.377571 1_555
B1 O0 1.382026 1_555
B1 O3 1.410198 1_555
B2 O10 1.356379 1_555
B2 O8 1.390582 1_545
B2 O5 1.410158 1_555
B3 O6 1.337544 1_555
B3 O9 1.405210 1_565
B3 O11 1.406998 1_455
B4 O17 1.356379 1_555
B4 O14 1.390582 1_545
B4 O12 1.410158 1_555
B5 O13 1.337544 1_555
B5 O15 1.405210 1_565
B5 O18 1.406998 1_655
B6 O23 1.361909 1_555
B6 O19 1.407225 1_555
B6 O20 1.410539 1_555
B7 O22 1.377571 1_555
B7 O16 1.382026 1_555
B7 O21 1.410198 1_555
O0 Sn3 2.126418 1_555
O1 Sn3 2.147565 1_555
O2 Sn3 2.195233 1_555
O3 Sn1 2.162059 1_555
O4 Sn1 2.145171 1_555
O5 Sn0 2.178776 1_545
O5 Sn3 2.372721 1_554
O7 Sn1 2.097362 1_455
O8 Sn2 2.075656 1_565
O9 Sn0 2.050353 1_545
O10 Sn2 2.316141 1_555
O11 Sn2 2.175837 1_565
O11 Sn1 2.189469 1_555
O12 Sn1 2.178776 1_545
O12 Sn2 2.372721 1_555
O14 Sn3 2.075656 1_565
O15 Sn1 2.050353 1_545
O16 Sn2 2.126418 1_555
O17 Sn3 2.316141 1_555
O18 Sn3 2.175837 1_565
O18 Sn0 2.189469 1_556
O19 Sn2 2.147565 1_555
O20 Sn2 2.195233 1_555
O21 Sn0 2.162059 1_555
O22 Sn0 2.145171 1_555
O23 Sn0 2.097362 1_655
