# generated using pymatgen
data_LiFePO5
_symmetry_space_group_name_H-M   'P 1'
_cell_length_a   6.45769900
_cell_length_b   7.14821100
_cell_length_c   7.49504600
_cell_angle_alpha   90.00000000
_cell_angle_beta   90.00000000
_cell_angle_gamma   90.00000000
_symmetry_Int_Tables_number   1
_chemical_formula_structural   LiFePO5
_chemical_formula_sum   'Li4 Fe4 P4 O20'
_cell_volume   345.97878113
_cell_formula_units_Z   4
loop_
 _symmetry_equiv_pos_site_id
 _symmetry_equiv_pos_as_xyz
  1  'x, y, z'
loop_
 _atom_site_type_symbol
 _atom_site_label
 _atom_site_symmetry_multiplicity
 _atom_site_fract_x
 _atom_site_fract_y
 _atom_site_fract_z
 _atom_site_occupancy
  Li  Li0  1  0.00000000  0.00000000  0.00000000  1
  Li  Li1  1  0.50000000  0.00000000  0.00000000  1
  Li  Li2  1  0.00000000  0.50000000  0.50000000  1
  Li  Li3  1  0.50000000  0.50000000  0.50000000  1
  Fe  Fe0  1  0.25000000  0.14327600  0.72833500  1
  Fe  Fe1  1  0.75000000  0.35672400  0.22833500  1
  Fe  Fe2  1  0.25000000  0.64327600  0.77166500  1
  Fe  Fe3  1  0.75000000  0.85672400  0.27166500  1
  P  P0  1  0.75000000  0.12505900  0.62692700  1
  P  P1  1  0.25000000  0.37494100  0.12692700  1
  P  P2  1  0.75000000  0.62505900  0.87307300  1
  P  P3  1  0.25000000  0.87494100  0.37307300  1
  O  O0  1  0.25000000  0.05618400  0.48285200  1
  O  O1  1  0.75000000  0.10465700  0.16632500  1
  O  O2  1  0.56042900  0.13007700  0.75386600  1
  O  O3  1  0.93957100  0.13007700  0.75386600  1
  O  O4  1  0.25000000  0.19935200  0.00382400  1
  O  O5  1  0.75000000  0.30064800  0.50382400  1
  O  O6  1  0.06042900  0.36992300  0.25386600  1
  O  O7  1  0.43957100  0.36992300  0.25386600  1
  O  O8  1  0.25000000  0.39534300  0.66632500  1
  O  O9  1  0.75000000  0.44381600  0.98285200  1
  O  O10  1  0.25000000  0.55618400  0.01714800  1
  O  O11  1  0.75000000  0.60465700  0.33367500  1
  O  O12  1  0.56042900  0.63007700  0.74613400  1
  O  O13  1  0.93957100  0.63007700  0.74613400  1
  O  O14  1  0.25000000  0.69935200  0.49617600  1
  O  O15  1  0.75000000  0.80064800  0.99617600  1
  O  O16  1  0.06042900  0.86992300  0.24613400  1
  O  O17  1  0.43957100  0.86992300  0.24613400  1
  O  O18  1  0.25000000  0.89534300  0.83367500  1
  O  O19  1  0.75000000  0.94381600  0.51714800  1
loop_
_geom_bond_atom_site_label_1
_geom_bond_atom_site_label_2
_geom_bond_distance
_geom_bond_site_symmetry_2
Li0 O3 2.102398 1_454
Li0 O16 2.102398 1_545
Li0 O15 2.153565 1_444
Li0 O4 2.153565 1_555
Li0 O18 2.172575 1_544
Li0 O1 2.172575 1_455
Li1 O2 2.102398 1_554
Li1 O17 2.102398 1_545
Li1 O15 2.153565 1_544
Li1 O4 2.153565 1_555
Li1 O1 2.172575 1_555
Li1 O18 2.172575 1_544
Li2 O13 2.102398 1_455
Li2 O6 2.102398 1_555
Li2 O5 2.153565 1_455
Li2 O14 2.153565 1_555
Li2 O11 2.172575 1_455
Li2 O8 2.172575 1_555
Li3 O12 2.102398 1_555
Li3 O7 2.102398 1_555
Li3 O5 2.153565 1_555
Li3 O14 2.153565 1_555
Li3 O8 2.172575 1_555
Li3 O11 2.172575 1_555
Fe0 O8 1.860805 1_555
Fe0 O18 1.940186 1_545
Fe0 O0 1.942376 1_555
Fe0 O3 2.015978 1_455
Fe0 O2 2.015978 1_555
Fe0 O4 2.103351 1_556
Fe1 O1 1.860805 1_555
Fe1 O11 1.940186 1_555
Fe1 O9 1.942376 1_554
Fe1 O7 2.015978 1_555
Fe1 O6 2.015978 1_655
Fe1 O5 2.103351 1_555
Fe2 O18 1.860805 1_555
Fe2 O8 1.940186 1_555
Fe2 O10 1.942376 1_556
Fe2 O12 2.015978 1_555
Fe2 O13 2.015978 1_455
Fe2 O14 2.103351 1_555
Fe3 O11 1.860805 1_555
Fe3 O1 1.940186 1_565
Fe3 O19 1.942376 1_555
Fe3 O17 2.015978 1_555
Fe3 O16 2.015978 1_655
Fe3 O15 2.103351 1_554
O0 P3 1.534758 1_545
O2 P0 1.550845 1_555
O3 P0 1.550845 1_555
O4 P1 1.557787 1_555
O5 P0 1.557787 1_555
O6 P1 1.550845 1_555
O7 P1 1.550845 1_555
O9 P2 1.534758 1_555
O10 P1 1.534758 1_555
O12 P2 1.550845 1_555
O13 P2 1.550845 1_555
O14 P3 1.557787 1_555
O15 P2 1.557787 1_555
O16 P3 1.550845 1_555
O17 P3 1.550845 1_555
O19 P0 1.534758 1_565
