# generated using pymatgen
data_Fe6P4H17O27
_symmetry_space_group_name_H-M   'P 1'
_cell_length_a   10.82936463
_cell_length_b   10.82936463
_cell_length_c   19.55807307
_cell_angle_alpha   87.65223538
_cell_angle_beta   87.65223538
_cell_angle_gamma   27.85257669
_symmetry_Int_Tables_number   1
_chemical_formula_structural   Fe6P4H17O27
_chemical_formula_sum   'Fe12 P8 H34 O54'
_cell_volume   1070.64625293
_cell_formula_units_Z   2
loop_
 _symmetry_equiv_pos_site_id
 _symmetry_equiv_pos_as_xyz
  1  'x, y, z'
loop_
 _atom_site_type_symbol
 _atom_site_label
 _atom_site_symmetry_multiplicity
 _atom_site_fract_x
 _atom_site_fract_y
 _atom_site_fract_z
 _atom_site_occupancy
  Fe  Fe0  1  0.00000000  0.50000000  0.00000000  1
  Fe  Fe1  1  0.50000000  0.00000000  0.50000000  1
  Fe  Fe2  1  0.00000000  0.00000000  0.00000000  1
  Fe  Fe3  1  0.00000000  0.00000000  0.50000000  1
  Fe  Fe4  1  0.23134000  0.67763300  0.17361000  1
  Fe  Fe5  1  0.32236700  0.76866000  0.32639000  1
  Fe  Fe6  1  0.76866000  0.32236700  0.82639000  1
  Fe  Fe7  1  0.67763300  0.23134000  0.67361000  1
  Fe  Fe8  1  0.92980900  0.85653500  0.41672400  1
  Fe  Fe9  1  0.14346500  0.07019100  0.08327600  1
  Fe  Fe10  1  0.07019100  0.14346500  0.58327600  1
  Fe  Fe11  1  0.85653500  0.92980900  0.91672400  1
  P  P0  1  0.36939800  0.42101800  0.02495900  1
  P  P1  1  0.57898200  0.63060200  0.47504100  1
  P  P2  1  0.63060200  0.57898200  0.97504100  1
  P  P3  1  0.42101800  0.36939800  0.52495900  1
  P  P4  1  0.64056400  0.54506900  0.18047800  1
  P  P5  1  0.45493100  0.35943600  0.31952200  1
  P  P6  1  0.35943600  0.45493100  0.81952200  1
  P  P7  1  0.54506900  0.64056400  0.68047800  1
  H  H0  1  0.99566900  0.61352400  0.48821100  1
  H  H1  1  0.38647600  0.00433100  0.01178900  1
  H  H2  1  0.00433100  0.38647600  0.51178900  1
  H  H3  1  0.61352400  0.99566900  0.98821100  1
  H  H4  1  0.85800800  0.13718800  0.37388900  1
  H  H5  1  0.86281200  0.14199200  0.12611100  1
  H  H6  1  0.14199200  0.86281200  0.62611100  1
  H  H7  1  0.13718800  0.85800800  0.87388900  1
  H  H8  1  0.94204300  0.57628800  0.24971500  1
  H  H9  1  0.42371200  0.05795700  0.25028500  1
  H  H10  1  0.05795700  0.42371200  0.75028500  1
  H  H11  1  0.57628800  0.94204300  0.74971500  1
  H  H12  1  0.19187300  0.43824900  0.23337600  1
  H  H13  1  0.56175100  0.80812700  0.26662400  1
  H  H14  1  0.80812700  0.56175100  0.76662400  1
  H  H15  1  0.43824900  0.19187300  0.73337600  1
  H  H16  1  0.70668600  0.72186900  0.11310400  1
  H  H17  1  0.27813100  0.29331400  0.38689600  1
  H  H18  1  0.29331400  0.27813100  0.88689600  1
  H  H19  1  0.72186900  0.70668600  0.61310400  1
  H  H20  1  0.97217700  0.54325500  0.14083300  1
  H  H21  1  0.45674500  0.02782300  0.35916700  1
  H  H22  1  0.02782300  0.45674500  0.85916700  1
  H  H23  1  0.54325500  0.97217700  0.64083300  1
  H  H24  1  0.69365000  0.08337100  0.20126000  1
  H  H25  1  0.91662900  0.30635000  0.29874000  1
  H  H26  1  0.30635000  0.91662900  0.79874000  1
  H  H27  1  0.08337100  0.69365000  0.70126000  1
  H  H28  1  0.82416900  0.87882500  0.14715100  1
  H  H29  1  0.12117500  0.17583100  0.35284900  1
  H  H30  1  0.17583100  0.12117500  0.85284900  1
  H  H31  1  0.87882500  0.82416900  0.64715100  1
  H  H32  1  0.92298400  0.07701600  0.25000000  1
  H  H33  1  0.07701600  0.92298400  0.75000000  1
  O  O0  1  0.31030600  0.33499700  0.01339100  1
  O  O1  1  0.66500300  0.68969400  0.48660900  1
  O  O2  1  0.68969400  0.66500300  0.98660900  1
  O  O3  1  0.33499700  0.31030600  0.51339100  1
  O  O4  1  0.82126200  0.32778200  0.01892100  1
  O  O5  1  0.67221800  0.17873800  0.48107900  1
  O  O6  1  0.17873800  0.67221800  0.98107900  1
  O  O7  1  0.32778200  0.82126200  0.51892100  1
  O  O8  1  0.80966100  0.34177400  0.49973800  1
  O  O9  1  0.65822600  0.19033900  0.00026200  1
  O  O10  1  0.19033900  0.65822600  0.50026200  1
  O  O11  1  0.34177400  0.80966100  0.99973800  1
  O  O12  1  0.33842700  0.47419000  0.10100200  1
  O  O13  1  0.52581000  0.66157300  0.39899800  1
  O  O14  1  0.66157300  0.52581000  0.89899800  1
  O  O15  1  0.47419000  0.33842700  0.60100200  1
  O  O16  1  0.57315800  0.46733600  0.16756400  1
  O  O17  1  0.53266400  0.42684200  0.33243600  1
  O  O18  1  0.42684200  0.53266400  0.83243600  1
  O  O19  1  0.46733600  0.57315800  0.66756400  1
  O  O20  1  0.39690000  0.39779200  0.24162300  1
  O  O21  1  0.60220800  0.60310000  0.25837700  1
  O  O22  1  0.60310000  0.60220800  0.75837700  1
  O  O23  1  0.39779200  0.39690000  0.74162300  1
  O  O24  1  0.93354700  0.31010800  0.16150400  1
  O  O25  1  0.68989200  0.06645300  0.33849600  1
  O  O26  1  0.06645300  0.68989200  0.83849600  1
  O  O27  1  0.31010800  0.93354700  0.66150400  1
  O  O28  1  0.21306400  0.52862500  0.36319500  1
  O  O29  1  0.47137500  0.78693600  0.13680500  1
  O  O30  1  0.78693600  0.47137500  0.63680500  1
  O  O31  1  0.52862500  0.21306400  0.86319500  1
  O  O32  1  0.03075100  0.95407000  0.39180100  1
  O  O33  1  0.04593000  0.96924900  0.10819900  1
  O  O34  1  0.96924900  0.04593000  0.60819900  1
  O  O35  1  0.95407000  0.03075100  0.89180100  1
  O  O36  1  0.83198400  0.78368000  0.46374400  1
  O  O37  1  0.21632000  0.16801600  0.03625600  1
  O  O38  1  0.16801600  0.21632000  0.53625600  1
  O  O39  1  0.78368000  0.83198400  0.96374400  1
  O  O40  1  0.11091400  0.88908600  0.25000000  1
  O  O41  1  0.88908600  0.11091400  0.75000000  1
  O  O42  1  0.09481200  0.13587400  0.31978500  1
  O  O43  1  0.86412600  0.90518800  0.18021500  1
  O  O44  1  0.90518800  0.86412600  0.68021500  1
  O  O45  1  0.13587400  0.09481200  0.81978500  1
  O  O46  1  0.84395500  0.66371800  0.10202200  1
  O  O47  1  0.33628200  0.15604500  0.39797800  1
  O  O48  1  0.15604500  0.33628200  0.89797800  1
  O  O49  1  0.66371800  0.84395500  0.60202200  1
  O  O50  1  0.11629600  0.42257400  0.22583400  1
  O  O51  1  0.57742600  0.88370400  0.27416600  1
  O  O52  1  0.88370400  0.57742600  0.77416600  1
  O  O53  1  0.42257400  0.11629600  0.72583400  1
loop_
_geom_bond_atom_site_label_1
_geom_bond_atom_site_label_2
_geom_bond_distance
_geom_bond_site_symmetry_2
Fe0 O39 1.987544 1_454
Fe0 O37 1.987544 1_555
Fe0 O2 1.992393 1_454
Fe0 O0 1.992393 1_555
Fe0 O48 2.167049 1_554
Fe0 O46 2.167049 1_455
Fe1 O38 1.987544 1_555
Fe1 O36 1.987544 1_545
Fe1 O1 1.992393 1_545
Fe1 O3 1.992393 1_555
Fe1 O49 2.167049 1_545
Fe1 O47 2.167049 1_555
Fe2 O6 2.093555 1_544
Fe2 O4 2.093555 1_455
Fe2 O11 2.111013 1_544
Fe2 O9 2.111013 1_455
Fe2 O33 2.138235 1_545
Fe2 O35 2.138235 1_454
Fe3 O7 2.093555 1_545
Fe3 O5 2.093555 1_455
Fe3 O8 2.111013 1_455
Fe3 O10 2.111013 1_545
Fe3 O32 2.138235 1_545
Fe3 O34 2.138235 1_455
Fe4 O12 1.954180 1_555
Fe4 O16 1.995494 1_555
Fe4 O40 2.004115 1_555
Fe4 O33 2.075590 1_555
Fe4 O20 2.103589 1_555
Fe4 O43 2.135093 1_455
Fe5 O13 1.954180 1_555
Fe5 O17 1.995494 1_555
Fe5 O40 2.004115 1_555
Fe5 O32 2.075590 1_555
Fe5 O21 2.103589 1_555
Fe5 O42 2.135093 1_565
Fe6 O14 1.954180 1_555
Fe6 O18 1.995494 1_555
Fe6 O41 2.004115 1_555
Fe6 O35 2.075590 1_555
Fe6 O22 2.103589 1_555
Fe6 O45 2.135093 1_655
Fe7 O15 1.954180 1_555
Fe7 O19 1.995494 1_555
Fe7 O41 2.004115 1_555
Fe7 O34 2.075590 1_555
Fe7 O23 2.103589 1_555
Fe7 O44 2.135093 1_545
Fe8 O25 1.963566 1_565
Fe8 O28 1.973621 1_655
Fe8 O36 1.982222 1_555
Fe8 O5 2.097893 1_565
Fe8 O32 2.122282 1_655
Fe8 O10 2.148841 1_655
Fe9 O24 1.963566 1_455
Fe9 O29 1.973621 1_545
Fe9 O37 1.982222 1_555
Fe9 O4 2.097893 1_455
Fe9 O33 2.122282 1_545
Fe9 O11 2.148841 1_544
Fe10 O27 1.963566 1_545
Fe10 O30 1.973621 1_455
Fe10 O38 1.982222 1_555
Fe10 O7 2.097893 1_545
Fe10 O34 2.122282 1_455
Fe10 O8 2.148841 1_455
Fe11 O26 1.963566 1_655
Fe11 O31 1.973621 1_565
Fe11 O39 1.982222 1_555
Fe11 O6 2.097893 1_655
Fe11 O35 2.122282 1_565
Fe11 O9 2.148841 1_566
H0 O36 0.993955 1_555
H1 O37 0.993955 1_555
H2 O38 0.993955 1_555
H3 O39 0.993955 1_555
H4 O32 0.995812 1_645
H5 O33 0.995812 1_645
H6 O34 0.995812 1_465
H7 O35 0.995812 1_465
H8 O50 0.993438 1_655
H9 O51 0.993438 1_545
H10 O52 0.993438 1_455
H11 O53 0.993438 1_565
H12 O50 0.988965 1_555
H13 O51 0.988965 1_555
H14 O52 0.988965 1_555
H15 O53 0.988965 1_555
H16 O46 0.991343 1_555
H17 O47 0.991343 1_555
H18 O48 0.991343 1_555
H19 O49 0.991343 1_555
H20 O46 1.004077 1_555
H21 O47 1.004077 1_555
H22 O48 1.004077 1_555
H23 O49 1.004077 1_555
H24 O43 1.002283 1_545
H25 O42 1.002283 1_655
H26 O45 1.002283 1_565
H27 O44 1.002283 1_455
H28 O43 0.971300 1_555
H29 O42 0.971300 1_555
H30 O45 0.971300 1_555
H31 O44 0.971300 1_555
H32 O40 0.979619 1_645
H33 O41 0.979619 1_465
O0 P0 1.552982 1_555
O1 P1 1.552982 1_555
O2 P2 1.552982 1_555
O3 P3 1.552982 1_555
O4 P2 1.556155 1_554
O5 P3 1.556155 1_555
O6 P0 1.556155 1_556
O7 P1 1.556155 1_555
O8 P1 1.554129 1_555
O9 P0 1.554129 1_555
O10 P3 1.554129 1_555
O11 P2 1.554129 1_555
O12 P0 1.530938 1_555
O13 P1 1.530938 1_555
O14 P2 1.530938 1_555
O15 P3 1.530938 1_555
O16 P4 1.557044 1_555
O17 P5 1.557044 1_555
O18 P6 1.557044 1_555
O19 P7 1.557044 1_555
O20 P5 1.566427 1_555
O21 P4 1.566427 1_555
O22 P7 1.566427 1_555
O23 P6 1.566427 1_555
O24 P4 1.543999 1_555
O25 P5 1.543999 1_555
O26 P6 1.543999 1_555
O27 P7 1.543999 1_555
O28 P5 1.551090 1_555
O29 P4 1.551090 1_555
O30 P7 1.551090 1_555
O31 P6 1.551090 1_555
