# generated using pymatgen
data_LiV2OF5
_symmetry_space_group_name_H-M   'P 1'
_cell_length_a   5.24771700
_cell_length_b   5.51938642
_cell_length_c   17.28994429
_cell_angle_alpha   84.51449362
_cell_angle_beta   82.37694347
_cell_angle_gamma   61.91889271
_symmetry_Int_Tables_number   1
_chemical_formula_structural   LiV2OF5
_chemical_formula_sum   'Li4 V8 O4 F20'
_cell_volume   437.61757514
_cell_formula_units_Z   4
loop_
 _symmetry_equiv_pos_site_id
 _symmetry_equiv_pos_as_xyz
  1  'x, y, z'
loop_
 _atom_site_type_symbol
 _atom_site_label
 _atom_site_symmetry_multiplicity
 _atom_site_fract_x
 _atom_site_fract_y
 _atom_site_fract_z
 _atom_site_occupancy
  Li  Li0  1  0.50533500  0.66213600  0.31553900  1
  Li  Li1  1  0.62688200  0.78557700  0.92365300  1
  Li  Li2  1  0.28424300  0.39785600  0.06090600  1
  Li  Li3  1  0.35367500  0.56765900  0.66967800  1
  V  V0  1  0.65872300  0.60150500  0.12876400  1
  V  V1  1  0.76121900  0.73641200  0.74573300  1
  V  V2  1  0.23662100  0.25515600  0.24536800  1
  V  V3  1  0.10502900  0.15996200  0.62759600  1
  V  V4  1  0.88666100  0.86757300  0.38001400  1
  V  V5  1  0.47255600  0.51912100  0.49426700  1
  V  V6  1  0.02484300  0.97408100  0.99750400  1
  V  V7  1  0.37402700  0.39194900  0.87637900  1
  O  O0  1  0.03439900  0.40651400  0.15593900  1
  O  O1  1  0.04346600  0.44792100  0.68880400  1
  O  O2  1  0.26067200  0.66639100  0.40888000  1
  O  O3  1  0.30552500  0.68394000  0.93779500  1
  F  F0  1  0.24458500  0.79240700  0.08975300  1
  F  F1  1  0.20035500  0.81274800  0.57271800  1
  F  F2  1  0.69672300  0.29270400  0.06263400  1
  F  F3  1  0.55018400  0.94270500  0.17904200  1
  F  F4  1  0.50837500  0.53177500  0.77634200  1
  F  F5  1  0.69326900  0.35999700  0.59440600  1
  F  F6  1  0.06844900  0.00646800  0.28231100  1
  F  F7  1  0.79471600  0.75543000  0.02371700  1
  F  F8  1  0.50733100  0.92385300  0.66380100  1
  F  F9  1  0.69500500  0.73029200  0.46718200  1
  F  F10  1  0.92205000  0.55597600  0.31296100  1
  F  F11  1  0.95866300  0.58298000  0.84869000  1
  F  F12  1  0.27403600  0.28923600  0.53486000  1
  F  F13  1  0.49673500  0.06015400  0.33103800  1
  F  F14  1  0.25205400  0.20051900  0.97439700  1
  F  F15  1  0.98500000  0.95290200  0.71586400  1
  F  F16  1  0.47223000  0.47080100  0.22576800  1
  F  F17  1  0.47414700  0.03946100  0.82526800  1
  F  F18  1  0.78624400  0.20485900  0.43219200  1
  F  F19  1  0.77684100  0.16231000  0.91045000  1
loop_
_geom_bond_atom_site_label_1
_geom_bond_atom_site_label_2
_geom_bond_distance
_geom_bond_site_symmetry_2
Li0 O2 1.919029 1_555
Li1 O3 1.993337 1_555
Li2 O0 1.950792 1_555
Li3 O1 2.006084 1_555
O0 V0 1.848570 1_455
O0 V2 1.889077 1_555
O1 V1 1.841354 1_455
O1 V3 1.870256 1_555
O2 V5 1.852519 1_555
O2 V4 1.853768 1_455
O3 V6 1.868640 1_555
O3 V7 1.880053 1_555
F0 V6 1.993184 1_554
F0 V0 2.094163 1_555
F0 Li2 2.188108 1_555
F1 V3 2.035275 1_565
F1 Li3 2.046293 1_555
F1 V5 2.057564 1_555
F2 Li2 1.963229 1_555
F2 V0 2.060136 1_555
F2 V6 2.083037 1_644
F3 V0 1.948949 1_555
F3 V2 2.050043 1_565
F4 V7 2.004445 1_555
F4 Li3 2.067709 1_555
F4 V1 2.103955 1_555
F5 Li3 1.982476 1_555
F5 V3 2.044311 1_655
F5 V5 2.096248 1_555
F6 V2 1.973351 1_555
F6 V4 2.089206 1_445
F6 Li0 2.288426 1_545
F7 Li1 2.001978 1_554
F7 V6 2.059733 1_654
F7 V0 2.112287 1_555
F7 Li2 2.516007 1_655
F8 V1 1.942952 1_555
F8 V3 2.037570 1_565
F8 Li3 2.440912 1_555
F9 V4 1.988482 1_555
F9 V5 1.992988 1_555
F10 Li0 1.974905 1_555
F10 V2 2.031354 1_655
F10 V4 2.088002 1_555
F11 Li1 1.951197 1_555
F11 V7 2.027003 1_655
F11 V1 2.081975 1_555
F12 V3 1.966299 1_555
F12 V5 2.016926 1_555
F13 V2 2.015986 1_555
F13 V4 2.067341 1_545
F13 Li0 2.217172 1_545
F14 Li2 2.000945 1_556
F14 V6 2.079509 1_545
F14 V7 2.098738 1_555
F14 Li1 2.359914 1_545
F15 V1 2.028719 1_555
F15 V3 2.030066 1_665
F15 Li3 2.223465 1_655
F16 Li0 2.027854 1_555
F16 V2 2.063334 1_555
F16 V0 2.071002 1_555
F17 V7 2.021193 1_555
F17 Li1 2.085254 1_545
F17 V1 2.115691 1_545
F18 V4 1.956676 1_545
F18 V5 2.017276 1_555
F19 V6 1.996605 1_645
F19 V7 2.021670 1_555
F19 Li1 2.529251 1_545
