# generated using pymatgen
data_TiNi3Sb2(PO4)6
_symmetry_space_group_name_H-M   'P 1'
_cell_length_a   8.67319522
_cell_length_b   8.67319522
_cell_length_c   8.67319519
_cell_angle_alpha   60.36387508
_cell_angle_beta   60.36387508
_cell_angle_gamma   60.36387715
_symmetry_Int_Tables_number   1
_chemical_formula_structural   TiNi3Sb2(PO4)6
_chemical_formula_sum   'Ti1 Ni3 Sb2 P6 O24'
_cell_volume   465.13855644
_cell_formula_units_Z   1
loop_
 _symmetry_equiv_pos_site_id
 _symmetry_equiv_pos_as_xyz
  1  'x, y, z'
loop_
 _atom_site_type_symbol
 _atom_site_label
 _atom_site_symmetry_multiplicity
 _atom_site_fract_x
 _atom_site_fract_y
 _atom_site_fract_z
 _atom_site_occupancy
  Ti  Ti0  1  0.85625800  0.85625800  0.85625800  1
  Ni  Ni0  1  0.15174500  0.15174500  0.15174500  1
  Ni  Ni1  1  0.34797400  0.34797400  0.34797400  1
  Ni  Ni2  1  0.64811500  0.64811500  0.64811500  1
  Sb  Sb0  1  0.01248800  0.01248800  0.01248800  1
  Sb  Sb1  1  0.50193300  0.50193300  0.50193300  1
  P  P0  1  0.54044700  0.24645700  0.95223700  1
  P  P1  1  0.95223700  0.54044700  0.24645700  1
  P  P2  1  0.24645700  0.95223700  0.54044700  1
  P  P3  1  0.74891000  0.04476500  0.46109900  1
  P  P4  1  0.04476500  0.46109900  0.74891000  1
  P  P5  1  0.46109900  0.74891000  0.04476500  1
  O  O0  1  0.31001300  0.09962800  0.51516200  1
  O  O1  1  0.51516200  0.31001300  0.09962800  1
  O  O2  1  0.90462200  0.07683600  0.26310500  1
  O  O3  1  0.09962800  0.51516200  0.31001300  1
  O  O4  1  0.82189100  0.98979200  0.61631500  1
  O  O5  1  0.58904000  0.24846800  0.45551800  1
  O  O6  1  0.07683600  0.26310500  0.90462200  1
  O  O7  1  0.24846800  0.45551800  0.58904000  1
  O  O8  1  0.38894900  0.18804800  0.98217000  1
  O  O9  1  0.45551800  0.58904000  0.24846800  1
  O  O10  1  0.73935300  0.09087500  0.91861100  1
  O  O11  1  0.98217000  0.38894900  0.18804800  1
  O  O12  1  0.98979200  0.61631500  0.82189100  1
  O  O13  1  0.26310500  0.90462200  0.07683600  1
  O  O14  1  0.56315100  0.40967500  0.74584700  1
  O  O15  1  0.61631500  0.82189100  0.98979200  1
  O  O16  1  0.74584700  0.56315100  0.40967500  1
  O  O17  1  0.91861100  0.73935300  0.09087500  1
  O  O18  1  0.40967500  0.74584700  0.56315100  1
  O  O19  1  0.18804800  0.98217000  0.38894900  1
  O  O20  1  0.90433900  0.49069700  0.67546900  1
  O  O21  1  0.09087500  0.91861100  0.73935300  1
  O  O22  1  0.49069700  0.67546900  0.90433900  1
  O  O23  1  0.67546900  0.90433900  0.49069700  1
loop_
_geom_bond_atom_site_label_1
_geom_bond_atom_site_label_2
_geom_bond_distance
_geom_bond_site_symmetry_2
Ni0 O8 1.919635 1_554
Ni0 O19 1.919635 1_545
Ni0 O11 1.919635 1_455
Ni0 O2 2.158278 1_455
Ni0 O6 2.158278 1_554
Ni0 O13 2.158278 1_545
Ni1 O0 1.997710 1_555
Ni1 O1 1.997710 1_555
Ni1 O3 1.997710 1_555
Ni1 O9 2.309627 1_555
Ni1 O7 2.309627 1_555
Ni1 O5 2.309627 1_555
Ni2 O23 2.014770 1_555
Ni2 O22 2.014770 1_555
Ni2 O20 2.014770 1_555
Ni2 O14 2.166581 1_555
Ni2 O16 2.166581 1_555
Ni2 O18 2.166581 1_555
O0 P2 1.512028 1_545
O1 P0 1.512028 1_554
O2 P3 1.567067 1_555
O2 Sb0 2.140962 1_655
O3 P1 1.512028 1_455
O4 P3 1.532895 1_565
O4 Ti0 1.910354 1_555
O5 P3 1.614133 1_555
O5 Sb1 2.120727 1_555
O6 P4 1.567067 1_555
O6 Sb0 2.140962 1_556
O7 P4 1.614133 1_555
O7 Sb1 2.120727 1_555
O8 P0 1.497142 1_555
O9 P5 1.614133 1_555
O9 Sb1 2.120727 1_555
O10 P0 1.572078 1_555
O10 Ti0 1.991683 1_545
O10 Sb0 2.550373 1_656
O11 P1 1.497142 1_555
O12 P4 1.532895 1_655
O12 Ti0 1.910354 1_555
O13 P5 1.567067 1_555
O13 Sb0 2.140962 1_565
O14 P0 1.633412 1_555
O14 Sb1 2.100990 1_555
O15 P5 1.532895 1_556
O15 Ti0 1.910354 1_555
O16 P1 1.633412 1_555
O16 Sb1 2.100990 1_555
O17 P1 1.572078 1_555
O17 Ti0 1.991683 1_554
O17 Sb0 2.550373 1_665
O18 P2 1.633412 1_555
O18 Sb1 2.100990 1_555
O19 P2 1.497142 1_555
O20 P4 1.500442 1_655
O21 P2 1.572078 1_555
O21 Ti0 1.991683 1_455
O21 Sb0 2.550373 1_566
O22 P5 1.500442 1_556
O23 P3 1.500442 1_565
