# generated using pymatgen
data_CsFeBP2HO9
_symmetry_space_group_name_H-M   'P 1'
_cell_length_a   8.72368100
_cell_length_b   9.48155900
_cell_length_c   9.93674968
_cell_angle_alpha   77.15235432
_cell_angle_beta   90.00000000
_cell_angle_gamma   90.00000000
_symmetry_Int_Tables_number   1
_chemical_formula_structural   CsFeBP2HO9
_chemical_formula_sum   'Cs4 Fe4 B4 P8 H4 O36'
_cell_volume   801.33259144
_cell_formula_units_Z   4
loop_
 _symmetry_equiv_pos_site_id
 _symmetry_equiv_pos_as_xyz
  1  'x, y, z'
loop_
 _atom_site_type_symbol
 _atom_site_label
 _atom_site_symmetry_multiplicity
 _atom_site_fract_x
 _atom_site_fract_y
 _atom_site_fract_z
 _atom_site_occupancy
  Cs  Cs0  1  0.39104200  0.80620900  0.55453300  1
  Cs  Cs1  1  0.10895800  0.80620900  0.05453300  1
  Cs  Cs2  1  0.89104200  0.19379100  0.94546700  1
  Cs  Cs3  1  0.60895800  0.19379100  0.44546700  1
  Fe  Fe0  1  0.65361100  0.79419200  0.92901600  1
  Fe  Fe1  1  0.84638900  0.79419200  0.42901600  1
  Fe  Fe2  1  0.15361100  0.20580800  0.57098400  1
  Fe  Fe3  1  0.34638900  0.20580800  0.07098400  1
  B  B0  1  0.04365800  0.65900000  0.69738700  1
  B  B1  1  0.45634200  0.65900000  0.19738700  1
  B  B2  1  0.54365800  0.34100000  0.80261300  1
  B  B3  1  0.95634200  0.34100000  0.30261300  1
  P  P0  1  0.92786000  0.92506100  0.70213200  1
  P  P1  1  0.57214000  0.92506100  0.20213200  1
  P  P2  1  0.73314300  0.58157300  0.71380600  1
  P  P3  1  0.76685700  0.58157300  0.21380600  1
  P  P4  1  0.23314300  0.41842700  0.78619400  1
  P  P5  1  0.26685700  0.41842700  0.28619400  1
  P  P6  1  0.42786000  0.07493900  0.79786800  1
  P  P7  1  0.07214000  0.07493900  0.29786800  1
  H  H0  1  0.08595400  0.60150000  0.50973800  1
  H  H1  1  0.41404600  0.60150000  0.00973800  1
  H  H2  1  0.58595400  0.39850000  0.99026200  1
  H  H3  1  0.91404600  0.39850000  0.49026200  1
  O  O0  1  0.50430600  0.92682800  0.81302200  1
  O  O1  1  0.83112800  0.90039700  0.83547000  1
  O  O2  1  0.83434000  0.91218600  0.57441100  1
  O  O3  1  0.99569400  0.92682800  0.31302200  1
  O  O4  1  0.66887200  0.90039700  0.33547000  1
  O  O5  1  0.05729100  0.80377200  0.72824900  1
  O  O6  1  0.66566000  0.91218600  0.07441100  1
  O  O7  1  0.44270900  0.80377200  0.22824900  1
  O  O8  1  0.63156000  0.66009900  0.79971900  1
  O  O9  1  0.04107000  0.68176000  0.54360400  1
  O  O10  1  0.71872700  0.64062800  0.55811100  1
  O  O11  1  0.18500100  0.58269900  0.75355700  1
  O  O12  1  0.90532700  0.57886400  0.76150400  1
  O  O13  1  0.86844000  0.66009900  0.29971900  1
  O  O14  1  0.45893000  0.68176000  0.04360400  1
  O  O15  1  0.78127300  0.64062800  0.05811100  1
  O  O16  1  0.31499900  0.58269900  0.25355700  1
  O  O17  1  0.59467300  0.57886400  0.26150400  1
  O  O18  1  0.40532700  0.42113600  0.73849600  1
  O  O19  1  0.68500100  0.41730100  0.74644300  1
  O  O20  1  0.21872700  0.35937200  0.94188900  1
  O  O21  1  0.54107000  0.31824000  0.95639600  1
  O  O22  1  0.13156000  0.33990100  0.70028100  1
  O  O23  1  0.09467300  0.42113600  0.23849600  1
  O  O24  1  0.81499900  0.41730100  0.24644300  1
  O  O25  1  0.28127300  0.35937200  0.44188900  1
  O  O26  1  0.95893000  0.31824000  0.45639600  1
  O  O27  1  0.36844000  0.33990100  0.20028100  1
  O  O28  1  0.55729100  0.19622800  0.77175100  1
  O  O29  1  0.33434000  0.08781400  0.92558900  1
  O  O30  1  0.94270900  0.19622800  0.27175100  1
  O  O31  1  0.33112800  0.09960300  0.66453000  1
  O  O32  1  0.00430600  0.07317200  0.68697800  1
  O  O33  1  0.16566000  0.08781400  0.42558900  1
  O  O34  1  0.16887200  0.09960300  0.16453000  1
  O  O35  1  0.49569400  0.07317200  0.18697800  1
loop_
_geom_bond_atom_site_label_1
_geom_bond_atom_site_label_2
_geom_bond_distance
_geom_bond_site_symmetry_2
Cs0 O11 3.125562 1_555
Cs0 O0 3.191868 1_555
Cs0 O4 3.247412 1_555
Cs0 O31 3.249408 1_565
Cs0 O10 3.257751 1_555
Cs0 O7 3.278549 1_555
Cs0 O8 3.279702 1_555
Cs0 O9 3.283625 1_555
Cs0 O33 3.333953 1_565
Cs0 H0 3.381302 1_555
Cs0 O5 3.382235 1_555
Cs0 O18 3.703976 1_555
Cs1 O16 3.125562 1_555
Cs1 O3 3.191868 1_455
Cs1 O1 3.247412 1_454
Cs1 O34 3.249408 1_565
Cs1 O15 3.257751 1_455
Cs1 O5 3.278549 1_554
Cs1 O13 3.279702 1_455
Cs1 O14 3.283625 1_555
Cs1 O29 3.333953 1_564
Cs1 H1 3.381302 1_555
Cs1 O7 3.382235 1_555
Cs1 O23 3.703976 1_555
Cs2 O19 3.125562 1_555
Cs2 O32 3.191868 1_655
Cs2 O34 3.247412 1_656
Cs2 O1 3.249408 1_545
Cs2 O20 3.257751 1_655
Cs2 O30 3.278549 1_556
Cs2 O22 3.279702 1_655
Cs2 O21 3.283625 1_555
Cs2 O6 3.333953 1_546
Cs2 H2 3.381302 1_555
Cs2 O28 3.382235 1_555
Cs2 O12 3.703976 1_555
Cs3 O24 3.125562 1_555
Cs3 O35 3.191868 1_555
Cs3 O31 3.247412 1_555
Cs3 O4 3.249408 1_545
Cs3 O25 3.257751 1_555
Cs3 O28 3.278549 1_555
Cs3 O27 3.279702 1_555
Cs3 O26 3.283625 1_555
Cs3 O2 3.333953 1_545
Cs3 H3 3.381302 1_555
Cs3 O30 3.382235 1_555
Cs3 O17 3.703976 1_555
Fe0 O1 1.964681 1_555
Fe0 O0 1.990451 1_555
Fe0 O8 2.007642 1_555
Fe0 O6 2.017131 1_556
Fe0 O15 2.043332 1_556
Fe0 O14 2.185735 1_556
Fe1 O4 1.964681 1_555
Fe1 O3 1.990451 1_555
Fe1 O13 2.007642 1_555
Fe1 O2 2.017131 1_555
Fe1 O10 2.043332 1_555
Fe1 O9 2.185735 1_655
Fe2 O31 1.964681 1_555
Fe2 O32 1.990451 1_555
Fe2 O22 2.007642 1_555
Fe2 O33 2.017131 1_555
Fe2 O25 2.043332 1_555
Fe2 O26 2.185735 1_455
Fe3 O34 1.964681 1_555
Fe3 O35 1.990451 1_555
Fe3 O27 2.007642 1_555
Fe3 O29 2.017131 1_554
Fe3 O20 2.043332 1_554
Fe3 O21 2.185735 1_554
B0 O11 1.475027 1_555
B0 O5 1.476348 1_555
B0 O12 1.491378 1_455
B0 O9 1.495168 1_555
B1 O16 1.475027 1_555
B1 O7 1.476348 1_555
B1 O17 1.491378 1_555
B1 O14 1.495168 1_555
B2 O19 1.475027 1_555
B2 O28 1.476348 1_555
B2 O18 1.491378 1_555
B2 O21 1.495168 1_555
B3 O24 1.475027 1_555
B3 O30 1.476348 1_555
B3 O23 1.491378 1_655
B3 O26 1.495168 1_555
H0 O9 0.979567 1_555
H1 O14 0.979567 1_555
H2 O21 0.979567 1_555
H3 O26 0.979567 1_555
O0 P6 1.531502 1_565
O1 P0 1.544175 1_555
O2 P0 1.536258 1_555
O3 P7 1.531502 1_665
O4 P1 1.544175 1_555
O5 P0 1.591240 1_455
O6 P1 1.536258 1_555
O7 P1 1.591240 1_555
O8 P2 1.533340 1_555
O10 P2 1.528927 1_555
O11 P4 1.575720 1_555
O12 P2 1.573571 1_555
O13 P3 1.533340 1_555
O15 P3 1.528927 1_555
O16 P5 1.575720 1_555
O17 P3 1.573571 1_555
O18 P4 1.573571 1_555
O19 P2 1.575720 1_555
O20 P4 1.528927 1_555
O22 P4 1.533340 1_555
O23 P5 1.573571 1_555
O24 P3 1.575720 1_555
O25 P5 1.528927 1_555
O27 P5 1.533340 1_555
O28 P6 1.591240 1_555
O29 P6 1.536258 1_555
O30 P7 1.591240 1_655
O31 P6 1.544175 1_555
O32 P0 1.531502 1_445
O33 P7 1.536258 1_555
O34 P7 1.544175 1_555
O35 P1 1.531502 1_545
