# generated using pymatgen
data_VCoO4
_symmetry_space_group_name_H-M   'P 1'
_cell_length_a   5.64510616
_cell_length_b   5.64510616
_cell_length_c   5.64510616
_cell_angle_alpha   119.49089578
_cell_angle_beta   117.77509386
_cell_angle_gamma   92.39065357
_symmetry_Int_Tables_number   1
_chemical_formula_structural   VCoO4
_chemical_formula_sum   'V2 Co2 O8'
_cell_volume   129.67578434
_cell_formula_units_Z   2
loop_
 _symmetry_equiv_pos_site_id
 _symmetry_equiv_pos_as_xyz
  1  'x, y, z'
loop_
 _atom_site_type_symbol
 _atom_site_label
 _atom_site_symmetry_multiplicity
 _atom_site_fract_x
 _atom_site_fract_y
 _atom_site_fract_z
 _atom_site_occupancy
  V  V0  1  0.12578200  0.87578200  0.25000000  1
  V  V1  1  0.87421800  0.12421800  0.75000000  1
  Co  Co0  1  0.50000000  0.50000000  0.00000000  1
  Co  Co1  1  0.00000000  0.50000000  0.50000000  1
  O  O0  1  0.76457200  0.74381500  0.02075700  1
  O  O1  1  0.74914700  0.72403500  0.47488800  1
  O  O2  1  0.25085300  0.72574200  0.97488800  1
  O  O3  1  0.22305900  0.74381500  0.47924300  1
  O  O4  1  0.77694100  0.25618500  0.52075700  1
  O  O5  1  0.74914700  0.27425800  0.02511200  1
  O  O6  1  0.25085300  0.27596500  0.52511200  1
  O  O7  1  0.23542800  0.25618500  0.97924300  1
loop_
_geom_bond_atom_site_label_1
_geom_bond_atom_site_label_2
_geom_bond_distance
_geom_bond_site_symmetry_2
Co0 O0 1.909285 1_555
Co0 O7 1.909285 1_554
Co0 O6 1.940029 1_554
Co0 O1 1.940029 1_555
Co0 O5 1.940033 1_555
Co0 O2 1.940033 1_554
Co1 O3 1.909288 1_555
Co1 O4 1.909288 1_455
Co1 O5 1.940029 1_455
Co1 O2 1.940029 1_555
Co1 O1 1.940029 1_455
Co1 O6 1.940029 1_555
O0 V0 1.688853 1_655
O1 V1 1.845138 1_565
O2 V0 1.845137 1_556
O3 V0 1.688853 1_555
O4 V1 1.688853 1_555
O5 V1 1.845137 1_554
O6 V0 1.845138 1_545
O7 V1 1.688853 1_455
