# generated using pymatgen
data_Na3(CuO2)2
_symmetry_space_group_name_H-M   'P 1'
_cell_length_a   5.62437784
_cell_length_b   5.62437784
_cell_length_c   8.16685753
_cell_angle_alpha   66.70764260
_cell_angle_beta   66.70764260
_cell_angle_gamma   29.77084357
_symmetry_Int_Tables_number   1
_chemical_formula_structural   Na3(CuO2)2
_chemical_formula_sum   'Na3 Cu2 O4'
_cell_volume   117.04906259
_cell_formula_units_Z   1
loop_
 _symmetry_equiv_pos_site_id
 _symmetry_equiv_pos_as_xyz
  1  'x, y, z'
loop_
 _atom_site_type_symbol
 _atom_site_label
 _atom_site_symmetry_multiplicity
 _atom_site_fract_x
 _atom_site_fract_y
 _atom_site_fract_z
 _atom_site_occupancy
  Na  Na0  1  0.62210100  0.62210100  0.11649200  1
  Na  Na1  1  0.00000000  0.00000000  0.50000000  1
  Na  Na2  1  0.37789900  0.37789900  0.88350800  1
  Cu  Cu0  1  0.82868700  0.82868700  0.27938300  1
  Cu  Cu1  1  0.17131300  0.17131300  0.72061700  1
  O  O0  1  0.74811300  0.74811300  0.80364900  1
  O  O1  1  0.58489300  0.58489300  0.65485900  1
  O  O2  1  0.41510700  0.41510700  0.34514100  1
  O  O3  1  0.25188700  0.25188700  0.19635100  1
loop_
_geom_bond_atom_site_label_1
_geom_bond_atom_site_label_2
_geom_bond_distance
_geom_bond_site_symmetry_2
Na0 O2 2.261015 1_555
Na0 O3 2.292739 1_655
Na0 O3 2.292739 1_565
Na0 O0 2.353780 1_554
Na1 O1 2.343903 1_455
Na1 O1 2.343903 1_545
Na1 O2 2.343903 1_545
Na1 O2 2.343903 1_455
Na1 O0 2.844520 1_445
Na1 O3 2.844520 1_555
Na2 O1 2.261015 1_555
Na2 O0 2.292739 1_455
Na2 O0 2.292739 1_545
Na2 O3 2.353780 1_556
Cu0 O2 1.916105 1_655
Cu0 O2 1.916105 1_565
Cu0 O3 1.925549 1_655
Cu0 O3 1.925549 1_565
Cu1 O1 1.916105 1_545
Cu1 O1 1.916105 1_455
Cu1 O0 1.925549 1_545
Cu1 O0 1.925549 1_455
