# generated using pymatgen
data_Ba4Li6Ti19O44
_symmetry_space_group_name_H-M   'P 1'
_cell_length_a   5.85820400
_cell_length_b   10.07367303
_cell_length_c   14.17924860
_cell_angle_alpha   90.34963095
_cell_angle_beta   90.04083652
_cell_angle_gamma   90.00433970
_symmetry_Int_Tables_number   1
_chemical_formula_structural   Ba4Li6Ti19O44
_chemical_formula_sum   'Ba4 Li6 Ti19 O44'
_cell_volume   836.75315926
_cell_formula_units_Z   1
loop_
 _symmetry_equiv_pos_site_id
 _symmetry_equiv_pos_as_xyz
  1  'x, y, z'
loop_
 _atom_site_type_symbol
 _atom_site_label
 _atom_site_symmetry_multiplicity
 _atom_site_fract_x
 _atom_site_fract_y
 _atom_site_fract_z
 _atom_site_occupancy
  Ba  Ba0  1  0.74987600  0.08840100  0.58875200  1
  Ba  Ba1  1  0.75718400  0.40481400  0.09764500  1
  Ba  Ba2  1  0.24561800  0.60633400  0.89895800  1
  Ba  Ba3  1  0.25427200  0.90842900  0.40638300  1
  Li  Li0  1  0.99071900  0.50317100  0.52452800  1
  Li  Li1  1  0.75160400  0.39037800  0.66053300  1
  Li  Li2  1  0.53961500  0.46686400  0.51186700  1
  Li  Li3  1  0.75239700  0.07893700  0.03677300  1
  Li  Li4  1  0.27111800  0.59783900  0.43596600  1
  Li  Li5  1  0.25010400  0.92499200  0.96152500  1
  Ti  Ti0  1  0.00622400  0.83719900  0.16960000  1
  Ti  Ti1  1  0.00043800  0.15351500  0.82625800  1
  Ti  Ti2  1  0.00690400  0.33355300  0.33549700  1
  Ti  Ti3  1  0.74406300  0.88327400  0.82680200  1
  Ti  Ti4  1  0.75359600  0.06628700  0.33239200  1
  Ti  Ti5  1  0.75861000  0.42296800  0.84709600  1
  Ti  Ti6  1  0.75136500  0.73939600  0.00001900  1
  Ti  Ti7  1  0.76215000  0.75841500  0.50799800  1
  Ti  Ti8  1  0.76133100  0.60979800  0.33015300  1
  Ti  Ti9  1  0.50377300  0.33362900  0.33034600  1
  Ti  Ti10  1  0.49453600  0.15211700  0.82235800  1
  Ti  Ti11  1  0.50763500  0.83682500  0.17231700  1
  Ti  Ti12  1  0.51115100  0.65878700  0.67115500  1
  Ti  Ti13  1  0.25988000  0.22972900  0.51262000  1
  Ti  Ti14  1  0.23512100  0.40908000  0.67706000  1
  Ti  Ti15  1  0.25624300  0.57332100  0.16963000  1
  Ti  Ti16  1  0.25156900  0.11133400  0.16530700  1
  Ti  Ti17  1  0.25706900  0.27358200  0.00051800  1
  Ti  Ti18  1  0.22806900  0.90125500  0.66242700  1
  O  O0  1  0.99680600  0.46993900  0.75716700  1
  O  O1  1  0.00271800  0.00328900  0.25076000  1
  O  O2  1  0.98757000  0.32256300  0.91698600  1
  O  O3  1  0.00161300  0.17691900  0.41320700  1
  O  O4  1  0.96696200  0.82197000  0.91629400  1
  O  O5  1  0.98014900  0.67314200  0.42053100  1
  O  O6  1  0.74752800  0.07340500  0.89630800  1
  O  O7  1  0.75504300  0.43164700  0.40117700  1
  O  O8  1  0.74693600  0.24718600  0.76167400  1
  O  O9  1  0.75339100  0.56592700  0.93127400  1
  O  O10  1  0.72925100  0.74306000  0.74895400  1
  O  O11  1  0.74960100  0.93614300  0.42273600  1
  O  O12  1  0.75467600  0.89754300  0.08750800  1
  O  O13  1  0.75657200  0.24966300  0.26355800  1
  O  O14  1  0.73646100  0.59871300  0.57883500  1
  O  O15  1  0.76038900  0.75782400  0.24699900  1
  O  O16  1  0.52905500  0.82182100  0.91920800  1
  O  O17  1  0.54426500  0.68299700  0.41135600  1
  O  O18  1  0.50081700  0.32875800  0.91260100  1
  O  O19  1  0.50615300  0.17624700  0.41236700  1
  O  O20  1  0.50732500  0.00281400  0.25095800  1
  O  O21  1  0.50835200  0.49306600  0.74860000  1
  O  O22  1  0.50016300  0.99692100  0.74881700  1
  O  O23  1  0.50497400  0.50140500  0.25011500  1
  O  O24  1  0.49728500  0.82451800  0.58394400  1
  O  O25  1  0.50265300  0.67436200  0.08986900  1
  O  O26  1  0.47836800  0.31323900  0.58949600  1
  O  O27  1  0.47187800  0.18165900  0.08310100  1
  O  O28  1  0.27969200  0.55430900  0.59428600  1
  O  O29  1  0.25777900  0.06816100  0.56950800  1
  O  O30  1  0.24877200  0.10480300  0.91099800  1
  O  O31  1  0.24683400  0.23660900  0.75458400  1
  O  O32  1  0.25369600  0.25840800  0.25484800  1
  O  O33  1  0.26102900  0.40239900  0.41885100  1
  O  O34  1  0.25240900  0.43583200  0.07006000  1
  O  O35  1  0.26443900  0.75291500  0.73173000  1
  O  O36  1  0.25573100  0.74938000  0.23993400  1
  O  O37  1  0.25734300  0.92972900  0.10280600  1
  O  O38  1  0.02840100  0.32501800  0.58667800  1
  O  O39  1  0.03522100  0.17904400  0.08389300  1
  O  O40  1  0.00901900  0.67594200  0.08777800  1
  O  O41  1  0.99991700  0.84683700  0.57678000  1
  O  O42  1  0.01014600  0.50276900  0.25127400  1
  O  O43  1  0.00032100  0.99437500  0.74896400  1
loop_
_geom_bond_atom_site_label_1
_geom_bond_atom_site_label_2
_geom_bond_distance
_geom_bond_site_symmetry_2
Ba0 O26 2.767708 1_555
Ba0 O11 2.801731 1_545
Ba0 O41 2.844626 1_545
Ba0 O22 2.858386 1_545
Ba0 O43 2.869145 1_645
Ba0 O38 2.888782 1_655
Ba0 O29 2.902533 1_555
Ba0 O8 2.919398 1_555
Ba0 O29 2.994929 1_655
Ba0 O19 3.016422 1_555
Ba0 O3 3.032766 1_655
Ba0 O24 3.042647 1_545
Ba1 O23 2.789755 1_555
Ba1 O39 2.803426 1_655
Ba1 O27 2.807630 1_555
Ba1 O42 2.807823 1_655
Ba1 O13 2.832320 1_555
Ba1 O9 2.871626 1_554
Ba1 O34 2.944511 1_655
Ba1 O34 2.999149 1_555
Ba1 O2 3.008174 1_554
Ba1 O25 3.100422 1_555
Ba1 O40 3.108084 1_655
Ba1 O18 3.113917 1_554
Ba2 O4 2.727357 1_455
Ba2 O16 2.746412 1_555
Ba2 O35 2.803220 1_555
Ba2 O0 2.831311 1_455
Ba2 O21 2.862069 1_555
Ba2 O9 2.948658 1_455
Ba2 O34 2.981333 1_556
Ba2 O9 3.037209 1_555
Ba2 O40 3.092477 1_556
Ba2 O25 3.167973 1_556
Ba2 O18 3.177748 1_555
Ba2 O2 3.245162 1_455
Ba3 O29 2.809629 1_565
Ba3 O1 2.824054 1_565
Ba3 O20 2.826382 1_565
Ba3 O17 2.837341 1_555
Ba3 O36 2.844503 1_555
Ba3 O5 2.870995 1_455
Ba3 O41 2.909655 1_455
Ba3 O11 2.924025 1_555
Ba3 O11 2.978709 1_455
Ba3 O24 3.016783 1_555
Ba3 O19 3.075655 1_565
Ba3 O3 3.084324 1_565
Li0 O14 1.931497 1_555
Li0 O38 2.016231 1_655
Li0 O28 2.025037 1_655
Li0 O5 2.267315 1_555
Li0 O7 2.337821 1_555
Li0 O33 2.401752 1_655
Li1 O38 2.038061 1_655
Li1 O8 2.040445 1_555
Li1 O26 2.041693 1_555
Li1 O0 2.137004 1_555
Li1 O21 2.155705 1_555
Li1 O14 2.404971 1_555
Li2 O26 1.938184 1_555
Li2 O14 1.994589 1_555
Li2 O7 2.044012 1_555
Li2 O28 2.109603 1_555
Li2 O33 2.193398 1_555
Li3 O12 1.967934 1_545
Li3 O6 1.992311 1_554
Li3 O27 2.048501 1_555
Li3 O39 2.049005 1_655
Li4 O17 1.849974 1_555
Li4 O5 1.878973 1_455
Li4 O33 1.983100 1_555
Li4 O28 2.290427 1_555
Li5 O30 1.951970 1_565
Li5 O37 2.003954 1_556
Li5 O16 2.026004 1_555
Li5 O4 2.056639 1_455
O0 Ti14 1.899740 1_655
O0 Ti5 1.951097 1_555
O1 Ti4 1.966204 1_455
O1 Ti0 2.025009 1_545
O1 Ti16 2.190061 1_555
O2 Ti5 1.953125 1_555
O2 Ti17 2.035546 1_656
O2 Ti1 2.129332 1_655
O3 Ti2 1.930296 1_555
O3 Ti13 2.132320 1_555
O3 Ti4 2.155907 1_455
O4 Ti3 1.924568 1_555
O4 Ti6 1.926266 1_556
O5 Ti8 1.918378 1_555
O5 Ti7 1.973930 1_555
O6 Ti1 1.960776 1_655
O6 Ti10 1.983143 1_555
O6 Ti3 2.148738 1_545
O7 Ti2 2.002921 1_655
O7 Ti9 2.033708 1_555
O7 Ti8 2.063578 1_555
O8 Ti10 1.963544 1_555
O8 Ti1 1.985761 1_655
O8 Ti5 2.140338 1_555
O9 Ti5 1.865101 1_555
O9 Ti6 1.995787 1_556
O10 Ti3 1.789371 1_555
O10 Ti12 1.885854 1_555
O11 Ti4 1.838713 1_565
O11 Ti7 2.167652 1_555
O12 Ti0 1.975426 1_655
O12 Ti11 1.981402 1_555
O12 Ti6 2.013247 1_555
O13 Ti9 1.948818 1_555
O13 Ti2 1.972920 1_655
O13 Ti4 2.094597 1_555
O14 Ti7 1.907771 1_555
O14 Ti12 1.953168 1_555
O15 Ti8 1.906630 1_555
O15 Ti0 1.982574 1_655
O15 Ti11 1.988805 1_555
O16 Ti3 1.923176 1_555
O16 Ti6 1.925646 1_556
O17 Ti8 1.865027 1_555
O17 Ti7 2.017137 1_555
O18 Ti17 1.978077 1_556
O18 Ti5 2.014107 1_555
O18 Ti10 2.185671 1_555
O19 Ti9 1.971998 1_555
O19 Ti13 2.094299 1_555
O19 Ti4 2.145096 1_555
O20 Ti4 1.952431 1_555
O20 Ti11 2.004149 1_545
O20 Ti16 2.220063 1_555
O21 Ti12 2.003865 1_555
O21 Ti14 2.072157 1_555
O21 Ti5 2.146565 1_555
O22 Ti10 1.874243 1_565
O22 Ti3 2.142043 1_555
O22 Ti18 2.225439 1_555
O23 Ti15 1.989544 1_555
O23 Ti9 2.043086 1_555
O23 Ti8 2.172051 1_555
O24 Ti7 2.001099 1_555
O24 Ti18 2.077368 1_555
O24 Ti12 2.085213 1_555
O25 Ti11 2.005638 1_555
O25 Ti6 2.046421 1_555
O25 Ti15 2.101186 1_555
O26 Ti13 1.876386 1_555
O26 Ti14 2.119524 1_555
O27 Ti16 1.881041 1_555
O27 Ti17 1.955379 1_555
O28 Ti14 1.899305 1_555
O28 Ti12 2.029266 1_555
O29 Ti13 1.820951 1_555
O29 Ti18 2.149519 1_545
O30 Ti1 1.950832 1_555
O30 Ti10 1.972173 1_555
O30 Ti17 2.116099 1_556
O31 Ti10 1.939531 1_555
O31 Ti1 1.956862 1_555
O31 Ti14 2.062730 1_555
O32 Ti16 1.945298 1_555
O32 Ti9 1.963185 1_555
O32 Ti2 1.990701 1_555
O33 Ti9 2.017195 1_555
O33 Ti2 2.020266 1_555
O33 Ti13 2.195822 1_555
O34 Ti17 1.903907 1_555
O34 Ti15 1.971833 1_555
O35 Ti18 1.806022 1_555
O35 Ti12 1.928142 1_555
O36 Ti11 1.971046 1_555
O36 Ti0 1.980541 1_555
O36 Ti15 2.029207 1_555
O37 Ti0 1.985579 1_555
O37 Ti11 2.001660 1_555
O37 Ti16 2.028202 1_565
O38 Ti14 1.952021 1_555
O38 Ti13 1.962883 1_555
O39 Ti16 1.847118 1_555
O39 Ti17 2.002331 1_555
O40 Ti0 1.990513 1_555
O40 Ti6 2.059722 1_455
O40 Ti15 2.127366 1_555
O41 Ti18 1.884449 1_655
O41 Ti7 1.916242 1_555
O42 Ti15 1.983935 1_555
O42 Ti2 2.087377 1_555
O42 Ti8 2.127404 1_455
O43 Ti1 1.936418 1_565
O43 Ti18 2.038163 1_555
O43 Ti3 2.177507 1_455
