# generated using pymatgen
data_Er2Zr2O7
_symmetry_space_group_name_H-M   'P 1'
_cell_length_a   7.45414150
_cell_length_b   7.45414150
_cell_length_c   7.45414150
_cell_angle_alpha   60.00000000
_cell_angle_beta   60.00000000
_cell_angle_gamma   60.00000000
_symmetry_Int_Tables_number   1
_chemical_formula_structural   Er2Zr2O7
_chemical_formula_sum   'Er4 Zr4 O14'
_cell_volume   292.87203124
_cell_formula_units_Z   2
loop_
 _symmetry_equiv_pos_site_id
 _symmetry_equiv_pos_as_xyz
  1  'x, y, z'
loop_
 _atom_site_type_symbol
 _atom_site_label
 _atom_site_symmetry_multiplicity
 _atom_site_fract_x
 _atom_site_fract_y
 _atom_site_fract_z
 _atom_site_occupancy
  Er  Er0  1  0.62500000  0.12500000  0.12500000  1
  Er  Er1  1  0.12500000  0.62500000  0.12500000  1
  Er  Er2  1  0.12500000  0.12500000  0.12500000  1
  Er  Er3  1  0.12500000  0.12500000  0.62500000  1
  Zr  Zr0  1  0.62500000  0.62500000  0.12500000  1
  Zr  Zr1  1  0.62500000  0.62500000  0.62500000  1
  Zr  Zr2  1  0.62500000  0.12500000  0.62500000  1
  Zr  Zr3  1  0.12500000  0.62500000  0.62500000  1
  O  O0  1  0.28229100  0.71770900  0.28229100  1
  O  O1  1  0.25000000  0.25000000  0.25000000  1
  O  O2  1  0.53229100  0.96770900  0.53229100  1
  O  O3  1  0.28229100  0.28229100  0.71770900  1
  O  O4  1  0.28229100  0.71770900  0.71770900  1
  O  O5  1  0.53229100  0.53229100  0.96770900  1
  O  O6  1  0.53229100  0.96770900  0.96770900  1
  O  O7  1  0.71770900  0.71770900  0.28229100  1
  O  O8  1  0.71770900  0.28229100  0.28229100  1
  O  O9  1  0.96770900  0.53229100  0.53229100  1
  O  O10  1  0.96770900  0.96770900  0.53229100  1
  O  O11  1  0.71770900  0.28229100  0.71770900  1
  O  O12  1  0.96770900  0.53229100  0.96770900  1
  O  O13  1  0.00000000  0.00000000  0.00000000  1
loop_
_geom_bond_atom_site_label_1
_geom_bond_atom_site_label_2
_geom_bond_distance
_geom_bond_site_symmetry_2
Er0 O1 2.282355 1_555
Er0 O13 2.282355 1_655
Er0 O8 2.494420 1_555
Er0 O2 2.494420 1_545
Er0 O5 2.494420 1_554
Er0 O7 2.494420 1_545
Er0 O11 2.494420 1_554
Er0 O6 2.494420 1_544
Er1 O1 2.282355 1_555
Er1 O13 2.282355 1_565
Er1 O0 2.494420 1_555
Er1 O9 2.494420 1_455
Er1 O5 2.494420 1_554
Er1 O4 2.494420 1_554
Er1 O7 2.494420 1_455
Er1 O12 2.494420 1_454
Er2 O1 2.282355 1_555
Er2 O13 2.282355 1_555
Er2 O6 2.494420 1_544
Er2 O12 2.494420 1_454
Er2 O10 2.494420 1_445
Er2 O3 2.494420 1_554
Er2 O8 2.494420 1_455
Er2 O0 2.494420 1_545
Er3 O1 2.282355 1_555
Er3 O13 2.282355 1_556
Er3 O3 2.494420 1_555
Er3 O9 2.494420 1_455
Er3 O2 2.494420 1_545
Er3 O4 2.494420 1_545
Er3 O11 2.494420 1_455
Er3 O10 2.494420 1_445
O0 Zr3 2.104260 1_555
O0 Zr0 2.104260 1_555
O2 Zr1 2.104260 1_555
O2 Zr2 2.104260 1_565
O3 Zr3 2.104260 1_555
O3 Zr2 2.104260 1_555
O4 Zr3 2.104260 1_555
O4 Zr1 2.104260 1_555
O5 Zr1 2.104260 1_555
O5 Zr0 2.104260 1_556
O6 Zr0 2.104260 1_556
O6 Zr2 2.104260 1_565
O7 Zr0 2.104260 1_555
O7 Zr1 2.104260 1_555
O8 Zr2 2.104260 1_555
O8 Zr0 2.104260 1_555
O9 Zr1 2.104260 1_555
O9 Zr3 2.104260 1_655
O10 Zr3 2.104260 1_655
O10 Zr2 2.104260 1_565
O11 Zr2 2.104260 1_555
O11 Zr1 2.104260 1_555
O12 Zr0 2.104260 1_556
O12 Zr3 2.104260 1_655
