# generated using pymatgen
data_Li2VCr(P2O7)2
_symmetry_space_group_name_H-M   'P 1'
_cell_length_a   4.87931773
_cell_length_b   10.84721681
_cell_length_c   10.80258903
_cell_angle_alpha   99.09234577
_cell_angle_beta   101.78686070
_cell_angle_gamma   102.06207997
_symmetry_Int_Tables_number   1
_chemical_formula_structural   Li2VCr(P2O7)2
_chemical_formula_sum   'Li4 V2 Cr2 P8 O28'
_cell_volume   535.17048951
_cell_formula_units_Z   2
loop_
 _symmetry_equiv_pos_site_id
 _symmetry_equiv_pos_as_xyz
  1  'x, y, z'
loop_
 _atom_site_type_symbol
 _atom_site_label
 _atom_site_symmetry_multiplicity
 _atom_site_fract_x
 _atom_site_fract_y
 _atom_site_fract_z
 _atom_site_occupancy
  Li  Li0  1  0.17998100  0.76812000  0.90619900  1
  Li  Li1  1  0.17983300  0.26807300  0.40615100  1
  Li  Li2  1  0.82191800  0.34397800  0.98241700  1
  Li  Li3  1  0.82204600  0.84403100  0.48248400  1
  V  V0  1  0.21584600  0.11489800  0.61535100  1
  V  V1  1  0.21599200  0.61489600  0.11533200  1
  Cr  Cr0  1  0.78622500  0.63633300  0.63645500  1
  Cr  Cr1  1  0.78603900  0.13637400  0.13660500  1
  P  P0  1  0.39911500  0.35039000  0.17074800  1
  P  P1  1  0.39925200  0.85044400  0.67076300  1
  P  P2  1  0.21316300  0.43668400  0.64976600  1
  P  P3  1  0.21300400  0.93669000  0.14976500  1
  P  P4  1  0.78428100  0.59763600  0.31661200  1
  P  P5  1  0.78428700  0.09770300  0.81670800  1
  P  P6  1  0.60031700  0.57831000  0.89728000  1
  P  P7  1  0.60014700  0.07825300  0.39729900  1
  O  O0  1  0.04904900  0.58736200  0.26543800  1
  O  O1  1  0.04884000  0.08740400  0.76537500  1
  O  O2  1  0.13440200  0.79188400  0.09312300  1
  O  O3  1  0.13465300  0.29189400  0.59315800  1
  O  O4  1  0.18542200  0.25931400  0.22203800  1
  O  O5  1  0.18542200  0.75934500  0.72198400  1
  O  O6  1  0.24798700  0.42539400  0.08120500  1
  O  O7  1  0.24813400  0.92548900  0.58126400  1
  O  O8  1  0.40086300  0.64262800  0.96339300  1
  O  O9  1  0.40065100  0.14255500  0.46337000  1
  O  O10  1  0.60145400  0.67494900  0.24353600  1
  O  O11  1  0.60133500  0.17504700  0.74377700  1
  O  O12  1  0.59248600  0.45186700  0.30115900  1
  O  O13  1  0.59260900  0.95188400  0.80116900  1
  O  O14  1  0.40356000  0.44967600  0.79664500  1
  O  O15  1  0.40334500  0.94961500  0.29659000  1
  O  O16  1  0.40186200  0.51122200  0.57509500  1
  O  O17  1  0.40182400  0.01121500  0.07510900  1
  O  O18  1  0.60256400  0.28625100  0.10787400  1
  O  O19  1  0.60256800  0.78625300  0.60784300  1
  O  O20  1  0.75290600  0.66773900  0.82151500  1
  O  O21  1  0.75273700  0.16775400  0.32158600  1
  O  O22  1  0.81495800  0.52829100  0.98871200  1
  O  O23  1  0.81475200  0.02817700  0.48863600  1
  O  O24  1  0.86490300  0.15381200  0.96217100  1
  O  O25  1  0.86447100  0.65386500  0.46202600  1
  O  O26  1  0.94744700  0.48591300  0.66034700  1
  O  O27  1  0.94735100  0.98596900  0.16035100  1
loop_
_geom_bond_atom_site_label_1
_geom_bond_atom_site_label_2
_geom_bond_distance
_geom_bond_site_symmetry_2
Li0 O5 1.983087 1_555
Li0 O8 2.000794 1_555
Li0 O2 2.058214 1_556
Li0 O20 2.079160 1_455
Li1 O4 1.982171 1_555
Li1 O9 2.000922 1_555
Li1 O3 2.058441 1_555
Li1 O21 2.078882 1_455
Li2 O18 1.988738 1_556
Li2 O22 1.997314 1_555
Li2 O6 2.066188 1_656
Li2 O24 2.098529 1_555
Li3 O19 1.988390 1_555
Li3 O23 1.996071 1_565
Li3 O7 2.066304 1_655
Li3 O25 2.097569 1_555
Cr0 O26 1.983500 1_555
Cr0 O16 1.985556 1_555
Cr0 O20 2.019821 1_555
Cr0 O25 2.027133 1_555
Cr0 O19 2.048879 1_555
Cr0 O5 2.053521 1_655
Cr1 O27 1.983306 1_545
Cr1 O17 1.985301 1_555
Cr1 O21 2.018950 1_555
Cr1 O24 2.028065 1_554
Cr1 O18 2.048187 1_555
Cr1 O4 2.053720 1_655
O0 P4 1.522979 1_455
O0 V1 1.993264 1_555
O1 P5 1.522950 1_455
O1 V0 1.992532 1_555
O2 P3 1.528826 1_555
O2 V1 2.080328 1_555
O3 P2 1.528620 1_555
O3 V0 2.079677 1_555
O4 P0 1.532531 1_555
O5 P1 1.532636 1_555
O6 P0 1.532776 1_555
O6 V1 2.074553 1_555
O7 P1 1.532785 1_555
O7 V0 2.074007 1_565
O8 P6 1.534335 1_555
O8 V1 2.060501 1_556
O9 P7 1.534177 1_555
O9 V0 2.060583 1_555
O10 P4 1.535078 1_555
O10 V1 2.004598 1_555
O11 P5 1.534936 1_555
O11 V0 2.005790 1_555
O12 P0 1.618428 1_555
O12 P4 1.624227 1_555
O13 P1 1.618206 1_555
O13 P5 1.624324 1_565
O14 P6 1.607720 1_555
O14 P2 1.634886 1_555
O15 P7 1.608142 1_565
O15 P3 1.634435 1_555
O16 P2 1.533146 1_555
O17 P3 1.533312 1_545
O18 P0 1.531519 1_555
O19 P1 1.531522 1_555
O20 P6 1.537282 1_555
O21 P7 1.537353 1_555
O22 P6 1.533306 1_555
O22 V1 2.077149 1_656
O23 P7 1.532992 1_555
O23 V0 2.077953 1_655
O24 P5 1.529553 1_555
O25 P4 1.529384 1_555
O26 P2 1.519794 1_655
O27 P3 1.519796 1_655
