# generated using pymatgen
data_Li3Cr(Si2O5)3
_symmetry_space_group_name_H-M   'P 1'
_cell_length_a   7.88768100
_cell_length_b   9.80678400
_cell_length_c   14.93311400
_cell_angle_alpha   90.00000000
_cell_angle_beta   90.00000000
_cell_angle_gamma   90.00000000
_symmetry_Int_Tables_number   1
_chemical_formula_structural   Li3Cr(Si2O5)3
_chemical_formula_sum   'Li12 Cr4 Si24 O60'
_cell_volume   1155.11793912
_cell_formula_units_Z   4
loop_
 _symmetry_equiv_pos_site_id
 _symmetry_equiv_pos_as_xyz
  1  'x, y, z'
loop_
 _atom_site_type_symbol
 _atom_site_label
 _atom_site_symmetry_multiplicity
 _atom_site_fract_x
 _atom_site_fract_y
 _atom_site_fract_z
 _atom_site_occupancy
  Li  Li0  1  0.75000000  0.07874700  0.94156800  1
  Li  Li1  1  0.75000000  0.42125300  0.44156800  1
  Li  Li2  1  0.99963900  0.50107800  0.75834400  1
  Li  Li3  1  0.50036100  0.50107800  0.75834400  1
  Li  Li4  1  0.00036100  0.49892200  0.24165600  1
  Li  Li5  1  0.49963900  0.49892200  0.24165600  1
  Li  Li6  1  0.25000000  0.57874700  0.55843200  1
  Li  Li7  1  0.25000000  0.92125300  0.05843200  1
  Li  Li8  1  0.00036100  0.00107800  0.74165600  1
  Li  Li9  1  0.49963900  0.00107800  0.74165600  1
  Li  Li10  1  0.99963900  0.99892200  0.25834400  1
  Li  Li11  1  0.50036100  0.99892200  0.25834400  1
  Cr  Cr0  1  0.75000000  0.25196500  0.74995500  1
  Cr  Cr1  1  0.75000000  0.24803500  0.24995500  1
  Cr  Cr2  1  0.25000000  0.75196500  0.75004500  1
  Cr  Cr3  1  0.25000000  0.74803500  0.25004500  1
  Si  Si0  1  0.25000000  0.02628200  0.59788300  1
  Si  Si1  1  0.25000000  0.02393200  0.40116900  1
  Si  Si2  1  0.44028500  0.20624300  0.89940500  1
  Si  Si3  1  0.05971500  0.20624300  0.89940500  1
  Si  Si4  1  0.05671800  0.20351900  0.10010900  1
  Si  Si5  1  0.44328200  0.20351900  0.10010900  1
  Si  Si6  1  0.05671800  0.29648100  0.60010900  1
  Si  Si7  1  0.44328200  0.29648100  0.60010900  1
  Si  Si8  1  0.44028500  0.29375700  0.39940500  1
  Si  Si9  1  0.05971500  0.29375700  0.39940500  1
  Si  Si10  1  0.25000000  0.47606800  0.90116900  1
  Si  Si11  1  0.25000000  0.47371800  0.09788300  1
  Si  Si12  1  0.75000000  0.52393200  0.09883100  1
  Si  Si13  1  0.75000000  0.52628200  0.90211700  1
  Si  Si14  1  0.55971500  0.70624300  0.60059500  1
  Si  Si15  1  0.94028500  0.70624300  0.60059500  1
  Si  Si16  1  0.94328200  0.70351900  0.39989100  1
  Si  Si17  1  0.55671800  0.70351900  0.39989100  1
  Si  Si18  1  0.94328200  0.79648100  0.89989100  1
  Si  Si19  1  0.55971500  0.79375700  0.10059500  1
  Si  Si20  1  0.94028500  0.79375700  0.10059500  1
  Si  Si21  1  0.55671800  0.79648100  0.89989100  1
  Si  Si22  1  0.75000000  0.97371800  0.40211700  1
  Si  Si23  1  0.75000000  0.97606800  0.59883100  1
  O  O0  1  0.75000000  0.04863300  0.50012300  1
  O  O1  1  0.75000000  0.07476900  0.68314600  1
  O  O2  1  0.75000000  0.07143800  0.31734300  1
  O  O3  1  0.41413900  0.13093400  0.60416400  1
  O  O4  1  0.08586100  0.13093400  0.60416400  1
  O  O5  1  0.41528200  0.12789000  0.39418900  1
  O  O6  1  0.08471800  0.12789000  0.39418900  1
  O  O7  1  0.25000000  0.13678500  0.89106400  1
  O  O8  1  0.25000000  0.13004900  0.10148700  1
  O  O9  1  0.92581200  0.15083300  0.82770400  1
  O  O10  1  0.57418800  0.15083300  0.82770400  1
  O  O11  1  0.93846100  0.15388900  0.17989000  1
  O  O12  1  0.56153900  0.15388900  0.17989000  1
  O  O13  1  0.52061600  0.16322200  0.99931800  1
  O  O14  1  0.97938400  0.16322200  0.99931800  1
  O  O15  1  0.52061600  0.33677800  0.49931800  1
  O  O16  1  0.97938400  0.33677800  0.49931800  1
  O  O17  1  0.92581200  0.34916700  0.32770400  1
  O  O18  1  0.93846100  0.34611100  0.67989000  1
  O  O19  1  0.56153900  0.34611100  0.67989000  1
  O  O20  1  0.57418800  0.34916700  0.32770400  1
  O  O21  1  0.25000000  0.36995100  0.60148700  1
  O  O22  1  0.25000000  0.36321500  0.39106400  1
  O  O23  1  0.08471800  0.37211000  0.89418900  1
  O  O24  1  0.08586100  0.36906600  0.10416400  1
  O  O25  1  0.41413900  0.36906600  0.10416400  1
  O  O26  1  0.41528200  0.37211000  0.89418900  1
  O  O27  1  0.75000000  0.42856200  0.81734300  1
  O  O28  1  0.75000000  0.42523100  0.18314600  1
  O  O29  1  0.75000000  0.45136700  0.00012300  1
  O  O30  1  0.25000000  0.54863300  0.99987700  1
  O  O31  1  0.25000000  0.57476900  0.81685400  1
  O  O32  1  0.25000000  0.57143800  0.18265700  1
  O  O33  1  0.91528200  0.62789000  0.10581100  1
  O  O34  1  0.58471800  0.62789000  0.10581100  1
  O  O35  1  0.91413900  0.63093400  0.89583600  1
  O  O36  1  0.58586100  0.63093400  0.89583600  1
  O  O37  1  0.75000000  0.63004900  0.39851300  1
  O  O38  1  0.75000000  0.63678500  0.60893600  1
  O  O39  1  0.43846100  0.65388900  0.32011000  1
  O  O40  1  0.06153900  0.65388900  0.32011000  1
  O  O41  1  0.42581200  0.65083300  0.67229600  1
  O  O42  1  0.07418800  0.65083300  0.67229600  1
  O  O43  1  0.02061600  0.66322200  0.50068200  1
  O  O44  1  0.47938400  0.66322200  0.50068200  1
  O  O45  1  0.02061600  0.83677800  0.00068200  1
  O  O46  1  0.47938400  0.83677800  0.00068200  1
  O  O47  1  0.43846100  0.84611100  0.82011000  1
  O  O48  1  0.06153900  0.84611100  0.82011000  1
  O  O49  1  0.42581200  0.84916700  0.17229600  1
  O  O50  1  0.07418800  0.84916700  0.17229600  1
  O  O51  1  0.75000000  0.86995100  0.89851300  1
  O  O52  1  0.75000000  0.86321500  0.10893600  1
  O  O53  1  0.58586100  0.86906600  0.39583600  1
  O  O54  1  0.91528200  0.87211000  0.60581100  1
  O  O55  1  0.58471800  0.87211000  0.60581100  1
  O  O56  1  0.91413900  0.86906600  0.39583600  1
  O  O57  1  0.25000000  0.92856200  0.68265700  1
  O  O58  1  0.25000000  0.92523100  0.31685400  1
  O  O59  1  0.25000000  0.95136700  0.49987700  1
loop_
_geom_bond_atom_site_label_1
_geom_bond_atom_site_label_2
_geom_bond_distance
_geom_bond_site_symmetry_2
Li0 O51 2.146186 1_545
Li0 O14 2.168778 1_555
Li0 O13 2.168778 1_555
Li0 O10 2.305210 1_555
Li0 O9 2.305210 1_555
Li1 O37 2.146186 1_555
Li1 O16 2.168778 1_555
Li1 O15 2.168778 1_555
Li1 O17 2.305210 1_555
Li1 O20 2.305210 1_555
Li2 O18 1.978633 1_555
Li2 O42 2.038070 1_655
Li2 O27 2.271389 1_555
Li2 O31 2.277142 1_655
Li2 O23 2.482969 1_655
Li2 O35 2.508406 1_555
Li3 O19 1.978633 1_555
Li3 O41 2.038070 1_555
Li3 O27 2.271389 1_555
Li3 O31 2.277142 1_555
Li3 O26 2.482969 1_555
Li3 O36 2.508406 1_555
Li4 O40 1.978633 1_555
Li4 O17 2.038070 1_455
Li4 O32 2.271389 1_555
Li4 O28 2.277142 1_455
Li4 O33 2.482969 1_455
Li4 O24 2.508406 1_555
Li5 O39 1.978633 1_555
Li5 O20 2.038070 1_555
Li5 O32 2.271389 1_555
Li5 O28 2.277142 1_555
Li5 O34 2.482969 1_555
Li5 O25 2.508406 1_555
Li6 O21 2.146186 1_555
Li6 O43 2.168778 1_555
Li6 O44 2.168778 1_555
Li6 O42 2.305210 1_555
Li6 O41 2.305210 1_555
Li7 O8 2.146186 1_565
Li7 O46 2.168778 1_555
Li7 O45 2.168778 1_555
Li7 O50 2.305210 1_555
Li7 O49 2.305210 1_555
Li8 O48 1.978633 1_545
Li8 O9 2.038070 1_455
Li8 O57 2.271389 1_545
Li8 O1 2.277142 1_455
Li8 O54 2.482969 1_445
Li8 O4 2.508406 1_555
Li9 O47 1.978633 1_545
Li9 O10 2.038070 1_555
Li9 O57 2.271389 1_545
Li9 O1 2.277142 1_555
Li9 O55 2.482969 1_545
Li9 O3 2.508406 1_555
Li10 O11 1.978633 1_565
Li10 O50 2.038070 1_655
Li10 O2 2.271389 1_565
Li10 O58 2.277142 1_655
Li10 O6 2.482969 1_665
Li10 O56 2.508406 1_555
Li11 O12 1.978633 1_565
Li11 O49 2.038070 1_555
Li11 O2 2.271389 1_565
Li11 O58 2.277142 1_555
Li11 O5 2.482969 1_565
Li11 O53 2.508406 1_555
Cr0 O27 2.002989 1_555
Cr0 O1 2.003751 1_555
Cr0 O18 2.038845 1_555
Cr0 O19 2.038845 1_555
Cr0 O9 2.062693 1_555
Cr0 O10 2.062693 1_555
Cr1 O2 2.002989 1_555
Cr1 O28 2.003751 1_555
Cr1 O12 2.038845 1_555
Cr1 O11 2.038845 1_555
Cr1 O17 2.062693 1_555
Cr1 O20 2.062693 1_555
Cr2 O57 2.002989 1_555
Cr2 O31 2.003751 1_555
Cr2 O48 2.038845 1_555
Cr2 O47 2.038845 1_555
Cr2 O41 2.062693 1_555
Cr2 O42 2.062693 1_555
Cr3 O32 2.002989 1_555
Cr3 O58 2.003751 1_555
Cr3 O40 2.038845 1_555
Cr3 O39 2.038845 1_555
Cr3 O50 2.062693 1_555
Cr3 O49 2.062693 1_555
O0 Si23 1.636809 1_545
O0 Si22 1.637584 1_545
O1 Si23 1.588145 1_545
O2 Si22 1.587759 1_545
O3 Si7 1.640794 1_555
O3 Si0 1.654773 1_555
O4 Si6 1.640794 1_555
O4 Si0 1.654773 1_555
O5 Si8 1.640384 1_555
O5 Si1 1.658265 1_555
O6 Si9 1.640384 1_555
O6 Si1 1.658265 1_555
O7 Si2 1.652942 1_555
O7 Si3 1.652942 1_555
O8 Si5 1.686355 1_555
O8 Si4 1.686355 1_555
O9 Si3 1.599138 1_655
O10 Si2 1.599138 1_555
O11 Si4 1.589446 1_655
O12 Si5 1.589446 1_555
O13 Si5 1.671422 1_556
O13 Si2 1.674986 1_555
O14 Si4 1.671422 1_656
O14 Si3 1.674986 1_655
O15 Si7 1.671422 1_555
O15 Si8 1.674986 1_555
O16 Si6 1.671422 1_655
O16 Si9 1.674986 1_655
O17 Si9 1.599138 1_655
O18 Si6 1.589446 1_655
O19 Si7 1.589446 1_555
O20 Si8 1.599138 1_555
O21 Si7 1.686355 1_555
O21 Si6 1.686355 1_555
O22 Si8 1.652942 1_555
O22 Si9 1.652942 1_555
O23 Si3 1.640384 1_555
O23 Si10 1.658265 1_555
O24 Si4 1.640794 1_555
O24 Si11 1.654773 1_555
O25 Si5 1.640794 1_555
O25 Si11 1.654773 1_555
O26 Si2 1.640384 1_555
O26 Si10 1.658265 1_555
O27 Si13 1.587759 1_555
O28 Si12 1.588145 1_555
O29 Si12 1.636809 1_555
O29 Si13 1.637584 1_554
O30 Si10 1.636809 1_555
O30 Si11 1.637584 1_556
O31 Si10 1.588145 1_555
O32 Si11 1.587759 1_555
O33 Si20 1.640384 1_555
O33 Si12 1.658265 1_555
O34 Si19 1.640384 1_555
O34 Si12 1.658265 1_555
O35 Si18 1.640794 1_555
O35 Si13 1.654773 1_555
O36 Si21 1.640794 1_555
O36 Si13 1.654773 1_555
O37 Si17 1.686355 1_555
O37 Si16 1.686355 1_555
O38 Si14 1.652942 1_555
O38 Si15 1.652942 1_555
O39 Si17 1.589446 1_555
O40 Si16 1.589446 1_455
O41 Si14 1.599138 1_555
O42 Si15 1.599138 1_455
O43 Si16 1.671422 1_455
O43 Si15 1.674986 1_455
O44 Si17 1.671422 1_555
O44 Si14 1.674986 1_555
O45 Si18 1.671422 1_454
O45 Si20 1.674986 1_455
O46 Si21 1.671422 1_554
O46 Si19 1.674986 1_555
O47 Si21 1.589446 1_555
O48 Si18 1.589446 1_455
O49 Si19 1.599138 1_555
O50 Si20 1.599138 1_455
O51 Si21 1.686355 1_555
O51 Si18 1.686355 1_555
O52 Si19 1.652942 1_555
O52 Si20 1.652942 1_555
O53 Si17 1.640794 1_555
O53 Si22 1.654773 1_555
O54 Si15 1.640384 1_555
O54 Si23 1.658265 1_555
O55 Si14 1.640384 1_555
O55 Si23 1.658265 1_555
O56 Si16 1.640794 1_555
O56 Si22 1.654773 1_555
O57 Si0 1.587759 1_565
O58 Si1 1.588145 1_565
O59 Si1 1.636809 1_565
O59 Si0 1.637584 1_565
