# generated using pymatgen
data_K2C6Se2S6N6O
_symmetry_space_group_name_H-M   'P 1'
_cell_length_a   8.86311800
_cell_length_b   9.14263843
_cell_length_c   13.36847834
_cell_angle_alpha   83.42021701
_cell_angle_beta   71.30797613
_cell_angle_gamma   78.80741346
_symmetry_Int_Tables_number   1
_chemical_formula_structural   K2C6Se2S6N6O
_chemical_formula_sum   'K4 C12 Se4 S12 N12 O2'
_cell_volume   1005.02334773
_cell_formula_units_Z   2
loop_
 _symmetry_equiv_pos_site_id
 _symmetry_equiv_pos_as_xyz
  1  'x, y, z'
loop_
 _atom_site_type_symbol
 _atom_site_label
 _atom_site_symmetry_multiplicity
 _atom_site_fract_x
 _atom_site_fract_y
 _atom_site_fract_z
 _atom_site_occupancy
  K  K0  1  0.26782500  0.05998900  0.48442800  1
  K  K1  1  0.73217500  0.94001100  0.51557200  1
  K  K2  1  0.82824000  0.41019000  0.48364200  1
  K  K3  1  0.17176000  0.58981000  0.51635800  1
  C  C0  1  0.27576700  0.56674100  0.76953200  1
  C  C1  1  0.72423300  0.43325900  0.23046800  1
  C  C2  1  0.01632200  0.27178100  0.73864300  1
  C  C3  1  0.98367800  0.72821900  0.26135700  1
  C  C4  1  0.96958600  0.88278100  0.71061400  1
  C  C5  1  0.03041400  0.11721900  0.28938600  1
  C  C6  1  0.73479600  0.60896500  0.74102500  1
  C  C7  1  0.26520400  0.39103500  0.25897500  1
  C  C8  1  0.62700000  0.22525800  0.72518700  1
  C  C9  1  0.37300000  0.77474200  0.27481300  1
  C  C10  1  0.34865300  0.94594900  0.74394200  1
  C  C11  1  0.65134700  0.05405100  0.25605800  1
  Se  Se0  1  0.23024600  0.25628000  0.88374800  1
  Se  Se1  1  0.76975400  0.74372000  0.11625200  1
  Se  Se2  1  0.62413500  0.89486700  0.86458000  1
  Se  Se3  1  0.37586500  0.10513300  0.13542000  1
  S  S0  1  0.21169500  0.51277400  0.89758200  1
  S  S1  1  0.78830500  0.48722600  0.10241800  1
  S  S2  1  0.97406700  0.26265600  0.87059500  1
  S  S3  1  0.02593300  0.73734400  0.12940500  1
  S  S4  1  0.90444500  0.87197300  0.84263900  1
  S  S5  1  0.09555500  0.12802700  0.15736100  1
  S  S6  1  0.63509600  0.62932700  0.86830400  1
  S  S7  1  0.36490400  0.37067300  0.13169600  1
  S  S8  1  0.59459900  0.21499300  0.85404900  1
  S  S9  1  0.40540100  0.78500700  0.14595100  1
  S  S10  1  0.29289000  0.92824100  0.87464800  1
  S  S11  1  0.70711000  0.07175900  0.12535200  1
  N  N0  1  0.31818800  0.60346900  0.67918900  1
  N  N1  1  0.68181200  0.39653100  0.32081100  1
  N  N2  1  0.04228600  0.27846600  0.64652600  1
  N  N3  1  0.95771400  0.72153400  0.35347400  1
  N  N4  1  0.01796100  0.88723500  0.61766300  1
  N  N5  1  0.98203900  0.11276500  0.38233700  1
  N  N6  1  0.80945900  0.59665100  0.65128500  1
  N  N7  1  0.19054100  0.40334900  0.34871500  1
  N  N8  1  0.65028400  0.22630400  0.63296400  1
  N  N9  1  0.34971600  0.77369600  0.36703600  1
  N  N10  1  0.39116500  0.96218400  0.65107000  1
  N  N11  1  0.60883500  0.03781600  0.34893000  1
  O  O0  1  0.40434700  0.31863700  0.50993100  1
  O  O1  1  0.59565200  0.68136300  0.49006900  1
loop_
_geom_bond_atom_site_label_1
_geom_bond_atom_site_label_2
_geom_bond_distance
_geom_bond_site_symmetry_2
K0 N10 2.771720 1_545
K0 O0 2.955045 1_555
K0 N4 2.959109 1_545
K0 N11 2.965535 1_555
K0 N9 3.051983 1_545
K0 N2 3.057289 1_555
K0 N5 3.178328 1_455
K1 N11 2.771720 1_565
K1 O1 2.955050 1_555
K1 N5 2.959109 1_565
K1 N10 2.965535 1_555
K1 N8 3.051983 1_565
K1 N3 3.057289 1_555
K1 N4 3.178328 1_655
K2 N8 2.746128 1_555
K2 O1 2.890464 1_555
K2 N1 2.893847 1_555
K2 N6 2.912530 1_555
K2 N5 3.050945 1_555
K2 N7 3.131154 1_655
K2 N2 3.309203 1_655
K2 N3 3.361630 1_555
K3 N9 2.746128 1_555
K3 O0 2.890459 1_555
K3 N0 2.893847 1_555
K3 N7 2.912530 1_555
K3 N4 3.050945 1_555
K3 N6 3.131154 1_455
K3 N3 3.309203 1_455
K3 N2 3.361630 1_555
C0 N0 1.173793 1_555
C0 S0 1.669858 1_555
C1 N1 1.173793 1_555
C1 S1 1.669858 1_555
C2 N2 1.174635 1_555
C2 S2 1.677458 1_455
C3 N3 1.174635 1_555
C3 S3 1.677458 1_655
C4 N4 1.176125 1_655
C4 S4 1.669510 1_555
C5 N5 1.176125 1_455
C5 S5 1.669510 1_555
C6 N6 1.176015 1_555
C6 S6 1.660029 1_555
C7 N7 1.176015 1_555
C7 S7 1.660029 1_555
C8 N8 1.182227 1_555
C8 S8 1.647803 1_555
C9 N9 1.182227 1_555
C9 S9 1.647803 1_555
C10 N10 1.176902 1_555
C10 S10 1.654200 1_555
C11 N11 1.176902 1_555
C11 S11 1.654200 1_555
S0 Se0 2.343209 1_555
S1 Se1 2.343209 1_555
S2 Se0 2.322037 1_655
S3 Se1 2.322037 1_455
S4 Se2 2.376405 1_555
S5 Se3 2.376405 1_555
S6 Se2 2.406171 1_555
S7 Se3 2.406171 1_555
S8 Se2 2.878582 1_545
S9 Se3 2.878582 1_565
S10 Se2 2.852873 1_555
S11 Se3 2.852873 1_555
