# generated using pymatgen
data_Li3Fe(PO4)2
_symmetry_space_group_name_H-M   'P 1'
_cell_length_a   5.02956000
_cell_length_b   12.38184800
_cell_length_c   18.11121100
_cell_angle_alpha   90.00000000
_cell_angle_beta   90.00000000
_cell_angle_gamma   90.00000000
_symmetry_Int_Tables_number   1
_chemical_formula_structural   Li3Fe(PO4)2
_chemical_formula_sum   'Li24 Fe8 P16 O64'
_cell_volume   1127.88014623
_cell_formula_units_Z   8
loop_
 _symmetry_equiv_pos_site_id
 _symmetry_equiv_pos_as_xyz
  1  'x, y, z'
loop_
 _atom_site_type_symbol
 _atom_site_label
 _atom_site_symmetry_multiplicity
 _atom_site_fract_x
 _atom_site_fract_y
 _atom_site_fract_z
 _atom_site_occupancy
  Li  Li0  1  0.06788700  0.35943500  0.75620500  1
  Li  Li1  1  0.06788700  0.14056500  0.25620500  1
  Li  Li2  1  0.06859400  0.46415900  0.94633200  1
  Li  Li3  1  0.06859400  0.03584100  0.44633200  1
  Li  Li4  1  0.03835800  0.70962700  0.58065000  1
  Li  Li5  1  0.03835800  0.79037300  0.08065000  1
  Li  Li6  1  0.46535400  0.03913300  0.17983100  1
  Li  Li7  1  0.46535400  0.46086700  0.67983100  1
  Li  Li8  1  0.40988600  0.71057700  0.32192600  1
  Li  Li9  1  0.40988600  0.78942300  0.82192600  1
  Li  Li10  1  0.45231200  0.61425700  0.50764500  1
  Li  Li11  1  0.45231200  0.88574300  0.00764500  1
  Li  Li12  1  0.54768800  0.11425700  0.50764500  1
  Li  Li13  1  0.54768800  0.38574300  0.00764500  1
  Li  Li14  1  0.59011400  0.28942300  0.82192600  1
  Li  Li15  1  0.59011400  0.21057700  0.32192600  1
  Li  Li16  1  0.53464600  0.53913300  0.17983100  1
  Li  Li17  1  0.53464600  0.96086700  0.67983100  1
  Li  Li18  1  0.96164200  0.29037300  0.08065000  1
  Li  Li19  1  0.96164200  0.20962700  0.58065000  1
  Li  Li20  1  0.93140600  0.96415900  0.94633200  1
  Li  Li21  1  0.93140600  0.53584100  0.44633200  1
  Li  Li22  1  0.93211300  0.85943500  0.75620500  1
  Li  Li23  1  0.93211300  0.64056500  0.25620500  1
  Fe  Fe0  1  0.07352300  0.10300100  0.76287800  1
  Fe  Fe1  1  0.07352300  0.39699900  0.26287800  1
  Fe  Fe2  1  0.44485900  0.14757600  0.00800400  1
  Fe  Fe3  1  0.44485900  0.35242400  0.50800400  1
  Fe  Fe4  1  0.55514100  0.64757600  0.00800400  1
  Fe  Fe5  1  0.55514100  0.85242400  0.50800400  1
  Fe  Fe6  1  0.92647700  0.60300100  0.76287800  1
  Fe  Fe7  1  0.92647700  0.89699900  0.26287800  1
  P  P0  1  0.00191900  0.72343600  0.92012100  1
  P  P1  1  0.00191900  0.77656400  0.42012100  1
  P  P2  1  0.03029500  0.96126600  0.59724600  1
  P  P3  1  0.03029500  0.53873400  0.09724600  1
  P  P4  1  0.45347000  0.71455700  0.67360000  1
  P  P5  1  0.45347000  0.78544300  0.17360000  1
  P  P6  1  0.47833900  0.53019700  0.85080500  1
  P  P7  1  0.47833900  0.96980300  0.35080500  1
  P  P8  1  0.52166100  0.03019700  0.85080500  1
  P  P9  1  0.52166100  0.46980300  0.35080500  1
  P  P10  1  0.54653000  0.21455700  0.67360000  1
  P  P11  1  0.54653000  0.28544300  0.17360000  1
  P  P12  1  0.96970500  0.03873400  0.09724600  1
  P  P13  1  0.96970500  0.46126600  0.59724600  1
  P  P14  1  0.99808100  0.22343600  0.92012100  1
  P  P15  1  0.99808100  0.27656400  0.42012100  1
  O  O0  1  0.01542600  0.47710800  0.68188900  1
  O  O1  1  0.01542600  0.02289200  0.18188900  1
  O  O2  1  0.03553600  0.73658800  0.83437400  1
  O  O3  1  0.03553600  0.76341200  0.33437400  1
  O  O4  1  0.09788300  0.10983900  0.94059400  1
  O  O5  1  0.09788300  0.39016100  0.44059400  1
  O  O6  1  0.08104100  0.55612400  0.55169100  1
  O  O7  1  0.08104100  0.94387600  0.05169100  1
  O  O8  1  0.12648000  0.35587800  0.57906500  1
  O  O9  1  0.12648000  0.14412200  0.07906500  1
  O  O10  1  0.15134800  0.70019600  0.69450600  1
  O  O11  1  0.15134800  0.79980400  0.19450600  1
  O  O12  1  0.19787400  0.30513300  0.95274900  1
  O  O13  1  0.19787400  0.19486700  0.45274900  1
  O  O14  1  0.19934300  0.50700100  0.81542000  1
  O  O15  1  0.19934300  0.99299900  0.31542000  1
  O  O16  1  0.28237800  0.74511100  0.95513200  1
  O  O17  1  0.28237800  0.75488900  0.45513200  1
  O  O18  1  0.31741700  0.55139800  0.32148400  1
  O  O19  1  0.31741700  0.94860200  0.82148400  1
  O  O20  1  0.33430400  0.55394500  0.08062800  1
  O  O21  1  0.33430400  0.94605500  0.58062800  1
  O  O22  1  0.38528400  0.11015000  0.68993100  1
  O  O23  1  0.38528400  0.38985000  0.18993100  1
  O  O24  1  0.43129000  0.18953400  0.21657500  1
  O  O25  1  0.43129000  0.31046600  0.71657500  1
  O  O26  1  0.44051400  0.98093300  0.43711000  1
  O  O27  1  0.44051400  0.51906700  0.93711000  1
  O  O28  1  0.45507900  0.72809900  0.58786300  1
  O  O29  1  0.45507900  0.77190100  0.08786300  1
  O  O30  1  0.42417400  0.14367800  0.82900600  1
  O  O31  1  0.42417400  0.35632200  0.32900600  1
  O  O32  1  0.57582600  0.64367800  0.82900600  1
  O  O33  1  0.57582600  0.85632200  0.32900600  1
  O  O34  1  0.54492100  0.27190100  0.08786300  1
  O  O35  1  0.54492100  0.22809900  0.58786300  1
  O  O36  1  0.55948600  0.48093300  0.43711000  1
  O  O37  1  0.55948600  0.01906700  0.93711000  1
  O  O38  1  0.56871000  0.68953400  0.21657500  1
  O  O39  1  0.56871000  0.81046600  0.71657500  1
  O  O40  1  0.61471600  0.61015000  0.68993100  1
  O  O41  1  0.61471600  0.88985000  0.18993100  1
  O  O42  1  0.66569600  0.05394500  0.08062800  1
  O  O43  1  0.66569600  0.44605500  0.58062800  1
  O  O44  1  0.68258300  0.44860200  0.82148400  1
  O  O45  1  0.68258300  0.05139800  0.32148400  1
  O  O46  1  0.71762200  0.25488900  0.45513200  1
  O  O47  1  0.71762200  0.24511100  0.95513200  1
  O  O48  1  0.80065700  0.49299900  0.31542000  1
  O  O49  1  0.80065700  0.00700100  0.81542000  1
  O  O50  1  0.80212600  0.80513300  0.95274900  1
  O  O51  1  0.80212600  0.69486700  0.45274900  1
  O  O52  1  0.84865200  0.20019600  0.69450600  1
  O  O53  1  0.84865200  0.29980400  0.19450600  1
  O  O54  1  0.87352000  0.64412200  0.07906500  1
  O  O55  1  0.87352000  0.85587800  0.57906500  1
  O  O56  1  0.91895900  0.44387600  0.05169100  1
  O  O57  1  0.91895900  0.05612400  0.55169100  1
  O  O58  1  0.90211700  0.60983900  0.94059400  1
  O  O59  1  0.90211700  0.89016100  0.44059400  1
  O  O60  1  0.96446400  0.23658800  0.83437400  1
  O  O61  1  0.96446400  0.26341200  0.33437400  1
  O  O62  1  0.98457400  0.52289200  0.18188900  1
  O  O63  1  0.98457400  0.97710800  0.68188900  1
loop_
_geom_bond_atom_site_label_1
_geom_bond_atom_site_label_2
_geom_bond_distance
_geom_bond_site_symmetry_2
Li0 O0 2.001021 1_555
Li0 O25 2.055113 1_555
Li0 O60 2.142090 1_455
Li0 O14 2.219401 1_555
Li0 O52 2.520322 1_455
Li0 O44 2.524325 1_455
Li1 O1 2.001021 1_555
Li1 O24 2.055113 1_555
Li1 O61 2.142090 1_455
Li1 O15 2.219401 1_545
Li1 O53 2.520322 1_455
Li1 O45 2.524325 1_455
Li2 O58 1.991364 1_455
Li2 O27 1.997306 1_555
Li2 O56 2.066549 1_456
Li2 O12 2.076872 1_555
Li2 O14 2.517015 1_555
Li3 O59 1.991364 1_445
Li3 O26 1.997306 1_545
Li3 O57 2.066549 1_455
Li3 O13 2.076872 1_555
Li3 O15 2.517015 1_545
Li4 O6 1.983341 1_555
Li4 O55 1.991827 1_455
Li4 O28 2.112409 1_555
Li4 O10 2.142130 1_555
Li4 O51 2.609787 1_455
Li5 O7 1.983341 1_555
Li5 O54 1.991827 1_455
Li5 O29 2.112409 1_555
Li5 O11 2.142130 1_555
Li5 O50 2.609787 1_454
Li6 O24 1.984984 1_555
Li6 O41 2.003592 1_545
Li6 O42 2.068101 1_555
Li6 O1 2.272163 1_555
Li7 O25 1.984984 1_555
Li7 O40 2.003592 1_555
Li7 O43 2.068101 1_555
Li7 O0 2.272163 1_555
Li8 O33 1.992376 1_555
Li8 O3 2.005939 1_555
Li8 O18 2.025075 1_555
Li8 O38 2.084847 1_555
Li9 O32 1.992376 1_555
Li9 O2 2.005939 1_555
Li9 O19 2.025075 1_555
Li9 O39 2.084847 1_555
Li10 O28 2.024315 1_555
Li10 O6 2.154389 1_555
Li10 O36 2.155837 1_555
Li10 O17 2.160350 1_555
Li10 O51 2.253937 1_555
Li11 O29 2.024315 1_555
Li11 O7 2.154389 1_555
Li11 O37 2.155837 1_564
Li11 O16 2.160350 1_554
Li11 O50 2.253937 1_554
Li12 O35 2.024315 1_555
Li12 O57 2.154389 1_555
Li12 O26 2.155837 1_545
Li12 O46 2.160350 1_555
Li12 O13 2.253937 1_555
Li13 O34 2.024315 1_555
Li13 O56 2.154389 1_555
Li13 O27 2.155837 1_554
Li13 O47 2.160350 1_554
Li13 O12 2.253937 1_554
Li14 O30 1.992376 1_555
Li14 O60 2.005939 1_555
Li14 O44 2.025075 1_555
Li14 O25 2.084847 1_555
Li15 O31 1.992376 1_555
Li15 O61 2.005939 1_555
Li15 O45 2.025075 1_555
Li15 O24 2.084847 1_555
Li16 O38 1.984984 1_555
Li16 O23 2.003592 1_555
Li16 O20 2.068101 1_555
Li16 O62 2.272163 1_555
Li17 O39 1.984984 1_555
Li17 O22 2.003592 1_565
Li17 O21 2.068101 1_555
Li17 O63 2.272163 1_555
Li18 O56 1.983341 1_555
Li18 O9 1.991827 1_655
Li18 O34 2.112409 1_555
Li18 O53 2.142130 1_555
Li18 O12 2.609787 1_654
Li19 O57 1.983341 1_555
Li19 O8 1.991827 1_655
Li19 O35 2.112409 1_555
Li19 O52 2.142130 1_555
Li19 O13 2.609787 1_655
Li20 O4 1.991364 1_665
Li20 O37 1.997306 1_565
Li20 O7 2.066549 1_656
Li20 O50 2.076872 1_555
Li20 O49 2.517015 1_565
Li21 O5 1.991364 1_655
Li21 O36 1.997306 1_555
Li21 O6 2.066549 1_655
Li21 O51 2.076872 1_555
Li21 O48 2.517015 1_555
Li22 O63 2.001021 1_555
Li22 O39 2.055113 1_555
Li22 O2 2.142090 1_655
Li22 O49 2.219401 1_565
Li22 O10 2.520322 1_655
Li22 O19 2.524325 1_655
Li23 O62 2.001021 1_555
Li23 O38 2.055113 1_555
Li23 O3 2.142090 1_655
Li23 O48 2.219401 1_555
Li23 O11 2.520322 1_655
Li23 O18 2.524325 1_655
Fe0 O49 2.049858 1_455
Fe0 O22 2.052312 1_555
Fe0 O52 2.064183 1_455
Fe0 O60 2.171055 1_455
Fe0 O63 2.186662 1_445
Fe0 O30 2.190528 1_555
Fe0 O19 2.507217 1_545
Fe1 O48 2.049858 1_455
Fe1 O23 2.052312 1_555
Fe1 O53 2.064183 1_455
Fe1 O61 2.171055 1_455
Fe1 O62 2.186662 1_455
Fe1 O31 2.190528 1_555
Fe1 O18 2.507217 1_555
Fe2 O9 2.054843 1_555
Fe2 O47 2.063359 1_554
Fe2 O42 2.075513 1_555
Fe2 O37 2.124341 1_554
Fe2 O34 2.171372 1_555
Fe2 O4 2.180451 1_554
Fe2 O12 2.520000 1_554
Fe3 O8 2.054843 1_555
Fe3 O46 2.063359 1_555
Fe3 O43 2.075513 1_555
Fe3 O36 2.124341 1_555
Fe3 O35 2.171372 1_555
Fe3 O5 2.180451 1_555
Fe3 O13 2.520000 1_555
Fe4 O54 2.054843 1_555
Fe4 O16 2.063359 1_554
Fe4 O20 2.075513 1_555
Fe4 O27 2.124341 1_554
Fe4 O29 2.171372 1_555
Fe4 O58 2.180451 1_554
Fe4 O50 2.520000 1_554
Fe5 O55 2.054843 1_555
Fe5 O17 2.063359 1_555
Fe5 O21 2.075513 1_555
Fe5 O26 2.124341 1_555
Fe5 O28 2.171372 1_555
Fe5 O59 2.180451 1_555
Fe5 O51 2.520000 1_555
Fe6 O14 2.049858 1_655
Fe6 O40 2.052312 1_555
Fe6 O10 2.064183 1_655
Fe6 O2 2.171055 1_655
Fe6 O0 2.186662 1_655
Fe6 O32 2.190528 1_555
Fe6 O44 2.507217 1_555
Fe7 O15 2.049858 1_655
Fe7 O41 2.052312 1_555
Fe7 O11 2.064183 1_655
Fe7 O3 2.171055 1_655
Fe7 O1 2.186662 1_665
Fe7 O33 2.190528 1_555
Fe7 O45 2.507217 1_565
O0 P13 1.562500 1_455
O1 P12 1.562500 1_455
O2 P0 1.570624 1_555
O3 P1 1.570624 1_555
O4 P14 1.538768 1_455
O5 P15 1.538768 1_455
O6 P13 1.540706 1_455
O7 P12 1.540706 1_465
O8 P13 1.559786 1_455
O9 P12 1.559786 1_455
O10 P4 1.576066 1_555
O11 P5 1.576066 1_555
O12 P14 1.543444 1_455
O13 P15 1.543444 1_455
O14 P6 1.569154 1_555
O15 P7 1.569154 1_555
O16 P0 1.569665 1_555
O17 P1 1.569665 1_555
O18 P9 1.535565 1_555
O19 P8 1.535565 1_565
O20 P3 1.569711 1_555
O21 P2 1.569711 1_555
O22 P10 1.554479 1_555
O23 P11 1.554479 1_555
O24 P11 1.533613 1_555
O25 P10 1.533613 1_555
O26 P7 1.580642 1_555
O27 P6 1.580642 1_555
O28 P4 1.561849 1_555
O29 P5 1.561849 1_555
O30 P8 1.539676 1_555
O31 P9 1.539676 1_555
O32 P6 1.539676 1_555
O33 P7 1.539676 1_555
O34 P11 1.561849 1_555
O35 P10 1.561849 1_555
O36 P9 1.580642 1_555
O37 P8 1.580642 1_555
O38 P5 1.533613 1_555
O39 P4 1.533613 1_555
O40 P4 1.554479 1_555
O41 P5 1.554479 1_555
O42 P12 1.569711 1_555
O43 P13 1.569711 1_555
O44 P6 1.535565 1_555
O45 P7 1.535565 1_545
O46 P15 1.569665 1_555
O47 P14 1.569665 1_555
O48 P9 1.569154 1_555
O49 P8 1.569154 1_555
O50 P0 1.543444 1_655
O51 P1 1.543444 1_655
O52 P10 1.576066 1_555
O53 P11 1.576066 1_555
O54 P3 1.559786 1_655
O55 P2 1.559786 1_655
O56 P3 1.540706 1_655
O57 P2 1.540706 1_645
O58 P0 1.538768 1_655
O59 P1 1.538768 1_655
O60 P14 1.570624 1_555
O61 P15 1.570624 1_555
O62 P3 1.562500 1_655
O63 P2 1.562500 1_655
