# generated using pymatgen
data_Li8Fe7Sb(PO4)12
_symmetry_space_group_name_H-M   'P 1'
_cell_length_a   8.66837000
_cell_length_b   8.79565305
_cell_length_c   12.23361381
_cell_angle_alpha   90.22298481
_cell_angle_beta   90.00900632
_cell_angle_gamma   90.09081313
_symmetry_Int_Tables_number   1
_chemical_formula_structural   Li8Fe7Sb(PO4)12
_chemical_formula_sum   'Li8 Fe7 Sb1 P12 O48'
_cell_volume   932.73109785
_cell_formula_units_Z   1
loop_
 _symmetry_equiv_pos_site_id
 _symmetry_equiv_pos_as_xyz
  1  'x, y, z'
loop_
 _atom_site_type_symbol
 _atom_site_label
 _atom_site_symmetry_multiplicity
 _atom_site_fract_x
 _atom_site_fract_y
 _atom_site_fract_z
 _atom_site_occupancy
  Li  Li0  1  0.21711000  0.72294300  0.18240600  1
  Li  Li1  1  0.21888200  0.77739200  0.81781900  1
  Li  Li2  1  0.28250700  0.22245000  0.31778600  1
  Li  Li3  1  0.28050100  0.27667200  0.68268000  1
  Li  Li4  1  0.71597900  0.72404300  0.31581200  1
  Li  Li5  1  0.71719100  0.78886200  0.68260600  1
  Li  Li6  1  0.78389700  0.22214200  0.18196700  1
  Li  Li7  1  0.78637500  0.27427900  0.82565500  1
  Fe  Fe0  1  0.24748100  0.95997700  0.61256000  1
  Fe  Fe1  1  0.24884900  0.54026200  0.38663100  1
  Fe  Fe2  1  0.25104800  0.04081900  0.11264200  1
  Fe  Fe3  1  0.25147800  0.45846300  0.88754100  1
  Fe  Fe4  1  0.74868500  0.54065100  0.11145600  1
  Fe  Fe5  1  0.74801400  0.96038100  0.88936000  1
  Fe  Fe6  1  0.75091900  0.03795600  0.38596500  1
  Sb  Sb0  1  0.75219400  0.46164200  0.61301600  1
  P  P0  1  0.04186500  0.24761300  0.49844900  1
  P  P1  1  0.46113900  0.74963800  0.00005800  1
  P  P2  1  0.53900400  0.25022600  0.00094600  1
  P  P3  1  0.96162400  0.75051400  0.49789900  1
  P  P4  1  0.10520300  0.39254900  0.14656600  1
  P  P5  1  0.10611900  0.10620700  0.85321400  1
  P  P6  1  0.39206300  0.60419500  0.64620800  1
  P  P7  1  0.39374600  0.89293700  0.35372600  1
  P  P8  1  0.60298500  0.10615300  0.64511200  1
  P  P9  1  0.60408900  0.39220700  0.34993200  1
  P  P10  1  0.89616400  0.60935000  0.85207900  1
  P  P11  1  0.89515300  0.89209400  0.14652200  1
  O  O0  1  0.05373000  0.63705500  0.43079500  1
  O  O1  1  0.05460100  0.85511100  0.57197200  1
  O  O2  1  0.07370400  0.89536900  0.15559300  1
  O  O3  1  0.07282900  0.60435500  0.84063300  1
  O  O4  1  0.14549200  0.16306100  0.58052000  1
  O  O5  1  0.14657000  0.33796200  0.42061700  1
  O  O6  1  0.15452000  0.43442800  0.03030600  1
  O  O7  1  0.15607200  0.06582600  0.96925300  1
  O  O8  1  0.16182700  0.23248100  0.17927200  1
  O  O9  1  0.16176500  0.26729900  0.82074800  1
  O  O10  1  0.17316000  0.51430600  0.22543900  1
  O  O11  1  0.17438800  0.98535100  0.77385600  1
  O  O12  1  0.32601300  0.01353000  0.27456200  1
  O  O13  1  0.32898700  0.48350500  0.72515000  1
  O  O14  1  0.34460200  0.76639700  0.68015500  1
  O  O15  1  0.33636100  0.73221800  0.32067800  1
  O  O16  1  0.34869800  0.56541800  0.52915500  1
  O  O17  1  0.34405900  0.93448200  0.47006000  1
  O  O18  1  0.35240400  0.83710200  0.07948300  1
  O  O19  1  0.35223400  0.66184900  0.92089400  1
  O  O20  1  0.42663400  0.10968500  0.65636500  1
  O  O21  1  0.42695400  0.39404000  0.34411600  1
  O  O22  1  0.44334400  0.14254800  0.07122400  1
  O  O23  1  0.44408000  0.35765900  0.92960800  1
  O  O24  1  0.55676300  0.64282300  0.07109700  1
  O  O25  1  0.55653300  0.85696000  0.92892100  1
  O  O26  1  0.57779600  0.60398800  0.65674200  1
  O  O27  1  0.57247300  0.89556200  0.34405400  1
  O  O28  1  0.64708500  0.33805400  0.08052000  1
  O  O29  1  0.64744200  0.16266000  0.92137400  1
  O  O30  1  0.65557700  0.07251200  0.52943000  1
  O  O31  1  0.65259900  0.43448200  0.47071200  1
  O  O32  1  0.66432200  0.23292100  0.32052000  1
  O  O33  1  0.66413600  0.27215900  0.68154700  1
  O  O34  1  0.67558300  0.51472900  0.27583800  1
  O  O35  1  0.67518400  0.99286700  0.72580200  1
  O  O36  1  0.82656500  0.01302000  0.22572800  1
  O  O37  1  0.82526400  0.48217000  0.77062200  1
  O  O38  1  0.83839100  0.73132500  0.17834900  1
  O  O39  1  0.83493700  0.76625700  0.81793300  1
  O  O40  1  0.84128900  0.56033500  0.96462400  1
  O  O41  1  0.84525200  0.93255000  0.03035000  1
  O  O42  1  0.85000300  0.66269500  0.58246400  1
  O  O43  1  0.84907300  0.83502300  0.42185600  1
  O  O44  1  0.92717200  0.10335200  0.84485900  1
  O  O45  1  0.92632700  0.39560900  0.15497900  1
  O  O46  1  0.93987300  0.14339400  0.43092100  1
  O  O47  1  0.94707000  0.36089600  0.57369300  1
loop_
_geom_bond_atom_site_label_1
_geom_bond_atom_site_label_2
_geom_bond_distance
_geom_bond_site_symmetry_2
Li0 O10 1.948139 1_555
Li0 O15 1.983613 1_555
Li0 O2 1.990648 1_555
Li0 O18 1.993888 1_555
Li1 O11 1.947711 1_555
Li1 O19 1.993072 1_555
Li1 O3 1.998617 1_555
Li1 O14 2.008213 1_555
Li2 O12 1.947630 1_555
Li2 O21 1.984813 1_555
Li2 O8 1.993597 1_555
Li2 O5 1.999410 1_555
Li3 O13 1.935548 1_555
Li3 O20 1.966686 1_555
Li3 O4 1.978955 1_555
Li3 O9 1.980017 1_555
Li4 O34 1.934460 1_555
Li4 O27 1.986147 1_555
Li4 O43 1.988212 1_555
Li4 O38 1.989788 1_555
Li5 O35 1.904288 1_555
Li5 O39 1.955702 1_555
Li5 O42 2.012875 1_555
Li5 O26 2.047920 1_555
Li6 O36 1.953567 1_555
Li6 O32 1.988973 1_555
Li6 O45 1.989809 1_555
Li6 O28 1.999832 1_555
Li7 O29 1.947077 1_555
Li7 O44 1.952818 1_555
Li7 O37 1.979433 1_555
Li7 O33 2.056758 1_555
Fe0 O17 1.946334 1_555
Fe0 O1 1.970793 1_555
Fe0 O4 2.033787 1_565
Fe0 O14 2.075313 1_555
Fe0 O11 2.083823 1_555
Fe0 O20 2.102511 1_565
Fe1 O16 1.958085 1_555
Fe1 O0 1.969442 1_555
Fe1 O15 2.020843 1_555
Fe1 O5 2.031233 1_555
Fe1 O21 2.075939 1_555
Fe1 O10 2.089697 1_555
Fe2 O7 1.951000 1_554
Fe2 O22 1.958304 1_555
Fe2 O8 2.024379 1_555
Fe2 O18 2.036310 1_545
Fe2 O2 2.067671 1_545
Fe2 O12 2.099406 1_555
Fe3 O6 1.950442 1_556
Fe3 O23 1.961205 1_555
Fe3 O9 2.021029 1_555
Fe3 O19 2.029473 1_555
Fe3 O3 2.094242 1_555
Fe3 O13 2.109498 1_555
Fe4 O24 1.956285 1_555
Fe4 O40 1.975708 1_554
Fe4 O38 2.017922 1_555
Fe4 O28 2.020884 1_555
Fe4 O45 2.072065 1_555
Fe4 O34 2.121581 1_555
Fe5 O41 1.936201 1_556
Fe5 O25 1.953363 1_555
Fe5 O29 2.019525 1_565
Fe5 O39 2.058962 1_555
Fe5 O44 2.070986 1_565
Fe5 O35 2.118597 1_555
Fe6 O46 1.958637 1_555
Fe6 O30 1.962875 1_555
Fe6 O43 2.028170 1_545
Fe6 O32 2.039549 1_555
Fe6 O27 2.052516 1_545
Fe6 O36 2.078048 1_555
O0 P3 1.517770 1_455
O1 P3 1.519231 1_455
O2 P11 1.551916 1_455
O3 P10 1.538489 1_455
O4 P0 1.541327 1_555
O5 P0 1.538112 1_555
O6 P4 1.531368 1_555
O7 P5 1.527437 1_555
O8 P4 1.545870 1_555
O9 P5 1.549299 1_555
O10 P4 1.553937 1_555
O11 P5 1.554623 1_565
O12 P7 1.554834 1_545
O13 P6 1.537793 1_555
O14 P6 1.540917 1_555
O15 P7 1.550000 1_555
O16 P6 1.517836 1_555
O17 P7 1.530077 1_555
O18 P1 1.555994 1_555
O19 P1 1.554646 1_556
O20 P8 1.535236 1_555
O21 P9 1.537221 1_555
O22 P2 1.525727 1_555
O23 P2 1.529797 1_556
O24 P1 1.527621 1_555
O25 P1 1.528515 1_556
O26 P6 1.615136 1_555
O26 Sb0 2.034732 1_555
O27 P7 1.553944 1_555
O28 P2 1.553623 1_555
O29 P2 1.555998 1_556
O30 P8 1.515115 1_555
O31 P9 1.579034 1_555
O31 Sb0 1.956717 1_555
O32 P9 1.537336 1_555
O33 P8 1.613707 1_555
O33 Sb0 2.017481 1_555
O34 P9 1.540363 1_555
O35 P8 1.538964 1_565
O36 P11 1.554946 1_545
O37 P10 1.615873 1_555
O37 Sb0 2.036633 1_555
O38 P11 1.547717 1_555
O39 P10 1.538699 1_555
O40 P10 1.520518 1_555
O41 P11 1.528980 1_555
O42 P3 1.614703 1_555
O42 Sb0 1.996557 1_555
O43 P3 1.541814 1_555
O44 P5 1.554683 1_655
O45 P4 1.554260 1_655
O46 P0 1.515157 1_655
O47 P0 1.584631 1_655
O47 Sb0 1.967718 1_555
