# generated using pymatgen
data_CsGaP3HO10
_symmetry_space_group_name_H-M   'P 1'
_cell_length_a   4.96888259
_cell_length_b   11.77893033
_cell_length_c   15.66310439
_cell_angle_alpha   90.00000000
_cell_angle_beta   90.00000000
_cell_angle_gamma   90.00000000
_symmetry_Int_Tables_number   1
_chemical_formula_structural   CsGaP3HO10
_chemical_formula_sum   'Cs4 Ga4 P12 H4 O40'
_cell_volume   916.73208222
_cell_formula_units_Z   4
loop_
 _symmetry_equiv_pos_site_id
 _symmetry_equiv_pos_as_xyz
  1  'x, y, z'
loop_
 _atom_site_type_symbol
 _atom_site_label
 _atom_site_symmetry_multiplicity
 _atom_site_fract_x
 _atom_site_fract_y
 _atom_site_fract_z
 _atom_site_occupancy
  Cs  Cs0  1  0.97176439  0.11504769  0.99872733  1
  Cs  Cs1  1  0.02823561  0.88495231  0.49872733  1
  Cs  Cs2  1  0.97176439  0.38495231  0.49872733  1
  Cs  Cs3  1  0.02823561  0.61504769  0.99872733  1
  Ga  Ga0  1  0.00166497  0.68132240  0.73401132  1
  Ga  Ga1  1  0.99833503  0.31867760  0.23401132  1
  Ga  Ga2  1  0.00166497  0.81867760  0.23401132  1
  Ga  Ga3  1  0.99833503  0.18132240  0.73401132  1
  P  P0  1  0.49967784  0.74112405  0.34812448  1
  P  P1  1  0.50032216  0.25887595  0.84812448  1
  P  P2  1  0.49967784  0.75887595  0.84812448  1
  P  P3  1  0.50032216  0.24112405  0.34812448  1
  P  P4  1  0.75885964  0.56959448  0.23820496  1
  P  P5  1  0.24114036  0.43040552  0.73820496  1
  P  P6  1  0.75885964  0.93040552  0.73820496  1
  P  P7  1  0.24114036  0.06959448  0.23820496  1
  P  P8  1  0.49378396  0.40407466  0.12469739  1
  P  P9  1  0.50621604  0.59592534  0.62469739  1
  P  P10  1  0.49378396  0.09592534  0.62469739  1
  P  P11  1  0.50621604  0.90407466  0.12469739  1
  H  H0  1  0.49005366  0.86194053  0.98859592  1
  H  H1  1  0.50994634  0.13805947  0.48859592  1
  H  H2  1  0.49005366  0.63805947  0.48859592  1
  H  H3  1  0.50994634  0.36194053  0.98859592  1
  O  O0  1  0.31835708  0.81516471  0.15897214  1
  O  O1  1  0.68164292  0.18483529  0.65897214  1
  O  O2  1  0.31835708  0.68483529  0.65897214  1
  O  O3  1  0.68164292  0.31516471  0.15897214  1
  O  O4  1  0.80160090  0.88019254  0.13587033  1
  O  O5  1  0.19839910  0.11980746  0.63587033  1
  O  O6  1  0.80160090  0.61980746  0.63587033  1
  O  O7  1  0.19839910  0.38019254  0.13587033  1
  O  O8  1  0.91310071  0.66344474  0.19638606  1
  O  O9  1  0.08689929  0.33655526  0.69638606  1
  O  O10  1  0.91310071  0.83655526  0.69638606  1
  O  O11  1  0.08689929  0.16344474  0.19638606  1
  O  O12  1  0.54940472  0.76696569  0.94289171  1
  O  O13  1  0.45059528  0.23303431  0.44289171  1
  O  O14  1  0.54940472  0.73303431  0.44289171  1
  O  O15  1  0.45059528  0.26696569  0.94289171  1
  O  O16  1  0.45017420  0.93295570  0.03002736  1
  O  O17  1  0.54982580  0.06704430  0.53002736  1
  O  O18  1  0.45017420  0.56704430  0.53002736  1
  O  O19  1  0.54982580  0.43295570  0.03002736  1
  O  O20  1  0.57256098  0.61612074  0.31075520  1
  O  O21  1  0.42743902  0.38387926  0.81075520  1
  O  O22  1  0.57256098  0.88387926  0.81075520  1
  O  O23  1  0.42743902  0.11612074  0.31075520  1
  O  O24  1  0.91481990  0.47276377  0.27407617  1
  O  O25  1  0.08518010  0.52723623  0.77407617  1
  O  O26  1  0.91481990  0.02723623  0.77407617  1
  O  O27  1  0.08518010  0.97276377  0.27407617  1
  O  O28  1  0.68113628  0.82645726  0.30527850  1
  O  O29  1  0.31886372  0.17354274  0.80527850  1
  O  O30  1  0.68113628  0.67354274  0.80527850  1
  O  O31  1  0.31886372  0.32645726  0.30527850  1
  O  O32  1  0.20356315  0.74194431  0.82995932  1
  O  O33  1  0.79643685  0.25805569  0.32995932  1
  O  O34  1  0.20356315  0.75805569  0.32995932  1
  O  O35  1  0.79643685  0.24194431  0.82995932  1
  O  O36  1  0.44618183  0.02455033  0.16836080  1
  O  O37  1  0.55381817  0.97544967  0.66836080  1
  O  O38  1  0.44618183  0.47544967  0.66836080  1
  O  O39  1  0.55381817  0.52455033  0.16836080  1
loop_
_geom_bond_atom_site_label_1
_geom_bond_atom_site_label_2
_geom_bond_distance
_geom_bond_site_symmetry_2
Cs0 O15 3.102865 1_655
Cs0 O35 3.159246 1_555
Cs0 O11 3.199557 1_656
Cs0 O16 3.239078 1_646
Cs0 O15 3.266970 1_555
Cs0 O16 3.399668 1_546
Cs1 O14 3.102865 1_455
Cs1 O34 3.159246 1_555
Cs1 O10 3.199557 1_455
Cs1 O17 3.239078 1_465
Cs1 O14 3.266970 1_555
Cs1 O17 3.399668 1_565
Cs2 O13 3.102865 1_655
Cs2 O33 3.159246 1_555
Cs2 O9 3.199557 1_655
Cs2 O18 3.239078 1_655
Cs2 O13 3.266970 1_555
Cs2 O18 3.399668 1_555
Cs3 O12 3.102865 1_455
Cs3 O32 3.159246 1_555
Cs3 O8 3.199557 1_456
Cs3 O19 3.239078 1_456
Cs3 O12 3.266970 1_555
Cs3 O19 3.399668 1_556
Ga0 O32 1.942897 1_555
Ga0 O30 1.947060 1_455
Ga0 O2 1.964532 1_555
Ga0 O25 1.964721 1_555
Ga0 O6 1.968807 1_455
Ga0 O10 1.970861 1_455
Ga1 O33 1.942897 1_555
Ga1 O31 1.947060 1_655
Ga1 O3 1.964532 1_555
Ga1 O24 1.964721 1_555
Ga1 O7 1.968807 1_655
Ga1 O11 1.970861 1_655
Ga2 O34 1.942897 1_555
Ga2 O28 1.947060 1_455
Ga2 O0 1.964532 1_555
Ga2 O27 1.964721 1_555
Ga2 O4 1.968807 1_455
Ga2 O8 1.970861 1_455
Ga3 O35 1.942897 1_555
Ga3 O29 1.947060 1_655
Ga3 O1 1.964532 1_555
Ga3 O26 1.964721 1_555
Ga3 O5 1.968807 1_655
Ga3 O9 1.970861 1_655
H0 O16 1.077079 1_556
H0 O12 1.360491 1_555
H1 O17 1.077079 1_555
H1 O13 1.360491 1_555
H2 O18 1.077079 1_555
H2 O14 1.360491 1_555
H3 O19 1.077079 1_556
H3 O15 1.360491 1_555
O0 P11 1.502097 1_555
O1 P10 1.502097 1_555
O2 P9 1.502097 1_555
O3 P8 1.502097 1_555
O4 P11 1.504659 1_555
O5 P10 1.504659 1_555
O6 P9 1.504659 1_555
O7 P8 1.504659 1_555
O8 P4 1.496146 1_555
O9 P5 1.496146 1_555
O10 P6 1.496146 1_555
O11 P7 1.496146 1_555
O12 P2 1.507788 1_555
O13 P3 1.507788 1_555
O14 P0 1.507788 1_555
O15 P1 1.507788 1_555
O16 P11 1.546624 1_555
O17 P10 1.546624 1_555
O18 P9 1.546624 1_555
O19 P8 1.546624 1_555
O20 P4 1.564790 1_555
O20 P0 1.625339 1_555
O21 P5 1.564790 1_555
O21 P1 1.625339 1_555
O22 P6 1.564790 1_555
O22 P2 1.625339 1_555
O23 P7 1.564790 1_555
O23 P3 1.625339 1_555
O24 P4 1.488995 1_555
O25 P5 1.488995 1_555
O26 P6 1.488995 1_545
O27 P7 1.488995 1_565
O28 P0 1.507858 1_555
O29 P1 1.507858 1_555
O30 P2 1.507858 1_555
O31 P3 1.507858 1_555
O32 P2 1.511829 1_555
O33 P3 1.511829 1_555
O34 P0 1.511829 1_555
O35 P1 1.511829 1_555
O36 P7 1.586285 1_555
O36 P11 1.603272 1_545
O37 P6 1.586285 1_555
O37 P10 1.603272 1_565
O38 P5 1.586285 1_555
O38 P9 1.603272 1_555
O39 P4 1.586285 1_555
O39 P8 1.603272 1_555
