# generated using pymatgen
data_Tm3TaO7
_symmetry_space_group_name_H-M   'P 1'
_cell_length_a   6.36067593
_cell_length_b   6.36067593
_cell_length_c   7.32183865
_cell_angle_alpha   90.00000000
_cell_angle_beta   90.00000000
_cell_angle_gamma   108.68031867
_symmetry_Int_Tables_number   1
_chemical_formula_structural   Tm3TaO7
_chemical_formula_sum   'Tm6 Ta2 O14'
_cell_volume   280.62319233
_cell_formula_units_Z   2
loop_
 _symmetry_equiv_pos_site_id
 _symmetry_equiv_pos_as_xyz
  1  'x, y, z'
loop_
 _atom_site_type_symbol
 _atom_site_label
 _atom_site_symmetry_multiplicity
 _atom_site_fract_x
 _atom_site_fract_y
 _atom_site_fract_z
 _atom_site_occupancy
  Tm  Tm0  1  0.46475127  0.99949054  0.25894492  1
  Tm  Tm1  1  0.00050946  0.53524873  0.24105508  1
  Tm  Tm2  1  0.46429768  0.46429768  0.00000000  1
  Tm  Tm3  1  0.53570232  0.53570232  0.50000000  1
  Tm  Tm4  1  0.53524873  0.00050946  0.75894492  1
  Tm  Tm5  1  0.99949054  0.46475127  0.74105508  1
  Ta  Ta0  1  0.00184516  0.00184516  0.50000000  1
  Ta  Ta1  1  0.99815484  0.99815484  0.00000000  1
  O  O0  1  0.92680064  0.07319936  0.75000000  1
  O  O1  1  0.63988332  0.36011668  0.75000000  1
  O  O2  1  0.31108770  0.05151626  0.54635673  1
  O  O3  1  0.94848374  0.68891230  0.95364327  1
  O  O4  1  0.62911053  0.37088947  0.25000000  1
  O  O5  1  0.91525897  0.66808637  0.52486791  1
  O  O6  1  0.33191363  0.08474103  0.97513209  1
  O  O7  1  0.08474103  0.33191363  0.02486791  1
  O  O8  1  0.66808637  0.91525897  0.47513209  1
  O  O9  1  0.37088947  0.62911053  0.75000000  1
  O  O10  1  0.68891230  0.94848374  0.04635673  1
  O  O11  1  0.05151626  0.31108770  0.45364327  1
  O  O12  1  0.36011668  0.63988332  0.25000000  1
  O  O13  1  0.07319936  0.92680064  0.25000000  1
loop_
_geom_bond_atom_site_label_1
_geom_bond_atom_site_label_2
_geom_bond_distance
_geom_bond_site_symmetry_2
O0 Ta0 1.980706 1_655
O0 Ta1 1.980706 1_546
O0 Tm4 2.383945 1_555
O0 Tm5 2.383945 1_555
O1 Tm5 2.168875 1_555
O1 Tm4 2.168875 1_555
O1 Tm2 2.347578 1_556
O1 Tm3 2.347578 1_555
O2 Ta0 1.919893 1_555
O2 Tm4 2.203937 1_555
O2 Tm0 2.387560 1_545
O3 Ta1 1.919893 1_556
O3 Tm5 2.203937 1_555
O3 Tm1 2.387560 1_656
O4 Tm0 2.257409 1_545
O4 Tm1 2.257409 1_655
O4 Tm3 2.280689 1_555
O4 Tm2 2.280689 1_555
O5 Ta0 2.023451 1_665
O5 Tm5 2.215674 1_555
O5 Tm3 2.295324 1_555
O5 Tm1 2.370583 1_655
O6 Ta1 2.023451 1_446
O6 Tm4 2.215674 1_555
O6 Tm2 2.295324 1_556
O6 Tm0 2.370583 1_546
O7 Ta1 2.023451 1_445
O7 Tm1 2.215674 1_555
O7 Tm2 2.295324 1_555
O7 Tm5 2.370583 1_454
O8 Ta0 2.023451 1_665
O8 Tm0 2.215674 1_555
O8 Tm3 2.295324 1_555
O8 Tm4 2.370583 1_565
O9 Tm5 2.257409 1_455
O9 Tm4 2.257409 1_565
O9 Tm2 2.280689 1_556
O9 Tm3 2.280689 1_555
O10 Ta1 1.919893 1_555
O10 Tm0 2.203937 1_555
O10 Tm4 2.387560 1_564
O11 Ta0 1.919893 1_555
O11 Tm1 2.203937 1_555
O11 Tm5 2.387560 1_455
O12 Tm1 2.168875 1_555
O12 Tm0 2.168875 1_555
O12 Tm3 2.347578 1_555
O12 Tm2 2.347578 1_555
O13 Ta1 1.980706 1_455
O13 Ta0 1.980706 1_565
O13 Tm0 2.383945 1_555
O13 Tm1 2.383945 1_555
