# generated using pymatgen
data_Na2Co2O3
_symmetry_space_group_name_H-M   'P 1'
_cell_length_a   5.78580332
_cell_length_b   5.67591690
_cell_length_c   6.03482817
_cell_angle_alpha   89.99687867
_cell_angle_beta   118.90821179
_cell_angle_gamma   89.99960849
_symmetry_Int_Tables_number   1
_chemical_formula_structural   Na2Co2O3
_chemical_formula_sum   'Na4 Co4 O6'
_cell_volume   173.48774044
_cell_formula_units_Z   2
loop_
 _symmetry_equiv_pos_site_id
 _symmetry_equiv_pos_as_xyz
  1  'x, y, z'
loop_
 _atom_site_type_symbol
 _atom_site_label
 _atom_site_symmetry_multiplicity
 _atom_site_fract_x
 _atom_site_fract_y
 _atom_site_fract_z
 _atom_site_occupancy
  Na  Na0  1  0.13475818  0.65407857  0.89726236  1
  Na  Na1  1  0.13481042  0.84592170  0.39728730  1
  Na  Na2  1  0.86518958  0.15407830  0.60271270  1
  Na  Na3  1  0.86524182  0.34592143  0.10273764  1
  Co  Co0  1  0.34262598  0.37042105  0.58707278  1
  Co  Co1  1  0.65739258  0.87043140  0.91296569  1
  Co  Co2  1  0.34260742  0.12956860  0.08703431  1
  Co  Co3  1  0.65737402  0.62957895  0.41292722  1
  O  O0  1  -0.00000000  0.50000000  0.50000000  1
  O  O1  1  -0.00000000  -0.00000000  0.00000000  1
  O  O2  1  0.34617510  0.07848340  0.75353150  1
  O  O3  1  0.34622380  0.42146671  0.25353740  1
  O  O4  1  0.65377620  0.57853329  0.74646260  1
  O  O5  1  0.65382490  0.92151660  0.24646850  1
loop_
_geom_bond_atom_site_label_1
_geom_bond_atom_site_label_2
_geom_bond_distance
_geom_bond_site_symmetry_2
Na0 O0 2.305069 1_555
Na0 O1 2.305388 1_566
Na0 O3 2.306344 1_556
Na0 O4 2.511563 1_455
Na1 O1 2.305047 1_565
Na1 O0 2.305417 1_555
Na1 O2 2.306153 1_565
Na1 O5 2.511587 1_455
Na2 O1 2.305047 1_656
Na2 O0 2.305417 1_655
Na2 O5 2.306153 1_545
Na2 O2 2.511587 1_655
Na3 O0 2.305069 1_655
Na3 O1 2.305388 1_655
Na3 O4 2.306344 1_554
Na3 O3 2.511563 1_655
Co0 O2 1.932644 1_555
Co0 O0 1.933819 1_555
Co0 O4 1.971653 1_555
Co0 O3 2.043600 1_555
Co1 O4 1.932590 1_555
Co1 O1 1.933785 1_666
Co1 O2 1.971647 1_565
Co1 O5 2.043384 1_556
Co2 O3 1.932590 1_555
Co2 O1 1.933785 1_555
Co2 O5 1.971647 1_545
Co2 O2 2.043384 1_554
Co3 O5 1.932644 1_555
Co3 O0 1.933819 1_655
Co3 O3 1.971653 1_555
Co3 O4 2.043600 1_555
