# generated using pymatgen
data_Li8Mn7Cr(PO4)12
_symmetry_space_group_name_H-M   'P 1'
_cell_length_a   8.56337500
_cell_length_b   8.79869650
_cell_length_c   11.97180942
_cell_angle_alpha   89.77181721
_cell_angle_beta   89.91714662
_cell_angle_gamma   89.96656166
_symmetry_Int_Tables_number   1
_chemical_formula_structural   Li8Mn7Cr(PO4)12
_chemical_formula_sum   'Li8 Mn7 Cr1 P12 O48'
_cell_volume   902.02614159
_cell_formula_units_Z   1
loop_
 _symmetry_equiv_pos_site_id
 _symmetry_equiv_pos_as_xyz
  1  'x, y, z'
loop_
 _atom_site_type_symbol
 _atom_site_label
 _atom_site_symmetry_multiplicity
 _atom_site_fract_x
 _atom_site_fract_y
 _atom_site_fract_z
 _atom_site_occupancy
  Li  Li0  1  0.21589300  0.72190200  0.18078400  1
  Li  Li1  1  0.21527400  0.77752700  0.81998800  1
  Li  Li2  1  0.28482100  0.22220300  0.31856900  1
  Li  Li3  1  0.28411500  0.27959900  0.68108500  1
  Li  Li4  1  0.71675300  0.72136500  0.32035400  1
  Li  Li5  1  0.71636600  0.77718200  0.68067800  1
  Li  Li6  1  0.78385700  0.22255200  0.18083900  1
  Li  Li7  1  0.78388000  0.27850200  0.81930500  1
  Mn  Mn0  1  0.24659600  0.96262300  0.61293700  1
  Mn  Mn1  1  0.24870400  0.53559100  0.38598100  1
  Mn  Mn2  1  0.25121500  0.03653100  0.11340500  1
  Mn  Mn3  1  0.25050800  0.46460300  0.88617900  1
  Mn  Mn4  1  0.74802100  0.53616700  0.11471700  1
  Mn  Mn5  1  0.74826300  0.96334300  0.88664000  1
  Mn  Mn6  1  0.75137400  0.03663100  0.38564400  1
  Cr  Cr0  1  0.75179200  0.46383900  0.61613400  1
  P  P0  1  0.03636600  0.24741000  0.50015700  1
  P  P1  1  0.46401000  0.75046800  0.99983600  1
  P  P2  1  0.53511300  0.24986900  0.99999100  1
  P  P3  1  0.96465700  0.74895200  0.50057800  1
  P  P4  1  0.10558200  0.39400100  0.14716900  1
  P  P5  1  0.10565700  0.10595700  0.85203400  1
  P  P6  1  0.39347000  0.60814400  0.64583900  1
  P  P7  1  0.39404900  0.89401500  0.35304800  1
  P  P8  1  0.60569700  0.10567600  0.64630700  1
  P  P9  1  0.60538100  0.39418800  0.35264900  1
  P  P10  1  0.89403300  0.60569200  0.85526800  1
  P  P11  1  0.89407400  0.89448800  0.14713500  1
  O  O0  1  0.05922300  0.64219300  0.42514600  1
  O  O1  1  0.05884600  0.85796700  0.57587500  1
  O  O2  1  0.07524800  0.89732700  0.15707800  1
  O  O3  1  0.07466300  0.60477800  0.84401500  1
  O  O4  1  0.14513500  0.15784400  0.58351400  1
  O  O5  1  0.14691800  0.33380000  0.41889200  1
  O  O6  1  0.15595700  0.43808100  0.02895300  1
  O  O7  1  0.15565900  0.06104400  0.97042700  1
  O  O8  1  0.15899100  0.23294400  0.18059100  1
  O  O9  1  0.15812900  0.26577100  0.81824500  1
  O  O10  1  0.17789800  0.51558700  0.22669800  1
  O  O11  1  0.17865800  0.98327300  0.77309800  1
  O  O12  1  0.32153800  0.01579400  0.27407500  1
  O  O13  1  0.32029100  0.48824600  0.72623800  1
  O  O14  1  0.33746100  0.77105500  0.67803400  1
  O  O15  1  0.34075400  0.73298400  0.31985300  1
  O  O16  1  0.34427700  0.56289200  0.52782200  1
  O  O17  1  0.34477400  0.93801700  0.47225400  1
  O  O18  1  0.35736300  0.83654800  0.08331500  1
  O  O19  1  0.35789700  0.66643700  0.91709200  1
  O  O20  1  0.42394600  0.10265000  0.65647800  1
  O  O21  1  0.42442100  0.39685000  0.34128200  1
  O  O22  1  0.44165600  0.14133200  0.07528800  1
  O  O23  1  0.44224500  0.35748800  0.92442700  1
  O  O24  1  0.55704500  0.64305600  0.07595400  1
  O  O25  1  0.55834600  0.85865200  0.92381300  1
  O  O26  1  0.57314500  0.60611600  0.65694600  1
  O  O27  1  0.57454200  0.89591000  0.34306900  1
  O  O28  1  0.64378000  0.33591500  0.08159100  1
  O  O29  1  0.64407500  0.16194300  0.91725500  1
  O  O30  1  0.65594100  0.06118100  0.52842000  1
  O  O31  1  0.65632800  0.43777000  0.46965300  1
  O  O32  1  0.65738700  0.23333500  0.31879900  1
  O  O33  1  0.65855300  0.26720400  0.67894500  1
  O  O34  1  0.67843400  0.51563800  0.27219100  1
  O  O35  1  0.67794500  0.98456300  0.72681700  1
  O  O36  1  0.82171100  0.01592000  0.22642900  1
  O  O37  1  0.82300000  0.48515200  0.77617400  1
  O  O38  1  0.84149000  0.73355700  0.18098600  1
  O  O39  1  0.84021300  0.76806700  0.82053400  1
  O  O40  1  0.84525700  0.56505400  0.97427300  1
  O  O41  1  0.84421800  0.93877800  0.02833100  1
  O  O42  1  0.85552200  0.66165800  0.58172900  1
  O  O43  1  0.85770000  0.83623500  0.41871800  1
  O  O44  1  0.92458900  0.10314000  0.84185100  1
  O  O45  1  0.92530900  0.39543200  0.15793400  1
  O  O46  1  0.94450200  0.14026700  0.42429000  1
  O  O47  1  0.94350700  0.35553300  0.57335300  1
loop_
_geom_bond_atom_site_label_1
_geom_bond_atom_site_label_2
_geom_bond_distance
_geom_bond_site_symmetry_2
Li0 O10 1.922382 1_555
Li0 O18 1.958253 1_555
Li0 O2 1.977086 1_555
Li0 O15 1.982737 1_555
Li1 O11 1.918949 1_555
Li1 O19 1.947345 1_555
Li1 O3 1.959734 1_555
Li1 O14 1.995428 1_555
Li2 O12 1.920283 1_555
Li2 O5 1.950681 1_555
Li2 O21 1.967432 1_555
Li2 O8 1.975445 1_555
Li3 O13 1.940997 1_555
Li3 O9 1.966858 1_555
Li3 O4 1.985955 1_555
Li3 O20 1.986220 1_555
Li4 O34 1.930353 1_555
Li4 O43 1.969791 1_555
Li4 O27 1.978831 1_555
Li4 O38 1.982397 1_555
Li5 O35 1.936395 1_555
Li5 O26 1.963920 1_555
Li5 O42 1.964835 1_555
Li5 O39 1.984576 1_555
Li6 O36 1.923629 1_555
Li6 O28 1.959293 1_555
Li6 O45 1.963193 1_555
Li6 O32 1.976297 1_555
Li7 O37 1.917711 1_555
Li7 O29 1.961621 1_555
Li7 O44 1.975073 1_555
Li7 O33 1.997994 1_555
Mn0 O17 1.894449 1_555
Mn0 O1 1.907037 1_555
Mn0 O4 1.955444 1_565
Mn0 O14 2.010882 1_555
Mn0 O11 2.011813 1_555
Mn0 O20 2.026267 1_565
Mn1 O16 1.902247 1_555
Mn1 O0 1.931828 1_555
Mn1 O10 2.010238 1_555
Mn1 O21 2.010351 1_555
Mn1 O5 2.015593 1_555
Mn1 O15 2.062381 1_555
Mn2 O7 1.909697 1_554
Mn2 O22 1.927264 1_555
Mn2 O2 2.009719 1_545
Mn2 O18 2.013557 1_545
Mn2 O12 2.023921 1_555
Mn2 O8 2.065165 1_555
Mn3 O6 1.903852 1_556
Mn3 O23 1.946983 1_555
Mn3 O3 2.009616 1_555
Mn3 O13 2.015052 1_555
Mn3 O19 2.035807 1_555
Mn3 O9 2.088702 1_555
Mn4 O40 1.891490 1_554
Mn4 O24 1.941988 1_555
Mn4 O34 1.983948 1_555
Mn4 O28 2.016686 1_555
Mn4 O45 2.025066 1_555
Mn4 O38 2.073860 1_555
Mn5 O41 1.897428 1_556
Mn5 O25 1.920390 1_555
Mn5 O29 1.996540 1_565
Mn5 O35 2.014646 1_555
Mn5 O44 2.018663 1_565
Mn5 O39 2.050830 1_555
Mn6 O30 1.906536 1_555
Mn6 O46 1.946286 1_555
Mn6 O36 2.007113 1_555
Mn6 O43 2.021973 1_545
Mn6 O27 2.023691 1_545
Mn6 O32 2.067087 1_555
Cr0 O31 1.950318 1_555
Cr0 O47 1.966044 1_555
Cr0 O42 1.995806 1_555
Cr0 O37 2.020967 1_555
Cr0 O26 2.036341 1_555
Cr0 O33 2.045928 1_555
O0 P3 1.535386 1_455
O1 P3 1.546964 1_455
O2 P11 1.556415 1_455
O3 P10 1.552483 1_455
O4 P0 1.574816 1_555
O5 P0 1.553325 1_555
O6 P4 1.527590 1_555
O7 P5 1.531524 1_555
O8 P4 1.540351 1_555
O9 P5 1.529212 1_555
O10 P4 1.563669 1_555
O11 P5 1.566746 1_565
O12 P7 1.555763 1_545
O13 P6 1.556599 1_555
O14 P6 1.560869 1_555
O15 P7 1.542557 1_555
O16 P6 1.529251 1_555
O17 P7 1.538525 1_555
O18 P1 1.552113 1_554
O19 P1 1.537162 1_555
O20 P8 1.561217 1_555
O21 P9 1.555943 1_555
O22 P2 1.535263 1_554
O23 P2 1.530302 1_555
O24 P1 1.533845 1_554
O25 P1 1.542362 1_555
O26 P6 1.544638 1_555
O27 P7 1.550161 1_555
O28 P2 1.550097 1_554
O29 P2 1.566151 1_555
O30 P8 1.527307 1_555
O31 P9 1.518461 1_555
O32 P9 1.539134 1_555
O33 P8 1.543743 1_555
O34 P9 1.565857 1_555
O35 P8 1.562093 1_565
O36 P11 1.559591 1_545
O37 P10 1.549807 1_555
O38 P11 1.538718 1_555
O39 P10 1.556126 1_555
O40 P10 1.525285 1_555
O41 P11 1.534346 1_555
O42 P3 1.549024 1_555
O43 P3 1.544309 1_555
O44 P5 1.555734 1_655
O45 P4 1.548978 1_655
O46 P0 1.530444 1_655
O47 P0 1.519538 1_655
