# generated using pymatgen
data_LiFeSiO4
_symmetry_space_group_name_H-M   'P 1'
_cell_length_a   5.05892100
_cell_length_b   6.08987600
_cell_length_c   11.22970000
_cell_angle_alpha   90.00000000
_cell_angle_beta   90.00000000
_cell_angle_gamma   90.00000000
_symmetry_Int_Tables_number   1
_chemical_formula_structural   LiFeSiO4
_chemical_formula_sum   'Li4 Fe4 Si4 O16'
_cell_volume   345.96686133
_cell_formula_units_Z   4
loop_
 _symmetry_equiv_pos_site_id
 _symmetry_equiv_pos_as_xyz
  1  'x, y, z'
loop_
 _atom_site_type_symbol
 _atom_site_label
 _atom_site_symmetry_multiplicity
 _atom_site_fract_x
 _atom_site_fract_y
 _atom_site_fract_z
 _atom_site_occupancy
  Li  Li0  1  0.83066100  0.50008800  0.92136700  1
  Li  Li1  1  0.66933900  0.50008800  0.42136700  1
  Li  Li2  1  0.33066100  0.00008800  0.57863300  1
  Li  Li3  1  0.16933900  0.00008800  0.07863300  1
  Fe  Fe0  1  0.17019000  0.24806400  0.33047000  1
  Fe  Fe1  1  0.32981000  0.24806400  0.83047000  1
  Fe  Fe2  1  0.82981000  0.74806400  0.66953000  1
  Fe  Fe3  1  0.67019000  0.74806400  0.16953000  1
  Si  Si0  1  0.83177100  0.25086800  0.66740000  1
  Si  Si1  1  0.66822900  0.25086800  0.16740000  1
  Si  Si2  1  0.16822900  0.75086800  0.33260000  1
  Si  Si3  1  0.33177100  0.75086800  0.83260000  1
  O  O0  1  0.78184200  0.02464400  0.10395700  1
  O  O1  1  0.71815800  0.02464400  0.60395700  1
  O  O2  1  0.34503500  0.23096200  0.18131600  1
  O  O3  1  0.80094200  0.27126200  0.30165300  1
  O  O4  1  0.69905800  0.27126200  0.80165300  1
  O  O5  1  0.15496500  0.23096200  0.68131600  1
  O  O6  1  0.73734800  0.47393400  0.08949100  1
  O  O7  1  0.76265200  0.47393400  0.58949100  1
  O  O8  1  0.21815800  0.52464400  0.89604300  1
  O  O9  1  0.28184200  0.52464400  0.39604300  1
  O  O10  1  0.30094200  0.77126200  0.19834700  1
  O  O11  1  0.84503500  0.73096200  0.31868400  1
  O  O12  1  0.19905800  0.77126200  0.69834700  1
  O  O13  1  0.65496500  0.73096200  0.81868400  1
  O  O14  1  0.23734800  0.97393400  0.41050900  1
  O  O15  1  0.26265200  0.97393400  0.91050900  1
loop_
_geom_bond_atom_site_label_1
_geom_bond_atom_site_label_2
_geom_bond_distance
_geom_bond_site_symmetry_2
Li0 O6 1.952611 1_556
Li0 O8 1.986474 1_655
Li0 O13 2.023976 1_555
Li0 O4 2.047544 1_555
Li1 O7 1.952611 1_555
Li1 O9 1.986474 1_555
Li1 O11 2.023976 1_555
Li1 O3 2.047544 1_555
Li2 O14 1.952611 1_545
Li2 O1 1.986474 1_555
Li2 O5 2.023976 1_555
Li2 O12 2.047544 1_545
Li3 O15 1.952611 1_544
Li3 O0 1.986474 1_455
Li3 O2 2.023976 1_555
Li3 O10 2.047544 1_545
Fe0 O2 1.897026 1_555
Fe0 O3 1.901076 1_455
Fe0 O9 1.923089 1_555
Fe0 O14 1.926201 1_545
Fe1 O5 1.897026 1_555
Fe1 O4 1.901076 1_555
Fe1 O8 1.923089 1_555
Fe1 O15 1.926201 1_545
Fe2 O13 1.897026 1_555
Fe2 O12 1.901076 1_655
Fe2 O1 1.923089 1_565
Fe2 O7 1.926201 1_555
Fe3 O11 1.897026 1_555
Fe3 O10 1.901076 1_555
Fe3 O0 1.923089 1_565
Fe3 O6 1.926201 1_555
O0 Si1 1.654061 1_555
O1 Si0 1.654061 1_555
O2 Si1 1.646932 1_555
O3 Si1 1.655024 1_555
O4 Si0 1.655024 1_555
O5 Si0 1.646932 1_455
O6 Si1 1.653203 1_555
O7 Si0 1.653203 1_555
O8 Si3 1.654061 1_555
O9 Si2 1.654061 1_555
O10 Si2 1.655024 1_555
O11 Si2 1.646932 1_655
O12 Si3 1.655024 1_555
O13 Si3 1.646932 1_555
O14 Si2 1.653203 1_555
O15 Si3 1.653203 1_555
