# generated using pymatgen
data_Li2CrFeO4
_symmetry_space_group_name_H-M   'P 1'
_cell_length_a   5.95326546
_cell_length_b   5.95326546
_cell_length_c   5.95326546
_cell_angle_alpha   120.30428340
_cell_angle_beta   120.04270837
_cell_angle_gamma   89.69990813
_symmetry_Int_Tables_number   1
_chemical_formula_structural   Li2CrFeO4
_chemical_formula_sum   'Li4 Cr2 Fe2 O8'
_cell_volume   148.79935935
_cell_formula_units_Z   2
loop_
 _symmetry_equiv_pos_site_id
 _symmetry_equiv_pos_as_xyz
  1  'x, y, z'
loop_
 _atom_site_type_symbol
 _atom_site_label
 _atom_site_symmetry_multiplicity
 _atom_site_fract_x
 _atom_site_fract_y
 _atom_site_fract_z
 _atom_site_occupancy
  Li  Li0  1  0.00000000  0.00000000  0.50000000  1
  Li  Li1  1  0.00000000  0.50000000  0.00000000  1
  Li  Li2  1  0.00000000  0.50000000  0.50000000  1
  Li  Li3  1  0.50000000  0.50000000  0.00000000  1
  Cr  Cr0  1  0.50000000  0.00000000  0.50000000  1
  Cr  Cr1  1  0.00000000  0.00000000  0.00000000  1
  Fe  Fe0  1  0.50000000  0.00000000  0.00000000  1
  Fe  Fe1  1  0.50000000  0.50000000  0.50000000  1
  O  O0  1  0.25709800  0.24226200  0.48516400  1
  O  O1  1  0.25709800  0.77193400  0.01483600  1
  O  O2  1  0.74547700  0.75841900  0.98705700  1
  O  O3  1  0.27136200  0.75841900  0.51294300  1
  O  O4  1  0.72863800  0.24158100  0.48705700  1
  O  O5  1  0.25452300  0.24158100  0.01294300  1
  O  O6  1  0.74290200  0.22806600  0.98516400  1
  O  O7  1  0.74290200  0.75773800  0.51483600  1
loop_
_geom_bond_atom_site_label_1
_geom_bond_atom_site_label_2
_geom_bond_distance
_geom_bond_site_symmetry_2
Li0 O4 2.155693 1_455
Li0 O3 2.155693 1_545
Li0 O5 2.155693 1_556
Li0 O2 2.155693 1_444
Li0 O0 2.171998 1_555
Li0 O7 2.171998 1_445
Li1 O5 2.155689 1_555
Li1 O2 2.155689 1_454
Li1 O3 2.155693 1_555
Li1 O4 2.155693 1_454
Li1 O6 2.171998 1_454
Li1 O1 2.171998 1_555
Li2 O1 2.163048 1_556
Li2 O7 2.163048 1_455
Li2 O6 2.163048 1_454
Li2 O0 2.163048 1_555
Li2 O4 2.182727 1_455
Li2 O3 2.182727 1_555
Li3 O0 2.163048 1_554
Li3 O6 2.163048 1_554
Li3 O7 2.163048 1_555
Li3 O1 2.163048 1_555
Li3 O2 2.182731 1_554
Li3 O5 2.182731 1_555
Cr0 O0 2.039068 1_555
Cr0 O6 2.039068 1_555
Cr0 O7 2.039068 1_545
Cr0 O1 2.039068 1_545
Cr0 O3 2.040689 1_545
Cr0 O4 2.040689 1_555
Cr1 O1 2.039068 1_545
Cr1 O0 2.039068 1_555
Cr1 O7 2.039068 1_444
Cr1 O6 2.039068 1_454
Cr1 O5 2.040684 1_555
Cr1 O2 2.040684 1_444
Fe0 O4 2.046677 1_555
Fe0 O3 2.046677 1_544
Fe0 O2 2.046681 1_544
Fe0 O5 2.046681 1_555
Fe0 O1 2.052270 1_545
Fe0 O6 2.052270 1_554
Fe1 O3 2.046677 1_555
Fe1 O4 2.046677 1_555
Fe1 O2 2.046677 1_555
Fe1 O5 2.046677 1_555
Fe1 O7 2.052270 1_555
Fe1 O0 2.052270 1_555
