# generated using pymatgen
data_Ca9Mg(PO4)7
_symmetry_space_group_name_H-M   'P 1'
_cell_length_a   13.85841198
_cell_length_b   13.85841198
_cell_length_c   13.85841197
_cell_angle_alpha   44.28371451
_cell_angle_beta   44.28371451
_cell_angle_gamma   44.28371610
_symmetry_Int_Tables_number   1
_chemical_formula_structural   Ca9Mg(PO4)7
_chemical_formula_sum   'Ca18 Mg2 P14 O56'
_cell_volume   1179.19988227
_cell_formula_units_Z   2
loop_
 _symmetry_equiv_pos_site_id
 _symmetry_equiv_pos_as_xyz
  1  'x, y, z'
loop_
 _atom_site_type_symbol
 _atom_site_label
 _atom_site_symmetry_multiplicity
 _atom_site_fract_x
 _atom_site_fract_y
 _atom_site_fract_z
 _atom_site_occupancy
  Ca  Ca0  1  0.03425100  0.46911300  0.01228800  1
  Ca  Ca1  1  0.46911300  0.01228800  0.03425100  1
  Ca  Ca2  1  0.01228800  0.03425100  0.46911300  1
  Ca  Ca3  1  0.53425100  0.51228800  0.96911300  1
  Ca  Ca4  1  0.51228800  0.96911300  0.53425100  1
  Ca  Ca5  1  0.96911300  0.53425100  0.51228800  1
  Ca  Ca6  1  0.93074500  0.34575300  0.91803700  1
  Ca  Ca7  1  0.34575300  0.91803700  0.93074500  1
  Ca  Ca8  1  0.91803700  0.93074500  0.34575300  1
  Ca  Ca9  1  0.43074500  0.41803700  0.84575300  1
  Ca  Ca10  1  0.41803700  0.84575300  0.43074500  1
  Ca  Ca11  1  0.84575300  0.43074500  0.41803700  1
  Ca  Ca12  1  0.06001700  0.65525700  0.08839100  1
  Ca  Ca13  1  0.65525700  0.08839100  0.06001700  1
  Ca  Ca14  1  0.08839100  0.06001700  0.65525700  1
  Ca  Ca15  1  0.56001700  0.58839100  0.15525700  1
  Ca  Ca16  1  0.58839100  0.15525700  0.56001700  1
  Ca  Ca17  1  0.15525700  0.56001700  0.58839100  1
  Mg  Mg0  1  0.49987800  0.49987800  0.49987800  1
  Mg  Mg1  1  0.99987800  0.99987800  0.99987800  1
  P  P0  1  0.25379700  0.25379700  0.25379700  1
  P  P1  1  0.75379700  0.75379700  0.75379700  1
  P  P2  1  0.18963300  0.68148800  0.22086300  1
  P  P3  1  0.68148800  0.22086300  0.18963300  1
  P  P4  1  0.22086300  0.18963300  0.68148800  1
  P  P5  1  0.68963300  0.72086300  0.18148800  1
  P  P6  1  0.72086300  0.18148800  0.68963300  1
  P  P7  1  0.18148800  0.68963300  0.72086300  1
  P  P8  1  0.27386100  0.81868500  0.30930600  1
  P  P9  1  0.81868500  0.30930600  0.27386100  1
  P  P10  1  0.30930600  0.27386100  0.81868500  1
  P  P11  1  0.77386100  0.80930600  0.31868500  1
  P  P12  1  0.80930600  0.31868500  0.77386100  1
  P  P13  1  0.31868500  0.77386100  0.80930600  1
  O  O0  1  0.29542500  0.29542500  0.29542500  1
  O  O1  1  0.79542500  0.79542500  0.79542500  1
  O  O2  1  0.39132900  0.21918500  0.11120900  1
  O  O3  1  0.21918500  0.11120900  0.39132900  1
  O  O4  1  0.11120900  0.39132900  0.21918500  1
  O  O5  1  0.89132900  0.61120900  0.71918500  1
  O  O6  1  0.61120900  0.71918500  0.89132900  1
  O  O7  1  0.71918500  0.89132900  0.61120900  1
  O  O8  1  0.13875900  0.60229000  0.23361700  1
  O  O9  1  0.60229000  0.23361700  0.13875900  1
  O  O10  1  0.23361700  0.13875900  0.60229000  1
  O  O11  1  0.63875900  0.73361700  0.10229000  1
  O  O12  1  0.73361700  0.10229000  0.63875900  1
  O  O13  1  0.10229000  0.63875900  0.73361700  1
  O  O14  1  0.36392900  0.62453200  0.14359900  1
  O  O15  1  0.62453200  0.14359900  0.36392900  1
  O  O16  1  0.14359900  0.36392900  0.62453200  1
  O  O17  1  0.86392900  0.64359900  0.12453200  1
  O  O18  1  0.64359900  0.12453200  0.86392900  1
  O  O19  1  0.12453200  0.86392900  0.64359900  1
  O  O20  1  0.11501600  0.65985700  0.38506800  1
  O  O21  1  0.65985700  0.38506800  0.11501600  1
  O  O22  1  0.38506800  0.11501600  0.65985700  1
  O  O23  1  0.61501600  0.88506800  0.15985700  1
  O  O24  1  0.88506800  0.15985700  0.61501600  1
  O  O25  1  0.15985700  0.61501600  0.88506800  1
  O  O26  1  0.12134000  0.85828700  0.12611500  1
  O  O27  1  0.85828700  0.12611500  0.12134000  1
  O  O28  1  0.12611500  0.12134000  0.85828700  1
  O  O29  1  0.62134000  0.62611500  0.35828700  1
  O  O30  1  0.62611500  0.35828700  0.62134000  1
  O  O31  1  0.35828700  0.62134000  0.62611500  1
  O  O32  1  0.29811000  0.91395200  0.30788800  1
  O  O33  1  0.91395200  0.30788800  0.29811000  1
  O  O34  1  0.30788800  0.29811000  0.91395200  1
  O  O35  1  0.79811000  0.80788800  0.41395200  1
  O  O36  1  0.80788800  0.41395200  0.79811000  1
  O  O37  1  0.41395200  0.79811000  0.80788800  1
  O  O38  1  0.10196000  0.85343000  0.40604600  1
  O  O39  1  0.85343000  0.40604600  0.10196000  1
  O  O40  1  0.40604600  0.10196000  0.85343000  1
  O  O41  1  0.60196000  0.90604600  0.35343000  1
  O  O42  1  0.90604600  0.35343000  0.60196000  1
  O  O43  1  0.35343000  0.60196000  0.90604600  1
  O  O44  1  0.33465900  0.86117700  0.14222300  1
  O  O45  1  0.86117700  0.14222300  0.33465900  1
  O  O46  1  0.14222300  0.33465900  0.86117700  1
  O  O47  1  0.83465900  0.64222300  0.36117700  1
  O  O48  1  0.64222300  0.36117700  0.83465900  1
  O  O49  1  0.36117700  0.83465900  0.64222300  1
  O  O50  1  0.36423300  0.64266100  0.38564200  1
  O  O51  1  0.64266100  0.38564200  0.36423300  1
  O  O52  1  0.38564200  0.36423300  0.64266100  1
  O  O53  1  0.86423300  0.88564200  0.14266100  1
  O  O54  1  0.88564200  0.14266100  0.86423300  1
  O  O55  1  0.14266100  0.86423300  0.88564200  1
loop_
_geom_bond_atom_site_label_1
_geom_bond_atom_site_label_2
_geom_bond_distance
_geom_bond_site_symmetry_2
Ca0 O39 2.389505 1_455
Ca0 O25 2.401668 1_554
Ca0 O17 2.407218 1_455
Ca0 O34 2.492270 1_554
Ca0 O13 2.508242 1_554
Ca0 O33 2.582274 1_455
Ca0 O46 2.684185 1_554
Ca0 O4 2.971128 1_555
Ca1 O40 2.389505 1_554
Ca1 O23 2.401668 1_545
Ca1 O18 2.407218 1_554
Ca1 O32 2.492270 1_545
Ca1 O11 2.508242 1_545
Ca1 O34 2.582274 1_554
Ca1 O44 2.684185 1_545
Ca1 O2 2.971128 1_555
Ca2 O38 2.389505 1_545
Ca2 O24 2.401668 1_455
Ca2 O19 2.407218 1_545
Ca2 O33 2.492270 1_455
Ca2 O12 2.508242 1_455
Ca2 O32 2.582274 1_545
Ca2 O45 2.684185 1_455
Ca2 O3 2.971128 1_555
Ca3 O43 2.389505 1_555
Ca3 O21 2.401668 1_556
Ca3 O14 2.407218 1_556
Ca3 O36 2.492270 1_555
Ca3 O9 2.508242 1_556
Ca3 O37 2.582274 1_555
Ca3 O48 2.684185 1_555
Ca3 O6 2.971128 1_555
Ca4 O41 2.389505 1_555
Ca4 O22 2.401668 1_565
Ca4 O15 2.407218 1_565
Ca4 O37 2.492270 1_555
Ca4 O10 2.508242 1_565
Ca4 O35 2.582274 1_555
Ca4 O49 2.684185 1_555
Ca4 O7 2.971128 1_555
Ca5 O42 2.389505 1_555
Ca5 O20 2.401668 1_655
Ca5 O16 2.407218 1_655
Ca5 O35 2.492270 1_555
Ca5 O8 2.508242 1_655
Ca5 O36 2.582274 1_555
Ca5 O47 2.684185 1_555
Ca5 O5 2.971128 1_555
Ca6 O46 2.335726 1_655
Ca6 O36 2.460257 1_555
Ca6 O28 2.471730 1_655
Ca6 O5 2.487772 1_555
Ca6 O39 2.490032 1_556
Ca6 O27 2.501599 1_556
Ca6 O21 2.523886 1_556
Ca6 O16 2.779803 1_655
Ca7 O44 2.335726 1_556
Ca7 O37 2.460257 1_555
Ca7 O26 2.471730 1_556
Ca7 O6 2.487772 1_555
Ca7 O40 2.490032 1_565
Ca7 O28 2.501599 1_565
Ca7 O22 2.523886 1_565
Ca7 O14 2.779803 1_556
Ca8 O45 2.335726 1_565
Ca8 O35 2.460257 1_555
Ca8 O27 2.471730 1_565
Ca8 O7 2.487772 1_555
Ca8 O38 2.490032 1_655
Ca8 O26 2.501599 1_655
Ca8 O20 2.523886 1_655
Ca8 O15 2.779804 1_565
Ca9 O48 2.335726 1_555
Ca9 O34 2.460257 1_555
Ca9 O30 2.471730 1_555
Ca9 O2 2.487772 1_556
Ca9 O43 2.490032 1_555
Ca9 O31 2.501599 1_555
Ca9 O25 2.523886 1_555
Ca9 O18 2.779804 1_555
Ca10 O49 2.335726 1_555
Ca10 O32 2.460257 1_555
Ca10 O31 2.471730 1_555
Ca10 O3 2.487772 1_565
Ca10 O41 2.490032 1_555
Ca10 O29 2.501599 1_555
Ca10 O23 2.523886 1_555
Ca10 O19 2.779803 1_555
Ca11 O47 2.335726 1_555
Ca11 O33 2.460257 1_555
Ca11 O29 2.471730 1_555
Ca11 O4 2.487772 1_655
Ca11 O42 2.490032 1_555
Ca11 O30 2.501599 1_555
Ca11 O24 2.523886 1_555
Ca11 O17 2.779803 1_555
Ca12 O8 2.379626 1_555
Ca12 O25 2.393339 1_554
Ca12 O4 2.408419 1_555
Ca12 O55 2.466674 1_554
Ca12 O17 2.495114 1_455
Ca12 O53 2.496858 1_455
Ca12 O47 2.646380 1_455
Ca12 O43 2.669394 1_554
Ca13 O9 2.379626 1_555
Ca13 O23 2.393339 1_545
Ca13 O2 2.408419 1_555
Ca13 O53 2.466674 1_545
Ca13 O18 2.495114 1_554
Ca13 O54 2.496858 1_554
Ca13 O48 2.646380 1_554
Ca13 O41 2.669394 1_545
Ca14 O10 2.379626 1_555
Ca14 O24 2.393339 1_455
Ca14 O3 2.408419 1_555
Ca14 O54 2.466674 1_455
Ca14 O19 2.495114 1_545
Ca14 O55 2.496858 1_545
Ca14 O49 2.646380 1_545
Ca14 O42 2.669394 1_455
Ca15 O11 2.379626 1_555
Ca15 O21 2.393339 1_555
Ca15 O6 2.408419 1_554
Ca15 O51 2.466674 1_555
Ca15 O14 2.495114 1_555
Ca15 O50 2.496858 1_555
Ca15 O44 2.646380 1_555
Ca15 O39 2.669394 1_555
Ca16 O12 2.379626 1_555
Ca16 O22 2.393339 1_555
Ca16 O7 2.408419 1_545
Ca16 O52 2.466674 1_555
Ca16 O15 2.495114 1_555
Ca16 O51 2.496858 1_555
Ca16 O45 2.646380 1_555
Ca16 O40 2.669394 1_555
Ca17 O13 2.379626 1_555
Ca17 O20 2.393339 1_555
Ca17 O5 2.408419 1_455
Ca17 O50 2.466674 1_555
Ca17 O16 2.495114 1_555
Ca17 O52 2.496858 1_555
Ca17 O46 2.646380 1_555
Ca17 O38 2.669394 1_555
Mg0 O29 2.077603 1_555
Mg0 O31 2.077603 1_555
Mg0 O30 2.077603 1_555
Mg0 O52 2.098918 1_555
Mg0 O51 2.098918 1_555
Mg0 O50 2.098918 1_555
Mg1 O28 2.077603 1_665
Mg1 O26 2.077603 1_656
Mg1 O27 2.077603 1_566
Mg1 O53 2.098918 1_556
Mg1 O54 2.098918 1_565
Mg1 O55 2.098918 1_655
O0 P0 1.558196 1_555
O1 P1 1.558196 1_555
O2 P0 1.556658 1_555
O3 P0 1.556658 1_555
O4 P0 1.556658 1_555
O5 P1 1.556658 1_555
O6 P1 1.556658 1_555
O7 P1 1.556658 1_555
O8 P2 1.544248 1_555
O9 P3 1.544248 1_555
O10 P4 1.544248 1_555
O11 P5 1.544248 1_555
O12 P6 1.544248 1_555
O13 P7 1.544248 1_555
O14 P2 1.543111 1_555
O15 P3 1.543111 1_555
O16 P4 1.543111 1_555
O17 P5 1.543111 1_555
O18 P6 1.543111 1_555
O19 P7 1.543111 1_555
O20 P2 1.560618 1_555
O21 P3 1.560618 1_555
O22 P4 1.560618 1_555
O23 P5 1.560618 1_555
O24 P6 1.560618 1_555
O25 P7 1.560618 1_555
O26 P2 1.573507 1_555
O27 P3 1.573507 1_555
O28 P4 1.573507 1_555
O29 P5 1.573507 1_555
O30 P6 1.573507 1_555
O31 P7 1.573507 1_555
O32 P8 1.563655 1_555
O33 P9 1.563655 1_555
O34 P10 1.563655 1_555
O35 P11 1.563655 1_555
O36 P12 1.563655 1_555
O37 P13 1.563655 1_555
O38 P8 1.553541 1_555
O39 P9 1.553541 1_555
O40 P10 1.553541 1_555
O41 P11 1.553541 1_555
O42 P12 1.553541 1_555
O43 P13 1.553541 1_555
O44 P8 1.543699 1_555
O45 P9 1.543699 1_555
O46 P10 1.543699 1_555
O47 P11 1.543699 1_555
O48 P12 1.543699 1_555
O49 P13 1.543699 1_555
O50 P8 1.570408 1_555
O51 P9 1.570408 1_555
O52 P10 1.570408 1_555
O53 P11 1.570408 1_555
O54 P12 1.570408 1_555
O55 P13 1.570408 1_555
