# generated using pymatgen
data_Li6Fe5NiO12
_symmetry_space_group_name_H-M   'P 1'
_cell_length_a   5.10443181
_cell_length_b   5.10443181
_cell_length_c   10.15238360
_cell_angle_alpha   85.78232718
_cell_angle_beta   85.78232718
_cell_angle_gamma   119.95221692
_symmetry_Int_Tables_number   1
_chemical_formula_structural   Li6Fe5NiO12
_chemical_formula_sum   'Li6 Fe5 Ni1 O12'
_cell_volume   226.70418882
_cell_formula_units_Z   1
loop_
 _symmetry_equiv_pos_site_id
 _symmetry_equiv_pos_as_xyz
  1  'x, y, z'
loop_
 _atom_site_type_symbol
 _atom_site_label
 _atom_site_symmetry_multiplicity
 _atom_site_fract_x
 _atom_site_fract_y
 _atom_site_fract_z
 _atom_site_occupancy
  Li  Li0  1  0.89307400  0.89307400  0.25085600  1
  Li  Li1  1  0.43663600  0.76940000  0.74303600  1
  Li  Li2  1  0.76940000  0.43663600  0.74303600  1
  Li  Li3  1  0.23060000  0.56336400  0.25696400  1
  Li  Li4  1  0.56336400  0.23060000  0.25696400  1
  Li  Li5  1  0.10692600  0.10692600  0.74914400  1
  Fe  Fe0  1  0.50000000  0.50000000  0.50000000  1
  Fe  Fe1  1  0.16620900  0.83379100  0.50000000  1
  Fe  Fe2  1  0.83379100  0.16620900  0.50000000  1
  Fe  Fe3  1  0.33224900  0.66775100  0.00000000  1
  Fe  Fe4  1  0.66775100  0.33224900  0.00000000  1
  Ni  Ni0  1  0.00000000  0.00000000  0.00000000  1
  O  O0  1  0.80045200  0.80045200  0.61303900  1
  O  O1  1  0.30533900  0.96466300  0.11383200  1
  O  O2  1  0.96466300  0.30533900  0.11383200  1
  O  O3  1  0.53218100  0.86572800  0.38704000  1
  O  O4  1  0.86572800  0.53218100  0.38704000  1
  O  O5  1  0.62023100  0.62023100  0.11447900  1
  O  O6  1  0.37976900  0.37976900  0.88552100  1
  O  O7  1  0.13427200  0.46781900  0.61296000  1
  O  O8  1  0.46781900  0.13427200  0.61296000  1
  O  O9  1  0.03533700  0.69466100  0.88616800  1
  O  O10  1  0.69466100  0.03533700  0.88616800  1
  O  O11  1  0.19954800  0.19954800  0.38696100  1
loop_
_geom_bond_atom_site_label_1
_geom_bond_atom_site_label_2
_geom_bond_distance
_geom_bond_site_symmetry_2
Li0 O5 2.103970 1_555
Li0 O4 2.159812 1_555
Li0 O3 2.159812 1_555
Li0 O11 2.235189 1_665
Li0 O2 2.285587 1_565
Li0 O1 2.285587 1_655
Li1 O10 2.115499 1_565
Li1 O0 2.128487 1_555
Li1 O8 2.132915 1_565
Li1 O7 2.173042 1_555
Li1 O6 2.251863 1_555
Li1 O9 2.270105 1_555
Li2 O9 2.115499 1_655
Li2 O0 2.128487 1_555
Li2 O7 2.132915 1_655
Li2 O8 2.173042 1_555
Li2 O6 2.251863 1_555
Li2 O10 2.270105 1_555
Li3 O2 2.115499 1_455
Li3 O11 2.128487 1_555
Li3 O4 2.132915 1_455
Li3 O3 2.173042 1_555
Li3 O5 2.251863 1_555
Li3 O1 2.270105 1_555
Li4 O1 2.115499 1_545
Li4 O11 2.128487 1_555
Li4 O3 2.132915 1_545
Li4 O4 2.173042 1_555
Li4 O5 2.251863 1_555
Li4 O2 2.270105 1_555
Li5 O6 2.103970 1_555
Li5 O7 2.159812 1_555
Li5 O8 2.159812 1_555
Li5 O0 2.235189 1_445
Li5 O10 2.285587 1_455
Li5 O9 2.285587 1_545
Fe0 O7 2.044113 1_555
Fe0 O8 2.044113 1_555
Fe0 O4 2.044113 1_555
Fe0 O3 2.044113 1_555
Fe0 O0 2.047005 1_555
Fe0 O11 2.047005 1_555
Fe1 O0 2.042171 1_455
Fe1 O11 2.042171 1_565
Fe1 O7 2.045669 1_555
Fe1 O3 2.045669 1_555
Fe1 O8 2.048997 1_565
Fe1 O4 2.048997 1_455
Fe2 O0 2.042171 1_545
Fe2 O11 2.042171 1_655
Fe2 O4 2.045669 1_555
Fe2 O8 2.045669 1_555
Fe2 O7 2.048997 1_655
Fe2 O3 2.048997 1_545
Fe3 O1 2.023248 1_555
Fe3 O9 2.023248 1_554
Fe3 O5 2.033805 1_555
Fe3 O6 2.033805 1_554
Fe3 O2 2.044229 1_455
Fe3 O10 2.044229 1_564
Fe4 O10 2.023248 1_554
Fe4 O2 2.023248 1_555
Fe4 O5 2.033805 1_555
Fe4 O6 2.033805 1_554
Fe4 O1 2.044229 1_545
Fe4 O9 2.044229 1_654
Ni0 O1 2.076603 1_545
Ni0 O2 2.076603 1_455
Ni0 O10 2.076603 1_454
Ni0 O9 2.076603 1_544
Ni0 O5 2.109793 1_445
Ni0 O6 2.109793 1_554
