# generated using pymatgen
data_Li5MnO4
_symmetry_space_group_name_H-M   'P 1'
_cell_length_a   5.36011200
_cell_length_b   9.92618900
_cell_length_c   15.35609700
_cell_angle_alpha   90.00000000
_cell_angle_beta   90.00000000
_cell_angle_gamma   90.00000000
_symmetry_Int_Tables_number   1
_chemical_formula_structural   Li5MnO4
_chemical_formula_sum   'Li40 Mn8 O32'
_cell_volume   817.02858511
_cell_formula_units_Z   8
loop_
 _symmetry_equiv_pos_site_id
 _symmetry_equiv_pos_as_xyz
  1  'x, y, z'
loop_
 _atom_site_type_symbol
 _atom_site_label
 _atom_site_symmetry_multiplicity
 _atom_site_fract_x
 _atom_site_fract_y
 _atom_site_fract_z
 _atom_site_occupancy
  Li  Li0  1  0.92324500  0.95824700  0.43073200  1
  Li  Li1  1  0.57675500  0.95824700  0.93073200  1
  Li  Li2  1  0.40008500  0.87729200  0.75733800  1
  Li  Li3  1  0.09991500  0.87729200  0.25733800  1
  Li  Li4  1  0.29246400  0.78926500  0.99346100  1
  Li  Li5  1  0.20753600  0.78926500  0.49346100  1
  Li  Li6  1  0.89369100  0.83689100  0.82604500  1
  Li  Li7  1  0.60630900  0.83689100  0.32604500  1
  Li  Li8  1  0.43747000  0.82694900  0.15603300  1
  Li  Li9  1  0.06253000  0.82694900  0.65603300  1
  Li  Li10  1  0.93747000  0.67305100  0.15603300  1
  Li  Li11  1  0.56253000  0.67305100  0.65603300  1
  Li  Li12  1  0.39369100  0.66310900  0.82604500  1
  Li  Li13  1  0.10630900  0.66310900  0.32604500  1
  Li  Li14  1  0.79246400  0.71073500  0.99346100  1
  Li  Li15  1  0.70753600  0.71073500  0.49346100  1
  Li  Li16  1  0.59991500  0.62270800  0.25733800  1
  Li  Li17  1  0.90008500  0.62270800  0.75733800  1
  Li  Li18  1  0.07675500  0.54175300  0.93073200  1
  Li  Li19  1  0.42324500  0.54175300  0.43073200  1
  Li  Li20  1  0.92324500  0.45824700  0.06926800  1
  Li  Li21  1  0.57675500  0.45824700  0.56926800  1
  Li  Li22  1  0.09991500  0.37729200  0.24266200  1
  Li  Li23  1  0.40008500  0.37729200  0.74266200  1
  Li  Li24  1  0.20753600  0.28926500  0.00653900  1
  Li  Li25  1  0.29246400  0.28926500  0.50653900  1
  Li  Li26  1  0.60630900  0.33689100  0.17395500  1
  Li  Li27  1  0.89369100  0.33689100  0.67395500  1
  Li  Li28  1  0.43747000  0.32694900  0.34396700  1
  Li  Li29  1  0.06253000  0.32694900  0.84396700  1
  Li  Li30  1  0.93747000  0.17305100  0.34396700  1
  Li  Li31  1  0.56253000  0.17305100  0.84396700  1
  Li  Li32  1  0.39369100  0.16310900  0.67395500  1
  Li  Li33  1  0.10630900  0.16310900  0.17395500  1
  Li  Li34  1  0.79246400  0.21073500  0.50653900  1
  Li  Li35  1  0.70753600  0.21073500  0.00653900  1
  Li  Li36  1  0.90008500  0.12270800  0.74266200  1
  Li  Li37  1  0.59991500  0.12270800  0.24266200  1
  Li  Li38  1  0.07675500  0.04175300  0.56926800  1
  Li  Li39  1  0.42324500  0.04175300  0.06926800  1
  Mn  Mn0  1  0.85004200  0.94403800  0.12007300  1
  Mn  Mn1  1  0.64995800  0.94403800  0.62007300  1
  Mn  Mn2  1  0.35004200  0.55596200  0.12007300  1
  Mn  Mn3  1  0.14995800  0.55596200  0.62007300  1
  Mn  Mn4  1  0.85004200  0.44403800  0.37992700  1
  Mn  Mn5  1  0.64995800  0.44403800  0.87992700  1
  Mn  Mn6  1  0.35004200  0.05596200  0.37992700  1
  Mn  Mn7  1  0.14995800  0.05596200  0.87992700  1
  O  O0  1  0.18442100  0.97486000  0.14907900  1
  O  O1  1  0.31557900  0.97486000  0.64907900  1
  O  O2  1  0.77459500  0.81878700  0.21200300  1
  O  O3  1  0.72540500  0.81878700  0.71200300  1
  O  O4  1  0.60782800  0.86551700  0.04078300  1
  O  O5  1  0.89217200  0.86551700  0.54078300  1
  O  O6  1  0.23865500  0.86703400  0.37881200  1
  O  O7  1  0.26134500  0.86703400  0.87881200  1
  O  O8  1  0.73865500  0.63296600  0.37881200  1
  O  O9  1  0.76134500  0.63296600  0.87881200  1
  O  O10  1  0.10782800  0.63448300  0.04078300  1
  O  O11  1  0.39217200  0.63448300  0.54078300  1
  O  O12  1  0.22540500  0.68121300  0.71200300  1
  O  O13  1  0.27459500  0.68121300  0.21200300  1
  O  O14  1  0.68442100  0.52514000  0.14907900  1
  O  O15  1  0.81557900  0.52514000  0.64907900  1
  O  O16  1  0.18442100  0.47486000  0.35092100  1
  O  O17  1  0.31557900  0.47486000  0.85092100  1
  O  O18  1  0.72540500  0.31878700  0.78799700  1
  O  O19  1  0.77459500  0.31878700  0.28799700  1
  O  O20  1  0.89217200  0.36551700  0.95921700  1
  O  O21  1  0.60782800  0.36551700  0.45921700  1
  O  O22  1  0.23865500  0.36703400  0.12118800  1
  O  O23  1  0.26134500  0.36703400  0.62118800  1
  O  O24  1  0.76134500  0.13296600  0.62118800  1
  O  O25  1  0.73865500  0.13296600  0.12118800  1
  O  O26  1  0.10782800  0.13448300  0.45921700  1
  O  O27  1  0.39217200  0.13448300  0.95921700  1
  O  O28  1  0.22540500  0.18121300  0.78799700  1
  O  O29  1  0.27459500  0.18121300  0.28799700  1
  O  O30  1  0.68442100  0.02514000  0.35092100  1
  O  O31  1  0.81557900  0.02514000  0.85092100  1
loop_
_geom_bond_atom_site_label_1
_geom_bond_atom_site_label_2
_geom_bond_distance
_geom_bond_site_symmetry_2
Li0 O30 1.892528 1_565
Li0 O5 1.931560 1_555
Li0 O26 2.056806 1_665
Li0 O6 2.076934 1_655
Li1 O31 1.892528 1_565
Li1 O4 1.931560 1_556
Li1 O27 2.056806 1_565
Li1 O7 2.076934 1_555
Li2 O3 1.965342 1_555
Li2 O1 1.976567 1_555
Li2 O7 2.010720 1_555
Li2 O12 2.269244 1_555
Li3 O2 1.965342 1_455
Li3 O0 1.976567 1_555
Li3 O6 2.010720 1_555
Li3 O13 2.269244 1_555
Li4 O7 1.929587 1_555
Li4 O10 1.966729 1_556
Li4 O4 1.989562 1_556
Li5 O6 1.929587 1_555
Li5 O11 1.966729 1_555
Li5 O5 1.989562 1_455
Li6 O31 1.952657 1_565
Li6 O3 1.978079 1_555
Li6 O7 2.151657 1_655
Li6 O9 2.292856 1_555
Li7 O30 1.952657 1_565
Li7 O2 1.978079 1_555
Li7 O6 2.151657 1_555
Li7 O8 2.292856 1_555
Li8 O13 1.895665 1_555
Li8 O0 2.001683 1_555
Li8 O2 2.002653 1_555
Li8 O4 2.027940 1_555
Li9 O12 1.895665 1_555
Li9 O1 2.001683 1_555
Li9 O3 2.002653 1_455
Li9 O5 2.027940 1_455
Li10 O2 1.895665 1_555
Li10 O14 2.001683 1_555
Li10 O13 2.002653 1_655
Li10 O10 2.027940 1_655
Li11 O3 1.895665 1_555
Li11 O15 2.001683 1_555
Li11 O12 2.002653 1_555
Li11 O11 2.027940 1_555
Li12 O17 1.952657 1_555
Li12 O12 1.978079 1_555
Li12 O9 2.151657 1_555
Li12 O7 2.292856 1_555
Li13 O16 1.952657 1_555
Li13 O13 1.978079 1_555
Li13 O8 2.151657 1_455
Li13 O6 2.292856 1_555
Li14 O9 1.929587 1_555
Li14 O4 1.966729 1_556
Li14 O10 1.989562 1_656
Li15 O8 1.929587 1_555
Li15 O5 1.966729 1_555
Li15 O11 1.989562 1_555
Li16 O13 1.965342 1_555
Li16 O14 1.976567 1_555
Li16 O8 2.010720 1_555
Li16 O2 2.269244 1_555
Li17 O12 1.965342 1_655
Li17 O15 1.976567 1_555
Li17 O9 2.010720 1_555
Li17 O3 2.269244 1_555
Li18 O17 1.892528 1_555
Li18 O10 1.931560 1_556
Li18 O20 2.056806 1_455
Li18 O9 2.076934 1_455
Li19 O16 1.892528 1_555
Li19 O11 1.931560 1_555
Li19 O21 2.056806 1_555
Li19 O8 2.076934 1_555
Li20 O14 1.892528 1_555
Li20 O20 1.931560 1_554
Li20 O10 2.056806 1_655
Li20 O22 2.076934 1_655
Li21 O15 1.892528 1_555
Li21 O21 1.931560 1_555
Li21 O11 2.056806 1_555
Li21 O23 2.076934 1_555
Li22 O19 1.965342 1_455
Li22 O16 1.976567 1_555
Li22 O22 2.010720 1_555
Li22 O29 2.269244 1_555
Li23 O18 1.965342 1_555
Li23 O17 1.976567 1_555
Li23 O23 2.010720 1_555
Li23 O28 2.269244 1_555
Li24 O22 1.929587 1_555
Li24 O27 1.966729 1_554
Li24 O20 1.989562 1_454
Li25 O23 1.929587 1_555
Li25 O26 1.966729 1_555
Li25 O21 1.989562 1_555
Li26 O14 1.952657 1_555
Li26 O19 1.978079 1_555
Li26 O22 2.151657 1_555
Li26 O25 2.292856 1_555
Li27 O15 1.952657 1_555
Li27 O18 1.978079 1_555
Li27 O23 2.151657 1_655
Li27 O24 2.292856 1_555
Li28 O29 1.895665 1_555
Li28 O16 2.001683 1_555
Li28 O19 2.002653 1_555
Li28 O21 2.027940 1_555
Li29 O28 1.895665 1_555
Li29 O17 2.001683 1_555
Li29 O18 2.002653 1_455
Li29 O20 2.027940 1_455
Li30 O19 1.895665 1_555
Li30 O30 2.001683 1_555
Li30 O29 2.002653 1_655
Li30 O26 2.027940 1_655
Li31 O18 1.895665 1_555
Li31 O31 2.001683 1_555
Li31 O28 2.002653 1_555
Li31 O27 2.027940 1_555
Li32 O1 1.952657 1_545
Li32 O28 1.978079 1_555
Li32 O24 2.151657 1_555
Li32 O23 2.292856 1_555
Li33 O0 1.952657 1_545
Li33 O29 1.978079 1_555
Li33 O25 2.151657 1_455
Li33 O22 2.292856 1_555
Li34 O24 1.929587 1_555
Li34 O21 1.966729 1_555
Li34 O26 1.989562 1_655
Li35 O25 1.929587 1_555
Li35 O20 1.966729 1_554
Li35 O27 1.989562 1_554
Li36 O28 1.965342 1_655
Li36 O31 1.976567 1_555
Li36 O24 2.010720 1_555
Li36 O18 2.269244 1_555
Li37 O29 1.965342 1_555
Li37 O30 1.976567 1_555
Li37 O25 2.010720 1_555
Li37 O19 2.269244 1_555
Li38 O1 1.892528 1_545
Li38 O26 1.931560 1_555
Li38 O5 2.056806 1_445
Li38 O24 2.076934 1_455
Li39 O0 1.892528 1_545
Li39 O27 1.931560 1_554
Li39 O4 2.056806 1_545
Li39 O25 2.076934 1_555
Mn0 O0 1.871997 1_655
Mn0 O2 1.924086 1_555
Mn0 O4 1.943082 1_555
Mn0 O25 1.968156 1_565
Mn1 O1 1.871997 1_555
Mn1 O3 1.924086 1_555
Mn1 O5 1.943082 1_555
Mn1 O24 1.968156 1_565
Mn2 O14 1.871997 1_555
Mn2 O13 1.924086 1_555
Mn2 O10 1.943082 1_555
Mn2 O22 1.968156 1_555
Mn3 O15 1.871997 1_455
Mn3 O12 1.924086 1_555
Mn3 O11 1.943082 1_555
Mn3 O23 1.968156 1_555
Mn4 O16 1.871997 1_655
Mn4 O19 1.924086 1_555
Mn4 O21 1.943082 1_555
Mn4 O8 1.968156 1_555
Mn5 O17 1.871997 1_555
Mn5 O18 1.924086 1_555
Mn5 O20 1.943082 1_555
Mn5 O9 1.968156 1_555
Mn6 O30 1.871997 1_555
Mn6 O29 1.924086 1_555
Mn6 O26 1.943082 1_555
Mn6 O6 1.968156 1_545
Mn7 O31 1.871997 1_455
Mn7 O28 1.924086 1_555
Mn7 O27 1.943082 1_555
Mn7 O7 1.968156 1_545
