# generated using pymatgen
data_NbCu3(PO4)4
_symmetry_space_group_name_H-M   'P 1'
_cell_length_a   5.00566535
_cell_length_b   9.89929276
_cell_length_c   6.04011300
_cell_angle_alpha   90.00000000
_cell_angle_beta   90.00000000
_cell_angle_gamma   88.75950892
_symmetry_Int_Tables_number   1
_chemical_formula_structural   NbCu3(PO4)4
_chemical_formula_sum   'Nb1 Cu3 P4 O16'
_cell_volume   299.23283563
_cell_formula_units_Z   1
loop_
 _symmetry_equiv_pos_site_id
 _symmetry_equiv_pos_as_xyz
  1  'x, y, z'
loop_
 _atom_site_type_symbol
 _atom_site_label
 _atom_site_symmetry_multiplicity
 _atom_site_fract_x
 _atom_site_fract_y
 _atom_site_fract_z
 _atom_site_occupancy
  Nb  Nb0  1  0.96788800  0.28122100  0.25000000  1
  Cu  Cu0  1  0.05109000  0.72250900  0.75000000  1
  Cu  Cu1  1  0.39484300  0.20298400  0.75000000  1
  Cu  Cu2  1  0.58887600  0.78427900  0.25000000  1
  P  P0  1  0.08856600  0.61260500  0.25000000  1
  P  P1  1  0.40385800  0.09111400  0.25000000  1
  P  P2  1  0.57799300  0.89828600  0.75000000  1
  P  P3  1  0.93345500  0.40617300  0.75000000  1
  O  O0  1  0.14467400  0.44939900  0.25000000  1
  O  O1  1  0.22788000  0.66936000  0.04505100  1
  O  O2  1  0.22788000  0.66936000  0.45494900  1
  O  O3  1  0.23433000  0.37813600  0.75000000  1
  O  O4  1  0.27500100  0.88151300  0.75000000  1
  O  O5  1  0.24477400  0.16754600  0.05779100  1
  O  O6  1  0.24477400  0.16754600  0.44220900  1
  O  O7  1  0.36149600  0.94170300  0.25000000  1
  O  O8  1  0.62994300  0.05250600  0.75000000  1
  O  O9  1  0.73277900  0.82841500  0.55253900  1
  O  O10  1  0.73277900  0.82841500  0.94746100  1
  O  O11  1  0.69646900  0.13326200  0.25000000  1
  O  O12  1  0.78238600  0.61870500  0.25000000  1
  O  O13  1  0.80488500  0.33094600  0.54169200  1
  O  O14  1  0.80488500  0.33094600  0.95830800  1
  O  O15  1  0.84849900  0.55307300  0.75000000  1
loop_
_geom_bond_atom_site_label_1
_geom_bond_atom_site_label_2
_geom_bond_distance
_geom_bond_site_symmetry_2
Nb0 O0 1.902261 1_655
Nb0 O13 1.998698 1_555
Nb0 O14 1.998698 1_554
Nb0 O11 2.019247 1_555
Nb0 O6 2.113671 1_655
Nb0 O5 2.113671 1_655
Cu0 O4 1.951972 1_555
Cu0 O15 1.978731 1_455
Cu0 O1 2.053248 1_556
Cu0 O2 2.053248 1_555
Cu0 O9 2.233405 1_455
Cu0 O10 2.233405 1_455
Cu1 O8 1.878301 1_555
Cu1 O3 1.895150 1_555
Cu1 O5 2.038381 1_556
Cu1 O6 2.038381 1_555
Cu2 O12 1.885754 1_555
Cu2 O7 1.909775 1_555
Cu2 O9 2.015608 1_555
Cu2 O10 2.015608 1_554
Cu2 O2 2.486152 1_555
Cu2 O1 2.486152 1_555
O0 P0 1.633853 1_555
O1 P0 1.533416 1_555
O2 P0 1.533416 1_555
O3 P3 1.525519 1_455
O4 P2 1.529307 1_555
O5 P1 1.590080 1_555
O6 P1 1.590080 1_555
O7 P1 1.498724 1_565
O8 P2 1.554198 1_545
O9 P2 1.574178 1_555
O10 P2 1.574178 1_555
O11 P1 1.531643 1_555
O12 P0 1.532517 1_655
O13 P3 1.603930 1_555
O14 P3 1.603930 1_555
O15 P3 1.506249 1_555
