# generated using pymatgen
data_MnH6SO6
_symmetry_space_group_name_H-M   'P 1'
_cell_length_a   8.99280200
_cell_length_b   6.72676600
_cell_length_c   10.52106576
_cell_angle_alpha   56.43270371
_cell_angle_beta   90.00000000
_cell_angle_gamma   90.00000000
_symmetry_Int_Tables_number   1
_chemical_formula_structural   MnH6SO6
_chemical_formula_sum   'Mn4 H24 S4 O24'
_cell_volume   530.30975999
_cell_formula_units_Z   4
loop_
 _symmetry_equiv_pos_site_id
 _symmetry_equiv_pos_as_xyz
  1  'x, y, z'
loop_
 _atom_site_type_symbol
 _atom_site_label
 _atom_site_symmetry_multiplicity
 _atom_site_fract_x
 _atom_site_fract_y
 _atom_site_fract_z
 _atom_site_occupancy
  Mn  Mn0  1  0.25620000  0.70962900  0.35958700  1
  Mn  Mn1  1  0.75620000  0.29037100  0.14041300  1
  Mn  Mn2  1  0.24380000  0.70962900  0.85958700  1
  Mn  Mn3  1  0.74380000  0.29037100  0.64041300  1
  H  H0  1  0.69543700  0.81402700  0.22536800  1
  H  H1  1  0.32193000  0.01213800  0.02950000  1
  H  H2  1  0.54598400  0.96292000  0.15129600  1
  H  H3  1  0.98575100  0.01583200  0.13074800  1
  H  H4  1  0.01334500  0.27668000  0.97851300  1
  H  H5  1  0.51334500  0.72332000  0.52148700  1
  H  H6  1  0.82407500  0.83117400  0.39798700  1
  H  H7  1  0.32407500  0.16882600  0.10201300  1
  H  H8  1  0.48575100  0.98416800  0.36925200  1
  H  H9  1  0.04598400  0.03708000  0.34870400  1
  H  H10  1  0.82193000  0.98786200  0.47050000  1
  H  H11  1  0.19543700  0.18597300  0.27463200  1
  H  H12  1  0.80456300  0.81402700  0.72536800  1
  H  H13  1  0.17807000  0.01213800  0.52950000  1
  H  H14  1  0.95401600  0.96292000  0.65129600  1
  H  H15  1  0.51424900  0.01583200  0.63074800  1
  H  H16  1  0.67592500  0.83117400  0.89798700  1
  H  H17  1  0.17592500  0.16882600  0.60201300  1
  H  H18  1  0.48665500  0.27668000  0.47851300  1
  H  H19  1  0.98665500  0.72332000  0.02148700  1
  H  H20  1  0.01424900  0.98416800  0.86925200  1
  H  H21  1  0.45401600  0.03708000  0.84870400  1
  H  H22  1  0.67807000  0.98786200  0.97050000  1
  H  H23  1  0.30456300  0.18597300  0.77463200  1
  S  S0  1  0.06984100  0.49349600  0.67609200  1
  S  S1  1  0.56984100  0.50650400  0.82390800  1
  S  S2  1  0.43015900  0.49349600  0.17609200  1
  S  S3  1  0.93015900  0.50650400  0.32390800  1
  O  O0  1  0.96023900  0.28342000  0.73509400  1
  O  O1  1  0.19990600  0.43287100  0.60266100  1
  O  O2  1  0.65590100  0.96937600  0.13966400  1
  O  O3  1  0.33861200  0.00449500  0.12595800  1
  O  O4  1  0.63853500  0.54907900  0.67576400  1
  O  O5  1  0.13853500  0.45092100  0.82423600  1
  O  O6  1  0.45428200  0.81427400  0.42633100  1
  O  O7  1  0.95428200  0.18572600  0.07366900  1
  O  O8  1  0.83861200  0.99550500  0.37404200  1
  O  O9  1  0.69990600  0.56712900  0.89733900  1
  O  O10  1  0.15590100  0.03062400  0.36033600  1
  O  O11  1  0.46023900  0.71658000  0.76490600  1
  O  O12  1  0.53976100  0.28342000  0.23509400  1
  O  O13  1  0.84409900  0.96937600  0.63966400  1
  O  O14  1  0.30009400  0.43287100  0.10266100  1
  O  O15  1  0.16138800  0.00449500  0.62595800  1
  O  O16  1  0.04571800  0.81427400  0.92633100  1
  O  O17  1  0.54571800  0.18572600  0.57366900  1
  O  O18  1  0.86146500  0.54907900  0.17576400  1
  O  O19  1  0.36146500  0.45092100  0.32423600  1
  O  O20  1  0.66138800  0.99550500  0.87404200  1
  O  O21  1  0.34409900  0.03062400  0.86033600  1
  O  O22  1  0.80009400  0.56712900  0.39733900  1
  O  O23  1  0.03976100  0.71658000  0.26490600  1
loop_
_geom_bond_atom_site_label_1
_geom_bond_atom_site_label_2
_geom_bond_distance
_geom_bond_site_symmetry_2
Mn0 O6 2.169864 1_555
Mn0 O23 2.175185 1_555
Mn0 O19 2.186030 1_555
Mn0 O1 2.235507 1_555
Mn0 O3 2.265818 1_565
Mn0 O10 2.344104 1_565
Mn1 O7 2.169864 1_555
Mn1 O12 2.175185 1_555
Mn1 O18 2.186030 1_555
Mn1 O9 2.235507 1_554
Mn1 O8 2.265818 1_545
Mn1 O2 2.344104 1_545
Mn2 O16 2.169864 1_555
Mn2 O11 2.175185 1_555
Mn2 O5 2.186030 1_555
Mn2 O14 2.235507 1_556
Mn2 O15 2.265818 1_565
Mn2 O21 2.344104 1_565
Mn3 O17 2.169864 1_555
Mn3 O0 2.175185 1_555
Mn3 O4 2.186030 1_555
Mn3 O22 2.235507 1_555
Mn3 O20 2.265818 1_545
Mn3 O13 2.344104 1_545
H0 O2 0.994732 1_555
H1 O3 0.998676 1_555
H2 O2 0.994003 1_555
H3 O7 0.993910 1_555
H4 O7 0.990646 1_456
H5 O6 0.990646 1_555
H6 O8 0.997269 1_555
H7 O3 0.997269 1_555
H8 O6 0.993910 1_555
H9 O10 0.994003 1_555
H10 O8 0.998676 1_555
H11 O10 0.994732 1_555
H12 O13 0.994732 1_555
H13 O15 0.998676 1_555
H14 O13 0.994003 1_555
H15 O17 0.993910 1_555
H16 O20 0.997269 1_555
H17 O15 0.997269 1_555
H18 O17 0.990646 1_555
H19 O16 0.990646 1_654
H20 O16 0.993910 1_555
H21 O21 0.994003 1_555
H22 O20 0.998676 1_555
H23 O21 0.994732 1_555
O0 S0 1.543922 1_655
O1 S0 1.574694 1_555
O4 S1 1.548984 1_555
O5 S0 1.548984 1_555
O9 S1 1.574694 1_555
O11 S1 1.543922 1_555
O12 S2 1.543922 1_555
O14 S2 1.574694 1_555
O18 S3 1.548984 1_555
O19 S2 1.548984 1_555
O22 S3 1.574694 1_555
O23 S3 1.543922 1_455
