# generated using pymatgen
data_LiCuBO3
_symmetry_space_group_name_H-M   'P 1'
_cell_length_a   5.22302597
_cell_length_b   5.22302597
_cell_length_c   9.58791690
_cell_angle_alpha   88.98265679
_cell_angle_beta   88.98265679
_cell_angle_gamma   119.28154627
_symmetry_Int_Tables_number   1
_chemical_formula_structural   LiCuBO3
_chemical_formula_sum   'Li4 Cu4 B4 O12'
_cell_volume   227.99742489
_cell_formula_units_Z   4
loop_
 _symmetry_equiv_pos_site_id
 _symmetry_equiv_pos_as_xyz
  1  'x, y, z'
loop_
 _atom_site_type_symbol
 _atom_site_label
 _atom_site_symmetry_multiplicity
 _atom_site_fract_x
 _atom_site_fract_y
 _atom_site_fract_z
 _atom_site_occupancy
  Li  Li0  1  0.34142500  0.33907200  0.09301700  1
  Li  Li1  1  0.33907200  0.34142500  0.59301700  1
  Li  Li2  1  0.67376900  0.65480900  0.84347400  1
  Li  Li3  1  0.65480900  0.67376900  0.34347400  1
  Cu  Cu0  1  0.66920400  0.01951500  0.62103400  1
  Cu  Cu1  1  0.98084400  0.32456300  0.87006700  1
  Cu  Cu2  1  0.01951500  0.66920400  0.12103400  1
  Cu  Cu3  1  0.32456300  0.98084400  0.37006700  1
  B  B0  1  0.66119800  0.99942800  0.12491400  1
  B  B1  1  0.00332900  0.34095600  0.37453500  1
  B  B2  1  0.99942800  0.66119800  0.62491400  1
  B  B3  1  0.34095600  0.00332900  0.87453500  1
  O  O0  1  0.74630900  0.07952600  0.41405800  1
  O  O1  1  0.41856500  0.03447000  0.16508300  1
  O  O2  1  0.91899000  0.25130400  0.07770200  1
  O  O3  1  0.35954900  0.27048200  0.88558400  1
  O  O4  1  0.97130700  0.58131400  0.32778700  1
  O  O5  1  0.27048200  0.35954900  0.38558400  1
  O  O6  1  0.73372600  0.64728500  0.63356100  1
  O  O7  1  0.03447000  0.41856500  0.66508300  1
  O  O8  1  0.64728500  0.73372600  0.13356100  1
  O  O9  1  0.07952600  0.74630900  0.91405800  1
  O  O10  1  0.58131400  0.97130700  0.82778700  1
  O  O11  1  0.25130400  0.91899000  0.57770200  1
loop_
_geom_bond_atom_site_label_1
_geom_bond_atom_site_label_2
_geom_bond_distance
_geom_bond_site_symmetry_2
Li0 O1 1.941325 1_555
Li0 O8 1.944587 1_555
Li0 O2 2.030852 1_455
Li0 O3 2.035833 1_554
Li1 O7 1.941325 1_555
Li1 O6 1.944587 1_555
Li1 O11 2.030852 1_545
Li1 O5 2.035833 1_555
Li2 O3 1.900266 1_555
Li2 O10 1.939868 1_555
Li2 O6 2.035375 1_555
Li2 O9 2.061409 1_655
Li3 O5 1.900266 1_555
Li3 O4 1.939868 1_555
Li3 O8 2.035375 1_555
Li3 O0 2.061409 1_565
Cu0 O0 2.006141 1_555
Cu0 O10 2.010139 1_545
Cu0 O11 2.032580 1_545
Cu0 O7 2.081433 1_655
Cu0 O6 2.131157 1_545
Cu1 O7 1.998462 1_655
Cu1 O2 2.010772 1_556
Cu1 O10 2.052673 1_545
Cu1 O9 2.055710 1_655
Cu1 O3 2.137719 1_655
Cu2 O9 2.006141 1_554
Cu2 O4 2.010139 1_455
Cu2 O2 2.032580 1_455
Cu2 O1 2.081433 1_565
Cu2 O8 2.131157 1_455
Cu3 O1 1.998462 1_565
Cu3 O11 2.010772 1_555
Cu3 O4 2.052673 1_455
Cu3 O0 2.055710 1_565
Cu3 O5 2.137719 1_565
B0 O8 1.354661 1_555
B0 O2 1.404640 1_565
B0 O1 1.414172 1_565
B1 O5 1.356728 1_555
B1 O0 1.407360 1_455
B1 O4 1.411723 1_455
B2 O6 1.354661 1_555
B2 O11 1.404640 1_655
B2 O7 1.414172 1_655
B3 O3 1.356728 1_555
B3 O9 1.407360 1_545
B3 O10 1.411723 1_545
