# generated using pymatgen
data_Li3Ni2P2(O4F)2
_symmetry_space_group_name_H-M   'P 1'
_cell_length_a   10.65613100
_cell_length_b   6.30401900
_cell_length_c   12.62820030
_cell_angle_alpha   60.20987998
_cell_angle_beta   90.00000000
_cell_angle_gamma   90.00000000
_symmetry_Int_Tables_number   1
_chemical_formula_structural   Li3Ni2P2(O4F)2
_chemical_formula_sum   'Li12 Ni8 P8 O32 F8'
_cell_volume   736.21347688
_cell_formula_units_Z   4
loop_
 _symmetry_equiv_pos_site_id
 _symmetry_equiv_pos_as_xyz
  1  'x, y, z'
loop_
 _atom_site_type_symbol
 _atom_site_label
 _atom_site_symmetry_multiplicity
 _atom_site_fract_x
 _atom_site_fract_y
 _atom_site_fract_z
 _atom_site_occupancy
  Li  Li0  1  0.03703100  0.02503000  0.72903800  1
  Li  Li1  1  0.22828600  0.33242300  0.91543100  1
  Li  Li2  1  0.24205700  0.84101500  0.66584500  1
  Li  Li3  1  0.25794300  0.84101500  0.16584500  1
  Li  Li4  1  0.27171400  0.33242300  0.41543100  1
  Li  Li5  1  0.46296900  0.02503000  0.22903800  1
  Li  Li6  1  0.53703100  0.97497000  0.77096200  1
  Li  Li7  1  0.72828600  0.66757700  0.58456900  1
  Li  Li8  1  0.74205700  0.15898500  0.83415500  1
  Li  Li9  1  0.75794300  0.15898500  0.33415500  1
  Li  Li10  1  0.77171400  0.66757700  0.08456900  1
  Li  Li11  1  0.96296900  0.97497000  0.27096200  1
  Ni  Ni0  1  0.00000000  0.00000000  0.00000000  1
  Ni  Ni1  1  0.00000000  0.50000000  0.00000000  1
  Ni  Ni2  1  0.00000000  0.50000000  0.50000000  1
  Ni  Ni3  1  0.00000000  0.00000000  0.50000000  1
  Ni  Ni4  1  0.50000000  0.50000000  0.50000000  1
  Ni  Ni5  1  0.50000000  0.00000000  0.50000000  1
  Ni  Ni6  1  0.50000000  0.00000000  0.00000000  1
  Ni  Ni7  1  0.50000000  0.50000000  0.00000000  1
  P  P0  1  0.02960300  0.49390200  0.25849400  1
  P  P1  1  0.23956000  0.82248100  0.92288700  1
  P  P2  1  0.26044000  0.82248100  0.42288700  1
  P  P3  1  0.47039700  0.49390200  0.75849400  1
  P  P4  1  0.52960300  0.50609800  0.24150600  1
  P  P5  1  0.73956000  0.17751900  0.57711300  1
  P  P6  1  0.76044000  0.17751900  0.07711300  1
  P  P7  1  0.97039700  0.50609800  0.74150600  1
  O  O0  1  0.02386200  0.37276500  0.87443200  1
  O  O1  1  0.02594700  0.37163300  0.67679700  1
  O  O2  1  0.02627200  0.76866600  0.67937800  1
  O  O3  1  0.11726200  0.79137100  0.45444500  1
  O  O4  1  0.17341200  0.50570500  0.25977600  1
  O  O5  1  0.18269500  0.56193400  0.98159300  1
  O  O6  1  0.18680100  0.96326900  0.98579800  1
  O  O7  1  0.21674500  0.95531900  0.78543400  1
  O  O8  1  0.28325500  0.95531900  0.28543400  1
  O  O9  1  0.31730500  0.56193400  0.48159300  1
  O  O10  1  0.31319900  0.96326900  0.48579800  1
  O  O11  1  0.32658800  0.50570500  0.75977600  1
  O  O12  1  0.38273800  0.79137100  0.95444500  1
  O  O13  1  0.47372800  0.76866600  0.17937800  1
  O  O14  1  0.47405300  0.37163300  0.17679700  1
  O  O15  1  0.47613800  0.37276500  0.37443200  1
  O  O16  1  0.52386200  0.62723500  0.62556800  1
  O  O17  1  0.52627200  0.23133400  0.82062200  1
  O  O18  1  0.52594700  0.62836700  0.82320300  1
  O  O19  1  0.61726200  0.20862900  0.04555500  1
  O  O20  1  0.67341200  0.49429500  0.24022400  1
  O  O21  1  0.68680100  0.03673100  0.51420200  1
  O  O22  1  0.68269500  0.43806600  0.51840700  1
  O  O23  1  0.71674500  0.04468100  0.71456600  1
  O  O24  1  0.78325500  0.04468100  0.21456600  1
  O  O25  1  0.81319900  0.03673100  0.01420200  1
  O  O26  1  0.81730500  0.43806600  0.01840700  1
  O  O27  1  0.82658800  0.49429500  0.74022400  1
  O  O28  1  0.88273800  0.20862900  0.54555500  1
  O  O29  1  0.97372800  0.23133400  0.32062200  1
  O  O30  1  0.97405300  0.62836700  0.32320300  1
  O  O31  1  0.97613800  0.62723500  0.12556800  1
  F  F0  1  0.04116100  0.13221400  0.11413300  1
  F  F1  1  0.12275200  0.22251700  0.52086000  1
  F  F2  1  0.37724800  0.22251700  0.02086000  1
  F  F3  1  0.45883900  0.13221400  0.61413300  1
  F  F4  1  0.54116100  0.86778600  0.38586700  1
  F  F5  1  0.62275200  0.77748300  0.97914000  1
  F  F6  1  0.87724800  0.77748300  0.47914000  1
  F  F7  1  0.95883900  0.86778600  0.88586700  1
loop_
_geom_bond_atom_site_label_1
_geom_bond_atom_site_label_2
_geom_bond_distance
_geom_bond_site_symmetry_2
Li0 O1 1.947062 1_555
Li0 O2 2.006324 1_545
Li0 O7 2.014144 1_545
Li1 O11 2.005180 1_555
Li1 O5 2.056360 1_555
Li1 O6 2.084682 1_545
Li1 O0 2.224228 1_555
Li2 O7 1.988457 1_555
Li2 O11 2.048205 1_555
Li2 O10 2.144081 1_555
Li2 O2 2.333917 1_555
Li3 O8 1.988457 1_555
Li3 O4 2.048205 1_555
Li3 O6 2.144081 1_554
Li3 O13 2.333917 1_555
Li4 O4 2.005180 1_555
Li4 O9 2.056360 1_555
Li4 O10 2.084682 1_545
Li4 O15 2.224228 1_555
Li5 O14 1.947062 1_555
Li5 O13 2.006324 1_545
Li5 O8 2.014144 1_545
Li6 O18 1.947062 1_555
Li6 O17 2.006324 1_565
Li6 O23 2.014144 1_565
Li7 O27 2.005180 1_555
Li7 O22 2.056360 1_555
Li7 O21 2.084682 1_565
Li7 O16 2.224228 1_555
Li8 O23 1.988457 1_555
Li8 O27 2.048205 1_555
Li8 O25 2.144081 1_556
Li8 O17 2.333917 1_555
Li9 O24 1.988457 1_555
Li9 O20 2.048205 1_555
Li9 O21 2.144081 1_555
Li9 O29 2.333917 1_555
Li10 O20 2.005180 1_555
Li10 O26 2.056360 1_555
Li10 O25 2.084682 1_565
Li10 O31 2.224228 1_555
Li11 O30 1.947062 1_555
Li11 O29 2.006324 1_565
Li11 O24 2.014144 1_565
Ni0 O25 2.022236 1_455
Ni0 O6 2.022236 1_544
Ni0 O0 2.097287 1_554
Ni0 O31 2.097287 1_445
Ni1 O5 1.976463 1_554
Ni1 O26 1.976463 1_455
Ni1 O0 2.118075 1_554
Ni1 O31 2.118075 1_455
Ni2 O30 1.980075 1_455
Ni2 O1 1.980075 1_555
Ni2 O28 2.053349 1_455
Ni2 O3 2.053349 1_555
Ni3 O29 2.013423 1_455
Ni3 O2 2.013423 1_545
Ni3 O3 2.091386 1_545
Ni3 O28 2.091386 1_455
Ni4 O9 1.976463 1_555
Ni4 O22 1.976463 1_555
Ni4 O15 2.118075 1_555
Ni4 O16 2.118075 1_555
Ni5 O10 2.022236 1_545
Ni5 O21 2.022236 1_555
Ni5 O16 2.097287 1_545
Ni5 O15 2.097287 1_555
Ni6 O17 2.013423 1_554
Ni6 O13 2.013423 1_545
Ni6 O12 2.091386 1_544
Ni6 O19 2.091386 1_555
Ni7 O18 1.980075 1_554
Ni7 O14 1.980075 1_555
Ni7 O19 2.053349 1_555
Ni7 O12 2.053349 1_554
O0 P7 1.564247 1_455
O1 P7 1.557233 1_455
O2 P7 1.555463 1_455
O3 P2 1.564434 1_555
O4 P0 1.534728 1_555
O5 P1 1.550691 1_555
O6 P1 1.560629 1_555
O7 P1 1.526099 1_555
O8 P2 1.526099 1_555
O9 P2 1.550691 1_555
O10 P2 1.560629 1_555
O11 P3 1.534728 1_555
O12 P1 1.564434 1_555
O13 P4 1.555463 1_555
O14 P4 1.557233 1_555
O15 P4 1.564247 1_555
O16 P3 1.564247 1_555
O17 P3 1.555463 1_555
O18 P3 1.557233 1_555
O19 P6 1.564434 1_555
O20 P4 1.534728 1_555
O21 P5 1.560629 1_555
O22 P5 1.550691 1_555
O23 P5 1.526099 1_555
O24 P6 1.526099 1_555
O25 P6 1.560629 1_555
O26 P6 1.550691 1_555
O27 P7 1.534728 1_555
O28 P5 1.564434 1_555
O29 P0 1.555463 1_655
O30 P0 1.557233 1_655
O31 P0 1.564247 1_655
F0 Li11 1.910084 1_445
F0 Ni0 2.039133 1_555
F0 Ni1 2.079624 1_555
F1 Li4 1.963601 1_555
F1 Ni3 2.028620 1_555
F1 Ni2 2.093430 1_555
F1 Li0 2.458334 1_555
F1 Li2 2.525300 1_545
F2 Li1 1.963601 1_554
F2 Ni6 2.028620 1_555
F2 Ni7 2.093430 1_555
F2 Li5 2.458334 1_555
F2 Li3 2.525300 1_545
F3 Li6 1.910084 1_545
F3 Ni5 2.039133 1_555
F3 Ni4 2.079624 1_555
F4 Li5 1.910084 1_565
F4 Ni5 2.039133 1_565
F4 Ni4 2.079624 1_555
F5 Li10 1.963601 1_556
F5 Ni6 2.028620 1_566
F5 Ni7 2.093430 1_556
F5 Li6 2.458334 1_555
F5 Li8 2.525300 1_565
F6 Li7 1.963601 1_555
F6 Ni3 2.028620 1_665
F6 Ni2 2.093430 1_655
F6 Li11 2.458334 1_555
F6 Li9 2.525300 1_565
F7 Li0 1.910084 1_665
F7 Ni0 2.039133 1_666
F7 Ni1 2.079624 1_656
