# generated using pymatgen
data_LiMnV(P2O7)2
_symmetry_space_group_name_H-M   'P 1'
_cell_length_a   8.17388000
_cell_length_b   9.73242291
_cell_length_c   9.98795090
_cell_angle_alpha   94.91070351
_cell_angle_beta   90.53301365
_cell_angle_gamma   91.89825518
_symmetry_Int_Tables_number   1
_chemical_formula_structural   LiMnV(P2O7)2
_chemical_formula_sum   'Li3 Mn3 V3 P12 O42'
_cell_volume   791.14826002
_cell_formula_units_Z   3
loop_
 _symmetry_equiv_pos_site_id
 _symmetry_equiv_pos_as_xyz
  1  'x, y, z'
loop_
 _atom_site_type_symbol
 _atom_site_label
 _atom_site_symmetry_multiplicity
 _atom_site_fract_x
 _atom_site_fract_y
 _atom_site_fract_z
 _atom_site_occupancy
  Li  Li0  1  0.35772600  0.27762700  0.05110900  1
  Li  Li1  1  0.86349500  0.72413900  0.94765600  1
  Li  Li2  1  0.86285000  0.05811000  0.61304600  1
  Mn  Mn0  1  0.00767200  0.91625200  0.35000300  1
  Mn  Mn1  1  0.99314100  0.25562400  0.02355100  1
  Mn  Mn2  1  0.00603400  0.58245800  0.68228500  1
  V  V0  1  0.50474700  0.41273500  0.31446800  1
  V  V1  1  0.49591900  0.74334800  0.97506200  1
  V  V2  1  0.49463500  0.07763200  0.64021200  1
  P  P0  1  0.78073500  0.98760900  0.10395200  1
  P  P1  1  0.28860600  0.67950600  0.23433700  1
  P  P2  1  0.68207700  0.45530300  0.02761300  1
  P  P3  1  0.17615000  0.87880200  0.64181800  1
  P  P4  1  0.78217500  0.65444700  0.43605200  1
  P  P5  1  0.67937300  0.78851800  0.69580300  1
  P  P6  1  0.17518900  0.21194000  0.30615500  1
  P  P7  1  0.28687900  0.34785100  0.56598300  1
  P  P8  1  0.67840900  0.12248200  0.36285700  1
  P  P9  1  0.17744200  0.54679300  0.97566100  1
  P  P10  1  0.78125200  0.32140800  0.77011000  1
  P  P11  1  0.28902100  0.01208300  0.89840800  1
  O  O0  1  0.68634400  0.87746600  0.01107500  1
  O  O1  1  0.93281000  0.92488000  0.16089000  1
  O  O2  1  0.43906100  0.73845600  0.16150000  1
  O  O3  1  0.15103000  0.63183300  0.11873600  1
  O  O4  1  0.20387400  0.77718100  0.33117200  1
  O  O5  1  0.82761400  0.78140700  0.36194200  1
  O  O6  1  0.03855900  0.92843200  0.55472800  1
  O  O7  1  0.84764900  0.42583000  0.08039800  1
  O  O8  1  0.34701900  0.92295800  0.59435100  1
  O  O9  1  0.53701500  0.40722300  0.11151300  1
  O  O10  1  0.67081100  0.94183900  0.66487400  1
  O  O11  1  0.34173900  0.54672100  0.29525100  1
  O  O12  1  0.68045500  0.55188900  0.34215800  1
  O  O13  1  0.14960900  0.96702400  0.78558000  1
  O  O14  1  0.65317000  0.69899600  0.55408300  1
  O  O15  1  0.82112400  0.11264800  0.02677600  1
  O  O16  1  0.93196300  0.59286400  0.49665600  1
  O  O17  1  0.17229000  0.72651000  0.66329400  1
  O  O18  1  0.03840300  0.25452800  0.21591200  1
  O  O19  1  0.34465600  0.25908900  0.25435300  1
  O  O20  1  0.84403600  0.75675400  0.75471200  1
  O  O21  1  0.53597100  0.74663200  0.78366300  1
  O  O22  1  0.66206300  0.27423300  0.33163300  1
  O  O23  1  0.44047100  0.40798300  0.49981600  1
  O  O24  1  0.33301300  0.88009100  0.96280400  1
  O  O25  1  0.15264200  0.29891500  0.44938400  1
  O  O26  1  0.65236100  0.03194300  0.22026900  1
  O  O27  1  0.20080800  0.44353200  0.66400800  1
  O  O28  1  0.17418800  0.05956100  0.33063500  1
  O  O29  1  0.82621600  0.44773900  0.69632900  1
  O  O30  1  0.03889700  0.59246800  0.88783300  1
  O  O31  1  0.84358200  0.09092400  0.41996400  1
  O  O32  1  0.34828100  0.58869500  0.92687200  1
  O  O33  1  0.53521200  0.07714700  0.44905400  1
  O  O34  1  0.67070400  0.60855100  0.99790300  1
  O  O35  1  0.33759100  0.21504300  0.63001600  1
  O  O36  1  0.68942600  0.21120700  0.67555000  1
  O  O37  1  0.64910700  0.36452500  0.88427500  1
  O  O38  1  0.93109100  0.25892900  0.83257300  1
  O  O39  1  0.17653900  0.39263000  0.99696500  1
  O  O40  1  0.44121600  0.07241600  0.82996600  1
  O  O41  1  0.21270500  0.11738100  0.99558500  1
loop_
_geom_bond_atom_site_label_1
_geom_bond_atom_site_label_2
_geom_bond_distance
_geom_bond_site_symmetry_2
Li0 O9 1.957878 1_555
Li0 O41 1.965248 1_554
Li0 O39 1.984212 1_554
Li0 O19 2.056767 1_555
Li1 O20 1.985497 1_555
Li1 O34 1.998654 1_555
Li1 O30 2.015268 1_655
Li1 O0 2.173279 1_556
Li2 O31 1.987211 1_555
Li2 O6 2.001165 1_645
Li2 O10 2.002544 1_545
Li2 O36 2.148587 1_555
Mn0 O28 1.939227 1_565
Mn0 O5 1.950575 1_455
Mn0 O1 1.989548 1_455
Mn0 O6 2.050815 1_555
Mn0 O4 2.131928 1_555
Mn0 O31 2.267662 1_465
Mn1 O15 1.947609 1_555
Mn1 O18 1.954200 1_655
Mn1 O38 1.972394 1_554
Mn1 O39 2.007807 1_654
Mn1 O7 2.112523 1_555
Mn1 O41 2.283439 1_654
Mn2 O17 1.942262 1_555
Mn2 O29 1.951093 1_455
Mn2 O16 1.956952 1_455
Mn2 O30 2.061609 1_555
Mn2 O27 2.121762 1_555
Mn2 O20 2.260693 1_455
O0 P0 1.538359 1_555
O0 V1 2.007610 1_554
O1 P0 1.529003 1_555
O2 P1 1.553119 1_555
O2 V1 1.927593 1_554
O3 P9 1.608977 1_554
O3 P1 1.631729 1_555
O4 P1 1.489114 1_555
O5 P4 1.530990 1_555
O6 P3 1.531180 1_555
O7 P2 1.493374 1_555
O8 P3 1.538686 1_555
O8 V2 1.919142 1_565
O9 P2 1.541422 1_555
O9 V0 2.043004 1_555
O10 P5 1.553183 1_555
O10 V2 2.014007 1_565
O11 P1 1.547820 1_555
O11 V0 1.914625 1_555
O12 P4 1.528830 1_555
O12 V0 1.942414 1_555
O13 P11 1.618394 1_565
O13 P3 1.628839 1_555
O14 P5 1.606066 1_555
O14 P4 1.629594 1_555
O15 P0 1.524077 1_545
O16 P4 1.523677 1_555
O17 P3 1.515023 1_555
O18 P6 1.519939 1_555
O19 P6 1.552070 1_555
O19 V0 2.002735 1_555
O20 P5 1.515676 1_555
O21 P5 1.535879 1_555
O21 V1 1.945288 1_555
O22 P8 1.545158 1_555
O22 V0 1.910544 1_555
O23 P7 1.545432 1_555
O23 V0 1.932984 1_555
O24 P11 1.536537 1_565
O24 V1 1.923923 1_555
O25 P6 1.613977 1_555
O25 P7 1.622856 1_555
O26 P0 1.613627 1_545
O26 P8 1.617745 1_555
O27 P7 1.490239 1_555
O28 P6 1.523319 1_555
O29 P10 1.523168 1_555
O30 P9 1.526826 1_555
O31 P8 1.511815 1_555
O32 P9 1.537111 1_555
O32 V1 1.923090 1_555
O33 P8 1.534750 1_555
O33 V2 1.940543 1_555
O34 P2 1.551012 1_556
O34 V1 1.995891 1_555
O35 P7 1.556797 1_555
O35 V2 1.892419 1_555
O36 P10 1.538093 1_555
O36 V2 2.030653 1_555
O37 P10 1.616798 1_555
O37 P2 1.631965 1_556
O38 P10 1.535936 1_555
O39 P9 1.533109 1_555
O40 P11 1.547849 1_555
O40 V2 1.953361 1_555
O41 P11 1.504903 1_555
