# generated using pymatgen
data_Mn6O5F7
_symmetry_space_group_name_H-M   'P 1'
_cell_length_a   5.57796306
_cell_length_b   5.06168745
_cell_length_c   15.14886122
_cell_angle_alpha   96.50024456
_cell_angle_beta   85.04057931
_cell_angle_gamma   94.54954229
_symmetry_Int_Tables_number   1
_chemical_formula_structural   Mn6O5F7
_chemical_formula_sum   'Mn12 O10 F14'
_cell_volume   422.32504846
_cell_formula_units_Z   2
loop_
 _symmetry_equiv_pos_site_id
 _symmetry_equiv_pos_as_xyz
  1  'x, y, z'
loop_
 _atom_site_type_symbol
 _atom_site_label
 _atom_site_symmetry_multiplicity
 _atom_site_fract_x
 _atom_site_fract_y
 _atom_site_fract_z
 _atom_site_occupancy
  Mn  Mn0  1  0.09599300  0.00326900  0.01335900  1
  Mn  Mn1  1  0.93049000  0.50671400  0.16584600  1
  Mn  Mn2  1  0.08948300  0.94863600  0.33746900  1
  Mn  Mn3  1  0.92361800  0.49852100  0.50107600  1
  Mn  Mn4  1  0.13431000  0.98206100  0.67214400  1
  Mn  Mn5  1  0.91887000  0.49433200  0.83172200  1
  Mn  Mn6  1  0.43279800  0.01484000  0.16048200  1
  Mn  Mn7  1  0.45259300  0.51208600  0.00060700  1
  Mn  Mn8  1  0.44796400  0.51680800  0.66241000  1
  Mn  Mn9  1  0.46500100  0.00287900  0.49552600  1
  Mn  Mn10  1  0.43740600  0.52411400  0.32231700  1
  Mn  Mn11  1  0.45231000  0.02577800  0.82489600  1
  O  O0  1  0.20567500  0.74156300  0.08402100  1
  O  O1  1  0.20911100  0.72489100  0.42084500  1
  O  O2  1  0.20084700  0.73864100  0.75610200  1
  O  O3  1  0.32129700  0.23682500  0.07522600  1
  O  O4  1  0.31299800  0.78039100  0.25338300  1
  O  O5  1  0.36894600  0.80486100  0.59632200  1
  O  O6  1  0.36057800  0.21926300  0.73098300  1
  O  O7  1  0.62181200  0.31366000  0.89533900  1
  O  O8  1  0.61959100  0.31581300  0.56440200  1
  O  O9  1  0.60230500  0.30657000  0.22778700  1
  F  F0  1  0.10955500  0.25531400  0.25871500  1
  F  F1  1  0.13479300  0.25050400  0.58210400  1
  F  F2  1  0.14208700  0.26212700  0.91234100  1
  F  F3  1  0.40556400  0.81202100  0.92629000  1
  F  F4  1  0.38746800  0.21932000  0.39869800  1
  F  F5  1  0.67590800  0.72766700  0.09689300  1
  F  F6  1  0.67591800  0.67915800  0.43172100  1
  F  F7  1  0.67053200  0.69326100  0.76573800  1
  F  F8  1  0.87785400  0.15230100  0.41978900  1
  F  F9  1  0.83072100  0.22893600  0.06475300  1
  F  F10  1  0.88217000  0.17093300  0.74063900  1
  F  F11  1  0.88953200  0.77820200  0.60714400  1
  F  F12  1  0.89991800  0.77461100  0.93563200  1
  F  F13  1  0.81398400  0.78313000  0.26727800  1
loop_
_geom_bond_atom_site_label_1
_geom_bond_atom_site_label_2
_geom_bond_distance
_geom_bond_site_symmetry_2
Mn0 O3 1.890085 1_555
Mn0 O0 1.959026 1_545
Mn1 O9 2.209506 1_555
Mn1 O0 2.240736 1_655
Mn2 O4 1.884266 1_555
Mn2 O1 1.978045 1_555
Mn3 O8 2.079004 1_555
Mn3 O1 2.239924 1_655
Mn4 O5 1.878773 1_555
Mn4 O6 1.881695 1_565
Mn4 O2 1.944859 1_555
Mn5 O7 2.047857 1_555
Mn5 O2 2.239654 1_655
Mn6 O9 1.928299 1_555
Mn6 O3 1.973756 1_555
Mn6 O4 1.981204 1_545
Mn6 O0 2.114937 1_545
Mn7 O3 1.951146 1_555
Mn7 O7 1.992547 1_554
Mn7 O0 2.112686 1_555
Mn8 O8 1.929417 1_555
Mn8 O6 1.932667 1_555
Mn8 O5 1.957345 1_555
Mn8 O2 2.172954 1_555
Mn9 O5 1.934714 1_545
Mn9 O8 1.976330 1_555
Mn9 O1 2.212980 1_545
Mn10 O9 1.919672 1_555
Mn10 O4 1.956931 1_555
Mn10 O1 2.101298 1_555
Mn11 O7 1.939032 1_555
Mn11 O6 1.940565 1_555
Mn11 O2 2.179969 1_545
F0 Mn2 2.052844 1_545
F0 Mn1 2.333688 1_455
F0 Mn10 2.395186 1_555
F0 Mn6 2.534001 1_555
F1 Mn4 2.031058 1_545
F1 Mn3 2.302975 1_455
F1 Mn8 2.443574 1_555
F1 Mn9 2.502020 1_555
F2 Mn0 2.111217 1_556
F2 Mn5 2.289832 1_455
F2 Mn11 2.398665 1_555
F2 Mn7 2.461345 1_556
F3 Mn11 1.964748 1_565
F3 Mn7 2.035282 1_556
F3 Mn0 2.289299 1_566
F4 Mn10 2.019123 1_555
F4 Mn9 2.021776 1_555
F4 Mn2 2.262268 1_545
F5 Mn7 2.146642 1_555
F5 Mn6 2.156282 1_565
F5 Mn1 2.265254 1_555
F6 Mn3 2.125500 1_555
F6 Mn9 2.180350 1_565
F6 Mn10 2.248063 1_555
F7 Mn5 2.149522 1_555
F7 Mn8 2.152370 1_555
F7 Mn11 2.216416 1_565
F8 Mn2 1.912803 1_645
F8 Mn3 2.036519 1_555
F8 Mn9 2.579724 1_555
F9 Mn0 1.991970 1_655
F9 Mn1 2.041476 1_555
F10 Mn4 1.924848 1_645
F10 Mn5 2.027223 1_555
F11 Mn4 1.917669 1_655
F11 Mn3 2.024087 1_555
F12 Mn0 1.906693 1_666
F12 Mn5 1.997770 1_555
F13 Mn2 2.017565 1_655
F13 Mn1 2.055675 1_555
F13 Mn10 2.516767 1_555
