# generated using pymatgen
data_LiNiPO4
_symmetry_space_group_name_H-M   'P 1'
_cell_length_a   4.84869673
_cell_length_b   4.84869433
_cell_length_c   16.14872582
_cell_angle_alpha   96.40397085
_cell_angle_beta   83.59595161
_cell_angle_gamma   77.90968185
_symmetry_Int_Tables_number   1
_chemical_formula_structural   LiNiPO4
_chemical_formula_sum   'Li4 Ni4 P4 O16'
_cell_volume   365.34405475
_cell_formula_units_Z   4
loop_
 _symmetry_equiv_pos_site_id
 _symmetry_equiv_pos_as_xyz
  1  'x, y, z'
loop_
 _atom_site_type_symbol
 _atom_site_label
 _atom_site_symmetry_multiplicity
 _atom_site_fract_x
 _atom_site_fract_y
 _atom_site_fract_z
 _atom_site_occupancy
  Li  Li0  1  0.57313600  0.79162100  0.93559500  1
  Li  Li1  1  0.79162100  0.57313600  0.56440500  1
  Li  Li2  1  0.20836300  0.42697600  0.43559400  1
  Li  Li3  1  0.42697600  0.20836300  0.06440600  1
  Ni  Ni0  1  0.16907200  0.67553300  0.25064800  1
  Ni  Ni1  1  0.67553400  0.16907300  0.24935200  1
  Ni  Ni2  1  0.32435600  0.83095800  0.75065800  1
  Ni  Ni3  1  0.83095700  0.32435800  0.74934200  1
  P  P0  1  0.27446800  0.37674400  0.63899000  1
  P  P1  1  0.37674200  0.27446900  0.86101000  1
  P  P2  1  0.62329900  0.72553600  0.13899600  1
  P  P3  1  0.72553900  0.62329700  0.36100300  1
  O  O0  1  0.05133000  0.60410900  0.70549200  1
  O  O1  1  0.39588100  0.94861300  0.20549500  1
  O  O2  1  0.60410700  0.05133100  0.79450800  1
  O  O3  1  0.94861300  0.39588000  0.29450500  1
  O  O4  1  0.08464600  0.22714700  0.83915100  1
  O  O5  1  0.77285400  0.91532500  0.33914800  1
  O  O6  1  0.22714600  0.08464600  0.66084900  1
  O  O7  1  0.91532700  0.77285300  0.16085200  1
  O  O8  1  0.44181200  0.57017700  0.84388000  1
  O  O9  1  0.42982700  0.55819600  0.34388100  1
  O  O10  1  0.57017700  0.44181400  0.65612000  1
  O  O11  1  0.55819700  0.42982600  0.15612000  1
  O  O12  1  0.21654100  0.41635100  0.55029500  1
  O  O13  1  0.58365200  0.78347400  0.05028600  1
  O  O14  1  0.41634900  0.21654100  0.94970500  1
  O  O15  1  0.78347500  0.58365100  0.44971400  1
loop_
_geom_bond_atom_site_label_1
_geom_bond_atom_site_label_2
_geom_bond_distance
_geom_bond_site_symmetry_2
Li0 O13 1.863070 1_556
Li0 O8 1.973308 1_555
Li0 O14 2.018717 1_565
Li1 O15 1.863068 1_555
Li1 O10 1.973302 1_555
Li1 O12 2.018717 1_655
Li2 O12 1.863321 1_555
Li2 O9 1.973072 1_555
Li2 O15 2.018486 1_455
Li3 O14 1.863322 1_554
Li3 O11 1.973086 1_555
Li3 O13 2.018490 1_545
Ni0 O3 2.033556 1_455
Ni0 O1 2.034882 1_555
Ni0 O7 2.036316 1_455
Ni0 O9 2.122123 1_555
Ni0 O5 2.272938 1_455
Ni0 O11 2.306421 1_555
Ni1 O1 2.033561 1_545
Ni1 O3 2.034874 1_555
Ni1 O5 2.036324 1_545
Ni1 O11 2.122103 1_555
Ni1 O7 2.272946 1_545
Ni1 O9 2.306424 1_555
Ni2 O2 2.033643 1_565
Ni2 O0 2.034875 1_555
Ni2 O6 2.036210 1_565
Ni2 O8 2.122185 1_555
Ni2 O4 2.272685 1_565
Ni2 O10 2.306713 1_555
Ni3 O0 2.033642 1_655
Ni3 O2 2.034880 1_555
Ni3 O4 2.036215 1_655
Ni3 O10 2.122183 1_555
Ni3 O6 2.272687 1_655
Ni3 O8 2.306713 1_555
O0 P0 1.586275 1_555
O1 P2 1.586236 1_555
O2 P1 1.586275 1_555
O3 P3 1.586218 1_555
O4 P1 1.553288 1_555
O5 P3 1.552937 1_555
O6 P0 1.553297 1_555
O7 P2 1.552946 1_555
O8 P1 1.578085 1_555
O9 P3 1.578127 1_555
O10 P0 1.578090 1_555
O11 P2 1.578127 1_555
O12 P0 1.515187 1_555
O13 P2 1.515476 1_555
O14 P1 1.515188 1_555
O15 P3 1.515488 1_555
