# generated using pymatgen
data_Ca6HfO8
_symmetry_space_group_name_H-M   'P 1'
_cell_length_a   6.74762491
_cell_length_b   6.74762491
_cell_length_c   6.74762491
_cell_angle_alpha   60.00000000
_cell_angle_beta   60.00000000
_cell_angle_gamma   60.00000000
_symmetry_Int_Tables_number   1
_chemical_formula_structural   Ca6HfO8
_chemical_formula_sum   'Ca6 Hf1 O8'
_cell_volume   217.23900274
_cell_formula_units_Z   1
loop_
 _symmetry_equiv_pos_site_id
 _symmetry_equiv_pos_as_xyz
  1  'x, y, z'
loop_
 _atom_site_type_symbol
 _atom_site_label
 _atom_site_symmetry_multiplicity
 _atom_site_fract_x
 _atom_site_fract_y
 _atom_site_fract_z
 _atom_site_occupancy
  Ca  Ca0  1  0.50000000  0.00000000  0.00000000  1
  Ca  Ca1  1  0.50000000  0.00000000  0.50000000  1
  Ca  Ca2  1  -0.00000000  0.00000000  0.50000000  1
  Ca  Ca3  1  0.50000000  0.50000000  0.00000000  1
  Ca  Ca4  1  -0.00000000  0.50000000  0.00000000  1
  Ca  Ca5  1  -0.00000000  0.50000000  0.50000000  1
  Hf  Hf0  1  -0.00000000  0.00000000  0.00000000  1
  O  O0  1  0.78069643  0.21930357  0.21930357  1
  O  O1  1  0.25000000  0.25000000  0.25000000  1
  O  O2  1  0.21930357  0.78069643  0.21930357  1
  O  O3  1  0.21930357  0.21930357  0.78069643  1
  O  O4  1  0.78069643  0.21930357  0.78069643  1
  O  O5  1  0.78069643  0.78069643  0.21930357  1
  O  O6  1  0.75000000  0.75000000  0.75000000  1
  O  O7  1  0.21930357  0.78069643  0.78069643  1
loop_
_geom_bond_atom_site_label_1
_geom_bond_atom_site_label_2
_geom_bond_distance
_geom_bond_site_symmetry_2
Ca0 O1 2.385646 1_555
Ca0 O6 2.385646 1_544
Ca0 O5 2.403562 1_545
Ca0 O2 2.403562 1_545
Ca0 O4 2.403562 1_554
Ca0 O3 2.403562 1_554
Ca1 O1 2.385646 1_555
Ca1 O6 2.385646 1_545
Ca1 O5 2.403562 1_545
Ca1 O3 2.403562 1_555
Ca1 O7 2.403562 1_545
Ca1 O0 2.403562 1_555
Ca2 O6 2.385646 1_445
Ca2 O1 2.385646 1_555
Ca2 O4 2.403562 1_455
Ca2 O2 2.403562 1_545
Ca2 O7 2.403562 1_545
Ca2 O0 2.403562 1_455
Ca3 O1 2.385646 1_555
Ca3 O6 2.385646 1_554
Ca3 O7 2.403562 1_554
Ca3 O4 2.403562 1_554
Ca3 O2 2.403562 1_555
Ca3 O0 2.403562 1_555
Ca4 O1 2.385646 1_555
Ca4 O6 2.385646 1_454
Ca4 O7 2.403562 1_554
Ca4 O5 2.403562 1_455
Ca4 O3 2.403562 1_554
Ca4 O0 2.403562 1_455
Ca5 O1 2.385646 1_555
Ca5 O6 2.385646 1_455
Ca5 O4 2.403562 1_455
Ca5 O3 2.403562 1_555
Ca5 O5 2.403562 1_455
Ca5 O2 2.403562 1_555
Hf0 O2 2.092722 1_545
Hf0 O3 2.092722 1_554
Hf0 O4 2.092722 1_454
Hf0 O0 2.092722 1_455
Hf0 O7 2.092722 1_544
Hf0 O5 2.092722 1_445
