# generated using pymatgen
data_Li4MnP2O9
_symmetry_space_group_name_H-M   'P 1'
_cell_length_a   7.86443804
_cell_length_b   7.86443804
_cell_length_c   7.02544320
_cell_angle_alpha   89.32382032
_cell_angle_beta   89.32382032
_cell_angle_gamma   51.13170471
_symmetry_Int_Tables_number   1
_chemical_formula_structural   Li4MnP2O9
_chemical_formula_sum   'Li8 Mn2 P4 O18'
_cell_volume   338.28368960
_cell_formula_units_Z   2
loop_
 _symmetry_equiv_pos_site_id
 _symmetry_equiv_pos_as_xyz
  1  'x, y, z'
loop_
 _atom_site_type_symbol
 _atom_site_label
 _atom_site_symmetry_multiplicity
 _atom_site_fract_x
 _atom_site_fract_y
 _atom_site_fract_z
 _atom_site_occupancy
  Li  Li0  1  0.89223000  0.89223000  0.23255300  1
  Li  Li1  1  0.36650500  0.36650500  0.71064900  1
  Li  Li2  1  0.50000000  0.00000000  0.50000000  1
  Li  Li3  1  0.00000000  0.50000000  0.50000000  1
  Li  Li4  1  0.63349500  0.63349500  0.28935100  1
  Li  Li5  1  0.10777000  0.10777000  0.76744700  1
  Li  Li6  1  0.75890600  0.24109400  0.00000000  1
  Li  Li7  1  0.24109400  0.75890600  0.00000000  1
  Mn  Mn0  1  0.00000000  0.50000000  0.00000000  1
  Mn  Mn1  1  0.50000000  0.00000000  0.00000000  1
  P  P0  1  0.39723500  0.39723500  0.24269000  1
  P  P1  1  0.87568100  0.87568100  0.70846000  1
  P  P2  1  0.12431900  0.12431900  0.29154000  1
  P  P3  1  0.60276500  0.60276500  0.75731000  1
  O  O0  1  0.50389000  0.50389000  0.23563600  1
  O  O1  1  0.96904800  0.96904800  0.81353200  1
  O  O2  1  0.87277100  0.87277100  0.49312000  1
  O  O3  1  0.55941000  0.17894800  0.12351500  1
  O  O4  1  0.17894800  0.55941000  0.12351500  1
  O  O5  1  0.34503500  0.34503500  0.43494000  1
  O  O6  1  0.62583900  0.00984600  0.76621400  1
  O  O7  1  0.00984600  0.62583900  0.76621400  1
  O  O8  1  0.76249100  0.76249100  0.10357900  1
  O  O9  1  0.23750900  0.23750900  0.89642100  1
  O  O10  1  0.99015400  0.37416100  0.23378600  1
  O  O11  1  0.37416100  0.99015400  0.23378600  1
  O  O12  1  0.65496500  0.65496500  0.56506000  1
  O  O13  1  0.82105200  0.44059000  0.87648500  1
  O  O14  1  0.44059000  0.82105200  0.87648500  1
  O  O15  1  0.12722900  0.12722900  0.50688000  1
  O  O16  1  0.03095200  0.03095200  0.18646800  1
  O  O17  1  0.49611000  0.49611000  0.76436400  1
loop_
_geom_bond_atom_site_label_1
_geom_bond_atom_site_label_2
_geom_bond_distance
_geom_bond_site_symmetry_2
Li0 O2 1.847728 1_555
Li0 O16 1.990574 1_665
Li0 O8 2.062373 1_555
Li0 O4 2.263060 1_655
Li0 O3 2.263060 1_565
Li1 O17 1.882098 1_555
Li1 O5 1.964720 1_555
Li1 O9 2.234029 1_555
Li1 O7 2.234440 1_555
Li1 O6 2.234440 1_555
Li2 O6 2.150955 1_555
Li2 O11 2.150955 1_545
Li2 O12 2.211490 1_545
Li2 O5 2.211490 1_555
Li2 O2 2.431921 1_545
Li2 O15 2.431921 1_555
Li3 O7 2.150955 1_555
Li3 O10 2.150955 1_455
Li3 O12 2.211490 1_455
Li3 O5 2.211490 1_555
Li3 O2 2.431921 1_455
Li3 O15 2.431921 1_555
Li4 O0 1.882098 1_555
Li4 O12 1.964720 1_555
Li4 O8 2.234029 1_555
Li4 O10 2.234440 1_555
Li4 O11 2.234440 1_555
Li5 O15 1.847728 1_555
Li5 O1 1.990574 1_445
Li5 O9 2.062373 1_555
Li5 O14 2.263060 1_545
Li5 O13 2.263060 1_455
Li6 O3 2.091320 1_555
Li6 O13 2.091320 1_554
Li6 O16 2.145269 1_655
Li6 O1 2.145269 1_544
Li6 O0 2.415445 1_555
Li6 O17 2.415445 1_554
Li7 O4 2.091320 1_555
Li7 O14 2.091320 1_554
Li7 O16 2.145269 1_565
Li7 O1 2.145269 1_454
Li7 O0 2.415445 1_555
Li7 O17 2.415445 1_554
Mn0 O8 1.855782 1_455
Mn0 O9 1.855782 1_554
Mn0 O7 1.933355 1_554
Mn0 O10 1.933355 1_455
Mn0 O13 1.953330 1_454
Mn0 O4 1.953330 1_555
Mn1 O8 1.855782 1_545
Mn1 O9 1.855782 1_554
Mn1 O6 1.933355 1_554
Mn1 O11 1.933355 1_545
Mn1 O14 1.953330 1_544
Mn1 O3 1.953330 1_555
O0 P0 1.513476 1_555
O1 P1 1.524963 1_555
O2 P1 1.513962 1_555
O3 P0 1.592326 1_555
O4 P0 1.592326 1_555
O5 P0 1.531873 1_555
O6 P1 1.589947 1_545
O7 P1 1.589947 1_455
O10 P2 1.589947 1_655
O11 P2 1.589947 1_565
O12 P3 1.531873 1_555
O13 P3 1.592326 1_555
O14 P3 1.592326 1_555
O15 P2 1.513962 1_555
O16 P2 1.524963 1_555
O17 P3 1.513476 1_555
