# generated using pymatgen
data_Li3BiS3
_symmetry_space_group_name_H-M   'P 1'
_cell_length_a   7.74915174
_cell_length_b   7.74915174
_cell_length_c   7.74915190
_cell_angle_alpha   54.79602296
_cell_angle_beta   54.79602296
_cell_angle_gamma   54.79601981
_symmetry_Int_Tables_number   1
_chemical_formula_structural   Li3BiS3
_chemical_formula_sum   'Li6 Bi2 S6'
_cell_volume   289.16581815
_cell_formula_units_Z   2
loop_
 _symmetry_equiv_pos_site_id
 _symmetry_equiv_pos_as_xyz
  1  'x, y, z'
loop_
 _atom_site_type_symbol
 _atom_site_label
 _atom_site_symmetry_multiplicity
 _atom_site_fract_x
 _atom_site_fract_y
 _atom_site_fract_z
 _atom_site_occupancy
  Li  Li0  1  0.31632600  0.91122300  0.63142100  1
  Li  Li1  1  0.36857900  0.68367400  0.08877700  1
  Li  Li2  1  0.91122300  0.63142100  0.31632600  1
  Li  Li3  1  0.08877700  0.36857900  0.68367400  1
  Li  Li4  1  0.63142100  0.31632600  0.91122300  1
  Li  Li5  1  0.68367400  0.08877700  0.36857900  1
  Bi  Bi0  1  0.83032000  0.83032000  0.83032000  1
  Bi  Bi1  1  0.16968000  0.16968000  0.16968000  1
  S  S0  1  0.57768400  0.95695200  0.22658100  1
  S  S1  1  0.04304800  0.77341900  0.42231600  1
  S  S2  1  0.22658100  0.57768400  0.95695200  1
  S  S3  1  0.77341900  0.42231600  0.04304800  1
  S  S4  1  0.95695200  0.22658100  0.57768400  1
  S  S5  1  0.42231600  0.04304800  0.77341900  1
loop_
_geom_bond_atom_site_label_1
_geom_bond_atom_site_label_2
_geom_bond_distance
_geom_bond_site_symmetry_2
Li0 S2 2.461673 1_555
Li0 S4 2.493571 1_465
Li0 S5 2.496862 1_565
Li0 S0 2.507842 1_555
Li1 S1 2.461673 1_555
Li1 S5 2.493571 1_564
Li1 S2 2.496862 1_554
Li1 S3 2.507842 1_555
Li2 S0 2.461673 1_555
Li2 S2 2.493571 1_654
Li2 S1 2.496862 1_655
Li2 S4 2.507842 1_555
Li3 S5 2.461673 1_555
Li3 S3 2.493571 1_456
Li3 S4 2.496862 1_455
Li3 S1 2.507842 1_555
Li4 S4 2.461673 1_555
Li4 S0 2.493571 1_546
Li4 S3 2.496862 1_556
Li4 S2 2.507842 1_555
Li5 S3 2.461673 1_555
Li5 S1 2.493571 1_645
Li5 S0 2.496862 1_545
Li5 S5 2.507842 1_555
Bi0 S5 2.769148 1_565
Bi0 S3 2.769148 1_556
Bi0 S1 2.769148 1_655
Bi0 S2 2.924510 1_655
Bi0 S0 2.924510 1_556
Bi0 S4 2.924510 1_565
Bi1 S0 2.769148 1_545
Bi1 S2 2.769148 1_554
Bi1 S4 2.769148 1_455
Bi1 S3 2.924510 1_455
Bi1 S5 2.924510 1_554
Bi1 S1 2.924510 1_545
