# generated using pymatgen
data_Na8TiO6
_symmetry_space_group_name_H-M   'P 1'
_cell_length_a   11.64826354
_cell_length_b   11.64826354
_cell_length_c   11.67493500
_cell_angle_alpha   90.00000000
_cell_angle_beta   90.00000000
_cell_angle_gamma   119.99999737
_symmetry_Int_Tables_number   1
_chemical_formula_structural   Na8TiO6
_chemical_formula_sum   'Na48 Ti6 O36'
_cell_volume   1371.85272467
_cell_formula_units_Z   6
loop_
 _symmetry_equiv_pos_site_id
 _symmetry_equiv_pos_as_xyz
  1  'x, y, z'
loop_
 _atom_site_type_symbol
 _atom_site_label
 _atom_site_symmetry_multiplicity
 _atom_site_fract_x
 _atom_site_fract_y
 _atom_site_fract_z
 _atom_site_occupancy
  Na  Na0  1  0.00000000  0.83604700  0.96259700  1
  Na  Na1  1  0.00000000  0.52122700  0.18676200  1
  Na  Na2  1  0.14239700  0.80543900  0.30485200  1
  Na  Na3  1  0.15994300  0.77537800  0.57541700  1
  Na  Na4  1  0.19456100  0.85760300  0.80485200  1
  Na  Na5  1  0.00000000  0.47877300  0.68676200  1
  Na  Na6  1  0.22462200  0.84005700  0.07541700  1
  Na  Na7  1  0.13489300  0.58895300  0.93515800  1
  Na  Na8  1  0.13489300  0.54594000  0.43515800  1
  Na  Na9  1  0.00000000  0.16395300  0.46259700  1
  Na  Na10  1  0.41104700  0.86510700  0.43515800  1
  Na  Na11  1  0.14239700  0.33695900  0.80485200  1
  Na  Na12  1  0.15994300  0.38456500  0.07541700  1
  Na  Na13  1  0.22462200  0.38456500  0.57541700  1
  Na  Na14  1  0.19456100  0.33695900  0.30485200  1
  Na  Na15  1  0.45406000  0.86510700  0.93515800  1
  Na  Na16  1  0.16395300  0.16395300  0.96259700  1
  Na  Na17  1  0.41104700  0.54594000  0.93515800  1
  Na  Na18  1  0.16395300  0.00000000  0.46259700  1
  Na  Na19  1  0.45406000  0.58895300  0.43515800  1
  Na  Na20  1  0.61543500  0.84005700  0.57541700  1
  Na  Na21  1  0.47877300  0.47877300  0.18676200  1
  Na  Na22  1  0.66304100  0.85760300  0.30485200  1
  Na  Na23  1  0.33695900  0.19456100  0.30485200  1
  Na  Na24  1  0.61543500  0.77537800  0.07541700  1
  Na  Na25  1  0.38456500  0.22462200  0.57541700  1
  Na  Na26  1  0.66304100  0.80543900  0.80485200  1
  Na  Na27  1  0.33695900  0.14239700  0.80485200  1
  Na  Na28  1  0.52122700  0.52122700  0.68676200  1
  Na  Na29  1  0.38456500  0.15994300  0.07541700  1
  Na  Na30  1  0.54594000  0.41104700  0.93515800  1
  Na  Na31  1  0.58895300  0.45406000  0.43515800  1
  Na  Na32  1  0.83604700  0.83604700  0.46259700  1
  Na  Na33  1  0.54594000  0.13489300  0.43515800  1
  Na  Na34  1  0.47877300  0.00000000  0.68676200  1
  Na  Na35  1  0.80543900  0.66304100  0.80485200  1
  Na  Na36  1  0.77537800  0.61543500  0.07541700  1
  Na  Na37  1  0.84005700  0.61543500  0.57541700  1
  Na  Na38  1  0.85760300  0.66304100  0.30485200  1
  Na  Na39  1  0.52122700  0.00000000  0.18676200  1
  Na  Na40  1  0.58895300  0.13489300  0.93515800  1
  Na  Na41  1  0.86510700  0.45406000  0.93515800  1
  Na  Na42  1  0.86510700  0.41104700  0.43515800  1
  Na  Na43  1  0.77537800  0.15994300  0.57541700  1
  Na  Na44  1  0.80543900  0.14239700  0.30485200  1
  Na  Na45  1  0.84005700  0.22462200  0.07541700  1
  Na  Na46  1  0.85760300  0.19456100  0.80485200  1
  Na  Na47  1  0.83604700  0.00000000  0.96259700  1
  Ti  Ti0  1  0.33333300  0.66666700  0.19376400  1
  Ti  Ti1  1  0.00000000  0.00000000  0.21007400  1
  Ti  Ti2  1  0.00000000  0.00000000  0.71007400  1
  Ti  Ti3  1  0.33333300  0.66666700  0.69376400  1
  Ti  Ti4  1  0.66666700  0.33333300  0.69376400  1
  Ti  Ti5  1  0.66666700  0.33333300  0.19376400  1
  O  O0  1  0.00000000  0.84994600  0.76200100  1
  O  O1  1  0.00000000  0.65947400  0.04593900  1
  O  O2  1  0.00000000  0.65036500  0.43513000  1
  O  O3  1  0.00000000  0.34963500  0.93513000  1
  O  O4  1  0.18582400  0.67074500  0.74354100  1
  O  O5  1  0.00000000  0.34052600  0.54593900  1
  O  O6  1  0.32925500  0.81417600  0.24354100  1
  O  O7  1  0.00000000  0.15005400  0.26200100  1
  O  O8  1  0.18582400  0.51507900  0.24354100  1
  O  O9  1  0.33333300  0.66666700  0.03619900  1
  O  O10  1  0.33333300  0.66666700  0.53619900  1
  O  O11  1  0.00000000  0.00000000  0.05361700  1
  O  O12  1  0.00000000  0.00000000  0.55361700  1
  O  O13  1  0.32925500  0.51507900  0.74354100  1
  O  O14  1  0.15005400  0.15005400  0.76200100  1
  O  O15  1  0.48492100  0.81417600  0.74354100  1
  O  O16  1  0.34052600  0.34052600  0.04593900  1
  O  O17  1  0.48492100  0.67074500  0.24354100  1
  O  O18  1  0.34963500  0.34963500  0.43513000  1
  O  O19  1  0.15005400  0.00000000  0.26200100  1
  O  O20  1  0.65036500  0.65036500  0.93513000  1
  O  O21  1  0.51507900  0.32925500  0.74354100  1
  O  O22  1  0.65947400  0.65947400  0.54593900  1
  O  O23  1  0.34052600  0.00000000  0.54593900  1
  O  O24  1  0.34963500  0.00000000  0.93513000  1
  O  O25  1  0.51507900  0.18582400  0.24354100  1
  O  O26  1  0.84994600  0.84994600  0.26200100  1
  O  O27  1  0.67074500  0.48492100  0.24354100  1
  O  O28  1  0.66666700  0.33333300  0.53619900  1
  O  O29  1  0.66666700  0.33333300  0.03619900  1
  O  O30  1  0.81417600  0.48492100  0.74354100  1
  O  O31  1  0.67074500  0.18582400  0.74354100  1
  O  O32  1  0.65036500  0.00000000  0.43513000  1
  O  O33  1  0.65947400  0.00000000  0.04593900  1
  O  O34  1  0.81417600  0.32925500  0.24354100  1
  O  O35  1  0.84994600  0.00000000  0.76200100  1
loop_
_geom_bond_atom_site_label_1
_geom_bond_atom_site_label_2
_geom_bond_distance
_geom_bond_site_symmetry_2
Na0 O11 2.185508 1_566
Na0 O1 2.275313 1_556
Na0 O0 2.347535 1_555
Na1 O8 2.298856 1_555
Na1 O34 2.298856 1_455
Na1 O1 2.301358 1_555
Na2 O6 2.244701 1_555
Na2 O19 2.278642 1_565
Na2 O2 2.308971 1_555
Na3 O2 2.358183 1_555
Na3 O4 2.407591 1_555
Na3 O23 2.425953 1_565
Na4 O4 2.244701 1_555
Na4 O0 2.278642 1_555
Na4 O24 2.308971 1_565
Na5 O30 2.298856 1_455
Na5 O4 2.298856 1_555
Na5 O5 2.301358 1_555
Na6 O24 2.358183 1_564
Na6 O6 2.407591 1_555
Na6 O1 2.425953 1_555
Na7 O9 2.336992 1_556
Na7 O4 2.387285 1_555
Na7 O3 2.420679 1_555
Na7 O1 2.471267 1_556
Na8 O10 2.336993 1_555
Na8 O8 2.387285 1_555
Na8 O2 2.420679 1_555
Na8 O5 2.471267 1_555
Na9 O12 2.185508 1_555
Na9 O5 2.275313 1_555
Na9 O7 2.347535 1_555
Na10 O10 2.336992 1_555
Na10 O6 2.387285 1_555
Na10 O32 2.420679 1_565
Na10 O23 2.471267 1_565
Na11 O13 2.244695 1_555
Na11 O14 2.278654 1_555
Na11 O3 2.308966 1_555
Na12 O3 2.358183 1_554
Na12 O8 2.407591 1_555
Na12 O16 2.425953 1_555
Na13 O18 2.358183 1_555
Na13 O13 2.407591 1_555
Na13 O5 2.425953 1_555
Na14 O8 2.244689 1_555
Na14 O7 2.278648 1_555
Na14 O18 2.308975 1_555
Na15 O9 2.336993 1_556
Na15 O15 2.387285 1_555
Na15 O24 2.420679 1_565
Na15 O33 2.471267 1_566
Na16 O11 2.185508 1_556
Na16 O16 2.275314 1_556
Na16 O14 2.347535 1_555
Na17 O9 2.337001 1_556
Na17 O13 2.387285 1_555
Na17 O20 2.420679 1_555
Na17 O16 2.471267 1_556
Na18 O12 2.185508 1_555
Na18 O23 2.275313 1_555
Na18 O19 2.347535 1_555
Na19 O10 2.337001 1_555
Na19 O17 2.387285 1_555
Na19 O18 2.420679 1_555
Na19 O22 2.471267 1_555
Na20 O32 2.358183 1_565
Na20 O15 2.407591 1_555
Na20 O22 2.425953 1_555
Na21 O27 2.298856 1_555
Na21 O17 2.298856 1_555
Na21 O16 2.301358 1_555
Na22 O17 2.244695 1_555
Na22 O26 2.278654 1_555
Na22 O32 2.308966 1_565
Na23 O25 2.244689 1_555
Na23 O19 2.278648 1_555
Na23 O18 2.308975 1_555
Na24 O20 2.358183 1_554
Na24 O17 2.407591 1_555
Na24 O33 2.425953 1_565
Na25 O18 2.358183 1_555
Na25 O21 2.407591 1_555
Na25 O23 2.425953 1_555
Na26 O15 2.244689 1_555
Na26 O35 2.278648 1_565
Na26 O20 2.308975 1_555
Na27 O21 2.244695 1_555
Na27 O14 2.278654 1_555
Na27 O24 2.308966 1_555
Na28 O21 2.298856 1_555
Na28 O13 2.298856 1_555
Na28 O22 2.301358 1_555
Na29 O24 2.358183 1_554
Na29 O25 2.407591 1_555
Na29 O16 2.425953 1_555
Na30 O29 2.337001 1_556
Na30 O21 2.387285 1_555
Na30 O20 2.420679 1_555
Na30 O16 2.471267 1_556
Na31 O28 2.337001 1_555
Na31 O27 2.387285 1_555
Na31 O18 2.420679 1_555
Na31 O22 2.471267 1_555
Na32 O12 2.185508 1_665
Na32 O22 2.275314 1_555
Na32 O26 2.347535 1_555
Na33 O28 2.336993 1_555
Na33 O25 2.387285 1_555
Na33 O32 2.420679 1_555
Na33 O23 2.471267 1_555
Na34 O15 2.298856 1_545
Na34 O31 2.298856 1_555
Na34 O23 2.301358 1_555
Na35 O30 2.244689 1_555
Na35 O0 2.278648 1_655
Na35 O20 2.308975 1_555
Na36 O20 2.358183 1_554
Na36 O27 2.407591 1_555
Na36 O1 2.425953 1_655
Na37 O2 2.358183 1_655
Na37 O30 2.407591 1_555
Na37 O22 2.425953 1_555
Na38 O27 2.244695 1_555
Na38 O26 2.278654 1_555
Na38 O2 2.308966 1_655
Na39 O25 2.298856 1_555
Na39 O6 2.298856 1_545
Na39 O33 2.301358 1_555
Na40 O29 2.336992 1_556
Na40 O31 2.387285 1_555
Na40 O24 2.420679 1_555
Na40 O33 2.471267 1_556
Na41 O29 2.336993 1_556
Na41 O30 2.387285 1_555
Na41 O3 2.420679 1_655
Na41 O1 2.471267 1_656
Na42 O28 2.336992 1_555
Na42 O34 2.387285 1_555
Na42 O2 2.420679 1_655
Na42 O5 2.471267 1_655
Na43 O32 2.358183 1_555
Na43 O31 2.407591 1_555
Na43 O5 2.425953 1_655
Na44 O34 2.244701 1_555
Na44 O7 2.278642 1_655
Na44 O32 2.308971 1_555
Na45 O3 2.358183 1_654
Na45 O34 2.407591 1_555
Na45 O33 2.425953 1_555
Na46 O31 2.244701 1_555
Na46 O35 2.278642 1_555
Na46 O3 2.308971 1_655
Na47 O11 2.185508 1_656
Na47 O33 2.275313 1_556
Na47 O35 2.347535 1_555
O0 Ti2 1.850021 1_565
O4 Ti3 1.836817 1_555
O6 Ti0 1.836817 1_555
O7 Ti1 1.850021 1_555
O8 Ti0 1.836822 1_555
O9 Ti0 1.839561 1_555
O10 Ti3 1.839561 1_555
O11 Ti1 1.826625 1_555
O12 Ti2 1.826625 1_555
O13 Ti3 1.836828 1_555
O14 Ti2 1.850021 1_555
O15 Ti3 1.836822 1_555
O17 Ti0 1.836828 1_555
O19 Ti1 1.850021 1_555
O21 Ti4 1.836828 1_555
O25 Ti5 1.836822 1_555
O26 Ti1 1.850021 1_665
O27 Ti5 1.836828 1_555
O28 Ti4 1.839561 1_555
O29 Ti5 1.839561 1_555
O30 Ti4 1.836822 1_555
O31 Ti4 1.836817 1_555
O34 Ti5 1.836817 1_555
O35 Ti2 1.850021 1_655
