# generated using pymatgen
data_Li4Cr3NiO8
_symmetry_space_group_name_H-M   'P 1'
_cell_length_a   5.12237100
_cell_length_b   7.80230236
_cell_length_c   7.81112739
_cell_angle_alpha   94.13700340
_cell_angle_beta   108.98043342
_cell_angle_gamma   96.30708318
_symmetry_Int_Tables_number   1
_chemical_formula_structural   Li4Cr3NiO8
_chemical_formula_sum   'Li8 Cr6 Ni2 O16'
_cell_volume   291.48269232
_cell_formula_units_Z   2
loop_
 _symmetry_equiv_pos_site_id
 _symmetry_equiv_pos_as_xyz
  1  'x, y, z'
loop_
 _atom_site_type_symbol
 _atom_site_label
 _atom_site_symmetry_multiplicity
 _atom_site_fract_x
 _atom_site_fract_y
 _atom_site_fract_z
 _atom_site_occupancy
  Li  Li0  1  0.87384300  0.62764500  0.87246100  1
  Li  Li1  1  0.62283100  0.86865100  0.62304000  1
  Li  Li2  1  0.74837500  0.24762000  0.74586600  1
  Li  Li3  1  0.25162500  0.75238000  0.25413400  1
  Li  Li4  1  0.37716900  0.13134900  0.37696000  1
  Li  Li5  1  0.50000000  0.50000000  0.50000000  1
  Li  Li6  1  0.00000000  0.00000000  0.00000000  1
  Li  Li7  1  0.12615700  0.37235500  0.12753900  1
  Cr  Cr0  1  0.18743800  0.06238500  0.68589300  1
  Cr  Cr1  1  0.31014100  0.43813600  0.80727300  1
  Cr  Cr2  1  0.81256200  0.93761500  0.31410700  1
  Cr  Cr3  1  0.43736600  0.81147300  0.93586200  1
  Cr  Cr4  1  0.56263400  0.18852700  0.06413800  1
  Cr  Cr5  1  0.68985900  0.56186400  0.19272700  1
  Ni  Ni0  1  0.06315900  0.68914600  0.56296500  1
  Ni  Ni1  1  0.93684100  0.31085400  0.43703500  1
  O  O0  1  0.46433300  0.65354100  0.72867900  1
  O  O1  1  0.05354100  0.84622000  0.78107600  1
  O  O2  1  0.57407700  0.02976700  0.84899200  1
  O  O3  1  0.66011300  0.71946500  0.39488100  1
  O  O4  1  0.19884800  0.90791200  0.47061600  1
  O  O5  1  0.33988700  0.28053500  0.60511900  1
  O  O6  1  0.80115200  0.09208800  0.52938400  1
  O  O7  1  0.82408300  0.77935300  0.10006500  1
  O  O8  1  0.94645900  0.15378000  0.21892400  1
  O  O9  1  0.93360200  0.46935600  0.65567100  1
  O  O10  1  0.42592300  0.97023300  0.15100800  1
  O  O11  1  0.06639800  0.53064400  0.34432900  1
  O  O12  1  0.53566700  0.34645900  0.27132100  1
  O  O13  1  0.69529600  0.40635700  0.97510000  1
  O  O14  1  0.17591700  0.22064700  0.89993500  1
  O  O15  1  0.30470400  0.59364300  0.02490000  1
loop_
_geom_bond_atom_site_label_1
_geom_bond_atom_site_label_2
_geom_bond_distance
_geom_bond_site_symmetry_2
Li0 O0 2.072618 1_555
Li0 O1 2.126810 1_655
Li0 O9 2.145924 1_555
Li0 O7 2.164303 1_556
Li0 O13 2.188599 1_555
Li0 O15 2.196347 1_656
Li1 O0 2.119701 1_555
Li1 O3 2.130361 1_555
Li1 O6 2.162756 1_565
Li1 O4 2.178272 1_555
Li1 O1 2.183218 1_655
Li1 O2 2.189337 1_565
Li2 O5 2.077326 1_555
Li2 O6 2.116232 1_555
Li2 O9 2.153993 1_555
Li2 O2 2.160352 1_555
Li2 O14 2.170758 1_655
Li2 O13 2.210137 1_555
Li3 O3 2.077326 1_555
Li3 O4 2.116232 1_555
Li3 O11 2.153993 1_555
Li3 O10 2.160352 1_555
Li3 O7 2.170758 1_455
Li3 O15 2.210137 1_555
Li4 O12 2.119701 1_555
Li4 O5 2.130361 1_555
Li4 O4 2.162756 1_545
Li4 O6 2.178272 1_555
Li4 O8 2.183218 1_455
Li4 O10 2.189337 1_545
Li5 O0 2.147278 1_555
Li5 O12 2.147278 1_555
Li5 O3 2.147394 1_555
Li5 O5 2.147394 1_555
Li5 O11 2.206968 1_555
Li5 O9 2.206968 1_555
Li6 O8 2.126126 1_455
Li6 O1 2.126126 1_544
Li6 O10 2.163813 1_545
Li6 O2 2.163813 1_454
Li6 O14 2.167520 1_554
Li6 O7 2.167520 1_445
Li7 O12 2.072618 1_555
Li7 O8 2.126810 1_455
Li7 O11 2.145924 1_555
Li7 O14 2.164303 1_554
Li7 O15 2.188599 1_555
Li7 O13 2.196347 1_454
Cr0 O6 2.007885 1_455
Cr0 O4 2.017586 1_545
Cr0 O5 2.021965 1_555
Cr0 O14 2.026286 1_555
Cr0 O1 2.031312 1_545
Cr0 O2 2.031371 1_555
Cr1 O9 1.959822 1_455
Cr1 O5 1.986500 1_555
Cr1 O0 1.999484 1_555
Cr1 O15 2.025645 1_556
Cr1 O14 2.029950 1_555
Cr1 O13 2.035767 1_555
Cr2 O4 2.007885 1_655
Cr2 O6 2.017586 1_565
Cr2 O3 2.021965 1_555
Cr2 O7 2.026286 1_555
Cr2 O8 2.031312 1_565
Cr2 O10 2.031371 1_555
Cr3 O1 2.004732 1_555
Cr3 O0 2.012852 1_555
Cr3 O15 2.014513 1_556
Cr3 O2 2.016308 1_565
Cr3 O7 2.033377 1_556
Cr3 O10 2.035109 1_556
Cr4 O8 2.004732 1_555
Cr4 O12 2.012852 1_555
Cr4 O13 2.014513 1_554
Cr4 O10 2.016308 1_545
Cr4 O14 2.033377 1_554
Cr4 O2 2.035109 1_554
Cr5 O11 1.959822 1_655
Cr5 O3 1.986500 1_555
Cr5 O12 1.999484 1_555
Cr5 O13 2.025645 1_554
Cr5 O7 2.029950 1_555
Cr5 O15 2.035767 1_555
Ni0 O9 2.036491 1_455
Ni0 O4 2.039608 1_555
Ni0 O11 2.040693 1_555
Ni0 O1 2.042927 1_555
Ni0 O0 2.102992 1_555
Ni0 O3 2.104994 1_455
Ni1 O11 2.036491 1_655
Ni1 O6 2.039608 1_555
Ni1 O9 2.040693 1_555
Ni1 O8 2.042927 1_555
Ni1 O12 2.102992 1_555
Ni1 O5 2.104994 1_655
