# generated using pymatgen
data_Sm11Y5O24
_symmetry_space_group_name_H-M   'P 1'
_cell_length_a   9.37633185
_cell_length_b   9.37812139
_cell_length_c   9.39073026
_cell_angle_alpha   109.47742178
_cell_angle_beta   109.47925356
_cell_angle_gamma   109.39453782
_symmetry_Int_Tables_number   1
_chemical_formula_structural   Sm11Y5O24
_chemical_formula_sum   'Sm11 Y5 O24'
_cell_volume   636.15115867
_cell_formula_units_Z   1
loop_
 _symmetry_equiv_pos_site_id
 _symmetry_equiv_pos_as_xyz
  1  'x, y, z'
loop_
 _atom_site_type_symbol
 _atom_site_label
 _atom_site_symmetry_multiplicity
 _atom_site_fract_x
 _atom_site_fract_y
 _atom_site_fract_z
 _atom_site_occupancy
  Sm  Sm0  1  0.50602674  0.00291146  0.00516833  1
  Sm  Sm1  1  0.21949655  0.47046692  0.74991464  1
  Sm  Sm2  1  0.99299016  0.00056379  0.49806264  1
  Sm  Sm3  1  0.00018539  0.49704676  0.99933113  1
  Sm  Sm4  1  0.50001422  0.50040248  0.49929760  1
  Sm  Sm5  1  0.25133950  0.71887847  0.46860602  1
  Sm  Sm6  1  0.78080531  0.53186432  0.24996728  1
  Sm  Sm7  1  0.28088041  0.03074160  0.25101422  1
  Sm  Sm8  1  0.53226262  0.25012220  0.78075530  1
  Sm  Sm9  1  0.96664808  0.74921719  0.71983305  1
  Sm  Sm10  1  0.24804129  0.21885102  0.96905684  1
  Y  Y0  1  0.75027905  0.78372279  0.03232209  1
  Y  Y1  1  0.02965010  0.24862893  0.28056879  1
  Y  Y2  1  0.47072243  0.75214143  0.21982184  1
  Y  Y3  1  0.71811730  0.96799720  0.75082228  1
  Y  Y4  1  0.74985657  0.27987335  0.53158561  1
  O  O0  1  0.26848408  0.50817114  0.53709605  1
  O  O1  1  0.47483248  0.73182082  0.96220134  1
  O  O2  1  0.72495670  0.75926607  0.26599777  1
  O  O3  1  0.23137582  0.95730692  0.97133537  1
  O  O4  1  0.00627756  0.53569335  0.76813166  1
  O  O5  1  0.51834876  0.74593984  0.47030700  1
  O  O6  1  0.23130116  0.76816750  0.23915585  1
  O  O7  1  0.02527506  0.98784668  0.25740026  1
  O  O8  1  0.73701264  0.73185795  0.77345316  1
  O  O9  1  0.46435363  0.96950163  0.73254374  1
  O  O10  1  0.24788167  0.47652909  0.01693579  1
  O  O11  1  0.95380470  0.23110988  0.48296125  1
  O  O12  1  0.76082366  0.53473117  0.98770948  1
  O  O13  1  0.04118601  0.77344653  0.51254223  1
  O  O14  1  0.25374393  0.27018114  0.22964001  1
  O  O15  1  0.54638908  0.02970299  0.27644839  1
  O  O16  1  0.77092493  0.22398386  0.75495506  1
  O  O17  1  0.96521580  0.01169846  0.74155352  1
  O  O18  1  0.98646394  0.45332604  0.22789450  1
  O  O19  1  0.49298624  0.26066844  0.52982608  1
  O  O20  1  0.77628398  0.04264523  0.03081148  1
  O  O21  1  0.26712694  0.23879607  0.72554391  1
  O  O22  1  0.72893110  0.48370311  0.45854180  1
  O  O23  1  0.52870240  0.27047319  0.04088864  1
loop_
_geom_bond_atom_site_label_1
_geom_bond_atom_site_label_2
_geom_bond_distance
_geom_bond_site_symmetry_2
O0 Sm1 2.303412 1_555
O0 Sm5 2.309502 1_555
O0 Sm4 2.333632 1_555
O0 Y1 2.369469 1_555
O1 Y0 2.271100 1_556
O1 Sm1 2.318335 1_555
O1 Sm0 2.335617 1_566
O1 Y2 2.377005 1_556
O2 Y2 2.249542 1_555
O2 Sm6 2.329169 1_555
O2 Sm2 2.338292 1_565
O2 Y0 2.360351 1_555
O3 Sm9 2.312375 1_455
O3 Sm7 2.314325 1_566
O3 Sm0 2.355385 1_566
O3 Sm10 2.413244 1_565
O4 Sm9 2.311070 1_455
O4 Sm1 2.317498 1_555
O4 Sm3 2.332842 1_555
O4 Y4 2.350317 1_455
O5 Y2 2.267984 1_555
O5 Y3 2.290149 1_555
O5 Sm4 2.364818 1_555
O5 Sm5 2.425111 1_555
O6 Sm7 2.305325 1_565
O6 Sm5 2.311621 1_555
O6 Sm3 2.345202 1_554
O6 Y2 2.360680 1_555
O7 Y0 2.273612 1_455
O7 Sm7 2.319687 1_565
O7 Sm2 2.348178 1_465
O7 Y1 2.367021 1_565
O8 Y0 2.265235 1_556
O8 Sm9 2.336876 1_555
O8 Y3 2.351610 1_555
O8 Sm4 2.352043 1_555
O9 Sm5 2.313548 1_555
O9 Sm8 2.331630 1_565
O9 Y3 2.332938 1_555
O9 Sm0 2.349847 1_566
O10 Y2 2.269519 1_555
O10 Sm10 2.306532 1_554
O10 Sm3 2.349515 1_554
O10 Sm1 2.410712 1_554
O11 Y4 2.257956 1_555
O11 Y1 2.275333 1_655
O11 Sm2 2.350966 1_555
O11 Sm1 2.428517 1_655
O12 Y0 2.272979 1_556
O12 Sm8 2.336219 1_555
O12 Sm3 2.358599 1_655
O12 Sm6 2.416804 1_556
O13 Sm5 2.320772 1_555
O13 Sm9 2.329425 1_455
O13 Sm2 2.355997 1_465
O13 Sm6 2.399909 1_455
O14 Y1 2.266527 1_555
O14 Sm10 2.309287 1_554
O14 Sm4 2.355654 1_555
O14 Sm7 2.406913 1_555
O15 Y4 2.261573 1_555
O15 Y2 2.271687 1_545
O15 Sm0 2.358645 1_555
O15 Sm7 2.424012 1_555
O16 Y3 2.268372 1_545
O16 Y4 2.288945 1_555
O16 Sm3 2.362214 1_655
O16 Sm8 2.410961 1_555
O17 Y3 2.251914 1_545
O17 Sm10 2.324427 1_655
O17 Sm2 2.358609 1_555
O17 Sm9 2.406267 1_545
O18 Y1 2.260466 1_655
O18 Sm6 2.326355 1_555
O18 Sm3 2.351089 1_654
O18 Sm5 2.423591 1_655
O19 Sm8 2.301938 1_555
O19 Sm7 2.318231 1_555
O19 Sm4 2.342053 1_555
O19 Y4 2.348823 1_555
O20 Y1 2.256315 1_655
O20 Y3 2.294195 1_544
O20 Sm0 2.350358 1_555
O20 Y0 2.363873 1_545
O21 Sm1 2.313693 1_555
O21 Sm8 2.321330 1_555
O21 Sm2 2.345865 1_455
O21 Sm10 2.415003 1_555
O22 Y4 2.279630 1_555
O22 Sm6 2.314383 1_555
O22 Sm4 2.347167 1_555
O22 Sm9 2.404369 1_555
O23 Sm6 2.301810 1_555
O23 Sm10 2.316631 1_554
O23 Sm0 2.343236 1_555
O23 Sm8 2.398483 1_554
