# generated using pymatgen
data_Li9Fe3(WO4)7
_symmetry_space_group_name_H-M   'P 1'
_cell_length_a   8.54878723
_cell_length_b   8.54878723
_cell_length_c   8.54878723
_cell_angle_alpha   89.86856142
_cell_angle_beta   90.13143858
_cell_angle_gamma   90.13143858
_symmetry_Int_Tables_number   1
_chemical_formula_structural   Li9Fe3(WO4)7
_chemical_formula_sum   'Li9 Fe3 W7 O28'
_cell_volume   624.75551986
_cell_formula_units_Z   1
loop_
 _symmetry_equiv_pos_site_id
 _symmetry_equiv_pos_as_xyz
  1  'x, y, z'
loop_
 _atom_site_type_symbol
 _atom_site_label
 _atom_site_symmetry_multiplicity
 _atom_site_fract_x
 _atom_site_fract_y
 _atom_site_fract_z
 _atom_site_occupancy
  Li  Li0  1  0.09762800  0.36036900  0.64344000  1
  Li  Li1  1  0.09762800  0.64344000  0.36036900  1
  Li  Li2  1  0.35656000  0.36036900  0.90237200  1
  Li  Li3  1  0.35656000  0.90237200  0.36036900  1
  Li  Li4  1  0.64603200  0.09567600  0.35396800  1
  Li  Li5  1  0.64603200  0.35396800  0.09567600  1
  Li  Li6  1  0.63963100  0.64344000  0.90237200  1
  Li  Li7  1  0.63963100  0.90237200  0.64344000  1
  Li  Li8  1  0.90432400  0.35396800  0.35396800  1
  Fe  Fe0  1  0.36260600  0.09980600  0.63739400  1
  Fe  Fe1  1  0.36260600  0.63739400  0.09980600  1
  Fe  Fe2  1  0.90019400  0.63739400  0.63739400  1
  W  W0  1  0.99947900  0.00052100  0.49900600  1
  W  W1  1  0.99947900  0.49900600  0.00052100  1
  W  W2  1  0.35768500  0.35872800  0.35872800  1
  W  W3  1  0.35459800  0.64540200  0.64540200  1
  W  W4  1  0.50099400  0.00052100  0.00052100  1
  W  W5  1  0.64127200  0.35872800  0.64231500  1
  W  W6  1  0.64127200  0.64231500  0.35872800  1
  O  O0  1  0.14818900  0.38236400  0.38236400  1
  O  O1  1  0.13805800  0.61366400  0.61366400  1
  O  O2  1  0.12281300  0.12560800  0.62221100  1
  O  O3  1  0.12281300  0.62221100  0.12560800  1
  O  O4  1  0.12123500  0.37800800  0.87876500  1
  O  O5  1  0.12123500  0.87876500  0.37800800  1
  O  O6  1  0.37778900  0.12560800  0.87718700  1
  O  O7  1  0.37778900  0.87718700  0.12560800  1
  O  O8  1  0.39116300  0.38478300  0.60883700  1
  O  O9  1  0.39116300  0.60883700  0.38478300  1
  O  O10  1  0.38474800  0.14580000  0.38572400  1
  O  O11  1  0.38474800  0.38572400  0.14580000  1
  O  O12  1  0.38633600  0.61366400  0.86194200  1
  O  O13  1  0.38633600  0.86194200  0.61366400  1
  O  O14  1  0.61427600  0.14580000  0.61525200  1
  O  O15  1  0.61427600  0.61525200  0.14580000  1
  O  O16  1  0.61763600  0.38236400  0.85181100  1
  O  O17  1  0.61763600  0.85181100  0.38236400  1
  O  O18  1  0.60805800  0.39194200  0.39194200  1
  O  O19  1  0.61521700  0.60883700  0.60883700  1
  O  O20  1  0.62107000  0.12298700  0.12298700  1
  O  O21  1  0.62199200  0.87876500  0.87876500  1
  O  O22  1  0.87701300  0.12298700  0.37893000  1
  O  O23  1  0.87701300  0.37893000  0.12298700  1
  O  O24  1  0.87439200  0.62221100  0.87718700  1
  O  O25  1  0.87439200  0.87718700  0.62221100  1
  O  O26  1  0.85420000  0.38572400  0.61525200  1
  O  O27  1  0.85420000  0.61525200  0.38572400  1
loop_
_geom_bond_atom_site_label_1
_geom_bond_atom_site_label_2
_geom_bond_distance
_geom_bond_site_symmetry_2
Li0 O4 2.027305 1_555
Li0 O2 2.027525 1_555
Li0 O26 2.105991 1_455
Li0 O1 2.206241 1_555
Li0 O0 2.281581 1_555
Li0 O8 2.535491 1_555
Li1 O5 2.027305 1_555
Li1 O3 2.027525 1_555
Li1 O27 2.105991 1_455
Li1 O1 2.206241 1_555
Li1 O0 2.281581 1_555
Li1 O9 2.535491 1_555
Li2 O4 2.027305 1_555
Li2 O6 2.027525 1_555
Li2 O11 2.105991 1_556
Li2 O12 2.206241 1_555
Li2 O16 2.281581 1_555
Li2 O8 2.535491 1_555
Li3 O5 2.027305 1_555
Li3 O7 2.027525 1_555
Li3 O10 2.105991 1_565
Li3 O13 2.206241 1_555
Li3 O17 2.281581 1_555
Li3 O9 2.535491 1_555
Li4 O20 1.998825 1_555
Li4 O22 1.998825 1_555
Li4 O17 2.111792 1_545
Li4 O10 2.292217 1_555
Li4 O14 2.292217 1_555
Li4 O18 2.575547 1_555
Li5 O20 1.998825 1_555
Li5 O23 1.998825 1_555
Li5 O16 2.111792 1_554
Li5 O11 2.292217 1_555
Li5 O15 2.292217 1_555
Li5 O18 2.575547 1_555
Li6 O21 2.027305 1_555
Li6 O24 2.027525 1_555
Li6 O15 2.105991 1_556
Li6 O12 2.206241 1_555
Li6 O16 2.281581 1_555
Li6 O19 2.535491 1_555
Li7 O21 2.027305 1_555
Li7 O25 2.027525 1_555
Li7 O14 2.105991 1_565
Li7 O13 2.206241 1_555
Li7 O17 2.281581 1_555
Li7 O19 2.535491 1_555
Li8 O22 1.998825 1_555
Li8 O23 1.998825 1_555
Li8 O0 2.111792 1_655
Li8 O26 2.292217 1_555
Li8 O27 2.292217 1_555
Li8 O18 2.575547 1_555
Fe0 O13 2.054555 1_545
Fe0 O6 2.066029 1_555
Fe0 O2 2.066029 1_555
Fe0 O14 2.194747 1_555
Fe0 O10 2.194747 1_555
Fe0 O8 2.459496 1_555
Fe1 O12 2.054555 1_554
Fe1 O7 2.066029 1_555
Fe1 O3 2.066029 1_555
Fe1 O15 2.194747 1_555
Fe1 O11 2.194747 1_555
Fe1 O9 2.459496 1_555
Fe2 O1 2.054555 1_655
Fe2 O25 2.066029 1_555
Fe2 O24 2.066029 1_555
Fe2 O27 2.194747 1_555
Fe2 O26 2.194747 1_555
Fe2 O19 2.459496 1_555
O0 W2 1.814557 1_555
O1 W3 1.889373 1_555
O2 W0 1.832867 1_455
O3 W1 1.832867 1_455
O4 W1 1.803222 1_456
O5 W0 1.803222 1_465
O6 W4 1.832867 1_556
O7 W4 1.832867 1_565
O8 W5 2.168456 1_555
O8 W2 2.168456 1_555
O8 W3 2.272914 1_555
O9 W6 2.168456 1_555
O9 W2 2.168456 1_555
O9 W3 2.272914 1_555
O10 W2 1.849311 1_555
O11 W2 1.849311 1_555
O12 W3 1.889373 1_555
O13 W3 1.889373 1_555
O14 W5 1.849311 1_555
O15 W6 1.849311 1_555
O16 W5 1.814557 1_555
O17 W6 1.814557 1_555
O18 W2 2.176531 1_555
O18 W6 2.176531 1_555
O18 W5 2.176531 1_555
O19 W5 2.168456 1_555
O19 W6 2.168456 1_555
O19 W3 2.272914 1_555
O20 W4 1.800285 1_555
O21 W4 1.803222 1_566
O22 W0 1.800285 1_555
O23 W1 1.800285 1_555
O24 W1 1.832867 1_556
O25 W0 1.832867 1_565
O26 W5 1.849311 1_555
O27 W6 1.849311 1_555
