# generated using pymatgen
data_Mg4Mn9O13
_symmetry_space_group_name_H-M   'P 1'
_cell_length_a   3.13847033
_cell_length_b   3.13847033
_cell_length_c   33.47735788
_cell_angle_alpha   92.68669679
_cell_angle_beta   90.00000000
_cell_angle_gamma   120.00000000
_symmetry_Int_Tables_number   1
_chemical_formula_structural   Mg4Mn9O13
_chemical_formula_sum   'Mg4 Mn9 O13'
_cell_volume   285.15485226
_cell_formula_units_Z   1
loop_
 _symmetry_equiv_pos_site_id
 _symmetry_equiv_pos_as_xyz
  1  'x, y, z'
loop_
 _atom_site_type_symbol
 _atom_site_label
 _atom_site_symmetry_multiplicity
 _atom_site_fract_x
 _atom_site_fract_y
 _atom_site_fract_z
 _atom_site_occupancy
  Mg  Mg0  1  0.15406660  0.30813220  0.46219880  1
  Mg  Mg1  1  0.23122953  0.46245906  0.69368859  1
  Mg  Mg2  1  0.61561932  0.23123963  0.84685895  1
  Mg  Mg3  1  0.30675504  0.61351007  0.92026411  1
  Mn  Mn0  1  0.99869697  0.99739493  0.99609190  1
  Mn  Mn1  1  0.38441819  0.76883538  0.15325356  1
  Mn  Mn2  1  0.69165613  0.38331326  0.07496938  1
  Mn  Mn3  1  0.07705414  0.15410927  0.23116341  1
  Mn  Mn4  1  0.46240407  0.92480815  0.38721222  1
  Mn  Mn5  1  0.76969124  0.53938248  0.30907272  1
  Mn  Mn6  1  0.84587967  0.69175935  0.53763902  1
  Mn  Mn7  1  0.53906187  0.07812275  0.61718462  1
  Mn  Mn8  1  0.92345344  0.84690588  0.77035931  1
  O  O0  1  0.34521485  0.69042870  0.03564355  1
  O  O1  1  0.03808351  0.07616703  0.11424954  1
  O  O2  1  0.73075084  0.46150067  0.19225051  1
  O  O3  1  0.42336184  0.84672368  0.27008553  1
  O  O4  1  0.11602805  0.23205609  0.34808514  1
  O  O5  1  0.80893641  0.61787282  0.42680922  1
  O  O6  1  0.19243189  0.38486377  0.57729566  1
  O  O7  1  0.49921197  0.99842394  0.49763591  1
  O  O8  1  0.88585757  0.77171515  0.65757372  1
  O  O9  1  0.57661293  0.15322587  0.72983980  1
  O  O10  1  0.27029255  0.54058611  0.81087866  1
  O  O11  1  0.96121370  0.92242840  0.88364211  1
  O  O12  1  0.65201769  0.30403537  0.95605306  1
loop_
_geom_bond_atom_site_label_1
_geom_bond_atom_site_label_2
_geom_bond_distance
_geom_bond_site_symmetry_2
Mg0 O5 2.163989 1_445
Mg0 O5 2.163989 1_555
Mg0 O5 2.163991 1_455
Mg0 O7 2.164857 1_545
Mg0 O7 2.164859 1_555
Mg0 O7 2.164859 1_445
Mg1 O8 2.177338 1_555
Mg1 O8 2.177338 1_455
Mg1 O8 2.177340 1_445
Mg1 O9 2.178011 1_565
Mg1 O9 2.178013 1_555
Mg1 O9 2.178013 1_455
Mg2 O10 2.174848 1_655
Mg2 O10 2.174848 1_545
Mg2 O10 2.174848 1_555
Mg2 O11 2.189804 1_545
Mg2 O11 2.189804 1_555
Mg2 O11 2.189804 1_445
Mg3 O12 2.171315 1_565
Mg3 O12 2.171318 1_455
Mg3 O12 2.171318 1_555
Mg3 O11 2.186782 1_555
Mg3 O11 2.186785 1_455
Mg3 O11 2.186785 1_445
Mn0 O0 2.243076 1_666
Mn0 O0 2.243076 1_556
Mn0 O0 2.243080 1_656
Mn0 O12 2.252714 1_565
Mn0 O12 2.252716 1_555
Mn0 O12 2.252716 1_665
Mn1 O2 2.232197 1_455
Mn1 O2 2.232197 1_555
Mn1 O2 2.232199 1_565
Mn1 O1 2.232334 1_555
Mn1 O1 2.232336 1_665
Mn1 O1 2.232338 1_565
Mn2 O1 2.237739 1_555
Mn2 O1 2.237741 1_665
Mn2 O1 2.237741 1_655
Mn2 O0 2.238633 1_555
Mn2 O0 2.238638 1_655
Mn2 O0 2.238638 1_545
Mn3 O2 2.230556 1_455
Mn3 O2 2.230558 1_445
Mn3 O2 2.230561 1_555
Mn3 O3 2.230737 1_555
Mn3 O3 2.230737 1_445
Mn3 O3 2.230740 1_545
Mn4 O4 2.234740 1_565
Mn4 O4 2.234740 1_665
Mn4 O4 2.234743 1_555
Mn4 O5 2.243971 1_455
Mn4 O5 2.243971 1_555
Mn4 O5 2.243971 1_565
Mn5 O3 2.232007 1_555
Mn5 O3 2.232007 1_655
Mn5 O3 2.232009 1_545
Mn5 O4 2.232497 1_665
Mn5 O4 2.232501 1_555
Mn5 O4 2.232502 1_655
Mn6 O6 2.245148 1_665
Mn6 O6 2.245148 1_555
Mn6 O6 2.245148 1_655
Mn6 O7 2.252006 1_555
Mn6 O7 2.252006 1_655
Mn6 O7 2.252006 1_545
Mn7 O6 2.249741 1_655
Mn7 O6 2.249741 1_545
Mn7 O6 2.249744 1_555
Mn7 O8 2.259691 1_545
Mn7 O8 2.259691 1_555
Mn7 O8 2.259693 1_445
Mn8 O10 2.262293 1_655
Mn8 O10 2.262297 1_665
Mn8 O10 2.262297 1_555
Mn8 O9 2.262297 1_665
Mn8 O9 2.262300 1_555
Mn8 O9 2.262300 1_565
