# generated using pymatgen
data_Cr3Co3(SbO8)2
_symmetry_space_group_name_H-M   'P 1'
_cell_length_a   5.70262412
_cell_length_b   5.69662076
_cell_length_c   9.11996341
_cell_angle_alpha   89.19242926
_cell_angle_beta   89.77700943
_cell_angle_gamma   120.14798794
_symmetry_Int_Tables_number   1
_chemical_formula_structural   Cr3Co3(SbO8)2
_chemical_formula_sum   'Cr3 Co3 Sb2 O16'
_cell_volume   256.14631827
_cell_formula_units_Z   1
loop_
 _symmetry_equiv_pos_site_id
 _symmetry_equiv_pos_as_xyz
  1  'x, y, z'
loop_
 _atom_site_type_symbol
 _atom_site_label
 _atom_site_symmetry_multiplicity
 _atom_site_fract_x
 _atom_site_fract_y
 _atom_site_fract_z
 _atom_site_occupancy
  Cr  Cr0  1  0.15802695  0.82454721  0.20578723  1
  Cr  Cr1  1  0.16636491  0.33788781  0.22344673  1
  Cr  Cr2  1  0.33175382  0.16787051  0.70932910  1
  Co  Co0  1  0.65310227  0.82414072  0.21096947  1
  Co  Co1  1  0.82833434  0.66047676  0.71456666  1
  Co  Co2  1  0.82877655  0.17176265  0.71457414  1
  Sb  Sb0  1  0.34937171  0.68181954  0.49211842  1
  Sb  Sb1  1  0.66940890  0.32743170  0.98820951  1
  O  O0  1  0.17098321  0.84435228  0.60472541  1
  O  O1  1  0.03948921  0.52285058  0.34288694  1
  O  O2  1  0.32749560  0.65549826  0.10431803  1
  O  O3  1  0.98887642  0.99600690  0.30376943  1
  O  O4  1  0.98776758  0.99331992  0.80397799  1
  O  O5  1  0.17134260  0.33691866  0.60740639  1
  O  O6  1  0.48227275  0.96423050  0.33005043  1
  O  O7  1  0.48367227  0.51808399  0.34089131  1
  O  O8  1  0.33169468  0.16069153  0.10500122  1
  O  O9  1  0.68722064  0.84871542  0.59954090  1
  O  O10  1  0.51821445  0.47995142  0.83593609  1
  O  O11  1  0.51564188  0.03394573  0.83428684  1
  O  O12  1  0.67503053  0.34141075  0.60845008  1
  O  O13  1  0.83313504  0.66583191  0.10369667  1
  O  O14  1  0.96465885  0.48286059  0.83226841  1
  O  O15  1  0.83736584  0.15959568  0.09951461  1
loop_
_geom_bond_atom_site_label_1
_geom_bond_atom_site_label_2
_geom_bond_distance
_geom_bond_site_symmetry_2
Cr0 O13 1.863200 1_455
Cr0 O8 1.879059 1_565
Cr0 O3 1.909781 1_455
Cr0 O2 1.915904 1_555
Cr0 O1 1.933896 1_555
Cr0 O6 1.974918 1_555
Cr1 O3 1.824294 1_445
Cr1 O2 1.888161 1_555
Cr1 O1 1.900585 1_555
Cr1 O7 1.911940 1_555
Cr1 O15 1.990935 1_455
Cr1 O8 2.013320 1_555
Cr2 O5 1.869343 1_555
Cr2 O0 1.872510 1_545
Cr2 O4 1.893455 1_445
Cr2 O12 1.916324 1_555
Cr2 O11 1.941343 1_555
Cr2 O10 1.947577 1_555
Co0 O3 1.869268 1_555
Co0 O6 1.887435 1_555
Co0 O2 1.888211 1_555
Co0 O7 1.902106 1_555
Co0 O15 1.925893 1_565
Co0 O13 1.942033 1_555
Co1 O4 1.845108 1_555
Co1 O12 1.861345 1_555
Co1 O10 1.880479 1_555
Co1 O14 1.883182 1_555
Co1 O9 1.933793 1_555
Co1 O0 1.953991 1_655
Co2 O4 1.851574 1_545
Co2 O12 1.862992 1_555
Co2 O11 1.884010 1_555
Co2 O14 1.890498 1_555
Co2 O9 1.925537 1_545
Co2 O5 1.941580 1_655
O0 Sb0 1.977770 1_555
O1 Sb0 2.059411 1_555
O5 Sb0 1.981502 1_555
O6 Sb0 2.011655 1_555
O7 Sb0 2.025905 1_555
O8 Sb1 1.965634 1_554
O9 Sb0 1.943353 1_555
O10 Sb1 2.038293 1_555
O11 Sb1 2.034161 1_555
O13 Sb1 1.988516 1_554
O14 Sb1 2.022330 1_555
O15 Sb1 1.939580 1_554
