# generated using pymatgen
data_K2CoH4(SeO5)2
_symmetry_space_group_name_H-M   'P 1'
_cell_length_a   6.67313600
_cell_length_b   7.67493337
_cell_length_c   5.59943088
_cell_angle_alpha   96.26478591
_cell_angle_beta   105.29306323
_cell_angle_gamma   111.85789877
_symmetry_Int_Tables_number   1
_chemical_formula_structural   K2CoH4(SeO5)2
_chemical_formula_sum   'K2 Co1 H4 Se2 O10'
_cell_volume   249.75892120
_cell_formula_units_Z   1
loop_
 _symmetry_equiv_pos_site_id
 _symmetry_equiv_pos_as_xyz
  1  'x, y, z'
loop_
 _atom_site_type_symbol
 _atom_site_label
 _atom_site_symmetry_multiplicity
 _atom_site_fract_x
 _atom_site_fract_y
 _atom_site_fract_z
 _atom_site_occupancy
  K  K0  1  0.25745200  0.28280000  0.67897000  1
  K  K1  1  0.74254800  0.71720000  0.32103000  1
  Co  Co0  1  0.00000000  0.00000000  0.00000000  1
  H  H0  1  0.62527400  0.83923000  0.86818500  1
  H  H1  1  0.37472600  0.16077000  0.13181500  1
  H  H2  1  0.68977800  0.13495400  0.98254300  1
  H  H3  1  0.31022200  0.86504600  0.01745700  1
  Se  Se0  1  0.77207800  0.36062800  0.69314500  1
  Se  Se1  1  0.22792200  0.63937200  0.30685500  1
  O  O0  1  0.90946700  0.14359200  0.72892700  1
  O  O1  1  0.09053300  0.85640800  0.27107300  1
  O  O2  1  0.92159200  0.63755800  0.74725700  1
  O  O3  1  0.07840800  0.36244200  0.25274300  1
  O  O4  1  0.66196900  0.39349000  0.87083100  1
  O  O5  1  0.33803100  0.60651000  0.12916900  1
  O  O6  1  0.61644800  0.26239100  0.42064100  1
  O  O7  1  0.38355200  0.73760900  0.57935900  1
  O  O8  1  0.72200800  0.97438600  0.00672300  1
  O  O9  1  0.27799200  0.02561400  0.99327700  1
loop_
_geom_bond_atom_site_label_1
_geom_bond_atom_site_label_2
_geom_bond_distance
_geom_bond_site_symmetry_2
K0 O0 2.274343 1_455
K0 O4 2.392919 1_555
K0 O3 2.618225 1_555
K1 O1 2.274343 1_655
K1 O5 2.392919 1_555
K1 O2 2.618225 1_555
Co0 O9 1.802300 1_554
Co0 O8 1.802300 1_445
Co0 O1 2.064100 1_545
Co0 O0 2.064100 1_454
H0 O8 1.075225 1_556
H1 O9 1.075225 1_554
H2 O8 1.342268 1_546
H3 O9 1.342268 1_564
O0 Se0 2.183681 1_555
O1 Se1 2.183681 1_555
O2 Se0 1.930191 1_555
O3 Se1 1.930191 1_555
O4 Se0 1.436062 1_555
O5 Se1 1.436062 1_555
O6 Se0 1.518299 1_555
O7 Se1 1.518299 1_555
