# generated using pymatgen
data_LiCu4(PO4)3
_symmetry_space_group_name_H-M   'P 1'
_cell_length_a   8.65512423
_cell_length_b   8.65512423
_cell_length_c   6.38726496
_cell_angle_alpha   71.36375963
_cell_angle_beta   108.63624037
_cell_angle_gamma   87.30430278
_symmetry_Int_Tables_number   1
_chemical_formula_structural   LiCu4(PO4)3
_chemical_formula_sum   'Li2 Cu8 P6 O24'
_cell_volume   423.64774130
_cell_formula_units_Z   2
loop_
 _symmetry_equiv_pos_site_id
 _symmetry_equiv_pos_as_xyz
  1  'x, y, z'
loop_
 _atom_site_type_symbol
 _atom_site_label
 _atom_site_symmetry_multiplicity
 _atom_site_fract_x
 _atom_site_fract_y
 _atom_site_fract_z
 _atom_site_occupancy
  Li  Li0  1  0.02366400  0.02407500  0.74923500  1
  Li  Li1  1  0.97592500  0.97633600  0.24923500  1
  Cu  Cu0  1  0.06162100  0.62193300  0.63823200  1
  Cu  Cu1  1  0.37806700  0.93837900  0.13823200  1
  Cu  Cu2  1  0.75050000  0.75016000  0.75266500  1
  Cu  Cu3  1  0.49857500  0.50450200  0.50502600  1
  Cu  Cu4  1  0.24984000  0.24950000  0.25266500  1
  Cu  Cu5  1  0.49549800  0.50142500  0.00502600  1
  Cu  Cu6  1  0.62082400  0.06567600  0.85862500  1
  Cu  Cu7  1  0.93432400  0.37917600  0.35862500  1
  P  P0  1  0.33639200  0.87315500  0.63931900  1
  P  P1  1  0.12684500  0.66360800  0.13931900  1
  P  P2  1  0.29489100  0.29750900  0.75121400  1
  P  P3  1  0.70249100  0.70510900  0.25121400  1
  P  P4  1  0.87182900  0.33857000  0.86144900  1
  P  P5  1  0.66143000  0.12817100  0.36144900  1
  O  O0  1  0.39581800  0.96187700  0.82055400  1
  O  O1  1  0.15505400  0.84667900  0.60546400  1
  O  O2  1  0.03812300  0.60418200  0.32055400  1
  O  O3  1  0.15332100  0.84494600  0.10546400  1
  O  O4  1  0.66287900  0.00326500  0.60000800  1
  O  O5  1  0.46124800  0.71130400  0.72002000  1
  O  O6  1  0.27878600  0.47278500  0.77577800  1
  O  O7  1  0.99673500  0.33712100  0.10000800  1
  O  O8  1  0.26622400  0.17979100  0.97269300  1
  O  O9  1  0.17960000  0.26748500  0.52977300  1
  O  O10  1  0.28869600  0.53875200  0.22002000  1
  O  O11  1  0.52721500  0.72121400  0.27577800  1
  O  O12  1  0.47091800  0.28586800  0.72930800  1
  O  O13  1  0.71274200  0.46594900  0.78462500  1
  O  O14  1  0.82020900  0.73377600  0.47269300  1
  O  O15  1  0.73251500  0.82040000  0.02977300  1
  O  O16  1  0.00374800  0.66331100  0.90092200  1
  O  O17  1  0.71413200  0.52908200  0.22930800  1
  O  O18  1  0.53405100  0.28725800  0.28462500  1
  O  O19  1  0.33668900  0.99625200  0.40092200  1
  O  O20  1  0.84237700  0.15796100  0.89560100  1
  O  O21  1  0.95919500  0.39496800  0.67871100  1
  O  O22  1  0.84203900  0.15762300  0.39560100  1
  O  O23  1  0.60503200  0.04080500  0.17871100  1
loop_
_geom_bond_atom_site_label_1
_geom_bond_atom_site_label_2
_geom_bond_distance
_geom_bond_site_symmetry_2
Li0 O3 2.188609 1_546
Li0 O22 2.190954 1_455
Li0 O1 2.428624 1_545
Li0 O20 2.477424 1_455
Li1 O1 2.188609 1_655
Li1 O20 2.190954 1_564
Li1 O3 2.428624 1_655
Li1 O22 2.477424 1_565
Cu0 O6 1.990646 1_555
Cu0 O16 2.024529 1_555
Cu0 O2 2.029931 1_555
Cu0 O14 2.040697 1_455
Cu0 O1 2.116014 1_555
Cu0 O21 2.167336 1_455
Cu1 O11 1.990646 1_555
Cu1 O19 2.024529 1_555
Cu1 O0 2.029931 1_554
Cu1 O8 2.040697 1_564
Cu1 O3 2.116014 1_555
Cu1 O23 2.167336 1_565
Cu2 O16 2.080787 1_655
Cu2 O4 2.081058 1_565
Cu2 O15 2.093197 1_556
Cu2 O14 2.103703 1_555
Cu2 O13 2.448838 1_555
Cu2 O5 2.492897 1_555
Cu3 O13 2.044975 1_555
Cu3 O10 2.047571 1_555
Cu3 O12 2.054155 1_555
Cu3 O11 2.060109 1_555
Cu3 O5 2.644599 1_555
Cu4 O19 2.080787 1_545
Cu4 O7 2.081058 1_455
Cu4 O9 2.093197 1_555
Cu4 O8 2.103703 1_554
Cu4 O18 2.448838 1_555
Cu4 O10 2.492897 1_555
Cu5 O18 2.044975 1_555
Cu5 O5 2.047571 1_554
Cu5 O17 2.054155 1_555
Cu5 O6 2.060109 1_554
Cu5 O10 2.644599 1_555
Cu6 O12 2.018438 1_555
Cu6 O4 2.022119 1_555
Cu6 O23 2.035923 1_556
Cu6 O15 2.069924 1_546
Cu6 O20 2.084711 1_555
Cu6 O0 2.158785 1_545
Cu7 O17 2.018438 1_555
Cu7 O7 2.022119 1_555
Cu7 O21 2.035923 1_555
Cu7 O9 2.069924 1_655
Cu7 O22 2.084711 1_555
Cu7 O2 2.158785 1_655
O0 P0 1.555310 1_555
O1 P0 1.552804 1_555
O2 P1 1.555310 1_555
O3 P1 1.552804 1_555
O4 P5 1.557040 1_555
O5 P0 1.560754 1_555
O6 P2 1.578497 1_555
O7 P4 1.557040 1_554
O8 P2 1.558138 1_555
O9 P2 1.555971 1_555
O10 P1 1.560754 1_555
O11 P3 1.578497 1_555
O12 P2 1.575342 1_555
O13 P4 1.559420 1_555
O14 P3 1.558138 1_555
O15 P3 1.555971 1_555
O16 P1 1.555526 1_556
O17 P3 1.575342 1_555
O18 P5 1.559420 1_555
O19 P0 1.555526 1_555
O20 P4 1.552811 1_555
O21 P4 1.551473 1_555
O22 P5 1.552811 1_555
O23 P5 1.551473 1_555
