# generated using pymatgen
data_Fe2OF3
_symmetry_space_group_name_H-M   'P 1'
_cell_length_a   4.93965200
_cell_length_b   6.05150100
_cell_length_c   10.52828000
_cell_angle_alpha   90.00000000
_cell_angle_beta   90.00000000
_cell_angle_gamma   90.00000000
_symmetry_Int_Tables_number   1
_chemical_formula_structural   Fe2OF3
_chemical_formula_sum   'Fe8 O4 F12'
_cell_volume   314.71459918
_cell_formula_units_Z   4
loop_
 _symmetry_equiv_pos_site_id
 _symmetry_equiv_pos_as_xyz
  1  'x, y, z'
loop_
 _atom_site_type_symbol
 _atom_site_label
 _atom_site_symmetry_multiplicity
 _atom_site_fract_x
 _atom_site_fract_y
 _atom_site_fract_z
 _atom_site_occupancy
  Fe  Fe0  1  0.50000000  0.00000000  0.00000000  1
  Fe  Fe1  1  0.50000000  0.50000000  0.00000000  1
  Fe  Fe2  1  0.48753400  0.25000000  0.73972000  1
  Fe  Fe3  1  0.01246600  0.25000000  0.23972000  1
  Fe  Fe4  1  0.00000000  0.00000000  0.50000000  1
  Fe  Fe5  1  0.00000000  0.50000000  0.50000000  1
  Fe  Fe6  1  0.98753400  0.75000000  0.76028000  1
  Fe  Fe7  1  0.51246600  0.75000000  0.26028000  1
  O  O0  1  0.33114100  0.25000000  0.92401800  1
  O  O1  1  0.16885900  0.25000000  0.42401800  1
  O  O2  1  0.83114100  0.75000000  0.57598200  1
  O  O3  1  0.66885900  0.75000000  0.07598200  1
  F  F0  1  0.23915300  0.75000000  0.41538200  1
  F  F1  1  0.23320300  0.00731300  0.66342600  1
  F  F2  1  0.23320300  0.49268700  0.66342600  1
  F  F3  1  0.26679700  0.49268700  0.16342600  1
  F  F4  1  0.26679700  0.00731300  0.16342600  1
  F  F5  1  0.26084700  0.75000000  0.91538200  1
  F  F6  1  0.73915300  0.25000000  0.08461800  1
  F  F7  1  0.73320300  0.50731300  0.83657400  1
  F  F8  1  0.73320300  0.99268700  0.83657400  1
  F  F9  1  0.76679700  0.99268700  0.33657400  1
  F  F10  1  0.76679700  0.50731300  0.33657400  1
  F  F11  1  0.76084700  0.25000000  0.58461800  1
loop_
_geom_bond_atom_site_label_1
_geom_bond_atom_site_label_2
_geom_bond_distance
_geom_bond_site_symmetry_2
Fe0 O0 1.903801 1_554
Fe0 O3 1.903801 1_545
Fe1 O3 1.903801 1_555
Fe1 O0 1.903801 1_554
Fe2 O0 2.088473 1_555
Fe3 O1 2.088473 1_555
Fe4 O2 1.903801 1_445
Fe4 O1 1.903801 1_555
Fe5 O1 1.903801 1_555
Fe5 O2 1.903801 1_455
Fe6 O2 2.088473 1_555
Fe7 O3 2.088473 1_555
F0 Fe5 2.116131 1_555
F0 Fe4 2.116131 1_565
F0 Fe7 2.118783 1_555
F1 Fe4 2.071080 1_555
F1 Fe2 2.092930 1_555
F1 Fe6 2.221955 1_445
F2 Fe5 2.071080 1_555
F2 Fe2 2.092930 1_555
F2 Fe6 2.221955 1_455
F3 Fe1 2.071080 1_555
F3 Fe3 2.092930 1_555
F3 Fe7 2.221955 1_555
F4 Fe0 2.071080 1_555
F4 Fe3 2.092930 1_555
F4 Fe7 2.221955 1_545
F5 Fe1 2.116131 1_556
F5 Fe0 2.116131 1_566
F5 Fe6 2.118783 1_455
F6 Fe1 2.116131 1_555
F6 Fe0 2.116131 1_555
F6 Fe3 2.118783 1_655
F7 Fe1 2.071080 1_556
F7 Fe6 2.092930 1_555
F7 Fe2 2.221955 1_555
F8 Fe0 2.071080 1_566
F8 Fe6 2.092930 1_555
F8 Fe2 2.221955 1_565
F9 Fe4 2.071080 1_665
F9 Fe7 2.092930 1_555
F9 Fe3 2.221955 1_665
F10 Fe5 2.071080 1_655
F10 Fe7 2.092930 1_555
F10 Fe3 2.221955 1_655
F11 Fe4 2.116131 1_655
F11 Fe5 2.116131 1_655
F11 Fe2 2.118783 1_555
