# generated using pymatgen
data_Mn3FeSn2(PO4)6
_symmetry_space_group_name_H-M   'P 1'
_cell_length_a   8.58728093
_cell_length_b   8.58728093
_cell_length_c   8.58728118
_cell_angle_alpha   61.73452849
_cell_angle_beta   61.73452849
_cell_angle_gamma   61.73452313
_symmetry_Int_Tables_number   1
_chemical_formula_structural   Mn3FeSn2(PO4)6
_chemical_formula_sum   'Mn3 Fe1 Sn2 P6 O24'
_cell_volume   465.17219048
_cell_formula_units_Z   1
loop_
 _symmetry_equiv_pos_site_id
 _symmetry_equiv_pos_as_xyz
  1  'x, y, z'
loop_
 _atom_site_type_symbol
 _atom_site_label
 _atom_site_symmetry_multiplicity
 _atom_site_fract_x
 _atom_site_fract_y
 _atom_site_fract_z
 _atom_site_occupancy
  Mn  Mn0  1  0.84763700  0.84763700  0.84763700  1
  Mn  Mn1  1  0.65326200  0.65326200  0.65326200  1
  Mn  Mn2  1  0.34886000  0.34886000  0.34886000  1
  Fe  Fe0  1  0.15060100  0.15060100  0.15060100  1
  Sn  Sn0  1  0.99924600  0.99924600  0.99924600  1
  Sn  Sn1  1  0.49988500  0.49988500  0.49988500  1
  P  P0  1  0.95053600  0.24908900  0.54958900  1
  P  P1  1  0.54958900  0.95053600  0.24908900  1
  P  P2  1  0.75102500  0.44455400  0.05505700  1
  P  P3  1  0.44455400  0.05505700  0.75102500  1
  P  P4  1  0.05505700  0.75102500  0.44455400  1
  P  P5  1  0.24908900  0.54958900  0.95053600  1
  O  O0  1  0.90913800  0.68003800  0.47645400  1
  O  O1  1  0.68003800  0.47645400  0.90913800  1
  O  O2  1  0.93043000  0.09688400  0.75227000  1
  O  O3  1  0.47645400  0.90913800  0.68003800  1
  O  O4  1  0.00266500  0.17158400  0.39760000  1
  O  O5  1  0.74818300  0.39726200  0.56258000  1
  O  O6  1  0.75227000  0.93043000  0.09688400  1
  O  O7  1  0.56258000  0.74818300  0.39726200  1
  O  O8  1  0.82183100  0.59434500  0.01700100  1
  O  O9  1  0.39726200  0.56258000  0.74818300  1
  O  O10  1  0.90735500  0.24195600  0.07509300  1
  O  O11  1  0.59434500  0.01700100  0.82183100  1
  O  O12  1  0.39760000  0.00266500  0.17158400  1
  O  O13  1  0.09688400  0.75227000  0.93043000  1
  O  O14  1  0.60173100  0.42260400  0.25886900  1
  O  O15  1  0.17158400  0.39760000  0.00266500  1
  O  O16  1  0.42260400  0.25886900  0.60173100  1
  O  O17  1  0.24195600  0.07509300  0.90735500  1
  O  O18  1  0.25886900  0.60173100  0.42260400  1
  O  O19  1  0.01700100  0.82183100  0.59434500  1
  O  O20  1  0.51588600  0.09410900  0.32479100  1
  O  O21  1  0.07509300  0.90735500  0.24195600  1
  O  O22  1  0.32479100  0.51588600  0.09410900  1
  O  O23  1  0.09410900  0.32479100  0.51588600  1
loop_
_geom_bond_atom_site_label_1
_geom_bond_atom_site_label_2
_geom_bond_distance
_geom_bond_site_symmetry_2
Mn0 O11 2.012584 1_565
Mn0 O8 2.012585 1_556
Mn0 O19 2.012585 1_655
Mn0 O13 2.233142 1_655
Mn0 O6 2.233142 1_556
Mn0 O2 2.233142 1_565
Mn1 O3 2.043111 1_555
Mn1 O0 2.043112 1_555
Mn1 O1 2.043112 1_555
Mn1 O5 2.329497 1_555
Mn1 O7 2.329497 1_555
Mn1 O9 2.329497 1_555
Mn2 O20 2.015270 1_555
Mn2 O23 2.015270 1_555
Mn2 O22 2.015270 1_555
Mn2 O18 2.227797 1_555
Mn2 O16 2.227797 1_555
Mn2 O14 2.227797 1_555
Fe0 O12 1.933472 1_555
Fe0 O15 1.933472 1_555
Fe0 O4 1.933472 1_555
Fe0 O10 2.155933 1_455
Fe0 O17 2.155933 1_554
Fe0 O21 2.155933 1_545
O0 P4 1.502315 1_655
O1 P2 1.502315 1_556
O2 P0 1.594355 1_555
O2 Sn0 2.140979 1_545
O3 P3 1.502315 1_565
O4 P0 1.527750 1_455
O5 P0 1.583568 1_555
O5 Sn1 2.114471 1_555
O6 P1 1.594355 1_555
O6 Sn0 2.140979 1_554
O7 P1 1.583568 1_555
O7 Sn1 2.114471 1_555
O8 P2 1.511782 1_555
O9 P5 1.583568 1_555
O9 Sn1 2.114471 1_555
O10 P2 1.606792 1_555
O10 Sn0 2.152235 1_544
O11 P3 1.511782 1_555
O12 P1 1.527750 1_545
O13 P5 1.594355 1_555
O13 Sn0 2.140979 1_455
O14 P2 1.591724 1_555
O14 Sn1 2.127354 1_555
O15 P5 1.527750 1_554
O16 P3 1.591724 1_555
O16 Sn1 2.127354 1_555
O17 P3 1.606792 1_555
O17 Sn0 2.152235 1_445
O18 P4 1.591724 1_555
O18 Sn1 2.127354 1_555
O19 P4 1.511782 1_555
O20 P1 1.506437 1_545
O21 P4 1.606792 1_555
O21 Sn0 2.152235 1_454
O22 P5 1.506437 1_554
O23 P0 1.506437 1_455
