# generated using pymatgen
data_Li2SbPCO7
_symmetry_space_group_name_H-M   'P 1'
_cell_length_a   6.98902900
_cell_length_b   5.14644200
_cell_length_c   8.84518279
_cell_angle_alpha   83.14201381
_cell_angle_beta   90.00000000
_cell_angle_gamma   90.00000000
_symmetry_Int_Tables_number   1
_chemical_formula_structural   Li2SbPCO7
_chemical_formula_sum   'Li4 Sb2 P2 C2 O14'
_cell_volume   315.87282483
_cell_formula_units_Z   2
loop_
 _symmetry_equiv_pos_site_id
 _symmetry_equiv_pos_as_xyz
  1  'x, y, z'
loop_
 _atom_site_type_symbol
 _atom_site_label
 _atom_site_symmetry_multiplicity
 _atom_site_fract_x
 _atom_site_fract_y
 _atom_site_fract_z
 _atom_site_occupancy
  Li  Li0  1  0.25128600  0.76919800  0.09652000  1
  Li  Li1  1  0.06622600  0.24584500  0.27658200  1
  Li  Li2  1  0.56622600  0.75415500  0.72341800  1
  Li  Li3  1  0.75128600  0.23080200  0.90348000  1
  Sb  Sb0  1  0.73313300  0.79015100  0.32624300  1
  Sb  Sb1  1  0.23313300  0.20984900  0.67375700  1
  P  P0  1  0.24871300  0.71621800  0.40528200  1
  P  P1  1  0.74871300  0.28378200  0.59471800  1
  C  C0  1  0.74416600  0.68477700  0.03141500  1
  C  C1  1  0.24416600  0.31522300  0.96858500  1
  O  O0  1  0.73632400  0.93054000  0.05817500  1
  O  O1  1  0.21195100  0.38720900  0.09890200  1
  O  O2  1  0.78249500  0.51034300  0.14911300  1
  O  O3  1  0.08446400  0.85981600  0.31107900  1
  O  O4  1  0.42620600  0.76119800  0.29508400  1
  O  O5  1  0.78565100  0.19161700  0.43778100  1
  O  O6  1  0.20137100  0.41657600  0.43183900  1
  O  O7  1  0.70137100  0.58342400  0.56816100  1
  O  O8  1  0.28565100  0.80838300  0.56221900  1
  O  O9  1  0.92620600  0.23880200  0.70491600  1
  O  O10  1  0.58446400  0.14018400  0.68892100  1
  O  O11  1  0.28249500  0.48965700  0.85088700  1
  O  O12  1  0.71195100  0.61279100  0.90109800  1
  O  O13  1  0.23632400  0.06946000  0.94182500  1
loop_
_geom_bond_atom_site_label_1
_geom_bond_atom_site_label_2
_geom_bond_distance
_geom_bond_site_symmetry_2
Li0 O13 1.940651 1_564
Li0 O1 1.982632 1_555
Li0 O4 2.136281 1_555
Li0 O3 2.321624 1_555
Li1 O1 1.939971 1_555
Li1 O6 1.959141 1_555
Li1 O3 1.977742 1_545
Li1 O5 2.420986 1_455
Li1 O2 2.586491 1_455
Li2 O12 1.939971 1_555
Li2 O7 1.959141 1_555
Li2 O10 1.977742 1_565
Li2 O8 2.420986 1_555
Li2 O11 2.586491 1_555
Li3 O0 1.940651 1_546
Li3 O12 1.982632 1_555
Li3 O9 2.136281 1_555
Li3 O10 2.321624 1_555
C0 O12 1.272239 1_554
C0 O0 1.315392 1_555
C0 O2 1.318433 1_555
C1 O1 1.272239 1_556
C1 O13 1.315392 1_555
C1 O11 1.318433 1_555
O0 Sb0 2.394900 1_555
O2 Sb0 2.277316 1_555
O3 P0 1.552788 1_555
O3 Sb0 2.482810 1_455
O4 P0 1.577540 1_555
O4 Sb0 2.170142 1_555
O5 P1 1.541361 1_555
O5 Sb0 2.421511 1_545
O6 P0 1.567224 1_555
O6 Sb1 2.283917 1_555
O7 P1 1.567224 1_555
O7 Sb0 2.283917 1_555
O8 P0 1.541361 1_555
O8 Sb1 2.421511 1_565
O9 P1 1.577540 1_555
O9 Sb1 2.170142 1_655
O10 P1 1.552788 1_555
O10 Sb1 2.482810 1_555
O11 Sb1 2.277316 1_555
O13 Sb1 2.394900 1_555
