# generated using pymatgen
data_CuH22C8N10O
_symmetry_space_group_name_H-M   'P 1'
_cell_length_a   15.94312172
_cell_length_b   15.94312172
_cell_length_c   13.97776242
_cell_angle_alpha   71.43083420
_cell_angle_beta   108.56916580
_cell_angle_gamma   154.00528191
_symmetry_Int_Tables_number   1
_chemical_formula_structural   CuH22C8N10O
_chemical_formula_sum   'Cu4 H88 C32 N40 O4'
_cell_volume   1471.68713039
_cell_formula_units_Z   4
loop_
 _symmetry_equiv_pos_site_id
 _symmetry_equiv_pos_as_xyz
  1  'x, y, z'
loop_
 _atom_site_type_symbol
 _atom_site_label
 _atom_site_symmetry_multiplicity
 _atom_site_fract_x
 _atom_site_fract_y
 _atom_site_fract_z
 _atom_site_occupancy
  Cu  Cu0  1  0.00000000  0.50000000  0.50000000  1
  Cu  Cu1  1  0.50000000  0.00000000  0.00000000  1
  Cu  Cu2  1  0.20568100  0.20568100  0.75000000  1
  Cu  Cu3  1  0.79431900  0.79431900  0.25000000  1
  H  H0  1  0.17857200  0.53213500  0.46579500  1
  H  H1  1  0.53213500  0.17857200  0.03420500  1
  H  H2  1  0.82142800  0.46786500  0.53420500  1
  H  H3  1  0.46786500  0.82142800  0.96579500  1
  H  H4  1  0.06852800  0.32965800  0.40519900  1
  H  H5  1  0.32965800  0.06852800  0.09480100  1
  H  H6  1  0.93147200  0.67034200  0.59480100  1
  H  H7  1  0.67034200  0.93147200  0.90519900  1
  H  H8  1  0.87158600  0.09509400  0.44910900  1
  H  H9  1  0.09509400  0.87158600  0.05089100  1
  H  H10  1  0.12841400  0.90490600  0.55089100  1
  H  H11  1  0.90490600  0.12841400  0.94910900  1
  H  H12  1  0.70418500  0.21723600  0.60709100  1
  H  H13  1  0.21723600  0.70418500  0.89290900  1
  H  H14  1  0.29581500  0.78276400  0.39290900  1
  H  H15  1  0.78276400  0.29581500  0.10709100  1
  H  H16  1  0.08499600  0.25742300  0.64897400  1
  H  H17  1  0.25742300  0.08499600  0.85102600  1
  H  H18  1  0.91500400  0.74257700  0.35102600  1
  H  H19  1  0.74257700  0.91500400  0.14897400  1
  H  H20  1  0.07038000  0.37754000  0.79395100  1
  H  H21  1  0.37754000  0.07038000  0.70604900  1
  H  H22  1  0.92962000  0.62246000  0.20604900  1
  H  H23  1  0.62246000  0.92962000  0.29395100  1
  H  H24  1  0.03209000  0.33503300  0.67442600  1
  H  H25  1  0.33503300  0.03209000  0.82557400  1
  H  H26  1  0.96791000  0.66496700  0.32557400  1
  H  H27  1  0.66496700  0.96791000  0.17442600  1
  H  H28  1  0.24272600  0.16807900  0.94338700  1
  H  H29  1  0.16807900  0.24272600  0.55661300  1
  H  H30  1  0.75727400  0.83192100  0.05661300  1
  H  H31  1  0.83192100  0.75727400  0.44338700  1
  H  H32  1  0.54272300  0.86106100  0.46552700  1
  H  H33  1  0.86106100  0.54272300  0.03447300  1
  H  H34  1  0.45727700  0.13893900  0.53447300  1
  H  H35  1  0.13893900  0.45727700  0.96552700  1
  H  H36  1  0.49271100  0.74174200  0.41694200  1
  H  H37  1  0.74174200  0.49271100  0.08305800  1
  H  H38  1  0.50728900  0.25825800  0.58305800  1
  H  H39  1  0.25825800  0.50728900  0.91694200  1
  H  H40  1  0.64589600  0.88586500  0.69173700  1
  H  H41  1  0.88586500  0.64589600  0.80826300  1
  H  H42  1  0.35410400  0.11413500  0.30826300  1
  H  H43  1  0.11413500  0.35410400  0.19173700  1
  H  H44  1  0.44749300  0.73190800  0.75317000  1
  H  H45  1  0.73190800  0.44749300  0.74683000  1
  H  H46  1  0.55250700  0.26809200  0.24683000  1
  H  H47  1  0.26809200  0.55250700  0.25317000  1
  H  H48  1  0.41077900  0.69494900  0.62767800  1
  H  H49  1  0.69494900  0.41077900  0.87232200  1
  H  H50  1  0.58922100  0.30505100  0.37232200  1
  H  H51  1  0.30505100  0.58922100  0.12767800  1
  H  H52  1  0.41697100  0.93455500  0.63538700  1
  H  H53  1  0.93455500  0.41697100  0.86461300  1
  H  H54  1  0.58302900  0.06544500  0.36461300  1
  H  H55  1  0.06544500  0.58302900  0.13538700  1
  H  H56  1  0.33383500  0.76400400  0.72533400  1
  H  H57  1  0.76400400  0.33383500  0.77466600  1
  H  H58  1  0.66616500  0.23599600  0.27466600  1
  H  H59  1  0.23599600  0.66616500  0.22533400  1
  H  H60  1  0.55635000  0.00833800  0.75324000  1
  H  H61  1  0.00833800  0.55635000  0.74676000  1
  H  H62  1  0.44365000  0.99166200  0.24676000  1
  H  H63  1  0.99166200  0.44365000  0.25324000  1
  H  H64  1  0.14824300  0.30685400  0.04943800  1
  H  H65  1  0.30685400  0.14824300  0.45056200  1
  H  H66  1  0.85175700  0.69314600  0.95056200  1
  H  H67  1  0.69314600  0.85175700  0.54943800  1
  H  H68  1  0.16120100  0.22799800  0.16311200  1
  H  H69  1  0.22799800  0.16120100  0.33688800  1
  H  H70  1  0.83879900  0.77200200  0.83688800  1
  H  H71  1  0.77200200  0.83879900  0.66311200  1
  H  H72  1  0.37534100  0.47698600  0.11857200  1
  H  H73  1  0.47698600  0.37534100  0.38142800  1
  H  H74  1  0.62465900  0.52301400  0.88142800  1
  H  H75  1  0.52301400  0.62465900  0.61857200  1
  H  H76  1  0.42738700  0.32228100  0.06338600  1
  H  H77  1  0.32228100  0.42738700  0.43661400  1
  H  H78  1  0.57261300  0.67771900  0.93661400  1
  H  H79  1  0.67771900  0.57261300  0.56338600  1
  H  H80  1  0.39736700  0.32647700  0.17132900  1
  H  H81  1  0.32647700  0.39736700  0.32867100  1
  H  H82  1  0.60263300  0.67352300  0.82867100  1
  H  H83  1  0.67352300  0.60263300  0.67132900  1
  H  H84  1  0.20044100  0.10207900  0.12002600  1
  H  H85  1  0.10207900  0.20044100  0.37997400  1
  H  H86  1  0.79955900  0.89792100  0.87997400  1
  H  H87  1  0.89792100  0.79955900  0.62002600  1
  C  C0  1  0.92433400  0.25172400  0.49486100  1
  C  C1  1  0.25172400  0.92433400  0.00513900  1
  C  C2  1  0.07566600  0.74827600  0.50513900  1
  C  C3  1  0.74827600  0.07566600  0.99486100  1
  C  C4  1  0.69478100  0.09415900  0.58142800  1
  C  C5  1  0.09415900  0.69478100  0.91857200  1
  C  C6  1  0.30521900  0.90584100  0.41857200  1
  C  C7  1  0.90584100  0.30521900  0.08142800  1
  C  C8  1  0.51253000  0.80532800  0.68077800  1
  C  C9  1  0.80532800  0.51253000  0.81922200  1
  C  C10  1  0.48747000  0.19467200  0.31922200  1
  C  C11  1  0.19467200  0.48747000  0.18077800  1
  C  C12  1  0.46243100  0.91177400  0.69204700  1
  C  C13  1  0.91177400  0.46243100  0.80795300  1
  C  C14  1  0.53756900  0.08822600  0.30795300  1
  C  C15  1  0.08822600  0.53756900  0.19204700  1
  C  C16  1  0.11304300  0.29147600  0.78615200  1
  C  C17  1  0.29147600  0.11304300  0.71384800  1
  C  C18  1  0.88695700  0.70852400  0.21384800  1
  C  C19  1  0.70852400  0.88695700  0.28615200  1
  C  C20  1  0.21325000  0.26678700  0.93703300  1
  C  C21  1  0.26678700  0.21325000  0.56296700  1
  C  C22  1  0.78675000  0.73321300  0.06296700  1
  C  C23  1  0.73321300  0.78675000  0.43703300  1
  C  C24  1  0.23622600  0.32878300  0.09522000  1
  C  C25  1  0.32878300  0.23622600  0.40478000  1
  C  C26  1  0.76377400  0.67121700  0.90478000  1
  C  C27  1  0.67121700  0.76377400  0.59522000  1
  C  C28  1  0.32328000  0.25669200  0.10076000  1
  C  C29  1  0.25669200  0.32328000  0.39924000  1
  C  C30  1  0.67672000  0.74330800  0.89924000  1
  C  C31  1  0.74330800  0.67672000  0.60076000  1
  N  N0  1  0.04983600  0.42829100  0.49049600  1
  N  N1  1  0.42829100  0.04983600  0.00950400  1
  N  N2  1  0.95016400  0.57170900  0.50950400  1
  N  N3  1  0.57170900  0.95016400  0.99049600  1
  N  N4  1  0.97910100  0.23142000  0.46188400  1
  N  N5  1  0.23142000  0.97910100  0.03811600  1
  N  N6  1  0.02089900  0.76858000  0.53811600  1
  N  N7  1  0.76858000  0.02089900  0.96188400  1
  N  N8  1  0.75249300  0.08830600  0.53429700  1
  N  N9  1  0.08830600  0.75249300  0.96570300  1
  N  N10  1  0.24750700  0.91169400  0.46570300  1
  N  N11  1  0.91169400  0.24750700  0.03429700  1
  N  N12  1  0.76386700  0.23687400  0.56587100  1
  N  N13  1  0.23687400  0.76386700  0.93412900  1
  N  N14  1  0.23613300  0.76312600  0.43412900  1
  N  N15  1  0.76312600  0.23613300  0.06587100  1
  N  N16  1  0.55339600  0.93606900  0.64577700  1
  N  N17  1  0.93606900  0.55339600  0.85422300  1
  N  N18  1  0.44660400  0.06393100  0.35422300  1
  N  N19  1  0.06393100  0.44660400  0.14577700  1
  N  N20  1  0.12895000  0.26071300  0.72168600  1
  N  N21  1  0.26071300  0.12895000  0.77831400  1
  N  N22  1  0.87105000  0.73928700  0.27831400  1
  N  N23  1  0.73928700  0.87105000  0.22168600  1
  N  N24  1  0.03606100  0.30752700  0.75026100  1
  N  N25  1  0.30752700  0.03606100  0.74973900  1
  N  N26  1  0.96393900  0.69247300  0.24973900  1
  N  N27  1  0.69247300  0.96393900  0.25026100  1
  N  N28  1  0.16246100  0.30752000  0.88721800  1
  N  N29  1  0.30752000  0.16246100  0.61278200  1
  N  N30  1  0.83753900  0.69248000  0.11278200  1
  N  N31  1  0.69248000  0.83753900  0.38721800  1
  N  N32  1  0.21726600  0.20730600  0.89363100  1
  N  N33  1  0.20730600  0.21726600  0.60636900  1
  N  N34  1  0.78273400  0.79269400  0.10636900  1
  N  N35  1  0.79269400  0.78273400  0.39363100  1
  N  N36  1  0.26261400  0.29122500  0.03924500  1
  N  N37  1  0.29122500  0.26261400  0.46075500  1
  N  N38  1  0.73738600  0.70877500  0.96075500  1
  N  N39  1  0.70877500  0.73738600  0.53924500  1
  O  O0  1  0.44457800  0.75604000  0.41917000  1
  O  O1  1  0.75604000  0.44457800  0.08083000  1
  O  O2  1  0.55542200  0.24396000  0.58083000  1
  O  O3  1  0.24396000  0.55542200  0.91917000  1
loop_
_geom_bond_atom_site_label_1
_geom_bond_atom_site_label_2
_geom_bond_distance
_geom_bond_site_symmetry_2
Cu0 N2 1.937242 1_455
Cu0 N0 1.937242 1_555
Cu0 N14 1.993995 1_555
Cu0 N12 1.993995 1_455
Cu1 N3 1.937242 1_544
Cu1 N1 1.937242 1_555
Cu1 N15 1.993995 1_555
Cu1 N13 1.993995 1_544
Cu2 N20 1.955236 1_555
Cu2 N21 1.955236 1_555
Cu2 N33 1.963099 1_555
Cu2 N32 1.963099 1_555
Cu3 N23 1.955236 1_555
Cu3 N22 1.955236 1_555
Cu3 N35 1.963099 1_555
Cu3 N34 1.963099 1_555
H0 N0 1.025426 1_555
H1 N1 1.025426 1_555
H2 N2 1.025426 1_555
H3 N3 1.025426 1_555
H4 N4 1.014122 1_455
H5 N5 1.014122 1_545
H6 N6 1.014122 1_655
H7 N7 1.014122 1_565
H8 N4 1.024167 1_555
H9 N5 1.024167 1_555
H10 N6 1.024167 1_555
H11 N7 1.024167 1_555
H12 N12 1.016909 1_555
H13 N13 1.016909 1_555
H14 N14 1.016909 1_555
H15 N15 1.016909 1_555
H16 N20 1.020321 1_555
H17 N21 1.020321 1_555
H18 N22 1.020321 1_555
H19 N23 1.020321 1_555
H20 N24 1.020636 1_555
H21 N25 1.020636 1_555
H22 N26 1.020636 1_555
H23 N27 1.020636 1_555
H24 N24 1.015399 1_555
H25 N25 1.015399 1_555
H26 N26 1.015399 1_555
H27 N27 1.015399 1_555
H28 N32 1.019369 1_555
H29 N33 1.019369 1_555
H30 N34 1.019369 1_555
H31 N35 1.019369 1_555
H32 O0 1.003601 1_555
H33 O1 1.003601 1_555
H34 O2 1.003601 1_555
H35 O3 1.003601 1_555
H36 O0 0.987942 1_555
H37 O1 0.987942 1_555
H38 O2 0.987942 1_555
H39 O3 0.987942 1_555
C0 N0 1.332121 1_655
C0 N8 1.346573 1_555
C0 N4 1.392530 1_555
C1 N1 1.332121 1_565
C1 N9 1.346573 1_554
C1 N5 1.392530 1_555
C2 N2 1.332121 1_455
C2 N10 1.346573 1_555
C2 N6 1.392530 1_555
C3 N3 1.332121 1_545
C3 N11 1.346573 1_556
C3 N7 1.392530 1_555
C4 N12 1.330326 1_555
C4 N8 1.367066 1_555
C4 N16 1.370001 1_545
C5 N13 1.330326 1_555
C5 N9 1.367066 1_555
C5 N17 1.370001 1_455
C6 N14 1.330326 1_555
C6 N10 1.367066 1_555
C6 N18 1.370001 1_565
C7 N15 1.330326 1_555
C7 N11 1.367066 1_555
C7 N19 1.370001 1_655
C8 H44 1.095994 1_555
C8 H40 1.096854 1_555
C8 H48 1.101112 1_555
C8 N16 1.456304 1_555
C9 H45 1.095994 1_555
C9 H41 1.096854 1_555
C9 H49 1.101112 1_555
C9 N17 1.456304 1_555
C10 H46 1.095994 1_555
C10 H42 1.096854 1_555
C10 H50 1.101112 1_555
C10 N18 1.456304 1_555
C11 H47 1.095994 1_555
C11 H43 1.096854 1_555
C11 H51 1.101112 1_555
C11 N19 1.456304 1_555
C12 H56 1.093907 1_555
C12 H52 1.099488 1_555
C12 H60 1.105794 1_565
C12 N16 1.448998 1_555
C13 H57 1.093907 1_555
C13 H53 1.099488 1_555
C13 H61 1.105794 1_655
C13 N17 1.448998 1_555
C14 H58 1.093907 1_555
C14 H54 1.099488 1_555
C14 H62 1.105794 1_545
C14 N18 1.448998 1_555
C15 H59 1.093907 1_555
C15 H55 1.099488 1_555
C15 H63 1.105794 1_455
C15 N19 1.448998 1_555
C16 N20 1.329456 1_555
C16 N28 1.356765 1_555
C16 N24 1.383547 1_555
C17 N21 1.329456 1_555
C17 N29 1.356765 1_555
C17 N25 1.383547 1_555
C18 N22 1.329456 1_555
C18 N30 1.356765 1_555
C18 N26 1.383547 1_555
C19 N23 1.329456 1_555
C19 N31 1.356765 1_555
C19 N27 1.383547 1_555
C20 N32 1.331067 1_555
C20 N28 1.363985 1_555
C20 N36 1.378235 1_556
C21 N33 1.331067 1_555
C21 N29 1.363985 1_555
C21 N37 1.378235 1_555
C22 N34 1.331067 1_555
C22 N30 1.363985 1_555
C22 N38 1.378235 1_554
C23 N35 1.331067 1_555
C23 N31 1.363985 1_555
C23 N39 1.378235 1_555
C24 H64 1.090209 1_555
C24 H68 1.099946 1_555
C24 H72 1.103624 1_555
C24 N36 1.452100 1_555
C25 H65 1.090209 1_555
C25 H69 1.099946 1_555
C25 H73 1.103624 1_555
C25 N37 1.452100 1_555
C26 H66 1.090209 1_555
C26 H70 1.099946 1_555
C26 H74 1.103624 1_555
C26 N38 1.452100 1_555
C27 H67 1.090209 1_555
C27 H71 1.099946 1_555
C27 H75 1.103624 1_555
C27 N39 1.452100 1_555
C28 H80 1.095669 1_555
C28 H76 1.097960 1_555
C28 H84 1.104094 1_555
C28 N36 1.450527 1_555
C29 H81 1.095669 1_555
C29 H77 1.097960 1_555
C29 H85 1.104094 1_555
C29 N37 1.450527 1_555
C30 H82 1.095669 1_555
C30 H78 1.097960 1_555
C30 H86 1.104094 1_555
C30 N38 1.450527 1_555
C31 H83 1.095669 1_555
C31 H79 1.097960 1_555
C31 H87 1.104094 1_555
C31 N39 1.450527 1_555
