# generated using pymatgen
data_Y4Ga2O9
_symmetry_space_group_name_H-M   'P 1'
_cell_length_a   10.72179000
_cell_length_b   7.46960200
_cell_length_c   11.41510616
_cell_angle_alpha   71.84249234
_cell_angle_beta   90.00000000
_cell_angle_gamma   90.00000000
_symmetry_Int_Tables_number   1
_chemical_formula_structural   Y4Ga2O9
_chemical_formula_sum   'Y16 Ga8 O36'
_cell_volume   868.68296757
_cell_formula_units_Z   4
loop_
 _symmetry_equiv_pos_site_id
 _symmetry_equiv_pos_as_xyz
  1  'x, y, z'
loop_
 _atom_site_type_symbol
 _atom_site_label
 _atom_site_symmetry_multiplicity
 _atom_site_fract_x
 _atom_site_fract_y
 _atom_site_fract_z
 _atom_site_occupancy
  Y  Y0  1  0.90089900  0.97863500  0.80166600  1
  Y  Y1  1  0.59910100  0.97863500  0.30166600  1
  Y  Y2  1  0.11904000  0.83563700  0.58892100  1
  Y  Y3  1  0.62259600  0.66240300  0.93602300  1
  Y  Y4  1  0.38096000  0.83563700  0.08892100  1
  Y  Y5  1  0.87740400  0.66240300  0.43602300  1
  Y  Y6  1  0.38809400  0.52215400  0.72080700  1
  Y  Y7  1  0.88809400  0.47784600  0.77919300  1
  Y  Y8  1  0.11190600  0.52215400  0.22080700  1
  Y  Y9  1  0.61190600  0.47784600  0.27919300  1
  Y  Y10  1  0.12259600  0.33759700  0.56397700  1
  Y  Y11  1  0.61904000  0.16436300  0.91107900  1
  Y  Y12  1  0.37740400  0.33759700  0.06397700  1
  Y  Y13  1  0.88096000  0.16436300  0.41107900  1
  Y  Y14  1  0.40089900  0.02136500  0.69833400  1
  Y  Y15  1  0.09910100  0.02136500  0.19833400  1
  Ga  Ga0  1  0.67800400  0.79037400  0.62497600  1
  Ga  Ga1  1  0.17433900  0.65779500  0.89219400  1
  Ga  Ga2  1  0.82199600  0.79037400  0.12497600  1
  Ga  Ga3  1  0.32566100  0.65779500  0.39219400  1
  Ga  Ga4  1  0.67433900  0.34220500  0.60780600  1
  Ga  Ga5  1  0.17800400  0.20962600  0.87502400  1
  Ga  Ga6  1  0.82566100  0.34220500  0.10780600  1
  Ga  Ga7  1  0.32199600  0.20962600  0.37502400  1
  O  O0  1  0.76515500  0.93394300  0.97331300  1
  O  O1  1  0.49171100  0.92189000  0.89477300  1
  O  O2  1  0.26251300  0.79128800  0.75219200  1
  O  O3  1  0.76088800  0.76307300  0.77357800  1
  O  O4  1  0.73484500  0.93394300  0.47331300  1
  O  O5  1  0.00828900  0.92189000  0.39477300  1
  O  O6  1  0.01439900  0.70072600  0.82966000  1
  O  O7  1  0.51105800  0.78807200  0.65664300  1
  O  O8  1  0.23748700  0.79128800  0.25219200  1
  O  O9  1  0.73911200  0.76307300  0.27357800  1
  O  O10  1  0.26977600  0.63749100  0.54733400  1
  O  O11  1  0.48560100  0.70072600  0.32966000  1
  O  O12  1  0.75065900  0.56923100  0.60980400  1
  O  O13  1  0.50988500  0.43574200  0.89340100  1
  O  O14  1  0.98894200  0.78807200  0.15664300  1
  O  O15  1  0.00988500  0.56425800  0.60659900  1
  O  O16  1  0.25065900  0.43076900  0.89019600  1
  O  O17  1  0.76977600  0.36250900  0.95266600  1
  O  O18  1  0.23022400  0.63749100  0.04733400  1
  O  O19  1  0.74934100  0.56923100  0.10980400  1
  O  O20  1  0.99011500  0.43574200  0.39340100  1
  O  O21  1  0.01105800  0.21192800  0.84335700  1
  O  O22  1  0.49011500  0.56425800  0.10659900  1
  O  O23  1  0.24934100  0.43076900  0.39019600  1
  O  O24  1  0.51439900  0.29927400  0.67034000  1
  O  O25  1  0.73022400  0.36250900  0.45266600  1
  O  O26  1  0.26088800  0.23692700  0.72642200  1
  O  O27  1  0.76251300  0.20871200  0.74780800  1
  O  O28  1  0.48894200  0.21192800  0.34335700  1
  O  O29  1  0.98560100  0.29927400  0.17034000  1
  O  O30  1  0.99171100  0.07811000  0.60522700  1
  O  O31  1  0.26515500  0.06605700  0.52668700  1
  O  O32  1  0.23911200  0.23692700  0.22642200  1
  O  O33  1  0.73748700  0.20871200  0.24780800  1
  O  O34  1  0.50828900  0.07811000  0.10522700  1
  O  O35  1  0.23484500  0.06605700  0.02668700  1
loop_
_geom_bond_atom_site_label_1
_geom_bond_atom_site_label_2
_geom_bond_distance
_geom_bond_site_symmetry_2
Ga0 O7 1.825116 1_555
Ga0 O4 1.833451 1_555
Ga0 O3 1.869003 1_555
Ga0 O12 1.882482 1_555
Ga1 O18 1.830534 1_556
Ga1 O6 1.846729 1_555
Ga1 O2 1.857114 1_555
Ga1 O16 1.889427 1_555
Ga2 O14 1.825116 1_555
Ga2 O0 1.833451 1_554
Ga2 O9 1.869003 1_555
Ga2 O19 1.882482 1_555
Ga3 O10 1.830534 1_555
Ga3 O11 1.846729 1_555
Ga3 O8 1.857114 1_555
Ga3 O23 1.889427 1_555
Ga4 O25 1.830534 1_555
Ga4 O24 1.846729 1_555
Ga4 O27 1.857114 1_555
Ga4 O12 1.889427 1_555
Ga5 O21 1.825116 1_555
Ga5 O35 1.833451 1_556
Ga5 O26 1.869003 1_555
Ga5 O16 1.882482 1_555
Ga6 O17 1.830534 1_554
Ga6 O29 1.846729 1_555
Ga6 O33 1.857114 1_555
Ga6 O19 1.889427 1_555
Ga7 O28 1.825116 1_555
Ga7 O31 1.833451 1_555
Ga7 O32 1.869003 1_555
Ga7 O23 1.882482 1_555
O0 Y11 2.271394 1_565
O0 Y0 2.379315 1_555
O0 Y3 2.677604 1_555
O1 Y3 2.319282 1_555
O1 Y11 2.321396 1_565
O1 Y14 2.343055 1_565
O1 Y4 2.418022 1_556
O2 Y14 2.207823 1_565
O2 Y2 2.358993 1_555
O2 Y6 2.536056 1_555
O3 Y0 2.295800 1_555
O3 Y3 2.309421 1_555
O3 Y7 2.513627 1_555
O4 Y13 2.271394 1_565
O4 Y1 2.379315 1_555
O4 Y5 2.677604 1_555
O5 Y5 2.319282 1_455
O5 Y13 2.321396 1_465
O5 Y15 2.343055 1_565
O5 Y2 2.418022 1_555
O6 Y0 2.340686 1_455
O6 Y7 2.352695 1_455
O6 Y2 2.846069 1_555
O7 Y14 2.274873 1_565
O7 Y6 2.305055 1_555
O8 Y15 2.207823 1_565
O8 Y4 2.358993 1_555
O8 Y8 2.536056 1_555
O9 Y1 2.295800 1_555
O9 Y5 2.309421 1_555
O9 Y9 2.513627 1_555
O10 Y6 2.282428 1_555
O10 Y2 2.337918 1_555
O10 Y10 2.697969 1_555
O11 Y1 2.340686 1_555
O11 Y9 2.352695 1_555
O11 Y4 2.846069 1_555
O12 Y5 2.325031 1_555
O12 Y7 2.356576 1_555
O13 Y3 2.253215 1_555
O13 Y6 2.282718 1_555
O13 Y11 2.294464 1_555
O13 Y12 2.335971 1_556
O14 Y15 2.274873 1_665
O14 Y8 2.305055 1_655
O15 Y10 2.253215 1_555
O15 Y7 2.282718 1_455
O15 Y2 2.294464 1_555
O15 Y5 2.335971 1_455
O16 Y12 2.325031 1_556
O16 Y6 2.356576 1_555
O17 Y7 2.282428 1_555
O17 Y11 2.337918 1_555
O17 Y3 2.697969 1_555
O18 Y8 2.282428 1_555
O18 Y4 2.337918 1_555
O18 Y12 2.697969 1_555
O19 Y3 2.325031 1_554
O19 Y9 2.356576 1_555
O20 Y5 2.253215 1_555
O20 Y8 2.282718 1_655
O20 Y13 2.294464 1_555
O20 Y10 2.335971 1_655
O21 Y0 2.274873 1_445
O21 Y7 2.305055 1_455
O22 Y12 2.253215 1_555
O22 Y9 2.282718 1_555
O22 Y4 2.294464 1_555
O22 Y3 2.335971 1_554
O23 Y10 2.325031 1_555
O23 Y8 2.356576 1_555
O24 Y14 2.340686 1_555
O24 Y6 2.352695 1_555
O24 Y11 2.846069 1_555
O25 Y9 2.282428 1_555
O25 Y13 2.337918 1_555
O25 Y5 2.697969 1_555
O26 Y14 2.295800 1_555
O26 Y10 2.309421 1_555
O26 Y6 2.513627 1_555
O27 Y0 2.207823 1_545
O27 Y11 2.358993 1_555
O27 Y7 2.536056 1_555
O28 Y1 2.274873 1_545
O28 Y9 2.305055 1_555
O29 Y15 2.340686 1_655
O29 Y8 2.352695 1_655
O29 Y13 2.846069 1_555
O30 Y10 2.319282 1_655
O30 Y2 2.321396 1_645
O30 Y0 2.343055 1_545
O30 Y13 2.418022 1_555
O31 Y2 2.271394 1_545
O31 Y14 2.379315 1_555
O31 Y10 2.677604 1_555
O32 Y15 2.295800 1_555
O32 Y12 2.309421 1_555
O32 Y8 2.513627 1_555
O33 Y1 2.207823 1_545
O33 Y13 2.358993 1_555
O33 Y9 2.536056 1_555
O34 Y12 2.319282 1_555
O34 Y4 2.321396 1_545
O34 Y1 2.343055 1_545
O34 Y11 2.418022 1_554
O35 Y4 2.271394 1_545
O35 Y15 2.379315 1_555
O35 Y12 2.677604 1_555
