# generated using pymatgen
data_Er2H16S3O20
_symmetry_space_group_name_H-M   'P 1'
_cell_length_a   7.51997832
_cell_length_b   7.51997832
_cell_length_c   18.26440836
_cell_angle_alpha   79.56204164
_cell_angle_beta   79.56204164
_cell_angle_gamma   52.86586633
_symmetry_Int_Tables_number   1
_chemical_formula_structural   Er2H16S3O20
_chemical_formula_sum   'Er4 H32 S6 O40'
_cell_volume   806.38707984
_cell_formula_units_Z   2
loop_
 _symmetry_equiv_pos_site_id
 _symmetry_equiv_pos_as_xyz
  1  'x, y, z'
loop_
 _atom_site_type_symbol
 _atom_site_label
 _atom_site_symmetry_multiplicity
 _atom_site_fract_x
 _atom_site_fract_y
 _atom_site_fract_z
 _atom_site_occupancy
  Er  Er0  1  0.35224000  0.31608700  0.39084600  1
  Er  Er1  1  0.31608700  0.35224000  0.89084600  1
  Er  Er2  1  0.68391300  0.64776000  0.10915400  1
  Er  Er3  1  0.64776000  0.68391300  0.60915400  1
  H  H0  1  0.18917700  0.79428200  0.34391400  1
  H  H1  1  0.81930300  0.18658100  0.10592200  1
  H  H2  1  0.34587800  0.55085000  0.14362200  1
  H  H3  1  0.64393200  0.32387300  0.04559300  1
  H  H4  1  0.79428200  0.18917700  0.84391400  1
  H  H5  1  0.18658100  0.81930300  0.60592200  1
  H  H6  1  0.77963800  0.87802000  0.19691600  1
  H  H7  1  0.97085800  0.76485000  0.01422800  1
  H  H8  1  0.72505000  0.98721200  0.01399000  1
  H  H9  1  0.55085000  0.34587800  0.64362200  1
  H  H10  1  0.32387300  0.64393200  0.54559300  1
  H  H11  1  0.28799900  0.25782200  0.24558900  1
  H  H12  1  0.74217800  0.71200100  0.25441100  1
  H  H13  1  0.01278800  0.27495000  0.48601000  1
  H  H14  1  0.23515000  0.02914200  0.48577200  1
  H  H15  1  0.12198000  0.22036200  0.30308400  1
  H  H16  1  0.87802000  0.77963800  0.69691600  1
  H  H17  1  0.76485000  0.97085800  0.51422800  1
  H  H18  1  0.98721200  0.72505000  0.51399000  1
  H  H19  1  0.25782200  0.28799900  0.74558900  1
  H  H20  1  0.71200100  0.74217800  0.75441100  1
  H  H21  1  0.67612700  0.35606800  0.45440700  1
  H  H22  1  0.44915000  0.65412200  0.35637800  1
  H  H23  1  0.27495000  0.01278800  0.98601000  1
  H  H24  1  0.02914200  0.23515000  0.98577200  1
  H  H25  1  0.22036200  0.12198000  0.80308400  1
  H  H26  1  0.81341900  0.18069700  0.39407800  1
  H  H27  1  0.20571800  0.81082300  0.15608600  1
  H  H28  1  0.35606800  0.67612700  0.95440700  1
  H  H29  1  0.65412200  0.44915000  0.85637800  1
  H  H30  1  0.18069700  0.81341900  0.89407800  1
  H  H31  1  0.81082300  0.20571800  0.65608600  1
  S  S0  1  0.74477300  0.69524300  0.41118100  1
  S  S1  1  0.30475700  0.25522700  0.08881900  1
  S  S2  1  0.69524300  0.74477300  0.91118100  1
  S  S3  1  0.25522700  0.30475700  0.58881900  1
  S  S4  1  0.81914600  0.18085400  0.25000000  1
  S  S5  1  0.18085400  0.81914600  0.75000000  1
  O  O0  1  0.31876900  0.64787400  0.36302700  1
  O  O1  1  0.68975400  0.23412400  0.43503500  1
  O  O2  1  0.91100800  0.01700400  0.19305900  1
  O  O3  1  0.60803500  0.22217100  0.28831800  1
  O  O4  1  0.64787400  0.31876900  0.86302700  1
  O  O5  1  0.23412400  0.68975400  0.93503500  1
  O  O6  1  0.97802800  0.62654500  0.39797700  1
  O  O7  1  0.01700400  0.91100800  0.69305900  1
  O  O8  1  0.59000600  0.93888400  0.41788600  1
  O  O9  1  0.36759300  0.30793200  0.14949100  1
  O  O10  1  0.22217100  0.60803500  0.78831800  1
  O  O11  1  0.42270600  0.28065500  0.01560100  1
  O  O12  1  0.82820800  0.85124500  0.04535100  1
  O  O13  1  0.22791600  0.25923000  0.29858300  1
  O  O14  1  0.74077000  0.77208400  0.20141700  1
  O  O15  1  0.14875500  0.17179200  0.45464900  1
  O  O16  1  0.71934500  0.57729400  0.48439900  1
  O  O17  1  0.62654500  0.97802800  0.89797700  1
  O  O18  1  0.69206800  0.63240700  0.35050900  1
  O  O19  1  0.06111600  0.40999400  0.08211400  1
  O  O20  1  0.93888400  0.59000600  0.91788600  1
  O  O21  1  0.30793200  0.36759300  0.64949100  1
  O  O22  1  0.37345500  0.02197200  0.10202300  1
  O  O23  1  0.28065500  0.42270600  0.51560100  1
  O  O24  1  0.85124500  0.82820800  0.54535100  1
  O  O25  1  0.25923000  0.22791600  0.79858300  1
  O  O26  1  0.77208400  0.74077000  0.70141700  1
  O  O27  1  0.17179200  0.14875500  0.95464900  1
  O  O28  1  0.57729400  0.71934500  0.98439900  1
  O  O29  1  0.77782900  0.39196500  0.21168200  1
  O  O30  1  0.63240700  0.69206800  0.85050900  1
  O  O31  1  0.40999400  0.06111600  0.58211400  1
  O  O32  1  0.98299600  0.08899200  0.30694100  1
  O  O33  1  0.02197200  0.37345500  0.60202300  1
  O  O34  1  0.76587600  0.31024600  0.06496500  1
  O  O35  1  0.35212600  0.68123100  0.13697300  1
  O  O36  1  0.39196500  0.77782900  0.71168200  1
  O  O37  1  0.08899200  0.98299600  0.80694100  1
  O  O38  1  0.31024600  0.76587600  0.56496500  1
  O  O39  1  0.68123100  0.35212600  0.63697300  1
loop_
_geom_bond_atom_site_label_1
_geom_bond_atom_site_label_2
_geom_bond_distance
_geom_bond_site_symmetry_2
Er0 O8 2.275037 1_545
Er0 O13 2.282779 1_555
Er0 O3 2.288970 1_555
Er0 O0 2.318504 1_555
Er0 O6 2.330591 1_455
Er0 O15 2.403615 1_555
Er0 O23 2.412662 1_555
Er0 O1 2.479202 1_555
Er1 O20 2.275037 1_455
Er1 O25 2.282779 1_555
Er1 O10 2.288970 1_555
Er1 O4 2.318504 1_555
Er1 O17 2.330591 1_545
Er1 O27 2.403615 1_555
Er1 O11 2.412662 1_556
Er1 O5 2.479202 1_555
Er2 O19 2.275037 1_655
Er2 O14 2.282779 1_555
Er2 O29 2.288970 1_555
Er2 O35 2.318504 1_555
Er2 O22 2.330591 1_565
Er2 O12 2.403615 1_555
Er2 O28 2.412662 1_554
Er2 O34 2.479202 1_555
Er3 O31 2.275037 1_565
Er3 O26 2.282779 1_555
Er3 O36 2.288970 1_555
Er3 O39 2.318504 1_555
Er3 O33 2.330591 1_655
Er3 O24 2.403615 1_555
Er3 O16 2.412662 1_555
Er3 O38 2.479202 1_555
H0 O0 0.986057 1_555
H1 O34 0.995768 1_555
H2 O35 0.994319 1_555
H3 O34 0.983655 1_555
H4 O4 0.986057 1_555
H5 O38 0.995768 1_555
H6 O14 0.987681 1_555
H7 O12 0.983550 1_555
H8 O12 0.983083 1_555
H9 O39 0.994319 1_555
H10 O38 0.983655 1_555
H11 O13 0.990238 1_555
H12 O14 0.990238 1_555
H13 O15 0.983083 1_555
H14 O15 0.983550 1_555
H15 O13 0.987681 1_555
H16 O26 0.987681 1_555
H17 O24 0.983550 1_555
H18 O24 0.983083 1_555
H19 O25 0.990238 1_555
H20 O26 0.990238 1_555
H21 O1 0.983655 1_555
H22 O0 0.994319 1_555
H23 O27 0.983083 1_555
H24 O27 0.983550 1_555
H25 O25 0.987681 1_555
H26 O1 0.995768 1_555
H27 O35 0.986057 1_555
H28 O5 0.983655 1_555
H29 O4 0.994319 1_555
H30 O5 0.995768 1_555
H31 O39 0.986057 1_555
O2 S4 1.501102 1_555
O3 S4 1.478958 1_555
O6 S0 1.483106 1_555
O7 S5 1.501102 1_555
O8 S0 1.476992 1_555
O9 S1 1.477607 1_555
O10 S5 1.478958 1_555
O11 S1 1.514579 1_555
O16 S0 1.514579 1_555
O17 S2 1.483106 1_555
O18 S0 1.477607 1_555
O19 S1 1.476992 1_555
O20 S2 1.476992 1_555
O21 S3 1.477607 1_555
O22 S1 1.483106 1_555
O23 S3 1.514579 1_555
O28 S2 1.514579 1_555
O29 S4 1.478958 1_555
O30 S2 1.477607 1_555
O31 S3 1.476992 1_555
O32 S4 1.501102 1_555
O33 S3 1.483106 1_555
O36 S5 1.478958 1_555
O37 S5 1.501102 1_555
