# generated using pymatgen
data_Ba5Sc6O14
_symmetry_space_group_name_H-M   'P 1'
_cell_length_a   8.99220268
_cell_length_b   8.99220268
_cell_length_c   11.79697100
_cell_angle_alpha   90.00000000
_cell_angle_beta   90.00000000
_cell_angle_gamma   92.24618217
_symmetry_Int_Tables_number   1
_chemical_formula_structural   Ba5Sc6O14
_chemical_formula_sum   'Ba10 Sc12 O28'
_cell_volume   953.16671466
_cell_formula_units_Z   2
loop_
 _symmetry_equiv_pos_site_id
 _symmetry_equiv_pos_as_xyz
  1  'x, y, z'
loop_
 _atom_site_type_symbol
 _atom_site_label
 _atom_site_symmetry_multiplicity
 _atom_site_fract_x
 _atom_site_fract_y
 _atom_site_fract_z
 _atom_site_occupancy
  Ba  Ba0  1  0.95389700  0.27027500  0.25309000  1
  Ba  Ba1  1  0.72972500  0.04610300  0.75309000  1
  Ba  Ba2  1  0.96105100  0.67976700  0.19786000  1
  Ba  Ba3  1  0.32023300  0.03894900  0.69786000  1
  Ba  Ba4  1  0.52122000  0.52122000  0.23901900  1
  Ba  Ba5  1  0.47878000  0.47878000  0.73901900  1
  Ba  Ba6  1  0.67976700  0.96105100  0.19786000  1
  Ba  Ba7  1  0.03894900  0.32023300  0.69786000  1
  Ba  Ba8  1  0.04610300  0.72972500  0.75309000  1
  Ba  Ba9  1  0.27027500  0.95389700  0.25309000  1
  Sc  Sc0  1  0.84127600  0.35555000  0.97436500  1
  Sc  Sc1  1  0.64445000  0.15872400  0.47436500  1
  Sc  Sc2  1  0.78912100  0.50448800  0.50806300  1
  Sc  Sc3  1  0.49551200  0.21087900  0.00806300  1
  Sc  Sc4  1  0.70101500  0.70101500  0.93893400  1
  Sc  Sc5  1  0.00359500  0.00359500  0.96715700  1
  Sc  Sc6  1  0.29898500  0.29898500  0.43893400  1
  Sc  Sc7  1  0.99640500  0.99640500  0.46715700  1
  Sc  Sc8  1  0.50448800  0.78912100  0.50806300  1
  Sc  Sc9  1  0.21087900  0.49551200  0.00806300  1
  Sc  Sc10  1  0.35555000  0.84127600  0.97436500  1
  Sc  Sc11  1  0.15872400  0.64445000  0.47436500  1
  O  O0  1  0.80967300  0.06531600  0.38980400  1
  O  O1  1  0.93468400  0.19032700  0.88980400  1
  O  O2  1  0.74829100  0.30124600  0.58122400  1
  O  O3  1  0.69875400  0.25170900  0.08122400  1
  O  O4  1  0.44050600  0.00628100  0.07241400  1
  O  O5  1  0.99371900  0.55949400  0.57241400  1
  O  O6  1  0.80426900  0.49045600  0.34221600  1
  O  O7  1  0.50954400  0.19573100  0.84221600  1
  O  O8  1  0.49130200  0.23859900  0.37073300  1
  O  O9  1  0.76140100  0.50869800  0.87073300  1
  O  O10  1  0.85721600  0.85721600  0.89487900  1
  O  O11  1  0.36924100  0.36924100  0.06699700  1
  O  O12  1  0.69681200  0.69681200  0.10456800  1
  O  O13  1  0.14278400  0.14278400  0.39487900  1
  O  O14  1  0.00949900  0.00949900  0.63303200  1
  O  O15  1  0.30318800  0.30318800  0.60456800  1
  O  O16  1  0.99050100  0.99050100  0.13303200  1
  O  O17  1  0.63075900  0.63075900  0.56699700  1
  O  O18  1  0.23859900  0.49130200  0.37073300  1
  O  O19  1  0.50869800  0.76140100  0.87073300  1
  O  O20  1  0.19573100  0.50954400  0.84221600  1
  O  O21  1  0.49045600  0.80426900  0.34221600  1
  O  O22  1  0.55949400  0.99371900  0.57241400  1
  O  O23  1  0.00628100  0.44050600  0.07241400  1
  O  O24  1  0.25170900  0.69875400  0.08122400  1
  O  O25  1  0.30124600  0.74829100  0.58122400  1
  O  O26  1  0.06531600  0.80967300  0.38980400  1
  O  O27  1  0.19032700  0.93468400  0.88980400  1
loop_
_geom_bond_atom_site_label_1
_geom_bond_atom_site_label_2
_geom_bond_distance
_geom_bond_site_symmetry_2
Ba0 O6 2.654181 1_555
Ba0 O23 2.655477 1_655
Ba0 O13 2.673897 1_655
Ba0 O0 2.737243 1_555
Ba0 O16 2.916914 1_545
Ba0 O3 3.061437 1_555
Ba1 O7 2.654181 1_555
Ba1 O22 2.655477 1_545
Ba1 O10 2.673897 1_545
Ba1 O1 2.737243 1_555
Ba1 O14 2.916914 1_655
Ba1 O2 3.061437 1_555
Ba2 O12 2.628514 1_555
Ba2 O23 2.655738 1_655
Ba2 O26 2.699085 1_655
Ba2 O6 2.756346 1_555
Ba2 O16 2.899046 1_555
Ba2 O24 2.952729 1_655
Ba3 O15 2.628514 1_555
Ba3 O22 2.655738 1_545
Ba3 O27 2.699085 1_545
Ba3 O7 2.756346 1_555
Ba3 O14 2.899046 1_555
Ba3 O25 2.952729 1_545
Ba4 O12 2.703064 1_555
Ba4 O11 2.776175 1_555
Ba4 O21 2.844649 1_555
Ba4 O6 2.844649 1_555
Ba4 O18 2.981912 1_555
Ba4 O8 2.981912 1_555
Ba5 O15 2.703064 1_555
Ba5 O17 2.776175 1_555
Ba5 O7 2.844649 1_555
Ba5 O20 2.844649 1_555
Ba5 O19 2.981912 1_555
Ba5 O9 2.981912 1_555
Ba6 O12 2.628514 1_555
Ba6 O4 2.655738 1_565
Ba6 O0 2.699085 1_565
Ba6 O21 2.756346 1_555
Ba6 O16 2.899046 1_555
Ba6 O3 2.952729 1_565
Ba7 O15 2.628514 1_555
Ba7 O5 2.655738 1_455
Ba7 O1 2.699085 1_455
Ba7 O20 2.756346 1_555
Ba7 O14 2.899046 1_555
Ba7 O2 2.952729 1_455
Ba8 O20 2.654181 1_555
Ba8 O5 2.655477 1_455
Ba8 O10 2.673897 1_455
Ba8 O27 2.737243 1_555
Ba8 O14 2.916914 1_565
Ba8 O25 3.061437 1_555
Ba9 O21 2.654181 1_555
Ba9 O4 2.655477 1_565
Ba9 O13 2.673897 1_565
Ba9 O26 2.737243 1_555
Ba9 O16 2.916914 1_455
Ba9 O24 3.061437 1_555
O0 Sc1 2.001454 1_555
O0 Sc7 2.029221 1_545
O1 Sc0 2.001454 1_555
O1 Sc5 2.029221 1_655
O2 Sc1 2.002426 1_555
O2 Sc2 2.041373 1_555
O3 Sc0 2.002426 1_554
O3 Sc3 2.041373 1_555
O4 Sc10 2.008533 1_544
O4 Sc3 2.033332 1_555
O5 Sc11 2.008533 1_655
O5 Sc2 2.033332 1_555
O6 Sc2 1.965626 1_555
O7 Sc3 1.965626 1_556
O8 Sc1 1.996132 1_555
O8 Sc6 2.001612 1_555
O9 Sc0 1.996132 1_555
O9 Sc4 2.001612 1_555
O10 Sc5 2.014039 1_665
O10 Sc4 2.015244 1_555
O11 Sc9 1.981718 1_555
O11 Sc3 1.981718 1_555
O12 Sc4 1.954682 1_554
O13 Sc7 2.014039 1_445
O13 Sc6 2.015244 1_555
O14 Sc7 1.963618 1_445
O15 Sc6 1.954682 1_555
O16 Sc5 1.963618 1_664
O17 Sc2 1.981718 1_555
O17 Sc8 1.981718 1_555
O18 Sc11 1.996132 1_555
O18 Sc6 2.001612 1_555
O19 Sc10 1.996132 1_555
O19 Sc4 2.001612 1_555
O20 Sc9 1.965626 1_556
O21 Sc8 1.965626 1_555
O22 Sc1 2.008533 1_565
O22 Sc8 2.033332 1_555
O23 Sc0 2.008533 1_454
O23 Sc9 2.033332 1_555
O24 Sc10 2.002426 1_554
O24 Sc9 2.041373 1_555
O25 Sc11 2.002426 1_555
O25 Sc8 2.041373 1_555
O26 Sc11 2.001454 1_555
O26 Sc7 2.029221 1_455
O27 Sc10 2.001454 1_555
O27 Sc5 2.029221 1_565
