# generated using pymatgen
data_Li7Mn(O2F)2
_symmetry_space_group_name_H-M   'P 1'
_cell_length_a   5.51436800
_cell_length_b   5.67678725
_cell_length_c   10.25371920
_cell_angle_alpha   75.39727406
_cell_angle_beta   76.64598314
_cell_angle_gamma   61.23096771
_symmetry_Int_Tables_number   1
_chemical_formula_structural   Li7Mn(O2F)2
_chemical_formula_sum   'Li14 Mn2 O8 F4'
_cell_volume   269.98935132
_cell_formula_units_Z   2
loop_
 _symmetry_equiv_pos_site_id
 _symmetry_equiv_pos_as_xyz
  1  'x, y, z'
loop_
 _atom_site_type_symbol
 _atom_site_label
 _atom_site_symmetry_multiplicity
 _atom_site_fract_x
 _atom_site_fract_y
 _atom_site_fract_z
 _atom_site_occupancy
  Li  Li0  1  0.02192000  0.71968400  0.83652200  1
  Li  Li1  1  0.21997200  0.89463600  0.32211000  1
  Li  Li2  1  0.37013200  0.85008700  0.67047900  1
  Li  Li3  1  0.62383900  0.87235000  0.17387400  1
  Li  Li4  1  0.09138800  0.42038400  0.64718400  1
  Li  Li5  1  0.35831800  0.58629700  0.15488600  1
  Li  Li6  1  0.75644500  0.84687600  0.52375500  1
  Li  Li7  1  0.39488400  0.25569100  0.01775200  1
  Li  Li8  1  0.65892000  0.46399200  0.83215700  1
  Li  Li9  1  0.96275800  0.52216900  0.34719400  1
  Li  Li10  1  0.43001900  0.05341700  0.83064900  1
  Li  Li11  1  0.54671700  0.17002600  0.33008200  1
  Li  Li12  1  0.78513700  0.13778400  0.68208700  1
  Li  Li13  1  0.92886400  0.28399000  0.17353500  1
  Mn  Mn0  1  0.99731400  0.00964200  0.99729100  1
  Mn  Mn1  1  0.51242800  0.49696800  0.49605700  1
  O  O0  1  0.25530200  0.98065900  0.11348800  1
  O  O1  1  0.30663700  0.77258900  0.87877000  1
  O  O2  1  0.57680700  0.80228700  0.37818400  1
  O  O3  1  0.27997700  0.52866100  0.37227700  1
  O  O4  1  0.71559400  0.51155100  0.62617000  1
  O  O5  1  0.47635900  0.16782700  0.61302100  1
  O  O6  1  0.66590400  0.21563600  0.12396700  1
  O  O7  1  0.73093100  0.07136400  0.88103700  1
  F  F0  1  0.06965300  0.79165600  0.63503500  1
  F  F1  1  0.05300200  0.37696200  0.85330900  1
  F  F2  1  0.00411000  0.58015200  0.14227100  1
  F  F3  1  0.89109800  0.19873800  0.36693500  1
loop_
_geom_bond_atom_site_label_1
_geom_bond_atom_site_label_2
_geom_bond_distance
_geom_bond_site_symmetry_2
Li0 O1 1.891170 1_555
Li0 O7 1.951004 1_465
Li1 O3 1.889023 1_555
Li1 O2 1.963422 1_555
Li1 O0 2.055414 1_555
Li2 O4 2.011282 1_555
Li2 O1 2.051014 1_555
Li2 O5 2.065307 1_565
Li3 O6 1.997696 1_565
Li3 O2 2.010569 1_555
Li3 O0 2.019411 1_555
Li4 O5 1.914397 1_555
Li4 O4 1.930356 1_455
Li5 O0 1.980606 1_555
Li5 O6 2.014335 1_555
Li5 O3 2.141470 1_555
Li6 O5 2.005498 1_565
Li6 O4 2.018074 1_555
Li6 O2 2.094804 1_555
Li7 O6 1.941979 1_555
Li7 O0 2.007149 1_545
Li7 O7 2.041375 1_554
Li8 O1 1.946459 1_555
Li8 O7 2.013318 1_555
Li8 O4 2.029885 1_555
Li9 O3 1.844473 1_655
Li9 O2 1.960599 1_555
Li10 O7 1.901585 1_555
Li10 O1 1.933955 1_545
Li10 O5 2.152268 1_555
Li11 O3 1.939923 1_555
Li11 O2 1.952943 1_545
Li11 O6 2.052289 1_555
Li12 O5 1.909567 1_555
Li12 O4 1.919049 1_555
Li12 O7 1.957547 1_555
Li13 O6 1.868971 1_555
Li13 O0 1.903560 1_645
Mn0 O7 1.950467 1_555
Mn0 O1 1.963393 1_645
Mn0 O0 1.982263 1_646
Mn0 O6 2.001680 1_556
Mn1 O3 1.923723 1_555
Mn1 O4 1.969097 1_555
Mn1 O2 1.982097 1_555
Mn1 O5 2.021555 1_555
F0 Li12 1.927717 1_465
F0 Li2 1.963566 1_555
F0 Li0 1.982731 1_555
F0 Li4 2.025674 1_555
F0 Li6 2.142919 1_455
F0 Mn1 2.540466 1_555
F1 Li0 1.835210 1_555
F1 Li10 2.016487 1_555
F1 Li8 2.035634 1_455
F1 Li4 2.038018 1_555
F1 Mn0 2.340220 1_455
F2 Li13 1.854674 1_455
F2 Li3 1.965379 1_455
F2 Li5 2.004405 1_555
F2 Li9 2.019320 1_455
F2 Li7 2.400137 1_555
F2 Mn0 2.503197 1_464
F3 Li1 1.865974 1_645
F3 Li13 1.905904 1_555
F3 Li9 2.010528 1_555
F3 Li11 2.106232 1_555
F3 Mn1 2.330179 1_555
F3 Li6 2.526525 1_545
