# generated using pymatgen
data_Li5V3P8O29
_symmetry_space_group_name_H-M   'P 1'
_cell_length_a   9.77823300
_cell_length_b   9.78497027
_cell_length_c   14.04448987
_cell_angle_alpha   89.92014778
_cell_angle_beta   90.21692463
_cell_angle_gamma   119.78990292
_symmetry_Int_Tables_number   1
_chemical_formula_structural   Li5V3P8O29
_chemical_formula_sum   'Li10 V6 P16 O58'
_cell_volume   1166.18878167
_cell_formula_units_Z   2
loop_
 _symmetry_equiv_pos_site_id
 _symmetry_equiv_pos_as_xyz
  1  'x, y, z'
loop_
 _atom_site_type_symbol
 _atom_site_label
 _atom_site_symmetry_multiplicity
 _atom_site_fract_x
 _atom_site_fract_y
 _atom_site_fract_z
 _atom_site_occupancy
  Li  Li0  1  0.90687800  0.67924400  0.44446300  1
  Li  Li1  1  0.31909100  0.22759600  0.44337200  1
  Li  Li2  1  0.33436100  0.09824800  0.93927500  1
  Li  Li3  1  0.89705100  0.23064900  0.93974700  1
  Li  Li4  1  0.22614000  0.90705300  0.56162300  1
  Li  Li5  1  0.77365900  0.08652200  0.43724100  1
  Li  Li6  1  0.09297000  0.76409600  0.05978100  1
  Li  Li7  1  0.09109800  0.32097000  0.56151700  1
  Li  Li8  1  0.23245700  0.33263500  0.05636300  1
  Li  Li9  1  0.92966900  0.94224100  0.99057400  1
  V  V0  1  0.43664300  0.00153200  0.74870000  1
  V  V1  1  0.56935100  0.99751200  0.24658100  1
  V  V2  1  0.00123800  0.56845400  0.25053500  1
  V  V3  1  0.99865300  0.43267400  0.75231700  1
  V  V4  1  0.57287300  0.57124400  0.75244200  1
  V  V5  1  0.43887700  0.43991600  0.24721800  1
  P  P0  1  0.77646800  0.69339400  0.15603500  1
  P  P1  1  0.91103700  0.68203500  0.66160700  1
  P  P2  1  0.31971200  0.23329800  0.65841400  1
  P  P3  1  0.66325000  0.33250800  0.87242400  1
  P  P4  1  0.66639400  0.33211700  0.36868300  1
  P  P5  1  0.31572000  0.08852700  0.15884900  1
  P  P6  1  0.23369200  0.91370100  0.34179800  1
  P  P7  1  0.91359800  0.22922700  0.15878200  1
  P  P8  1  0.09036700  0.77493300  0.84347300  1
  P  P9  1  0.76934900  0.08871900  0.65462000  1
  P  P10  1  0.69335800  0.91626100  0.83796200  1
  P  P11  1  0.33195700  0.66248700  0.63117500  1
  P  P12  1  0.33199300  0.66627200  0.12929500  1
  P  P13  1  0.68776700  0.77120200  0.34258900  1
  P  P14  1  0.09237300  0.32130300  0.34108100  1
  P  P15  1  0.23040500  0.31574900  0.84207500  1
  O  O0  1  0.76558800  0.75517200  0.42911500  1
  O  O1  1  0.74397200  0.66117800  0.66467800  1
  O  O2  1  0.01670600  0.79062100  0.93347500  1
  O  O3  1  0.91649100  0.66056700  0.16170400  1
  O  O4  1  0.61739600  0.53502100  0.17030100  1
  O  O5  1  0.67000200  0.48308900  0.82366800  1
  O  O6  1  0.47814500  0.38288000  0.67734600  1
  O  O7  1  0.22960000  0.22742500  0.93063800  1
  O  O8  1  0.33548600  0.25722100  0.16011700  1
  O  O9  1  0.81427200  0.48598000  0.33158100  1
  O  O10  1  0.90112900  0.52158300  0.67930600  1
  O  O11  1  0.51565000  0.33121800  0.32074300  1
  O  O12  1  0.65884300  0.33774900  0.97843700  1
  O  O13  1  0.65104000  0.33170300  0.47444400  1
  O  O14  1  0.50906400  0.18891100  0.83203200  1
  O  O15  1  0.91116000  0.38318700  0.17128000  1
  O  O16  1  0.80949600  0.32282900  0.83501600  1
  O  O17  1  0.33570100  0.08404100  0.65738500  1
  O  O18  1  0.20831000  0.00279800  0.25163500  1
  O  O19  1  0.24401700  0.00180500  0.43197300  1
  O  O20  1  0.22699600  0.00213800  0.07016300  1
  O  O21  1  0.47347400  0.09575000  0.17227400  1
  O  O22  1  0.67252400  0.18573900  0.33048600  1
  O  O23  1  0.26045600  0.91824500  0.83591100  1
  O  O24  1  0.62012200  0.10060200  0.67812000  1
  O  O25  1  0.91749000  0.25533600  0.66177900  1
  O  O26  1  0.00143700  0.79442900  0.75120900  1
  O  O27  1  0.99911200  0.75795300  0.57175000  1
  O  O28  1  0.00388300  0.24390700  0.43058800  1
  O  O29  1  0.08521600  0.74783800  0.34211600  1
  O  O30  1  0.38384500  0.90534000  0.32270700  1
  O  O31  1  0.74592900  0.08623100  0.16445100  1
  O  O32  1  0.32921100  0.81324300  0.66790800  1
  O  O33  1  0.53932000  0.91942600  0.83257300  1
  O  O34  1  0.80121300  0.00595700  0.91919800  1
  O  O35  1  0.75817200  0.01150000  0.56187600  1
  O  O36  1  0.78987200  0.99218700  0.74062400  1
  O  O37  1  0.66551500  0.91621200  0.34077800  1
  O  O38  1  0.18724100  0.67725500  0.16832200  1
  O  O39  1  0.09076500  0.62000100  0.83154100  1
  O  O40  1  0.48232200  0.80578300  0.17180100  1
  O  O41  1  0.32343900  0.64680600  0.02371500  1
  O  O42  1  0.33240900  0.65508500  0.52524400  1
  O  O43  1  0.47793700  0.66262600  0.68060900  1
  O  O44  1  0.10300900  0.48132700  0.32245800  1
  O  O45  1  0.18349500  0.51117000  0.67191400  1
  O  O46  1  0.66250800  0.74425400  0.83565400  1
  O  O47  1  0.79496500  0.79429000  0.25017200  1
  O  O48  1  0.78486200  0.78383600  0.07007300  1
  O  O49  1  0.52541100  0.61915000  0.32066600  1
  O  O50  1  0.32228600  0.50828200  0.17400700  1
  O  O51  1  0.38476300  0.47198800  0.82938600  1
  O  O52  1  0.08451900  0.33873100  0.84224200  1
  O  O53  1  0.99716600  0.22525900  0.06928300  1
  O  O54  1  0.00398800  0.20965900  0.25061600  1
  O  O55  1  0.25913900  0.33839600  0.34044300  1
  O  O56  1  0.24046200  0.24460500  0.56899500  1
  O  O57  1  0.20730600  0.20957100  0.74896300  1
loop_
_geom_bond_atom_site_label_1
_geom_bond_atom_site_label_2
_geom_bond_distance
_geom_bond_site_symmetry_2
Li0 O0 1.877334 1_555
Li0 O27 1.975804 1_555
Li0 O29 2.100210 1_655
Li0 O9 2.281561 1_555
Li1 O19 1.958142 1_555
Li1 O56 1.967197 1_555
Li1 O55 2.056588 1_555
Li1 O11 2.402527 1_555
Li2 O7 1.986693 1_555
Li2 O20 2.096313 1_556
Li2 O23 2.113375 1_545
Li2 O14 2.117480 1_555
Li3 O34 1.935926 1_555
Li3 O53 2.075669 1_556
Li3 O52 2.107765 1_655
Li3 O16 2.112848 1_555
Li4 O27 1.964813 1_455
Li4 O19 2.010567 1_565
Li4 O17 2.026773 1_565
Li4 O32 2.233967 1_555
Li5 O35 1.874515 1_555
Li5 O37 1.993790 1_545
Li5 O28 2.001144 1_655
Li5 O22 2.259898 1_555
Li6 O2 1.987769 1_554
Li6 O20 2.032353 1_565
Li6 O3 2.081061 1_455
Li6 O38 2.158620 1_555
Li7 O56 1.945639 1_555
Li7 O28 2.007535 1_555
Li7 O25 2.051667 1_455
Li7 O45 2.238435 1_555
Li8 O53 2.007706 1_455
Li8 O7 2.038276 1_554
Li8 O8 2.099380 1_555
Li8 O50 2.225369 1_555
Li9 O48 1.865584 1_556
Li9 O34 1.933432 1_565
Li9 O2 2.198081 1_655
O0 P13 1.480358 1_555
O1 P1 1.543177 1_555
O1 V4 1.908523 1_555
O2 P8 1.502476 1_555
O3 P0 1.555720 1_555
O3 V2 1.945958 1_655
O4 P0 1.570805 1_555
O4 V5 1.864792 1_555
O5 P3 1.595341 1_555
O5 V4 1.857741 1_555
O6 P2 1.535540 1_555
O6 V4 1.915495 1_555
O7 P15 1.511422 1_555
O8 P5 1.563784 1_555
O8 V5 1.978684 1_555
O9 P4 1.571441 1_555
O9 V2 1.958670 1_655
O10 P1 1.544048 1_555
O10 V3 1.879396 1_555
O11 P4 1.614225 1_555
O11 V5 1.882968 1_555
O12 P3 1.491375 1_555
O13 P4 1.493291 1_555
O14 P3 1.568426 1_555
O14 V0 1.985571 1_555
O15 P7 1.528842 1_555
O15 V2 1.926853 1_655
O16 P3 1.571741 1_555
O16 V3 1.990668 1_555
O17 P2 1.544215 1_555
O17 V0 2.012493 1_555
O18 P6 1.623175 1_545
O18 P5 1.623824 1_555
O19 P6 1.507620 1_545
O20 P5 1.511512 1_555
O21 P5 1.519713 1_555
O21 V1 1.943526 1_545
O22 P4 1.559028 1_555
O22 V1 1.987307 1_545
O23 P8 1.557996 1_555
O23 V0 1.936626 1_565
O24 P9 1.556916 1_555
O24 V0 1.850344 1_555
O25 P9 1.555368 1_555
O25 V3 1.971780 1_555
O26 P1 1.613675 1_455
O26 P8 1.620886 1_555
O27 P1 1.502028 1_555
O28 P14 1.502313 1_555
O29 P6 1.549384 1_555
O29 V2 1.993917 1_555
O30 P6 1.535149 1_555
O30 V1 1.906106 1_555
O31 P7 1.540571 1_555
O31 V1 1.894270 1_545
O32 P11 1.576230 1_555
O32 V0 1.964475 1_565
O33 P10 1.523439 1_555
O33 V0 1.957280 1_565
O34 P10 1.502729 1_545
O35 P9 1.482930 1_555
O36 P9 1.604613 1_565
O36 P10 1.619170 1_555
O37 P13 1.538815 1_555
O37 V1 1.999540 1_555
O38 P12 1.572442 1_555
O38 V2 1.965463 1_555
O39 P8 1.527398 1_555
O39 V3 1.940810 1_455
O40 P12 1.543504 1_555
O40 V1 1.938860 1_555
O41 P12 1.491992 1_555
O42 P11 1.489740 1_555
O43 P11 1.584341 1_555
O43 V4 1.869296 1_555
O44 P14 1.538928 1_555
O44 V2 1.889564 1_555
O45 P11 1.579628 1_555
O45 V3 1.940488 1_455
O46 P10 1.555766 1_555
O46 V4 1.877048 1_555
O47 P0 1.606165 1_555
O47 P13 1.615126 1_555
O48 P0 1.474132 1_555
O49 P13 1.574593 1_555
O49 V5 1.838409 1_555
O50 P12 1.626399 1_555
O50 V5 1.884530 1_555
O51 P15 1.534786 1_555
O51 V4 1.931688 1_555
O52 P15 1.550573 1_555
O52 V3 1.974997 1_455
O53 P7 1.512827 1_555
O54 P14 1.616174 1_555
O54 P7 1.624864 1_455
O55 P14 1.554434 1_555
O55 V5 2.017164 1_555
O56 P2 1.505765 1_555
O57 P15 1.615214 1_555
O57 P2 1.623407 1_555
