# generated using pymatgen
data_VNi3Sb2(PO4)6
_symmetry_space_group_name_H-M   'P 1'
_cell_length_a   8.82177162
_cell_length_b   8.82177162
_cell_length_c   8.82177116
_cell_angle_alpha   58.76067364
_cell_angle_beta   58.76067364
_cell_angle_gamma   58.76067470
_symmetry_Int_Tables_number   1
_chemical_formula_structural   VNi3Sb2(PO4)6
_chemical_formula_sum   'V1 Ni3 Sb2 P6 O24'
_cell_volume   471.71609509
_cell_formula_units_Z   1
loop_
 _symmetry_equiv_pos_site_id
 _symmetry_equiv_pos_as_xyz
  1  'x, y, z'
loop_
 _atom_site_type_symbol
 _atom_site_label
 _atom_site_symmetry_multiplicity
 _atom_site_fract_x
 _atom_site_fract_y
 _atom_site_fract_z
 _atom_site_occupancy
  V  V0  1  0.85692500  0.85692500  0.85692500  1
  Ni  Ni0  1  0.35266900  0.35266900  0.35266900  1
  Ni  Ni1  1  0.15261800  0.15261800  0.15261800  1
  Ni  Ni2  1  0.64639800  0.64639800  0.64639800  1
  Sb  Sb0  1  0.01894000  0.01894000  0.01894000  1
  Sb  Sb1  1  0.50451000  0.50451000  0.50451000  1
  P  P0  1  0.74831000  0.03754700  0.46485900  1
  P  P1  1  0.03754700  0.46485900  0.74831000  1
  P  P2  1  0.46485900  0.74831000  0.03754700  1
  P  P3  1  0.54026900  0.24577400  0.95485500  1
  P  P4  1  0.95485500  0.54026900  0.24577400  1
  P  P5  1  0.24577400  0.95485500  0.54026900  1
  O  O0  1  0.89179200  0.48786100  0.69132000  1
  O  O1  1  0.48786100  0.69132000  0.89179200  1
  O  O2  1  0.69132000  0.89179200  0.48786100  1
  O  O3  1  0.91756500  0.06463600  0.26873700  1
  O  O4  1  0.81602700  0.98584600  0.62209400  1
  O  O5  1  0.58706500  0.23410700  0.45572200  1
  O  O6  1  0.06463600  0.26873700  0.91756500  1
  O  O7  1  0.23410700  0.45572200  0.58706500  1
  O  O8  1  0.38335200  0.20185700  0.98116300  1
  O  O9  1  0.45572200  0.58706500  0.23410700  1
  O  O10  1  0.73475400  0.07656000  0.91754700  1
  O  O11  1  0.98116300  0.38335200  0.20185700  1
  O  O12  1  0.98584600  0.62209400  0.81602700  1
  O  O13  1  0.26873700  0.91756500  0.06463600  1
  O  O14  1  0.56875800  0.41052900  0.75628100  1
  O  O15  1  0.62209400  0.81602700  0.98584600  1
  O  O16  1  0.75628100  0.56875800  0.41052900  1
  O  O17  1  0.91754700  0.73475400  0.07656000  1
  O  O18  1  0.41052900  0.75628100  0.56875800  1
  O  O19  1  0.20185700  0.98116300  0.38335200  1
  O  O20  1  0.07656000  0.91754700  0.73475400  1
  O  O21  1  0.28430900  0.10954300  0.52890300  1
  O  O22  1  0.52890300  0.28430900  0.10954300  1
  O  O23  1  0.10954300  0.52890300  0.28430900  1
loop_
_geom_bond_atom_site_label_1
_geom_bond_atom_site_label_2
_geom_bond_distance
_geom_bond_site_symmetry_2
Ni0 O22 2.071568 1_555
Ni0 O21 2.071568 1_555
Ni0 O23 2.071568 1_555
Ni0 O7 2.217316 1_555
Ni0 O5 2.217316 1_555
Ni0 O9 2.217316 1_555
Ni1 O19 1.913607 1_545
Ni1 O8 1.913607 1_554
Ni1 O11 1.913607 1_455
Ni1 O6 2.143123 1_554
Ni1 O13 2.143123 1_545
Ni1 O3 2.143123 1_455
Ni2 O1 1.993503 1_555
Ni2 O2 1.993503 1_555
Ni2 O0 1.993503 1_555
Ni2 O16 2.106155 1_555
Ni2 O18 2.106155 1_555
Ni2 O14 2.106155 1_555
O0 P1 1.497108 1_655
O1 P2 1.497108 1_556
O2 P0 1.497108 1_565
O3 P0 1.594268 1_555
O3 Sb0 2.078879 1_655
O4 P0 1.552283 1_565
O4 V0 1.902926 1_555
O5 P0 1.565966 1_555
O5 Sb1 2.311660 1_555
O6 P1 1.594268 1_555
O6 Sb0 2.078879 1_556
O7 P1 1.565966 1_555
O7 Sb1 2.311660 1_555
O8 P3 1.499997 1_555
O9 P2 1.565966 1_555
O9 Sb1 2.311660 1_555
O10 P3 1.596156 1_555
O10 V0 1.874222 1_545
O11 P4 1.499997 1_555
O12 P1 1.552283 1_655
O12 V0 1.902926 1_555
O13 P2 1.594268 1_555
O13 Sb0 2.078879 1_565
O14 P3 1.589244 1_555
O14 Sb1 2.202289 1_555
O15 P2 1.552283 1_556
O15 V0 1.902926 1_555
O16 P4 1.589244 1_555
O16 Sb1 2.202290 1_555
O17 P4 1.596156 1_555
O17 V0 1.874222 1_554
O18 P5 1.589244 1_555
O18 Sb1 2.202290 1_555
O19 P5 1.499997 1_555
O20 P5 1.596156 1_555
O20 V0 1.874222 1_455
O21 P5 1.513837 1_545
O22 P3 1.513837 1_554
O23 P4 1.513837 1_455
