# generated using pymatgen
data_CrCo3H24C6(N10O11)3
_symmetry_space_group_name_H-M   'P 1'
_cell_length_a   15.20516138
_cell_length_b   15.20516138
_cell_length_c   15.20516162
_cell_angle_alpha   111.76197794
_cell_angle_beta   111.76197792
_cell_angle_gamma   111.76197630
_symmetry_Int_Tables_number   1
_chemical_formula_structural   CrCo3H24C6(N10O11)3
_chemical_formula_sum   'Cr2 Co6 H48 C12 N60 O66'
_cell_volume   2449.96266434
_cell_formula_units_Z   2
loop_
 _symmetry_equiv_pos_site_id
 _symmetry_equiv_pos_as_xyz
  1  'x, y, z'
loop_
 _atom_site_type_symbol
 _atom_site_label
 _atom_site_symmetry_multiplicity
 _atom_site_fract_x
 _atom_site_fract_y
 _atom_site_fract_z
 _atom_site_occupancy
  Cr  Cr0  1  0.00000000  0.00000000  0.00000000  1
  Cr  Cr1  1  0.50000000  0.50000000  0.50000000  1
  Co  Co0  1  0.81761748  0.72816123  0.27192399  1
  Co  Co1  1  0.72816123  0.27192399  0.81761748  1
  Co  Co2  1  0.27192399  0.81761748  0.72816123  1
  Co  Co3  1  0.18238252  0.27183877  0.72807601  1
  Co  Co4  1  0.27183877  0.72807601  0.18238252  1
  Co  Co5  1  0.72807601  0.18238252  0.27183877  1
  H  H0  1  0.98744207  0.86853540  0.78163004  1
  H  H1  1  0.86853540  0.78163004  0.98744207  1
  H  H2  1  0.78163004  0.98744207  0.86853540  1
  H  H3  1  0.01255793  0.13146460  0.21836996  1
  H  H4  1  0.13146460  0.21836996  0.01255793  1
  H  H5  1  0.21836996  0.01255793  0.13146460  1
  H  H6  1  0.95621553  0.87770348  0.66275616  1
  H  H7  1  0.87770348  0.66275616  0.95621553  1
  H  H8  1  0.66275616  0.95621553  0.87770348  1
  H  H9  1  0.04378447  0.12229652  0.33724384  1
  H  H10  1  0.12229652  0.33724384  0.04378447  1
  H  H11  1  0.33724384  0.04378447  0.12229652  1
  H  H12  1  0.86495507  0.96355841  0.62392544  1
  H  H13  1  0.96355841  0.62392544  0.86495507  1
  H  H14  1  0.62392544  0.86495507  0.96355841  1
  H  H15  1  0.13504493  0.03644159  0.37607456  1
  H  H16  1  0.03644159  0.37607456  0.13504493  1
  H  H17  1  0.37607456  0.13504493  0.03644159  1
  H  H18  1  0.84155377  0.03608685  0.72326985  1
  H  H19  1  0.03608685  0.72326985  0.84155377  1
  H  H20  1  0.72326985  0.84155377  0.03608685  1
  H  H21  1  0.15844623  0.96391315  0.27673015  1
  H  H22  1  0.96391315  0.27673015  0.15844623  1
  H  H23  1  0.27673015  0.15844623  0.96391315  1
  H  H24  1  0.62831092  0.71694159  0.40280278  1
  H  H25  1  0.71694159  0.40280278  0.62831092  1
  H  H26  1  0.40280278  0.62831092  0.71694159  1
  H  H27  1  0.37168908  0.28305841  0.59719722  1
  H  H28  1  0.28305841  0.59719722  0.37168908  1
  H  H29  1  0.59719722  0.37168908  0.28305841  1
  H  H30  1  0.61880925  0.83272245  0.46235598  1
  H  H31  1  0.83272245  0.46235598  0.61880925  1
  H  H32  1  0.46235598  0.61880925  0.83272245  1
  H  H33  1  0.38119075  0.16727755  0.53764402  1
  H  H34  1  0.16727755  0.53764402  0.38119075  1
  H  H35  1  0.53764402  0.38119075  0.16727755  1
  H  H36  1  0.54146783  0.83155156  0.57539346  1
  H  H37  1  0.83155156  0.57539346  0.54146783  1
  H  H38  1  0.57539346  0.54146783  0.83155156  1
  H  H39  1  0.45853217  0.16844844  0.42460654  1
  H  H40  1  0.16844844  0.42460654  0.45853217  1
  H  H41  1  0.42460654  0.45853217  0.16844844  1
  H  H42  1  0.53739260  0.74536279  0.62616783  1
  H  H43  1  0.74536279  0.62616783  0.53739260  1
  H  H44  1  0.62616783  0.53739260  0.74536279  1
  H  H45  1  0.46260740  0.25463721  0.37383217  1
  H  H46  1  0.25463721  0.37383217  0.46260740  1
  H  H47  1  0.37383217  0.46260740  0.25463721  1
  C  C0  1  0.91520753  0.95704704  0.76527831  1
  C  C1  1  0.95704704  0.76527831  0.91520753  1
  C  C2  1  0.76527831  0.91520753  0.95704704  1
  C  C3  1  0.08479247  0.04295296  0.23472169  1
  C  C4  1  0.04295296  0.23472169  0.08479247  1
  C  C5  1  0.23472169  0.08479247  0.04295296  1
  C  C6  1  0.58787774  0.72344850  0.51637614  1
  C  C7  1  0.72344850  0.51637614  0.58787774  1
  C  C8  1  0.51637614  0.58787774  0.72344850  1
  C  C9  1  0.41212226  0.27655150  0.48362386  1
  C  C10  1  0.27655150  0.48362386  0.41212226  1
  C  C11  1  0.48362386  0.41212226  0.27655150  1
  N  N0  1  0.84130475  0.76222092  0.42274405  1
  N  N1  1  0.76222092  0.42274405  0.84130475  1
  N  N2  1  0.42274405  0.84130475  0.76222092  1
  N  N3  1  0.15869525  0.23777908  0.57725595  1
  N  N4  1  0.23777908  0.57725595  0.15869525  1
  N  N5  1  0.57725595  0.15869525  0.23777908  1
  N  N6  1  0.64261369  0.65369726  0.20063169  1
  N  N7  1  0.65369726  0.20063169  0.64261369  1
  N  N8  1  0.20063169  0.64261369  0.65369726  1
  N  N9  1  0.35738631  0.34630274  0.79936831  1
  N  N10  1  0.34630274  0.79936831  0.35738631  1
  N  N11  1  0.79936831  0.35738631  0.34630274  1
  N  N12  1  0.69163251  0.11673876  0.78488312  1
  N  N13  1  0.11673876  0.78488312  0.69163251  1
  N  N14  1  0.78488312  0.69163251  0.11673876  1
  N  N15  1  0.30836749  0.88326124  0.21511688  1
  N  N16  1  0.88326124  0.21511688  0.30836749  1
  N  N17  1  0.21511688  0.30836749  0.88326124  1
  N  N18  1  0.00714837  0.19969778  0.65590092  1
  N  N19  1  0.19969778  0.65590092  0.00714837  1
  N  N20  1  0.65590092  0.00714837  0.19969778  1
  N  N21  1  0.99285163  0.80030222  0.34409908  1
  N  N22  1  0.80030222  0.34409908  0.99285163  1
  N  N23  1  0.34409908  0.99285163  0.80030222  1
  N  N24  1  0.78810770  0.59201232  0.22598543  1
  N  N25  1  0.59201232  0.22598543  0.78810770  1
  N  N26  1  0.22598543  0.78810770  0.59201232  1
  N  N27  1  0.21189230  0.40798768  0.77401457  1
  N  N28  1  0.40798768  0.77401457  0.21189230  1
  N  N29  1  0.77401457  0.21189230  0.40798768  1
  N  N30  1  0.15709120  0.13939268  0.69138739  1
  N  N31  1  0.13939268  0.69138739  0.15709120  1
  N  N32  1  0.69138739  0.15709120  0.13939268  1
  N  N33  1  0.84290880  0.86060732  0.30861261  1
  N  N34  1  0.86060732  0.30861261  0.84290880  1
  N  N35  1  0.30861261  0.84290880  0.86060732  1
  N  N36  1  0.95710204  0.89690852  0.73496882  1
  N  N37  1  0.89690852  0.73496882  0.95710204  1
  N  N38  1  0.73496882  0.95710204  0.89690852  1
  N  N39  1  0.04289796  0.10309148  0.26503118  1
  N  N40  1  0.10309148  0.26503118  0.04289796  1
  N  N41  1  0.26503118  0.04289796  0.10309148  1
  N  N42  1  0.87382699  0.99107351  0.70040864  1
  N  N43  1  0.99107351  0.70040864  0.87382699  1
  N  N44  1  0.70040864  0.87382699  0.99107351  1
  N  N45  1  0.12617301  0.00892649  0.29959136  1
  N  N46  1  0.00892649  0.29959136  0.12617301  1
  N  N47  1  0.29959136  0.12617301  0.00892649  1
  N  N48  1  0.61240169  0.76088826  0.45595410  1
  N  N49  1  0.76088826  0.45595410  0.61240169  1
  N  N50  1  0.45595410  0.61240169  0.76088826  1
  N  N51  1  0.38759831  0.23911174  0.54404590  1
  N  N52  1  0.23911174  0.54404590  0.38759831  1
  N  N53  1  0.54404590  0.38759831  0.23911174  1
  N  N54  1  0.55627416  0.77290403  0.57984744  1
  N  N55  1  0.77290403  0.57984744  0.55627416  1
  N  N56  1  0.57984744  0.55627416  0.77290403  1
  N  N57  1  0.44372584  0.22709597  0.42015256  1
  N  N58  1  0.22709597  0.42015256  0.44372584  1
  N  N59  1  0.42015256  0.44372584  0.22709597  1
  O  O0  1  0.91171585  0.98443074  0.85409318  1
  O  O1  1  0.98443074  0.85409318  0.91171585  1
  O  O2  1  0.85409318  0.91171585  0.98443074  1
  O  O3  1  0.08828415  0.01556926  0.14590682  1
  O  O4  1  0.01556926  0.14590682  0.08828415  1
  O  O5  1  0.14590682  0.08828415  0.01556926  1
  O  O6  1  0.59845246  0.64234246  0.51316993  1
  O  O7  1  0.64234246  0.51316993  0.59845246  1
  O  O8  1  0.51316993  0.59845246  0.64234246  1
  O  O9  1  0.40154754  0.35765754  0.48683007  1
  O  O10  1  0.35765754  0.48683007  0.40154754  1
  O  O11  1  0.48683007  0.40154754  0.35765754  1
  O  O12  1  0.68962375  0.98910352  0.48227489  1
  O  O13  1  0.98910352  0.48227489  0.68962375  1
  O  O14  1  0.48227489  0.68962375  0.98910352  1
  O  O15  1  0.31037625  0.01089648  0.51772511  1
  O  O16  1  0.01089648  0.51772511  0.31037625  1
  O  O17  1  0.51772511  0.31037625  0.01089648  1
  O  O18  1  0.78935351  0.67776135  0.42339161  1
  O  O19  1  0.67776135  0.42339161  0.78935351  1
  O  O20  1  0.42339161  0.78935351  0.67776135  1
  O  O21  1  0.21064649  0.32223865  0.57660839  1
  O  O22  1  0.32223865  0.57660839  0.21064649  1
  O  O23  1  0.57660839  0.21064649  0.32223865  1
  O  O24  1  0.90205319  0.86579338  0.50799433  1
  O  O25  1  0.86579338  0.50799433  0.90205319  1
  O  O26  1  0.50799433  0.90205319  0.86579338  1
  O  O27  1  0.09794681  0.13420662  0.49200567  1
  O  O28  1  0.13420662  0.49200567  0.09794681  1
  O  O29  1  0.49200567  0.09794681  0.13420662  1
  O  O30  1  0.45443730  0.86576884  0.42685531  1
  O  O31  1  0.86576884  0.42685531  0.45443730  1
  O  O32  1  0.42685531  0.45443730  0.86576884  1
  O  O33  1  0.54556270  0.13423116  0.57314469  1
  O  O34  1  0.13423116  0.57314469  0.54556270  1
  O  O35  1  0.57314469  0.54556270  0.13423116  1
  O  O36  1  0.61679273  0.72109722  0.23294737  1
  O  O37  1  0.72109722  0.23294737  0.61679273  1
  O  O38  1  0.23294737  0.61679273  0.72109722  1
  O  O39  1  0.38320727  0.27890278  0.76705263  1
  O  O40  1  0.27890278  0.76705263  0.38320727  1
  O  O41  1  0.76705263  0.38320727  0.27890278  1
  O  O42  1  0.59834731  0.04571149  0.76171065  1
  O  O43  1  0.04571149  0.76171065  0.59834731  1
  O  O44  1  0.76171065  0.59834731  0.04571149  1
  O  O45  1  0.40165269  0.95428851  0.23828935  1
  O  O46  1  0.95428851  0.23828935  0.40165269  1
  O  O47  1  0.23828935  0.40165269  0.95428851  1
  O  O48  1  0.76549219  0.09753225  0.78880417  1
  O  O49  1  0.09753225  0.78880417  0.76549219  1
  O  O50  1  0.78880417  0.76549219  0.09753225  1
  O  O51  1  0.23450781  0.90246775  0.21119583  1
  O  O52  1  0.90246775  0.21119583  0.23450781  1
  O  O53  1  0.21119583  0.23450781  0.90246775  1
  O  O54  1  0.98645018  0.26421214  0.70621534  1
  O  O55  1  0.26421214  0.70621534  0.98645018  1
  O  O56  1  0.70621534  0.98645018  0.26421214  1
  O  O57  1  0.01354982  0.73578786  0.29378466  1
  O  O58  1  0.73578786  0.29378466  0.01354982  1
  O  O59  1  0.29378466  0.01354982  0.73578786  1
  O  O60  1  0.93584243  0.09633962  0.57009414  1
  O  O61  1  0.09633962  0.57009414  0.93584243  1
  O  O62  1  0.57009414  0.93584243  0.09633962  1
  O  O63  1  0.06415757  0.90366038  0.42990586  1
  O  O64  1  0.90366038  0.42990586  0.06415757  1
  O  O65  1  0.42990586  0.06415757  0.90366038  1
loop_
_geom_bond_atom_site_label_1
_geom_bond_atom_site_label_2
_geom_bond_distance
_geom_bond_site_symmetry_2
Cr0 O1 1.986596 1_444
Cr0 O4 1.986596 1_555
Cr0 O3 1.986596 1_555
Cr0 O0 1.986596 1_444
Cr0 O2 1.986596 1_444
Cr0 O5 1.986596 1_555
Cr1 O10 2.004823 1_555
Cr1 O7 2.004823 1_555
Cr1 O11 2.004823 1_555
Cr1 O8 2.004823 1_555
Cr1 O9 2.004823 1_555
Cr1 O6 2.004823 1_555
Co0 N33 1.717081 1_555
Co0 N24 1.726681 1_555
Co0 N0 2.006365 1_555
Co0 N14 2.019001 1_555
Co0 N6 2.062707 1_555
Co0 N21 2.068560 1_555
Co1 N34 1.717081 1_555
Co1 N25 1.726681 1_555
Co1 N1 2.006365 1_555
Co1 N12 2.019001 1_555
Co1 N7 2.062707 1_555
Co1 N22 2.068560 1_555
Co2 N35 1.717081 1_555
Co2 N26 1.726681 1_555
Co2 N2 2.006365 1_555
Co2 N13 2.019001 1_555
Co2 N8 2.062707 1_555
Co2 N23 2.068560 1_555
Co3 N30 1.717081 1_555
Co3 N27 1.726681 1_555
Co3 N3 2.006365 1_555
Co3 N17 2.019001 1_555
Co3 N9 2.062707 1_555
Co3 N18 2.068560 1_555
Co4 N31 1.717081 1_555
Co4 N28 1.726681 1_555
Co4 N4 2.006365 1_555
Co4 N15 2.019001 1_555
Co4 N10 2.062707 1_555
Co4 N19 2.068560 1_555
Co5 N32 1.717081 1_555
Co5 N29 1.726681 1_555
Co5 N5 2.006365 1_555
Co5 N16 2.019001 1_555
Co5 N11 2.062707 1_555
Co5 N20 2.068560 1_555
H0 N36 1.016938 1_555
H1 N37 1.016938 1_555
H2 N38 1.016938 1_555
H3 N39 1.016938 1_555
H4 N40 1.016938 1_555
H5 N41 1.016938 1_555
H6 N36 1.019522 1_555
H7 N37 1.019522 1_555
H8 N38 1.019522 1_555
H9 N39 1.019522 1_555
H10 N40 1.019522 1_555
H11 N41 1.019522 1_555
H12 N42 1.013269 1_555
H13 N43 1.013269 1_555
H14 N44 1.013269 1_555
H15 N45 1.013269 1_555
H16 N46 1.013269 1_555
H17 N47 1.013269 1_555
H18 N42 1.014497 1_545
H19 N43 1.014497 1_455
H20 N44 1.014497 1_554
H21 N45 1.014497 1_565
H22 N46 1.014497 1_655
H23 N47 1.014497 1_556
H24 N48 1.011217 1_555
H25 N49 1.011217 1_555
H26 N50 1.011217 1_555
H27 N51 1.011217 1_555
H28 N52 1.011217 1_555
H29 N53 1.011217 1_555
H30 N48 1.023328 1_555
H31 N49 1.023328 1_555
H32 N50 1.023328 1_555
H33 N51 1.023328 1_555
H34 N52 1.023328 1_555
H35 N53 1.023328 1_555
H36 N54 1.016278 1_555
H37 N55 1.016278 1_555
H38 N56 1.016278 1_555
H39 N57 1.016278 1_555
H40 N58 1.016278 1_555
H41 N59 1.016278 1_555
H42 N54 1.016529 1_555
H43 N55 1.016529 1_555
H44 N56 1.016529 1_555
H45 N57 1.016529 1_555
H46 N58 1.016529 1_555
H47 N59 1.016529 1_555
C0 O0 1.285497 1_555
C0 N36 1.338454 1_555
C0 N42 1.340173 1_555
C1 O1 1.285497 1_555
C1 N37 1.338454 1_555
C1 N43 1.340173 1_555
C2 O2 1.285497 1_555
C2 N38 1.338454 1_555
C2 N44 1.340173 1_555
C3 O3 1.285497 1_555
C3 N39 1.338454 1_555
C3 N45 1.340173 1_555
C4 O4 1.285497 1_555
C4 N40 1.338454 1_555
C4 N46 1.340173 1_555
C5 O5 1.285497 1_555
C5 N41 1.338454 1_555
C5 N47 1.340173 1_555
C6 O6 1.287382 1_555
C6 N48 1.338514 1_555
C6 N54 1.342195 1_555
C7 O7 1.287382 1_555
C7 N49 1.338514 1_555
C7 N55 1.342195 1_555
C8 O8 1.287383 1_555
C8 N50 1.338514 1_555
C8 N56 1.342195 1_555
C9 O9 1.287382 1_555
C9 N51 1.338514 1_555
C9 N57 1.342195 1_555
C10 O10 1.287382 1_555
C10 N52 1.338514 1_555
C10 N58 1.342195 1_555
C11 O11 1.287383 1_555
C11 N53 1.338514 1_555
C11 N59 1.342195 1_555
N0 O24 1.238313 1_555
N0 O18 1.239451 1_555
N1 O25 1.238313 1_555
N1 O19 1.239451 1_555
N2 O26 1.238313 1_555
N2 O20 1.239451 1_555
N3 O27 1.238313 1_555
N3 O21 1.239451 1_555
N4 O28 1.238313 1_555
N4 O22 1.239451 1_555
N5 O29 1.238313 1_555
N5 O23 1.239451 1_555
N6 O36 1.230390 1_555
N6 O35 1.236523 1_555
N7 O37 1.230390 1_555
N7 O33 1.236523 1_555
N8 O38 1.230390 1_555
N8 O34 1.236523 1_555
N9 O39 1.230390 1_555
N9 O32 1.236523 1_555
N10 O40 1.230390 1_555
N10 O30 1.236523 1_555
N11 O41 1.230390 1_555
N11 O31 1.236523 1_555
N12 O42 1.230362 1_555
N12 O48 1.247611 1_555
N13 O43 1.230362 1_555
N13 O49 1.247611 1_555
N14 O44 1.230362 1_555
N14 O50 1.247611 1_555
N15 O45 1.230362 1_555
N15 O51 1.247611 1_555
N16 O46 1.230362 1_555
N16 O52 1.247611 1_555
N17 O47 1.230362 1_555
N17 O53 1.247611 1_555
N18 O54 1.223756 1_455
N18 O60 1.230788 1_455
N19 O55 1.223756 1_554
N19 O61 1.230788 1_554
N20 O56 1.223756 1_545
N20 O62 1.230788 1_545
N21 O57 1.223756 1_655
N21 O63 1.230788 1_655
N22 O58 1.223756 1_556
N22 O64 1.230788 1_556
N23 O59 1.223756 1_565
N23 O65 1.230788 1_565
