# generated using pymatgen
data_Mn6OF11
_symmetry_space_group_name_H-M   'P 1'
_cell_length_a   11.13818822
_cell_length_b   11.13818822
_cell_length_c   3.30382900
_cell_angle_alpha   90.00000000
_cell_angle_beta   90.00000000
_cell_angle_gamma   143.83995423
_symmetry_Int_Tables_number   1
_chemical_formula_structural   Mn6OF11
_chemical_formula_sum   'Mn6 O1 F11'
_cell_volume   241.84114185
_cell_formula_units_Z   1
loop_
 _symmetry_equiv_pos_site_id
 _symmetry_equiv_pos_as_xyz
  1  'x, y, z'
loop_
 _atom_site_type_symbol
 _atom_site_label
 _atom_site_symmetry_multiplicity
 _atom_site_fract_x
 _atom_site_fract_y
 _atom_site_fract_z
 _atom_site_occupancy
  Mn  Mn0  1  0.98447700  0.98447700  0.00000000  1
  Mn  Mn1  1  0.16727200  0.83390500  0.50000000  1
  Mn  Mn2  1  0.52207700  0.52207700  0.50000000  1
  Mn  Mn3  1  0.33392700  0.66584400  0.00000000  1
  Mn  Mn4  1  0.66584400  0.33392700  0.00000000  1
  Mn  Mn5  1  0.83390500  0.16727200  0.50000000  1
  O  O0  1  0.69399200  0.69399200  0.00000000  1
  F  F0  1  0.06637000  0.93767400  0.50000000  1
  F  F1  1  0.97197100  0.63856700  0.00000000  1
  F  F2  1  0.30332200  0.30332200  0.00000000  1
  F  F3  1  0.63856700  0.97197100  0.00000000  1
  F  F4  1  0.26801400  0.73214600  0.50000000  1
  F  F5  1  0.59696800  0.39375000  0.50000000  1
  F  F6  1  0.73214600  0.26801400  0.50000000  1
  F  F7  1  0.39375000  0.59696800  0.50000000  1
  F  F8  1  0.02791000  0.36147800  0.00000000  1
  F  F9  1  0.36147800  0.02791000  0.00000000  1
  F  F10  1  0.93767400  0.06637000  0.50000000  1
loop_
_geom_bond_atom_site_label_1
_geom_bond_atom_site_label_2
_geom_bond_distance
_geom_bond_site_symmetry_2
Mn0 O0 2.008228 1_555
Mn2 O0 2.035038 1_556
Mn2 O0 2.035038 1_555
F0 Mn0 2.144850 1_456
F0 Mn0 2.144850 1_455
F0 Mn1 2.167126 1_555
F1 Mn4 2.111285 1_555
F1 Mn1 2.133582 1_654
F1 Mn1 2.133582 1_655
F2 Mn0 2.204291 1_445
F2 Mn2 2.239636 1_555
F2 Mn2 2.239636 1_554
F3 Mn3 2.111285 1_555
F3 Mn5 2.133582 1_565
F3 Mn5 2.133582 1_564
F4 Mn1 2.144130 1_555
F4 Mn3 2.165319 1_556
F4 Mn3 2.165319 1_555
F5 Mn4 2.141667 1_556
F5 Mn4 2.141667 1_555
F5 Mn2 2.159632 1_555
F6 Mn5 2.144130 1_555
F6 Mn4 2.165319 1_555
F6 Mn4 2.165319 1_556
F7 Mn3 2.141667 1_556
F7 Mn3 2.141667 1_555
F7 Mn2 2.159632 1_555
F8 Mn3 2.109972 1_555
F8 Mn5 2.128281 1_454
F8 Mn5 2.128281 1_455
F9 Mn4 2.109972 1_555
F9 Mn1 2.128281 1_544
F9 Mn1 2.128281 1_545
F10 Mn0 2.144850 1_545
F10 Mn0 2.144850 1_546
F10 Mn5 2.167126 1_555
