# generated using pymatgen
data_PrNdO2
_symmetry_space_group_name_H-M   'P 1'
_cell_length_a   6.21730401
_cell_length_b   6.21730401
_cell_length_c   6.21730401
_cell_angle_alpha   131.79393468
_cell_angle_beta   131.79393468
_cell_angle_gamma   70.55468000
_symmetry_Int_Tables_number   1
_chemical_formula_structural   PrNdO2
_chemical_formula_sum   'Pr2 Nd2 O4'
_cell_volume   130.88129124
_cell_formula_units_Z   2
loop_
 _symmetry_equiv_pos_site_id
 _symmetry_equiv_pos_as_xyz
  1  'x, y, z'
loop_
 _atom_site_type_symbol
 _atom_site_label
 _atom_site_symmetry_multiplicity
 _atom_site_fract_x
 _atom_site_fract_y
 _atom_site_fract_z
 _atom_site_occupancy
  Pr  Pr0  1  0.75000000  0.25000000  0.50000000  1
  Pr  Pr1  1  0.00000000  0.00000000  0.00000000  1
  Nd  Nd0  1  0.50000000  0.50000000  0.00000000  1
  Nd  Nd1  1  0.25000000  0.75000000  0.50000000  1
  O  O0  1  0.49817000  0.99817000  0.50000000  1
  O  O1  1  0.25183000  0.25183000  0.00000000  1
  O  O2  1  0.74817000  0.74817000  0.00000000  1
  O  O3  1  0.00183000  0.50183000  0.50000000  1
loop_
_geom_bond_atom_site_label_1
_geom_bond_atom_site_label_2
_geom_bond_distance
_geom_bond_site_symmetry_2
Nd0 O2 2.519221 1_555
Nd0 O1 2.519221 1_555
Nd0 O0 2.539083 1_544
Nd0 O3 2.539083 1_655
Nd0 O0 2.539083 1_555
Nd0 O3 2.539083 1_554
Nd1 O3 2.519221 1_555
Nd1 O0 2.519221 1_555
Nd1 O2 2.539083 1_455
Nd1 O1 2.539083 1_555
Nd1 O1 2.539083 1_566
Nd1 O2 2.539083 1_556
O0 Pr1 2.539083 1_565
O0 Pr1 2.539083 1_666
O0 Pr0 2.556375 1_565
O1 Pr0 2.539083 1_454
O1 Pr0 2.539083 1_555
O1 Pr1 2.556375 1_555
O2 Pr0 2.539083 1_554
O2 Pr0 2.539083 1_565
O2 Pr1 2.556375 1_665
O3 Pr1 2.539083 1_566
O3 Pr1 2.539083 1_555
O3 Pr0 2.556375 1_455
