# generated using pymatgen
data_SrSc2O4
_symmetry_space_group_name_H-M   'P 1'
_cell_length_a   3.19476322
_cell_length_b   9.71199018
_cell_length_c   11.31994639
_cell_angle_alpha   90.00000000
_cell_angle_beta   90.00000000
_cell_angle_gamma   90.00000000
_symmetry_Int_Tables_number   1
_chemical_formula_structural   SrSc2O4
_chemical_formula_sum   'Sr4 Sc8 O16'
_cell_volume   351.22973872
_cell_formula_units_Z   4
loop_
 _symmetry_equiv_pos_site_id
 _symmetry_equiv_pos_as_xyz
  1  'x, y, z'
loop_
 _atom_site_type_symbol
 _atom_site_label
 _atom_site_symmetry_multiplicity
 _atom_site_fract_x
 _atom_site_fract_y
 _atom_site_fract_z
 _atom_site_occupancy
  Sr  Sr0  1  0.75000000  0.24520880  0.65340106  1
  Sr  Sr1  1  0.25000000  0.25479120  0.15340106  1
  Sr  Sr2  1  0.75000000  0.74520880  0.84659894  1
  Sr  Sr3  1  0.25000000  0.75479120  0.34659894  1
  Sc  Sc0  1  0.75000000  0.07034801  0.88985978  1
  Sc  Sc1  1  0.75000000  0.07837583  0.39369994  1
  Sc  Sc2  1  0.25000000  0.42162417  0.89369994  1
  Sc  Sc3  1  0.25000000  0.42965199  0.38985978  1
  Sc  Sc4  1  0.75000000  0.57034801  0.61014022  1
  Sc  Sc5  1  0.75000000  0.57837583  0.10630006  1
  Sc  Sc6  1  0.25000000  0.92162417  0.60630006  1
  Sc  Sc7  1  0.25000000  0.92965199  0.11014022  1
  O  O0  1  0.25000000  0.02102228  0.28323408  1
  O  O1  1  0.75000000  0.07420871  0.07393513  1
  O  O2  1  0.25000000  0.11695288  0.52020715  1
  O  O3  1  0.25000000  0.20809305  0.83987250  1
  O  O4  1  0.75000000  0.29190695  0.33987250  1
  O  O5  1  0.75000000  0.38304712  0.02020715  1
  O  O6  1  0.25000000  0.42579129  0.57393513  1
  O  O7  1  0.75000000  0.47897772  0.78323408  1
  O  O8  1  0.25000000  0.52102228  0.21676592  1
  O  O9  1  0.75000000  0.57420871  0.42606487  1
  O  O10  1  0.25000000  0.61695288  0.97979285  1
  O  O11  1  0.25000000  0.70809305  0.66012750  1
  O  O12  1  0.75000000  0.79190695  0.16012750  1
  O  O13  1  0.75000000  0.88304712  0.47979285  1
  O  O14  1  0.25000000  0.92579129  0.92606487  1
  O  O15  1  0.75000000  0.97897772  0.71676592  1
loop_
_geom_bond_atom_site_label_1
_geom_bond_atom_site_label_2
_geom_bond_distance
_geom_bond_site_symmetry_2
O0 Sc1 2.103703 1_455
O0 Sc1 2.103703 1_555
O0 Sc7 2.150990 1_545
O0 Sr3 2.683282 1_545
O0 Sr1 2.704546 1_555
O1 Sc0 2.084060 1_554
O1 Sc7 2.165785 1_645
O1 Sc7 2.165785 1_545
O1 Sr1 2.537063 1_555
O1 Sr1 2.537063 1_655
O2 Sc6 2.132723 1_545
O2 Sc1 2.177792 1_455
O2 Sc1 2.177792 1_555
O2 Sr0 2.525174 1_455
O2 Sr0 2.525174 1_555
O3 Sc0 2.159044 1_555
O3 Sc0 2.159044 1_455
O3 Sc2 2.161475 1_555
O3 Sr0 2.671561 1_555
O3 Sr0 2.671561 1_455
O4 Sc3 2.159044 1_655
O4 Sc3 2.159044 1_555
O4 Sc1 2.161475 1_555
O4 Sr1 2.671561 1_655
O4 Sr1 2.671561 1_555
O5 Sc5 2.132723 1_555
O5 Sc2 2.177792 1_654
O5 Sc2 2.177792 1_554
O5 Sr1 2.525174 1_655
O5 Sr1 2.525174 1_555
O6 Sc3 2.084060 1_555
O6 Sc4 2.165785 1_455
O6 Sc4 2.165785 1_555
O6 Sr0 2.537063 1_455
O6 Sr0 2.537063 1_555
O7 Sc2 2.103703 1_655
O7 Sc2 2.103703 1_555
O7 Sc4 2.150990 1_555
O7 Sr2 2.683282 1_555
O7 Sr0 2.704546 1_555
O8 Sc5 2.103703 1_555
O8 Sc5 2.103703 1_455
O8 Sc3 2.150990 1_555
O8 Sr1 2.683282 1_555
O8 Sr3 2.704546 1_555
O9 Sc4 2.084060 1_555
O9 Sc3 2.165785 1_555
O9 Sc3 2.165785 1_655
O9 Sr3 2.537063 1_555
O9 Sr3 2.537063 1_655
O10 Sc2 2.132723 1_555
O10 Sc5 2.177792 1_456
O10 Sc5 2.177792 1_556
O10 Sr2 2.525174 1_455
O10 Sr2 2.525174 1_555
O11 Sc4 2.159044 1_555
O11 Sc4 2.159044 1_455
O11 Sc6 2.161475 1_555
O11 Sr2 2.671561 1_455
O11 Sr2 2.671561 1_555
O12 Sc7 2.159044 1_555
O12 Sc7 2.159044 1_655
O12 Sc5 2.161475 1_555
O12 Sr3 2.671561 1_555
O12 Sr3 2.671561 1_655
O13 Sc1 2.132723 1_565
O13 Sc6 2.177792 1_555
O13 Sc6 2.177792 1_655
O13 Sr3 2.525174 1_555
O13 Sr3 2.525174 1_655
O14 Sc7 2.084060 1_556
O14 Sc0 2.165785 1_565
O14 Sc0 2.165785 1_465
O14 Sr2 2.537063 1_455
O14 Sr2 2.537063 1_555
O15 Sc6 2.103703 1_555
O15 Sc6 2.103703 1_655
O15 Sc0 2.150990 1_565
O15 Sr0 2.683282 1_565
O15 Sr2 2.704546 1_555
