# generated using pymatgen
data_KSnO2
_symmetry_space_group_name_H-M   'P 1'
_cell_length_a   6.62364180
_cell_length_b   6.64019421
_cell_length_c   7.42185470
_cell_angle_alpha   96.29416566
_cell_angle_beta   115.87508250
_cell_angle_gamma   102.40812717
_symmetry_Int_Tables_number   1
_chemical_formula_structural   KSnO2
_chemical_formula_sum   'K4 Sn4 O8'
_cell_volume   279.05361891
_cell_formula_units_Z   4
loop_
 _symmetry_equiv_pos_site_id
 _symmetry_equiv_pos_as_xyz
  1  'x, y, z'
loop_
 _atom_site_type_symbol
 _atom_site_label
 _atom_site_symmetry_multiplicity
 _atom_site_fract_x
 _atom_site_fract_y
 _atom_site_fract_z
 _atom_site_occupancy
  K  K0  1  0.26432780  0.97759774  0.26261238  1
  K  K1  1  0.75583187  0.54713381  0.01074485  1
  K  K2  1  0.24416813  0.45286619  0.98925515  1
  K  K3  1  0.73567220  0.02240226  0.73738762  1
  Sn  Sn0  1  0.21398162  0.89472297  0.73958760  1
  Sn  Sn1  1  0.73891534  0.50945261  0.50049384  1
  Sn  Sn2  1  0.26108466  0.49054739  0.49950616  1
  Sn  Sn3  1  0.78601838  0.10527703  0.26041240  1
  O  O0  1  0.02055842  0.69203034  0.44099665  1
  O  O1  1  0.41634367  0.69247465  0.78322891  1
  O  O2  1  0.95858737  0.70965522  0.79047923  1
  O  O3  1  0.48456649  0.67073165  0.40885774  1
  O  O4  1  0.58365633  0.30752535  0.21677109  1
  O  O5  1  0.97944158  0.30796966  0.55900335  1
  O  O6  1  0.51543351  0.32926835  0.59114226  1
  O  O7  1  0.04141263  0.29034478  0.20952077  1
loop_
_geom_bond_atom_site_label_1
_geom_bond_atom_site_label_2
_geom_bond_distance
_geom_bond_site_symmetry_2
K0 O7 2.763580 1_565
K0 O6 2.776215 1_565
K0 O3 2.799740 1_555
K0 O4 2.861677 1_565
K0 O0 3.009331 1_555
K0 O2 3.230512 1_454
K1 O1 2.610548 1_554
K1 O2 2.705729 1_554
K1 O4 2.728712 1_555
K1 O0 2.812729 1_655
K1 O6 2.832097 1_554
K1 O7 2.857270 1_655
K2 O4 2.610548 1_556
K2 O7 2.705729 1_556
K2 O1 2.728712 1_555
K2 O5 2.812729 1_455
K2 O3 2.832097 1_556
K2 O2 2.857270 1_455
K3 O2 2.763580 1_545
K3 O3 2.776215 1_545
K3 O6 2.799740 1_555
K3 O1 2.861677 1_545
K3 O5 3.009331 1_555
K3 O7 3.230512 1_656
O0 Sn0 2.119159 1_555
O0 Sn2 2.226254 1_555
O0 Sn1 2.238155 1_455
O1 Sn2 2.046416 1_555
O1 Sn0 2.048195 1_555
O2 Sn0 2.068952 1_655
O2 Sn1 2.079559 1_555
O3 Sn2 2.088048 1_555
O3 Sn1 2.093484 1_555
O4 Sn1 2.046416 1_555
O4 Sn3 2.048195 1_555
O5 Sn3 2.119159 1_555
O5 Sn1 2.226254 1_555
O5 Sn2 2.238155 1_655
O6 Sn1 2.088048 1_555
O6 Sn2 2.093484 1_555
O7 Sn3 2.068952 1_455
O7 Sn2 2.079559 1_555
