# generated using pymatgen
data_Li4Fe9CoO20
_symmetry_space_group_name_H-M   'P 1'
_cell_length_a   2.93307700
_cell_length_b   5.95307600
_cell_length_c   21.25019833
_cell_angle_alpha   82.03065150
_cell_angle_beta   90.00000000
_cell_angle_gamma   90.00000000
_symmetry_Int_Tables_number   1
_chemical_formula_structural   Li4Fe9CoO20
_chemical_formula_sum   'Li4 Fe9 Co1 O20'
_cell_volume   367.46268465
_cell_formula_units_Z   1
loop_
 _symmetry_equiv_pos_site_id
 _symmetry_equiv_pos_as_xyz
  1  'x, y, z'
loop_
 _atom_site_type_symbol
 _atom_site_label
 _atom_site_symmetry_multiplicity
 _atom_site_fract_x
 _atom_site_fract_y
 _atom_site_fract_z
 _atom_site_occupancy
  Li  Li0  1  0.50000000  0.70340600  0.60695000  1
  Li  Li1  1  0.50000000  0.29659400  0.39305000  1
  Li  Li2  1  0.00000000  0.69468500  0.09945700  1
  Li  Li3  1  0.00000000  0.30531500  0.90054300  1
  Fe  Fe0  1  0.50000000  0.62426400  0.79449200  1
  Fe  Fe1  1  0.00000000  0.36449700  0.70236700  1
  Fe  Fe2  1  0.50000000  0.20016900  0.59664800  1
  Fe  Fe3  1  0.00000000  0.00000000  0.50000000  1
  Fe  Fe4  1  0.50000000  0.79983100  0.40335200  1
  Fe  Fe5  1  0.00000000  0.63550300  0.29763300  1
  Fe  Fe6  1  0.50000000  0.37573600  0.20550800  1
  Fe  Fe7  1  0.00000000  0.20901400  0.09601600  1
  Fe  Fe8  1  0.00000000  0.79098600  0.90398400  1
  Co  Co0  1  0.50000000  0.00000000  0.00000000  1
  O  O0  1  0.50000000  0.57374900  0.89556000  1
  O  O1  1  0.00000000  0.82933600  0.80305100  1
  O  O2  1  0.00000000  0.39916500  0.79793000  1
  O  O3  1  0.50000000  0.15558700  0.68631500  1
  O  O4  1  0.50000000  0.59035600  0.69948400  1
  O  O5  1  0.00000000  0.97509900  0.59471300  1
  O  O6  1  0.00000000  0.41055800  0.60158500  1
  O  O7  1  0.50000000  0.22413600  0.50667000  1
  O  O8  1  0.50000000  0.77586400  0.49333000  1
  O  O9  1  0.00000000  0.02490100  0.40528700  1
  O  O10  1  0.00000000  0.58944200  0.39841500  1
  O  O11  1  0.50000000  0.84441300  0.31368500  1
  O  O12  1  0.50000000  0.40964400  0.30051600  1
  O  O13  1  0.00000000  0.17066400  0.19694900  1
  O  O14  1  0.00000000  0.60083500  0.20207000  1
  O  O15  1  0.50000000  0.97462500  0.08919300  1
  O  O16  1  0.50000000  0.42625100  0.10444000  1
  O  O17  1  0.00000000  0.20690500  0.99956100  1
  O  O18  1  0.00000000  0.79309500  0.00043900  1
  O  O19  1  0.50000000  0.02537500  0.91080700  1
loop_
_geom_bond_atom_site_label_1
_geom_bond_atom_site_label_2
_geom_bond_distance
_geom_bond_site_symmetry_2
Li0 O4 1.988107 1_555
Li0 O5 2.172037 1_555
Li0 O5 2.172037 1_655
Li0 O6 2.293055 1_555
Li0 O6 2.293055 1_655
Li0 O8 2.393080 1_555
Li1 O12 1.988107 1_555
Li1 O9 2.172037 1_555
Li1 O9 2.172037 1_655
Li1 O10 2.293055 1_655
Li1 O10 2.293055 1_555
Li1 O7 2.393080 1_555
Li2 O18 2.104485 1_555
Li2 O16 2.160708 1_555
Li2 O16 2.160708 1_455
Li2 O14 2.174653 1_555
Li2 O15 2.207885 1_455
Li2 O15 2.207885 1_555
Li3 O17 2.104485 1_555
Li3 O0 2.160708 1_455
Li3 O0 2.160708 1_555
Li3 O2 2.174653 1_555
Li3 O19 2.207885 1_455
Li3 O19 2.207885 1_555
Fe0 O1 1.932811 1_655
Fe0 O1 1.932811 1_555
Fe0 O2 1.981063 1_555
Fe0 O2 1.981063 1_655
Fe0 O4 2.056663 1_555
Fe0 O0 2.126975 1_555
Fe1 O3 1.982777 1_555
Fe1 O3 1.982777 1_455
Fe1 O4 1.984812 1_555
Fe1 O4 1.984812 1_455
Fe1 O2 2.069464 1_555
Fe1 O6 2.121076 1_555
Fe2 O3 1.887040 1_555
Fe2 O7 1.897537 1_555
Fe2 O6 1.940834 1_555
Fe2 O6 1.940834 1_655
Fe2 O5 1.990710 1_645
Fe2 O5 1.990710 1_545
Fe3 O5 1.997520 1_545
Fe3 O9 1.997520 1_555
Fe3 O8 2.000905 1_445
Fe3 O8 2.000905 1_545
Fe3 O7 2.000905 1_455
Fe3 O7 2.000905 1_555
Fe4 O11 1.887040 1_555
Fe4 O8 1.897537 1_555
Fe4 O10 1.940834 1_555
Fe4 O10 1.940834 1_655
Fe4 O9 1.990710 1_665
Fe4 O9 1.990710 1_565
Fe5 O11 1.982777 1_555
Fe5 O11 1.982777 1_455
Fe5 O12 1.984812 1_455
Fe5 O12 1.984812 1_555
Fe5 O14 2.069464 1_555
Fe5 O10 2.121076 1_555
Fe6 O13 1.932811 1_555
Fe6 O13 1.932811 1_655
Fe6 O14 1.981063 1_655
Fe6 O14 1.981063 1_555
Fe6 O12 2.056663 1_555
Fe6 O16 2.126975 1_555
Fe7 O16 1.979751 1_455
Fe7 O16 1.979751 1_555
Fe7 O15 2.043237 1_545
Fe7 O15 2.043237 1_445
Fe7 O17 2.051466 1_554
Fe7 O13 2.125255 1_555
Fe8 O0 1.979751 1_455
Fe8 O0 1.979751 1_555
Fe8 O19 2.043237 1_565
Fe8 O19 2.043237 1_465
Fe8 O18 2.051466 1_556
Fe8 O1 2.125255 1_555
Co0 O15 1.880386 1_545
Co0 O19 1.880386 1_554
Co0 O17 1.914360 1_554
Co0 O17 1.914360 1_654
Co0 O18 1.914360 1_645
Co0 O18 1.914360 1_545
