# generated using pymatgen
data_KMn2P2HO9
_symmetry_space_group_name_H-M   'P 1'
_cell_length_a   6.78175500
_cell_length_b   6.56688600
_cell_length_c   8.94472447
_cell_angle_alpha   70.02982638
_cell_angle_beta   90.00000000
_cell_angle_gamma   90.00000000
_symmetry_Int_Tables_number   1
_chemical_formula_structural   KMn2P2HO9
_chemical_formula_sum   'K2 Mn4 P4 H2 O18'
_cell_volume   374.40063499
_cell_formula_units_Z   2
loop_
 _symmetry_equiv_pos_site_id
 _symmetry_equiv_pos_as_xyz
  1  'x, y, z'
loop_
 _atom_site_type_symbol
 _atom_site_label
 _atom_site_symmetry_multiplicity
 _atom_site_fract_x
 _atom_site_fract_y
 _atom_site_fract_z
 _atom_site_occupancy
  K  K0  1  0.25000000  0.92834100  0.20061500  1
  K  K1  1  0.75000000  0.07165900  0.79938500  1
  Mn  Mn0  1  0.25000000  0.46788800  0.70940800  1
  Mn  Mn1  1  0.75000000  0.53211200  0.29059200  1
  Mn  Mn2  1  0.50000000  0.50000000  0.00000000  1
  Mn  Mn3  1  0.00000000  0.50000000  0.00000000  1
  P  P0  1  0.25000000  0.90196200  0.80977000  1
  P  P1  1  0.75000000  0.59326900  0.64149000  1
  P  P2  1  0.25000000  0.40673100  0.35851000  1
  P  P3  1  0.75000000  0.09803800  0.19023000  1
  H  H0  1  0.75000000  0.02300400  0.45235700  1
  H  H1  1  0.25000000  0.97699600  0.54764300  1
  O  O0  1  0.43702100  0.80994900  0.90954900  1
  O  O1  1  0.06297900  0.80994900  0.90954900  1
  O  O2  1  0.75000000  0.83982000  0.58368400  1
  O  O3  1  0.25000000  0.83185100  0.65592800  1
  O  O4  1  0.75000000  0.85424400  0.24399600  1
  O  O5  1  0.25000000  0.42607000  0.93322300  1
  O  O6  1  0.93438800  0.49642700  0.74891600  1
  O  O7  1  0.56561200  0.49642700  0.74891600  1
  O  O8  1  0.25000000  0.51819800  0.48755400  1
  O  O9  1  0.75000000  0.48180200  0.51244600  1
  O  O10  1  0.43438800  0.50357300  0.25108400  1
  O  O11  1  0.06561200  0.50357300  0.25108400  1
  O  O12  1  0.75000000  0.57393000  0.06677700  1
  O  O13  1  0.25000000  0.14575600  0.75600400  1
  O  O14  1  0.75000000  0.16814900  0.34407200  1
  O  O15  1  0.25000000  0.16018000  0.41631600  1
  O  O16  1  0.93702100  0.19005100  0.09045100  1
  O  O17  1  0.56297900  0.19005100  0.09045100  1
loop_
_geom_bond_atom_site_label_1
_geom_bond_atom_site_label_2
_geom_bond_distance
_geom_bond_site_symmetry_2
K0 O17 2.696864 1_565
K0 O16 2.696864 1_465
K0 O15 2.836697 1_565
K0 O10 2.947561 1_555
K0 O11 2.947561 1_555
K0 O8 3.019892 1_555
K0 O0 3.220865 1_554
K0 O1 3.220865 1_554
K1 O1 2.696864 1_645
K1 O0 2.696864 1_545
K1 O2 2.836697 1_545
K1 O6 2.947561 1_555
K1 O7 2.947561 1_555
K1 O9 3.019892 1_555
K1 O17 3.220865 1_556
K1 O16 3.220865 1_556
Mn0 O8 1.897172 1_555
Mn0 O5 1.925551 1_555
Mn0 O13 2.011569 1_555
Mn0 O6 2.187823 1_455
Mn0 O7 2.187823 1_555
Mn0 O3 2.271664 1_555
Mn1 O9 1.897172 1_555
Mn1 O12 1.925551 1_555
Mn1 O4 2.011569 1_555
Mn1 O11 2.187823 1_655
Mn1 O10 2.187823 1_555
Mn1 O14 2.271664 1_555
Mn2 O12 1.914435 1_555
Mn2 O5 1.914435 1_554
Mn2 O0 1.963418 1_554
Mn2 O17 1.963418 1_555
Mn2 O10 2.297499 1_555
Mn2 O7 2.297499 1_554
Mn3 O12 1.914435 1_455
Mn3 O5 1.914435 1_554
Mn3 O1 1.963418 1_554
Mn3 O16 1.963418 1_455
Mn3 O11 2.297499 1_555
Mn3 O6 2.297499 1_454
H0 O14 1.102741 1_555
H0 O2 1.364457 1_545
H1 O3 1.102741 1_555
H1 O15 1.364457 1_565
O0 P0 1.549824 1_555
O1 P0 1.549824 1_555
O2 P1 1.522142 1_555
O3 P0 1.593210 1_555
O4 P3 1.506143 1_565
O6 P1 1.572906 1_555
O7 P1 1.572906 1_555
O8 P2 1.563733 1_555
O9 P1 1.563733 1_555
O10 P2 1.572906 1_555
O11 P2 1.572906 1_555
O13 P0 1.506143 1_545
O14 P3 1.593210 1_555
O15 P2 1.522142 1_555
O16 P3 1.549824 1_555
O17 P3 1.549824 1_555
