# generated using pymatgen
data_Ba2Sb2O7
_symmetry_space_group_name_H-M   'P 1'
_cell_length_a   7.77424758
_cell_length_b   7.77424758
_cell_length_c   7.77424758
_cell_angle_alpha   119.84927672
_cell_angle_beta   117.33747705
_cell_angle_gamma   92.46730052
_symmetry_Int_Tables_number   1
_chemical_formula_structural   Ba2Sb2O7
_chemical_formula_sum   'Ba4 Sb4 O14'
_cell_volume   338.77692388
_cell_formula_units_Z   2
loop_
 _symmetry_equiv_pos_site_id
 _symmetry_equiv_pos_as_xyz
  1  'x, y, z'
loop_
 _atom_site_type_symbol
 _atom_site_label
 _atom_site_symmetry_multiplicity
 _atom_site_fract_x
 _atom_site_fract_y
 _atom_site_fract_z
 _atom_site_occupancy
  Ba  Ba0  1  0.00000000  0.00000000  0.00000000  1
  Ba  Ba1  1  0.50000000  0.50000000  0.00000000  1
  Ba  Ba2  1  0.00000000  0.00000000  0.50000000  1
  Ba  Ba3  1  0.00000000  0.50000000  0.00000000  1
  Sb  Sb0  1  0.50000000  0.00000000  0.00000000  1
  Sb  Sb1  1  0.50000000  0.00000000  0.50000000  1
  Sb  Sb2  1  0.50000000  0.50000000  0.50000000  1
  Sb  Sb3  1  0.00000000  0.50000000  0.50000000  1
  O  O0  1  0.80579200  0.18167000  0.22742900  1
  O  O1  1  0.40455800  0.25000000  0.15455800  1
  O  O2  1  0.88056200  0.58809400  0.29246800  1
  O  O3  1  0.79562600  0.08809400  0.70753200  1
  O  O4  1  0.54575900  0.31833000  0.62412200  1
  O  O5  1  0.45424100  0.07836300  0.77257100  1
  O  O6  1  0.80579200  0.57836300  0.62412200  1
  O  O7  1  0.19420800  0.42163700  0.37587800  1
  O  O8  1  0.45424100  0.68167000  0.37587800  1
  O  O9  1  0.54575900  0.92163700  0.22742900  1
  O  O10  1  0.11943800  0.41190600  0.70753200  1
  O  O11  1  0.20437400  0.91190600  0.29246800  1
  O  O12  1  0.59544200  0.75000000  0.84544200  1
  O  O13  1  0.19420800  0.81833000  0.77257100  1
loop_
_geom_bond_atom_site_label_1
_geom_bond_atom_site_label_2
_geom_bond_distance
_geom_bond_site_symmetry_2
Ba0 O11 2.547357 1_545
Ba0 O3 2.547357 1_454
Ba0 O7 2.747741 1_555
Ba0 O13 2.747741 1_544
Ba0 O0 2.747741 1_455
Ba0 O6 2.747741 1_444
Ba0 O12 2.964985 1_444
Ba0 O1 2.964985 1_555
Ba1 O2 2.547357 1_555
Ba1 O10 2.547357 1_554
Ba1 O9 2.747741 1_555
Ba1 O8 2.747741 1_555
Ba1 O5 2.747741 1_554
Ba1 O4 2.747741 1_554
Ba1 O1 2.964985 1_555
Ba1 O12 2.964985 1_554
Ba2 O11 2.635295 1_545
Ba2 O2 2.635295 1_445
Ba2 O10 2.635295 1_555
Ba2 O3 2.635295 1_455
Ba2 O9 2.998143 1_445
Ba2 O13 2.998143 1_545
Ba2 O5 2.998143 1_555
Ba2 O0 2.998143 1_455
Ba3 O11 2.635295 1_555
Ba3 O2 2.635295 1_455
Ba3 O10 2.635295 1_554
Ba3 O3 2.635295 1_454
Ba3 O7 2.998143 1_555
Ba3 O6 2.998143 1_454
Ba3 O8 2.998143 1_555
Ba3 O4 2.998143 1_454
O0 Sb0 2.033968 1_555
O0 Sb3 2.100944 1_655
O1 Sb0 2.095256 1_555
O1 Sb2 2.095256 1_555
O2 Sb3 1.926921 1_655
O3 Sb1 1.926921 1_555
O4 Sb2 2.033968 1_555
O4 Sb1 2.100944 1_555
O5 Sb0 2.033968 1_556
O5 Sb1 2.100944 1_555
O6 Sb2 2.033968 1_555
O6 Sb3 2.100944 1_655
O7 Sb2 2.033968 1_555
O7 Sb3 2.100944 1_555
O8 Sb2 2.033968 1_555
O8 Sb1 2.100944 1_565
O9 Sb0 2.033968 1_565
O9 Sb1 2.100944 1_565
O10 Sb3 1.926921 1_555
O11 Sb1 1.926921 1_565
O12 Sb2 2.095256 1_555
O12 Sb0 2.095256 1_566
O13 Sb0 2.033968 1_566
O13 Sb3 2.100944 1_555
