# generated using pymatgen
data_Li4Bi2C4SO16
_symmetry_space_group_name_H-M   'P 1'
_cell_length_a   10.06235580
_cell_length_b   9.64386426
_cell_length_c   10.18860178
_cell_angle_alpha   59.16848577
_cell_angle_beta   58.27445748
_cell_angle_gamma   63.10846594
_symmetry_Int_Tables_number   1
_chemical_formula_structural   Li4Bi2C4SO16
_chemical_formula_sum   'Li8 Bi4 C8 S2 O32'
_cell_volume   699.13754846
_cell_formula_units_Z   2
loop_
 _symmetry_equiv_pos_site_id
 _symmetry_equiv_pos_as_xyz
  1  'x, y, z'
loop_
 _atom_site_type_symbol
 _atom_site_label
 _atom_site_symmetry_multiplicity
 _atom_site_fract_x
 _atom_site_fract_y
 _atom_site_fract_z
 _atom_site_occupancy
  Li  Li0  1  0.93057200  0.33474400  0.30504300  1
  Li  Li1  1  0.06993800  0.05877300  0.66787300  1
  Li  Li2  1  0.70869700  0.66820000  0.05877600  1
  Li  Li3  1  0.35372100  0.29253800  0.94885800  1
  Li  Li4  1  0.91033100  0.94180000  0.30881700  1
  Li  Li5  1  0.92045400  0.30209600  0.93103000  1
  Li  Li6  1  0.06541100  0.70003200  0.68409500  1
  Li  Li7  1  0.30726200  0.93545800  0.92962800  1
  Bi  Bi0  1  0.49510800  0.49476100  0.01578900  1
  Bi  Bi1  1  0.50018900  0.00223300  0.49609400  1
  Bi  Bi2  1  0.50074300  0.51695600  0.49741100  1
  Bi  Bi3  1  0.00680800  0.50178700  0.49309000  1
  C  C0  1  0.69290600  0.29233900  0.25489000  1
  C  C1  1  0.25154900  0.26093700  0.29690400  1
  C  C2  1  0.29600000  0.68248600  0.26515500  1
  C  C3  1  0.25257000  0.27508800  0.68409800  1
  C  C4  1  0.70749700  0.33402000  0.73126700  1
  C  C5  1  0.74646800  0.70613000  0.33348700  1
  C  C6  1  0.32080000  0.70662500  0.75091500  1
  C  C7  1  0.73350500  0.73394000  0.70567300  1
  S  S0  1  0.11480200  0.13578500  0.11476100  1
  S  S1  1  0.87766100  0.87537400  0.86469200  1
  O  O0  1  0.29395700  0.07257100  0.04760300  1
  O  O1  1  0.04764500  0.06841600  0.06280800  1
  O  O2  1  0.07243400  0.32181600  0.04337400  1
  O  O3  1  0.03850500  0.08188800  0.29861100  1
  O  O4  1  0.69566500  0.15057600  0.26502000  1
  O  O5  1  0.37851500  0.25117200  0.16506200  1
  O  O6  1  0.71846000  0.41349600  0.11213500  1
  O  O7  1  0.25144000  0.15641300  0.44363200  1
  O  O8  1  0.12244300  0.38207800  0.28680900  1
  O  O9  1  0.66664900  0.30655200  0.38716700  1
  O  O10  1  0.28889300  0.71159500  0.12918600  1
  O  O11  1  0.36656700  0.13854800  0.69178700  1
  O  O12  1  0.76861400  0.58452900  0.29824500  1
  O  O13  1  0.83984900  0.33021200  0.59839000  1
  O  O14  1  0.43986000  0.63725000  0.26640700  1
  O  O15  1  0.11091600  0.27941700  0.70619300  1
  O  O16  1  0.86219200  0.73200900  0.33390300  1
  O  O17  1  0.57908800  0.32120500  0.74434900  1
  O  O18  1  0.27549900  0.41162800  0.65618200  1
  O  O19  1  0.16748300  0.68803400  0.39646300  1
  O  O20  1  0.59789200  0.79670900  0.38158100  1
  O  O21  1  0.71078200  0.35797500  0.84483500  1
  O  O22  1  0.28782900  0.70922700  0.64350100  1
  O  O23  1  0.86795600  0.61797200  0.70299300  1
  O  O24  1  0.72708000  0.86245600  0.57382500  1
  O  O25  1  0.35228100  0.56465400  0.86638900  1
  O  O26  1  0.32784400  0.84253700  0.74303800  1
  O  O27  1  0.60478600  0.71977400  0.84257400  1
  O  O28  1  0.94390600  0.93571600  0.67759500  1
  O  O29  1  0.93870900  0.68707800  0.92161000  1
  O  O30  1  0.69954100  0.91121900  0.94311400  1
  O  O31  1  0.94373000  0.95317200  0.90373100  1
loop_
_geom_bond_atom_site_label_1
_geom_bond_atom_site_label_2
_geom_bond_distance
_geom_bond_site_symmetry_2
Li0 O8 2.074485 1_655
Li0 O3 2.196217 1_655
Li0 O12 2.204512 1_555
Li0 O2 2.310466 1_655
Li0 O9 2.430987 1_555
Li0 O13 2.607848 1_555
Li1 O31 1.968878 1_445
Li1 O28 2.033540 1_445
Li1 O7 2.098608 1_555
Li1 O15 2.581631 1_555
Li2 O30 1.994431 1_554
Li2 O29 2.015336 1_554
Li2 O6 2.192677 1_555
Li2 O14 2.438590 1_555
Li2 O12 2.460983 1_555
Li2 O27 2.649863 1_554
Li3 O0 2.050352 1_556
Li3 O17 2.137250 1_555
Li3 O5 2.158930 1_556
Li3 O25 2.304585 1_555
Li3 O2 2.389035 1_556
Li4 O1 2.104595 1_665
Li4 O16 2.149315 1_555
Li4 O3 2.188732 1_665
Li4 O4 2.253293 1_565
Li4 O24 2.279996 1_555
Li5 O15 2.117919 1_655
Li5 O1 2.148470 1_656
Li5 O6 2.191457 1_556
Li5 O21 2.438836 1_555
Li5 O2 2.451980 1_656
Li6 O28 2.020480 1_455
Li6 O29 2.021537 1_455
Li6 O22 2.087155 1_555
Li6 O23 2.339830 1_455
Li6 O19 2.594423 1_555
Li6 O18 2.673070 1_555
Li7 O10 2.072522 1_556
Li7 O0 2.123913 1_566
Li7 O11 2.176196 1_565
Li7 O1 2.309773 1_566
Li7 O26 2.371570 1_555
Bi0 O25 2.282450 1_554
Bi0 O27 2.287780 1_554
Bi0 O21 2.296457 1_554
Bi0 O10 2.458304 1_555
Bi0 O5 2.482397 1_555
Bi0 O6 2.562646 1_555
Bi1 O26 2.359013 1_545
Bi1 O20 2.378577 1_545
Bi1 O24 2.383274 1_545
Bi1 O4 2.383520 1_555
Bi1 O11 2.404110 1_555
Bi1 O7 2.446897 1_555
Bi2 O18 2.308227 1_555
Bi2 O14 2.309842 1_555
Bi2 O9 2.337885 1_555
Bi2 O22 2.474936 1_555
Bi2 O12 2.507739 1_555
Bi2 O17 2.527150 1_555
Bi2 O20 2.745149 1_555
Bi3 O13 2.347485 1_455
Bi3 O16 2.354980 1_455
Bi3 O23 2.383027 1_455
Bi3 O8 2.409123 1_555
Bi3 O19 2.439195 1_555
Bi3 O15 2.449012 1_555
C0 O6 1.297418 1_555
C0 O9 1.298862 1_555
C0 O4 1.305583 1_555
C1 O5 1.288969 1_555
C1 O7 1.305987 1_555
C1 O8 1.306731 1_555
C2 O19 1.286962 1_555
C2 O10 1.300181 1_555
C2 O14 1.314683 1_555
C3 O11 1.295466 1_555
C3 O18 1.299974 1_555
C3 O15 1.304778 1_555
C4 O17 1.284133 1_555
C4 O21 1.309380 1_555
C4 O13 1.310852 1_555
C5 O12 1.290306 1_555
C5 O16 1.299012 1_555
C5 O20 1.313467 1_555
C6 O22 1.286306 1_555
C6 O26 1.303716 1_555
C6 O25 1.306745 1_555
C7 O24 1.287284 1_555
C7 O23 1.305978 1_555
C7 O27 1.306342 1_555
O0 S0 1.491908 1_555
O1 S0 1.511556 1_555
O2 S0 1.492010 1_555
O3 S0 1.489595 1_555
O28 S1 1.514676 1_555
O29 S1 1.515684 1_555
O30 S1 1.478789 1_555
O31 S1 1.482664 1_555
