# generated using pymatgen
data_LiCo2NiO6
_symmetry_space_group_name_H-M   'P 1'
_cell_length_a   5.73287630
_cell_length_b   5.86300889
_cell_length_c   6.49785973
_cell_angle_alpha   104.63364582
_cell_angle_beta   103.33375038
_cell_angle_gamma   91.84957919
_symmetry_Int_Tables_number   1
_chemical_formula_structural   LiCo2NiO6
_chemical_formula_sum   'Li2 Co4 Ni2 O12'
_cell_volume   204.67102138
_cell_formula_units_Z   2
loop_
 _symmetry_equiv_pos_site_id
 _symmetry_equiv_pos_as_xyz
  1  'x, y, z'
loop_
 _atom_site_type_symbol
 _atom_site_label
 _atom_site_symmetry_multiplicity
 _atom_site_fract_x
 _atom_site_fract_y
 _atom_site_fract_z
 _atom_site_occupancy
  Li  Li0  1  0.33337000  0.83334900  0.33334900  1
  Li  Li1  1  0.83336900  0.83334900  0.33334900  1
  Co  Co0  1  0.66125300  0.66028500  0.67295200  1
  Co  Co1  1  0.00540100  0.00640000  0.99373700  1
  Co  Co2  1  0.16124900  0.66028100  0.67295000  1
  Co  Co3  1  0.50540200  0.00640300  0.99373900  1
  Ni  Ni0  1  0.83332500  0.33331300  0.33331600  1
  Ni  Ni1  1  0.33332400  0.33331200  0.33331600  1
  O  O0  1  0.07647800  0.57763400  0.36690800  1
  O  O1  1  0.57647700  0.57763500  0.36691000  1
  O  O2  1  0.09022500  0.08905300  0.29975300  1
  O  O3  1  0.59022400  0.08905400  0.29975600  1
  O  O4  1  0.42139900  0.87884600  0.68465400  1
  O  O5  1  0.92140700  0.87883800  0.68465800  1
  O  O6  1  0.24522700  0.78780100  0.98199800  1
  O  O7  1  0.74521900  0.78781100  0.98199400  1
  O  O8  1  0.40276900  0.44759300  0.64917500  1
  O  O9  1  0.90277200  0.44758100  0.64917500  1
  O  O10  1  0.26388900  0.21906000  0.01749000  1
  O  O11  1  0.76388700  0.21907200  0.01748900  1
loop_
_geom_bond_atom_site_label_1
_geom_bond_atom_site_label_2
_geom_bond_distance
_geom_bond_site_symmetry_2
Li0 O1 2.097050 1_555
Li0 O2 2.097179 1_565
Li0 O3 2.152823 1_565
Li0 O0 2.152917 1_555
Li0 O4 2.165405 1_555
Li0 O6 2.165641 1_554
Li1 O0 2.097060 1_655
Li1 O3 2.097181 1_565
Li1 O2 2.152835 1_665
Li1 O1 2.152918 1_555
Li1 O5 2.165437 1_555
Li1 O7 2.165674 1_554
Co0 O8 1.858113 1_555
Co0 O1 1.864867 1_555
Co0 O7 1.896189 1_555
Co0 O9 1.899732 1_555
Co0 O5 1.909750 1_555
Co0 O4 1.910848 1_555
Co1 O10 1.858055 1_556
Co1 O2 1.864709 1_556
Co1 O5 1.896430 1_445
Co1 O11 1.899573 1_456
Co1 O7 1.909930 1_445
Co1 O6 1.910888 1_545
Co2 O9 1.858115 1_455
Co2 O0 1.864867 1_555
Co2 O6 1.896219 1_555
Co2 O8 1.899674 1_555
Co2 O4 1.909782 1_555
Co2 O5 1.910781 1_455
Co3 O11 1.858080 1_556
Co3 O3 1.864716 1_556
Co3 O4 1.896461 1_545
Co3 O10 1.899510 1_556
Co3 O6 1.909953 1_545
Co3 O7 1.910823 1_545
Ni0 O3 1.901038 1_555
Ni0 O0 1.901445 1_655
Ni0 O11 1.931338 1_555
Ni0 O9 1.931540 1_555
Ni0 O2 2.096193 1_655
Ni0 O1 2.096236 1_555
Ni1 O2 1.901025 1_555
Ni1 O1 1.901450 1_555
Ni1 O10 1.931338 1_555
Ni1 O8 1.931546 1_555
Ni1 O3 2.096184 1_555
Ni1 O0 2.096226 1_555
