# generated using pymatgen
data_Li3MnPCO7
_symmetry_space_group_name_H-M   'P 1'
_cell_length_a   6.47858500
_cell_length_b   9.56719000
_cell_length_c   9.84107626
_cell_angle_alpha   63.69605383
_cell_angle_beta   90.00000000
_cell_angle_gamma   90.00000000
_symmetry_Int_Tables_number   1
_chemical_formula_structural   Li3MnPCO7
_chemical_formula_sum   'Li12 Mn4 P4 C4 O28'
_cell_volume   546.80955304
_cell_formula_units_Z   4
loop_
 _symmetry_equiv_pos_site_id
 _symmetry_equiv_pos_as_xyz
  1  'x, y, z'
loop_
 _atom_site_type_symbol
 _atom_site_label
 _atom_site_symmetry_multiplicity
 _atom_site_fract_x
 _atom_site_fract_y
 _atom_site_fract_z
 _atom_site_occupancy
  Li  Li0  1  0.24923200  0.10273300  0.56229600  1
  Li  Li1  1  0.25076800  0.10273300  0.06229600  1
  Li  Li2  1  0.48776500  0.28624600  0.73995300  1
  Li  Li3  1  0.01223500  0.28624600  0.23995300  1
  Li  Li4  1  0.74566000  0.35283200  0.93399500  1
  Li  Li5  1  0.75434000  0.35283200  0.43399500  1
  Li  Li6  1  0.24566000  0.64716800  0.56600500  1
  Li  Li7  1  0.25434000  0.64716800  0.06600500  1
  Li  Li8  1  0.98776500  0.71375400  0.76004700  1
  Li  Li9  1  0.51223500  0.71375400  0.26004700  1
  Li  Li10  1  0.74923200  0.89726700  0.93770400  1
  Li  Li11  1  0.75076800  0.89726700  0.43770400  1
  Mn  Mn0  1  0.00182700  0.26873300  0.73579700  1
  Mn  Mn1  1  0.49817300  0.26873300  0.23579700  1
  Mn  Mn2  1  0.50182700  0.73126700  0.76420300  1
  Mn  Mn3  1  0.99817300  0.73126700  0.26420300  1
  P  P0  1  0.24780600  0.40747100  0.93635900  1
  P  P1  1  0.25219400  0.40747100  0.43635900  1
  P  P2  1  0.74780600  0.59252900  0.56364100  1
  P  P3  1  0.75219400  0.59252900  0.06364100  1
  C  C0  1  0.75223700  0.04163000  0.62669100  1
  C  C1  1  0.74776300  0.04163000  0.12669100  1
  C  C2  1  0.25223700  0.95837000  0.87330900  1
  C  C3  1  0.24776300  0.95837000  0.37330900  1
  O  O0  1  0.76001900  0.06964900  0.98760100  1
  O  O1  1  0.73998100  0.06964900  0.48760100  1
  O  O2  1  0.25035200  0.10412500  0.76535400  1
  O  O3  1  0.76493300  0.15290700  0.66805700  1
  O  O4  1  0.24964800  0.10412500  0.26535400  1
  O  O5  1  0.73506700  0.15290700  0.16805700  1
  O  O6  1  0.05649300  0.31044400  0.93219700  1
  O  O7  1  0.43720200  0.30966900  0.93405600  1
  O  O8  1  0.06279800  0.30966900  0.43405600  1
  O  O9  1  0.44350700  0.31044400  0.43219700  1
  O  O10  1  0.74441000  0.42580500  0.69686400  1
  O  O11  1  0.24973600  0.42264600  0.58841300  1
  O  O12  1  0.75559000  0.42580500  0.19686400  1
  O  O13  1  0.25026400  0.42264600  0.08841300  1
  O  O14  1  0.74973600  0.57735400  0.91158700  1
  O  O15  1  0.24441000  0.57419500  0.80313600  1
  O  O16  1  0.75026400  0.57735400  0.41158700  1
  O  O17  1  0.25559000  0.57419500  0.30313600  1
  O  O18  1  0.93720200  0.69033100  0.56594400  1
  O  O19  1  0.55649300  0.68955600  0.56780300  1
  O  O20  1  0.94350700  0.68955600  0.06780300  1
  O  O21  1  0.56279800  0.69033100  0.06594400  1
  O  O22  1  0.26493300  0.84709300  0.83194300  1
  O  O23  1  0.75035200  0.89587500  0.73464600  1
  O  O24  1  0.23506700  0.84709300  0.33194300  1
  O  O25  1  0.74964800  0.89587500  0.23464600  1
  O  O26  1  0.26001900  0.93035100  0.51239900  1
  O  O27  1  0.23998100  0.93035100  0.01239900  1
loop_
_geom_bond_atom_site_label_1
_geom_bond_atom_site_label_2
_geom_bond_distance
_geom_bond_site_symmetry_2
Li0 O26 1.919278 1_545
Li0 O2 2.004259 1_555
Li0 O8 2.181001 1_555
Li0 O9 2.217536 1_555
Li1 O27 1.919278 1_545
Li1 O4 2.004259 1_555
Li1 O7 2.181001 1_554
Li1 O6 2.217536 1_554
Li2 O7 2.045897 1_555
Li2 O10 2.055557 1_555
Li2 O11 2.140147 1_555
Li2 O2 2.253472 1_555
Li2 O3 2.480378 1_555
Li3 O8 2.045897 1_555
Li3 O12 2.055557 1_455
Li3 O13 2.140147 1_555
Li3 O4 2.253472 1_555
Li3 O5 2.480378 1_455
Li4 O7 2.040538 1_555
Li4 O6 2.055809 1_655
Li4 O14 2.060003 1_555
Li4 O10 2.118811 1_555
Li4 O5 2.250389 1_556
Li4 O0 2.521979 1_555
Li5 O8 2.040538 1_655
Li5 O9 2.055809 1_555
Li5 O16 2.060003 1_555
Li5 O12 2.118811 1_555
Li5 O3 2.250389 1_555
Li5 O1 2.521979 1_555
Li6 O18 2.040538 1_455
Li6 O19 2.055809 1_555
Li6 O11 2.060003 1_555
Li6 O15 2.118811 1_555
Li6 O24 2.250389 1_555
Li6 O26 2.521979 1_555
Li7 O21 2.040538 1_555
Li7 O20 2.055809 1_455
Li7 O13 2.060003 1_555
Li7 O17 2.118811 1_555
Li7 O22 2.250389 1_554
Li7 O27 2.521979 1_555
Li8 O18 2.045897 1_555
Li8 O15 2.055557 1_655
Li8 O14 2.140147 1_555
Li8 O23 2.253472 1_555
Li8 O22 2.480378 1_655
Li9 O21 2.045897 1_555
Li9 O17 2.055557 1_555
Li9 O16 2.140147 1_555
Li9 O25 2.253472 1_555
Li9 O24 2.480378 1_555
Li10 O0 1.919278 1_565
Li10 O23 2.004259 1_555
Li10 O21 2.181001 1_556
Li10 O20 2.217536 1_556
Li11 O1 1.919278 1_565
Li11 O25 2.004259 1_555
Li11 O18 2.181001 1_555
Li11 O19 2.217536 1_555
Mn0 O10 2.162396 1_455
Mn0 O3 2.163902 1_455
Mn0 O6 2.168850 1_555
Mn0 O2 2.179708 1_555
Mn0 O11 2.226817 1_555
Mn1 O12 2.162396 1_555
Mn1 O5 2.163902 1_555
Mn1 O9 2.168850 1_555
Mn1 O4 2.179708 1_555
Mn1 O13 2.226817 1_555
Mn2 O15 2.162396 1_555
Mn2 O22 2.163902 1_555
Mn2 O19 2.168850 1_555
Mn2 O23 2.179708 1_555
Mn2 O14 2.226817 1_555
Mn3 O17 2.162396 1_655
Mn3 O24 2.163902 1_655
Mn3 O20 2.168850 1_555
Mn3 O25 2.179708 1_555
Mn3 O16 2.226817 1_555
C0 O1 1.275371 1_555
C0 O3 1.299989 1_555
C0 O23 1.326795 1_545
C1 O0 1.275371 1_554
C1 O5 1.299989 1_555
C1 O25 1.326795 1_545
C2 O27 1.275371 1_556
C2 O22 1.299989 1_555
C2 O2 1.326795 1_565
C3 O26 1.275371 1_555
C3 O24 1.299989 1_555
C3 O4 1.326795 1_565
O6 P0 1.559896 1_555
O7 P0 1.549322 1_555
O8 P1 1.549322 1_555
O9 P1 1.559896 1_555
O10 P2 1.552495 1_555
O11 P1 1.566208 1_555
O12 P3 1.552495 1_555
O13 P0 1.566208 1_554
O14 P3 1.566208 1_556
O15 P0 1.552495 1_555
O16 P2 1.566208 1_555
O17 P1 1.552495 1_555
O18 P2 1.549322 1_555
O19 P2 1.559896 1_555
O20 P3 1.559896 1_555
O21 P3 1.549322 1_555
