# generated using pymatgen
data_CoPH21N5O7
_symmetry_space_group_name_H-M   'P 1'
_cell_length_a   14.64506200
_cell_length_b   8.65929900
_cell_length_c   10.04227012
_cell_angle_alpha   58.11317446
_cell_angle_beta   90.00000000
_cell_angle_gamma   90.00000000
_symmetry_Int_Tables_number   1
_chemical_formula_structural   CoPH21N5O7
_chemical_formula_sum   'Co4 P4 H84 N20 O28'
_cell_volume   1081.33733600
_cell_formula_units_Z   4
loop_
 _symmetry_equiv_pos_site_id
 _symmetry_equiv_pos_as_xyz
  1  'x, y, z'
loop_
 _atom_site_type_symbol
 _atom_site_label
 _atom_site_symmetry_multiplicity
 _atom_site_fract_x
 _atom_site_fract_y
 _atom_site_fract_z
 _atom_site_occupancy
  Co  Co0  1  0.15796500  0.30636200  0.77482700  1
  Co  Co1  1  0.65796500  0.69363800  0.72517300  1
  Co  Co2  1  0.34203500  0.30636200  0.27482700  1
  Co  Co3  1  0.84203500  0.69363800  0.22517300  1
  P  P0  1  0.37366400  0.36166200  0.77233000  1
  P  P1  1  0.87366400  0.63833800  0.72767000  1
  P  P2  1  0.12633600  0.36166200  0.27233000  1
  P  P3  1  0.62633600  0.63833800  0.22767000  1
  H  H0  1  0.08194200  0.01668900  0.96904200  1
  H  H1  1  0.70097000  0.17685100  0.89614100  1
  H  H2  1  0.53678300  0.18179400  0.97211200  1
  H  H3  1  0.79277000  0.29637800  0.83937800  1
  H  H4  1  0.99234400  0.39520500  0.69200000  1
  H  H5  1  0.82762100  0.52255700  0.51906900  1
  H  H6  1  0.66274900  0.42141900  0.69856300  1
  H  H7  1  0.25144600  0.54851400  0.55731100  1
  H  H8  1  0.55426900  0.46801600  0.71238300  1
  H  H9  1  0.95827900  0.68042800  0.41367800  1
  H  H10  1  0.60981800  0.58582600  0.54199000  1
  H  H11  1  0.14509500  0.62859500  0.52792800  1
  H  H12  1  0.64509500  0.37140500  0.97207200  1
  H  H13  1  0.99349600  0.82785300  0.23362900  1
  H  H14  1  0.10981800  0.41417400  0.95801000  1
  H  H15  1  0.05426900  0.53198400  0.78761700  1
  H  H16  1  0.75144600  0.45148600  0.94268900  1
  H  H17  1  0.41758100  0.73256800  0.47505700  1
  H  H18  1  0.18326600  0.01149300  0.04026100  1
  H  H19  1  0.49201500  0.81767000  0.33808000  1
  H  H20  1  0.73164600  0.88892500  0.25313600  1
  H  H21  1  0.80176000  0.81321700  0.40399900  1
  H  H22  1  0.16274900  0.57858100  0.80143700  1
  H  H23  1  0.59145300  0.00067400  0.10166300  1
  H  H24  1  0.49234400  0.60479500  0.80800000  1
  H  H25  1  0.29277000  0.70362200  0.66062200  1
  H  H26  1  0.83688900  0.98219900  0.22882400  1
  H  H27  1  0.67237900  0.52255700  0.01907000  1
  H  H28  1  0.03678300  0.81820600  0.52788800  1
  H  H29  1  0.60226200  0.86454100  0.44549500  1
  H  H30  1  0.10226200  0.13545900  0.05450500  1
  H  H31  1  0.20097000  0.82314900  0.60385900  1
  H  H32  1  0.33688900  0.01780100  0.27117600  1
  H  H33  1  0.54172100  0.68042800  0.91367800  1
  H  H34  1  0.09145300  0.99932600  0.39833700  1
  H  H35  1  0.30176000  0.18678300  0.09600100  1
  H  H36  1  0.23164600  0.11107500  0.24686400  1
  H  H37  1  0.50650400  0.82785300  0.73362900  1
  H  H38  1  0.99201500  0.18233000  0.16192000  1
  H  H39  1  0.68326600  0.98850700  0.45973900  1
  H  H40  1  0.58194200  0.98331100  0.53095800  1
  H  H41  1  0.91758100  0.26743200  0.02494300  1
  H  H42  1  0.08241900  0.73256800  0.97505700  1
  H  H43  1  0.41805800  0.01668900  0.46904200  1
  H  H44  1  0.31673400  0.01149300  0.54026100  1
  H  H45  1  0.00798500  0.81767000  0.83808000  1
  H  H46  1  0.49349600  0.17214700  0.26637100  1
  H  H47  1  0.76835400  0.88892500  0.75313600  1
  H  H48  1  0.69824000  0.81321700  0.90399900  1
  H  H49  1  0.90854700  0.00067400  0.60166300  1
  H  H50  1  0.45827900  0.31957200  0.08632200  1
  H  H51  1  0.66311100  0.98219900  0.72882400  1
  H  H52  1  0.79903000  0.17685100  0.39614100  1
  H  H53  1  0.89773800  0.86454100  0.94549500  1
  H  H54  1  0.39773800  0.13545900  0.55450500  1
  H  H55  1  0.96321700  0.18179400  0.47211200  1
  H  H56  1  0.32762100  0.47744300  0.98093100  1
  H  H57  1  0.16311100  0.01780100  0.77117600  1
  H  H58  1  0.70723000  0.29637800  0.33937800  1
  H  H59  1  0.50765600  0.39520500  0.19200000  1
  H  H60  1  0.40854700  0.99932600  0.89833700  1
  H  H61  1  0.83725100  0.42141900  0.19856300  1
  H  H62  1  0.19824000  0.18678300  0.59600100  1
  H  H63  1  0.26835400  0.11107500  0.74686400  1
  H  H64  1  0.50798500  0.18233000  0.66192000  1
  H  H65  1  0.81673400  0.98850700  0.95973900  1
  H  H66  1  0.58241900  0.26743200  0.52494300  1
  H  H67  1  0.24855400  0.54851400  0.05731100  1
  H  H68  1  0.94573100  0.46801600  0.21238300  1
  H  H69  1  0.89018200  0.58582600  0.04199000  1
  H  H70  1  0.00650400  0.17214700  0.76637100  1
  H  H71  1  0.35490500  0.62859500  0.02792800  1
  H  H72  1  0.85490500  0.37140500  0.47207200  1
  H  H73  1  0.39018200  0.41417400  0.45801000  1
  H  H74  1  0.04172100  0.31957200  0.58632200  1
  H  H75  1  0.44573100  0.53198400  0.28761700  1
  H  H76  1  0.74855400  0.45148600  0.44268900  1
  H  H77  1  0.33725100  0.57858100  0.30143700  1
  H  H78  1  0.17237900  0.47744300  0.48093100  1
  H  H79  1  0.00765600  0.60479500  0.30800000  1
  H  H80  1  0.20723000  0.70362200  0.16062200  1
  H  H81  1  0.46321700  0.81820600  0.02788800  1
  H  H82  1  0.29903000  0.82314900  0.10385900  1
  H  H83  1  0.91805800  0.98331100  0.03095800  1
  N  N0  1  0.12853400  0.09613700  0.98229000  1
  N  N1  1  0.18319300  0.51370100  0.56168000  1
  N  N2  1  0.96431300  0.70271300  0.30180600  1
  N  N3  1  0.61599000  0.52527600  0.66148300  1
  N  N4  1  0.11599000  0.47472400  0.83851700  1
  N  N5  1  0.79921600  0.86380000  0.28507100  1
  N  N6  1  0.68319300  0.48629900  0.93832000  1
  N  N7  1  0.53568700  0.70271300  0.80180600  1
  N  N8  1  0.62853400  0.90386300  0.51771000  1
  N  N9  1  0.29921600  0.13620000  0.21492900  1
  N  N10  1  0.70078400  0.86380000  0.78507100  1
  N  N11  1  0.37146600  0.09613700  0.48229000  1
  N  N12  1  0.46431300  0.29728700  0.19819400  1
  N  N13  1  0.31680700  0.51370100  0.06168000  1
  N  N14  1  0.20078400  0.13620000  0.71492900  1
  N  N15  1  0.88401000  0.52527600  0.16148300  1
  N  N16  1  0.38401000  0.47472400  0.33851700  1
  N  N17  1  0.03568700  0.29728700  0.69819400  1
  N  N18  1  0.81680700  0.48629900  0.43832000  1
  N  N19  1  0.87146600  0.90386300  0.01771000  1
  O  O0  1  0.75300900  0.21482600  0.82220300  1
  O  O1  1  0.27920700  0.30735300  0.86156700  1
  O  O2  1  0.44662800  0.35435500  0.88787300  1
  O  O3  1  0.36477700  0.55916200  0.62771400  1
  O  O4  1  0.60134500  0.77443600  0.27905400  1
  O  O5  1  0.86477700  0.44083800  0.87228600  1
  O  O6  1  0.94662800  0.64564500  0.61212700  1
  O  O7  1  0.77920700  0.69264700  0.63843300  1
  O  O8  1  0.44268900  0.85037000  0.38665400  1
  O  O9  1  0.59809800  0.12918000  0.01342500  1
  O  O10  1  0.09809800  0.87082000  0.48657500  1
  O  O11  1  0.25300900  0.78517400  0.67779700  1
  O  O12  1  0.94268900  0.14963000  0.11334600  1
  O  O13  1  0.89865500  0.77443600  0.77905400  1
  O  O14  1  0.10134500  0.22556400  0.22094600  1
  O  O15  1  0.05731100  0.85037000  0.88665400  1
  O  O16  1  0.74699100  0.21482600  0.32220300  1
  O  O17  1  0.90190200  0.12918000  0.51342500  1
  O  O18  1  0.40190200  0.87082000  0.98657500  1
  O  O19  1  0.55731100  0.14963000  0.61334600  1
  O  O20  1  0.22079300  0.30735300  0.36156700  1
  O  O21  1  0.05337200  0.35435500  0.38787300  1
  O  O22  1  0.13522300  0.55916200  0.12771400  1
  O  O23  1  0.39865500  0.22556400  0.72094600  1
  O  O24  1  0.63522300  0.44083800  0.37228600  1
  O  O25  1  0.55337200  0.64564500  0.11212700  1
  O  O26  1  0.72079300  0.69264700  0.13843300  1
  O  O27  1  0.24699100  0.78517400  0.17779700  1
loop_
_geom_bond_atom_site_label_1
_geom_bond_atom_site_label_2
_geom_bond_distance
_geom_bond_site_symmetry_2
Co0 N0 1.957891 1_555
Co0 N14 1.965348 1_555
Co0 N17 1.967017 1_555
Co0 N1 1.970162 1_555
Co0 N4 1.974224 1_555
Co0 O1 1.979765 1_555
Co1 N8 1.957891 1_555
Co1 N10 1.965348 1_555
Co1 N7 1.967017 1_555
Co1 N6 1.970162 1_555
Co1 N3 1.974224 1_555
Co1 O7 1.979765 1_555
Co2 N11 1.957891 1_555
Co2 N9 1.965348 1_555
Co2 N12 1.967017 1_555
Co2 N13 1.970162 1_555
Co2 N16 1.974224 1_555
Co2 O20 1.979765 1_555
Co3 N19 1.957891 1_555
Co3 N5 1.965348 1_555
Co3 N2 1.967017 1_555
Co3 N18 1.970162 1_555
Co3 N15 1.974224 1_555
Co3 O26 1.979765 1_555
H0 N0 1.026295 1_555
H1 O0 0.991116 1_555
H2 O9 0.993144 1_556
H3 O0 0.998097 1_555
H4 N17 1.034411 1_655
H5 N18 1.024794 1_555
H6 N3 1.030819 1_555
H7 N1 1.038252 1_555
H8 N3 1.027820 1_555
H9 N2 1.038337 1_555
H10 N3 1.028748 1_555
H11 N1 1.029443 1_555
H12 N6 1.029443 1_555
H13 N2 1.020704 1_555
H14 N4 1.028748 1_555
H15 N4 1.027820 1_555
H16 N6 1.038252 1_555
H17 O8 1.003573 1_555
H17 O3 1.664611 1_555
H18 N0 1.033356 1_554
H19 O8 0.992916 1_555
H20 N5 1.027478 1_555
H21 N5 1.032929 1_555
H22 N4 1.030819 1_555
H23 O9 0.995584 1_555
H24 N7 1.034411 1_555
H25 O11 0.998097 1_555
H26 N5 1.030908 1_555
H27 N6 1.024803 1_554
H28 O10 0.993144 1_555
H29 N8 1.025074 1_555
H30 N0 1.025074 1_554
H31 O11 0.991116 1_555
H32 N9 1.030908 1_555
H33 N7 1.038337 1_555
H34 O10 0.995584 1_555
H35 N9 1.032929 1_555
H36 N9 1.027478 1_555
H37 N7 1.020704 1_555
H38 O12 0.992916 1_555
H39 N8 1.033356 1_555
H40 N8 1.026295 1_555
H41 O12 1.003573 1_555
H41 O5 1.664611 1_554
H42 O15 1.003573 1_555
H42 O22 1.664611 1_556
H43 N11 1.026295 1_555
H44 N11 1.033356 1_555
H45 O15 0.992916 1_555
H46 N12 1.020704 1_555
H47 N10 1.027478 1_555
H48 N10 1.032929 1_555
H49 O17 0.995584 1_555
H50 N12 1.038337 1_555
H51 N10 1.030908 1_555
H52 O16 0.991116 1_555
H53 N19 1.025074 1_556
H54 N11 1.025074 1_555
H55 O17 0.993144 1_555
H56 N13 1.024794 1_556
H57 N14 1.030908 1_555
H58 O16 0.998097 1_555
H59 N12 1.034411 1_555
H60 O18 0.995584 1_555
H61 N15 1.030819 1_555
H62 N14 1.032929 1_555
H63 N14 1.027478 1_555
H64 O19 0.992916 1_555
H65 N19 1.033356 1_556
H66 O19 1.003573 1_555
H66 O24 1.664611 1_555
H67 N13 1.038252 1_555
H68 N15 1.027820 1_555
H69 N15 1.028748 1_555
H70 N17 1.020704 1_555
H71 N13 1.029443 1_555
H72 N18 1.029443 1_555
H73 N16 1.028748 1_555
H74 N17 1.038337 1_555
H75 N16 1.027820 1_555
H76 N18 1.038252 1_555
H77 N16 1.030819 1_555
H78 N1 1.024794 1_555
H79 N2 1.034411 1_455
H80 O27 0.998097 1_555
H81 O18 0.993144 1_554
H82 O27 0.991116 1_555
H83 N19 1.026295 1_555
O1 P0 1.578793 1_555
O2 P0 1.553896 1_555
O3 P0 1.557842 1_555
O4 P3 1.559356 1_555
O5 P1 1.557842 1_555
O6 P1 1.553896 1_555
O7 P1 1.578793 1_555
O13 P1 1.559356 1_555
O14 P2 1.559356 1_555
O20 P2 1.578793 1_555
O21 P2 1.553896 1_555
O22 P2 1.557842 1_555
O23 P0 1.559356 1_555
O24 P3 1.557842 1_555
O25 P3 1.553896 1_555
O26 P3 1.578793 1_555
