# generated using pymatgen
data_Li7Fe7P6(O8F)3
_symmetry_space_group_name_H-M   'P 1'
_cell_length_a   13.59600802
_cell_length_b   13.59975550
_cell_length_c   6.41020420
_cell_angle_alpha   90.14565603
_cell_angle_beta   90.16572818
_cell_angle_gamma   60.10115200
_symmetry_Int_Tables_number   1
_chemical_formula_structural   Li7Fe7P6(O8F)3
_chemical_formula_sum   'Li14 Fe14 P12 O48 F6'
_cell_volume   1027.50656601
_cell_formula_units_Z   2
loop_
 _symmetry_equiv_pos_site_id
 _symmetry_equiv_pos_as_xyz
  1  'x, y, z'
loop_
 _atom_site_type_symbol
 _atom_site_label
 _atom_site_symmetry_multiplicity
 _atom_site_fract_x
 _atom_site_fract_y
 _atom_site_fract_z
 _atom_site_occupancy
  Li  Li0  1  0.25881782  0.92320480  0.25474254  1
  Li  Li1  1  0.18157775  0.74114834  0.75633482  1
  Li  Li2  1  0.50469649  0.87237433  0.75622574  1
  Li  Li3  1  0.12709177  0.37692849  0.25649512  1
  Li  Li4  1  0.07689303  0.18207465  0.75547564  1
  Li  Li5  1  0.37670871  0.49539652  0.25584727  1
  Li  Li6  1  0.33306220  0.33356995  0.42936455  1
  Li  Li7  1  0.66709216  0.66630078  0.92942950  1
  Li  Li8  1  0.62332440  0.50445731  0.75669632  1
  Li  Li9  1  0.92328075  0.81785930  0.25824830  1
  Li  Li10  1  0.87222556  0.62286868  0.75600146  1
  Li  Li11  1  0.49524036  0.12770898  0.25688762  1
  Li  Li12  1  0.81854293  0.25920401  0.25801349  1
  Li  Li13  1  0.74128648  0.07659384  0.75871874  1
  Fe  Fe0  1  0.12659771  0.57660606  0.00822060  1
  Fe  Fe1  1  0.12185369  0.58201090  0.51301941  1
  Fe  Fe2  1  0.42275910  0.70316717  0.50746040  1
  Fe  Fe3  1  0.41854974  0.70403253  0.01288949  1
  Fe  Fe4  1  0.70361107  0.87800706  0.01413423  1
  Fe  Fe5  1  0.70339202  0.87334660  0.50871395  1
  Fe  Fe6  1  0.00004238  0.00000525  0.00586901  1
  Fe  Fe7  1  0.00010396  0.99984490  0.50601960  1
  Fe  Fe8  1  0.29667690  0.12607219  0.00785310  1
  Fe  Fe9  1  0.29632747  0.12262176  0.51332925  1
  Fe  Fe10  1  0.58124602  0.29628734  0.51428218  1
  Fe  Fe11  1  0.57762576  0.29656880  0.00895231  1
  Fe  Fe12  1  0.87793549  0.41880613  0.01385464  1
  Fe  Fe13  1  0.87354405  0.42257459  0.50919589  1
  P  P0  1  0.24664102  0.93636304  0.75547017  1
  P  P1  1  0.18273055  0.75352415  0.25679526  1
  P  P2  1  0.48686418  0.88355426  0.26020017  1
  P  P3  1  0.11659967  0.37036801  0.76018147  1
  P  P4  1  0.37023328  0.51310747  0.76092129  1
  P  P5  1  0.06388449  0.18326789  0.25657031  1
  P  P6  1  0.93618022  0.81675277  0.75962743  1
  P  P7  1  0.62982851  0.48680014  0.26148822  1
  P  P8  1  0.88332845  0.62977421  0.26085193  1
  P  P9  1  0.51317304  0.11645109  0.76163335  1
  P  P10  1  0.81719108  0.24638931  0.76025008  1
  P  P11  1  0.75333396  0.06376732  0.26037168  1
  O  O0  1  0.11230254  0.01054652  0.75244996  1
  O  O1  1  0.12322846  0.88735791  0.25268110  1
  O  O2  1  0.00780506  0.68421360  0.75831528  1
  O  O3  1  0.37079618  0.99880150  0.25388770  1
  O  O4  1  0.28330879  0.86258569  0.55765532  1
  O  O5  1  0.14547832  0.71606766  0.05978683  1
  O  O6  1  0.28135337  0.86310580  0.95407794  1
  O  O7  1  0.14468967  0.71916726  0.45618250  1
  O  O8  1  0.31550559  0.69262682  0.25831559  1
  O  O9  1  0.00121361  0.36933276  0.75444742  1
  O  O10  1  0.55056680  0.88141328  0.46112096  1
  O  O11  1  0.11859848  0.43198428  0.96106563  1
  O  O12  1  0.45958864  0.78551006  0.26263984  1
  O  O13  1  0.12996882  0.42682467  0.56016489  1
  O  O14  1  0.55662290  0.87019543  0.06036599  1
  O  O15  1  0.69250320  0.99181583  0.25915926  1
  O  O16  1  0.24525723  0.54036664  0.76229125  1
  O  O17  1  0.36973711  0.62920813  0.75408537  1
  O  O18  1  0.98917680  0.12315144  0.25427013  1
  O  O19  1  0.21434384  0.24536942  0.76317449  1
  O  O20  1  0.13713188  0.14510274  0.45535986  1
  O  O21  1  0.43191983  0.44971215  0.96192776  1
  O  O22  1  0.13723141  0.14564377  0.05895840  1
  O  O23  1  0.57320898  0.55705705  0.06133570  1
  O  O24  1  0.42702754  0.44273064  0.56113920  1
  O  O25  1  0.86185627  0.85504675  0.56232496  1
  O  O26  1  0.56808899  0.55014178  0.46210979  1
  O  O27  1  0.86399457  0.85448651  0.95874901  1
  O  O28  1  0.78553674  0.75469890  0.26313417  1
  O  O29  1  0.01097889  0.87681953  0.75964332  1
  O  O30  1  0.63038800  0.37069280  0.25463739  1
  O  O31  1  0.75481958  0.45963507  0.26429856  1
  O  O32  1  0.30747025  0.00830269  0.75842462  1
  O  O33  1  0.44284807  0.13020917  0.56124362  1
  O  O34  1  0.86969053  0.57337920  0.06011695  1
  O  O35  1  0.54048170  0.21437638  0.76463325  1
  O  O36  1  0.88137018  0.56801355  0.46099343  1
  O  O37  1  0.44981040  0.11811874  0.96196119  1
  O  O38  1  0.99873584  0.63059615  0.25531662  1
  O  O39  1  0.68442690  0.30735328  0.75989088  1
  O  O40  1  0.85425311  0.28280853  0.95908842  1
  O  O41  1  0.71756420  0.13692690  0.45909447  1
  O  O42  1  0.85567909  0.28169852  0.56261704  1
  O  O43  1  0.71760858  0.13750312  0.06265787  1
  O  O44  1  0.62917884  0.00121724  0.75564649  1
  O  O45  1  0.99243400  0.31580711  0.25843975  1
  O  O46  1  0.87668683  0.11257243  0.76131663  1
  O  O47  1  0.88769101  0.98945206  0.26157919  1
  F  F0  1  0.24414438  0.48166052  0.27441202  1
  F  F1  1  0.51849162  0.72584497  0.77270644  1
  F  F2  1  0.72578412  0.75572491  0.77455287  1
  F  F3  1  0.27405818  0.24453123  0.27241801  1
  F  F4  1  0.48156483  0.27407130  0.27279899  1
  F  F5  1  0.75580305  0.51855668  0.77348118  1
loop_
_geom_bond_atom_site_label_1
_geom_bond_atom_site_label_2
_geom_bond_distance
_geom_bond_site_symmetry_2
Li0 O6 2.054805 1_554
Li0 O4 2.071611 1_555
Li0 O1 2.128855 1_555
Li0 O3 2.221580 1_555
Li0 O12 2.421588 1_555
Li1 O7 2.045429 1_555
Li1 O5 2.077689 1_556
Li1 O29 2.125626 1_555
Li1 O17 2.231535 1_555
Li1 O16 2.418800 1_555
Li2 O10 2.016668 1_555
Li2 O14 2.066814 1_556
Li2 O32 2.380367 1_565
Li3 O11 2.019911 1_554
Li3 O13 2.066518 1_555
Li3 O45 2.358035 1_455
Li4 O20 2.053841 1_555
Li4 O22 2.072065 1_556
Li4 O0 2.134020 1_555
Li4 O9 2.220802 1_555
Li4 O19 2.416343 1_555
Li5 O21 2.009114 1_554
Li5 O24 2.078871 1_555
Li5 O8 2.379502 1_555
Li6 O24 2.535303 1_555
Li6 O13 2.540228 1_555
Li6 O33 2.545697 1_555
Li7 O34 2.531392 1_556
Li7 O23 2.540614 1_556
Li7 O14 2.548100 1_556
Li8 O26 2.012087 1_555
Li8 O23 2.074629 1_556
Li8 O39 2.378259 1_555
Li9 O27 2.044335 1_554
Li9 O25 2.082284 1_555
Li9 O47 2.134115 1_555
Li9 O38 2.221226 1_555
Li9 O28 2.418732 1_555
Li10 O36 2.012419 1_555
Li10 O34 2.069949 1_556
Li10 O2 2.372144 1_655
Li11 O37 2.011209 1_554
Li11 O33 2.073273 1_555
Li11 O15 2.380598 1_545
Li12 O40 2.043129 1_554
Li12 O42 2.075161 1_555
Li12 O18 2.127657 1_555
Li12 O30 2.230816 1_555
Li12 O31 2.414036 1_555
Li13 O41 2.051043 1_555
Li13 O43 2.077328 1_556
Li13 O46 2.127534 1_555
Li13 O44 2.220784 1_555
Li13 O35 2.422066 1_555
Fe0 O11 2.044901 1_554
Fe0 O5 2.062551 1_555
Fe0 O16 2.132821 1_554
Fe0 O38 2.192611 1_455
Fe0 O2 2.226436 1_554
Fe1 O7 2.071214 1_555
Fe1 O13 2.080528 1_555
Fe1 O2 2.159414 1_555
Fe1 O16 2.175031 1_555
Fe1 O38 2.203256 1_455
Fe2 O26 2.054381 1_555
Fe2 O4 2.073807 1_555
Fe2 O12 2.130763 1_555
Fe2 O17 2.183622 1_555
Fe2 O8 2.211637 1_555
Fe3 O6 2.068510 1_554
Fe3 O23 2.079066 1_555
Fe3 O8 2.166225 1_555
Fe3 O12 2.168960 1_555
Fe3 O17 2.210541 1_554
Fe4 O27 2.071666 1_554
Fe4 O14 2.075613 1_555
Fe4 O15 2.154381 1_555
Fe4 O28 2.177541 1_555
Fe4 O44 2.211617 1_564
Fe5 O10 2.047357 1_555
Fe5 O25 2.069644 1_555
Fe5 O28 2.128330 1_555
Fe5 O44 2.189457 1_565
Fe5 O15 2.225017 1_555
Fe6 O46 2.247492 1_454
Fe6 O29 2.249335 1_544
Fe6 O1 2.257024 1_545
Fe6 O18 2.259029 1_455
Fe6 O0 2.285317 1_554
Fe6 O47 2.296740 1_445
Fe7 O47 2.238633 1_455
Fe7 O0 2.247169 1_565
Fe7 O18 2.280884 1_465
Fe7 O1 2.286881 1_555
Fe7 O29 2.286953 1_555
Fe7 O46 2.298392 1_465
Fe8 O37 2.052280 1_554
Fe8 O22 2.075100 1_555
Fe8 O19 2.130139 1_554
Fe8 O3 2.182773 1_545
Fe8 O32 2.212970 1_554
Fe9 O20 2.062159 1_555
Fe9 O33 2.067524 1_555
Fe9 O32 2.164416 1_555
Fe9 O19 2.176195 1_555
Fe9 O3 2.218628 1_545
Fe10 O41 2.062189 1_555
Fe10 O24 2.071362 1_555
Fe10 O39 2.160061 1_555
Fe10 O35 2.180191 1_555
Fe10 O30 2.220247 1_555
Fe11 O21 2.058994 1_554
Fe11 O43 2.077464 1_555
Fe11 O35 2.122871 1_554
Fe11 O30 2.171960 1_555
Fe11 O39 2.214917 1_554
Fe12 O40 2.058505 1_554
Fe12 O34 2.069218 1_555
Fe12 O45 2.160269 1_555
Fe12 O31 2.184472 1_555
Fe12 O9 2.216579 1_654
Fe13 O36 2.057215 1_555
Fe13 O42 2.077163 1_555
Fe13 O31 2.121860 1_555
Fe13 O9 2.178488 1_655
Fe13 O45 2.228941 1_555
O0 P0 1.586519 1_545
O1 P1 1.581178 1_555
O2 P6 1.564427 1_455
O3 P2 1.575634 1_555
O4 P0 1.536775 1_555
O5 P1 1.536580 1_555
O6 P0 1.539595 1_555
O7 P1 1.538562 1_555
O8 P1 1.566600 1_555
O9 P3 1.576177 1_555
O10 P2 1.542198 1_555
O11 P3 1.542120 1_555
O12 P2 1.552016 1_555
O13 P3 1.553042 1_555
O14 P2 1.551616 1_555
O15 P11 1.564714 1_565
O16 P4 1.548156 1_555
O17 P4 1.576309 1_555
O18 P5 1.589992 1_655
O19 P3 1.550506 1_555
O20 P5 1.538071 1_555
O21 P4 1.544493 1_555
O22 P5 1.534992 1_555
O23 P7 1.555284 1_555
O24 P4 1.554044 1_555
O25 P6 1.537284 1_555
O26 P7 1.542811 1_555
O27 P6 1.535447 1_555
O28 P8 1.549975 1_555
O29 P6 1.590515 1_455
O30 P7 1.575754 1_555
O31 P7 1.548761 1_555
O32 P0 1.564613 1_545
O33 P9 1.554032 1_555
O34 P8 1.553613 1_555
O35 P9 1.550675 1_555
O36 P8 1.542763 1_555
O37 P9 1.542224 1_555
O38 P8 1.575184 1_555
O39 P10 1.566414 1_555
O40 P10 1.538084 1_555
O41 P11 1.537496 1_555
O42 P10 1.538443 1_555
O43 P11 1.537886 1_555
O44 P9 1.575093 1_555
O45 P5 1.564334 1_655
O46 P10 1.580745 1_555
O47 P11 1.586762 1_565
F0 Li5 1.906442 1_555
F0 Li6 2.019946 1_555
F0 Fe1 2.169872 1_555
F0 Fe0 2.251923 1_555
F1 Li2 1.909394 1_555
F1 Li7 2.026887 1_555
F1 Fe3 2.172804 1_556
F1 Fe2 2.250536 1_555
F2 Li10 1.912264 1_555
F2 Li7 2.019807 1_555
F2 Fe4 2.169087 1_556
F2 Fe5 2.254049 1_555
F3 Li3 1.912601 1_555
F3 Li6 2.019796 1_555
F3 Fe9 2.176036 1_555
F3 Fe8 2.249729 1_555
F4 Li11 1.907130 1_555
F4 Li6 2.029133 1_555
F4 Fe10 2.172074 1_555
F4 Fe11 2.252484 1_555
F5 Li8 1.906748 1_555
F5 Li7 2.017921 1_555
F5 Fe12 2.172996 1_556
F5 Fe13 2.248951 1_555
