# generated using pymatgen
data_LiFe2(BO3)2
_symmetry_space_group_name_H-M   'P 1'
_cell_length_a   5.28621500
_cell_length_b   9.08933075
_cell_length_c   10.07349231
_cell_angle_alpha   89.25778775
_cell_angle_beta   89.01267815
_cell_angle_gamma   89.72889877
_symmetry_Int_Tables_number   1
_chemical_formula_structural   LiFe2(BO3)2
_chemical_formula_sum   'Li4 Fe8 B8 O24'
_cell_volume   483.89535142
_cell_formula_units_Z   4
loop_
 _symmetry_equiv_pos_site_id
 _symmetry_equiv_pos_as_xyz
  1  'x, y, z'
loop_
 _atom_site_type_symbol
 _atom_site_label
 _atom_site_symmetry_multiplicity
 _atom_site_fract_x
 _atom_site_fract_y
 _atom_site_fract_z
 _atom_site_occupancy
  Li  Li0  1  0.64889000  0.99175500  0.91183400  1
  Li  Li1  1  0.84366000  0.51262800  0.66094200  1
  Li  Li2  1  0.85353600  0.48695500  0.16719000  1
  Li  Li3  1  0.33663700  0.01092000  0.64680600  1
  Fe  Fe0  1  0.15558600  0.82688600  0.88079700  1
  Fe  Fe1  1  0.83659300  0.84742200  0.61958000  1
  Fe  Fe2  1  0.34094600  0.66515000  0.13233400  1
  Fe  Fe3  1  0.65565400  0.66885500  0.37905100  1
  Fe  Fe4  1  0.33531200  0.34520500  0.62810700  1
  Fe  Fe5  1  0.16742100  0.16714100  0.37237300  1
  Fe  Fe6  1  0.65568700  0.33458300  0.88243200  1
  Fe  Fe7  1  0.83767700  0.14797900  0.13677200  1
  B  B0  1  0.16347500  0.83430700  0.37895100  1
  B  B1  1  0.33144800  0.67025600  0.62850500  1
  B  B2  1  0.82819200  0.82629900  0.12178000  1
  B  B3  1  0.66066300  0.67119200  0.87297400  1
  B  B4  1  0.33542600  0.33588400  0.12875300  1
  B  B5  1  0.66276900  0.32854300  0.37710400  1
  B  B6  1  0.16189300  0.16309600  0.87638900  1
  B  B7  1  0.83446500  0.17252400  0.63430700  1
  O  O0  1  0.26765600  0.96999800  0.38551000  1
  O  O1  1  0.07669700  0.81877900  0.07421600  1
  O  O2  1  0.69143800  0.95189100  0.10713400  1
  O  O3  1  0.22385300  0.80343300  0.67352800  1
  O  O4  1  0.30768300  0.71358500  0.34098600  1
  O  O5  1  0.79809500  0.79872200  0.83867100  1
  O  O6  1  0.91182500  0.81231800  0.41740800  1
  O  O7  1  0.41895100  0.68993500  0.92167200  1
  O  O8  1  0.19252300  0.54570600  0.62910600  1
  O  O9  1  0.58728200  0.66952200  0.58469500  1
  O  O10  1  0.72576700  0.69543400  0.17625000  1
  O  O11  1  0.20627800  0.46445700  0.13012400  1
  O  O12  1  0.76273000  0.53478900  0.85636900  1
  O  O13  1  0.30316400  0.28774300  0.84680100  1
  O  O14  1  0.41865700  0.30720900  0.42517300  1
  O  O15  1  0.75673000  0.46760100  0.36056100  1
  O  O16  1  0.59381400  0.33072800  0.08341100  1
  O  O17  1  0.08692800  0.17096300  0.59041500  1
  O  O18  1  0.22006400  0.20553400  0.17333800  1
  O  O19  1  0.72466600  0.30689000  0.67631700  1
  O  O20  1  0.81059600  0.20764300  0.34289400  1
  O  O21  1  0.27739500  0.02705900  0.86272200  1
  O  O22  1  0.90636100  0.17304000  0.91375500  1
  O  O23  1  0.69422300  0.04697000  0.64084400  1
loop_
_geom_bond_atom_site_label_1
_geom_bond_atom_site_label_2
_geom_bond_distance
_geom_bond_site_symmetry_2
Li0 O2 2.012055 1_556
Li0 O21 2.056126 1_565
Li0 O5 2.060112 1_555
Li0 O22 2.142636 1_565
Li1 O8 1.891178 1_655
Li1 O19 1.979119 1_555
Li1 O12 2.019788 1_555
Li1 O9 2.109396 1_555
Li2 O11 1.905939 1_655
Li2 O15 2.011179 1_555
Li2 O10 2.011352 1_555
Li2 O16 2.168652 1_555
Li3 O23 1.919781 1_555
Li3 O3 1.994131 1_545
Li3 O17 2.041444 1_555
Li3 O21 2.198794 1_555
Fe0 O7 1.909806 1_555
Fe0 O21 1.938193 1_565
Fe0 O5 1.962622 1_455
Fe0 O1 1.985998 1_556
Fe0 O3 2.126013 1_555
Fe1 O23 1.973220 1_565
Fe1 O6 2.096506 1_555
Fe1 O9 2.127415 1_555
Fe1 O3 2.161236 1_655
Fe1 O5 2.251293 1_555
Fe2 O11 1.961821 1_555
Fe2 O1 2.057293 1_555
Fe2 O10 2.109289 1_555
Fe2 O4 2.157087 1_555
Fe2 O7 2.163894 1_554
Fe3 O15 1.913775 1_555
Fe3 O4 1.925901 1_555
Fe3 O6 1.931645 1_555
Fe3 O10 2.081153 1_555
Fe3 O9 2.096784 1_555
Fe4 O8 1.969328 1_555
Fe4 O17 2.104482 1_555
Fe4 O14 2.116169 1_555
Fe4 O19 2.148637 1_555
Fe4 O13 2.261208 1_555
Fe5 O0 1.869881 1_545
Fe5 O14 1.930142 1_555
Fe5 O20 1.947193 1_455
Fe5 O18 2.045169 1_555
Fe5 O17 2.230752 1_555
Fe6 O12 1.921670 1_555
Fe6 O13 1.953787 1_555
Fe6 O22 1.998861 1_555
Fe6 O16 2.045116 1_556
Fe6 O19 2.119885 1_555
Fe7 O2 1.974373 1_545
Fe7 O18 2.129786 1_655
Fe7 O20 2.155015 1_555
Fe7 O16 2.165728 1_555
Fe7 O22 2.278192 1_554
B0 O0 1.355944 1_555
B0 O4 1.387199 1_555
B0 O6 1.393702 1_455
B1 O8 1.352218 1_555
B1 O3 1.411843 1_555
B1 O9 1.415344 1_555
B2 O2 1.356097 1_555
B2 O1 1.392203 1_655
B2 O10 1.409976 1_555
B3 O12 1.360940 1_555
B3 O7 1.371422 1_555
B3 O5 1.407053 1_555
B4 O11 1.350757 1_555
B4 O18 1.400341 1_555
B4 O16 1.433505 1_555
B5 O15 1.367357 1_555
B5 O14 1.384081 1_555
B5 O20 1.389029 1_555
B6 O21 1.383840 1_555
B6 O13 1.386258 1_555
B6 O22 1.398824 1_455
B7 O23 1.364058 1_555
B7 O17 1.398724 1_655
B7 O19 1.416248 1_555
