# generated using pymatgen
data_LiMn2(BO3)2
_symmetry_space_group_name_H-M   'P 1'
_cell_length_a   5.30364700
_cell_length_b   11.43960101
_cell_length_c   13.72190045
_cell_angle_alpha   113.12613081
_cell_angle_beta   91.42483123
_cell_angle_gamma   101.70445121
_symmetry_Int_Tables_number   1
_chemical_formula_structural   LiMn2(BO3)2
_chemical_formula_sum   'Li6 Mn12 B12 O36'
_cell_volume   744.64099111
_cell_formula_units_Z   6
loop_
 _symmetry_equiv_pos_site_id
 _symmetry_equiv_pos_as_xyz
  1  'x, y, z'
loop_
 _atom_site_type_symbol
 _atom_site_label
 _atom_site_symmetry_multiplicity
 _atom_site_fract_x
 _atom_site_fract_y
 _atom_site_fract_z
 _atom_site_occupancy
  Li  Li0  1  0.74146200  0.76538200  0.10597700  1
  Li  Li1  1  0.40177400  0.10081000  0.43577800  1
  Li  Li2  1  0.58426700  0.45347700  0.28817700  1
  Li  Li3  1  0.45977800  0.60694600  0.69837800  1
  Li  Li4  1  0.28019400  0.27054300  0.86100300  1
  Li  Li5  1  0.23358900  0.77779900  0.62389500  1
  Mn  Mn0  1  0.67524500  0.02593000  0.14367400  1
  Mn  Mn1  1  0.99688900  0.30471000  0.17144800  1
  Mn  Mn2  1  0.39712800  0.47637400  0.09538600  1
  Mn  Mn3  1  0.94287200  0.20126700  0.56819300  1
  Mn  Mn4  1  0.34498900  0.36223700  0.48354500  1
  Mn  Mn5  1  0.73315200  0.13801300  0.76114400  1
  Mn  Mn6  1  0.28556700  0.86883700  0.23949700  1
  Mn  Mn7  1  0.67181900  0.64553900  0.51512200  1
  Mn  Mn8  1  0.07073900  0.81436600  0.43466400  1
  Mn  Mn9  1  0.60467000  0.52138800  0.89093000  1
  Mn  Mn10  1  0.01549800  0.69778700  0.82249400  1
  Mn  Mn11  1  0.32932400  0.98392800  0.85267600  1
  B  B0  1  0.43350900  0.20964900  0.07225900  1
  B  B1  1  0.23292100  0.13273600  0.25836900  1
  B  B2  1  0.15724200  0.64190800  0.01909300  1
  B  B3  1  0.51244300  0.70080100  0.32194900  1
  B  B4  1  0.90496700  0.47328300  0.59937800  1
  B  B5  1  0.18597900  0.03268400  0.66239600  1
  B  B6  1  0.82719300  0.97654200  0.34536900  1
  B  B7  1  0.10413300  0.52411500  0.40271600  1
  B  B8  1  0.47225500  0.29593100  0.67074400  1
  B  B9  1  0.83943700  0.35714200  0.98469400  1
  B  B10  1  0.75807100  0.86243300  0.73652500  1
  B  B11  1  0.56481000  0.79977000  0.92327400  1
  O  O0  1  0.65756900  0.18414700  0.10416200  1
  O  O1  1  0.02842800  0.16488300  0.21714600  1
  O  O2  1  0.97993700  0.41117000  0.08757000  1
  O  O3  1  0.29248400  0.01300400  0.19489000  1
  O  O4  1  0.37925400  0.33072700  0.14560300  1
  O  O5  1  0.73314700  0.06042000  0.42791500  1
  O  O6  1  0.39314100  0.60098100  0.02903900  1
  O  O7  1  0.93586000  0.44418200  0.31541400  1
  O  O8  1  0.70307100  0.86162400  0.01931200  1
  O  O9  1  0.37082000  0.20936800  0.35481300  1
  O  O10  1  0.99070700  0.09147100  0.64777000  1
  O  O11  1  0.55461800  0.59415400  0.23935600  1
  O  O12  1  0.96175100  0.35607500  0.52906200  1
  O  O13  1  0.08056000  0.72913400  0.10615800  1
  O  O14  1  0.68583600  0.90946900  0.24306200  1
  O  O15  1  0.34055600  0.24854000  0.56479000  1
  O  O16  1  0.34602800  0.49120300  0.42002900  1
  O  O17  1  0.68877800  0.24735100  0.67435600  1
  O  O18  1  0.30747700  0.75730100  0.31305600  1
  O  O19  1  0.65571500  0.49431400  0.58393300  1
  O  O20  1  0.66443000  0.74958300  0.41850900  1
  O  O21  1  0.31871900  0.09349700  0.76850300  1
  O  O22  1  0.93663900  0.28305300  0.89871500  1
  O  O23  1  0.06157900  0.64014100  0.47817000  1
  O  O24  1  0.38400500  0.37187600  0.75840500  1
  O  O25  1  0.07417500  0.95365600  0.35962200  1
  O  O26  1  0.57797300  0.76303100  0.65996800  1
  O  O27  1  0.27467600  0.13046100  0.98383700  1
  O  O28  1  0.08516500  0.56626800  0.67658800  1
  O  O29  1  0.59764000  0.38792100  0.97386500  1
  O  O30  1  0.24774800  0.92995700  0.58652500  1
  O  O31  1  0.61349400  0.68388300  0.84666400  1
  O  O32  1  0.69299000  0.97869100  0.80014300  1
  O  O33  1  0.01665400  0.59095000  0.91997400  1
  O  O34  1  0.00744200  0.84610300  0.75308100  1
  O  O35  1  0.35212900  0.84166300  0.89496400  1
loop_
_geom_bond_atom_site_label_1
_geom_bond_atom_site_label_2
_geom_bond_distance
_geom_bond_site_symmetry_2
Li0 O13 1.926020 1_655
Li0 O8 1.942982 1_555
Li0 O14 2.032659 1_555
Li0 O6 2.235636 1_555
Li1 O5 1.900952 1_555
Li1 O9 1.990199 1_555
Li1 O15 1.999125 1_555
Li1 O25 2.070219 1_545
Li2 O7 1.924888 1_555
Li2 O11 2.001902 1_555
Li2 O4 2.024428 1_555
Li2 O16 2.185814 1_555
Li3 O28 1.933760 1_555
Li3 O31 1.949149 1_555
Li3 O26 2.039725 1_555
Li3 O19 2.059416 1_555
Li4 O22 1.924269 1_455
Li4 O21 1.978955 1_555
Li4 O29 2.087013 1_555
Li4 O24 2.165746 1_555
Li5 O26 1.937923 1_555
Li5 O30 1.987053 1_555
Li5 O23 2.040463 1_555
Li5 O34 2.142298 1_555
Mn0 O8 2.017989 1_545
Mn0 O0 2.101375 1_555
Mn0 O1 2.119211 1_655
Mn0 O3 2.160457 1_555
Mn0 O14 2.256502 1_545
Mn1 O1 1.967493 1_655
Mn1 O0 1.975699 1_555
Mn1 O2 1.989053 1_555
Mn1 O4 2.049547 1_655
Mn1 O7 2.078081 1_555
Mn2 O11 1.945841 1_555
Mn2 O6 1.972784 1_555
Mn2 O4 2.025056 1_555
Mn2 O29 2.033404 1_554
Mn2 O2 2.172411 1_455
Mn3 O17 1.999695 1_555
Mn3 O10 2.006777 1_555
Mn3 O12 2.027871 1_555
Mn3 O5 2.066068 1_555
Mn3 O15 2.074900 1_655
Mn4 O9 1.969767 1_555
Mn4 O16 1.985747 1_555
Mn4 O15 2.015687 1_555
Mn4 O19 2.034259 1_555
Mn4 O12 2.136809 1_455
Mn5 O22 2.047695 1_555
Mn5 O32 2.065876 1_545
Mn5 O17 2.076929 1_555
Mn5 O10 2.078394 1_555
Mn5 O21 2.167499 1_555
Mn6 O18 1.930360 1_555
Mn6 O3 1.966070 1_565
Mn6 O13 1.995769 1_555
Mn6 O25 2.047540 1_555
Mn6 O14 2.074057 1_555
Mn7 O26 2.055926 1_555
Mn7 O20 2.105108 1_555
Mn7 O23 2.147869 1_655
Mn7 O16 2.155425 1_555
Mn7 O19 2.262464 1_555
Mn8 O30 2.051038 1_555
Mn8 O18 2.090028 1_555
Mn8 O20 2.107437 1_455
Mn8 O25 2.208540 1_555
Mn8 O23 2.286447 1_555
Mn9 O24 2.059315 1_555
Mn9 O33 2.137402 1_655
Mn9 O31 2.163242 1_555
Mn9 O6 2.200877 1_556
Mn9 O29 2.229691 1_555
Mn10 O28 2.074789 1_555
Mn10 O35 2.078265 1_555
Mn10 O33 2.137692 1_555
Mn10 O31 2.149443 1_455
Mn10 O34 2.254898 1_555
Mn11 O35 1.954006 1_555
Mn11 O27 1.996582 1_565
Mn11 O21 2.017641 1_565
Mn11 O32 2.079764 1_555
Mn11 O34 2.089801 1_555
B0 O27 1.333630 1_554
B0 O0 1.379853 1_555
B0 O4 1.447501 1_555
B1 O9 1.354696 1_555
B1 O1 1.387873 1_555
B1 O3 1.409479 1_555
B2 O13 1.356748 1_555
B2 O33 1.376979 1_554
B2 O6 1.443087 1_555
B3 O11 1.363855 1_555
B3 O20 1.378529 1_555
B3 O18 1.398136 1_555
B4 O28 1.348802 1_655
B4 O12 1.407661 1_555
B4 O19 1.416154 1_555
B5 O30 1.335783 1_545
B5 O10 1.394050 1_455
B5 O21 1.433237 1_555
B6 O5 1.349449 1_565
B6 O25 1.410414 1_655
B6 O14 1.410577 1_555
B7 O7 1.350175 1_455
B7 O23 1.392232 1_555
B7 O16 1.447469 1_555
B8 O24 1.338973 1_555
B8 O17 1.381220 1_555
B8 O15 1.439550 1_555
B9 O22 1.340926 1_555
B9 O29 1.416136 1_555
B9 O2 1.416161 1_556
B10 O26 1.371149 1_555
B10 O32 1.392557 1_555
B10 O34 1.397981 1_655
B11 O8 1.335666 1_556
B11 O31 1.409580 1_555
B11 O35 1.413046 1_555
