# generated using pymatgen
data_Li4CoOF4
_symmetry_space_group_name_H-M   'P 1'
_cell_length_a   2.92037717
_cell_length_b   11.67572527
_cell_length_c   11.49332811
_cell_angle_alpha   112.39901858
_cell_angle_beta   82.70278878
_cell_angle_gamma   89.99892801
_symmetry_Int_Tables_number   1
_chemical_formula_structural   Li4CoOF4
_chemical_formula_sum   'Li16 Co4 O4 F16'
_cell_volume   358.89071595
_cell_formula_units_Z   4
loop_
 _symmetry_equiv_pos_site_id
 _symmetry_equiv_pos_as_xyz
  1  'x, y, z'
loop_
 _atom_site_type_symbol
 _atom_site_label
 _atom_site_symmetry_multiplicity
 _atom_site_fract_x
 _atom_site_fract_y
 _atom_site_fract_z
 _atom_site_occupancy
  Li  Li0  1  0.00327600  0.49752600  0.99343500  1
  Li  Li1  1  0.00324300  0.74756500  0.99349900  1
  Li  Li2  1  0.00327500  0.99755200  0.99343700  1
  Li  Li3  1  0.00323500  0.24756500  0.99351200  1
  Li  Li4  1  0.79671000  0.15247400  0.40656600  1
  Li  Li5  1  0.79674600  0.40243400  0.40648900  1
  Li  Li6  1  0.79670900  0.65244700  0.40656700  1
  Li  Li7  1  0.79673900  0.90243400  0.40650100  1
  Li  Li8  1  0.19776300  0.35168000  0.60447400  1
  Li  Li9  1  0.19776200  0.60167400  0.60447300  1
  Li  Li10  1  0.19775500  0.85167900  0.60449000  1
  Li  Li11  1  0.19775300  0.10168300  0.60449100  1
  Li  Li12  1  0.60223900  0.29831900  0.79552800  1
  Li  Li13  1  0.60224800  0.54831700  0.79551000  1
  Li  Li14  1  0.60224800  0.79831900  0.79551200  1
  Li  Li15  1  0.60223800  0.04832600  0.79552900  1
  Co  Co0  1  0.39999700  0.69946400  0.20000200  1
  Co  Co1  1  0.40000800  0.95053600  0.19999300  1
  Co  Co2  1  0.39999700  0.19957100  0.20000100  1
  Co  Co3  1  0.39999800  0.45043600  0.20001500  1
  O  O0  1  0.90002800  0.07486700  0.19998200  1
  O  O1  1  0.90000600  0.32500000  0.20000200  1
  O  O2  1  0.90001000  0.57513100  0.20000700  1
  O  O3  1  0.90000800  0.82499800  0.20000000  1
  F  F0  1  0.50602300  0.37051600  0.98789400  1
  F  F1  1  0.50599900  0.62046000  0.98795400  1
  F  F2  1  0.50599300  0.87052400  0.98796600  1
  F  F3  1  0.50602500  0.12042000  0.98788900  1
  F  F4  1  0.29393100  0.27949500  0.41211900  1
  F  F5  1  0.29397200  0.52957800  0.41210800  1
  F  F6  1  0.29396200  0.77948800  0.41204400  1
  F  F7  1  0.29399700  0.02954400  0.41204400  1
  F  F8  1  0.69847900  0.22614400  0.60305200  1
  F  F9  1  0.69848700  0.47613600  0.60305400  1
  F  F10  1  0.69848000  0.72614500  0.60305200  1
  F  F11  1  0.69849300  0.97614400  0.60304100  1
  F  F12  1  0.10152800  0.42385300  0.79693900  1
  F  F13  1  0.10155500  0.67384700  0.79695000  1
  F  F14  1  0.10152600  0.92385400  0.79694300  1
  F  F15  1  0.10156100  0.17385300  0.79693800  1
loop_
_geom_bond_atom_site_label_1
_geom_bond_atom_site_label_2
_geom_bond_distance
_geom_bond_site_symmetry_2
Li0 O2 2.174257 1_456
Li1 O3 2.173510 1_456
Li2 O0 2.173974 1_466
Li3 O1 2.173394 1_456
Li4 O0 2.174384 1_555
Li5 O1 2.173362 1_555
Li6 O2 2.174132 1_555
Li7 O3 2.173510 1_555
Co0 O2 2.059012 1_455
Co0 O2 2.059038 1_555
Co0 O3 2.068886 1_455
Co0 O3 2.068966 1_555
Co0 F6 2.231838 1_555
Co0 F1 2.231903 1_554
Co1 O0 2.058978 1_465
Co1 O0 2.059076 1_565
Co1 O3 2.068962 1_555
Co1 O3 2.068987 1_455
Co1 F2 2.231680 1_554
Co1 F7 2.231934 1_565
Co2 O0 2.061982 1_455
Co2 O0 2.062032 1_555
Co2 O1 2.068009 1_455
Co2 O1 2.068087 1_555
Co2 F3 2.232573 1_554
Co2 F4 2.232635 1_555
Co3 O2 2.061980 1_455
Co3 O2 2.062052 1_555
Co3 O1 2.068053 1_555
Co3 O1 2.068085 1_455
Co3 F5 2.232373 1_555
Co3 F0 2.232666 1_554
F0 Li12 2.024733 1_555
F0 Li0 2.064700 1_555
F0 Li0 2.064833 1_655
F0 Li3 2.065812 1_555
F0 Li3 2.065858 1_655
F1 Li13 2.025554 1_555
F1 Li0 2.065214 1_555
F1 Li0 2.065246 1_655
F1 Li1 2.065487 1_555
F1 Li1 2.065591 1_655
F2 Li14 2.025659 1_555
F2 Li2 2.065056 1_555
F2 Li2 2.065165 1_655
F2 Li1 2.065599 1_555
F2 Li1 2.065627 1_655
F3 Li15 2.024670 1_555
F3 Li2 2.064884 1_545
F3 Li2 2.064942 1_645
F3 Li3 2.065588 1_555
F3 Li3 2.065713 1_655
F4 Li8 2.024617 1_555
F4 Li4 2.064810 1_555
F4 Li4 2.064837 1_455
F4 Li5 2.065757 1_455
F4 Li5 2.065797 1_555
F5 Li9 2.024722 1_555
F5 Li6 2.064849 1_555
F5 Li6 2.064946 1_455
F5 Li5 2.065562 1_555
F5 Li5 2.065745 1_455
F6 Li10 2.025575 1_555
F6 Li6 2.065200 1_555
F6 Li6 2.065202 1_455
F6 Li7 2.065508 1_455
F6 Li7 2.065571 1_555
F7 Li11 2.025585 1_555
F7 Li4 2.065154 1_555
F7 Li4 2.065220 1_455
F7 Li7 2.065507 1_545
F7 Li7 2.065665 1_445
F8 Li12 2.025891 1_555
F8 Li11 2.064536 1_655
F8 Li8 2.064574 1_555
F8 Li8 2.064592 1_655
F8 Li11 2.064602 1_555
F8 Li4 2.068098 1_555
F9 Li13 2.025680 1_555
F9 Li8 2.064419 1_655
F9 Li8 2.064516 1_555
F9 Li9 2.064596 1_655
F9 Li9 2.064622 1_555
F9 Li5 2.068929 1_555
F10 Li14 2.025722 1_555
F10 Li10 2.064512 1_555
F10 Li10 2.064525 1_655
F10 Li9 2.064560 1_655
F10 Li9 2.064630 1_555
F10 Li6 2.068087 1_555
F11 Li15 2.026017 1_565
F11 Li11 2.064511 1_665
F11 Li11 2.064535 1_565
F11 Li10 2.064587 1_655
F11 Li10 2.064682 1_555
F11 Li7 2.068666 1_555
F12 Li8 2.025775 1_555
F12 Li13 2.064531 1_455
F12 Li12 2.064592 1_555
F12 Li13 2.064593 1_555
F12 Li12 2.064608 1_455
F12 Li0 2.068203 1_555
F13 Li9 2.025901 1_555
F13 Li13 2.064404 1_555
F13 Li13 2.064554 1_455
F13 Li14 2.064623 1_555
F13 Li14 2.064691 1_455
F13 Li1 2.068761 1_555
F14 Li10 2.025649 1_555
F14 Li14 2.064542 1_555
F14 Li15 2.064551 1_465
F14 Li14 2.064553 1_455
F14 Li15 2.064611 1_565
F14 Li2 2.068182 1_555
F15 Li11 2.025585 1_555
F15 Li15 2.064472 1_555
F15 Li12 2.064482 1_555
F15 Li12 2.064555 1_455
F15 Li15 2.064624 1_455
F15 Li3 2.069024 1_555
