# generated using pymatgen
data_Li8Cr3TeO12
_symmetry_space_group_name_H-M   'P 1'
_cell_length_a   5.04856728
_cell_length_b   5.06505312
_cell_length_c   8.60868900
_cell_angle_alpha   89.99922962
_cell_angle_beta   90.00008655
_cell_angle_gamma   89.62772613
_symmetry_Int_Tables_number   1
_chemical_formula_structural   Li8Cr3TeO12
_chemical_formula_sum   'Li8 Cr3 Te1 O12'
_cell_volume   220.13039061
_cell_formula_units_Z   1
loop_
 _symmetry_equiv_pos_site_id
 _symmetry_equiv_pos_as_xyz
  1  'x, y, z'
loop_
 _atom_site_type_symbol
 _atom_site_label
 _atom_site_symmetry_multiplicity
 _atom_site_fract_x
 _atom_site_fract_y
 _atom_site_fract_z
 _atom_site_occupancy
  Li  Li0  1  0.00006600  0.49998500  0.58297500  1
  Li  Li1  1  0.00000200  0.49999300  0.29182800  1
  Li  Li2  1  0.49999700  0.49999800  0.25574500  1
  Li  Li3  1  0.49998400  0.49997300  0.92025400  1
  Li  Li4  1  0.99999000  0.99999900  0.44964300  1
  Li  Li5  1  0.00002200  0.00002500  0.73275500  1
  Li  Li6  1  0.49999400  0.99998700  0.07350300  1
  Li  Li7  1  0.49999300  0.00000000  0.75471700  1
  Cr  Cr0  1  0.49997400  0.49995600  0.59451500  1
  Cr  Cr1  1  0.50003200  0.99997700  0.42705500  1
  Cr  Cr2  1  0.00000300  0.50001600  0.90484500  1
  Te  Te0  1  0.99998700  0.00001200  0.09834400  1
  O  O0  1  0.23673800  0.84758100  0.25262400  1
  O  O1  1  0.21751300  0.83204700  0.93342500  1
  O  O2  1  0.27534000  0.82664000  0.58432300  1
  O  O3  1  0.71442800  0.66495700  0.43484200  1
  O  O4  1  0.78029600  0.68339100  0.08335800  1
  O  O5  1  0.73927400  0.64648500  0.75450800  1
  O  O6  1  0.26072300  0.35350500  0.75450700  1
  O  O7  1  0.21967600  0.31662500  0.08336100  1
  O  O8  1  0.28557100  0.33507100  0.43485400  1
  O  O9  1  0.72469500  0.17337100  0.58431700  1
  O  O10  1  0.78246400  0.16797400  0.93343000  1
  O  O11  1  0.76324700  0.15244200  0.25262700  1
loop_
_geom_bond_atom_site_label_1
_geom_bond_atom_site_label_2
_geom_bond_distance
_geom_bond_site_symmetry_2
Li0 O8 2.094199 1_555
Li0 O3 2.094822 1_455
Li0 O6 2.109499 1_555
Li0 O5 2.109981 1_455
Li0 O2 2.167681 1_555
Li0 O9 2.167838 1_455
Li1 O8 2.068010 1_555
Li1 O3 2.068067 1_455
Li1 O11 2.160742 1_455
Li1 O0 2.160839 1_555
Li1 O7 2.302158 1_555
Li1 O4 2.302295 1_455
Li2 O8 2.063708 1_555
Li2 O3 2.063725 1_555
Li2 O11 2.199006 1_555
Li2 O0 2.199141 1_555
Li2 O4 2.254942 1_555
Li2 O7 2.254966 1_555
Li3 O6 2.014215 1_555
Li3 O5 2.014368 1_555
Li3 O10 2.200742 1_555
Li3 O1 2.201002 1_555
Li3 O7 2.203119 1_556
Li3 O4 2.203280 1_556
Li4 O9 2.007760 1_565
Li4 O2 2.007937 1_655
Li4 O11 2.211170 1_565
Li4 O0 2.211178 1_655
Li4 O3 2.237476 1_555
Li4 O8 2.237646 1_665
Li5 O9 2.078470 1_455
Li5 O2 2.078508 1_545
Li5 O1 2.213961 1_545
Li5 O10 2.214126 1_455
Li5 O6 2.236851 1_555
Li5 O5 2.237233 1_445
Li6 O1 2.056051 1_554
Li6 O10 2.056076 1_564
Li6 O4 2.133479 1_555
Li6 O7 2.133694 1_565
Li6 O0 2.180224 1_555
Li6 O11 2.180333 1_565
Li7 O2 2.054763 1_545
Li7 O9 2.054947 1_555
Li7 O6 2.153383 1_555
Li7 O5 2.153456 1_545
Li7 O1 2.267163 1_545
Li7 O10 2.267217 1_555
Cr0 O8 1.941668 1_555
Cr0 O3 1.942127 1_555
Cr0 O6 1.979353 1_555
Cr0 O5 1.979671 1_555
Cr0 O9 2.001684 1_555
Cr0 O2 2.001845 1_555
Cr1 O2 1.975728 1_555
Cr1 O9 1.975751 1_565
Cr1 O3 2.007896 1_555
Cr1 O8 2.008392 1_565
Cr1 O11 2.151819 1_565
Cr1 O0 2.151970 1_555
Cr2 O5 1.986275 1_455
Cr2 O6 1.986344 1_555
Cr2 O1 2.029457 1_555
Cr2 O10 2.029583 1_455
Cr2 O7 2.107385 1_556
Cr2 O4 2.107442 1_456
O0 Te0 1.943368 1_465
O1 Te0 1.983269 1_466
O4 Te0 1.960046 1_565
O7 Te0 1.960003 1_455
O10 Te0 1.983205 1_556
O11 Te0 1.943366 1_555
