# generated using pymatgen
data_Li3V(PO4)2
_symmetry_space_group_name_H-M   'P 1'
_cell_length_a   5.06774400
_cell_length_b   12.31485700
_cell_length_c   18.00962000
_cell_angle_alpha   90.00000000
_cell_angle_beta   90.00000000
_cell_angle_gamma   90.00000000
_symmetry_Int_Tables_number   1
_chemical_formula_structural   Li3V(PO4)2
_chemical_formula_sum   'Li24 V8 P16 O64'
_cell_volume   1123.95413829
_cell_formula_units_Z   8
loop_
 _symmetry_equiv_pos_site_id
 _symmetry_equiv_pos_as_xyz
  1  'x, y, z'
loop_
 _atom_site_type_symbol
 _atom_site_label
 _atom_site_symmetry_multiplicity
 _atom_site_fract_x
 _atom_site_fract_y
 _atom_site_fract_z
 _atom_site_occupancy
  Li  Li0  1  0.05348600  0.35306700  0.75109200  1
  Li  Li1  1  0.05348600  0.14693300  0.25109200  1
  Li  Li2  1  0.06700700  0.46116700  0.93970400  1
  Li  Li3  1  0.06700700  0.03883300  0.43970400  1
  Li  Li4  1  0.03834600  0.71537200  0.58152600  1
  Li  Li5  1  0.03834600  0.78462800  0.08152600  1
  Li  Li6  1  0.45259200  0.03288900  0.17973300  1
  Li  Li7  1  0.45259200  0.46711100  0.67973300  1
  Li  Li8  1  0.41394200  0.79158500  0.82819800  1
  Li  Li9  1  0.41394200  0.70841500  0.32819800  1
  Li  Li10  1  0.45965900  0.60755600  0.51425300  1
  Li  Li11  1  0.45965900  0.89244400  0.01425300  1
  Li  Li12  1  0.54034100  0.10755600  0.51425300  1
  Li  Li13  1  0.54034100  0.39244400  0.01425300  1
  Li  Li14  1  0.58605800  0.20841500  0.32819800  1
  Li  Li15  1  0.58605800  0.29158500  0.82819800  1
  Li  Li16  1  0.54740800  0.53288900  0.17973300  1
  Li  Li17  1  0.54740800  0.96711100  0.67973300  1
  Li  Li18  1  0.96165400  0.28462800  0.08152600  1
  Li  Li19  1  0.96165400  0.21537200  0.58152600  1
  Li  Li20  1  0.93299300  0.96116700  0.93970400  1
  Li  Li21  1  0.93299300  0.53883300  0.43970400  1
  Li  Li22  1  0.94651400  0.85306700  0.75109200  1
  Li  Li23  1  0.94651400  0.64693300  0.25109200  1
  V  V0  1  0.08781000  0.09845700  0.76352200  1
  V  V1  1  0.08781000  0.40154300  0.26352200  1
  V  V2  1  0.43014500  0.15200500  0.00742400  1
  V  V3  1  0.43014500  0.34799500  0.50742400  1
  V  V4  1  0.56985500  0.65200500  0.00742400  1
  V  V5  1  0.56985500  0.84799500  0.50742400  1
  V  V6  1  0.91219000  0.59845700  0.76352200  1
  V  V7  1  0.91219000  0.90154300  0.26352200  1
  P  P0  1  0.00227200  0.71913900  0.91991700  1
  P  P1  1  0.00227200  0.78086100  0.41991700  1
  P  P2  1  0.04307200  0.96846100  0.59670700  1
  P  P3  1  0.04307200  0.53153900  0.09670700  1
  P  P4  1  0.44550600  0.72214400  0.67423500  1
  P  P5  1  0.44550600  0.77785600  0.17423500  1
  P  P6  1  0.48142900  0.53262000  0.85070300  1
  P  P7  1  0.48142900  0.96738000  0.35070300  1
  P  P8  1  0.51857100  0.03262000  0.85070300  1
  P  P9  1  0.51857100  0.46738000  0.35070300  1
  P  P10  1  0.55449400  0.22214400  0.67423500  1
  P  P11  1  0.55449400  0.27785600  0.17423500  1
  P  P12  1  0.95692800  0.03153900  0.09670700  1
  P  P13  1  0.95692800  0.46846100  0.59670700  1
  P  P14  1  0.99772800  0.21913900  0.91991700  1
  P  P15  1  0.99772800  0.28086100  0.41991700  1
  O  O0  1  0.00305200  0.48393700  0.68256100  1
  O  O1  1  0.00305200  0.01606300  0.18256100  1
  O  O2  1  0.02938100  0.73548000  0.83432100  1
  O  O3  1  0.02938100  0.76452000  0.33432100  1
  O  O4  1  0.09257800  0.10399000  0.94043400  1
  O  O5  1  0.09257800  0.39601000  0.44043400  1
  O  O6  1  0.07298900  0.56315300  0.55126000  1
  O  O7  1  0.07298900  0.93684700  0.05126000  1
  O  O8  1  0.11369400  0.36259100  0.58036400  1
  O  O9  1  0.11369400  0.13740900  0.08036400  1
  O  O10  1  0.14533800  0.70834100  0.69370400  1
  O  O11  1  0.14533800  0.79165900  0.19370400  1
  O  O12  1  0.20978000  0.29409300  0.95641200  1
  O  O13  1  0.20978000  0.20590700  0.45641200  1
  O  O14  1  0.20943100  0.50524600  0.81596100  1
  O  O15  1  0.20943100  0.99475400  0.31596100  1
  O  O16  1  0.27745800  0.74573300  0.95287200  1
  O  O17  1  0.27745800  0.75426700  0.45287200  1
  O  O18  1  0.30174300  0.54306000  0.31855000  1
  O  O19  1  0.30174300  0.95694000  0.81855000  1
  O  O20  1  0.34442900  0.54530800  0.08017000  1
  O  O21  1  0.34442900  0.95469200  0.58017000  1
  O  O22  1  0.39765000  0.11648700  0.68891400  1
  O  O23  1  0.39765000  0.38351300  0.18891400  1
  O  O24  1  0.43524300  0.18246200  0.21759000  1
  O  O25  1  0.43524300  0.31753800  0.71759000  1
  O  O26  1  0.44739200  0.98138800  0.43685200  1
  O  O27  1  0.44739200  0.51861200  0.93685200  1
  O  O28  1  0.45295800  0.73636700  0.58730900  1
  O  O29  1  0.45295800  0.76363300  0.08730900  1
  O  O30  1  0.42536900  0.14741900  0.82897200  1
  O  O31  1  0.42536900  0.35258100  0.32897200  1
  O  O32  1  0.57463100  0.64741900  0.82897200  1
  O  O33  1  0.57463100  0.85258100  0.32897200  1
  O  O34  1  0.54704200  0.26363300  0.08730900  1
  O  O35  1  0.54704200  0.23636700  0.58730900  1
  O  O36  1  0.55260800  0.48138800  0.43685200  1
  O  O37  1  0.55260800  0.01861200  0.93685200  1
  O  O38  1  0.56475700  0.68246200  0.21759000  1
  O  O39  1  0.56475700  0.81753800  0.71759000  1
  O  O40  1  0.60235000  0.61648700  0.68891400  1
  O  O41  1  0.60235000  0.88351300  0.18891400  1
  O  O42  1  0.65557100  0.04530800  0.08017000  1
  O  O43  1  0.65557100  0.45469200  0.58017000  1
  O  O44  1  0.69825700  0.45694000  0.81855000  1
  O  O45  1  0.69825700  0.04306000  0.31855000  1
  O  O46  1  0.72254200  0.25426700  0.45287200  1
  O  O47  1  0.72254200  0.24573300  0.95287200  1
  O  O48  1  0.79056900  0.49475400  0.31596100  1
  O  O49  1  0.79056900  0.00524600  0.81596100  1
  O  O50  1  0.79022000  0.79409300  0.95641200  1
  O  O51  1  0.79022000  0.70590700  0.45641200  1
  O  O52  1  0.85466200  0.20834100  0.69370400  1
  O  O53  1  0.85466200  0.29165900  0.19370400  1
  O  O54  1  0.88630600  0.63740900  0.08036400  1
  O  O55  1  0.88630600  0.86259100  0.58036400  1
  O  O56  1  0.92701100  0.43684700  0.05126000  1
  O  O57  1  0.92701100  0.06315300  0.55126000  1
  O  O58  1  0.90742200  0.60399000  0.94043400  1
  O  O59  1  0.90742200  0.89601000  0.44043400  1
  O  O60  1  0.97061900  0.23548000  0.83432100  1
  O  O61  1  0.97061900  0.26452000  0.33432100  1
  O  O62  1  0.99694800  0.51606300  0.18256100  1
  O  O63  1  0.99694800  0.98393700  0.68256100  1
loop_
_geom_bond_atom_site_label_1
_geom_bond_atom_site_label_2
_geom_bond_distance
_geom_bond_site_symmetry_2
Li0 O0 2.045976 1_555
Li0 O25 2.073243 1_555
Li0 O60 2.126035 1_455
Li0 O52 2.293459 1_455
Li0 O14 2.345531 1_555
Li0 O44 2.520521 1_455
Li1 O1 2.045976 1_555
Li1 O24 2.073243 1_555
Li1 O61 2.126035 1_455
Li1 O53 2.293459 1_455
Li1 O15 2.345531 1_545
Li1 O45 2.520521 1_455
Li2 O58 1.935914 1_455
Li2 O27 2.054043 1_555
Li2 O56 2.151614 1_456
Li2 O12 2.201664 1_555
Li2 O14 2.404602 1_555
Li3 O59 1.935914 1_445
Li3 O26 2.054043 1_545
Li3 O57 2.151614 1_455
Li3 O13 2.201664 1_555
Li3 O15 2.404602 1_545
Li4 O6 1.960074 1_555
Li4 O55 1.970027 1_455
Li4 O10 2.093569 1_555
Li4 O28 2.119556 1_555
Li4 O51 2.583002 1_455
Li5 O7 1.960074 1_555
Li5 O54 1.970027 1_455
Li5 O11 2.093569 1_555
Li5 O29 2.119556 1_555
Li5 O50 2.583002 1_454
Li6 O24 1.966068 1_555
Li6 O41 1.996809 1_545
Li6 O42 2.072843 1_555
Li6 O1 2.288125 1_555
Li7 O25 1.966068 1_555
Li7 O40 1.996809 1_555
Li7 O43 2.072843 1_555
Li7 O0 2.288125 1_555
Li8 O32 1.953283 1_555
Li8 O2 2.070647 1_555
Li8 O19 2.121345 1_555
Li8 O39 2.157403 1_555
Li8 O16 2.416352 1_555
Li9 O33 1.953283 1_555
Li9 O3 2.070647 1_555
Li9 O18 2.121345 1_555
Li9 O38 2.157403 1_555
Li9 O17 2.416352 1_555
Li10 O28 2.061204 1_555
Li10 O36 2.139888 1_555
Li10 O6 2.140799 1_555
Li10 O17 2.310594 1_555
Li10 O51 2.314815 1_555
Li10 O43 2.436969 1_555
Li11 O29 2.061204 1_555
Li11 O37 2.139888 1_564
Li11 O7 2.140799 1_555
Li11 O16 2.310594 1_554
Li11 O50 2.314815 1_554
Li11 O42 2.436969 1_565
Li12 O35 2.061204 1_555
Li12 O26 2.139888 1_545
Li12 O57 2.140799 1_555
Li12 O46 2.310594 1_555
Li12 O13 2.314815 1_555
Li12 O21 2.436969 1_545
Li13 O34 2.061204 1_555
Li13 O27 2.139888 1_554
Li13 O56 2.140799 1_555
Li13 O47 2.310594 1_554
Li13 O12 2.314815 1_554
Li13 O20 2.436969 1_555
Li14 O31 1.953283 1_555
Li14 O61 2.070647 1_555
Li14 O45 2.121345 1_555
Li14 O24 2.157403 1_555
Li14 O46 2.416352 1_555
Li15 O30 1.953283 1_555
Li15 O60 2.070647 1_555
Li15 O44 2.121345 1_555
Li15 O25 2.157403 1_555
Li15 O47 2.416352 1_555
Li16 O38 1.966068 1_555
Li16 O23 1.996809 1_555
Li16 O20 2.072843 1_555
Li16 O62 2.288125 1_555
Li17 O39 1.966068 1_555
Li17 O22 1.996809 1_565
Li17 O21 2.072843 1_555
Li17 O63 2.288125 1_555
Li18 O56 1.960074 1_555
Li18 O9 1.970027 1_655
Li18 O53 2.093569 1_555
Li18 O34 2.119556 1_555
Li18 O12 2.583002 1_654
Li19 O57 1.960074 1_555
Li19 O8 1.970027 1_655
Li19 O52 2.093569 1_555
Li19 O35 2.119556 1_555
Li19 O13 2.583002 1_655
Li20 O4 1.935914 1_665
Li20 O37 2.054043 1_565
Li20 O7 2.151614 1_656
Li20 O50 2.201664 1_555
Li20 O49 2.404602 1_565
Li21 O5 1.935914 1_655
Li21 O36 2.054043 1_555
Li21 O6 2.151614 1_655
Li21 O51 2.201664 1_555
Li21 O48 2.404602 1_555
Li22 O63 2.045976 1_555
Li22 O39 2.073243 1_555
Li22 O2 2.126035 1_655
Li22 O10 2.293459 1_655
Li22 O49 2.345531 1_565
Li22 O19 2.520521 1_655
Li23 O62 2.045976 1_555
Li23 O38 2.073243 1_555
Li23 O3 2.126035 1_655
Li23 O11 2.293459 1_655
Li23 O48 2.345531 1_555
Li23 O18 2.520521 1_655
O0 P13 1.575337 1_455
O0 V6 2.080133 1_455
O1 P12 1.575337 1_455
O1 V7 2.080133 1_445
O2 P0 1.560689 1_555
O2 V6 2.196788 1_455
O3 P1 1.560689 1_555
O3 V7 2.196788 1_455
O4 P14 1.542216 1_455
O4 V2 2.175246 1_556
O5 P15 1.542216 1_455
O5 V3 2.175246 1_555
O6 P13 1.541327 1_455
O7 P12 1.541327 1_465
O8 P13 1.554866 1_455
O8 V3 2.080803 1_555
O9 P12 1.554866 1_455
O9 V2 2.080803 1_555
O10 P4 1.570289 1_555
O10 V6 2.192768 1_455
O11 P5 1.570289 1_555
O11 V7 2.192768 1_455
O12 P14 1.561675 1_455
O12 V2 2.270008 1_556
O13 P15 1.561675 1_455
O13 V3 2.270008 1_555
O14 P6 1.550858 1_555
O14 V6 2.116269 1_455
O15 P7 1.550858 1_555
O15 V7 2.116269 1_455
O16 P0 1.550593 1_555
O16 V4 2.119723 1_556
O17 P1 1.550593 1_555
O17 V5 2.119723 1_555
O18 P9 1.552849 1_555
O18 V1 2.279202 1_555
O19 P8 1.552849 1_565
O19 V0 2.279202 1_565
O20 P3 1.565181 1_555
O20 V4 2.178991 1_555
O21 P2 1.565181 1_555
O21 V5 2.178991 1_555
O22 P10 1.547469 1_555
O22 V0 2.078515 1_555
O23 P11 1.547469 1_555
O23 V1 2.078515 1_555
O24 P11 1.534584 1_555
O25 P10 1.534584 1_555
O26 P7 1.570572 1_555
O26 V5 2.167729 1_555
O27 P6 1.570572 1_555
O27 V4 2.167729 1_556
O28 P4 1.575725 1_555
O28 V5 2.076186 1_555
O29 P5 1.575725 1_555
O29 V4 2.076186 1_555
O30 P8 1.541071 1_555
O30 V0 2.163176 1_555
O31 P9 1.541071 1_555
O31 V1 2.163176 1_555
O32 P6 1.541071 1_555
O32 V6 2.163176 1_555
O33 P7 1.541071 1_555
O33 V7 2.163176 1_555
O34 P11 1.575725 1_555
O34 V2 2.076186 1_555
O35 P10 1.575725 1_555
O35 V3 2.076186 1_555
O36 P9 1.570572 1_555
O36 V3 2.167729 1_555
O37 P8 1.570572 1_555
O37 V2 2.167729 1_556
O38 P5 1.534584 1_555
O39 P4 1.534584 1_555
O40 P4 1.547469 1_555
O40 V6 2.078515 1_555
O41 P5 1.547469 1_555
O41 V7 2.078515 1_555
O42 P12 1.565181 1_555
O42 V2 2.178991 1_555
O43 P13 1.565181 1_555
O43 V3 2.178991 1_555
O44 P6 1.552849 1_555
O44 V6 2.279202 1_555
O45 P7 1.552849 1_545
O45 V7 2.279202 1_545
O46 P15 1.550593 1_555
O46 V3 2.119723 1_555
O47 P14 1.550593 1_555
O47 V2 2.119723 1_556
O48 P9 1.550858 1_555
O48 V1 2.116269 1_655
O49 P8 1.550858 1_555
O49 V0 2.116269 1_655
O50 P0 1.561675 1_655
O50 V4 2.270008 1_556
O51 P1 1.561675 1_655
O51 V5 2.270008 1_555
O52 P10 1.570289 1_555
O52 V0 2.192768 1_655
O53 P11 1.570289 1_555
O53 V1 2.192768 1_655
O54 P3 1.554866 1_655
O54 V4 2.080803 1_555
O55 P2 1.554866 1_655
O55 V5 2.080803 1_555
O56 P3 1.541327 1_655
O57 P2 1.541327 1_645
O58 P0 1.542216 1_655
O58 V4 2.175246 1_556
O59 P1 1.542216 1_655
O59 V5 2.175246 1_555
O60 P14 1.560689 1_555
O60 V0 2.196788 1_655
O61 P15 1.560689 1_555
O61 V1 2.196788 1_655
O62 P3 1.575337 1_655
O62 V1 2.080133 1_655
O63 P2 1.575337 1_655
O63 V0 2.080133 1_665
