# generated using pymatgen
data_Nb(PO3)4
_symmetry_space_group_name_H-M   'P 1'
_cell_length_a   7.47941740
_cell_length_b   7.47941740
_cell_length_c   10.26022653
_cell_angle_alpha   66.58138699
_cell_angle_beta   66.58138699
_cell_angle_gamma   69.89362020
_symmetry_Int_Tables_number   1
_chemical_formula_structural   Nb(PO3)4
_chemical_formula_sum   'Nb2 P8 O24'
_cell_volume   471.39468291
_cell_formula_units_Z   2
loop_
 _symmetry_equiv_pos_site_id
 _symmetry_equiv_pos_as_xyz
  1  'x, y, z'
loop_
 _atom_site_type_symbol
 _atom_site_label
 _atom_site_symmetry_multiplicity
 _atom_site_fract_x
 _atom_site_fract_y
 _atom_site_fract_z
 _atom_site_occupancy
  Nb  Nb0  1  0.00000000  0.50000000  0.00000000  1
  Nb  Nb1  1  0.50000000  0.00000000  0.50000000  1
  P  P0  1  0.31141800  0.32009900  0.69492100  1
  P  P1  1  0.25899900  0.72662500  0.46891600  1
  P  P2  1  0.27337500  0.74100100  0.03108400  1
  P  P3  1  0.32009900  0.31141800  0.19492100  1
  P  P4  1  0.67990100  0.68858200  0.80507900  1
  P  P5  1  0.72662500  0.25899900  0.96891600  1
  P  P6  1  0.74100100  0.27337500  0.53108400  1
  P  P7  1  0.68858200  0.67990100  0.30507900  1
  O  O0  1  0.80224400  0.65828300  0.15217600  1
  O  O1  1  0.80530500  0.33060600  0.05496200  1
  O  O2  1  0.33060600  0.80530500  0.55496200  1
  O  O3  1  0.46471300  0.66820100  0.33887800  1
  O  O4  1  0.22466700  0.50512200  0.57339700  1
  O  O5  1  0.31418300  0.13156900  0.67096300  1
  O  O6  1  0.50512200  0.22466700  0.07339700  1
  O  O7  1  0.34171700  0.19775600  0.34782400  1
  O  O8  1  0.09181400  0.84315400  0.41044300  1
  O  O9  1  0.33179900  0.53528700  0.16112200  1
  O  O10  1  0.86843100  0.68581700  0.82903700  1
  O  O11  1  0.15684600  0.90818600  0.08955700  1
  O  O12  1  0.84315400  0.09181400  0.91044300  1
  O  O13  1  0.13156900  0.31418300  0.17096300  1
  O  O14  1  0.66820100  0.46471300  0.83887800  1
  O  O15  1  0.90818600  0.15684600  0.58955700  1
  O  O16  1  0.65828300  0.80224400  0.65217600  1
  O  O17  1  0.49487800  0.77533300  0.92660300  1
  O  O18  1  0.68581700  0.86843100  0.32903700  1
  O  O19  1  0.77533300  0.49487800  0.42660300  1
  O  O20  1  0.53528700  0.33179900  0.66112200  1
  O  O21  1  0.66939400  0.19469500  0.44503800  1
  O  O22  1  0.19469500  0.66939400  0.94503800  1
  O  O23  1  0.19775600  0.34171700  0.84782400  1
loop_
_geom_bond_atom_site_label_1
_geom_bond_atom_site_label_2
_geom_bond_distance
_geom_bond_site_symmetry_2
Nb0 O1 2.022754 1_455
Nb0 O22 2.022754 1_554
Nb0 O23 2.111113 1_554
Nb0 O0 2.111113 1_455
Nb0 O13 2.114431 1_555
Nb0 O10 2.114431 1_454
Nb1 O2 2.022754 1_545
Nb1 O21 2.022754 1_555
Nb1 O16 2.111113 1_545
Nb1 O7 2.111113 1_555
Nb1 O18 2.114431 1_545
Nb1 O5 2.114431 1_555
O0 P7 1.502344 1_555
O1 P5 1.555026 1_554
O2 P1 1.555026 1_555
O3 P7 1.595814 1_555
O3 P1 1.645549 1_555
O4 P0 1.595280 1_555
O4 P1 1.619188 1_555
O5 P0 1.516791 1_555
O6 P3 1.595280 1_555
O6 P5 1.619188 1_554
O7 P3 1.502344 1_555
O8 P1 1.454154 1_555
O9 P3 1.595814 1_555
O9 P2 1.645549 1_555
O10 P4 1.516791 1_555
O11 P2 1.454154 1_555
O12 P5 1.454154 1_555
O13 P3 1.516791 1_555
O14 P4 1.595814 1_555
O14 P5 1.645549 1_555
O15 P6 1.454154 1_555
O16 P4 1.502344 1_555
O17 P4 1.595280 1_555
O17 P2 1.619188 1_556
O18 P7 1.516791 1_555
O19 P7 1.595280 1_555
O19 P6 1.619188 1_555
O20 P0 1.595814 1_555
O20 P6 1.645549 1_555
O21 P6 1.555026 1_555
O22 P2 1.555026 1_556
O23 P0 1.502344 1_555
