# generated using pymatgen
data_Mn6O7F5
_symmetry_space_group_name_H-M   'P 1'
_cell_length_a   4.72480700
_cell_length_b   5.61313419
_cell_length_c   7.72537299
_cell_angle_alpha   84.83272111
_cell_angle_beta   86.07994704
_cell_angle_gamma   85.83653611
_symmetry_Int_Tables_number   1
_chemical_formula_structural   Mn6O7F5
_chemical_formula_sum   'Mn6 O7 F5'
_cell_volume   203.11868401
_cell_formula_units_Z   1
loop_
 _symmetry_equiv_pos_site_id
 _symmetry_equiv_pos_as_xyz
  1  'x, y, z'
loop_
 _atom_site_type_symbol
 _atom_site_label
 _atom_site_symmetry_multiplicity
 _atom_site_fract_x
 _atom_site_fract_y
 _atom_site_fract_z
 _atom_site_occupancy
  Mn  Mn0  1  0.52448300  0.50661300  0.00901800  1
  Mn  Mn1  1  0.53274700  0.84507000  0.66230000  1
  Mn  Mn2  1  0.49212400  0.16123300  0.33433000  1
  Mn  Mn3  1  0.99533300  0.32220500  0.67243000  1
  Mn  Mn4  1  0.99060800  0.66095600  0.32103200  1
  Mn  Mn5  1  0.96494900  0.00275300  0.99979200  1
  O  O0  1  0.81589200  0.04433700  0.78271100  1
  O  O1  1  0.81107600  0.71843000  0.09346300  1
  O  O2  1  0.70017100  0.20326600  0.10855000  1
  O  O3  1  0.68972400  0.53745700  0.77032600  1
  O  O4  1  0.69897800  0.86695100  0.42827800  1
  O  O5  1  0.30889700  0.12279000  0.56720700  1
  O  O6  1  0.31325700  0.46846700  0.23259900  1
  F  F0  1  0.80613400  0.36339700  0.43331000  1
  F  F1  1  0.29851100  0.80755800  0.89488100  1
  F  F2  1  0.17495000  0.61419000  0.56153800  1
  F  F3  1  0.18684500  0.96739700  0.21200300  1
  F  F4  1  0.19531900  0.28692700  0.91623200  1
loop_
_geom_bond_atom_site_label_1
_geom_bond_atom_site_label_2
_geom_bond_distance
_geom_bond_site_symmetry_2
Mn0 O6 1.937512 1_555
Mn0 O3 1.950660 1_554
Mn0 O2 1.955959 1_555
Mn0 O1 2.041336 1_555
Mn1 O4 1.918422 1_555
Mn1 O5 1.936221 1_565
Mn1 O3 1.966487 1_555
Mn1 O0 2.116825 1_565
Mn2 O5 1.943422 1_555
Mn2 O2 1.946637 1_555
Mn2 O4 1.963968 1_545
Mn2 O6 1.985190 1_555
Mn3 O0 1.931641 1_555
Mn3 O5 1.966489 1_655
Mn3 O3 1.969450 1_555
Mn4 O4 1.925393 1_555
Mn4 O6 1.926004 1_655
Mn4 O1 1.994085 1_555
Mn5 O2 1.833010 1_556
Mn5 O0 1.852030 1_555
Mn5 O1 1.867557 1_546
F0 Mn4 2.036863 1_555
F0 Mn3 2.093775 1_555
F0 Mn2 2.151620 1_555
F1 Mn5 2.018844 1_465
F1 Mn1 2.047282 1_555
F1 Mn0 2.090334 1_556
F2 Mn3 1.997481 1_455
F2 Mn4 2.092818 1_455
F2 Mn1 2.413107 1_555
F3 Mn5 1.993091 1_464
F3 Mn4 2.095631 1_455
F3 Mn2 2.181009 1_565
F4 Mn5 2.028883 1_455
F4 Mn3 2.151383 1_455
F4 Mn0 2.245727 1_556
