# generated using pymatgen
data_SrLaBr5
_symmetry_space_group_name_H-M   'P 1'
_cell_length_a   4.41174200
_cell_length_b   7.96440100
_cell_length_c   13.96589296
_cell_angle_alpha   86.69089377
_cell_angle_beta   90.00000000
_cell_angle_gamma   90.00000000
_symmetry_Int_Tables_number   1
_chemical_formula_structural   SrLaBr5
_chemical_formula_sum   'Sr2 La2 Br10'
_cell_volume   489.89974246
_cell_formula_units_Z   2
loop_
 _symmetry_equiv_pos_site_id
 _symmetry_equiv_pos_as_xyz
  1  'x, y, z'
loop_
 _atom_site_type_symbol
 _atom_site_label
 _atom_site_symmetry_multiplicity
 _atom_site_fract_x
 _atom_site_fract_y
 _atom_site_fract_z
 _atom_site_occupancy
  Sr  Sr0  1  0.75000000  0.54297700  0.64689400  1
  Sr  Sr1  1  0.25000000  0.45702300  0.35310600  1
  La  La0  1  0.25000000  0.95038600  0.83984700  1
  La  La1  1  0.75000000  0.04961400  0.16015300  1
  Br  Br0  1  0.75000000  0.95337600  0.68536300  1
  Br  Br1  1  0.25000000  0.85132400  0.06456300  1
  Br  Br2  1  0.25000000  0.69693700  0.52177600  1
  Br  Br3  1  0.75000000  0.67411000  0.87843600  1
  Br  Br4  1  0.75000000  0.68306700  0.26078200  1
  Br  Br5  1  0.25000000  0.31693300  0.73921800  1
  Br  Br6  1  0.25000000  0.32589000  0.12156400  1
  Br  Br7  1  0.75000000  0.30306300  0.47822400  1
  Br  Br8  1  0.75000000  0.14867600  0.93543700  1
  Br  Br9  1  0.25000000  0.04662400  0.31463700  1
loop_
_geom_bond_atom_site_label_1
_geom_bond_atom_site_label_2
_geom_bond_distance
_geom_bond_site_symmetry_2
Br0 La0 3.084694 1_655
Br0 La0 3.084694 1_555
Br0 Sr0 3.342903 1_555
Br1 La1 3.063585 1_565
Br1 La1 3.063585 1_465
Br1 La0 3.191539 1_554
Br2 Sr0 3.029097 1_555
Br2 Sr0 3.029097 1_455
Br2 Sr1 3.117636 1_555
Br3 La0 3.140231 1_555
Br3 La0 3.140231 1_655
Br3 Sr0 3.455055 1_555
Br4 Sr1 3.082451 1_555
Br4 Sr1 3.082451 1_655
Br4 La1 3.166055 1_565
Br5 Sr0 3.082451 1_555
Br5 Sr0 3.082451 1_455
Br5 La0 3.166055 1_545
Br6 La1 3.140231 1_555
Br6 La1 3.140231 1_455
Br6 Sr1 3.455055 1_555
Br7 Sr1 3.029097 1_655
Br7 Sr1 3.029097 1_555
Br7 Sr0 3.117636 1_555
Br8 La0 3.063585 1_545
Br8 La0 3.063585 1_645
Br8 La1 3.191539 1_556
Br9 La1 3.084694 1_555
Br9 La1 3.084694 1_455
Br9 Sr1 3.342903 1_555
