# generated using pymatgen
data_Li6Mn3Sn(PO4)6
_symmetry_space_group_name_H-M   'P 1'
_cell_length_a   8.54765800
_cell_length_b   8.63730619
_cell_length_c   8.72215530
_cell_angle_alpha   61.49892352
_cell_angle_beta   61.99499940
_cell_angle_gamma   62.62247605
_symmetry_Int_Tables_number   1
_chemical_formula_structural   Li6Mn3Sn(PO4)6
_chemical_formula_sum   'Li6 Mn3 Sn1 P6 O24'
_cell_volume   476.01065407
_cell_formula_units_Z   1
loop_
 _symmetry_equiv_pos_site_id
 _symmetry_equiv_pos_as_xyz
  1  'x, y, z'
loop_
 _atom_site_type_symbol
 _atom_site_label
 _atom_site_symmetry_multiplicity
 _atom_site_fract_x
 _atom_site_fract_y
 _atom_site_fract_z
 _atom_site_occupancy
  Li  Li0  1  0.99705000  0.99432600  0.97505500  1
  Li  Li1  1  0.65125300  0.84690200  0.24942200  1
  Li  Li2  1  0.50248700  0.50152300  0.51305500  1
  Li  Li3  1  0.35034800  0.16022900  0.70961300  1
  Li  Li4  1  0.15910700  0.70717100  0.35578600  1
  Li  Li5  1  0.70974700  0.35625300  0.16003900  1
  Mn  Mn0  1  0.85724700  0.85689600  0.85643800  1
  Mn  Mn1  1  0.64307600  0.64144800  0.64527700  1
  Mn  Mn2  1  0.34556700  0.34887400  0.35051300  1
  Sn  Sn0  1  0.14653900  0.15231300  0.14397300  1
  P  P0  1  0.94373000  0.55883000  0.25056400  1
  P  P1  1  0.56336500  0.25835200  0.94366300  1
  P  P2  1  0.24884500  0.94160300  0.55979400  1
  P  P3  1  0.03978800  0.46168300  0.75330400  1
  P  P4  1  0.74941700  0.03594300  0.45784000  1
  P  P5  1  0.46345000  0.75637600  0.04573600  1
  O  O0  1  0.50185400  0.71363000  0.88088000  1
  O  O1  1  0.88324600  0.49292800  0.69283500  1
  O  O2  1  0.74136200  0.09235600  0.93676600  1
  O  O3  1  0.69671500  0.87907900  0.47087700  1
  O  O4  1  0.39514400  0.20135600  0.98114800  1
  O  O5  1  0.57313800  0.41615000  0.75508300  1
  O  O6  1  0.08385300  0.92149200  0.74189400  1
  O  O7  1  0.41141300  0.75933600  0.55963600  1
  O  O8  1  0.99802500  0.60820700  0.82642900  1
  O  O9  1  0.74824900  0.57497000  0.39460400  1
  O  O10  1  0.06442600  0.26053500  0.90957600  1
  O  O11  1  0.80703000  0.98507800  0.61919300  1
  O  O12  1  0.19364800  0.98764000  0.39159500  1
  O  O13  1  0.92717200  0.74961900  0.09431700  1
  O  O14  1  0.23172000  0.44436200  0.59721900  1
  O  O15  1  0.98507800  0.39526000  0.19100200  1
  O  O16  1  0.59337000  0.22445600  0.44079600  1
  O  O17  1  0.91006500  0.06513300  0.26470100  1
  O  O18  1  0.44088100  0.59699200  0.23365900  1
  O  O19  1  0.61852400  0.81921200  0.02410800  1
  O  O20  1  0.30428200  0.09685300  0.54048100  1
  O  O21  1  0.26736000  0.91375900  0.06925700  1
  O  O22  1  0.09693500  0.52934200  0.31477300  1
  O  O23  1  0.53249100  0.31653400  0.09910100  1
loop_
_geom_bond_atom_site_label_1
_geom_bond_atom_site_label_2
_geom_bond_distance
_geom_bond_site_symmetry_2
Li0 O2 2.078137 1_565
Li0 O13 2.094160 1_556
Li0 O6 2.111097 1_655
Li0 O10 2.366539 1_665
Li0 O21 2.501247 1_656
Li0 O17 2.569353 1_566
Li1 O9 2.040609 1_555
Li1 O13 2.089142 1_555
Li1 O19 2.241420 1_555
Li1 O3 2.296893 1_555
Li1 O7 2.521849 1_555
Li1 O2 2.556630 1_564
Li2 O9 2.108254 1_555
Li2 O5 2.160290 1_555
Li2 O7 2.168378 1_555
Li2 O14 2.291006 1_555
Li2 O18 2.404974 1_555
Li2 O16 2.448986 1_555
Li3 O20 2.035994 1_555
Li3 O14 2.088262 1_555
Li3 O10 2.292868 1_555
Li3 O16 2.316220 1_555
Li4 O22 2.055032 1_555
Li4 O18 2.071551 1_555
Li4 O14 2.311311 1_555
Li4 O21 2.318823 1_555
Li5 O23 2.025864 1_555
Li5 O16 2.091781 1_555
Li5 O17 2.324937 1_555
Li5 O18 2.347554 1_555
Mn0 O6 1.925062 1_655
Mn0 O19 1.939734 1_556
Mn0 O11 1.975500 1_555
Mn0 O8 1.998499 1_555
Mn0 O13 2.083547 1_556
Mn0 O2 2.112707 1_565
Mn1 O5 1.953203 1_555
Mn1 O1 1.975319 1_555
Mn1 O3 1.991916 1_555
Mn1 O0 2.066337 1_555
Mn1 O7 2.079584 1_555
Mn1 O9 2.189927 1_555
Mn2 O22 2.038426 1_555
Mn2 O23 2.079256 1_555
Mn2 O20 2.079323 1_555
Mn2 O16 2.219628 1_555
Mn2 O18 2.244272 1_555
Mn2 O14 2.290543 1_555
O0 P5 1.504510 1_556
O1 P3 1.528470 1_655
O2 P1 1.537606 1_555
O3 P4 1.554917 1_565
O4 P1 1.572489 1_555
O4 Sn0 2.032634 1_556
O5 P1 1.551213 1_555
O6 P2 1.549278 1_555
O7 P2 1.548437 1_555
O8 P3 1.508950 1_655
O9 P0 1.539898 1_555
O10 P3 1.610511 1_555
O10 Sn0 2.113409 1_556
O11 P4 1.509286 1_565
O12 P2 1.566434 1_555
O12 Sn0 2.051380 1_565
O13 P0 1.554425 1_555
O14 P3 1.561555 1_555
O15 P0 1.568317 1_555
O15 Sn0 2.025491 1_655
O16 P4 1.552477 1_555
O17 P4 1.589881 1_555
O17 Sn0 2.098993 1_655
O18 P5 1.553338 1_555
O19 P5 1.554431 1_555
O20 P2 1.531307 1_545
O21 P5 1.595946 1_555
O21 Sn0 2.104553 1_565
O22 P0 1.529467 1_455
O23 P1 1.533788 1_554
