# generated using pymatgen
data_FeOF
_symmetry_space_group_name_H-M   'P 1'
_cell_length_a   3.10437200
_cell_length_b   9.44445800
_cell_length_c   9.48155548
_cell_angle_alpha   89.91483180
_cell_angle_beta   90.00000000
_cell_angle_gamma   90.00000000
_symmetry_Int_Tables_number   1
_chemical_formula_structural   FeOF
_chemical_formula_sum   'Fe8 O8 F8'
_cell_volume   277.99047003
_cell_formula_units_Z   8
loop_
 _symmetry_equiv_pos_site_id
 _symmetry_equiv_pos_as_xyz
  1  'x, y, z'
loop_
 _atom_site_type_symbol
 _atom_site_label
 _atom_site_symmetry_multiplicity
 _atom_site_fract_x
 _atom_site_fract_y
 _atom_site_fract_z
 _atom_site_occupancy
  Fe  Fe0  1  0.00000000  0.98045900  0.99588400  1
  Fe  Fe1  1  0.00000000  0.98853000  0.48999600  1
  Fe  Fe2  1  0.50000000  0.77197800  0.24909900  1
  Fe  Fe3  1  0.50000000  0.77546000  0.74043800  1
  Fe  Fe4  1  0.00000000  0.48101700  0.49517200  1
  Fe  Fe5  1  0.00000000  0.48788800  0.99024300  1
  Fe  Fe6  1  0.50000000  0.24048300  0.27531600  1
  Fe  Fe7  1  0.50000000  0.26831800  0.74571600  1
  O  O0  1  0.50000000  0.90004900  0.40488500  1
  O  O1  1  0.50000000  0.90403600  0.90146000  1
  O  O2  1  0.00000000  0.84672300  0.15198100  1
  O  O3  1  0.00000000  0.85012100  0.64976600  1
  O  O4  1  0.50000000  0.40567600  0.39919900  1
  O  O5  1  0.50000000  0.40182000  0.90734000  1
  O  O6  1  0.00000000  0.34945900  0.65444000  1
  O  O7  1  0.00000000  0.14926800  0.35203500  1
  F  F0  1  0.00000000  0.65226400  0.34878100  1
  F  F1  1  0.00000000  0.65118400  0.84847000  1
  F  F2  1  0.50000000  0.59368600  0.09926900  1
  F  F3  1  0.50000000  0.59863500  0.59782000  1
  F  F4  1  0.00000000  0.34659000  0.15324900  1
  F  F5  1  0.00000000  0.15390700  0.84941200  1
  F  F6  1  0.50000000  0.10285900  0.09463000  1
  F  F7  1  0.50000000  0.09959000  0.60540100  1
loop_
_geom_bond_atom_site_label_1
_geom_bond_atom_site_label_2
_geom_bond_distance
_geom_bond_site_symmetry_2
Fe0 O1 1.932278 1_455
Fe0 O1 1.932278 1_555
Fe0 O2 1.944299 1_556
Fe1 O0 1.939286 1_555
Fe1 O0 1.939286 1_455
Fe1 O3 1.999426 1_555
Fe1 O7 2.002438 1_565
Fe2 O0 1.910538 1_555
Fe2 O2 1.937423 1_555
Fe2 O2 1.937423 1_655
Fe3 O3 1.908873 1_555
Fe3 O3 1.908873 1_655
Fe3 O1 1.952189 1_555
Fe4 O4 1.935347 1_455
Fe4 O4 1.935347 1_555
Fe4 O6 1.954134 1_555
Fe5 O5 1.920887 1_455
Fe5 O5 1.920887 1_555
Fe6 O7 1.917992 1_555
Fe6 O7 1.917992 1_655
Fe6 O4 1.954286 1_555
Fe7 O6 1.934828 1_555
Fe7 O6 1.934828 1_655
Fe7 O5 1.985923 1_555
F0 Fe4 2.129714 1_555
F0 Fe2 2.139563 1_555
F0 Fe2 2.139563 1_455
F1 Fe5 2.044333 1_555
F1 Fe3 2.198304 1_555
F1 Fe3 2.198304 1_455
F2 Fe5 2.116453 1_654
F2 Fe5 2.116453 1_554
F2 Fe2 2.204699 1_555
F3 Fe4 2.143291 1_655
F3 Fe4 2.143291 1_555
F3 Fe3 2.150401 1_555
F4 Fe5 2.040451 1_554
F4 Fe6 2.179363 1_555
F4 Fe6 2.179363 1_455
F5 Fe7 2.130820 1_555
F5 Fe7 2.130820 1_455
F5 Fe0 2.146019 1_545
F6 Fe0 2.150682 1_644
F6 Fe0 2.150682 1_544
F6 Fe6 2.151990 1_555
F7 Fe7 2.077417 1_555
F7 Fe1 2.170300 1_545
F7 Fe1 2.170300 1_645
