# generated using pymatgen
data_Li4Mn(TeO4)3
_symmetry_space_group_name_H-M   'P 1'
_cell_length_a   5.20019000
_cell_length_b   5.48608030
_cell_length_c   7.64033171
_cell_angle_alpha   85.86238975
_cell_angle_beta   89.73653992
_cell_angle_gamma   89.84414629
_symmetry_Int_Tables_number   1
_chemical_formula_structural   Li4Mn(TeO4)3
_chemical_formula_sum   'Li4 Mn1 Te3 O12'
_cell_volume   217.39739798
_cell_formula_units_Z   1
loop_
 _symmetry_equiv_pos_site_id
 _symmetry_equiv_pos_as_xyz
  1  'x, y, z'
loop_
 _atom_site_type_symbol
 _atom_site_label
 _atom_site_symmetry_multiplicity
 _atom_site_fract_x
 _atom_site_fract_y
 _atom_site_fract_z
 _atom_site_occupancy
  Li  Li0  1  0.99293100  0.50949900  0.22353200  1
  Li  Li1  1  0.50437900  0.98667500  0.77086500  1
  Li  Li2  1  0.00646000  0.52009100  0.77232200  1
  Li  Li3  1  0.49764400  0.98197000  0.22503400  1
  Mn  Mn0  1  0.00156400  0.93804400  0.96406000  1
  Te  Te0  1  0.00217500  0.92295000  0.46236100  1
  Te  Te1  1  0.49764200  0.42433700  0.96176600  1
  Te  Te2  1  0.49953600  0.42065000  0.46421400  1
  O  O0  1  0.87272800  0.90044700  0.69088100  1
  O  O1  1  0.80444300  0.22632800  0.37956100  1
  O  O2  1  0.63924500  0.40421600  0.69903000  1
  O  O3  1  0.36544600  0.39640200  0.22136800  1
  O  O4  1  0.80474300  0.59605700  0.00625000  1
  O  O5  1  0.30970400  0.71520600  0.89514900  1
  O  O6  1  0.69245500  0.71673600  0.37868900  1
  O  O7  1  0.12642800  0.89194900  0.23263800  1
  O  O8  1  0.66473300  0.11355200  0.00851600  1
  O  O9  1  0.32815400  0.09645700  0.52436700  1
  O  O10  1  0.20757200  0.24266400  0.88942400  1
  O  O11  1  0.18201800  0.59097400  0.52757500  1
loop_
_geom_bond_atom_site_label_1
_geom_bond_atom_site_label_2
_geom_bond_distance
_geom_bond_site_symmetry_2
Li0 O4 1.959027 1_555
Li0 O3 2.032839 1_655
Li0 O1 2.127329 1_555
Li0 O7 2.217756 1_655
Li0 O6 2.303730 1_555
Li1 O5 1.984902 1_555
Li1 O0 2.071794 1_555
Li1 O9 2.144443 1_565
Li1 O8 2.162448 1_566
Li1 O10 2.309539 1_565
Li1 O2 2.421571 1_565
Li2 O10 2.003525 1_555
Li2 O11 2.088702 1_555
Li2 O2 2.105236 1_455
Li2 O4 2.134544 1_456
Li2 O5 2.163540 1_555
Li2 O0 2.243588 1_455
Li3 O8 1.957179 1_565
Li3 O7 1.993417 1_555
Li3 O6 2.068383 1_555
Li3 O3 2.371740 1_565
Li3 O1 2.448208 1_565
Li3 O9 2.566601 1_565
Mn0 O10 2.032789 1_565
Mn0 O8 2.035448 1_466
Mn0 O5 2.100914 1_555
Mn0 O4 2.142807 1_456
Mn0 O7 2.152405 1_556
Mn0 O0 2.218886 1_455
O0 Te0 1.864220 1_655
O1 Te0 2.017996 1_645
O1 Te2 2.037090 1_555
O2 Te2 1.934666 1_555
O2 Te1 2.145220 1_555
O3 Te2 1.998633 1_555
O3 Te1 2.091481 1_554
O4 Te1 1.900722 1_554
O5 Te1 1.907732 1_555
O6 Te2 1.980306 1_555
O6 Te0 2.099124 1_655
O7 Te0 1.886546 1_555
O8 Te1 1.922625 1_554
O9 Te2 2.013860 1_555
O9 Te0 2.021207 1_545
O10 Te1 1.915599 1_555
O11 Te2 1.970613 1_555
O11 Te0 2.074585 1_555
