# generated using pymatgen
data_LiFePO4
_symmetry_space_group_name_H-M   'P 1'
_cell_length_a   5.76423400
_cell_length_b   5.76394600
_cell_length_c   8.12461200
_cell_angle_alpha   89.99976788
_cell_angle_beta   90.00008207
_cell_angle_gamma   90.00033796
_symmetry_Int_Tables_number   1
_chemical_formula_structural   LiFePO4
_chemical_formula_sum   'Li4 Fe4 P4 O16'
_cell_volume   269.93806855
_cell_formula_units_Z   4
loop_
 _symmetry_equiv_pos_site_id
 _symmetry_equiv_pos_as_xyz
  1  'x, y, z'
loop_
 _atom_site_type_symbol
 _atom_site_label
 _atom_site_symmetry_multiplicity
 _atom_site_fract_x
 _atom_site_fract_y
 _atom_site_fract_z
 _atom_site_occupancy
  Li  Li0  1  0.99999900  0.22427700  0.00000200  1
  Li  Li1  1  0.00000000  0.77572600  0.50000100  1
  Li  Li2  1  0.22427900  0.00000000  0.25000100  1
  Li  Li3  1  0.77571900  0.99999900  0.75000200  1
  Fe  Fe0  1  0.50000700  0.23735000  0.99997800  1
  Fe  Fe1  1  0.50000200  0.76264200  0.50000500  1
  Fe  Fe2  1  0.23736400  0.49999900  0.25000300  1
  Fe  Fe3  1  0.76264200  0.49999500  0.75000000  1
  P  P0  1  0.25110900  0.25111300  0.62499800  1
  P  P1  1  0.25110900  0.74888600  0.87500400  1
  P  P2  1  0.74889000  0.25111600  0.37500500  1
  P  P3  1  0.74889200  0.74888300  0.12499700  1
  O  O0  1  0.96945900  0.25128600  0.26423300  1
  O  O1  1  0.96946100  0.74871300  0.23577300  1
  O  O2  1  0.25128300  0.96947600  0.98578200  1
  O  O3  1  0.25127900  0.03052600  0.51421400  1
  O  O4  1  0.74871600  0.96947600  0.01421800  1
  O  O5  1  0.74871200  0.03052300  0.48578200  1
  O  O6  1  0.03054000  0.25128800  0.73577200  1
  O  O7  1  0.03054100  0.74871400  0.76422900  1
  O  O8  1  0.25265200  0.47500600  0.51303500  1
  O  O9  1  0.25265100  0.52499500  0.98696900  1
  O  O10  1  0.52501300  0.25265900  0.26304700  1
  O  O11  1  0.52501700  0.74734900  0.23695500  1
  O  O12  1  0.47498500  0.25265500  0.73695000  1
  O  O13  1  0.47498700  0.74735200  0.76304700  1
  O  O14  1  0.74734800  0.47500400  0.48696200  1
  O  O15  1  0.74734300  0.52499300  0.01303400  1
loop_
_geom_bond_atom_site_label_1
_geom_bond_atom_site_label_2
_geom_bond_distance
_geom_bond_site_symmetry_2
Li0 O4 2.065985 1_545
Li0 O2 2.066003 1_644
Li0 O6 2.159591 1_654
Li0 O0 2.159599 1_555
Li0 O9 2.266391 1_654
Li0 O15 2.266411 1_555
Li1 O3 2.065964 1_565
Li1 O5 2.066002 1_465
Li1 O7 2.159575 1_555
Li1 O1 2.159576 1_455
Li1 O14 2.266412 1_455
Li1 O8 2.266413 1_555
Li2 O1 2.066078 1_445
Li2 O0 2.066096 1_455
Li2 O3 2.159443 1_555
Li2 O2 2.159493 1_544
Li2 O10 2.266512 1_555
Li2 O11 2.266514 1_545
Li3 O7 2.066097 1_655
Li3 O6 2.066099 1_665
Li3 O4 2.159466 1_556
Li3 O5 2.159500 1_565
Li3 O13 2.266459 1_555
Li3 O12 2.266516 1_565
Fe0 O4 2.110127 1_546
Fe0 O2 2.110155 1_545
Fe0 O12 2.143678 1_555
Fe0 O10 2.144005 1_556
Fe0 O15 2.189219 1_556
Fe0 O9 2.189296 1_555
Fe1 O5 2.110141 1_565
Fe1 O3 2.110211 1_565
Fe1 O13 2.143785 1_555
Fe1 O11 2.143851 1_555
Fe1 O8 2.189230 1_555
Fe1 O14 2.189243 1_555
Fe2 O0 2.110265 1_455
Fe2 O1 2.110273 1_455
Fe2 O8 2.143694 1_555
Fe2 O9 2.143712 1_554
Fe2 O10 2.189284 1_555
Fe2 O11 2.189328 1_555
Fe3 O6 2.110224 1_655
Fe3 O7 2.110263 1_655
Fe3 O15 2.143717 1_556
Fe3 O14 2.143745 1_555
Fe3 O12 2.189309 1_555
Fe3 O13 2.189376 1_555
O0 P2 1.557708 1_555
O1 P3 1.557725 1_555
O2 P1 1.557785 1_555
O3 P0 1.557799 1_555
O4 P3 1.557798 1_555
O5 P2 1.557789 1_555
O6 P0 1.557717 1_555
O7 P1 1.557715 1_555
O8 P0 1.578909 1_555
O9 P1 1.578909 1_555
O10 P2 1.578864 1_555
O11 P3 1.578857 1_555
O12 P0 1.578832 1_555
O13 P1 1.578866 1_555
O14 P2 1.578863 1_555
O15 P3 1.578901 1_555
