# generated using pymatgen
data_Mn12O7F17
_symmetry_space_group_name_H-M   'P 1'
_cell_length_a   5.34716600
_cell_length_b   5.39899328
_cell_length_c   15.22232268
_cell_angle_alpha   95.36893010
_cell_angle_beta   90.00024089
_cell_angle_gamma   92.82328407
_symmetry_Int_Tables_number   1
_chemical_formula_structural   Mn12O7F17
_chemical_formula_sum   'Mn12 O7 F17'
_cell_volume   436.99426003
_cell_formula_units_Z   1
loop_
 _symmetry_equiv_pos_site_id
 _symmetry_equiv_pos_as_xyz
  1  'x, y, z'
loop_
 _atom_site_type_symbol
 _atom_site_label
 _atom_site_symmetry_multiplicity
 _atom_site_fract_x
 _atom_site_fract_y
 _atom_site_fract_z
 _atom_site_occupancy
  Mn  Mn0  1  0.99821200  0.04297200  0.00998000  1
  Mn  Mn1  1  0.01784700  0.59757200  0.82183800  1
  Mn  Mn2  1  0.99120200  0.10547400  0.67014300  1
  Mn  Mn3  1  0.95477300  0.53804700  0.48927200  1
  Mn  Mn4  1  0.00086200  0.05879300  0.33224100  1
  Mn  Mn5  1  0.10823200  0.50161100  0.16536400  1
  Mn  Mn6  1  0.50455700  0.92420200  0.83610800  1
  Mn  Mn7  1  0.50481600  0.48152200  0.98745100  1
  Mn  Mn8  1  0.43268000  0.45764500  0.33470700  1
  Mn  Mn9  1  0.49412400  0.89501000  0.49815400  1
  Mn  Mn10  1  0.49440900  0.45993000  0.67623200  1
  Mn  Mn11  1  0.47165600  0.05517400  0.15941300  1
  O  O0  1  0.22258000  0.24266100  0.24398000  1
  O  O1  1  0.32693300  0.66505700  0.88998300  1
  O  O2  1  0.16851600  0.39101300  0.73110400  1
  O  O3  1  0.16870400  0.33035000  0.40595300  1
  O  O4  1  0.28978300  0.29543900  0.08043300  1
  O  O5  1  0.63491900  0.63706000  0.42551900  1
  O  O6  1  0.69948500  0.68089700  0.76553300  1
  F  F0  1  0.18860000  0.88673000  0.74269600  1
  F  F1  1  0.26076600  0.14855000  0.90337700  1
  F  F2  1  0.16116700  0.83559100  0.42214800  1
  F  F3  1  0.34032500  0.13998500  0.58504000  1
  F  F4  1  0.15193500  0.78317500  0.09090700  1
  F  F5  1  0.43061200  0.72107000  0.24215400  1
  F  F6  1  0.31830500  0.64160200  0.56968100  1
  F  F7  1  0.64116700  0.81885500  0.07219300  1
  F  F8  1  0.73563700  0.18949100  0.92577700  1
  F  F9  1  0.80909900  0.36546100  0.60081500  1
  F  F10  1  0.70008000  0.22669800  0.27030200  1
  F  F11  1  0.82519300  0.85183600  0.58101100  1
  F  F12  1  0.84895500  0.70209200  0.93079600  1
  F  F13  1  0.94105900  0.73331300  0.25326400  1
  F  F14  1  0.70438600  0.12831800  0.43520800  1
  F  F15  1  0.79682400  0.30551100  0.10159900  1
  F  F16  1  0.66160400  0.16129200  0.74962500  1
loop_
_geom_bond_atom_site_label_1
_geom_bond_atom_site_label_2
_geom_bond_distance
_geom_bond_site_symmetry_2
Mn0 O4 2.226190 1_655
Mn1 O2 1.897552 1_555
Mn1 O1 1.951989 1_555
Mn1 O6 1.995626 1_455
Mn2 O2 1.930016 1_655
Mn3 O3 2.008689 1_655
Mn3 O5 2.083238 1_555
Mn4 O3 1.943338 1_555
Mn4 O0 2.080811 1_555
Mn5 O4 1.920955 1_555
Mn5 O0 2.039091 1_555
Mn6 O1 1.901585 1_555
Mn6 O6 1.958805 1_555
Mn7 O1 2.110904 1_555
Mn7 O4 2.118280 1_556
Mn8 O5 1.914392 1_555
Mn8 O3 1.919601 1_555
Mn8 O0 2.021943 1_555
Mn9 O5 1.882543 1_555
Mn10 O2 1.966495 1_555
Mn10 O6 2.010283 1_555
Mn11 O0 2.084367 1_555
Mn11 O4 2.118964 1_555
F0 Mn2 2.023737 1_465
F0 Mn6 2.197649 1_555
F0 Mn1 2.221214 1_555
F1 Mn6 2.034328 1_545
F1 Mn0 2.241315 1_456
F1 Mn7 2.431247 1_555
F2 Mn4 2.114324 1_565
F2 Mn9 2.117908 1_555
F2 Mn3 2.230515 1_455
F3 Mn9 1.988651 1_545
F3 Mn10 2.236226 1_555
F3 Mn2 2.282298 1_455
F4 Mn5 1.984327 1_555
F4 Mn0 2.144191 1_465
F4 Mn11 2.373362 1_565
F5 Mn8 2.093872 1_555
F5 Mn11 2.296625 1_565
F5 Mn5 2.298132 1_555
F6 Mn9 2.023178 1_555
F6 Mn10 2.206400 1_555
F6 Mn3 2.313927 1_455
F7 Mn11 2.002284 1_565
F7 Mn7 2.223085 1_554
F7 Mn0 2.448024 1_565
F8 Mn0 2.130526 1_556
F8 Mn7 2.192108 1_555
F8 Mn6 2.213856 1_545
F9 Mn10 2.093934 1_555
F9 Mn2 2.108085 1_555
F9 Mn3 2.140697 1_555
F10 Mn8 2.123013 1_555
F10 Mn4 2.145005 1_655
F10 Mn11 2.189699 1_555
F11 Mn2 2.009139 1_565
F11 Mn9 2.207871 1_555
F11 Mn3 2.230086 1_555
F12 Mn1 1.939076 1_655
F12 Mn0 2.217461 1_566
F12 Mn7 2.350417 1_555
F13 Mn5 1.987774 1_655
F13 Mn4 2.045689 1_665
F14 Mn9 1.963468 1_545
F14 Mn4 2.249304 1_655
F14 Mn3 2.594393 1_555
F15 Mn5 2.114196 1_655
F15 Mn0 2.212299 1_555
F15 Mn11 2.369709 1_555
F15 Mn7 2.610641 1_554
F16 Mn6 2.070333 1_545
F16 Mn2 2.155201 1_555
F16 Mn10 2.264106 1_555
