# generated using pymatgen
data_Ba4La6Mn5In5O30
_symmetry_space_group_name_H-M   'P 1'
_cell_length_a   5.77797288
_cell_length_b   5.77797288
_cell_length_c   23.85012883
_cell_angle_alpha   82.54173357
_cell_angle_beta   82.54173357
_cell_angle_gamma   59.57063237
_symmetry_Int_Tables_number   1
_chemical_formula_structural   Ba4La6Mn5In5O30
_chemical_formula_sum   'Ba4 La6 Mn5 In5 O30'
_cell_volume   678.83550370
_cell_formula_units_Z   1
loop_
 _symmetry_equiv_pos_site_id
 _symmetry_equiv_pos_as_xyz
  1  'x, y, z'
loop_
 _atom_site_type_symbol
 _atom_site_label
 _atom_site_symmetry_multiplicity
 _atom_site_fract_x
 _atom_site_fract_y
 _atom_site_fract_z
 _atom_site_occupancy
  Ba  Ba0  1  0.44755800  0.44755800  0.15268900  1
  Ba  Ba1  1  0.14751700  0.14751700  0.05677700  1
  Ba  Ba2  1  0.75292800  0.75292800  0.24702400  1
  Ba  Ba3  1  0.35142700  0.35142700  0.44351100  1
  La  La0  1  0.04716800  0.04716800  0.33822300  1
  La  La1  1  0.64091700  0.64091700  0.54448900  1
  La  La2  1  0.24510700  0.24510700  0.75697300  1
  La  La3  1  0.95769700  0.95769700  0.63628700  1
  La  La4  1  0.83952700  0.83952700  0.96651700  1
  La  La5  1  0.55595200  0.55595200  0.85811700  1
  Mn  Mn0  1  0.79745900  0.79745900  0.10468100  1
  Mn  Mn1  1  0.50556200  0.50556200  0.00588800  1
  Mn  Mn2  1  0.40559500  0.40559500  0.29792300  1
  Mn  Mn3  1  0.09702100  0.09702100  0.19881300  1
  Mn  Mn4  1  0.00289500  0.00289500  0.49386700  1
  In  In0  1  0.70064100  0.70064100  0.39721700  1
  In  In1  1  0.60187800  0.60187800  0.70039900  1
  In  In2  1  0.29654300  0.29654300  0.59684200  1
  In  In3  1  0.19308700  0.19308700  0.90605600  1
  In  In4  1  0.90177200  0.90177200  0.80162600  1
  O  O0  1  0.63749300  0.63749300  0.05753400  1
  O  O1  1  0.45313400  0.95533500  0.15207400  1
  O  O2  1  0.65054300  0.13132400  0.04688600  1
  O  O3  1  0.24674600  0.24674600  0.26061900  1
  O  O4  1  0.08049300  0.58271200  0.34744000  1
  O  O5  1  0.24327600  0.76410600  0.25000800  1
  O  O6  1  0.95533500  0.45313400  0.15207400  1
  O  O7  1  0.13132400  0.65054300  0.04688600  1
  O  O8  1  0.82297300  0.82297300  0.46602200  1
  O  O9  1  0.94792500  0.94792500  0.14864000  1
  O  O10  1  0.68879100  0.17512500  0.55163700  1
  O  O11  1  0.84681200  0.30286700  0.43928500  1
  O  O12  1  0.58271200  0.08049300  0.34744000  1
  O  O13  1  0.76410600  0.24327600  0.25000800  1
  O  O14  1  0.39998100  0.39998100  0.67029300  1
  O  O15  1  0.56141500  0.56141500  0.33824100  1
  O  O16  1  0.30535600  0.79095300  0.76858100  1
  O  O17  1  0.41209400  0.89524700  0.63067000  1
  O  O18  1  0.17512500  0.68879100  0.55163700  1
  O  O19  1  0.30286700  0.84681200  0.43928500  1
  O  O20  1  0.99267200  0.99267200  0.88051500  1
  O  O21  1  0.15921300  0.15921300  0.53050400  1
  O  O22  1  0.84186000  0.39800600  0.96131000  1
  O  O23  1  0.01104100  0.50526300  0.84026600  1
  O  O24  1  0.79095300  0.30535600  0.76858100  1
  O  O25  1  0.89524700  0.41209400  0.63067000  1
  O  O26  1  0.80849600  0.80849600  0.72281600  1
  O  O27  1  0.39800600  0.84186000  0.96131000  1
  O  O28  1  0.50526300  0.01104100  0.84026600  1
  O  O29  1  0.38103200  0.38103200  0.94470100  1
loop_
_geom_bond_atom_site_label_1
_geom_bond_atom_site_label_2
_geom_bond_distance
_geom_bond_site_symmetry_2
Ba0 O0 2.736057 1_555
Ba0 O6 2.829800 1_455
Ba0 O1 2.829800 1_545
Ba0 O9 2.871825 1_455
Ba0 O9 2.871825 1_545
Ba0 O5 2.886155 1_555
Ba0 O13 2.886155 1_555
Ba0 O6 2.948492 1_555
Ba0 O1 2.948492 1_555
Ba0 O3 3.021867 1_555
Ba0 O7 3.056094 1_555
Ba0 O2 3.056094 1_555
Ba1 O9 2.737780 1_445
Ba1 O6 2.813820 1_455
Ba1 O1 2.813820 1_545
Ba1 O27 2.827945 1_544
Ba1 O22 2.827945 1_454
Ba1 O2 2.839762 1_555
Ba1 O7 2.839762 1_555
Ba1 O0 2.871939 1_455
Ba1 O0 2.871939 1_545
Ba1 O2 2.960348 1_455
Ba1 O7 2.960348 1_545
Ba1 O29 3.279853 1_554
Ba2 O15 2.678113 1_555
Ba2 O6 2.788421 1_555
Ba2 O1 2.788421 1_555
Ba2 O9 2.820987 1_555
Ba2 O13 2.876674 1_565
Ba2 O5 2.876674 1_655
Ba2 O3 2.888098 1_565
Ba2 O3 2.888098 1_655
Ba2 O5 2.904299 1_555
Ba2 O13 2.904299 1_555
Ba2 O4 2.994140 1_655
Ba2 O12 2.994140 1_565
Ba3 O21 2.612407 1_555
Ba3 O19 2.720424 1_555
Ba3 O11 2.720424 1_555
Ba3 O4 2.739296 1_555
Ba3 O12 2.739296 1_555
Ba3 O8 2.926090 1_545
Ba3 O8 2.926090 1_455
Ba3 O15 3.026113 1_555
Ba3 O11 3.082565 1_455
Ba3 O19 3.082565 1_545
Ba3 O10 3.177944 1_555
Ba3 O18 3.177944 1_555
La0 O3 2.514767 1_555
La0 O4 2.573247 1_545
La0 O12 2.573247 1_455
La0 O5 2.604347 1_545
La0 O13 2.604347 1_455
La0 O11 2.792899 1_455
La0 O19 2.792899 1_545
La0 O15 2.873775 1_455
La0 O15 2.873775 1_545
La0 O4 3.232889 1_555
La0 O12 3.232889 1_555
La1 O8 2.411243 1_555
La1 O25 2.498574 1_555
La1 O17 2.498574 1_555
La1 O10 2.547132 1_555
La1 O18 2.547132 1_555
La2 O14 2.392906 1_555
La2 O16 2.448423 1_545
La2 O24 2.448423 1_455
La2 O23 2.460376 1_555
La2 O28 2.460376 1_555
La3 O26 2.361018 1_555
La3 O17 2.450095 1_655
La3 O25 2.450095 1_565
La3 O10 2.499407 1_565
La3 O18 2.499407 1_655
La4 O20 2.371495 1_555
La4 O2 2.477870 1_566
La4 O7 2.477870 1_656
La4 O22 2.563333 1_555
La4 O27 2.563333 1_555
La4 O0 2.739026 1_556
La4 O29 2.935535 1_565
La4 O29 2.935535 1_655
La5 O28 2.478489 1_565
La5 O23 2.478489 1_655
La5 O29 2.501680 1_555
La5 O16 2.561013 1_555
La5 O24 2.561013 1_555
Mn0 O9 1.962080 1_555
Mn0 O1 1.978235 1_555
Mn0 O6 1.978235 1_555
Mn0 O2 2.072830 1_565
Mn0 O7 2.072830 1_655
Mn0 O0 2.092364 1_555
Mn1 O22 1.924656 1_554
Mn1 O27 1.924656 1_554
Mn1 O0 1.937929 1_555
Mn1 O7 2.040207 1_555
Mn1 O2 2.040207 1_555
Mn1 O29 2.057833 1_554
Mn2 O3 1.937443 1_555
Mn2 O4 1.939365 1_555
Mn2 O12 1.939365 1_555
Mn2 O15 1.953563 1_555
Mn2 O13 2.042616 1_555
Mn2 O5 2.042616 1_555
Mn3 O13 1.979056 1_455
Mn3 O5 1.979056 1_545
Mn3 O6 2.020334 1_455
Mn3 O1 2.020334 1_545
Mn3 O9 2.050168 1_445
Mn3 O3 2.256094 1_555
Mn4 O21 1.905565 1_555
Mn4 O11 1.909906 1_455
Mn4 O19 1.909906 1_545
Mn4 O8 2.013879 1_445
Mn4 O10 2.014902 1_455
Mn4 O18 2.014902 1_545
In0 O15 2.125031 1_555
In0 O19 2.158094 1_555
In0 O11 2.158094 1_555
In0 O4 2.170126 1_655
In0 O12 2.170126 1_565
In0 O8 2.190994 1_555
In1 O16 2.148297 1_555
In1 O24 2.148297 1_555
In1 O17 2.168001 1_555
In1 O25 2.168001 1_555
In1 O26 2.216174 1_555
In1 O14 2.247367 1_555
In2 O25 2.135187 1_455
In2 O17 2.135187 1_545
In2 O14 2.165341 1_555
In2 O10 2.177740 1_555
In2 O18 2.177740 1_555
In2 O21 2.247695 1_555
In3 O22 2.129264 1_455
In3 O27 2.129264 1_545
In3 O23 2.143324 1_555
In3 O28 2.143324 1_555
In3 O20 2.185757 1_445
In3 O29 2.218619 1_555
In4 O24 2.147162 1_565
In4 O16 2.147162 1_655
In4 O28 2.152769 1_565
In4 O23 2.152769 1_655
In4 O20 2.210049 1_555
In4 O26 2.221290 1_555
