# generated using pymatgen
data_Ca2Cu2O5
_symmetry_space_group_name_H-M   'P 1'
_cell_length_a   3.52256546
_cell_length_b   10.39859129
_cell_length_c   12.68787037
_cell_angle_alpha   90.00000000
_cell_angle_beta   90.00000000
_cell_angle_gamma   90.00000000
_symmetry_Int_Tables_number   1
_chemical_formula_structural   Ca2Cu2O5
_chemical_formula_sum   'Ca8 Cu8 O20'
_cell_volume   464.75312015
_cell_formula_units_Z   4
loop_
 _symmetry_equiv_pos_site_id
 _symmetry_equiv_pos_as_xyz
  1  'x, y, z'
loop_
 _atom_site_type_symbol
 _atom_site_label
 _atom_site_symmetry_multiplicity
 _atom_site_fract_x
 _atom_site_fract_y
 _atom_site_fract_z
 _atom_site_occupancy
  Ca  Ca0  1  0.17649938  0.04579328  0.87077456  1
  Ca  Ca1  1  0.17467709  0.20448738  0.53712529  1
  Ca  Ca2  1  0.67467709  0.29551262  0.03712529  1
  Ca  Ca3  1  0.67649938  0.45420672  0.37077456  1
  Ca  Ca4  1  0.32350062  0.54579328  0.87077456  1
  Ca  Ca5  1  0.32532291  0.70448738  0.53712529  1
  Ca  Ca6  1  0.82532291  0.79551262  0.03712529  1
  Ca  Ca7  1  0.82350062  0.95420672  0.37077456  1
  Cu  Cu0  1  0.35851760  0.01257136  0.15431810  1
  Cu  Cu1  1  0.13781501  0.23770809  0.25024704  1
  Cu  Cu2  1  0.63781501  0.26229191  0.75024704  1
  Cu  Cu3  1  0.85851760  0.48742864  0.65431810  1
  Cu  Cu4  1  0.14148240  0.51257136  0.15431810  1
  Cu  Cu5  1  0.36218499  0.73770809  0.25024704  1
  Cu  Cu6  1  0.86218499  0.76229191  0.75024704  1
  Cu  Cu7  1  0.64148240  0.98742864  0.65431810  1
  O  O0  1  0.33608552  0.08203779  0.28875373  1
  O  O1  1  0.67410269  0.05784249  0.52362979  1
  O  O2  1  0.36301592  0.12405052  0.70307133  1
  O  O3  1  0.15705613  0.16771520  0.11549971  1
  O  O4  1  0.67335419  0.19218022  0.88058144  1
  O  O5  1  0.17335419  0.30781978  0.38058144  1
  O  O6  1  0.65705613  0.33228480  0.61549971  1
  O  O7  1  0.86301592  0.37594948  0.20307133  1
  O  O8  1  0.17410269  0.44215751  0.02362979  1
  O  O9  1  0.83608552  0.41796221  0.78875373  1
  O  O10  1  0.16391448  0.58203779  0.28875373  1
  O  O11  1  0.82589731  0.55784249  0.52362979  1
  O  O12  1  0.13698408  0.62405052  0.70307133  1
  O  O13  1  0.34294387  0.66771520  0.11549971  1
  O  O14  1  0.82664581  0.69218022  0.88058144  1
  O  O15  1  0.32664581  0.80781978  0.38058144  1
  O  O16  1  0.84294387  0.83228480  0.61549971  1
  O  O17  1  0.63698408  0.87594948  0.20307133  1
  O  O18  1  0.32589731  0.94215751  0.02362979  1
  O  O19  1  0.66391448  0.91796221  0.78875373  1
loop_
_geom_bond_atom_site_label_1
_geom_bond_atom_site_label_2
_geom_bond_distance
_geom_bond_site_symmetry_2
Ca0 O18 2.280267 1_546
Ca0 O4 2.322895 1_555
Ca0 O4 2.339636 1_455
Ca0 O2 2.370950 1_555
Ca0 O19 2.407874 1_545
Ca0 O19 2.471877 1_445
Ca1 O5 2.258234 1_555
Ca1 O1 2.334445 1_555
Ca1 O1 2.337496 1_455
Ca1 O2 2.360699 1_555
Ca1 O6 2.375325 1_555
Ca1 O6 2.465658 1_455
Ca2 O4 2.258234 1_554
Ca2 O8 2.334445 1_655
Ca2 O8 2.337496 1_555
Ca2 O7 2.360699 1_555
Ca2 O3 2.375325 1_655
Ca2 O3 2.465658 1_555
Ca3 O11 2.280267 1_555
Ca3 O5 2.322895 1_655
Ca3 O5 2.339636 1_555
Ca3 O7 2.370950 1_555
Ca3 O10 2.407874 1_655
Ca3 O10 2.471877 1_555
Ca4 O8 2.280267 1_556
Ca4 O14 2.322895 1_455
Ca4 O14 2.339636 1_555
Ca4 O12 2.370950 1_555
Ca4 O9 2.407874 1_455
Ca4 O9 2.471877 1_555
Ca5 O15 2.258234 1_555
Ca5 O11 2.334445 1_455
Ca5 O11 2.337496 1_555
Ca5 O12 2.360699 1_555
Ca5 O16 2.375325 1_455
Ca5 O16 2.465658 1_555
Ca6 O14 2.258234 1_554
Ca6 O18 2.334445 1_555
Ca6 O18 2.337496 1_655
Ca6 O17 2.360699 1_555
Ca6 O13 2.375325 1_555
Ca6 O13 2.465658 1_655
Ca7 O1 2.280267 1_565
Ca7 O15 2.322895 1_555
Ca7 O15 2.339636 1_655
Ca7 O17 2.370950 1_555
Ca7 O0 2.407874 1_565
Ca7 O0 2.471877 1_665
Cu0 O18 1.816263 1_545
Cu0 O3 1.829989 1_555
Cu0 O17 1.833889 1_545
Cu0 O0 1.854038 1_555
Cu1 O5 1.811578 1_555
Cu1 O0 1.829439 1_555
Cu1 O7 1.833506 1_455
Cu1 O3 1.859369 1_555
Cu2 O4 1.811578 1_555
Cu2 O9 1.829439 1_555
Cu2 O2 1.833506 1_555
Cu2 O6 1.859369 1_555
Cu3 O11 1.816263 1_555
Cu3 O6 1.829989 1_555
Cu3 O12 1.833889 1_655
Cu3 O9 1.854038 1_555
Cu4 O8 1.816263 1_555
Cu4 O13 1.829989 1_555
Cu4 O7 1.833889 1_455
Cu4 O10 1.854038 1_555
Cu5 O15 1.811578 1_555
Cu5 O10 1.829439 1_555
Cu5 O17 1.833506 1_555
Cu5 O13 1.859369 1_555
Cu6 O14 1.811578 1_555
Cu6 O19 1.829439 1_555
Cu6 O12 1.833506 1_655
Cu6 O16 1.859369 1_555
Cu7 O1 1.816263 1_565
Cu7 O16 1.829989 1_555
Cu7 O2 1.833889 1_565
Cu7 O19 1.854038 1_555
