# generated using pymatgen
data_ErTa7O19
_symmetry_space_group_name_H-M   'P 1'
_cell_length_a   6.25786743
_cell_length_b   6.25786743
_cell_length_c   20.06707400
_cell_angle_alpha   90.00000000
_cell_angle_beta   90.00000000
_cell_angle_gamma   119.99999394
_symmetry_Int_Tables_number   1
_chemical_formula_structural   ErTa7O19
_chemical_formula_sum   'Er2 Ta14 O38'
_cell_volume   680.56157858
_cell_formula_units_Z   2
loop_
 _symmetry_equiv_pos_site_id
 _symmetry_equiv_pos_as_xyz
  1  'x, y, z'
loop_
 _atom_site_type_symbol
 _atom_site_label
 _atom_site_symmetry_multiplicity
 _atom_site_fract_x
 _atom_site_fract_y
 _atom_site_fract_z
 _atom_site_occupancy
  Er  Er0  1  0.66666700  0.33333300  0.50000000  1
  Er  Er1  1  0.66666700  0.33333300  0.00000000  1
  Ta  Ta0  1  0.69377500  0.02720400  0.65525100  1
  Ta  Ta1  1  0.69377500  0.02720400  0.84474900  1
  Ta  Ta2  1  0.97279600  0.30622500  0.34474900  1
  Ta  Ta3  1  0.97279600  0.30622500  0.15525100  1
  Ta  Ta4  1  0.69377500  0.66657100  0.15525100  1
  Ta  Ta5  1  0.69377500  0.66657100  0.34474900  1
  Ta  Ta6  1  0.00000000  0.00000000  0.00000000  1
  Ta  Ta7  1  0.00000000  0.00000000  0.50000000  1
  Ta  Ta8  1  0.97279600  0.66657100  0.65525100  1
  Ta  Ta9  1  0.97279600  0.66657100  0.84474900  1
  Ta  Ta10  1  0.33342900  0.30622500  0.65525100  1
  Ta  Ta11  1  0.33342900  0.30622500  0.84474900  1
  Ta  Ta12  1  0.33342900  0.02720400  0.34474900  1
  Ta  Ta13  1  0.33342900  0.02720400  0.15525100  1
  O  O0  1  0.33302600  0.41918700  0.34697200  1
  O  O1  1  0.33302600  0.41918700  0.15302800  1
  O  O2  1  0.37603300  0.29312900  0.75000000  1
  O  O3  1  0.58081300  0.66697400  0.84697200  1
  O  O4  1  0.58081300  0.66697400  0.65302800  1
  O  O5  1  0.37603300  0.08290400  0.25000000  1
  O  O6  1  0.33302600  0.91383900  0.65302800  1
  O  O7  1  0.33302600  0.91383900  0.84697200  1
  O  O8  1  0.70687100  0.62396700  0.25000000  1
  O  O9  1  0.66666700  0.33333300  0.63059700  1
  O  O10  1  0.66666700  0.33333300  0.36940300  1
  O  O11  1  0.66666700  0.33333300  0.13059700  1
  O  O12  1  0.66666700  0.33333300  0.86940300  1
  O  O13  1  0.91709600  0.62396700  0.75000000  1
  O  O14  1  0.58081300  0.91383900  0.15302800  1
  O  O15  1  0.58081300  0.91383900  0.34697200  1
  O  O16  1  0.70687100  0.08290400  0.75000000  1
  O  O17  1  0.76046100  0.05123300  0.55525600  1
  O  O18  1  0.76046100  0.05123300  0.94474400  1
  O  O19  1  0.08616100  0.66697400  0.34697200  1
  O  O20  1  0.08616100  0.66697400  0.15302800  1
  O  O21  1  0.91709600  0.29312900  0.25000000  1
  O  O22  1  0.94876700  0.23953900  0.05525600  1
  O  O23  1  0.94876700  0.23953900  0.44474400  1
  O  O24  1  0.08616100  0.41918700  0.65302800  1
  O  O25  1  0.08616100  0.41918700  0.84697200  1
  O  O26  1  0.76046100  0.70922800  0.05525600  1
  O  O27  1  0.76046100  0.70922800  0.44474400  1
  O  O28  1  0.00000000  0.00000000  0.83398600  1
  O  O29  1  0.00000000  0.00000000  0.16601400  1
  O  O30  1  0.00000000  0.00000000  0.33398600  1
  O  O31  1  0.00000000  0.00000000  0.66601400  1
  O  O32  1  0.94876700  0.70922800  0.55525600  1
  O  O33  1  0.94876700  0.70922800  0.94474400  1
  O  O34  1  0.29077200  0.23953900  0.55525600  1
  O  O35  1  0.29077200  0.23953900  0.94474400  1
  O  O36  1  0.29077200  0.05123300  0.44474400  1
  O  O37  1  0.29077200  0.05123300  0.05525600  1
loop_
_geom_bond_atom_site_label_1
_geom_bond_atom_site_label_2
_geom_bond_distance
_geom_bond_site_symmetry_2
Er0 O17 2.393035 1_555
Er0 O23 2.393035 1_555
Er0 O32 2.393039 1_555
Er0 O36 2.393039 1_555
Er0 O34 2.393041 1_555
Er0 O27 2.393041 1_555
Er0 O9 2.620700 1_555
Er0 O10 2.620700 1_555
Er1 O18 2.393035 1_554
Er1 O22 2.393035 1_555
Er1 O33 2.393039 1_554
Er1 O37 2.393039 1_555
Er1 O35 2.393041 1_554
Er1 O26 2.393041 1_555
Er1 O12 2.620700 1_554
Er1 O11 2.620700 1_555
O0 Ta2 1.997472 1_455
O0 Ta5 2.000032 1_555
O0 Ta12 2.454645 1_555
O1 Ta3 1.997472 1_455
O1 Ta4 2.000032 1_555
O1 Ta13 2.454645 1_555
O2 Ta10 1.927361 1_555
O2 Ta11 1.927361 1_555
O3 Ta1 1.997472 1_565
O3 Ta11 2.000032 1_555
O3 Ta9 2.454645 1_555
O4 Ta0 1.997472 1_565
O4 Ta10 2.000032 1_555
O4 Ta8 2.454645 1_555
O5 Ta13 1.927361 1_555
O5 Ta12 1.927361 1_555
O6 Ta8 1.997472 1_455
O6 Ta0 2.000032 1_565
O6 Ta10 2.454645 1_565
O7 Ta9 1.997472 1_455
O7 Ta1 2.000032 1_565
O7 Ta11 2.454645 1_565
O8 Ta4 1.927361 1_555
O8 Ta5 1.927361 1_555
O9 Ta0 2.066030 1_555
O9 Ta8 2.066034 1_555
O9 Ta10 2.066036 1_555
O10 Ta2 2.066030 1_555
O10 Ta12 2.066034 1_555
O10 Ta5 2.066036 1_555
O11 Ta3 2.066030 1_555
O11 Ta13 2.066034 1_555
O11 Ta4 2.066036 1_555
O12 Ta1 2.066030 1_555
O12 Ta9 2.066034 1_555
O12 Ta11 2.066036 1_555
O13 Ta8 1.927361 1_555
O13 Ta9 1.927361 1_555
O14 Ta4 1.997471 1_555
O14 Ta13 2.000032 1_565
O14 Ta3 2.454645 1_565
O15 Ta5 1.997471 1_555
O15 Ta12 2.000032 1_565
O15 Ta2 2.454645 1_565
O16 Ta0 1.927361 1_555
O16 Ta1 1.927361 1_555
O17 Ta7 2.014917 1_655
O17 Ta0 2.039726 1_555
O18 Ta6 2.014917 1_656
O18 Ta1 2.039726 1_555
O19 Ta12 1.997472 1_565
O19 Ta2 2.000032 1_455
O19 Ta5 2.454645 1_455
O20 Ta13 1.997472 1_565
O20 Ta3 2.000032 1_455
O20 Ta4 2.454645 1_455
O21 Ta3 1.927361 1_555
O21 Ta2 1.927361 1_555
O22 Ta6 2.014917 1_655
O22 Ta3 2.039726 1_555
O23 Ta7 2.014917 1_655
O23 Ta2 2.039726 1_555
O24 Ta10 1.997471 1_555
O24 Ta8 2.000032 1_455
O24 Ta0 2.454645 1_455
O25 Ta11 1.997471 1_555
O25 Ta9 2.000032 1_455
O25 Ta1 2.454645 1_455
O26 Ta6 2.014917 1_665
O26 Ta4 2.039726 1_555
O27 Ta7 2.014917 1_665
O27 Ta5 2.039726 1_555
O28 Ta1 2.018446 1_455
O28 Ta9 2.018446 1_445
O28 Ta11 2.018447 1_555
O29 Ta3 2.018446 1_455
O29 Ta13 2.018446 1_555
O29 Ta4 2.018447 1_445
O30 Ta2 2.018446 1_455
O30 Ta12 2.018446 1_555
O30 Ta5 2.018447 1_445
O31 Ta0 2.018446 1_455
O31 Ta8 2.018446 1_445
O31 Ta10 2.018447 1_555
O32 Ta7 2.014917 1_665
O32 Ta8 2.039726 1_555
O33 Ta6 2.014917 1_666
O33 Ta9 2.039726 1_555
O34 Ta7 2.014917 1_555
O34 Ta10 2.039726 1_555
O35 Ta6 2.014917 1_556
O35 Ta11 2.039726 1_555
O36 Ta7 2.014917 1_555
O36 Ta12 2.039726 1_555
O37 Ta6 2.014917 1_555
O37 Ta13 2.039726 1_555
