# generated using pymatgen
data_Mn4O7F
_symmetry_space_group_name_H-M   'P 1'
_cell_length_a   4.95299500
_cell_length_b   6.98417400
_cell_length_c   7.11140010
_cell_angle_alpha   78.34676799
_cell_angle_beta   90.00000000
_cell_angle_gamma   90.00000000
_symmetry_Int_Tables_number   1
_chemical_formula_structural   Mn4O7F
_chemical_formula_sum   'Mn8 O14 F2'
_cell_volume   240.93108538
_cell_formula_units_Z   2
loop_
 _symmetry_equiv_pos_site_id
 _symmetry_equiv_pos_as_xyz
  1  'x, y, z'
loop_
 _atom_site_type_symbol
 _atom_site_label
 _atom_site_symmetry_multiplicity
 _atom_site_fract_x
 _atom_site_fract_y
 _atom_site_fract_z
 _atom_site_occupancy
  Mn  Mn0  1  0.51157800  0.58106800  0.07714500  1
  Mn  Mn1  1  0.99277100  0.92893100  0.42555900  1
  Mn  Mn2  1  0.50498100  0.07180700  0.07237500  1
  Mn  Mn3  1  0.97378000  0.41980600  0.43755200  1
  Mn  Mn4  1  0.48842200  0.58106800  0.57714500  1
  Mn  Mn5  1  0.00722900  0.92893100  0.92555900  1
  Mn  Mn6  1  0.02622000  0.41980600  0.93755200  1
  Mn  Mn7  1  0.49501900  0.07180700  0.57237500  1
  O  O0  1  0.17794700  0.93559400  0.17049700  1
  O  O1  1  0.68349600  0.83203500  0.05870600  1
  O  O2  1  0.34424000  0.32661800  0.06020000  1
  O  O3  1  0.82205300  0.93559400  0.67049700  1
  O  O4  1  0.31650400  0.83203500  0.55870600  1
  O  O5  1  0.83619600  0.43843600  0.17431100  1
  O  O6  1  0.81412300  0.67330700  0.43369400  1
  O  O7  1  0.16380400  0.43843600  0.67431100  1
  O  O8  1  0.65576000  0.32661800  0.56020000  1
  O  O9  1  0.18587700  0.67330700  0.93369400  1
  O  O10  1  0.66718500  0.06274000  0.32798300  1
  O  O11  1  0.16340800  0.17377400  0.43842800  1
  O  O12  1  0.33281500  0.06274000  0.82798300  1
  O  O13  1  0.83659200  0.17377400  0.93842800  1
  F  F0  1  0.29307100  0.55588500  0.32355100  1
  F  F1  1  0.70692900  0.55588500  0.82355100  1
loop_
_geom_bond_atom_site_label_1
_geom_bond_atom_site_label_2
_geom_bond_distance
_geom_bond_site_symmetry_2
Mn0 O1 1.929174 1_555
Mn0 O5 1.943415 1_555
Mn0 O9 1.947461 1_554
Mn0 O2 1.986491 1_555
Mn1 O4 1.914865 1_655
Mn1 O10 1.921839 1_565
Mn1 O11 1.926159 1_665
Mn1 O3 1.945235 1_555
Mn1 O6 1.982913 1_555
Mn1 O0 2.024678 1_655
Mn2 O1 1.913454 1_545
Mn2 O2 1.935520 1_555
Mn2 O0 1.935850 1_545
Mn2 O12 1.948376 1_554
Mn2 O13 1.959126 1_554
Mn2 O10 1.976638 1_555
Mn3 O8 1.853673 1_555
Mn3 O6 1.934196 1_555
Mn3 O7 1.956034 1_655
Mn3 O11 1.957171 1_655
Mn3 O5 1.971633 1_555
Mn4 O4 1.929174 1_555
Mn4 O7 1.943415 1_555
Mn4 O6 1.947461 1_555
Mn4 O8 1.986491 1_555
Mn5 O1 1.914865 1_456
Mn5 O12 1.921839 1_565
Mn5 O13 1.926159 1_465
Mn5 O0 1.945235 1_556
Mn5 O9 1.982913 1_555
Mn5 O3 2.024678 1_455
Mn6 O2 1.853673 1_556
Mn6 O9 1.934196 1_555
Mn6 O5 1.956034 1_456
Mn6 O13 1.957171 1_455
Mn6 O7 1.971633 1_555
Mn7 O4 1.913454 1_545
Mn7 O8 1.935520 1_555
Mn7 O3 1.935850 1_545
Mn7 O10 1.948376 1_555
Mn7 O11 1.959126 1_555
Mn7 O12 1.976638 1_555
F0 Mn3 1.936548 1_455
F0 Mn0 2.036726 1_555
F0 Mn4 2.085078 1_555
F1 Mn6 1.936548 1_655
F1 Mn4 2.036726 1_555
F1 Mn0 2.085078 1_556
