# generated using pymatgen
data_Na2Li3Ti3Al(PO4)6
_symmetry_space_group_name_H-M   'P 1'
_cell_length_a   8.79231416
_cell_length_b   8.79231416
_cell_length_c   8.79231428
_cell_angle_alpha   59.49032682
_cell_angle_beta   59.49032682
_cell_angle_gamma   59.49032677
_symmetry_Int_Tables_number   1
_chemical_formula_structural   Na2Li3Ti3Al(PO4)6
_chemical_formula_sum   'Na2 Li3 Ti3 Al1 P6 O24'
_cell_volume   475.04072855
_cell_formula_units_Z   1
loop_
 _symmetry_equiv_pos_site_id
 _symmetry_equiv_pos_as_xyz
  1  'x, y, z'
loop_
 _atom_site_type_symbol
 _atom_site_label
 _atom_site_symmetry_multiplicity
 _atom_site_fract_x
 _atom_site_fract_y
 _atom_site_fract_z
 _atom_site_occupancy
  Na  Na0  1  0.00465100  0.00465100  0.00465100  1
  Na  Na1  1  0.49629300  0.49629300  0.49629300  1
  Li  Li0  1  0.65606500  0.24116600  0.84767700  1
  Li  Li1  1  0.24116600  0.84767700  0.65606500  1
  Li  Li2  1  0.84767700  0.65606500  0.24116600  1
  Ti  Ti0  1  0.64928300  0.64928300  0.64928300  1
  Ti  Ti1  1  0.14286300  0.14286300  0.14286300  1
  Ti  Ti2  1  0.35808300  0.35808300  0.35808300  1
  Al  Al0  1  0.84978200  0.84978200  0.84978200  1
  P  P0  1  0.24126600  0.54201000  0.96493300  1
  P  P1  1  0.96493300  0.24126600  0.54201000  1
  P  P2  1  0.54201000  0.96493300  0.24126600  1
  P  P3  1  0.46155400  0.04325800  0.75016600  1
  P  P4  1  0.04325800  0.75016600  0.46155400  1
  P  P5  1  0.75016600  0.46155400  0.04325800  1
  O  O0  1  0.06984400  0.72759500  0.93626400  1
  O  O1  1  0.40771900  0.57254900  0.77583800  1
  O  O2  1  0.21070200  0.37180700  0.99393800  1
  O  O3  1  0.13301200  0.27390700  0.51629900  1
  O  O4  1  0.93626400  0.06984400  0.72759500  1
  O  O5  1  0.77583800  0.40771900  0.57254900  1
  O  O6  1  0.51629900  0.13301200  0.27390700  1
  O  O7  1  0.57254900  0.77583800  0.40771900  1
  O  O8  1  0.63043300  0.00503200  0.79365000  1
  O  O9  1  0.27861600  0.06399400  0.91860400  1
  O  O10  1  0.27390700  0.51629900  0.13301200  1
  O  O11  1  0.00503200  0.79365000  0.63043300  1
  O  O12  1  0.99393800  0.21070200  0.37180700  1
  O  O13  1  0.70615000  0.48298200  0.88120900  1
  O  O14  1  0.72759500  0.93626400  0.06984400  1
  O  O15  1  0.37180700  0.99393800  0.21070200  1
  O  O16  1  0.44505900  0.22503700  0.58072400  1
  O  O17  1  0.48298200  0.88120900  0.70615000  1
  O  O18  1  0.22503700  0.58072400  0.44505900  1
  O  O19  1  0.06399400  0.91860400  0.27861600  1
  O  O20  1  0.88120900  0.70615000  0.48298200  1
  O  O21  1  0.79365000  0.63043300  0.00503200  1
  O  O22  1  0.58072400  0.44505900  0.22503700  1
  O  O23  1  0.91860400  0.27861600  0.06399400  1
loop_
_geom_bond_atom_site_label_1
_geom_bond_atom_site_label_2
_geom_bond_distance
_geom_bond_site_symmetry_2
Na0 O9 2.381555 1_554
Na0 O23 2.381555 1_455
Na0 O19 2.381555 1_545
Na0 O14 2.518635 1_445
Na0 O0 2.518635 1_544
Na0 O4 2.518635 1_454
Na1 O16 2.322866 1_555
Na1 O18 2.322866 1_555
Na1 O22 2.322866 1_555
Na1 O7 2.509298 1_555
Na1 O5 2.509298 1_555
Na1 O1 2.509298 1_555
Li0 O5 2.118366 1_555
Li0 O4 2.158425 1_555
Li0 O14 2.369864 1_546
Li0 O8 2.484362 1_555
Li0 O13 2.553464 1_555
Li0 O1 2.593836 1_555
Li1 O1 2.118366 1_555
Li1 O0 2.158425 1_555
Li1 O4 2.369864 1_465
Li1 O11 2.484362 1_555
Li1 O17 2.553464 1_555
Li1 O7 2.593836 1_555
Li2 O7 2.118366 1_555
Li2 O14 2.158425 1_555
Li2 O0 2.369864 1_654
Li2 O21 2.484362 1_555
Li2 O20 2.553464 1_555
Li2 O5 2.593836 1_555
Al0 O21 1.853560 1_556
Al0 O8 1.853560 1_565
Al0 O11 1.853560 1_655
Al0 O4 2.007435 1_565
Al0 O0 2.007435 1_655
Al0 O14 2.007435 1_556
O0 P0 1.571211 1_555
O1 P0 1.566289 1_555
O1 Ti0 2.120702 1_555
O2 P0 1.525759 1_555
O2 Ti1 1.967761 1_556
O3 P1 1.530661 1_455
O3 Ti2 2.011344 1_555
O4 P1 1.571211 1_555
O5 P1 1.566289 1_555
O5 Ti0 2.120702 1_555
O6 P2 1.530661 1_545
O6 Ti2 2.011344 1_555
O7 P2 1.566289 1_555
O7 Ti0 2.120702 1_555
O8 P3 1.550194 1_555
O9 P3 1.539913 1_555
O9 Ti1 1.987866 1_556
O10 P0 1.530661 1_554
O10 Ti2 2.011344 1_555
O11 P4 1.550194 1_555
O12 P1 1.525759 1_555
O12 Ti1 1.967761 1_655
O13 P5 1.558384 1_556
O13 Ti0 1.952340 1_555
O14 P2 1.571211 1_555
O15 P2 1.525759 1_555
O15 Ti1 1.967761 1_565
O16 P3 1.536652 1_555
O16 Ti2 2.017845 1_555
O17 P3 1.558384 1_565
O17 Ti0 1.952340 1_555
O18 P4 1.536652 1_555
O18 Ti2 2.017845 1_555
O19 P4 1.539913 1_555
O19 Ti1 1.987866 1_565
O20 P4 1.558384 1_655
O20 Ti0 1.952340 1_555
O21 P5 1.550194 1_555
O22 P5 1.536652 1_555
O22 Ti2 2.017845 1_555
O23 P5 1.539913 1_555
O23 Ti1 1.987866 1_655
