# generated using pymatgen
data_SrCa2I6
_symmetry_space_group_name_H-M   'P 1'
_cell_length_a   7.34006000
_cell_length_b   8.97765500
_cell_length_c   24.36211501
_cell_angle_alpha   80.96577268
_cell_angle_beta   90.00000000
_cell_angle_gamma   90.00000000
_symmetry_Int_Tables_number   1
_chemical_formula_structural   SrCa2I6
_chemical_formula_sum   'Sr4 Ca8 I24'
_cell_volume   1585.46357097
_cell_formula_units_Z   4
loop_
 _symmetry_equiv_pos_site_id
 _symmetry_equiv_pos_as_xyz
  1  'x, y, z'
loop_
 _atom_site_type_symbol
 _atom_site_label
 _atom_site_symmetry_multiplicity
 _atom_site_fract_x
 _atom_site_fract_y
 _atom_site_fract_z
 _atom_site_occupancy
  Sr  Sr0  1  0.00454400  0.11063700  0.58615700  1
  Sr  Sr1  1  0.49545600  0.11063700  0.08615700  1
  Sr  Sr2  1  0.50454400  0.88936300  0.91384300  1
  Sr  Sr3  1  0.99545600  0.88936300  0.41384300  1
  Ca  Ca0  1  0.48662400  0.25484900  0.75147600  1
  Ca  Ca1  1  0.98586400  0.39684800  0.91561500  1
  Ca  Ca2  1  0.01337600  0.25484900  0.25147600  1
  Ca  Ca3  1  0.51413600  0.39684800  0.41561500  1
  Ca  Ca4  1  0.48586400  0.60315200  0.58438500  1
  Ca  Ca5  1  0.98662400  0.74515100  0.74852400  1
  Ca  Ca6  1  0.01413600  0.60315200  0.08438500  1
  Ca  Ca7  1  0.51337600  0.74515100  0.24852400  1
  I  I0  1  0.74981000  0.98959800  0.80123200  1
  I  I1  1  0.25700200  0.18580100  0.86052500  1
  I  I2  1  0.75103900  0.12501500  0.97406300  1
  I  I3  1  0.75019000  0.98959800  0.30123200  1
  I  I4  1  0.24299800  0.18580100  0.36052500  1
  I  I5  1  0.74896100  0.12501500  0.47406300  1
  I  I6  1  0.25920000  0.38598400  0.52086600  1
  I  I7  1  0.71546600  0.32617900  0.64251700  1
  I  I8  1  0.23704100  0.51727000  0.69134000  1
  I  I9  1  0.73704100  0.48273000  0.80866000  1
  I  I10  1  0.24080000  0.38598400  0.02086600  1
  I  I11  1  0.21546600  0.67382100  0.85748300  1
  I  I12  1  0.78453400  0.32617900  0.14251700  1
  I  I13  1  0.75920000  0.61401600  0.97913400  1
  I  I14  1  0.26295900  0.51727000  0.19134000  1
  I  I15  1  0.76295900  0.48273000  0.30866000  1
  I  I16  1  0.28453400  0.67382100  0.35748300  1
  I  I17  1  0.74080000  0.61401600  0.47913400  1
  I  I18  1  0.25103900  0.87498500  0.52593700  1
  I  I19  1  0.75700200  0.81419900  0.63947500  1
  I  I20  1  0.24981000  0.01040200  0.69876800  1
  I  I21  1  0.24896100  0.87498500  0.02593700  1
  I  I22  1  0.74299800  0.81419900  0.13947500  1
  I  I23  1  0.25019000  0.01040200  0.19876800  1
loop_
_geom_bond_atom_site_label_1
_geom_bond_atom_site_label_2
_geom_bond_distance
_geom_bond_site_symmetry_2
Ca0 I7 3.121522 1_555
Ca0 I1 3.125003 1_555
Ca0 I0 3.156804 1_545
Ca0 I8 3.157346 1_555
Ca0 I20 3.220463 1_555
Ca0 I9 3.224878 1_555
Ca1 I2 3.140509 1_555
Ca1 I13 3.148218 1_555
Ca1 I11 3.150075 1_655
Ca1 I10 3.163437 1_656
Ca1 I9 3.176256 1_555
Ca1 I1 3.185991 1_655
Ca2 I12 3.121522 1_455
Ca2 I4 3.125003 1_555
Ca2 I3 3.156804 1_445
Ca2 I14 3.157346 1_555
Ca2 I23 3.220463 1_555
Ca2 I15 3.224878 1_455
Ca3 I5 3.140509 1_555
Ca3 I17 3.148218 1_555
Ca3 I16 3.150075 1_555
Ca3 I6 3.163437 1_555
Ca3 I15 3.176256 1_555
Ca3 I4 3.185991 1_555
Ca4 I18 3.140509 1_555
Ca4 I6 3.148218 1_555
Ca4 I7 3.150075 1_555
Ca4 I17 3.163437 1_555
Ca4 I8 3.176256 1_555
Ca4 I19 3.185991 1_555
Ca5 I11 3.121522 1_655
Ca5 I19 3.125003 1_555
Ca5 I20 3.156804 1_665
Ca5 I9 3.157346 1_555
Ca5 I0 3.220463 1_555
Ca5 I8 3.224878 1_655
Ca6 I21 3.140509 1_555
Ca6 I10 3.148218 1_555
Ca6 I12 3.150075 1_455
Ca6 I13 3.163437 1_454
Ca6 I14 3.176256 1_555
Ca6 I22 3.185991 1_455
Ca7 I16 3.121522 1_555
Ca7 I22 3.125003 1_555
Ca7 I23 3.156804 1_565
Ca7 I15 3.157346 1_555
Ca7 I3 3.220463 1_555
Ca7 I14 3.224878 1_555
I0 Sr2 3.286625 1_555
I1 Sr2 3.314456 1_545
I2 Sr2 3.297935 1_545
I2 Sr1 3.298915 1_556
I3 Sr3 3.286625 1_555
I4 Sr3 3.314456 1_445
I5 Sr3 3.297935 1_545
I5 Sr0 3.298915 1_655
I6 Sr0 3.301480 1_555
I7 Sr0 3.311553 1_655
I10 Sr1 3.301480 1_555
I11 Sr2 3.311553 1_555
I12 Sr1 3.311553 1_555
I13 Sr2 3.301480 1_555
I16 Sr3 3.311553 1_455
I17 Sr3 3.301480 1_555
I18 Sr0 3.297935 1_565
I18 Sr3 3.298915 1_455
I19 Sr0 3.314456 1_665
I20 Sr0 3.286625 1_555
I21 Sr1 3.297935 1_565
I21 Sr2 3.298915 1_554
I22 Sr1 3.314456 1_565
I23 Sr1 3.286625 1_555
