# generated using pymatgen
data_Li5Fe2P2(CO7)2
_symmetry_space_group_name_H-M   'P 1'
_cell_length_a   8.18785900
_cell_length_b   8.27978554
_cell_length_c   8.46164911
_cell_angle_alpha   92.79853862
_cell_angle_beta   94.04205941
_cell_angle_gamma   104.15820661
_symmetry_Int_Tables_number   1
_chemical_formula_structural   Li5Fe2P2(CO7)2
_chemical_formula_sum   'Li10 Fe4 P4 C4 O28'
_cell_volume   553.54215879
_cell_formula_units_Z   2
loop_
 _symmetry_equiv_pos_site_id
 _symmetry_equiv_pos_as_xyz
  1  'x, y, z'
loop_
 _atom_site_type_symbol
 _atom_site_label
 _atom_site_symmetry_multiplicity
 _atom_site_fract_x
 _atom_site_fract_y
 _atom_site_fract_z
 _atom_site_occupancy
  Li  Li0  1  0.73982700  0.49617600  0.09934200  1
  Li  Li1  1  0.24946300  0.97592900  0.09537100  1
  Li  Li2  1  0.88951200  0.85193300  0.27186600  1
  Li  Li3  1  0.59182500  0.11125000  0.27414200  1
  Li  Li4  1  0.38327300  0.36310600  0.27777700  1
  Li  Li5  1  0.40817500  0.88875000  0.72585800  1
  Li  Li6  1  0.61672700  0.63689400  0.72222300  1
  Li  Li7  1  0.11048800  0.14806700  0.72813400  1
  Li  Li8  1  0.26017300  0.50382400  0.90065800  1
  Li  Li9  1  0.75053700  0.02407100  0.90462900  1
  Fe  Fe0  1  0.47005100  0.72496400  0.32051900  1
  Fe  Fe1  1  0.97733500  0.23225000  0.34260700  1
  Fe  Fe2  1  0.02266500  0.76775000  0.65739300  1
  Fe  Fe3  1  0.52994900  0.27503600  0.67948100  1
  P  P0  1  0.75588700  0.51723700  0.41425100  1
  P  P1  1  0.26205400  0.01599700  0.41780200  1
  P  P2  1  0.73794600  0.98400300  0.58219800  1
  P  P3  1  0.24411300  0.48276300  0.58574900  1
  C  C0  1  0.52669300  0.78035000  0.02735200  1
  C  C1  1  0.03865000  0.26343900  0.05258800  1
  C  C2  1  0.96135000  0.73656100  0.94741200  1
  C  C3  1  0.47330700  0.21965000  0.97264800  1
  O  O0  1  0.40541200  0.65717400  0.05916100  1
  O  O1  1  0.90119100  0.15488100  0.08292800  1
  O  O2  1  0.91539500  0.71026000  0.08580200  1
  O  O3  1  0.61525800  0.87735300  0.14562200  1
  O  O4  1  0.43823800  0.18941700  0.11704900  1
  O  O5  1  0.12917600  0.34661300  0.17853600  1
  O  O6  1  0.62404500  0.55605400  0.29008300  1
  O  O7  1  0.81666300  0.37717900  0.32218500  1
  O  O8  1  0.32145600  0.89190100  0.30764300  1
  O  O9  1  0.10105100  0.04529900  0.32508000  1
  O  O10  1  0.90438000  0.67936200  0.44745600  1
  O  O11  1  0.78372900  0.05325200  0.41826500  1
  O  O12  1  0.31398800  0.53281800  0.42885100  1
  O  O13  1  0.40408100  0.17950800  0.44545200  1
  O  O14  1  0.59591900  0.82049200  0.55454800  1
  O  O15  1  0.68601200  0.46718200  0.57114900  1
  O  O16  1  0.21627100  0.94674800  0.58173500  1
  O  O17  1  0.09562000  0.32063800  0.55254400  1
  O  O18  1  0.89894900  0.95470100  0.67492000  1
  O  O19  1  0.18333700  0.62282100  0.67781500  1
  O  O20  1  0.67854400  0.10809900  0.69235700  1
  O  O21  1  0.37595500  0.44394600  0.70991700  1
  O  O22  1  0.87082400  0.65338700  0.82146400  1
  O  O23  1  0.56176200  0.81058300  0.88295100  1
  O  O24  1  0.38474200  0.12264700  0.85437800  1
  O  O25  1  0.08460500  0.28974000  0.91419800  1
  O  O26  1  0.59458800  0.34282600  0.94083900  1
  O  O27  1  0.09880900  0.84511900  0.91707200  1
loop_
_geom_bond_atom_site_label_1
_geom_bond_atom_site_label_2
_geom_bond_distance
_geom_bond_site_symmetry_2
Li0 O26 1.922329 1_554
Li0 O2 2.004525 1_555
Li0 O6 2.029026 1_555
Li0 O7 2.289000 1_555
Li1 O27 1.973663 1_554
Li1 O4 2.034464 1_565
Li1 O8 2.056973 1_555
Li1 O9 2.479919 1_565
Li2 O2 1.971793 1_555
Li2 O9 2.056482 1_665
Li2 O10 2.128586 1_555
Li2 O11 2.391475 1_565
Li2 O3 2.478491 1_555
Li3 O4 2.003436 1_555
Li3 O11 2.083969 1_555
Li3 O3 2.230576 1_545
Li3 O13 2.332991 1_555
Li3 O7 2.495305 1_555
Li3 O8 2.539954 1_545
Li4 O12 2.060896 1_555
Li4 O4 2.081413 1_555
Li4 O5 2.157743 1_555
Li4 O13 2.157807 1_555
Li4 O6 2.205360 1_555
Li5 O23 2.003436 1_555
Li5 O16 2.083969 1_555
Li5 O24 2.230576 1_565
Li5 O14 2.332991 1_555
Li5 O19 2.495305 1_555
Li5 O20 2.539954 1_565
Li6 O15 2.060896 1_555
Li6 O23 2.081413 1_555
Li6 O22 2.157743 1_555
Li6 O14 2.157807 1_555
Li6 O21 2.205360 1_555
Li7 O25 1.971793 1_555
Li7 O18 2.056482 1_445
Li7 O17 2.128586 1_555
Li7 O16 2.391475 1_545
Li7 O24 2.478491 1_555
Li8 O0 1.922329 1_556
Li8 O25 2.004525 1_555
Li8 O21 2.029026 1_555
Li8 O19 2.289000 1_555
Li9 O1 1.973663 1_556
Li9 O23 2.034464 1_545
Li9 O20 2.056973 1_555
Li9 O18 2.479919 1_545
Fe0 O8 2.054593 1_555
Fe0 O12 2.077785 1_555
Fe0 O6 2.117857 1_555
Fe0 O14 2.183979 1_555
Fe0 O3 2.211844 1_555
Fe0 O0 2.248206 1_555
Fe1 O17 1.978128 1_655
Fe1 O7 1.990223 1_555
Fe1 O5 2.040956 1_655
Fe1 O11 2.050774 1_555
Fe1 O9 2.051819 1_655
Fe1 O1 2.258603 1_555
Fe2 O10 1.978128 1_455
Fe2 O19 1.990223 1_555
Fe2 O22 2.040956 1_455
Fe2 O16 2.050774 1_555
Fe2 O18 2.051819 1_455
Fe2 O27 2.258603 1_555
Fe3 O20 2.054593 1_555
Fe3 O15 2.077785 1_555
Fe3 O21 2.117857 1_555
Fe3 O13 2.183979 1_555
Fe3 O24 2.211844 1_555
Fe3 O26 2.248206 1_555
C0 O0 1.291408 1_555
C0 O23 1.297014 1_554
C0 O3 1.306418 1_555
C1 O25 1.267752 1_554
C1 O1 1.307260 1_455
C1 O5 1.314036 1_555
C2 O2 1.267752 1_556
C2 O27 1.307260 1_655
C2 O22 1.314036 1_555
C3 O26 1.291408 1_555
C3 O4 1.297014 1_556
C3 O24 1.306418 1_555
O6 P0 1.554133 1_555
O7 P0 1.564624 1_555
O8 P1 1.541434 1_565
O9 P1 1.562531 1_555
O10 P0 1.573445 1_555
O11 P2 1.561815 1_545
O12 P3 1.518707 1_555
O13 P1 1.549345 1_555
O14 P2 1.549345 1_555
O15 P0 1.518707 1_555
O16 P1 1.561815 1_565
O17 P3 1.573445 1_555
O18 P2 1.562531 1_555
O19 P3 1.564624 1_555
O20 P2 1.541434 1_545
O21 P3 1.554133 1_555
