# generated using pymatgen
data_CaNdMn2O6
_symmetry_space_group_name_H-M   'P 1'
_cell_length_a   5.45571900
_cell_length_b   5.50210462
_cell_length_c   23.05982679
_cell_angle_alpha   89.95970890
_cell_angle_beta   89.99499590
_cell_angle_gamma   89.97277929
_symmetry_Int_Tables_number   1
_chemical_formula_structural   CaNdMn2O6
_chemical_formula_sum   'Ca6 Nd6 Mn12 O36'
_cell_volume   692.20816944
_cell_formula_units_Z   6
loop_
 _symmetry_equiv_pos_site_id
 _symmetry_equiv_pos_as_xyz
  1  'x, y, z'
loop_
 _atom_site_type_symbol
 _atom_site_label
 _atom_site_symmetry_multiplicity
 _atom_site_fract_x
 _atom_site_fract_y
 _atom_site_fract_z
 _atom_site_occupancy
  Ca  Ca0  1  0.49009700  0.54106800  0.58035600  1
  Ca  Ca1  1  0.51150400  0.46113300  0.41891800  1
  Ca  Ca2  1  0.51165500  0.46050000  0.08433800  1
  Ca  Ca3  1  0.98938500  0.96045700  0.74801300  1
  Ca  Ca4  1  0.98931400  0.95981300  0.41799600  1
  Ca  Ca5  1  0.98797200  0.96053700  0.08399800  1
  Nd  Nd0  1  0.00945900  0.03877500  0.91756200  1
  Nd  Nd1  1  0.00917100  0.03981800  0.58172000  1
  Nd  Nd2  1  0.00797200  0.03992700  0.25080400  1
  Nd  Nd3  1  0.49130600  0.53912900  0.91805600  1
  Nd  Nd4  1  0.49238600  0.53964800  0.25098900  1
  Nd  Nd5  1  0.51128300  0.46099500  0.74738300  1
  Mn  Mn0  1  0.99977800  0.50116600  0.83188000  1
  Mn  Mn1  1  0.99953400  0.50132700  0.49865700  1
  Mn  Mn2  1  0.50042800  0.99958800  0.83176800  1
  Mn  Mn3  1  0.50081600  0.00087900  0.00284700  1
  Mn  Mn4  1  0.50096100  0.99990900  0.49866700  1
  Mn  Mn5  1  0.50064500  0.00064100  0.33615900  1
  Mn  Mn6  1  0.50066800  0.00113100  0.16491000  1
  Mn  Mn7  1  0.49991900  0.99855300  0.66546700  1
  Mn  Mn8  1  0.99881200  0.50069200  0.00286200  1
  Mn  Mn9  1  0.00170100  0.50234900  0.66517700  1
  Mn  Mn10  1  0.99933100  0.50026500  0.33640200  1
  Mn  Mn11  1  0.99920900  0.50139900  0.16504600  1
  O  O0  1  0.08027900  0.52020500  0.74898700  1
  O  O1  1  0.08484900  0.52498900  0.08388800  1
  O  O2  1  0.08404000  0.52314300  0.41716600  1
  O  O3  1  0.21604300  0.78410500  0.65195600  1
  O  O4  1  0.22022300  0.78047200  0.98466900  1
  O  O5  1  0.22154900  0.77943700  0.84902600  1
  O  O6  1  0.21596100  0.78417100  0.51405100  1
  O  O7  1  0.22082900  0.77966600  0.31834900  1
  O  O8  1  0.22115600  0.78074900  0.18271300  1
  O  O9  1  0.27851900  0.27960700  0.98460800  1
  O  O10  1  0.28159900  0.28240200  0.84807000  1
  O  O11  1  0.28046300  0.28011600  0.51544200  1
  O  O12  1  0.28509100  0.28560600  0.65138900  1
  O  O13  1  0.27835700  0.27927600  0.31815700  1
  O  O14  1  0.28009000  0.28014700  0.18272800  1
  O  O15  1  0.41815800  0.01927200  0.74890300  1
  O  O16  1  0.41488500  0.02495600  0.08403700  1
  O  O17  1  0.41709500  0.02484800  0.41713100  1
  O  O18  1  0.57699100  0.98640200  0.91688600  1
  O  O19  1  0.57796700  0.98108900  0.58256900  1
  O  O20  1  0.57536200  0.98627800  0.25047400  1
  O  O21  1  0.71537300  0.71639700  0.48595900  1
  O  O22  1  0.71294000  0.71260200  0.81975300  1
  O  O23  1  0.71856000  0.71779500  0.68046800  1
  O  O24  1  0.71134100  0.71193900  0.34644100  1
  O  O25  1  0.71210800  0.71349900  0.15387500  1
  O  O26  1  0.71132000  0.71185900  0.01314300  1
  O  O27  1  0.78161500  0.21773700  0.81837200  1
  O  O28  1  0.78394000  0.21770400  0.68081600  1
  O  O29  1  0.78920700  0.21176200  0.48688200  1
  O  O30  1  0.78745900  0.21307700  0.15385400  1
  O  O31  1  0.78776600  0.21250900  0.34627300  1
  O  O32  1  0.78770900  0.21208900  0.01302300  1
  O  O33  1  0.92406800  0.48541400  0.91665000  1
  O  O34  1  0.91862200  0.48200600  0.58281100  1
  O  O35  1  0.92516200  0.48698300  0.25050700  1
loop_
_geom_bond_atom_site_label_1
_geom_bond_atom_site_label_2
_geom_bond_distance
_geom_bond_site_symmetry_2
Ca0 O34 2.360914 1_555
Ca0 O11 2.369630 1_555
Ca0 O12 2.430556 1_555
Ca0 O19 2.468835 1_555
Ca0 O6 2.521779 1_555
Ca0 O3 2.598173 1_555
Ca0 O21 2.679034 1_555
Ca0 O23 2.798817 1_555
Ca1 O2 2.357134 1_555
Ca1 O21 2.367384 1_555
Ca1 O24 2.425713 1_555
Ca1 O17 2.455737 1_555
Ca1 O29 2.574811 1_555
Ca1 O31 2.636291 1_555
Ca1 O11 2.744577 1_555
Ca1 O13 2.832478 1_555
Ca2 O1 2.355269 1_555
Ca2 O25 2.389534 1_555
Ca2 O26 2.406774 1_555
Ca2 O16 2.454135 1_555
Ca2 O30 2.585056 1_555
Ca2 O32 2.615634 1_555
Ca2 O14 2.779568 1_555
Ca2 O9 2.811087 1_554
Ca3 O15 2.361787 1_665
Ca3 O28 2.378336 1_565
Ca3 O27 2.433630 1_565
Ca3 O0 2.472407 1_655
Ca3 O23 2.529232 1_555
Ca3 O22 2.620978 1_555
Ca3 O3 2.716343 1_655
Ca3 O5 2.831646 1_655
Ca4 O17 2.361373 1_665
Ca4 O29 2.374499 1_565
Ca4 O31 2.423485 1_565
Ca4 O2 2.457404 1_655
Ca4 O21 2.545996 1_555
Ca4 O24 2.624528 1_555
Ca4 O6 2.713950 1_655
Ca4 O7 2.803464 1_655
Ca5 O16 2.356099 1_665
Ca5 O30 2.392428 1_565
Ca5 O32 2.404942 1_565
Ca5 O1 2.453781 1_655
Ca5 O25 2.589890 1_555
Ca5 O26 2.612544 1_555
Ca5 O8 2.788354 1_655
Ca5 O4 2.799110 1_654
Nd0 O18 2.377145 1_445
Nd0 O4 2.394240 1_545
Nd0 O5 2.423630 1_545
Nd0 O33 2.501080 1_455
Nd0 O9 2.511190 1_555
Nd0 O10 2.562734 1_555
Nd0 O32 2.687032 1_456
Nd0 O27 2.782567 1_455
Nd1 O19 2.374845 1_445
Nd1 O6 2.384859 1_545
Nd1 O3 2.423254 1_545
Nd1 O34 2.482526 1_455
Nd1 O11 2.504645 1_555
Nd1 O12 2.584829 1_555
Nd1 O29 2.667279 1_455
Nd1 O28 2.773310 1_455
Nd2 O20 2.378738 1_445
Nd2 O7 2.412635 1_545
Nd2 O8 2.419289 1_545
Nd2 O35 2.500689 1_455
Nd2 O13 2.515498 1_555
Nd2 O14 2.532557 1_555
Nd2 O31 2.681973 1_455
Nd2 O30 2.710992 1_455
Nd3 O33 2.379535 1_555
Nd3 O9 2.395844 1_555
Nd3 O10 2.431843 1_555
Nd3 O18 2.505294 1_555
Nd3 O4 2.512124 1_555
Nd3 O5 2.538436 1_555
Nd3 O26 2.675142 1_556
Nd3 O22 2.740308 1_555
Nd4 O35 2.378708 1_555
Nd4 O13 2.411016 1_555
Nd4 O14 2.421344 1_555
Nd4 O20 2.498985 1_555
Nd4 O7 2.520386 1_555
Nd4 O8 2.534539 1_555
Nd4 O24 2.678608 1_555
Nd4 O25 2.713784 1_555
Nd5 O0 2.374032 1_555
Nd5 O23 2.377889 1_555
Nd5 O22 2.432473 1_555
Nd5 O15 2.483401 1_555
Nd5 O28 2.522212 1_555
Nd5 O27 2.577171 1_555
Nd5 O12 2.712703 1_555
Nd5 O10 2.814984 1_555
Mn0 O0 1.964002 1_655
Mn0 O22 1.969364 1_555
Mn0 O27 1.986984 1_555
Mn0 O10 1.987439 1_655
Mn0 O5 1.991764 1_655
Mn0 O33 1.999737 1_555
Mn1 O2 1.938511 1_655
Mn1 O21 1.971627 1_555
Mn1 O29 1.982723 1_555
Mn1 O6 1.986124 1_655
Mn1 O34 1.992889 1_555
Mn1 O11 1.994481 1_655
Mn2 O15 1.965797 1_565
Mn2 O27 1.972469 1_565
Mn2 O22 1.978164 1_555
Mn2 O5 1.985320 1_555
Mn2 O10 1.996743 1_565
Mn2 O18 2.008050 1_555
Mn3 O16 1.934608 1_555
Mn3 O32 1.964075 1_555
Mn3 O26 1.975319 1_545
Mn3 O4 1.998102 1_544
Mn3 O9 1.999267 1_554
Mn3 O18 2.026920 1_544
Mn4 O17 1.939867 1_565
Mn4 O21 1.971400 1_555
Mn4 O29 1.976568 1_565
Mn4 O19 1.982514 1_555
Mn4 O6 1.988358 1_555
Mn4 O11 1.993165 1_565
Mn5 O17 1.926680 1_555
Mn5 O31 1.967041 1_555
Mn5 O24 1.974482 1_545
Mn5 O7 1.994989 1_545
Mn5 O13 1.997705 1_555
Mn5 O20 2.019051 1_545
Mn6 O16 1.927144 1_555
Mn6 O30 1.968320 1_555
Mn6 O25 1.974536 1_545
Mn6 O8 1.991291 1_545
Mn6 O14 1.993196 1_555
Mn6 O20 2.016361 1_545
Mn7 O19 1.960839 1_555
Mn7 O3 1.972366 1_555
Mn7 O15 1.978366 1_565
Mn7 O23 1.981512 1_555
Mn7 O12 1.992774 1_565
Mn7 O28 1.995684 1_565
Mn8 O1 1.931283 1_655
Mn8 O26 1.965919 1_555
Mn8 O32 1.975861 1_555
Mn8 O9 1.996102 1_654
Mn8 O4 2.001404 1_654
Mn8 O33 2.031266 1_554
Mn9 O34 1.956011 1_455
Mn9 O3 1.965883 1_555
Mn9 O12 1.977968 1_555
Mn9 O23 1.978507 1_455
Mn9 O0 1.982171 1_555
Mn9 O28 1.998804 1_455
Mn10 O2 1.923151 1_655
Mn10 O24 1.969068 1_555
Mn10 O31 1.972812 1_555
Mn10 O13 1.992898 1_655
Mn10 O7 1.999415 1_655
Mn10 O35 2.023046 1_555
Mn11 O1 1.933180 1_655
Mn11 O25 1.969665 1_555
Mn11 O30 1.979942 1_555
Mn11 O14 1.998528 1_655
Mn11 O8 1.999337 1_655
Mn11 O35 2.013177 1_555
