# generated using pymatgen
data_K4Na2H18Pd(IO10)2
_symmetry_space_group_name_H-M   'P 1'
_cell_length_a   6.84111800
_cell_length_b   7.31155503
_cell_length_c   10.97592638
_cell_angle_alpha   93.86337747
_cell_angle_beta   104.54878302
_cell_angle_gamma   94.27610213
_symmetry_Int_Tables_number   1
_chemical_formula_structural   K4Na2H18Pd(IO10)2
_chemical_formula_sum   'K4 Na2 H18 Pd1 I2 O20'
_cell_volume   527.81067308
_cell_formula_units_Z   1
loop_
 _symmetry_equiv_pos_site_id
 _symmetry_equiv_pos_as_xyz
  1  'x, y, z'
loop_
 _atom_site_type_symbol
 _atom_site_label
 _atom_site_symmetry_multiplicity
 _atom_site_fract_x
 _atom_site_fract_y
 _atom_site_fract_z
 _atom_site_occupancy
  K  K0  1  0.09957700  0.33113800  0.61597800  1
  K  K1  1  0.08541800  0.31835700  0.13919900  1
  K  K2  1  0.91458200  0.68164300  0.86080100  1
  K  K3  1  0.90042300  0.66886200  0.38402200  1
  Na  Na0  1  0.29367200  0.83141200  0.23283600  1
  Na  Na1  1  0.70632800  0.16858800  0.76716400  1
  H  H0  1  0.14480800  0.13909500  0.86315700  1
  H  H1  1  0.17691700  0.35722200  0.87903200  1
  H  H2  1  0.09179500  0.11142400  0.37960200  1
  H  H3  1  0.30740400  0.01224500  0.56784100  1
  H  H4  1  0.36132600  0.64586800  0.46473300  1
  H  H5  1  0.32940500  0.13031900  0.39107600  1
  H  H6  1  0.54615700  0.46587400  0.87673800  1
  H  H7  1  0.38856500  0.49059100  0.36651500  1
  H  H8  1  0.65166600  0.38457600  0.00403900  1
  H  H9  1  0.34833400  0.61542400  0.99596100  1
  H  H10  1  0.61143500  0.50940900  0.63348500  1
  H  H11  1  0.45384300  0.53412600  0.12326200  1
  H  H12  1  0.67059500  0.86968100  0.60892400  1
  H  H13  1  0.63867400  0.35413200  0.53526700  1
  H  H14  1  0.69259600  0.98775500  0.43215900  1
  H  H15  1  0.90820500  0.88857600  0.62039800  1
  H  H16  1  0.82308300  0.64277800  0.12096800  1
  H  H17  1  0.85519200  0.86090500  0.13684300  1
  Pd  Pd0  1  0.50000000  0.00000000  0.00000000  1
  I  I0  1  0.34366800  0.79403600  0.74054400  1
  I  I1  1  0.65633200  0.20596400  0.25945600  1
  O  O0  1  0.07209000  0.25291500  0.86591400  1
  O  O1  1  0.08351100  0.73209900  0.63757900  1
  O  O2  1  0.23601900  0.92802700  0.86765800  1
  O  O3  1  0.33753400  0.57572400  0.82269000  1
  O  O4  1  0.21529900  0.04131400  0.39915700  1
  O  O5  1  0.35519300  0.03815500  0.66183000  1
  O  O6  1  0.31008600  0.59888300  0.37361200  1
  O  O7  1  0.48189700  0.70028000  0.62579100  1
  O  O8  1  0.60270100  0.89443700  0.85532200  1
  O  O9  1  0.33211000  0.59762700  0.08196200  1
  O  O10  1  0.66789000  0.40237300  0.91803800  1
  O  O11  1  0.39729900  0.10556300  0.14467800  1
  O  O12  1  0.51810300  0.29972000  0.37420900  1
  O  O13  1  0.68991400  0.40111700  0.62638800  1
  O  O14  1  0.64480700  0.96184500  0.33817000  1
  O  O15  1  0.78470100  0.95868600  0.60084300  1
  O  O16  1  0.66246600  0.42427600  0.17731000  1
  O  O17  1  0.76398100  0.07197300  0.13234200  1
  O  O18  1  0.91648900  0.26790100  0.36242100  1
  O  O19  1  0.92791000  0.74708500  0.13408600  1
loop_
_geom_bond_atom_site_label_1
_geom_bond_atom_site_label_2
_geom_bond_distance
_geom_bond_site_symmetry_2
K0 O18 2.741671 1_455
K0 O3 2.856442 1_555
K0 O5 2.856892 1_555
K0 O0 2.888356 1_555
K0 O13 2.914788 1_455
K0 O1 2.937743 1_555
K0 O15 3.311808 1_445
K1 O17 2.719242 1_455
K1 O11 2.723930 1_555
K1 O9 2.757503 1_555
K1 O18 2.992533 1_455
K2 O2 2.719242 1_655
K2 O8 2.723930 1_555
K2 O10 2.757503 1_555
K2 O1 2.992533 1_655
K3 O1 2.741671 1_655
K3 O16 2.856442 1_555
K3 O14 2.856892 1_555
K3 O19 2.888356 1_555
K3 O6 2.914788 1_655
K3 O18 2.937743 1_555
K3 O4 3.311808 1_665
Na0 O6 2.363449 1_555
Na0 O9 2.374364 1_555
Na0 O11 2.418852 1_565
Na0 O14 2.476083 1_555
Na0 O19 2.476558 1_455
Na0 O4 2.492441 1_565
Na1 O13 2.363449 1_555
Na1 O10 2.374364 1_555
Na1 O8 2.418852 1_545
Na1 O5 2.476083 1_555
Na1 O0 2.476558 1_655
Na1 O15 2.492441 1_545
H0 O0 1.003424 1_555
H0 O2 1.706388 1_545
H1 O0 0.984078 1_555
H1 K0 2.792104 1_555
H2 O4 1.005490 1_555
H2 O18 1.703779 1_455
H2 K0 2.944636 1_555
H3 O5 1.000993 1_555
H3 K0 2.905633 1_555
H4 O6 1.000386 1_555
H4 O7 1.757081 1_555
H5 O4 1.003756 1_555
H5 O12 1.774073 1_555
H6 O10 1.005460 1_555
H6 O3 1.686335 1_555
H7 O6 0.998662 1_555
H7 O12 1.703750 1_555
H8 O10 0.993635 1_554
H9 O9 0.993635 1_556
H10 O13 0.998662 1_555
H10 O7 1.703750 1_555
H11 O9 1.005460 1_555
H11 O16 1.686335 1_555
H12 O15 1.003756 1_555
H12 O7 1.774073 1_555
H13 O13 1.000386 1_555
H13 O12 1.757081 1_555
H14 O14 1.000993 1_555
H14 K3 2.905633 1_555
H15 O15 1.005490 1_555
H15 O1 1.703779 1_655
H15 K3 2.944636 1_555
H16 O19 0.984078 1_555
H16 K3 2.792104 1_555
H17 O19 1.003424 1_555
H17 O17 1.706388 1_565
I0 O1 1.857460 1_555
I0 O7 1.878632 1_555
I0 O3 1.888255 1_555
I0 O8 1.956017 1_555
I0 O2 1.971877 1_555
I0 O5 2.039488 1_565
I1 O18 1.857460 1_555
I1 O12 1.878632 1_555
I1 O16 1.888255 1_555
I1 O11 1.956017 1_555
I1 O17 1.971877 1_555
I1 O14 2.039488 1_545
O2 Pd0 2.021287 1_566
O8 Pd0 2.021697 1_566
O11 Pd0 2.021697 1_555
O17 Pd0 2.021287 1_555
