# generated using pymatgen
data_VO2F
_symmetry_space_group_name_H-M   'P 1'
_cell_length_a   3.56797636
_cell_length_b   4.23812372
_cell_length_c   12.84255417
_cell_angle_alpha   90.00000000
_cell_angle_beta   90.00000000
_cell_angle_gamma   90.00000000
_symmetry_Int_Tables_number   1
_chemical_formula_structural   VO2F
_chemical_formula_sum   'V4 O8 F4'
_cell_volume   194.19900708
_cell_formula_units_Z   4
loop_
 _symmetry_equiv_pos_site_id
 _symmetry_equiv_pos_as_xyz
  1  'x, y, z'
loop_
 _atom_site_type_symbol
 _atom_site_label
 _atom_site_symmetry_multiplicity
 _atom_site_fract_x
 _atom_site_fract_y
 _atom_site_fract_z
 _atom_site_occupancy
  V  V0  1  0.25000000  0.10903994  0.09089660  1
  V  V1  1  0.75000000  0.60903994  0.40910340  1
  V  V2  1  0.25000000  0.39096006  0.59089660  1
  V  V3  1  0.75000000  0.89096006  0.90910340  1
  O  O0  1  0.75000000  0.00345495  0.06105729  1
  O  O1  1  0.25000000  0.48465381  0.09170750  1
  O  O2  1  0.75000000  0.98465381  0.40829250  1
  O  O3  1  0.25000000  0.50345495  0.43894271  1
  O  O4  1  0.75000000  0.49654505  0.56105729  1
  O  O5  1  0.25000000  0.01534619  0.59170750  1
  O  O6  1  0.75000000  0.51534619  0.90829250  1
  O  O7  1  0.25000000  0.99654505  0.93894271  1
  F  F0  1  0.25000000  0.00243085  0.22166833  1
  F  F1  1  0.75000000  0.50243085  0.27833167  1
  F  F2  1  0.25000000  0.49756915  0.72166833  1
  F  F3  1  0.75000000  0.99756915  0.77833167  1
loop_
_geom_bond_atom_site_label_1
_geom_bond_atom_site_label_2
_geom_bond_distance
_geom_bond_site_symmetry_2
O0 V0 1.878751 1_555
O0 V0 1.878751 1_655
O0 V3 2.008872 1_544
O1 V0 1.591932 1_555
O2 V1 1.591932 1_555
O3 V1 1.878751 1_555
O3 V1 1.878751 1_455
O3 V2 2.008872 1_555
O4 V2 1.878751 1_555
O4 V2 1.878751 1_655
O4 V1 2.008872 1_555
O5 V2 1.591932 1_555
O6 V3 1.591932 1_555
O7 V3 1.878751 1_455
O7 V3 1.878751 1_555
O7 V0 2.008872 1_566
F0 V0 1.739159 1_555
F1 V1 1.739159 1_555
F2 V2 1.739159 1_555
F3 V3 1.739159 1_555
