# generated using pymatgen
data_Li5Mn5Cr2O12
_symmetry_space_group_name_H-M   'P 1'
_cell_length_a   5.19236180
_cell_length_b   5.19236180
_cell_length_c   9.90663804
_cell_angle_alpha   85.90291257
_cell_angle_beta   85.90291257
_cell_angle_gamma   118.93262021
_symmetry_Int_Tables_number   1
_chemical_formula_structural   Li5Mn5Cr2O12
_chemical_formula_sum   'Li5 Mn5 Cr2 O12'
_cell_volume   231.43050286
_cell_formula_units_Z   1
loop_
 _symmetry_equiv_pos_site_id
 _symmetry_equiv_pos_as_xyz
  1  'x, y, z'
loop_
 _atom_site_type_symbol
 _atom_site_label
 _atom_site_symmetry_multiplicity
 _atom_site_fract_x
 _atom_site_fract_y
 _atom_site_fract_z
 _atom_site_occupancy
  Li  Li0  1  0.83811900  0.66621400  0.75720200  1
  Li  Li1  1  0.67733100  0.85165400  0.23912500  1
  Li  Li2  1  0.33378600  0.16188100  0.24279800  1
  Li  Li3  1  0.14834600  0.32266900  0.76087500  1
  Li  Li4  1  0.08274400  0.91725600  0.00000000  1
  Mn  Mn0  1  0.91906600  0.08093400  0.50000000  1
  Mn  Mn1  1  0.00393900  0.51199800  0.24284400  1
  Mn  Mn2  1  0.48800200  0.99606100  0.75715600  1
  Mn  Mn3  1  0.58212900  0.41787100  0.50000000  1
  Mn  Mn4  1  0.42019000  0.57981000  0.00000000  1
  Cr  Cr0  1  0.75148100  0.24851900  0.00000000  1
  Cr  Cr1  1  0.25050100  0.74949900  0.50000000  1
  O  O0  1  0.03092500  0.22446200  0.12598300  1
  O  O1  1  0.77553800  0.96907500  0.87401700  1
  O  O2  1  0.89533700  0.39849100  0.61687600  1
  O  O3  1  0.60150900  0.10466300  0.38312400  1
  O  O4  1  0.70298400  0.53044500  0.11968500  1
  O  O5  1  0.46955500  0.29701600  0.88031500  1
  O  O6  1  0.54560300  0.72758800  0.61861800  1
  O  O7  1  0.27241200  0.45439700  0.38138200  1
  O  O8  1  0.39836300  0.87717800  0.11179300  1
  O  O9  1  0.12282200  0.60163700  0.88820600  1
  O  O10  1  0.21962900  0.03031100  0.62553200  1
  O  O11  1  0.96968900  0.78037100  0.37446800  1
loop_
_geom_bond_atom_site_label_1
_geom_bond_atom_site_label_2
_geom_bond_distance
_geom_bond_site_symmetry_2
Li0 O2 2.137744 1_555
Li0 O5 2.146516 1_555
Li0 O1 2.149066 1_555
Li0 O9 2.161855 1_655
Li0 O10 2.203302 1_665
Li0 O6 2.235416 1_555
Li1 O8 2.032211 1_555
Li1 O0 2.081223 1_665
Li1 O3 2.145656 1_565
Li1 O4 2.161923 1_555
Li1 O11 2.236671 1_555
Li1 O7 2.371999 1_555
Li2 O3 2.137744 1_555
Li2 O4 2.146516 1_555
Li2 O0 2.149066 1_555
Li2 O8 2.161861 1_545
Li2 O11 2.203302 1_445
Li2 O7 2.235416 1_555
Li3 O9 2.032205 1_555
Li3 O1 2.081223 1_445
Li3 O2 2.145656 1_455
Li3 O5 2.161923 1_555
Li3 O10 2.236671 1_555
Li3 O6 2.371999 1_555
Li4 O8 2.124129 1_555
Li4 O9 2.124135 1_554
Li4 O5 2.195828 1_564
Li4 O4 2.195828 1_455
Li4 O0 2.196873 1_565
Li4 O1 2.196873 1_454
Mn0 O7 2.105059 1_655
Mn0 O6 2.105059 1_545
Mn0 O2 2.126865 1_555
Mn0 O3 2.126865 1_555
Mn0 O11 2.163038 1_545
Mn0 O10 2.163038 1_655
Mn1 O0 2.003781 1_555
Mn1 O11 2.034702 1_455
Mn1 O4 2.083336 1_455
Mn1 O7 2.129425 1_555
Mn1 O8 2.232967 1_555
Mn1 O3 2.379039 1_455
Mn2 O1 2.003781 1_555
Mn2 O10 2.034702 1_565
Mn2 O5 2.083336 1_565
Mn2 O6 2.129425 1_555
Mn2 O9 2.232962 1_555
Mn2 O2 2.379039 1_565
Mn3 O3 2.099123 1_555
Mn3 O2 2.099123 1_555
Mn3 O6 2.129864 1_555
Mn3 O7 2.129864 1_555
Mn3 O11 2.186773 1_555
Mn3 O10 2.186773 1_555
Mn4 O8 2.004790 1_555
Mn4 O9 2.004796 1_554
Mn4 O4 2.048695 1_555
Mn4 O5 2.048695 1_554
Mn4 O1 2.179325 1_554
Mn4 O0 2.179325 1_555
Cr0 O1 2.022489 1_544
Cr0 O0 2.022489 1_655
Cr0 O4 2.043072 1_555
Cr0 O5 2.043072 1_554
Cr0 O8 2.071267 1_545
Cr0 O9 2.071271 1_654
Cr1 O6 2.036798 1_555
Cr1 O7 2.036798 1_555
Cr1 O11 2.038380 1_455
Cr1 O10 2.038380 1_565
Cr1 O3 2.050490 1_565
Cr1 O2 2.050490 1_455
