# generated using pymatgen
data_LiVPO5
_symmetry_space_group_name_H-M   'P 1'
_cell_length_a   6.02912400
_cell_length_b   7.62078600
_cell_length_c   7.85604100
_cell_angle_alpha   90.00000000
_cell_angle_beta   90.00000000
_cell_angle_gamma   90.00000000
_symmetry_Int_Tables_number   1
_chemical_formula_structural   LiVPO5
_chemical_formula_sum   'Li4 V4 P4 O20'
_cell_volume   360.95887440
_cell_formula_units_Z   4
loop_
 _symmetry_equiv_pos_site_id
 _symmetry_equiv_pos_as_xyz
  1  'x, y, z'
loop_
 _atom_site_type_symbol
 _atom_site_label
 _atom_site_symmetry_multiplicity
 _atom_site_fract_x
 _atom_site_fract_y
 _atom_site_fract_z
 _atom_site_occupancy
  Li  Li0  1  0.25000000  0.13546600  0.66491800  1
  Li  Li1  1  0.75000000  0.36453400  0.16491800  1
  Li  Li2  1  0.25000000  0.63546600  0.83508200  1
  Li  Li3  1  0.75000000  0.86453400  0.33508200  1
  V  V0  1  0.00000000  0.00000000  0.00000000  1
  V  V1  1  0.50000000  0.00000000  0.00000000  1
  V  V2  1  0.00000000  0.50000000  0.50000000  1
  V  V3  1  0.50000000  0.50000000  0.50000000  1
  P  P0  1  0.75000000  0.13490200  0.66385200  1
  P  P1  1  0.25000000  0.36509800  0.16385200  1
  P  P2  1  0.75000000  0.63490200  0.83614800  1
  P  P3  1  0.25000000  0.86509800  0.33614800  1
  O  O0  1  0.25000000  0.00404400  0.46863600  1
  O  O1  1  0.75000000  0.11102100  0.08640500  1
  O  O2  1  0.95980500  0.13208400  0.78171500  1
  O  O3  1  0.54019500  0.13208400  0.78171500  1
  O  O4  1  0.25000000  0.17291600  0.07725200  1
  O  O5  1  0.75000000  0.32708400  0.57725200  1
  O  O6  1  0.04019500  0.36791600  0.28171500  1
  O  O7  1  0.45980500  0.36791600  0.28171500  1
  O  O8  1  0.25000000  0.38897900  0.58640500  1
  O  O9  1  0.75000000  0.49595600  0.96863600  1
  O  O10  1  0.25000000  0.50404400  0.03136400  1
  O  O11  1  0.75000000  0.61102100  0.41359500  1
  O  O12  1  0.54019500  0.63208400  0.71828500  1
  O  O13  1  0.95980500  0.63208400  0.71828500  1
  O  O14  1  0.25000000  0.67291600  0.42274800  1
  O  O15  1  0.75000000  0.82708400  0.92274800  1
  O  O16  1  0.04019500  0.86791600  0.21828500  1
  O  O17  1  0.45980500  0.86791600  0.21828500  1
  O  O18  1  0.25000000  0.88897900  0.91359500  1
  O  O19  1  0.75000000  0.99595600  0.53136400  1
loop_
_geom_bond_atom_site_label_1
_geom_bond_atom_site_label_2
_geom_bond_distance
_geom_bond_site_symmetry_2
Li0 O0 1.838707 1_555
Li0 O3 1.975794 1_555
Li0 O2 1.975794 1_455
Li0 O8 2.028040 1_555
Li1 O9 1.838707 1_554
Li1 O6 1.975794 1_655
Li1 O7 1.975794 1_555
Li1 O1 2.028040 1_555
Li2 O10 1.838707 1_556
Li2 O12 1.975794 1_555
Li2 O13 1.975794 1_455
Li2 O18 2.028040 1_555
Li3 O19 1.838707 1_555
Li3 O16 1.975794 1_655
Li3 O17 1.975794 1_555
Li3 O11 2.028040 1_555
O0 P3 1.484773 1_545
O1 V0 1.857013 1_655
O1 V1 1.857013 1_555
O2 P0 1.567767 1_555
O2 V0 2.003165 1_656
O3 P0 1.567767 1_555
O3 V1 2.003165 1_556
O4 P1 1.614881 1_555
O4 V1 2.092056 1_555
O4 V0 2.092056 1_555
O5 P0 1.614881 1_555
O5 V2 2.092056 1_655
O5 V3 2.092056 1_555
O6 P1 1.567767 1_555
O6 V2 2.003165 1_555
O7 P1 1.567767 1_555
O7 V3 2.003165 1_555
O8 V3 1.857013 1_555
O8 V2 1.857013 1_555
O9 P2 1.484773 1_555
O10 P1 1.484773 1_555
O11 V3 1.857013 1_555
O11 V2 1.857013 1_655
O12 P2 1.567767 1_555
O12 V3 2.003165 1_555
O13 P2 1.567767 1_555
O13 V2 2.003165 1_655
O14 P3 1.614881 1_555
O14 V2 2.092056 1_555
O14 V3 2.092056 1_555
O15 P2 1.614881 1_555
O15 V0 2.092056 1_666
O15 V1 2.092056 1_566
O16 P3 1.567767 1_555
O16 V0 2.003165 1_565
O17 P3 1.567767 1_555
O17 V1 2.003165 1_565
O18 V0 1.857013 1_566
O18 V1 1.857013 1_566
O19 P0 1.484773 1_565
