# generated using pymatgen
data_LiFe3P3(HO6)2
_symmetry_space_group_name_H-M   'P 1'
_cell_length_a   8.66479106
_cell_length_b   8.66479106
_cell_length_c   6.56650981
_cell_angle_alpha   73.68775206
_cell_angle_beta   73.68775206
_cell_angle_gamma   93.40586454
_symmetry_Int_Tables_number   1
_chemical_formula_structural   LiFe3P3(HO6)2
_chemical_formula_sum   'Li2 Fe6 P6 H4 O24'
_cell_volume   448.96414338
_cell_formula_units_Z   2
loop_
 _symmetry_equiv_pos_site_id
 _symmetry_equiv_pos_as_xyz
  1  'x, y, z'
loop_
 _atom_site_type_symbol
 _atom_site_label
 _atom_site_symmetry_multiplicity
 _atom_site_fract_x
 _atom_site_fract_y
 _atom_site_fract_z
 _atom_site_occupancy
  Li  Li0  1  0.00130100  0.99869900  0.75000000  1
  Li  Li1  1  0.99869900  0.00130100  0.25000000  1
  Fe  Fe0  1  0.95467400  0.62822200  0.62003200  1
  Fe  Fe1  1  0.62822200  0.95467400  0.12003200  1
  Fe  Fe2  1  0.28810700  0.71189300  0.75000000  1
  Fe  Fe3  1  0.71189300  0.28810700  0.25000000  1
  Fe  Fe4  1  0.37177800  0.04532600  0.87996800  1
  Fe  Fe5  1  0.04532600  0.37177800  0.37996800  1
  P  P0  1  0.68392800  0.90083700  0.60355100  1
  P  P1  1  0.90083700  0.68392800  0.10355100  1
  P  P2  1  0.67734600  0.32265400  0.75000000  1
  P  P3  1  0.32265400  0.67734600  0.25000000  1
  P  P4  1  0.09916300  0.31607200  0.89644900  1
  P  P5  1  0.31607200  0.09916300  0.39644900  1
  H  H0  1  0.62027000  0.62969700  0.68723200  1
  H  H1  1  0.62969700  0.62027000  0.18723200  1
  H  H2  1  0.37030300  0.37973000  0.81276800  1
  H  H3  1  0.37973000  0.37030300  0.31276800  1
  O  O0  1  0.85960900  0.86521300  0.57609400  1
  O  O1  1  0.61635800  0.96738600  0.79801600  1
  O  O2  1  0.86521300  0.85960900  0.07609400  1
  O  O3  1  0.96738600  0.61635800  0.29801600  1
  O  O4  1  0.56440200  0.73616400  0.65053500  1
  O  O5  1  0.32241000  0.98001900  0.61905800  1
  O  O6  1  0.71568400  0.50493900  0.73090000  1
  O  O7  1  0.73616400  0.56440200  0.15053500  1
  O  O8  1  0.71167900  0.21855400  0.96412400  1
  O  O9  1  0.98001900  0.32241000  0.11905800  1
  O  O10  1  0.78144600  0.28832100  0.53587600  1
  O  O11  1  0.50493900  0.71568400  0.23090000  1
  O  O12  1  0.49506100  0.28431600  0.76910000  1
  O  O13  1  0.21855400  0.71167900  0.46412400  1
  O  O14  1  0.01998100  0.67759000  0.88094200  1
  O  O15  1  0.28832100  0.78144600  0.03587600  1
  O  O16  1  0.26383600  0.43559800  0.84946500  1
  O  O17  1  0.28431600  0.49506100  0.26910000  1
  O  O18  1  0.67759000  0.01998100  0.38094200  1
  O  O19  1  0.43559800  0.26383600  0.34946500  1
  O  O20  1  0.03261400  0.38364200  0.70198400  1
  O  O21  1  0.13478700  0.14039100  0.92390600  1
  O  O22  1  0.38364200  0.03261400  0.20198400  1
  O  O23  1  0.14039100  0.13478700  0.42390600  1
loop_
_geom_bond_atom_site_label_1
_geom_bond_atom_site_label_2
_geom_bond_distance
_geom_bond_site_symmetry_2
Li0 O23 2.095514 1_565
Li0 O2 2.095514 1_456
Li0 O21 2.347336 1_565
Li0 O0 2.347336 1_455
Li1 O21 2.095514 1_654
Li1 O0 2.095514 1_545
Li1 O23 2.347336 1_655
Li1 O2 2.347336 1_545
Fe0 O14 2.089500 1_655
Fe0 O6 2.100655 1_555
Fe0 O3 2.118140 1_555
Fe0 O13 2.207190 1_655
Fe0 O20 2.229437 1_655
Fe0 O0 2.231634 1_555
Fe1 O18 2.089500 1_565
Fe1 O11 2.100655 1_555
Fe1 O1 2.118140 1_554
Fe1 O8 2.207190 1_564
Fe1 O22 2.229437 1_565
Fe1 O2 2.231634 1_555
Fe2 O13 2.127075 1_555
Fe2 O15 2.127075 1_556
Fe2 O5 2.208488 1_555
Fe2 O14 2.208488 1_555
Fe2 O4 2.277475 1_555
Fe2 O16 2.277475 1_555
Fe3 O8 2.127075 1_554
Fe3 O10 2.127075 1_555
Fe3 O18 2.208488 1_555
Fe3 O9 2.208488 1_555
Fe3 O7 2.277475 1_555
Fe3 O19 2.277475 1_555
Fe4 O5 2.089500 1_545
Fe4 O12 2.100655 1_555
Fe4 O22 2.118140 1_556
Fe4 O15 2.207190 1_546
Fe4 O1 2.229437 1_545
Fe4 O21 2.231634 1_555
Fe5 O9 2.089500 1_455
Fe5 O17 2.100655 1_555
Fe5 O20 2.118140 1_555
Fe5 O10 2.207190 1_455
Fe5 O3 2.229437 1_455
Fe5 O23 2.231634 1_555
H0 O4 1.066373 1_555
H0 O6 1.414045 1_555
H1 O7 1.066373 1_555
H1 O11 1.414045 1_555
H2 O16 1.066373 1_555
H2 O12 1.414045 1_555
H3 O19 1.066373 1_555
H3 O17 1.414045 1_555
O0 P0 1.542050 1_555
O1 P0 1.529600 1_555
O2 P1 1.542050 1_555
O3 P1 1.529600 1_555
O4 P0 1.612871 1_555
O5 P5 1.552307 1_565
O6 P2 1.556841 1_555
O7 P1 1.612871 1_555
O8 P2 1.559966 1_555
O9 P4 1.552307 1_654
O10 P2 1.559966 1_555
O11 P3 1.556841 1_555
O12 P2 1.556841 1_555
O13 P3 1.559966 1_555
O14 P1 1.552307 1_456
O15 P3 1.559966 1_555
O16 P4 1.612871 1_555
O17 P3 1.556841 1_555
O18 P0 1.552307 1_545
O19 P5 1.612871 1_555
O20 P4 1.529600 1_555
O21 P4 1.542050 1_555
O22 P5 1.529600 1_555
O23 P5 1.542050 1_555
