# generated using pymatgen
data_Na2Cr7O14
_symmetry_space_group_name_H-M   'P 1'
_cell_length_a   9.94833524
_cell_length_b   9.94833524
_cell_length_c   9.94833480
_cell_angle_alpha   33.62678936
_cell_angle_beta   33.62678936
_cell_angle_gamma   33.62678211
_symmetry_Int_Tables_number   1
_chemical_formula_structural   Na2Cr7O14
_chemical_formula_sum   'Na2 Cr7 O14'
_cell_volume   268.97985424
_cell_formula_units_Z   1
loop_
 _symmetry_equiv_pos_site_id
 _symmetry_equiv_pos_as_xyz
  1  'x, y, z'
loop_
 _atom_site_type_symbol
 _atom_site_label
 _atom_site_symmetry_multiplicity
 _atom_site_fract_x
 _atom_site_fract_y
 _atom_site_fract_z
 _atom_site_occupancy
  Na  Na0  1  0.30170700  0.30170700  0.30170700  1
  Na  Na1  1  0.69829300  0.69829300  0.69829300  1
  Cr  Cr0  1  0.50000000  0.00000000  0.00000000  1
  Cr  Cr1  1  0.06041200  0.06041200  0.06041200  1
  Cr  Cr2  1  0.00000000  0.00000000  0.50000000  1
  Cr  Cr3  1  0.00000000  0.50000000  0.00000000  1
  Cr  Cr4  1  0.57608600  0.57608600  0.57608600  1
  Cr  Cr5  1  0.42391400  0.42391400  0.42391400  1
  Cr  Cr6  1  0.93958800  0.93958800  0.93958800  1
  O  O0  1  0.12853600  0.12853600  0.12853600  1
  O  O1  1  0.63706000  0.11643100  0.63706000  1
  O  O2  1  0.88356900  0.36294000  0.36294000  1
  O  O3  1  0.77809900  0.29906000  0.77809900  1
  O  O4  1  0.70094000  0.22190100  0.22190100  1
  O  O5  1  0.22190100  0.22190100  0.70094000  1
  O  O6  1  0.36294000  0.36294000  0.88356900  1
  O  O7  1  0.63706000  0.63706000  0.11643100  1
  O  O8  1  0.77809900  0.77809900  0.29906000  1
  O  O9  1  0.29906000  0.77809900  0.77809900  1
  O  O10  1  0.22190100  0.70094000  0.22190100  1
  O  O11  1  0.11643100  0.63706000  0.63706000  1
  O  O12  1  0.36294000  0.88356900  0.36294000  1
  O  O13  1  0.87146400  0.87146400  0.87146400  1
loop_
_geom_bond_atom_site_label_1
_geom_bond_atom_site_label_2
_geom_bond_distance
_geom_bond_site_symmetry_2
Na0 O5 2.753604 1_555
Na0 O10 2.753605 1_555
Na0 O4 2.753605 1_555
Na0 O8 2.916181 1_545
Na0 O8 2.916181 1_455
Na0 O9 2.916182 1_554
Na0 O3 2.916182 1_554
Na0 O9 2.916182 1_545
Na0 O3 2.916182 1_455
Na1 O8 2.753604 1_555
Na1 O3 2.753605 1_555
Na1 O9 2.753605 1_555
Na1 O5 2.916181 1_565
Na1 O5 2.916181 1_655
Na1 O4 2.916182 1_556
Na1 O10 2.916182 1_556
Na1 O10 2.916182 1_655
Na1 O4 2.916182 1_565
Cr0 O6 1.924665 1_554
Cr0 O7 1.924665 1_545
Cr0 O12 1.924665 1_545
Cr0 O1 1.924665 1_554
Cr0 O0 1.977576 1_555
Cr0 O13 1.977576 1_544
Cr1 O4 1.764539 1_455
Cr1 O10 1.764539 1_545
Cr1 O5 1.764539 1_554
Cr1 O0 1.916400 1_555
Cr2 O12 1.924665 1_545
Cr2 O2 1.924665 1_455
Cr2 O11 1.924665 1_545
Cr2 O1 1.924665 1_455
Cr2 O0 1.977576 1_555
Cr2 O13 1.977576 1_445
Cr3 O6 1.924665 1_554
Cr3 O7 1.924665 1_455
Cr3 O2 1.924665 1_455
Cr3 O11 1.924665 1_554
Cr3 O0 1.977576 1_555
Cr3 O13 1.977576 1_454
Cr4 O3 1.987923 1_555
Cr4 O9 1.987923 1_555
Cr4 O8 1.987923 1_555
Cr4 O12 2.057629 1_555
Cr4 O2 2.057629 1_555
Cr4 O6 2.057630 1_555
Cr5 O4 1.987923 1_555
Cr5 O10 1.987923 1_555
Cr5 O5 1.987923 1_555
Cr5 O1 2.057629 1_555
Cr5 O11 2.057629 1_555
Cr5 O7 2.057630 1_555
Cr6 O3 1.764539 1_565
Cr6 O9 1.764539 1_655
Cr6 O8 1.764539 1_556
Cr6 O13 1.916400 1_555
