# generated using pymatgen
data_Li2VO3F
_symmetry_space_group_name_H-M   'P 1'
_cell_length_a   5.15012300
_cell_length_b   7.72886083
_cell_length_c   7.74323758
_cell_angle_alpha   98.40839601
_cell_angle_beta   102.65171530
_cell_angle_gamma   103.37869126
_symmetry_Int_Tables_number   1
_chemical_formula_structural   Li2VO3F
_chemical_formula_sum   'Li8 V4 O12 F4'
_cell_volume   286.20753756
_cell_formula_units_Z   4
loop_
 _symmetry_equiv_pos_site_id
 _symmetry_equiv_pos_as_xyz
  1  'x, y, z'
loop_
 _atom_site_type_symbol
 _atom_site_label
 _atom_site_symmetry_multiplicity
 _atom_site_fract_x
 _atom_site_fract_y
 _atom_site_fract_z
 _atom_site_occupancy
  Li  Li0  1  0.51372100  0.37112900  0.11835500  1
  Li  Li1  1  0.49413900  0.73167500  0.25916200  1
  Li  Li2  1  0.54259700  0.12167600  0.38379800  1
  Li  Li3  1  0.50200300  0.50357200  0.49700100  1
  Li  Li4  1  0.00447400  0.37259900  0.61467500  1
  Li  Li5  1  0.45267000  0.87312000  0.60732400  1
  Li  Li6  1  0.51028800  0.26413000  0.74977300  1
  Li  Li7  1  0.49631400  0.63091400  0.88185200  1
  V  V0  1  0.02631200  0.89504800  0.16528000  1
  V  V1  1  0.00094800  0.28219100  0.23035000  1
  V  V2  1  0.00099500  0.72154700  0.76027700  1
  V  V3  1  0.96491200  0.09594500  0.84284900  1
  O  O0  1  0.80110000  0.25132500  0.00526300  1
  O  O1  1  0.20799000  0.11536300  0.12009200  1
  O  O2  1  0.80276400  0.00118000  0.25007200  1
  O  O3  1  0.26441600  0.47289600  0.25144500  1
  O  O4  1  0.78093400  0.34777400  0.35194100  1
  O  O5  1  0.26135800  0.88025200  0.34853500  1
  O  O6  1  0.75162800  0.13323000  0.65478100  1
  O  O7  1  0.22653500  0.64236500  0.65628300  1
  O  O8  1  0.74832800  0.52145900  0.73972000  1
  O  O9  1  0.19277700  0.99532000  0.75329300  1
  O  O10  1  0.76857700  0.88576800  0.87287900  1
  O  O11  1  0.18339300  0.75698300  0.99141500  1
  F  F0  1  0.73156400  0.65811200  0.11862200  1
  F  F1  1  0.72332100  0.74709200  0.52460100  1
  F  F2  1  0.26683000  0.26580200  0.49215700  1
  F  F3  1  0.26305700  0.34815700  0.87133600  1
loop_
_geom_bond_atom_site_label_1
_geom_bond_atom_site_label_2
_geom_bond_distance
_geom_bond_site_symmetry_2
Li0 O3 2.034481 1_555
Li0 O4 2.077975 1_555
Li0 O0 2.186216 1_555
Li0 O1 2.227938 1_555
Li1 O5 2.000731 1_555
Li1 O3 2.059757 1_555
Li1 O2 2.330198 1_565
Li1 O11 2.389099 1_554
Li2 O4 1.971617 1_555
Li2 O5 2.020201 1_545
Li2 O6 2.116819 1_555
Li2 O2 2.153607 1_555
Li2 O1 2.352039 1_555
Li3 O3 1.970659 1_555
Li3 O8 1.989765 1_555
Li3 O7 2.401748 1_555
Li3 O4 2.426310 1_555
Li4 O4 2.063660 1_455
Li4 O7 2.073053 1_555
Li4 O6 2.108345 1_455
Li4 O8 2.222059 1_455
Li5 O7 2.027502 1_555
Li5 O5 2.044959 1_555
Li5 O6 2.156581 1_565
Li5 O9 2.212822 1_555
Li5 O10 2.299324 1_555
Li6 O6 1.968306 1_555
Li6 O8 2.103160 1_555
Li6 O0 2.234868 1_556
Li6 O9 2.335591 1_545
Li7 O7 2.007002 1_555
Li7 O8 2.114943 1_555
Li7 O10 2.157627 1_555
Li7 O11 2.313042 1_555
O0 V1 1.770009 1_655
O0 V3 2.056076 1_554
O1 V0 1.864866 1_545
O1 V1 2.059487 1_555
O1 V3 2.199974 1_454
O2 V0 1.743582 1_645
O2 V1 2.218474 1_655
O3 V1 1.716766 1_555
O4 V1 1.738051 1_655
O5 V0 1.688499 1_555
O6 V3 1.725920 1_555
O7 V2 1.722424 1_555
O8 V2 1.736710 1_655
O9 V3 1.756137 1_465
O9 V2 2.132003 1_555
O10 V3 1.780057 1_565
O10 V2 2.154193 1_655
O10 V0 2.342073 1_656
O11 V2 1.778138 1_555
O11 V0 2.015449 1_556
F0 Li7 1.915654 1_554
F0 Li1 1.930374 1_555
F0 V0 2.016961 1_655
F0 Li0 2.241541 1_555
F1 Li3 1.915765 1_555
F1 Li5 2.034440 1_555
F1 Li1 2.105335 1_555
F1 V2 2.123002 1_655
F2 Li3 1.943032 1_555
F2 Li4 2.062906 1_555
F2 Li6 2.114439 1_555
F2 V1 2.222643 1_555
F2 Li2 2.223216 1_555
F3 Li6 1.912565 1_555
F3 Li0 2.017317 1_556
F3 V3 2.132352 1_455
F3 Li4 2.196762 1_555
F3 Li7 2.217176 1_555
