# generated using pymatgen
data_VCo3O8
_symmetry_space_group_name_H-M   'P 1'
_cell_length_a   5.66818681
_cell_length_b   5.66818681
_cell_length_c   8.83513500
_cell_angle_alpha   90.00000000
_cell_angle_beta   90.00000000
_cell_angle_gamma   120.00000941
_symmetry_Int_Tables_number   1
_chemical_formula_structural   VCo3O8
_chemical_formula_sum   'V2 Co6 O16'
_cell_volume   245.82842011
_cell_formula_units_Z   2
loop_
 _symmetry_equiv_pos_site_id
 _symmetry_equiv_pos_as_xyz
  1  'x, y, z'
loop_
 _atom_site_type_symbol
 _atom_site_label
 _atom_site_symmetry_multiplicity
 _atom_site_fract_x
 _atom_site_fract_y
 _atom_site_fract_z
 _atom_site_occupancy
  V  V0  1  0.33333300  0.66666700  0.50186400  1
  V  V1  1  0.66666700  0.33333300  0.00186400  1
  Co  Co0  1  0.17046100  0.82953900  0.21695000  1
  Co  Co1  1  0.17046100  0.34092200  0.21695000  1
  Co  Co2  1  0.65907800  0.82953900  0.21695000  1
  Co  Co3  1  0.34092200  0.17046100  0.71695000  1
  Co  Co4  1  0.82953900  0.65907800  0.71695000  1
  Co  Co5  1  0.82953900  0.17046100  0.71695000  1
  O  O0  1  0.17366000  0.82634000  0.59756400  1
  O  O1  1  0.04008700  0.52004300  0.33540900  1
  O  O2  1  0.33333300  0.66666700  0.10611100  1
  O  O3  1  0.00000000  0.00000000  0.31105000  1
  O  O4  1  0.00000000  0.00000000  0.81105000  1
  O  O5  1  0.17366000  0.34732000  0.59756400  1
  O  O6  1  0.47995700  0.95991300  0.33540900  1
  O  O7  1  0.47995700  0.52004300  0.33540900  1
  O  O8  1  0.34732000  0.17366000  0.09756400  1
  O  O9  1  0.65268000  0.82634000  0.59756400  1
  O  O10  1  0.52004300  0.47995700  0.83540900  1
  O  O11  1  0.52004300  0.04008700  0.83540900  1
  O  O12  1  0.66666700  0.33333300  0.60611100  1
  O  O13  1  0.82634000  0.65268000  0.09756400  1
  O  O14  1  0.95991300  0.47995700  0.83540900  1
  O  O15  1  0.82634000  0.17366000  0.09756400  1
loop_
_geom_bond_atom_site_label_1
_geom_bond_atom_site_label_2
_geom_bond_distance
_geom_bond_site_symmetry_2
Co0 O6 1.850024 1_555
Co0 O1 1.850024 1_555
Co0 O3 1.868651 1_565
Co0 O2 1.875051 1_555
Co0 O13 1.991679 1_455
Co0 O8 1.991679 1_565
Co1 O1 1.850020 1_555
Co1 O7 1.850023 1_555
Co1 O3 1.868651 1_555
Co1 O2 1.875055 1_555
Co1 O15 1.991679 1_455
Co1 O8 1.991679 1_555
Co2 O6 1.850020 1_555
Co2 O7 1.850023 1_555
Co2 O3 1.868651 1_665
Co2 O2 1.875055 1_555
Co2 O15 1.991679 1_565
Co2 O13 1.991679 1_555
Co3 O11 1.850020 1_555
Co3 O10 1.850023 1_555
Co3 O4 1.868651 1_555
Co3 O12 1.875055 1_555
Co3 O0 1.991679 1_545
Co3 O5 1.991679 1_555
Co4 O14 1.850020 1_555
Co4 O10 1.850023 1_555
Co4 O4 1.868651 1_665
Co4 O12 1.875055 1_555
Co4 O0 1.991679 1_655
Co4 O9 1.991679 1_555
Co5 O14 1.850024 1_555
Co5 O11 1.850024 1_555
Co5 O4 1.868651 1_655
Co5 O12 1.875051 1_555
Co5 O9 1.991679 1_545
Co5 O5 1.991679 1_655
O0 V0 1.781092 1_555
O1 V0 2.057895 1_555
O5 V0 1.781096 1_555
O6 V0 2.057895 1_555
O7 V0 2.057902 1_555
O8 V1 1.781096 1_555
O9 V0 1.781096 1_555
O10 V1 2.057902 1_556
O11 V1 2.057895 1_556
O13 V1 1.781096 1_555
O14 V1 2.057895 1_556
O15 V1 1.781092 1_555
