# generated using pymatgen
data_Na2SnO3
_symmetry_space_group_name_H-M   'P 1'
_cell_length_a   5.53332790
_cell_length_b   5.53332790
_cell_length_c   11.00483303
_cell_angle_alpha   85.12889511
_cell_angle_beta   85.12889511
_cell_angle_gamma   120.03674729
_symmetry_Int_Tables_number   1
_chemical_formula_structural   Na2SnO3
_chemical_formula_sum   'Na8 Sn4 O12'
_cell_volume   287.45097003
_cell_formula_units_Z   4
loop_
 _symmetry_equiv_pos_site_id
 _symmetry_equiv_pos_as_xyz
  1  'x, y, z'
loop_
 _atom_site_type_symbol
 _atom_site_label
 _atom_site_symmetry_multiplicity
 _atom_site_fract_x
 _atom_site_fract_y
 _atom_site_fract_z
 _atom_site_occupancy
  Na  Na0  1  0.68369734  0.84150513  0.50011512  1
  Na  Na1  1  0.50000000  -0.00000000  -0.00000000  1
  Na  Na2  1  0.08409944  0.91590056  0.25000000  1
  Na  Na3  1  -0.00000000  0.50000000  0.50000000  1
  Na  Na4  1  0.84150513  0.68369734  0.00011512  1
  Na  Na5  1  0.15849487  0.31630266  0.99988488  1
  Na  Na6  1  0.91590056  0.08409944  0.75000000  1
  Na  Na7  1  0.31630266  0.15849487  0.49988488  1
  Sn  Sn0  1  0.41777712  0.58222288  0.25000000  1
  Sn  Sn1  1  0.24956099  0.75043901  0.75000000  1
  Sn  Sn2  1  0.75043901  0.24956099  0.25000000  1
  Sn  Sn3  1  0.58222288  0.41777712  0.75000000  1
  O  O0  1  0.75418190  0.95237073  0.14266729  1
  O  O1  1  0.41667828  0.87980251  0.35620857  1
  O  O2  1  0.12019749  0.58332172  0.14379143  1
  O  O3  1  0.51237659  0.68064619  0.85667576  1
  O  O4  1  0.95237073  0.75418190  0.64266729  1
  O  O5  1  0.31935381  0.48762341  0.64332424  1
  O  O6  1  0.68064619  0.51237659  0.35667576  1
  O  O7  1  0.04762927  0.24581810  0.35733271  1
  O  O8  1  0.48762341  0.31935381  0.14332424  1
  O  O9  1  0.87980251  0.41667828  0.85620857  1
  O  O10  1  0.58332172  0.12019749  0.64379143  1
  O  O11  1  0.24581810  0.04762927  0.85733271  1
loop_
_geom_bond_atom_site_label_1
_geom_bond_atom_site_label_2
_geom_bond_distance
_geom_bond_site_symmetry_2
Na0 O5 2.316617 1_555
Na0 O1 2.321586 1_555
Na0 O7 2.425837 1_665
Na0 O4 2.427163 1_555
Na0 O6 2.504132 1_555
Na0 O10 2.511757 1_565
Na1 O0 2.277816 1_545
Na1 O11 2.277816 1_554
Na1 O3 2.488210 1_544
Na1 O8 2.488210 1_555
Na1 O2 2.490239 1_545
Na1 O9 2.490239 1_554
Na2 O7 2.337314 1_565
Na2 O0 2.337314 1_455
Na2 O8 2.338169 1_565
Na2 O6 2.338169 1_455
Na2 O1 2.342268 1_555
Na2 O2 2.342268 1_555
Na3 O4 2.277816 1_455
Na3 O7 2.277816 1_555
Na3 O6 2.488210 1_455
Na3 O5 2.488210 1_555
Na3 O1 2.490239 1_555
Na3 O10 2.490239 1_455
Na4 O8 2.316617 1_555
Na4 O9 2.321586 1_554
Na4 O11 2.425837 1_664
Na4 O0 2.427163 1_555
Na4 O3 2.504132 1_554
Na4 O2 2.511757 1_655
Na5 O3 2.316617 1_555
Na5 O2 2.321586 1_556
Na5 O0 2.425837 1_446
Na5 O11 2.427163 1_555
Na5 O8 2.504132 1_556
Na5 O9 2.511757 1_455
Na6 O11 2.337314 1_655
Na6 O4 2.337314 1_545
Na6 O3 2.338169 1_545
Na6 O5 2.338169 1_655
Na6 O10 2.342268 1_555
Na6 O9 2.342268 1_555
Na7 O6 2.316617 1_555
Na7 O10 2.321586 1_555
Na7 O4 2.425837 1_445
Na7 O7 2.427163 1_555
Na7 O5 2.504132 1_555
Na7 O1 2.511757 1_545
O0 Sn0 2.110464 1_555
O0 Sn2 2.111787 1_565
O1 Sn2 2.099390 1_565
O1 Sn0 2.100743 1_555
O2 Sn2 2.099390 1_455
O2 Sn0 2.100743 1_555
O3 Sn1 2.101737 1_555
O3 Sn3 2.102126 1_555
O4 Sn3 2.110464 1_555
O4 Sn1 2.111787 1_655
O5 Sn1 2.101737 1_555
O5 Sn3 2.102126 1_555
O6 Sn2 2.101737 1_555
O6 Sn0 2.102126 1_555
O7 Sn0 2.110464 1_555
O7 Sn2 2.111787 1_455
O8 Sn2 2.101737 1_555
O8 Sn0 2.102126 1_555
O9 Sn1 2.099390 1_655
O9 Sn3 2.100743 1_555
O10 Sn1 2.099390 1_545
O10 Sn3 2.100743 1_555
O11 Sn3 2.110464 1_555
O11 Sn1 2.111787 1_545
