# generated using pymatgen
data_Na3AsH22S2O13
_symmetry_space_group_name_H-M   'P 1'
_cell_length_a   9.68695700
_cell_length_b   12.63445100
_cell_length_c   14.32670000
_cell_angle_alpha   90.00000000
_cell_angle_beta   90.00000000
_cell_angle_gamma   90.00000000
_symmetry_Int_Tables_number   1
_chemical_formula_structural   Na3AsH22S2O13
_chemical_formula_sum   'Na12 As4 H88 S8 O52'
_cell_volume   1753.43598139
_cell_formula_units_Z   4
loop_
 _symmetry_equiv_pos_site_id
 _symmetry_equiv_pos_as_xyz
  1  'x, y, z'
loop_
 _atom_site_type_symbol
 _atom_site_label
 _atom_site_symmetry_multiplicity
 _atom_site_fract_x
 _atom_site_fract_y
 _atom_site_fract_z
 _atom_site_occupancy
  Na  Na0  1  0.50454800  0.72932900  0.09554600  1
  Na  Na1  1  0.99545200  0.22932900  0.40445400  1
  Na  Na2  1  0.49545200  0.27067100  0.59554600  1
  Na  Na3  1  0.00454800  0.77067100  0.90445400  1
  Na  Na4  1  0.49545200  0.27067100  0.90445400  1
  Na  Na5  1  0.00454800  0.77067100  0.59554600  1
  Na  Na6  1  0.50454800  0.72932900  0.40445400  1
  Na  Na7  1  0.99545200  0.22932900  0.09554600  1
  Na  Na8  1  0.50000000  0.50000000  0.00000000  1
  Na  Na9  1  0.00000000  0.00000000  0.50000000  1
  Na  Na10  1  0.50000000  0.50000000  0.50000000  1
  Na  Na11  1  0.00000000  0.00000000  0.00000000  1
  As  As0  1  0.46280300  0.08781800  0.25000000  1
  As  As1  1  0.03719700  0.58781800  0.25000000  1
  As  As2  1  0.53719700  0.91218200  0.75000000  1
  As  As3  1  0.96280300  0.41218200  0.75000000  1
  H  H0  1  0.28515200  0.56288900  0.14408700  1
  H  H1  1  0.21484800  0.06288900  0.35591300  1
  H  H2  1  0.71484800  0.43711100  0.64408700  1
  H  H3  1  0.78515200  0.93711100  0.85591300  1
  H  H4  1  0.71484800  0.43711100  0.85591300  1
  H  H5  1  0.78515200  0.93711100  0.64408700  1
  H  H6  1  0.28515200  0.56288900  0.35591300  1
  H  H7  1  0.21484800  0.06288900  0.14408700  1
  H  H8  1  0.42636800  0.51718900  0.18040700  1
  H  H9  1  0.07363200  0.01718900  0.31959300  1
  H  H10  1  0.57363200  0.48281100  0.68040700  1
  H  H11  1  0.92636800  0.98281100  0.81959300  1
  H  H12  1  0.57363200  0.48281100  0.81959300  1
  H  H13  1  0.92636800  0.98281100  0.68040700  1
  H  H14  1  0.42636800  0.51718900  0.31959300  1
  H  H15  1  0.07363200  0.01718900  0.18040700  1
  H  H16  1  0.30927700  0.66858900  0.55006000  1
  H  H17  1  0.19072300  0.16858900  0.94994000  1
  H  H18  1  0.69072300  0.33141100  0.05006000  1
  H  H19  1  0.80927700  0.83141100  0.44994000  1
  H  H20  1  0.69072300  0.33141100  0.44994000  1
  H  H21  1  0.80927700  0.83141100  0.05006000  1
  H  H22  1  0.30927700  0.66858900  0.94994000  1
  H  H23  1  0.19072300  0.16858900  0.55006000  1
  H  H24  1  0.43829900  0.69776700  0.61454000  1
  H  H25  1  0.06170100  0.19776700  0.88546000  1
  H  H26  1  0.56170100  0.30223300  0.11454000  1
  H  H27  1  0.93829900  0.80223300  0.38546000  1
  H  H28  1  0.56170100  0.30223300  0.38546000  1
  H  H29  1  0.93829900  0.80223300  0.11454000  1
  H  H30  1  0.43829900  0.69776700  0.88546000  1
  H  H31  1  0.06170100  0.19776700  0.61454000  1
  H  H32  1  0.38253000  0.06336800  0.56385900  1
  H  H33  1  0.11747000  0.56336800  0.93614100  1
  H  H34  1  0.61747000  0.93663200  0.06385900  1
  H  H35  1  0.88253000  0.43663200  0.43614100  1
  H  H36  1  0.61747000  0.93663200  0.43614100  1
  H  H37  1  0.88253000  0.43663200  0.06385900  1
  H  H38  1  0.38253000  0.06336800  0.93614100  1
  H  H39  1  0.11747000  0.56336800  0.56385900  1
  H  H40  1  0.39032900  0.09806900  0.45828600  1
  H  H41  1  0.10967100  0.59806900  0.04171400  1
  H  H42  1  0.60967100  0.90193100  0.95828600  1
  H  H43  1  0.89032900  0.40193100  0.54171400  1
  H  H44  1  0.60967100  0.90193100  0.54171400  1
  H  H45  1  0.89032900  0.40193100  0.95828600  1
  H  H46  1  0.39032900  0.09806900  0.04171400  1
  H  H47  1  0.10967100  0.59806900  0.45828600  1
  H  H48  1  0.23485200  0.81260600  0.15918900  1
  H  H49  1  0.26514800  0.31260600  0.34081100  1
  H  H50  1  0.76514800  0.18739400  0.65918900  1
  H  H51  1  0.73485200  0.68739400  0.84081100  1
  H  H52  1  0.76514800  0.18739400  0.84081100  1
  H  H53  1  0.73485200  0.68739400  0.65918900  1
  H  H54  1  0.23485200  0.81260600  0.34081100  1
  H  H55  1  0.26514800  0.31260600  0.15918900  1
  H  H56  1  0.33695800  0.91084500  0.13990900  1
  H  H57  1  0.16304200  0.41084500  0.36009100  1
  H  H58  1  0.66304200  0.08915500  0.63990900  1
  H  H59  1  0.83695800  0.58915500  0.86009100  1
  H  H60  1  0.66304200  0.08915500  0.86009100  1
  H  H61  1  0.83695800  0.58915500  0.63990900  1
  H  H62  1  0.33695800  0.91084500  0.36009100  1
  H  H63  1  0.16304200  0.41084500  0.13990900  1
  H  H64  1  0.25867300  0.36765600  0.49342100  1
  H  H65  1  0.24132700  0.86765600  0.00657900  1
  H  H66  1  0.74132700  0.63234400  0.99342100  1
  H  H67  1  0.75867300  0.13234400  0.50657900  1
  H  H68  1  0.74132700  0.63234400  0.50657900  1
  H  H69  1  0.75867300  0.13234400  0.99342100  1
  H  H70  1  0.25867300  0.36765600  0.00657900  1
  H  H71  1  0.24132700  0.86765600  0.49342100  1
  H  H72  1  0.24800300  0.40887700  0.59969300  1
  H  H73  1  0.25199700  0.90887700  0.90030700  1
  H  H74  1  0.75199700  0.59112300  0.09969300  1
  H  H75  1  0.74800300  0.09112300  0.40030700  1
  H  H76  1  0.75199700  0.59112300  0.40030700  1
  H  H77  1  0.74800300  0.09112300  0.09969300  1
  H  H78  1  0.24800300  0.40887700  0.90030700  1
  H  H79  1  0.25199700  0.90887700  0.59969300  1
  H  H80  1  0.34370400  0.16890200  0.75000000  1
  H  H81  1  0.15629600  0.66890200  0.75000000  1
  H  H82  1  0.65629600  0.83109800  0.25000000  1
  H  H83  1  0.84370400  0.33109800  0.25000000  1
  H  H84  1  0.29292600  0.28803100  0.75000000  1
  H  H85  1  0.20707400  0.78803100  0.75000000  1
  H  H86  1  0.70707400  0.71196900  0.25000000  1
  H  H87  1  0.79292600  0.21196900  0.25000000  1
  S  S0  1  0.45808200  0.26138500  0.25000000  1
  S  S1  1  0.04191800  0.76138500  0.25000000  1
  S  S2  1  0.54191800  0.73861500  0.75000000  1
  S  S3  1  0.95808200  0.23861500  0.75000000  1
  S  S4  1  0.82587000  0.52757600  0.25000000  1
  S  S5  1  0.67413000  0.02757600  0.25000000  1
  S  S6  1  0.17413000  0.47242400  0.75000000  1
  S  S7  1  0.32587000  0.97242400  0.75000000  1
  O  O0  1  0.37810100  0.04005200  0.15184400  1
  O  O1  1  0.12189900  0.54005200  0.34815600  1
  O  O2  1  0.62189900  0.95994800  0.65184400  1
  O  O3  1  0.87810100  0.45994800  0.84815600  1
  O  O4  1  0.62189900  0.95994800  0.84815600  1
  O  O5  1  0.87810100  0.45994800  0.65184400  1
  O  O6  1  0.37810100  0.04005200  0.34815600  1
  O  O7  1  0.12189900  0.54005200  0.15184400  1
  O  O8  1  0.38953500  0.56652800  0.13497700  1
  O  O9  1  0.11046500  0.06652800  0.36502300  1
  O  O10  1  0.61046500  0.43347200  0.63497700  1
  O  O11  1  0.88953500  0.93347200  0.86502300  1
  O  O12  1  0.61046500  0.43347200  0.86502300  1
  O  O13  1  0.88953500  0.93347200  0.63497700  1
  O  O14  1  0.38953500  0.56652800  0.36502300  1
  O  O15  1  0.11046500  0.06652800  0.13497700  1
  O  O16  1  0.41098000  0.66765700  0.55366300  1
  O  O17  1  0.08902000  0.16765700  0.94633700  1
  O  O18  1  0.58902000  0.33234300  0.05366300  1
  O  O19  1  0.91098000  0.83234300  0.44633700  1
  O  O20  1  0.58902000  0.33234300  0.44633700  1
  O  O21  1  0.91098000  0.83234300  0.05366300  1
  O  O22  1  0.41098000  0.66765700  0.94633700  1
  O  O23  1  0.08902000  0.16765700  0.55366300  1
  O  O24  1  0.37868200  0.12553500  0.52362800  1
  O  O25  1  0.12131800  0.62553500  0.97637200  1
  O  O26  1  0.62131800  0.87446500  0.02362800  1
  O  O27  1  0.87868200  0.37446500  0.47637200  1
  O  O28  1  0.62131800  0.87446500  0.47637200  1
  O  O29  1  0.87868200  0.37446500  0.02362800  1
  O  O30  1  0.37868200  0.12553500  0.97637200  1
  O  O31  1  0.12131800  0.62553500  0.52362800  1
  O  O32  1  0.30879200  0.83840900  0.11766400  1
  O  O33  1  0.19120800  0.33840900  0.38233600  1
  O  O34  1  0.69120800  0.16159100  0.61766400  1
  O  O35  1  0.80879200  0.66159100  0.88233600  1
  O  O36  1  0.69120800  0.16159100  0.88233600  1
  O  O37  1  0.80879200  0.66159100  0.61766400  1
  O  O38  1  0.30879200  0.83840900  0.38233600  1
  O  O39  1  0.19120800  0.33840900  0.11766400  1
  O  O40  1  0.31237200  0.38848500  0.54980300  1
  O  O41  1  0.18762800  0.88848500  0.95019700  1
  O  O42  1  0.68762800  0.61151500  0.04980300  1
  O  O43  1  0.81237200  0.11151500  0.45019700  1
  O  O44  1  0.68762800  0.61151500  0.45019700  1
  O  O45  1  0.81237200  0.11151500  0.04980300  1
  O  O46  1  0.31237200  0.38848500  0.95019700  1
  O  O47  1  0.18762800  0.88848500  0.54980300  1
  O  O48  1  0.62414600  0.75705500  0.25000000  1
  O  O49  1  0.87585400  0.25705500  0.25000000  1
  O  O50  1  0.37585400  0.24294500  0.75000000  1
  O  O51  1  0.12414600  0.74294500  0.75000000  1
loop_
_geom_bond_atom_site_label_1
_geom_bond_atom_site_label_2
_geom_bond_distance
_geom_bond_site_symmetry_2
Na0 O32 2.365509 1_555
Na0 O26 2.388224 1_555
Na0 O42 2.406328 1_555
Na0 O8 2.406502 1_555
Na0 O22 2.449148 1_554
Na0 O48 2.522198 1_555
Na1 O33 2.365509 1_655
Na1 O27 2.388224 1_555
Na1 O43 2.406328 1_555
Na1 O9 2.406502 1_655
Na1 O23 2.449148 1_655
Na1 O49 2.522198 1_555
Na2 O34 2.365509 1_555
Na2 O24 2.388224 1_555
Na2 O40 2.406328 1_555
Na2 O10 2.406502 1_555
Na2 O20 2.449148 1_555
Na2 O50 2.522198 1_555
Na3 O35 2.365509 1_455
Na3 O25 2.388224 1_555
Na3 O41 2.406328 1_555
Na3 O11 2.406502 1_455
Na3 O21 2.449148 1_456
Na3 O51 2.522198 1_555
Na4 O36 2.365509 1_555
Na4 O30 2.388224 1_555
Na4 O46 2.406328 1_555
Na4 O12 2.406502 1_555
Na4 O18 2.449148 1_556
Na4 O50 2.522198 1_555
Na5 O37 2.365509 1_455
Na5 O31 2.388224 1_555
Na5 O47 2.406328 1_555
Na5 O13 2.406502 1_455
Na5 O19 2.449148 1_455
Na5 O51 2.522198 1_555
Na6 O38 2.365509 1_555
Na6 O28 2.388224 1_555
Na6 O44 2.406328 1_555
Na6 O14 2.406502 1_555
Na6 O16 2.449148 1_555
Na6 O48 2.522198 1_555
Na7 O39 2.365509 1_655
Na7 O29 2.388224 1_555
Na7 O45 2.406328 1_555
Na7 O15 2.406502 1_655
Na7 O17 2.449148 1_654
Na7 O49 2.522198 1_555
Na8 O8 2.364540 1_555
Na8 O12 2.364540 1_554
Na8 O46 2.407832 1_554
Na8 O42 2.407832 1_555
Na8 O22 2.412819 1_554
Na8 O18 2.412819 1_555
Na9 O13 2.364540 1_445
Na9 O9 2.364540 1_555
Na9 O43 2.407832 1_455
Na9 O47 2.407832 1_545
Na9 O19 2.412819 1_445
Na9 O23 2.412819 1_555
Na10 O10 2.364540 1_555
Na10 O14 2.364540 1_555
Na10 O40 2.407832 1_555
Na10 O44 2.407832 1_555
Na10 O16 2.412819 1_555
Na10 O20 2.412819 1_555
Na11 O11 2.364540 1_444
Na11 O15 2.364540 1_555
Na11 O45 2.407832 1_455
Na11 O41 2.407832 1_544
Na11 O21 2.412819 1_445
Na11 O17 2.412819 1_554
As0 O0 1.736370 1_555
As0 O6 1.736370 1_555
As0 S5 2.184031 1_555
As0 S0 2.193401 1_555
As1 O7 1.736370 1_555
As1 O1 1.736370 1_555
As1 S4 2.184031 1_455
As1 S1 2.193401 1_555
As2 O2 1.736370 1_555
As2 O4 1.736370 1_555
As2 S7 2.184031 1_555
As2 S2 2.193401 1_555
As3 O3 1.736370 1_555
As3 O5 1.736370 1_555
As3 S6 2.184031 1_655
As3 S3 2.193401 1_555
H0 O8 1.020578 1_555
H0 O7 1.611368 1_555
H1 O9 1.020578 1_555
H1 O6 1.611368 1_555
H2 O10 1.020578 1_555
H2 O5 1.611368 1_555
H3 O11 1.020578 1_555
H3 O4 1.611368 1_555
H4 O12 1.020578 1_555
H4 O3 1.611368 1_555
H5 O13 1.020578 1_555
H5 O2 1.611368 1_555
H6 O14 1.020578 1_555
H6 O1 1.611368 1_555
H7 O15 1.020578 1_555
H7 O0 1.611368 1_555
H8 O8 0.969288 1_555
H9 O9 0.969288 1_555
H10 O10 0.969288 1_555
H11 O11 0.969288 1_555
H12 O12 0.969288 1_555
H13 O13 0.969288 1_555
H14 O14 0.969288 1_555
H15 O15 0.969288 1_555
H16 O16 0.986614 1_555
H17 O17 0.986614 1_555
H18 O18 0.986614 1_555
H19 O19 0.986614 1_555
H20 O20 0.986614 1_555
H21 O21 0.986614 1_555
H22 O22 0.986614 1_555
H23 O23 0.986614 1_555
H24 O16 0.987638 1_555
H25 O17 0.987638 1_555
H26 O18 0.987638 1_555
H27 O19 0.987638 1_555
H28 O20 0.987638 1_555
H29 O21 0.987638 1_555
H30 O22 0.987638 1_555
H31 O23 0.987638 1_555
H32 O24 0.974949 1_555
H33 O25 0.974949 1_555
H34 O26 0.974949 1_555
H35 O27 0.974949 1_555
H36 O28 0.974949 1_555
H37 O29 0.974949 1_555
H38 O30 0.974949 1_555
H39 O31 0.974949 1_555
H40 O24 1.004739 1_555
H40 O6 1.743786 1_555
H41 O25 1.004739 1_554
H41 O7 1.743786 1_555
H42 O26 1.004739 1_556
H42 O4 1.743786 1_555
H43 O27 1.004739 1_555
H43 O5 1.743786 1_555
H44 O28 1.004739 1_555
H44 O2 1.743786 1_555
H45 O29 1.004739 1_556
H45 O3 1.743786 1_555
H46 O30 1.004739 1_554
H46 O0 1.743786 1_555
H47 O31 1.004739 1_555
H47 O1 1.743786 1_555
H48 O32 0.986522 1_555
H49 O33 0.986522 1_555
H50 O34 0.986522 1_555
H51 O35 0.986522 1_555
H52 O36 0.986522 1_555
H53 O37 0.986522 1_555
H54 O38 0.986522 1_555
H55 O39 0.986522 1_555
H56 O32 1.006768 1_555
H56 O0 1.689084 1_565
H57 O33 1.006768 1_555
H57 O1 1.689084 1_555
H58 O34 1.006768 1_555
H58 O2 1.689084 1_545
H59 O35 1.006768 1_555
H59 O3 1.689084 1_555
H60 O36 1.006768 1_555
H60 O4 1.689084 1_545
H61 O37 1.006768 1_555
H61 O5 1.689084 1_555
H62 O38 1.006768 1_555
H62 O6 1.689084 1_565
H63 O39 1.006768 1_555
H63 O7 1.689084 1_555
H64 O40 0.996158 1_555
H65 O41 0.996158 1_554
H66 O42 0.996158 1_556
H67 O43 0.996158 1_555
H68 O44 0.996158 1_555
H69 O45 0.996158 1_556
H70 O46 0.996158 1_554
H71 O47 0.996158 1_555
H72 O40 0.982884 1_555
H73 O41 0.982884 1_555
H74 O42 0.982884 1_555
H75 O43 0.982884 1_555
H76 O44 0.982884 1_555
H77 O45 0.982884 1_555
H78 O46 0.982884 1_555
H79 O47 0.982884 1_555
H80 O50 0.985971 1_555
H81 O51 0.985971 1_555
H82 O48 0.985971 1_555
H83 O49 0.985971 1_555
H84 O50 0.984789 1_555
H85 O51 0.984789 1_555
H86 O48 0.984789 1_555
H87 O49 0.984789 1_555
