# generated using pymatgen
data_Li8Mn2O9
_symmetry_space_group_name_H-M   'P 1'
_cell_length_a   5.74174400
_cell_length_b   8.66739497
_cell_length_c   14.88346891
_cell_angle_alpha   87.13214779
_cell_angle_beta   100.80204979
_cell_angle_gamma   108.98378925
_symmetry_Int_Tables_number   1
_chemical_formula_structural   Li8Mn2O9
_chemical_formula_sum   'Li32 Mn8 O36'
_cell_volume   687.94605329
_cell_formula_units_Z   4
loop_
 _symmetry_equiv_pos_site_id
 _symmetry_equiv_pos_as_xyz
  1  'x, y, z'
loop_
 _atom_site_type_symbol
 _atom_site_label
 _atom_site_symmetry_multiplicity
 _atom_site_fract_x
 _atom_site_fract_y
 _atom_site_fract_z
 _atom_site_occupancy
  Li  Li0  1  0.90259200  0.12212000  0.96879300  1
  Li  Li1  1  0.17163100  0.62289300  0.95105400  1
  Li  Li2  1  0.67164700  0.62824400  0.95952400  1
  Li  Li3  1  0.43660400  0.12670400  0.95971700  1
  Li  Li4  1  0.25814600  0.40805800  0.84696400  1
  Li  Li5  1  0.97463900  0.84585100  0.84830300  1
  Li  Li6  1  0.59234300  0.62584800  0.75895000  1
  Li  Li7  1  0.05135200  0.62557600  0.75640700  1
  Li  Li8  1  0.79190000  0.12330500  0.74132600  1
  Li  Li9  1  0.32988600  0.12263900  0.74107800  1
  Li  Li10  1  0.12611800  0.34188400  0.65616700  1
  Li  Li11  1  0.40286300  0.90326800  0.64783800  1
  Li  Li12  1  0.48286600  0.62881200  0.54147700  1
  Li  Li13  1  0.71256500  0.12752700  0.54216400  1
  Li  Li14  1  0.93595100  0.62278800  0.52974700  1
  Li  Li15  1  0.79155800  0.87795900  0.45296100  1
  Li  Li16  1  0.20844200  0.12204100  0.54703900  1
  Li  Li17  1  0.06404900  0.37721200  0.47025300  1
  Li  Li18  1  0.28743500  0.87247300  0.45783600  1
  Li  Li19  1  0.51713400  0.37118800  0.45852300  1
  Li  Li20  1  0.59713700  0.09673200  0.35216200  1
  Li  Li21  1  0.87388200  0.65811600  0.34383300  1
  Li  Li22  1  0.67011400  0.87736100  0.25892200  1
  Li  Li23  1  0.20810000  0.87669500  0.25867400  1
  Li  Li24  1  0.94864800  0.37442400  0.24359300  1
  Li  Li25  1  0.40765700  0.37415200  0.24105000  1
  Li  Li26  1  0.02536100  0.15414900  0.15169700  1
  Li  Li27  1  0.74185400  0.59194200  0.15303600  1
  Li  Li28  1  0.56339600  0.87329600  0.04028300  1
  Li  Li29  1  0.32835300  0.37175600  0.04047600  1
  Li  Li30  1  0.82836900  0.37710700  0.04894600  1
  Li  Li31  1  0.09740800  0.87788000  0.03120700  1
  Mn  Mn0  1  0.49619000  0.87861000  0.84867700  1
  Mn  Mn1  1  0.74087800  0.37001400  0.85551000  1
  Mn  Mn2  1  0.89020900  0.87162400  0.64897900  1
  Mn  Mn3  1  0.64426300  0.37970100  0.64750500  1
  Mn  Mn4  1  0.35573700  0.62029900  0.35249500  1
  Mn  Mn5  1  0.10979100  0.12837600  0.35102100  1
  Mn  Mn6  1  0.25912200  0.62998600  0.14449000  1
  Mn  Mn7  1  0.50381000  0.12139000  0.15132300  1
  O  O0  1  0.77455500  0.88334900  0.93942000  1
  O  O1  1  0.29836800  0.88377600  0.93442400  1
  O  O2  1  0.01923700  0.35879700  0.93828200  1
  O  O3  1  0.53819900  0.36660200  0.93977100  1
  O  O4  1  0.37714900  0.64895500  0.84504200  1
  O  O5  1  0.85776100  0.59889000  0.85814100  1
  O  O6  1  0.60962200  0.12228400  0.84597400  1
  O  O7  1  0.69355700  0.87576900  0.74993100  1
  O  O8  1  0.19207900  0.87312900  0.74750600  1
  O  O9  1  0.92176000  0.37449200  0.75025200  1
  O  O10  1  0.46410400  0.37405300  0.75168600  1
  O  O11  1  0.00771700  0.10051500  0.65410400  1
  O  O12  1  0.76846300  0.62734500  0.65418200  1
  O  O13  1  0.52623000  0.15086100  0.64217600  1
  O  O14  1  0.60747400  0.86908000  0.56178500  1
  O  O15  1  0.35981300  0.38942500  0.56603300  1
  O  O16  1  0.07497100  0.86292100  0.55969500  1
  O  O17  1  0.84049400  0.38599200  0.55969300  1
  O  O18  1  0.15950600  0.61400800  0.44030700  1
  O  O19  1  0.92502900  0.13707900  0.44030500  1
  O  O20  1  0.64018700  0.61057500  0.43396700  1
  O  O21  1  0.39252600  0.13092000  0.43821500  1
  O  O22  1  0.47377000  0.84913900  0.35782400  1
  O  O23  1  0.23153700  0.37265500  0.34581800  1
  O  O24  1  0.99228300  0.89948500  0.34589600  1
  O  O25  1  0.53589600  0.62594700  0.24831400  1
  O  O26  1  0.07824000  0.62550800  0.24974800  1
  O  O27  1  0.80792100  0.12687100  0.25249400  1
  O  O28  1  0.30644300  0.12423100  0.25006900  1
  O  O29  1  0.39037800  0.87771600  0.15402600  1
  O  O30  1  0.14223900  0.40111000  0.14185900  1
  O  O31  1  0.62285100  0.35104500  0.15495800  1
  O  O32  1  0.46180100  0.63339800  0.06022900  1
  O  O33  1  0.98076300  0.64120300  0.06171800  1
  O  O34  1  0.70163200  0.11622400  0.06557600  1
  O  O35  1  0.22544500  0.11665100  0.06058000  1
loop_
_geom_bond_atom_site_label_1
_geom_bond_atom_site_label_2
_geom_bond_distance
_geom_bond_site_symmetry_2
Li0 O34 1.996555 1_556
Li0 O2 1.997456 1_655
Li0 O0 1.998680 1_545
Li0 O35 2.099121 1_656
Li0 O6 2.240502 1_555
Li1 O5 2.013482 1_455
Li1 O32 2.079851 1_556
Li1 O4 2.102819 1_555
Li1 O1 2.155156 1_555
Li1 O2 2.172441 1_555
Li1 O33 2.180581 1_456
Li2 O5 2.074430 1_555
Li2 O33 2.086076 1_556
Li2 O32 2.102117 1_556
Li2 O0 2.116053 1_555
Li2 O3 2.160562 1_555
Li2 O4 2.209443 1_555
Li3 O3 1.991450 1_555
Li3 O34 1.995789 1_556
Li3 O1 2.021157 1_545
Li3 O35 2.081234 1_556
Li3 O6 2.125057 1_555
Li4 O4 1.974940 1_555
Li4 O3 2.028893 1_555
Li4 O2 2.042292 1_555
Li4 O10 2.096040 1_555
Li4 O9 2.126322 1_455
Li5 O1 1.989378 1_655
Li5 O5 2.030881 1_555
Li5 O0 2.033607 1_555
Li5 O7 2.040621 1_555
Li5 O8 2.083210 1_655
Li6 O5 1.977467 1_555
Li6 O4 1.997189 1_555
Li6 O12 2.008658 1_555
Li6 O7 2.056489 1_555
Li6 O10 2.065198 1_555
Li7 O5 2.002563 1_455
Li7 O12 2.010201 1_455
Li7 O4 2.033663 1_555
Li7 O8 2.039102 1_555
Li7 O9 2.058875 1_455
Li8 O13 1.979797 1_555
Li8 O11 2.011881 1_655
Li8 O6 2.030992 1_555
Li8 O7 2.037107 1_545
Li8 O9 2.061360 1_555
Li9 O13 1.975892 1_555
Li9 O11 2.007673 1_555
Li9 O6 2.019903 1_555
Li9 O8 2.050967 1_545
Li9 O10 2.064842 1_555
Li10 O11 1.978141 1_555
Li10 O15 2.007384 1_555
Li10 O9 2.070939 1_455
Li10 O17 2.089911 1_455
Li10 O10 2.125650 1_555
Li11 O14 1.984150 1_555
Li11 O16 2.019790 1_555
Li11 O13 2.032095 1_565
Li11 O8 2.040088 1_555
Li11 O7 2.103208 1_555
Li12 O14 1.988116 1_555
Li12 O15 2.001242 1_555
Li12 O20 2.015267 1_555
Li12 O12 2.117397 1_555
Li12 O18 2.132454 1_555
Li13 O13 2.041841 1_555
Li13 O19 2.099594 1_555
Li13 O17 2.131258 1_555
Li13 O14 2.142068 1_545
Li13 O21 2.176265 1_555
Li13 O11 2.205290 1_655
Li14 O20 1.979390 1_555
Li14 O17 1.994889 1_555
Li14 O16 2.011552 1_655
Li14 O18 2.034602 1_655
Li14 O12 2.248554 1_555
Li15 O22 2.041361 1_555
Li15 O14 2.079123 1_555
Li15 O16 2.082526 1_655
Li15 O24 2.102635 1_555
Li15 O19 2.135139 1_565
Li15 O20 2.206631 1_555
Li16 O13 2.041361 1_555
Li16 O21 2.079123 1_555
Li16 O19 2.082526 1_455
Li16 O11 2.102635 1_555
Li16 O16 2.135139 1_545
Li16 O15 2.206631 1_555
Li17 O15 1.979390 1_555
Li17 O18 1.994889 1_555
Li17 O19 2.011552 1_455
Li17 O17 2.034602 1_455
Li17 O23 2.248554 1_555
Li18 O22 2.041841 1_555
Li18 O16 2.099594 1_555
Li18 O18 2.131258 1_555
Li18 O21 2.142068 1_565
Li18 O14 2.176265 1_555
Li18 O24 2.205290 1_455
Li19 O21 1.988116 1_555
Li19 O20 2.001242 1_555
Li19 O15 2.015267 1_555
Li19 O23 2.117397 1_555
Li19 O17 2.132454 1_555
Li20 O21 1.984150 1_555
Li20 O19 2.019790 1_555
Li20 O22 2.032095 1_545
Li20 O27 2.040088 1_555
Li20 O28 2.103208 1_555
Li21 O24 1.978141 1_555
Li21 O20 2.007384 1_555
Li21 O26 2.070939 1_655
Li21 O18 2.089911 1_655
Li21 O25 2.125650 1_555
Li22 O22 1.975892 1_555
Li22 O24 2.007673 1_555
Li22 O29 2.019903 1_555
Li22 O27 2.050967 1_565
Li22 O25 2.064842 1_555
Li23 O22 1.979797 1_555
Li23 O24 2.011881 1_455
Li23 O29 2.030992 1_555
Li23 O28 2.037107 1_565
Li23 O26 2.061360 1_555
Li24 O30 2.002563 1_655
Li24 O23 2.010201 1_655
Li24 O31 2.033663 1_555
Li24 O27 2.039102 1_555
Li24 O26 2.058875 1_655
Li25 O30 1.977467 1_555
Li25 O31 1.997189 1_555
Li25 O23 2.008658 1_555
Li25 O28 2.056489 1_555
Li25 O25 2.065198 1_555
Li26 O34 1.989378 1_455
Li26 O30 2.030881 1_555
Li26 O35 2.033607 1_555
Li26 O28 2.040621 1_555
Li26 O27 2.083210 1_455
Li27 O31 1.974940 1_555
Li27 O32 2.028893 1_555
Li27 O33 2.042292 1_555
Li27 O25 2.096040 1_555
Li27 O26 2.126322 1_655
Li28 O32 1.991450 1_555
Li28 O1 1.995789 1_554
Li28 O34 2.021157 1_565
Li28 O0 2.081234 1_554
Li28 O29 2.125057 1_555
Li29 O30 2.074430 1_555
Li29 O2 2.086076 1_554
Li29 O3 2.102117 1_554
Li29 O35 2.116053 1_555
Li29 O32 2.160562 1_555
Li29 O31 2.209443 1_555
Li30 O30 2.013482 1_655
Li30 O3 2.079851 1_554
Li30 O31 2.102819 1_555
Li30 O34 2.155156 1_555
Li30 O33 2.172441 1_555
Li30 O2 2.180581 1_654
Li31 O1 1.996555 1_554
Li31 O33 1.997456 1_455
Li31 O35 1.998680 1_565
Li31 O0 2.099121 1_454
Li31 O29 2.240502 1_555
Mn0 O1 1.871636 1_555
Mn0 O0 1.879897 1_555
Mn0 O4 1.882550 1_555
Mn0 O6 1.998202 1_565
Mn0 O7 2.022583 1_555
Mn0 O8 2.070321 1_555
Mn1 O2 1.852741 1_655
Mn1 O3 1.857106 1_555
Mn1 O5 1.875896 1_555
Mn1 O10 2.006195 1_555
Mn1 O9 2.027796 1_555
Mn1 O6 2.033734 1_555
Mn2 O16 1.867476 1_655
Mn2 O14 1.873482 1_555
Mn2 O11 1.876661 1_665
Mn2 O12 2.004599 1_555
Mn2 O8 2.046767 1_655
Mn2 O7 2.049751 1_555
Mn3 O15 1.865994 1_555
Mn3 O17 1.866926 1_555
Mn3 O13 1.876352 1_555
Mn3 O9 2.001459 1_555
Mn3 O10 2.009326 1_555
Mn3 O12 2.030887 1_555
Mn4 O20 1.865994 1_555
Mn4 O18 1.866926 1_555
Mn4 O22 1.876352 1_555
Mn4 O26 2.001459 1_555
Mn4 O25 2.009326 1_555
Mn4 O23 2.030887 1_555
Mn5 O19 1.867476 1_455
Mn5 O21 1.873482 1_555
Mn5 O24 1.876661 1_445
Mn5 O23 2.004599 1_555
Mn5 O27 2.046767 1_455
Mn5 O28 2.049751 1_555
Mn6 O33 1.852741 1_455
Mn6 O32 1.857106 1_555
Mn6 O30 1.875896 1_555
Mn6 O25 2.006195 1_555
Mn6 O26 2.027796 1_555
Mn6 O29 2.033734 1_555
Mn7 O34 1.871636 1_555
Mn7 O35 1.879897 1_555
Mn7 O31 1.882550 1_555
Mn7 O29 1.998202 1_545
Mn7 O28 2.022583 1_555
Mn7 O27 2.070321 1_555
