# generated using pymatgen
data_MnSbO4
_symmetry_space_group_name_H-M   'P 1'
_cell_length_a   4.03074026
_cell_length_b   9.61769151
_cell_length_c   8.11981023
_cell_angle_alpha   90.00038105
_cell_angle_beta   90.00005593
_cell_angle_gamma   89.99999994
_symmetry_Int_Tables_number   1
_chemical_formula_structural   MnSbO4
_chemical_formula_sum   'Mn4 Sb4 O16'
_cell_volume   314.77594472
_cell_formula_units_Z   4
loop_
 _symmetry_equiv_pos_site_id
 _symmetry_equiv_pos_as_xyz
  1  'x, y, z'
loop_
 _atom_site_type_symbol
 _atom_site_label
 _atom_site_symmetry_multiplicity
 _atom_site_fract_x
 _atom_site_fract_y
 _atom_site_fract_z
 _atom_site_occupancy
  Mn  Mn0  1  0.00000000  0.99876900  0.50007000  1
  Mn  Mn1  1  0.50000100  0.49877200  0.24992900  1
  Mn  Mn2  1  0.49999800  0.49877000  0.74991700  1
  Mn  Mn3  1  0.00000100  0.99876700  0.00008400  1
  Sb  Sb0  1  0.00000000  0.24913900  0.75000200  1
  Sb  Sb1  1  0.50000000  0.74916300  0.49999300  1
  Sb  Sb2  1  0.00000000  0.24916300  0.25000800  1
  Sb  Sb3  1  0.50000000  0.74914300  0.00000000  1
  O  O0  1  0.99999900  0.45271500  0.75005900  1
  O  O1  1  0.50000000  0.95273300  0.49992500  1
  O  O2  1  0.00000000  0.45273500  0.25007100  1
  O  O3  1  0.50000100  0.95271700  0.99994700  1
  O  O4  1  0.00000000  0.04817900  0.75003400  1
  O  O5  1  0.50000000  0.54821000  0.49996000  1
  O  O6  1  0.00000000  0.04821100  0.25003800  1
  O  O7  1  0.50000000  0.54818500  0.99996300  1
  O  O8  1  0.50000000  0.29532700  0.74998300  1
  O  O9  1  0.00000000  0.79534500  0.50000600  1
  O  O10  1  0.50000000  0.29535400  0.24999000  1
  O  O11  1  0.00000000  0.79532200  0.00002400  1
  O  O12  1  0.00000000  0.20582800  0.49998400  1
  O  O13  1  0.50000000  0.70583800  0.25001600  1
  O  O14  1  0.00000000  0.20580400  0.99997500  1
  O  O15  1  0.50000000  0.70581100  0.75002500  1
loop_
_geom_bond_atom_site_label_1
_geom_bond_atom_site_label_2
_geom_bond_distance
_geom_bond_site_symmetry_2
Mn0 O9 1.956469 1_555
Mn0 O12 1.991430 1_565
Mn0 O1 2.063433 1_455
Mn0 O1 2.063433 1_555
Mn0 O4 2.084546 1_565
Mn0 O6 2.085160 1_565
Mn1 O10 1.956412 1_555
Mn1 O13 1.991497 1_555
Mn1 O2 2.063431 1_655
Mn1 O2 2.063439 1_555
Mn1 O7 2.084575 1_554
Mn1 O5 2.085137 1_555
Mn2 O8 1.956652 1_555
Mn2 O15 1.991257 1_555
Mn2 O0 2.063468 1_455
Mn2 O0 2.063476 1_555
Mn2 O5 2.084563 1_555
Mn2 O7 2.085205 1_555
Mn3 O11 1.956671 1_555
Mn3 O14 1.991218 1_564
Mn3 O3 2.063462 1_454
Mn3 O3 2.063462 1_554
Mn3 O6 2.084542 1_565
Mn3 O4 2.085237 1_564
O0 Sb0 1.957931 1_655
O1 Sb1 1.957874 1_555
O2 Sb2 1.957893 1_555
O3 Sb3 1.957912 1_556
O4 Sb0 1.932771 1_555
O5 Sb1 1.932704 1_555
O6 Sb2 1.932694 1_555
O7 Sb3 1.932752 1_556
O8 Sb0 2.063747 1_655
O8 Sb0 2.063747 1_555
O9 Sb1 2.063734 1_555
O9 Sb1 2.063734 1_455
O10 Sb2 2.063753 1_655
O10 Sb2 2.063753 1_555
O11 Sb3 2.063728 1_555
O11 Sb3 2.063728 1_455
O12 Sb2 2.072109 1_555
O12 Sb0 2.072391 1_555
O13 Sb1 2.072092 1_555
O13 Sb3 2.072369 1_555
O14 Sb0 2.072085 1_555
O14 Sb2 2.072603 1_556
O15 Sb3 2.072090 1_556
O15 Sb1 2.072587 1_555
