# generated using pymatgen
data_Li2MnV(PO4)3
_symmetry_space_group_name_H-M   'P 1'
_cell_length_a   8.30838100
_cell_length_b   8.31154595
_cell_length_c   8.95526670
_cell_angle_alpha   89.05262749
_cell_angle_beta   117.31594846
_cell_angle_gamma   119.21323654
_symmetry_Int_Tables_number   1
_chemical_formula_structural   Li2MnV(PO4)3
_chemical_formula_sum   'Li4 Mn2 V2 P6 O24'
_cell_volume   462.09061573
_cell_formula_units_Z   2
loop_
 _symmetry_equiv_pos_site_id
 _symmetry_equiv_pos_as_xyz
  1  'x, y, z'
loop_
 _atom_site_type_symbol
 _atom_site_label
 _atom_site_symmetry_multiplicity
 _atom_site_fract_x
 _atom_site_fract_y
 _atom_site_fract_z
 _atom_site_occupancy
  Li  Li0  1  0.60532300  0.68219000  0.87076700  1
  Li  Li1  1  0.94490300  0.26994400  0.86258200  1
  Li  Li2  1  0.63224000  0.43964100  0.37503400  1
  Li  Li3  1  0.81891000  0.07461600  0.14382600  1
  Mn  Mn0  1  0.28455600  0.14670900  0.43535000  1
  Mn  Mn1  1  0.71755700  0.85379400  0.56751600  1
  V  V0  1  0.30230000  0.66491200  0.96056800  1
  V  V1  1  0.68905200  0.34660100  0.04153600  1
  P  P0  1  0.22107000  0.26495700  0.75337100  1
  P  P1  1  0.49961000  0.96306900  0.75012800  1
  P  P2  1  0.79453900  0.55051400  0.75325500  1
  P  P3  1  0.20350400  0.45863500  0.24778100  1
  P  P4  1  0.50051700  0.03308500  0.25486100  1
  P  P5  1  0.78990000  0.74209300  0.24952000  1
  O  O0  1  0.39405900  0.22498900  0.89293000  1
  O  O1  1  0.00901100  0.14026600  0.74767400  1
  O  O2  1  0.31105500  0.48107600  0.81776400  1
  O  O3  1  0.34948600  0.82889600  0.81669500  1
  O  O4  1  0.69172900  0.15259000  0.90083200  1
  O  O5  1  0.72648100  0.52459800  0.89312600  1
  O  O6  1  0.19723800  0.22332100  0.57630400  1
  O  O7  1  0.60744800  0.86520200  0.72926600  1
  O  O8  1  0.37229000  0.99878000  0.58394200  1
  O  O9  1  0.98774600  0.52449800  0.81781700  1
  O  O10  1  0.86392500  0.75623200  0.74049000  1
  O  O11  1  0.61356400  0.40219500  0.57974800  1
  O  O12  1  0.38949300  0.60754900  0.41410300  1
  O  O13  1  0.13446300  0.24948300  0.25915400  1
  O  O14  1  0.99139600  0.45659500  0.17636400  1
  O  O15  1  0.63685700  0.00679600  0.42746900  1
  O  O16  1  0.40905800  0.14354500  0.28507400  1
  O  O17  1  0.78155300  0.75284300  0.41673200  1
  O  O18  1  0.25365200  0.47949700  0.09506600  1
  O  O19  1  0.31762300  0.83748200  0.11433900  1
  O  O20  1  0.65279400  0.15891400  0.18722400  1
  O  O21  1  0.70690400  0.52496100  0.19514400  1
  O  O22  1  0.00383000  0.87736500  0.26643500  1
  O  O23  1  0.62737400  0.78502500  0.10081600  1
loop_
_geom_bond_atom_site_label_1
_geom_bond_atom_site_label_2
_geom_bond_distance
_geom_bond_site_symmetry_2
Li0 O7 1.962248 1_555
Li0 O5 1.965305 1_555
Li0 O2 1.992201 1_555
Li0 O23 2.137123 1_556
Li1 O1 1.898527 1_655
Li1 O9 2.032621 1_555
Li1 O4 2.034900 1_555
Li1 O18 2.192147 1_656
Li2 O11 1.917521 1_555
Li2 O21 1.983156 1_555
Li2 O16 2.093812 1_555
Li2 O17 2.215789 1_555
Li3 O13 1.974235 1_655
Li3 O20 1.997994 1_555
Li3 O23 2.050225 1_545
Li3 O4 2.187082 1_554
Mn0 O8 1.935009 1_545
Mn0 O6 1.960383 1_555
Mn0 O13 1.990925 1_555
Mn0 O16 2.046247 1_555
Mn0 O22 2.125310 1_545
Mn0 O11 2.198661 1_555
Mn1 O15 1.909822 1_565
Mn1 O10 1.930809 1_555
Mn1 O17 1.985436 1_555
Mn1 O7 2.061435 1_555
Mn1 O12 2.171737 1_555
Mn1 O1 2.247074 1_665
O0 P0 1.594288 1_555
O0 V1 1.852684 1_556
O1 P0 1.522414 1_555
O2 P0 1.563904 1_555
O2 V0 2.057642 1_555
O3 P1 1.567615 1_555
O3 V0 1.885558 1_555
O4 P1 1.577784 1_545
O4 V1 2.077589 1_556
O5 P2 1.567588 1_555
O5 V1 1.979147 1_556
O6 P0 1.528545 1_555
O7 P1 1.539271 1_555
O8 P1 1.506300 1_555
O9 P2 1.562275 1_555
O9 V0 1.957584 1_655
O10 P2 1.536489 1_555
O11 P2 1.518090 1_555
O12 P3 1.489930 1_555
O13 P3 1.560696 1_555
O14 P3 1.565790 1_655
O14 V1 1.901285 1_555
O15 P4 1.530897 1_555
O16 P4 1.539936 1_555
O17 P5 1.536511 1_555
O18 P3 1.587012 1_555
O18 V0 1.940738 1_554
O19 P4 1.561066 1_565
O19 V0 1.922487 1_554
O20 P4 1.565928 1_555
O20 V1 2.015225 1_555
O21 P5 1.573439 1_555
O21 V1 1.943572 1_555
O22 P5 1.501365 1_455
O23 P5 1.590073 1_555
O23 V0 2.040798 1_554
