# generated using pymatgen
data_Li7V3P8O29
_symmetry_space_group_name_H-M   'P 1'
_cell_length_a   9.84208100
_cell_length_b   9.85025789
_cell_length_c   13.93090237
_cell_angle_alpha   89.75106134
_cell_angle_beta   89.85852999
_cell_angle_gamma   60.18181082
_symmetry_Int_Tables_number   1
_chemical_formula_structural   Li7V3P8O29
_chemical_formula_sum   'Li14 V6 P16 O58'
_cell_volume   1171.74477463
_cell_formula_units_Z   2
loop_
 _symmetry_equiv_pos_site_id
 _symmetry_equiv_pos_as_xyz
  1  'x, y, z'
loop_
 _atom_site_type_symbol
 _atom_site_label
 _atom_site_symmetry_multiplicity
 _atom_site_fract_x
 _atom_site_fract_y
 _atom_site_fract_z
 _atom_site_occupancy
  Li  Li0  1  0.32142400  0.90972500  0.43414300  1
  Li  Li1  1  0.67221200  0.67500200  0.61248500  1
  Li  Li2  1  0.66948200  0.67390700  0.11448000  1
  Li  Li3  1  0.29924300  0.78076000  0.93973100  1
  Li  Li4  1  0.91253100  0.31046600  0.93895000  1
  Li  Li5  1  0.23737300  0.66002500  0.55694700  1
  Li  Li6  1  0.76399200  0.32602900  0.43655500  1
  Li  Li7  1  0.08626200  0.68888800  0.06608000  1
  Li  Li8  1  0.69746700  0.21707500  0.05834900  1
  Li  Li9  1  0.33776300  0.33130100  0.88567000  1
  Li  Li10  1  0.66792900  0.09736000  0.56255700  1
  Li  Li11  1  0.09419400  0.23342700  0.55818700  1
  Li  Li12  1  0.22587500  0.09166000  0.06388700  1
  Li  Li13  1  0.98545700  0.94572800  0.48787100  1
  V  V0  1  0.43191300  0.56602100  0.74886200  1
  V  V1  1  0.56496200  0.43476300  0.24910900  1
  V  V2  1  0.99430900  0.57076200  0.25452800  1
  V  V3  1  0.00343500  0.43404600  0.74861200  1
  V  V4  1  0.57048900  0.99741500  0.75276600  1
  V  V5  1  0.43446900  0.00152500  0.25180000  1
  P  P0  1  0.77266600  0.91122000  0.16169500  1
  P  P1  1  0.91546200  0.77631100  0.66102200  1
  P  P2  1  0.31864100  0.91140500  0.65573600  1
  P  P3  1  0.66784500  0.66018900  0.87240700  1
  P  P4  1  0.66508200  0.66258600  0.37370200  1
  P  P5  1  0.32312400  0.76955700  0.15713000  1
  P  P6  1  0.22832600  0.68358600  0.34130300  1
  P  P7  1  0.90875700  0.32317200  0.15674000  1
  P  P8  1  0.09065100  0.67656500  0.84805200  1
  P  P9  1  0.77112200  0.32081000  0.65620800  1
  P  P10  1  0.67761500  0.23248800  0.84141600  1
  P  P11  1  0.33205300  0.33318600  0.62479200  1
  P  P12  1  0.32849500  0.34030200  0.12733600  1
  P  P13  1  0.68788700  0.08572700  0.34710400  1
  P  P14  1  0.08313100  0.23171900  0.34206000  1
  P  P15  1  0.23223500  0.08990100  0.84221500  1
  O  O0  1  0.77508700  0.01574400  0.43940100  1
  O  O1  1  0.74785700  0.92068600  0.65873400  1
  O  O2  1  0.01014200  0.74441900  0.94005500  1
  O  O3  1  0.91962700  0.74552800  0.15989200  1
  O  O4  1  0.62966100  0.88583900  0.17459100  1
  O  O5  1  0.65538400  0.81581200  0.82835100  1
  O  O6  1  0.48363600  0.89321800  0.66705500  1
  O  O7  1  0.25028500  0.99582900  0.93185900  1
  O  O8  1  0.33133500  0.92113200  0.15552600  1
  O  O9  1  0.80985200  0.66883000  0.32953800  1
  O  O10  1  0.89823900  0.62930200  0.66467700  1
  O  O11  1  0.51107300  0.80860400  0.34226600  1
  O  O12  1  0.66385200  0.65640600  0.97959400  1
  O  O13  1  0.67525600  0.64250200  0.48098100  1
  O  O14  1  0.51877400  0.65801700  0.83021700  1
  O  O15  1  0.88564400  0.48884800  0.17281700  1
  O  O16  1  0.81453300  0.51668600  0.83243100  1
  O  O17  1  0.33282700  0.74809300  0.65583700  1
  O  O18  1  0.21369900  0.78745700  0.24771800  1
  O  O19  1  0.21971300  0.77822500  0.43016000  1
  O  O20  1  0.24974600  0.74744800  0.06850000  1
  O  O21  1  0.49076500  0.62982900  0.17499000  1
  O  O22  1  0.67389800  0.50988900  0.32934300  1
  O  O23  1  0.25204300  0.67080700  0.83947600  1
  O  O24  1  0.62387000  0.48565000  0.66904000  1
  O  O25  1  0.91904400  0.33423100  0.65375900  1
  O  O26  1  0.98843400  0.79107100  0.76096600  1
  O  O27  1  0.01411600  0.78316800  0.58037200  1
  O  O28  1  0.99281400  0.23439200  0.43079900  1
  O  O29  1  0.08683500  0.66055200  0.33826300  1
  O  O30  1  0.38518000  0.53007200  0.33337800  1
  O  O31  1  0.74640700  0.33597600  0.15362300  1
  O  O32  1  0.33439200  0.48386800  0.66842100  1
  O  O33  1  0.50964900  0.37430400  0.82405800  1
  O  O34  1  0.75019300  0.25359200  0.93049000  1
  O  O35  1  0.76093800  0.23463500  0.56968200  1
  O  O36  1  0.78587000  0.22095800  0.75154800  1
  O  O37  1  0.66935200  0.25113500  0.33517300  1
  O  O38  1  0.17832100  0.48811600  0.16735100  1
  O  O39  1  0.12192300  0.50942300  0.82702900  1
  O  O40  1  0.47696100  0.34460600  0.17006700  1
  O  O41  1  0.33584600  0.34626500  0.01963300  1
  O  O42  1  0.32188300  0.35095000  0.51816100  1
  O  O43  1  0.48579400  0.18238700  0.66281700  1
  O  O44  1  0.09084600  0.38250900  0.32877300  1
  O  O45  1  0.19233900  0.32239400  0.66729600  1
  O  O46  1  0.66358100  0.08497500  0.83899300  1
  O  O47  1  0.79823500  0.98385000  0.25964800  1
  O  O48  1  0.76435200  0.00907900  0.07851900  1
  O  O49  1  0.53224100  0.08965400  0.33686100  1
  O  O50  1  0.33156300  0.18994600  0.16247700  1
  O  O51  1  0.37479300  0.11532500  0.82548400  1
  O  O52  1  0.08098900  0.24736200  0.84306400  1
  O  O53  1  0.00347000  0.24559000  0.06787000  1
  O  O54  1  0.99565700  0.21427500  0.24830400  1
  O  O55  1  0.24628200  0.08583500  0.34152100  1
  O  O56  1  0.23183000  0.00311400  0.56758100  1
  O  O57  1  0.21970400  0.99711500  0.75044000  1
loop_
_geom_bond_atom_site_label_1
_geom_bond_atom_site_label_2
_geom_bond_distance
_geom_bond_site_symmetry_2
Li0 O55 1.982552 1_565
Li0 O19 1.993347 1_555
Li0 O11 2.065104 1_555
Li0 O56 2.068671 1_565
Li1 O13 1.858704 1_555
Li1 O6 2.163941 1_555
Li1 O10 2.165473 1_555
Li1 O24 2.279004 1_555
Li2 O12 1.891183 1_554
Li2 O4 2.100656 1_555
Li2 O15 2.156012 1_555
Li2 O21 2.177609 1_555
Li3 O20 1.926783 1_556
Li3 O7 1.927499 1_555
Li3 O23 1.963710 1_555
Li3 O14 2.420644 1_555
Li4 O34 1.942215 1_555
Li4 O53 1.965736 1_656
Li4 O52 1.972545 1_655
Li4 O16 2.300205 1_555
Li5 O27 1.937851 1_555
Li5 O19 2.070715 1_555
Li5 O17 2.088125 1_555
Li5 O32 2.161113 1_555
Li6 O28 1.967529 1_555
Li6 O37 2.026200 1_555
Li6 O35 2.064692 1_555
Li6 O22 2.164006 1_555
Li7 O2 1.879723 1_554
Li7 O3 1.948004 1_455
Li7 O20 1.961196 1_555
Li7 O38 2.218663 1_555
Li8 O48 1.834273 1_555
Li8 O34 1.935671 1_554
Li8 O31 1.985706 1_555
Li8 O40 2.449327 1_555
Li9 O41 1.871986 1_556
Li9 O33 2.116684 1_555
Li9 O39 2.132585 1_555
Li9 O51 2.145843 1_555
Li10 O0 1.965195 1_555
Li10 O35 1.977081 1_555
Li10 O1 2.016442 1_545
Li10 O43 2.090537 1_555
Li11 O56 1.985174 1_555
Li11 O25 2.007011 1_455
Li11 O28 2.035719 1_455
Li11 O45 2.207280 1_555
Li12 O8 1.944899 1_545
Li12 O53 1.947544 1_555
Li12 O7 2.029547 1_544
Li12 O50 2.219409 1_555
Li13 O0 1.949673 1_565
Li13 O27 1.959292 1_655
Li13 O19 2.214399 1_655
O0 P13 1.508103 1_555
O1 P1 1.552882 1_555
O1 V4 2.004934 1_555
O2 P8 1.480892 1_555
O3 P0 1.552085 1_555
O3 V2 1.992125 1_555
O4 P0 1.556935 1_555
O4 V5 1.992330 1_565
O5 P3 1.595873 1_555
O5 V4 1.873061 1_555
O6 P2 1.551030 1_555
O6 V4 2.024368 1_555
O7 P15 1.509004 1_565
O8 P5 1.534905 1_555
O8 V5 2.066771 1_565
O9 P4 1.579546 1_555
O9 V2 1.891098 1_555
O10 P1 1.540027 1_555
O10 V3 2.035789 1_655
O11 P4 1.545230 1_555
O11 V5 2.080137 1_565
O12 P3 1.494422 1_555
O13 P4 1.503710 1_555
O14 P3 1.591876 1_555
O14 V0 1.902795 1_555
O15 P7 1.548840 1_555
O15 V2 1.990675 1_555
O16 P3 1.538148 1_555
O16 V3 1.993771 1_655
O17 P2 1.543993 1_555
O17 V0 2.023266 1_555
O18 P5 1.609318 1_555
O18 P6 1.615587 1_555
O19 P6 1.529520 1_555
O20 P5 1.502204 1_555
O21 P5 1.555376 1_555
O21 V1 1.970393 1_555
O22 P4 1.590521 1_555
O22 V1 1.936132 1_555
O23 P8 1.565291 1_555
O23 V0 1.993966 1_555
O24 P9 1.558773 1_555
O24 V0 1.985546 1_555
O25 P9 1.526202 1_555
O25 V3 2.057054 1_655
O26 P1 1.608108 1_555
O26 P8 1.619188 1_655
O27 P1 1.506259 1_455
O28 P14 1.513491 1_655
O29 P6 1.518917 1_555
O29 V2 1.946145 1_455
O30 P6 1.536572 1_555
O30 V1 1.933310 1_555
O31 P7 1.539751 1_555
O31 V1 2.043711 1_555
O32 P11 1.617049 1_555
O32 V0 1.901970 1_555
O33 P10 1.563702 1_555
O33 V0 1.949072 1_555
O34 P10 1.499182 1_555
O35 P9 1.509185 1_555
O36 P10 1.609273 1_555
O36 P9 1.612494 1_555
O37 P13 1.554917 1_555
O37 V1 1.975816 1_555
O38 P12 1.574187 1_555
O38 V2 1.987224 1_455
O39 P8 1.546257 1_555
O39 V3 1.994755 1_555
O40 P12 1.599196 1_555
O40 V1 1.878681 1_555
O41 P12 1.504264 1_555
O42 P11 1.492750 1_555
O43 P11 1.593260 1_555
O43 V4 2.014865 1_545
O44 P14 1.534897 1_555
O44 V2 1.909742 1_455
O45 P11 1.547109 1_555
O45 V3 1.978985 1_555
O46 P10 1.526955 1_555
O46 V4 1.956168 1_545
O47 P13 1.609697 1_565
O47 P0 1.620632 1_555
O48 P0 1.480140 1_545
O49 P13 1.520071 1_555
O49 V5 1.982186 1_555
O50 P12 1.543813 1_555
O50 V5 2.033626 1_555
O51 P15 1.559795 1_555
O51 V4 1.964881 1_545
O52 P15 1.525005 1_555
O52 V3 2.069661 1_555
O53 P7 1.509889 1_455
O54 P7 1.609442 1_555
O54 P14 1.622113 1_655
O55 P14 1.532550 1_555
O55 V5 2.037222 1_555
O56 P2 1.510692 1_545
O57 P2 1.608511 1_555
O57 P15 1.614980 1_565
