# generated using pymatgen
data_Li2Fe3Co7O20
_symmetry_space_group_name_H-M   'P 1'
_cell_length_a   20.51243722
_cell_length_b   2.88056300
_cell_length_c   5.86505877
_cell_angle_alpha   90.00000000
_cell_angle_beta   82.59063924
_cell_angle_gamma   90.00000000
_symmetry_Int_Tables_number   1
_chemical_formula_structural   Li2Fe3Co7O20
_chemical_formula_sum   'Li2 Fe3 Co7 O20'
_cell_volume   343.65722116
_cell_formula_units_Z   1
loop_
 _symmetry_equiv_pos_site_id
 _symmetry_equiv_pos_as_xyz
  1  'x, y, z'
loop_
 _atom_site_type_symbol
 _atom_site_label
 _atom_site_symmetry_multiplicity
 _atom_site_fract_x
 _atom_site_fract_y
 _atom_site_fract_z
 _atom_site_occupancy
  Li  Li0  1  0.10000000  0.50000000  0.20000000  1
  Li  Li1  1  0.60000000  0.00000000  0.20000000  1
  Fe  Fe0  1  0.39787500  0.00000000  0.29878800  1
  Fe  Fe1  1  0.60000000  0.00000000  0.70000000  1
  Fe  Fe2  1  0.80212500  0.00000000  0.10121200  1
  Co  Co0  1  0.99883700  0.00000000  0.51811600  1
  Co  Co1  1  0.10000000  0.50000000  0.70000000  1
  Co  Co2  1  0.20116300  0.00000000  0.88188400  1
  Co  Co3  1  0.29686100  0.50000000  0.09648000  1
  Co  Co4  1  0.49752400  0.50000000  0.50750200  1
  Co  Co5  1  0.70247600  0.50000000  0.89249800  1
  Co  Co6  1  0.90313900  0.50000000  0.30352000  1
  O  O0  1  0.00784200  0.50000000  0.71885300  1
  O  O1  1  0.09256900  0.00000000  0.48514500  1
  O  O2  1  0.10743000  0.00000000  0.91485500  1
  O  O3  1  0.20376200  0.50000000  0.09509200  1
  O  O4  1  0.19215800  0.50000000  0.68114700  1
  O  O5  1  0.29925000  0.00000000  0.30266500  1
  O  O6  1  0.29196800  0.00000000  0.88706000  1
  O  O7  1  0.38744500  0.50000000  0.07941800  1
  O  O8  1  0.40770100  0.50000000  0.51712600  1
  O  O9  1  0.49768800  0.00000000  0.29419200  1
  O  O10  1  0.50241400  0.00000000  0.71158900  1
  O  O11  1  0.59089800  0.50000000  0.46922100  1
  O  O12  1  0.60910200  0.50000000  0.93077900  1
  O  O13  1  0.70231200  0.00000000  0.10580800  1
  O  O14  1  0.69758600  0.00000000  0.68841100  1
  O  O15  1  0.81255500  0.50000000  0.32058200  1
  O  O16  1  0.79229900  0.50000000  0.88287400  1
  O  O17  1  0.90075000  0.00000000  0.09733500  1
  O  O18  1  0.90803200  0.00000000  0.51294000  1
  O  O19  1  0.99623800  0.50000000  0.30490800  1
loop_
_geom_bond_atom_site_label_1
_geom_bond_atom_site_label_2
_geom_bond_distance
_geom_bond_site_symmetry_2
Li0 O3 2.137979 1_555
Li0 O19 2.137979 1_455
Li0 O1 2.197452 1_555
Li0 O1 2.197452 1_565
Li0 O2 2.197452 1_564
Li0 O2 2.197452 1_554
Li1 O9 2.100137 1_555
Li1 O13 2.100137 1_555
Li1 O12 2.127549 1_554
Li1 O12 2.127549 1_544
Li1 O11 2.127549 1_545
Li1 O11 2.127549 1_555
Fe0 O8 1.954853 1_555
Fe0 O8 1.954853 1_545
Fe0 O7 1.961266 1_555
Fe0 O7 1.961266 1_545
Fe0 O5 2.020233 1_555
Fe0 O9 2.044107 1_555
Fe1 O10 1.994101 1_555
Fe1 O14 1.994101 1_555
Fe1 O11 2.001624 1_555
Fe1 O11 2.001624 1_545
Fe1 O12 2.001624 1_545
Fe1 O12 2.001624 1_555
Fe2 O16 1.954853 1_554
Fe2 O16 1.954853 1_544
Fe2 O15 1.961266 1_545
Fe2 O15 1.961266 1_555
Fe2 O17 2.020233 1_555
Fe2 O13 2.044107 1_555
Co0 O18 1.866789 1_555
Co0 O0 1.884339 1_655
Co0 O0 1.884339 1_645
Co0 O1 1.907398 1_655
Co0 O19 1.912627 1_545
Co0 O19 1.912627 1_555
Co1 O4 1.879327 1_555
Co1 O0 1.879327 1_555
Co1 O2 1.932645 1_565
Co1 O2 1.932645 1_555
Co1 O1 1.932649 1_565
Co1 O1 1.932649 1_555
Co2 O6 1.866789 1_555
Co2 O4 1.884339 1_545
Co2 O4 1.884339 1_555
Co2 O2 1.907419 1_555
Co2 O3 1.912627 1_546
Co2 O3 1.912627 1_556
Co3 O7 1.847860 1_555
Co3 O5 1.885331 1_555
Co3 O5 1.885331 1_565
Co3 O6 1.903918 1_554
Co3 O6 1.903918 1_564
Co3 O3 1.910754 1_555
Co4 O8 1.836063 1_555
Co4 O10 1.883668 1_555
Co4 O10 1.883668 1_565
Co4 O11 1.899469 1_555
Co4 O9 1.907492 1_555
Co4 O9 1.907492 1_565
Co5 O16 1.836063 1_555
Co5 O14 1.883668 1_565
Co5 O14 1.883668 1_555
Co5 O12 1.899469 1_555
Co5 O13 1.907492 1_566
Co5 O13 1.907492 1_556
Co6 O15 1.847860 1_555
Co6 O17 1.885331 1_565
Co6 O17 1.885331 1_555
Co6 O18 1.903918 1_565
Co6 O18 1.903918 1_555
Co6 O19 1.910754 1_555
