# generated using pymatgen
data_V(CO3)2
_symmetry_space_group_name_H-M   'P 1'
_cell_length_a   4.85082731
_cell_length_b   6.40683394
_cell_length_c   16.62590410
_cell_angle_alpha   80.71815900
_cell_angle_beta   98.43411749
_cell_angle_gamma   112.59079020
_symmetry_Int_Tables_number   1
_chemical_formula_structural   V(CO3)2
_chemical_formula_sum   'V4 C8 O24'
_cell_volume   468.77596523
_cell_formula_units_Z   4
loop_
 _symmetry_equiv_pos_site_id
 _symmetry_equiv_pos_as_xyz
  1  'x, y, z'
loop_
 _atom_site_type_symbol
 _atom_site_label
 _atom_site_symmetry_multiplicity
 _atom_site_fract_x
 _atom_site_fract_y
 _atom_site_fract_z
 _atom_site_occupancy
  V  V0  1  0.99944600  0.50051600  0.50001200  1
  V  V1  1  0.50014500  0.24990200  0.74999600  1
  V  V2  1  0.00057300  0.99956200  0.00000300  1
  V  V3  1  0.49981600  0.75008500  0.25002500  1
  C  C0  1  0.90708900  0.16251800  0.65101000  1
  C  C1  1  0.40705000  0.91197500  0.90098700  1
  C  C2  1  0.90632900  0.66205400  0.15088900  1
  C  C3  1  0.40623300  0.41275200  0.40101000  1
  C  C4  1  0.59245000  0.58788400  0.59901700  1
  C  C5  1  0.09355800  0.33755200  0.84905800  1
  C  C6  1  0.59415900  0.08745900  0.09900500  1
  C  C7  1  0.09308200  0.83780300  0.34901400  1
  O  O0  1  0.64605600  0.14068600  0.66880200  1
  O  O1  1  0.14568600  0.88947200  0.91855700  1
  O  O2  1  0.64527700  0.63979900  0.16853300  1
  O  O3  1  0.14520900  0.39082600  0.41866800  1
  O  O4  1  0.41342800  0.65063100  0.54396300  1
  O  O5  1  0.91463800  0.40035800  0.79411400  1
  O  O6  1  0.41481200  0.14929200  0.04384000  1
  O  O7  1  0.91377100  0.89984400  0.29390500  1
  O  O8  1  0.51995700  0.51962400  0.67291800  1
  O  O9  1  0.02171700  0.26948900  0.92308100  1
  O  O10  1  0.52166500  0.01991400  0.17298500  1
  O  O11  1  0.02076200  0.77036800  0.42302500  1
  O  O12  1  0.97900600  0.23060700  0.57702600  1
  O  O13  1  0.47981200  0.98009300  0.82705400  1
  O  O14  1  0.97862400  0.72961500  0.07685200  1
  O  O15  1  0.47848600  0.48026200  0.32705100  1
  O  O16  1  0.08581800  0.09945000  0.70599800  1
  O  O17  1  0.58629100  0.84984200  0.95610900  1
  O  O18  1  0.08587000  0.60019400  0.20594000  1
  O  O19  1  0.58539400  0.35038800  0.45611300  1
  O  O20  1  0.85354000  0.60994800  0.58130900  1
  O  O21  1  0.35475000  0.35956700  0.83130300  1
  O  O22  1  0.85553300  0.10989600  0.08147100  1
  O  O23  1  0.35396800  0.85977300  0.33135700  1
loop_
_geom_bond_atom_site_label_1
_geom_bond_atom_site_label_2
_geom_bond_distance
_geom_bond_site_symmetry_2
C0 O12 1.288755 1_555
C0 O16 1.291593 1_655
C0 O0 1.292613 1_555
C1 O13 1.289129 1_555
C1 O1 1.291564 1_555
C1 O17 1.291825 1_555
C2 O14 1.289833 1_555
C2 O2 1.291007 1_555
C2 O18 1.291374 1_655
C3 O15 1.288531 1_555
C3 O3 1.291598 1_555
C3 O19 1.292052 1_555
C4 O8 1.288333 1_555
C4 O20 1.291934 1_555
C4 O4 1.292246 1_555
C5 O9 1.289247 1_555
C5 O5 1.291055 1_455
C5 O21 1.292787 1_555
C6 O10 1.289207 1_555
C6 O22 1.291528 1_555
C6 O6 1.291712 1_555
C7 O11 1.289398 1_555
C7 O23 1.290856 1_555
C7 O7 1.291671 1_455
O0 V1 1.943803 1_555
O1 V2 1.948274 1_556
O2 V3 1.950678 1_555
O3 V0 1.947238 1_455
O4 V0 1.950391 1_455
O5 V1 1.953525 1_555
O6 V2 1.950409 1_545
O7 V3 1.949571 1_555
O8 V1 1.957508 1_555
O9 V2 1.955913 1_546
O10 V3 1.955805 1_545
O11 V0 1.955950 1_455
O12 V0 1.957275 1_555
O13 V1 1.957269 1_565
O14 V2 1.954636 1_655
O15 V3 1.956133 1_555
O16 V1 1.952283 1_555
O17 V2 1.950850 1_656
O18 V3 1.950704 1_555
O19 V0 1.950409 1_555
O20 V0 1.946015 1_555
O21 V1 1.945567 1_555
O22 V2 1.949314 1_645
O23 V3 1.947318 1_555
