# generated using pymatgen
data_Li32Mn13Cr3O48
_symmetry_space_group_name_H-M   'P 1'
_cell_length_a   5.00142900
_cell_length_b   8.67823169
_cell_length_c   19.47028162
_cell_angle_alpha   98.34593722
_cell_angle_beta   94.77266626
_cell_angle_gamma   89.90202929
_symmetry_Int_Tables_number   1
_chemical_formula_structural   Li32Mn13Cr3O48
_chemical_formula_sum   'Li32 Mn13 Cr3 O48'
_cell_volume   833.18471068
_cell_formula_units_Z   1
loop_
 _symmetry_equiv_pos_site_id
 _symmetry_equiv_pos_as_xyz
  1  'x, y, z'
loop_
 _atom_site_type_symbol
 _atom_site_label
 _atom_site_symmetry_multiplicity
 _atom_site_fract_x
 _atom_site_fract_y
 _atom_site_fract_z
 _atom_site_occupancy
  Li  Li0  1  0.99158100  0.16830500  0.24941400  1
  Li  Li1  1  0.87533600  0.37443500  0.37513400  1
  Li  Li2  1  0.74941200  0.24979300  0.00007800  1
  Li  Li3  1  0.74366300  0.91998800  0.00052300  1
  Li  Li4  1  0.99449900  0.16761500  0.74970300  1
  Li  Li5  1  0.75586700  0.57967200  0.49992200  1
  Li  Li6  1  0.87557000  0.37561100  0.87518600  1
  Li  Li7  1  0.74985600  0.25146200  0.49985000  1
  Li  Li8  1  0.74415300  0.91921000  0.50053500  1
  Li  Li9  1  0.62477000  0.12511300  0.12500500  1
  Li  Li10  1  0.75530400  0.58041900  0.99972000  1
  Li  Li11  1  0.50715900  0.33163800  0.25042300  1
  Li  Li12  1  0.62217800  0.12468700  0.62519500  1
  Li  Li13  1  0.50036900  0.00047700  0.24994600  1
  Li  Li14  1  0.49401100  0.66824200  0.24987200  1
  Li  Li15  1  0.50569800  0.33218800  0.75031300  1
  Li  Li16  1  0.37680700  0.87423100  0.37484600  1
  Li  Li17  1  0.49833100  0.00016100  0.74984700  1
  Li  Li18  1  0.24946900  0.74973500  0.00001700  1
  Li  Li19  1  0.49421800  0.66790600  0.74991100  1
  Li  Li20  1  0.24459600  0.41914800  0.00016800  1
  Li  Li21  1  0.37702000  0.87458400  0.87487200  1
  Li  Li22  1  0.25724300  0.08152000  0.49928400  1
  Li  Li23  1  0.24950500  0.74980900  0.49998600  1
  Li  Li24  1  0.12480700  0.62503000  0.12498700  1
  Li  Li25  1  0.24329800  0.41840600  0.50003200  1
  Li  Li26  1  0.00605500  0.83150200  0.24994700  1
  Li  Li27  1  0.25700600  0.08102300  0.99985400  1
  Li  Li28  1  0.12443700  0.62441200  0.62480800  1
  Li  Li29  1  0.00010100  0.49996900  0.24991200  1
  Li  Li30  1  0.00627400  0.83186300  0.75030900  1
  Li  Li31  1  0.00111800  0.50057600  0.75030700  1
  Mn  Mn0  1  0.87324200  0.70696300  0.37450300  1
  Mn  Mn1  1  0.87326600  0.70767700  0.87437500  1
  Mn  Mn2  1  0.62554000  0.79134500  0.12501000  1
  Mn  Mn3  1  0.62472300  0.45848500  0.12500200  1
  Mn  Mn4  1  0.62623900  0.79146400  0.62500800  1
  Mn  Mn5  1  0.62339400  0.45962100  0.62439000  1
  Mn  Mn6  1  0.37493700  0.54173300  0.37507600  1
  Mn  Mn7  1  0.37564400  0.21013500  0.37556700  1
  Mn  Mn8  1  0.37476400  0.54158500  0.87499500  1
  Mn  Mn9  1  0.37580700  0.20968100  0.87557700  1
  Mn  Mn10  1  0.12463100  0.95843400  0.12495000  1
  Mn  Mn11  1  0.12563200  0.29153100  0.12494500  1
  Mn  Mn12  1  0.12651000  0.95746800  0.62564800  1
  Cr  Cr0  1  0.88004900  0.03976100  0.37500100  1
  Cr  Cr1  1  0.88067500  0.04163100  0.87483900  1
  Cr  Cr2  1  0.12032100  0.28991800  0.62505100  1
  O  O0  1  0.96373200  0.10640200  0.06895200  1
  O  O1  1  0.92811600  0.78504300  0.06902000  1
  O  O2  1  0.92752400  0.42738500  0.06811400  1
  O  O3  1  0.96782300  0.10688100  0.56901900  1
  O  O4  1  0.82206600  0.96503500  0.18113900  1
  O  O5  1  0.82261900  0.32261500  0.18202200  1
  O  O6  1  0.92813500  0.78503200  0.56894700  1
  O  O7  1  0.92307400  0.42949800  0.56734900  1
  O  O8  1  0.78661200  0.64340500  0.18100600  1
  O  O9  1  0.71196000  0.85337400  0.31856400  1
  O  O10  1  0.82222100  0.96535000  0.68094700  1
  O  O11  1  0.82547500  0.32424400  0.68183300  1
  O  O12  1  0.67798700  0.53445300  0.31901800  1
  O  O13  1  0.67556700  0.17708600  0.31790000  1
  O  O14  1  0.78670600  0.64371200  0.68081200  1
  O  O15  1  0.71229700  0.85349600  0.81827200  1
  O  O16  1  0.46369800  0.60651600  0.06903300  1
  O  O17  1  0.57139800  0.71516800  0.43107100  1
  O  O18  1  0.57262400  0.07386200  0.43211100  1
  O  O19  1  0.67804300  0.53408700  0.81888400  1
  O  O20  1  0.67682600  0.17583400  0.81796700  1
  O  O21  1  0.42758400  0.92725000  0.06806600  1
  O  O22  1  0.42839000  0.28521800  0.06915400  1
  O  O23  1  0.53700000  0.39426300  0.43095400  1
  O  O24  1  0.46236000  0.60729000  0.56888500  1
  O  O25  1  0.57113300  0.71492300  0.93098000  1
  O  O26  1  0.56929300  0.07344200  0.93236100  1
  O  O27  1  0.32242100  0.82273400  0.18202900  1
  O  O28  1  0.32194500  0.46499100  0.18112000  1
  O  O29  1  0.42835000  0.92758300  0.56793500  1
  O  O30  1  0.42870500  0.28591200  0.56913500  1
  O  O31  1  0.53762600  0.39425100  0.93109300  1
  O  O32  1  0.28624700  0.14342200  0.18101200  1
  O  O33  1  0.21294900  0.35707800  0.31906000  1
  O  O34  1  0.32250000  0.82166700  0.68179500  1
  O  O35  1  0.32329900  0.46402100  0.68106200  1
  O  O36  1  0.17738900  0.67771600  0.31811000  1
  O  O37  1  0.17525400  0.03689700  0.31905900  1
  O  O38  1  0.28861200  0.14009000  0.68162700  1
  O  O39  1  0.21286900  0.35682700  0.81890100  1
  O  O40  1  0.07264700  0.57241800  0.43191800  1
  O  O41  1  0.07557900  0.21728300  0.43166100  1
  O  O42  1  0.17744400  0.67749100  0.81799800  1
  O  O43  1  0.17879400  0.03637900  0.81887800  1
  O  O44  1  0.03321600  0.89338700  0.43112500  1
  O  O45  1  0.07258900  0.57249700  0.93193200  1
  O  O46  1  0.07508900  0.21651600  0.93139900  1
  O  O47  1  0.03112900  0.89381800  0.93093700  1
loop_
_geom_bond_atom_site_label_1
_geom_bond_atom_site_label_2
_geom_bond_distance
_geom_bond_site_symmetry_2
Li0 O37 2.054547 1_655
Li0 O32 2.057745 1_655
Li0 O5 2.133267 1_555
Li0 O13 2.145394 1_555
Li0 O4 2.175897 1_545
Li0 O33 2.204505 1_655
Li1 O41 2.078923 1_655
Li1 O33 2.079427 1_655
Li1 O23 2.079658 1_555
Li1 O12 2.086316 1_555
Li1 O40 2.102620 1_655
Li1 O13 2.107070 1_555
Li2 O26 2.028144 1_554
Li2 O2 2.034512 1_555
Li2 O22 2.172282 1_555
Li2 O0 2.176328 1_555
Li2 O31 2.178345 1_554
Li2 O46 2.184808 1_654
Li3 O47 2.046466 1_654
Li3 O1 2.060607 1_555
Li3 O21 2.134018 1_555
Li3 O26 2.147506 1_564
Li3 O0 2.177158 1_565
Li3 O25 2.203693 1_554
Li4 O43 2.048374 1_655
Li4 O38 2.051592 1_655
Li4 O20 2.149299 1_555
Li4 O11 2.154082 1_555
Li4 O10 2.178691 1_545
Li4 O39 2.196210 1_655
Li5 O24 2.061219 1_555
Li5 O17 2.068578 1_555
Li5 O7 2.105128 1_555
Li5 O40 2.142850 1_655
Li5 O23 2.173610 1_555
Li5 O6 2.200424 1_555
Li6 O19 2.078917 1_555
Li6 O31 2.078929 1_555
Li6 O39 2.080448 1_655
Li6 O46 2.086171 1_655
Li6 O45 2.094670 1_655
Li6 O20 2.120345 1_555
Li7 O7 2.022504 1_555
Li7 O18 2.029952 1_555
Li7 O23 2.170014 1_555
Li7 O30 2.175073 1_555
Li7 O41 2.179105 1_655
Li7 O3 2.194988 1_555
Li8 O44 2.050077 1_655
Li8 O6 2.054136 1_555
Li8 O29 2.130482 1_555
Li8 O18 2.153370 1_565
Li8 O3 2.193053 1_565
Li8 O17 2.196987 1_555
Li9 O22 2.081808 1_555
Li9 O32 2.082539 1_555
Li9 O0 2.084938 1_555
Li9 O4 2.086792 1_545
Li9 O5 2.102355 1_555
Li9 O21 2.102694 1_545
Li10 O16 2.058469 1_556
Li10 O25 2.060806 1_555
Li10 O45 2.141665 1_655
Li10 O2 2.144198 1_556
Li10 O31 2.172123 1_555
Li10 O1 2.199229 1_556
Li11 O33 2.059211 1_555
Li11 O28 2.063919 1_555
Li11 O13 2.134936 1_555
Li11 O5 2.141972 1_555
Li11 O12 2.178170 1_555
Li11 O32 2.198179 1_555
Li12 O38 2.066395 1_555
Li12 O10 2.083662 1_545
Li12 O30 2.085253 1_555
Li12 O29 2.093032 1_545
Li12 O3 2.115024 1_555
Li12 O11 2.124637 1_555
Li13 O13 2.022467 1_555
Li13 O27 2.033899 1_545
Li13 O4 2.171509 1_545
Li13 O32 2.174108 1_555
Li13 O9 2.188551 1_545
Li13 O37 2.189419 1_555
Li14 O8 2.056080 1_555
Li14 O12 2.061840 1_555
Li14 O36 2.144200 1_555
Li14 O27 2.144854 1_555
Li14 O9 2.167447 1_555
Li14 O28 2.184435 1_555
Li15 O35 2.049073 1_555
Li15 O39 2.053175 1_555
Li15 O20 2.153152 1_555
Li15 O11 2.160600 1_555
Li15 O19 2.174857 1_555
Li15 O38 2.205401 1_555
Li16 O9 2.071337 1_555
Li16 O17 2.075535 1_555
Li16 O36 2.097385 1_555
Li16 O44 2.107341 1_555
Li16 O37 2.108742 1_565
Li16 O18 2.113532 1_565
Li17 O20 2.025071 1_555
Li17 O34 2.035520 1_545
Li17 O38 2.138018 1_555
Li17 O43 2.166196 1_555
Li17 O10 2.181125 1_545
Li17 O15 2.188709 1_545
Li18 O45 2.030591 1_554
Li18 O21 2.034202 1_555
Li18 O1 2.172602 1_455
Li18 O25 2.174059 1_554
Li18 O16 2.176964 1_555
Li18 O47 2.191834 1_554
Li19 O14 2.058768 1_555
Li19 O19 2.059368 1_555
Li19 O42 2.142765 1_555
Li19 O34 2.144141 1_555
Li19 O15 2.167336 1_555
Li19 O35 2.187303 1_555
Li20 O22 2.060117 1_555
Li20 O31 2.060561 1_554
Li20 O2 2.142735 1_455
Li20 O45 2.143683 1_554
Li20 O46 2.176347 1_554
Li20 O16 2.184322 1_555
Li21 O15 2.075504 1_555
Li21 O25 2.077041 1_555
Li21 O43 2.098266 1_565
Li21 O42 2.102419 1_555
Li21 O26 2.102762 1_565
Li21 O47 2.114838 1_555
Li22 O41 2.048113 1_555
Li22 O3 2.055835 1_455
Li22 O18 2.126196 1_555
Li22 O29 2.151220 1_545
Li22 O44 2.193622 1_545
Li22 O30 2.200478 1_555
Li23 O40 2.031263 1_555
Li23 O29 2.036121 1_555
Li23 O24 2.168436 1_555
Li23 O6 2.172094 1_455
Li23 O17 2.173328 1_555
Li23 O44 2.181586 1_555
Li24 O8 2.081270 1_455
Li24 O1 2.083191 1_455
Li24 O16 2.083516 1_555
Li24 O28 2.086192 1_555
Li24 O2 2.101025 1_455
Li24 O27 2.103329 1_555
Li25 O30 2.056707 1_555
Li25 O23 2.063127 1_555
Li25 O40 2.143815 1_555
Li25 O7 2.145777 1_455
Li25 O41 2.160284 1_555
Li25 O24 2.192779 1_555
Li26 O4 2.055819 1_455
Li26 O9 2.058366 1_455
Li26 O27 2.139314 1_555
Li26 O36 2.144246 1_555
Li26 O8 2.189933 1_455
Li26 O37 2.196223 1_565
Li27 O46 2.058246 1_555
Li27 O0 2.061848 1_456
Li27 O26 2.118201 1_555
Li27 O21 2.143502 1_546
Li27 O22 2.194108 1_556
Li27 O47 2.199386 1_545
Li28 O24 2.079056 1_555
Li28 O14 2.079122 1_455
Li28 O6 2.085074 1_455
Li28 O35 2.093522 1_555
Li28 O7 2.096672 1_455
Li28 O34 2.101012 1_555
Li29 O5 2.030494 1_455
Li29 O36 2.035418 1_555
Li29 O28 2.171698 1_555
Li29 O33 2.173755 1_555
Li29 O8 2.175170 1_455
Li29 O12 2.176592 1_455
Li30 O15 2.049085 1_455
Li30 O10 2.063207 1_455
Li30 O42 2.141362 1_555
Li30 O34 2.145947 1_555
Li30 O43 2.191486 1_565
Li30 O14 2.195555 1_455
Li31 O42 2.023789 1_555
Li31 O11 2.026886 1_455
Li31 O39 2.169166 1_555
Li31 O19 2.173243 1_455
Li31 O35 2.179549 1_555
Li31 O14 2.183050 1_455
Mn0 O9 1.924407 1_555
Mn0 O12 1.929228 1_555
Mn0 O17 1.936682 1_555
Mn0 O36 1.944136 1_655
Mn0 O40 1.948596 1_655
Mn0 O44 1.952639 1_655
Mn1 O15 1.922025 1_555
Mn1 O19 1.935733 1_555
Mn1 O25 1.938740 1_555
Mn1 O42 1.944477 1_655
Mn1 O47 1.946499 1_655
Mn1 O45 1.953875 1_655
Mn2 O1 1.933506 1_555
Mn2 O8 1.934575 1_555
Mn2 O16 1.940613 1_555
Mn2 O4 1.944368 1_555
Mn2 O21 1.947677 1_555
Mn2 O27 1.948307 1_555
Mn3 O16 1.934748 1_555
Mn3 O28 1.935805 1_555
Mn3 O22 1.939148 1_555
Mn3 O8 1.941503 1_555
Mn3 O2 1.945289 1_555
Mn3 O5 1.948240 1_555
Mn4 O14 1.929909 1_555
Mn4 O6 1.931489 1_555
Mn4 O24 1.941355 1_555
Mn4 O10 1.942796 1_555
Mn4 O34 1.947548 1_555
Mn4 O29 1.950344 1_555
Mn5 O24 1.926787 1_555
Mn5 O35 1.932580 1_555
Mn5 O30 1.933380 1_555
Mn5 O7 1.933815 1_555
Mn5 O14 1.942141 1_555
Mn5 O11 1.960078 1_555
Mn6 O23 1.931938 1_555
Mn6 O12 1.935852 1_555
Mn6 O33 1.940068 1_555
Mn6 O17 1.941619 1_555
Mn6 O40 1.942435 1_555
Mn6 O36 1.947468 1_555
Mn7 O41 1.923980 1_555
Mn7 O23 1.930510 1_555
Mn7 O33 1.937392 1_555
Mn7 O18 1.942853 1_555
Mn7 O13 1.943801 1_555
Mn7 O37 1.953630 1_555
Mn8 O31 1.935225 1_555
Mn8 O19 1.937352 1_555
Mn8 O25 1.940743 1_555
Mn8 O39 1.941180 1_555
Mn8 O45 1.943203 1_555
Mn8 O42 1.946857 1_555
Mn9 O46 1.923507 1_555
Mn9 O31 1.935254 1_555
Mn9 O26 1.937574 1_555
Mn9 O39 1.941216 1_555
Mn9 O43 1.947707 1_555
Mn9 O20 1.948053 1_555
Mn10 O0 1.934462 1_465
Mn10 O4 1.935742 1_455
Mn10 O1 1.940964 1_455
Mn10 O32 1.941896 1_565
Mn10 O21 1.945909 1_555
Mn10 O27 1.947691 1_555
Mn11 O22 1.931838 1_555
Mn11 O32 1.935692 1_555
Mn11 O0 1.942789 1_455
Mn11 O28 1.942858 1_555
Mn11 O2 1.946371 1_455
Mn11 O5 1.948418 1_455
Mn12 O38 1.926875 1_565
Mn12 O10 1.931576 1_455
Mn12 O34 1.933019 1_555
Mn12 O6 1.945691 1_455
Mn12 O3 1.947500 1_465
Mn12 O29 1.950709 1_555
Cr0 O37 1.904338 1_655
Cr0 O44 1.911767 1_645
Cr0 O9 1.966088 1_545
Cr0 O18 1.968636 1_555
Cr0 O41 1.969517 1_655
Cr0 O13 1.973184 1_555
Cr1 O43 1.915225 1_655
Cr1 O47 1.916078 1_645
Cr1 O46 1.950193 1_655
Cr1 O20 1.950500 1_555
Cr1 O15 1.978939 1_545
Cr1 O26 1.988696 1_555
Cr2 O3 1.912502 1_455
Cr2 O11 1.913057 1_455
Cr2 O30 1.957959 1_555
Cr2 O35 1.960973 1_555
Cr2 O38 1.967297 1_555
Cr2 O7 1.977174 1_455
