# generated using pymatgen
data_Li2Fe3SbO8
_symmetry_space_group_name_H-M   'P 1'
_cell_length_a   6.05007894
_cell_length_b   10.65870414
_cell_length_c   6.03820150
_cell_angle_alpha   73.54316241
_cell_angle_beta   119.92909541
_cell_angle_gamma   89.93927442
_symmetry_Int_Tables_number   1
_chemical_formula_structural   Li2Fe3SbO8
_chemical_formula_sum   'Li4 Fe6 Sb2 O16'
_cell_volume   318.84337973
_cell_formula_units_Z   2
loop_
 _symmetry_equiv_pos_site_id
 _symmetry_equiv_pos_as_xyz
  1  'x, y, z'
loop_
 _atom_site_type_symbol
 _atom_site_label
 _atom_site_symmetry_multiplicity
 _atom_site_fract_x
 _atom_site_fract_y
 _atom_site_fract_z
 _atom_site_occupancy
  Li  Li0  1  0.93394000  0.19825700  0.86784300  1
  Li  Li1  1  0.43395500  0.69824700  0.86786500  1
  Li  Li2  1  0.56605200  0.30175900  0.13213600  1
  Li  Li3  1  0.06603400  0.80176100  0.13211700  1
  Fe  Fe0  1  0.50029100  0.99985900  0.00025500  1
  Fe  Fe1  1  0.49976500  0.00000300  0.49974100  1
  Fe  Fe2  1  0.49969500  0.49985400  0.49992600  1
  Fe  Fe3  1  0.00000700  0.50015400  0.00002800  1
  Fe  Fe4  1  0.00018900  0.49988700  0.50022200  1
  Fe  Fe5  1  0.00008900  0.00018100  0.49996900  1
  Sb  Sb0  1  0.75002100  0.74995800  0.50002500  1
  Sb  Sb1  1  0.25002000  0.24996100  0.50002300  1
  O  O0  1  0.86542200  0.40024000  0.73261700  1
  O  O1  1  0.36540900  0.90023200  0.73258900  1
  O  O2  1  0.63457800  0.09980000  0.26737300  1
  O  O3  1  0.13457000  0.59980800  0.26738700  1
  O  O4  1  0.09416100  0.62440600  0.73487800  1
  O  O5  1  0.59409200  0.12442000  0.73482800  1
  O  O6  1  0.64060600  0.62474200  0.73472500  1
  O  O7  1  0.14063200  0.12476100  0.73472200  1
  O  O8  1  0.64063400  0.62474700  0.28118100  1
  O  O9  1  0.14060000  0.12477400  0.28110300  1
  O  O10  1  0.85934900  0.87525800  0.71879100  1
  O  O11  1  0.35939000  0.37523200  0.71886900  1
  O  O12  1  0.85939800  0.87526500  0.26526700  1
  O  O13  1  0.35936400  0.37524900  0.26525900  1
  O  O14  1  0.40583800  0.87559800  0.26511100  1
  O  O15  1  0.90590000  0.37558900  0.26514700  1
loop_
_geom_bond_atom_site_label_1
_geom_bond_atom_site_label_2
_geom_bond_distance
_geom_bond_site_symmetry_2
Li0 O0 2.034158 1_555
Li0 O9 2.044697 1_656
Li0 O7 2.044810 1_655
Li0 O5 2.050791 1_555
Li1 O1 2.034179 1_555
Li1 O6 2.044750 1_555
Li1 O8 2.044977 1_556
Li1 O4 2.050549 1_555
Li2 O2 2.033917 1_555
Li2 O11 2.044727 1_554
Li2 O13 2.044769 1_555
Li2 O15 2.050754 1_555
Li3 O3 2.033856 1_555
Li3 O12 2.044720 1_455
Li3 O10 2.045024 1_454
Li3 O14 2.050576 1_555
Fe0 O1 2.015908 1_554
Fe0 O2 2.015939 1_565
Fe0 O14 2.086093 1_555
Fe0 O5 2.087336 1_564
Fe0 O12 2.089310 1_555
Fe0 O7 2.093086 1_564
Fe1 O1 2.015821 1_545
Fe1 O2 2.015822 1_555
Fe1 O14 2.085899 1_545
Fe1 O5 2.087843 1_555
Fe1 O9 2.090425 1_555
Fe1 O10 2.091967 1_545
Fe2 O3 2.009668 1_555
Fe2 O0 2.011207 1_555
Fe2 O11 2.088047 1_555
Fe2 O13 2.088242 1_555
Fe2 O8 2.091360 1_555
Fe2 O6 2.091507 1_555
Fe3 O3 2.014726 1_555
Fe3 O0 2.017054 1_454
Fe3 O4 2.086150 1_554
Fe3 O15 2.087223 1_455
Fe3 O6 2.090570 1_454
Fe3 O13 2.091777 1_555
Fe4 O0 2.015206 1_455
Fe4 O3 2.016405 1_555
Fe4 O15 2.086755 1_455
Fe4 O4 2.087002 1_555
Fe4 O11 2.090015 1_555
Fe4 O8 2.092402 1_455
Fe5 O2 2.010243 1_455
Fe5 O1 2.010536 1_545
Fe5 O7 2.088450 1_555
Fe5 O9 2.088502 1_555
Fe5 O10 2.090940 1_445
Fe5 O12 2.091278 1_445
O4 Sb0 2.027186 1_455
O5 Sb1 2.026854 1_555
O6 Sb0 2.023404 1_555
O7 Sb1 2.023211 1_555
O8 Sb0 2.023289 1_555
O9 Sb1 2.023384 1_555
O10 Sb0 2.023771 1_555
O11 Sb1 2.023837 1_555
O12 Sb0 2.023933 1_555
O13 Sb1 2.023729 1_555
O14 Sb0 2.027795 1_555
O15 Sb1 2.027478 1_655
