# generated using pymatgen
data_AlZnH16N(OF)6
_symmetry_space_group_name_H-M   'P 1'
_cell_length_a   6.60110500
_cell_length_b   12.73459000
_cell_length_c   12.91154212
_cell_angle_alpha   84.56300492
_cell_angle_beta   90.00000000
_cell_angle_gamma   90.00000000
_symmetry_Int_Tables_number   1
_chemical_formula_structural   AlZnH16N(OF)6
_chemical_formula_sum   'Al4 Zn4 H64 N4 O24 F24'
_cell_volume   1080.49166688
_cell_formula_units_Z   4
loop_
 _symmetry_equiv_pos_site_id
 _symmetry_equiv_pos_as_xyz
  1  'x, y, z'
loop_
 _atom_site_type_symbol
 _atom_site_label
 _atom_site_symmetry_multiplicity
 _atom_site_fract_x
 _atom_site_fract_y
 _atom_site_fract_z
 _atom_site_occupancy
  Al  Al0  1  0.00000000  0.00000000  0.50000000  1
  Al  Al1  1  0.50000000  0.00000000  0.00000000  1
  Al  Al2  1  0.00000000  0.50000000  0.50000000  1
  Al  Al3  1  0.50000000  0.50000000  0.00000000  1
  Zn  Zn0  1  0.47234000  0.76905500  0.69408200  1
  Zn  Zn1  1  0.02766000  0.76905500  0.19408200  1
  Zn  Zn2  1  0.97234000  0.23094500  0.80591800  1
  Zn  Zn3  1  0.52766000  0.23094500  0.30591800  1
  H  H0  1  0.39618100  0.97301300  0.62932900  1
  H  H1  1  0.63556000  0.96208400  0.61945000  1
  H  H2  1  0.10381900  0.97301300  0.12932900  1
  H  H3  1  0.86444000  0.96208400  0.11945000  1
  H  H4  1  0.21627000  0.87179700  0.80800300  1
  H  H5  1  0.63060400  0.84451900  0.86440000  1
  H  H6  1  0.09587800  0.85456300  0.70238100  1
  H  H7  1  0.28373000  0.87179700  0.30800300  1
  H  H8  1  0.86939600  0.84451900  0.36440000  1
  H  H9  1  0.40412200  0.85456300  0.20238100  1
  H  H10  1  0.30573700  0.82835000  0.50571300  1
  H  H11  1  0.19426300  0.82835000  0.00571300  1
  H  H12  1  0.54260700  0.72839400  0.89734400  1
  H  H13  1  0.83361600  0.76844000  0.61175500  1
  H  H14  1  0.23522100  0.71121900  0.53295600  1
  H  H15  1  0.95739300  0.72839400  0.39734400  1
  H  H16  1  0.66638400  0.76844000  0.11175500  1
  H  H17  1  0.00122400  0.68334900  0.94239700  1
  H  H18  1  0.02395300  0.68826600  0.81377100  1
  H  H19  1  0.26477900  0.71121900  0.03295600  1
  H  H20  1  0.49877600  0.68334900  0.44239700  1
  H  H21  1  0.75384500  0.64803300  0.60905900  1
  H  H22  1  0.47604700  0.68826600  0.31377100  1
  H  H23  1  0.83984600  0.61192000  0.87370600  1
  H  H24  1  0.74615500  0.64803300  0.10905900  1
  H  H25  1  0.08753800  0.57636200  0.89001800  1
  H  H26  1  0.66015400  0.61192000  0.37370600  1
  H  H27  1  0.44814700  0.56964400  0.78183300  1
  H  H28  1  0.28090800  0.57114300  0.68997400  1
  H  H29  1  0.41246200  0.57636200  0.39001800  1
  H  H30  1  0.05185300  0.56964400  0.28183300  1
  H  H31  1  0.21909200  0.57114300  0.18997400  1
  H  H32  1  0.78090800  0.42885700  0.81002600  1
  H  H33  1  0.94814700  0.43035600  0.71816700  1
  H  H34  1  0.58753800  0.42363800  0.60998200  1
  H  H35  1  0.71909200  0.42885700  0.31002600  1
  H  H36  1  0.55185300  0.43035600  0.21816700  1
  H  H37  1  0.33984600  0.38808000  0.62629400  1
  H  H38  1  0.91246200  0.42363800  0.10998200  1
  H  H39  1  0.25384500  0.35196700  0.89094100  1
  H  H40  1  0.16015400  0.38808000  0.12629400  1
  H  H41  1  0.52395300  0.31173400  0.68622900  1
  H  H42  1  0.24615500  0.35196700  0.39094100  1
  H  H43  1  0.50122400  0.31665100  0.55760300  1
  H  H44  1  0.73522100  0.28878100  0.96704400  1
  H  H45  1  0.97604700  0.31173400  0.18622900  1
  H  H46  1  0.99877600  0.31665100  0.05760300  1
  H  H47  1  0.33361600  0.23156000  0.88824500  1
  H  H48  1  0.04260700  0.27160600  0.60265600  1
  H  H49  1  0.76477900  0.28878100  0.46704400  1
  H  H50  1  0.16638400  0.23156000  0.38824500  1
  H  H51  1  0.45739300  0.27160600  0.10265600  1
  H  H52  1  0.80573700  0.17165000  0.99428700  1
  H  H53  1  0.69426300  0.17165000  0.49428700  1
  H  H54  1  0.59587800  0.14543700  0.79761900  1
  H  H55  1  0.13060400  0.15548100  0.63560000  1
  H  H56  1  0.71627000  0.12820300  0.69199700  1
  H  H57  1  0.90412200  0.14543700  0.29761900  1
  H  H58  1  0.36939600  0.15548100  0.13560000  1
  H  H59  1  0.78373000  0.12820300  0.19199700  1
  H  H60  1  0.13556000  0.03791600  0.88055000  1
  H  H61  1  0.89618100  0.02698700  0.87067100  1
  H  H62  1  0.36444000  0.03791600  0.38055000  1
  H  H63  1  0.60381900  0.02698700  0.37067100  1
  N  N0  1  0.98624200  0.63909900  0.87917000  1
  N  N1  1  0.51375800  0.63909900  0.37917000  1
  N  N2  1  0.48624200  0.36090100  0.62083000  1
  N  N3  1  0.01375800  0.36090100  0.12083000  1
  O  O0  1  0.51510200  0.93067900  0.65563300  1
  O  O1  1  0.98489800  0.93067900  0.15563300  1
  O  O2  1  0.18262400  0.81990600  0.75860800  1
  O  O3  1  0.60888700  0.77331400  0.84021500  1
  O  O4  1  0.31737600  0.81990600  0.25860800  1
  O  O5  1  0.35291300  0.75919400  0.54001300  1
  O  O6  1  0.89111300  0.77331400  0.34021500  1
  O  O7  1  0.75174300  0.71124800  0.64846800  1
  O  O8  1  0.14708700  0.75919400  0.04001300  1
  O  O9  1  0.74825700  0.71124800  0.14846800  1
  O  O10  1  0.36205200  0.61519600  0.73341000  1
  O  O11  1  0.13794800  0.61519600  0.23341000  1
  O  O12  1  0.86205200  0.38480400  0.76659000  1
  O  O13  1  0.63794800  0.38480400  0.26659000  1
  O  O14  1  0.25174300  0.28875200  0.85153200  1
  O  O15  1  0.85291300  0.24080600  0.95998700  1
  O  O16  1  0.24825700  0.28875200  0.35153200  1
  O  O17  1  0.10888700  0.22668600  0.65978500  1
  O  O18  1  0.64708700  0.24080600  0.45998700  1
  O  O19  1  0.68262400  0.18009400  0.74139200  1
  O  O20  1  0.39111300  0.22668600  0.15978500  1
  O  O21  1  0.81737600  0.18009400  0.24139200  1
  O  O22  1  0.01510200  0.06932100  0.84436700  1
  O  O23  1  0.48489800  0.06932100  0.34436700  1
  F  F0  1  0.69123400  0.95582400  0.91123100  1
  F  F1  1  0.29718300  0.93177500  0.93213300  1
  F  F2  1  0.80876600  0.95582400  0.41123100  1
  F  F3  1  0.20281700  0.93177500  0.43213300  1
  F  F4  1  0.96097700  0.88104500  0.59004000  1
  F  F5  1  0.53902300  0.88104500  0.09004000  1
  F  F6  1  0.44161500  0.64083400  0.98653300  1
  F  F7  1  0.05838500  0.64083400  0.48653300  1
  F  F8  1  0.61816200  0.51329000  0.86840900  1
  F  F9  1  0.75475000  0.52876000  0.55758400  1
  F  F10  1  0.25475000  0.47124000  0.94241600  1
  F  F11  1  0.11816200  0.48671000  0.63159100  1
  F  F12  1  0.88183800  0.51329000  0.36840900  1
  F  F13  1  0.74525000  0.52876000  0.05758400  1
  F  F14  1  0.24525000  0.47124000  0.44241600  1
  F  F15  1  0.38183800  0.48671000  0.13159100  1
  F  F16  1  0.94161500  0.35916600  0.51346700  1
  F  F17  1  0.55838500  0.35916600  0.01346700  1
  F  F18  1  0.46097700  0.11895500  0.90996000  1
  F  F19  1  0.03902300  0.11895500  0.40996000  1
  F  F20  1  0.79718300  0.06822500  0.56786700  1
  F  F21  1  0.19123400  0.04417600  0.58876900  1
  F  F22  1  0.70281700  0.06822500  0.06786700  1
  F  F23  1  0.30876600  0.04417600  0.08876900  1
loop_
_geom_bond_atom_site_label_1
_geom_bond_atom_site_label_2
_geom_bond_distance
_geom_bond_site_symmetry_2
Al0 F21 1.829168 1_555
Al0 F2 1.829168 1_445
Al0 F19 1.838181 1_555
Al0 F4 1.838181 1_445
Al0 F20 1.859943 1_455
Al0 F3 1.859943 1_545
Al1 F0 1.829168 1_544
Al1 F23 1.829168 1_555
Al1 F18 1.838181 1_554
Al1 F5 1.838181 1_545
Al1 F22 1.859943 1_555
Al1 F1 1.859943 1_544
Al2 F7 1.826523 1_555
Al2 F16 1.826523 1_455
Al2 F9 1.832876 1_455
Al2 F14 1.832876 1_555
Al2 F11 1.862605 1_555
Al2 F12 1.862605 1_455
Al3 F6 1.826523 1_554
Al3 F17 1.826523 1_555
Al3 F13 1.832876 1_555
Al3 F10 1.832876 1_554
Al3 F15 1.862605 1_555
Al3 F8 1.862605 1_554
H0 O0 0.993743 1_555
H1 O0 0.987454 1_555
H2 O1 0.993743 1_455
H3 O1 0.987454 1_555
H4 O2 0.986209 1_555
H5 O3 0.996968 1_555
H6 O2 0.994486 1_555
H7 O4 0.986209 1_555
H8 O6 0.996968 1_555
H9 O4 0.994486 1_555
H10 O5 0.997389 1_555
H11 O8 0.997389 1_555
H12 O3 0.991353 1_555
H13 O7 0.990862 1_555
H14 O5 0.997833 1_555
H15 O6 0.991353 1_555
H16 O9 0.990862 1_555
H17 N0 1.039680 1_455
H18 N0 1.032871 1_455
H19 O8 0.997833 1_555
H20 N1 1.039680 1_555
H21 O7 0.992360 1_555
H22 N1 1.032871 1_555
H23 N0 1.031155 1_555
H24 O9 0.992360 1_555
H25 N0 1.041064 1_455
H26 N1 1.031155 1_555
H27 O10 0.990786 1_555
H28 O10 0.987813 1_555
H29 N1 1.041064 1_555
H30 O11 0.990786 1_555
H31 O11 0.987813 1_555
H32 O12 0.987813 1_555
H33 O12 0.990786 1_555
H34 N2 1.041064 1_555
H35 O13 0.987813 1_555
H36 O13 0.990786 1_555
H37 N2 1.031155 1_555
H38 N3 1.041064 1_655
H39 O14 0.992360 1_555
H40 N3 1.031155 1_555
H41 N2 1.032871 1_555
H42 O16 0.992360 1_555
H43 N2 1.039680 1_555
H44 O15 0.997833 1_555
H45 N3 1.032871 1_655
H46 N3 1.039680 1_655
H47 O14 0.990862 1_555
H48 O17 0.991353 1_555
H49 O18 0.997833 1_555
H50 O16 0.990862 1_555
H51 O20 0.991353 1_555
H52 O15 0.997389 1_555
H53 O18 0.997389 1_555
H54 O19 0.994486 1_555
H55 O17 0.996968 1_555
H56 O19 0.986209 1_555
H57 O21 0.994486 1_555
H58 O20 0.996968 1_555
H59 O21 0.986209 1_555
H60 O22 0.987454 1_555
H61 O22 0.993743 1_655
H62 O23 0.987454 1_555
H63 O23 0.993743 1_555
O0 Zn0 2.090156 1_555
O1 Zn1 2.090156 1_655
O2 Zn0 2.207518 1_555
O3 Zn0 2.096380 1_555
O4 Zn1 2.207518 1_555
O5 Zn0 2.154482 1_555
O6 Zn1 2.096380 1_655
O7 Zn0 2.091083 1_555
O8 Zn1 2.154482 1_555
O9 Zn1 2.091083 1_655
O10 Zn0 2.106728 1_555
O11 Zn1 2.106728 1_555
O12 Zn2 2.106728 1_555
O13 Zn3 2.106728 1_555
O14 Zn2 2.091083 1_455
O15 Zn2 2.154482 1_555
O16 Zn3 2.091083 1_555
O17 Zn2 2.096380 1_455
O18 Zn3 2.154482 1_555
O19 Zn2 2.207518 1_555
O20 Zn3 2.096380 1_555
O21 Zn3 2.207518 1_555
O22 Zn2 2.090156 1_455
O23 Zn3 2.090156 1_555
F6 H19 1.620833 1_556
F6 H12 1.664490 1_555
F7 H14 1.620833 1_555
F7 H15 1.664490 1_455
F16 H49 1.620833 1_555
F16 H48 1.664490 1_655
F17 H44 1.620833 1_554
F17 H51 1.664490 1_555
