# generated using pymatgen
data_Ag4Te(ClO3)2
_symmetry_space_group_name_H-M   'P 1'
_cell_length_a   9.73425300
_cell_length_b   9.73425300
_cell_length_c   9.73425300
_cell_angle_alpha   90.00000000
_cell_angle_beta   90.00000000
_cell_angle_gamma   90.00000000
_symmetry_Int_Tables_number   1
_chemical_formula_structural   Ag4Te(ClO3)2
_chemical_formula_sum   'Ag16 Te4 Cl8 O24'
_cell_volume   922.37577660
_cell_formula_units_Z   4
loop_
 _symmetry_equiv_pos_site_id
 _symmetry_equiv_pos_as_xyz
  1  'x, y, z'
loop_
 _atom_site_type_symbol
 _atom_site_label
 _atom_site_symmetry_multiplicity
 _atom_site_fract_x
 _atom_site_fract_y
 _atom_site_fract_z
 _atom_site_occupancy
  Ag  Ag0  1  0.00074500  0.50074500  0.99925500  1
  Ag  Ag1  1  0.50074500  0.99925500  0.00074500  1
  Ag  Ag2  1  0.99925500  0.00074500  0.50074500  1
  Ag  Ag3  1  0.49925500  0.49925500  0.49925500  1
  Ag  Ag4  1  0.74955300  0.49171700  0.14195100  1
  Ag  Ag5  1  0.85804900  0.24955300  0.00828300  1
  Ag  Ag6  1  0.99171700  0.35804900  0.25044700  1
  Ag  Ag7  1  0.24955300  0.00828300  0.85804900  1
  Ag  Ag8  1  0.35804900  0.25044700  0.99171700  1
  Ag  Ag9  1  0.49171700  0.14195100  0.74955300  1
  Ag  Ag10  1  0.25044700  0.99171700  0.35804900  1
  Ag  Ag11  1  0.14195100  0.74955300  0.49171700  1
  Ag  Ag12  1  0.00828300  0.85804900  0.24955300  1
  Ag  Ag13  1  0.75044700  0.50828300  0.64195100  1
  Ag  Ag14  1  0.64195100  0.75044700  0.50828300  1
  Ag  Ag15  1  0.50828300  0.64195100  0.75044700  1
  Te  Te0  1  0.40084900  0.90084900  0.59915100  1
  Te  Te1  1  0.90084900  0.59915100  0.40084900  1
  Te  Te2  1  0.59915100  0.40084900  0.90084900  1
  Te  Te3  1  0.09915100  0.09915100  0.09915100  1
  Cl  Cl0  1  0.16838400  0.66838400  0.83161600  1
  Cl  Cl1  1  0.66838400  0.83161600  0.16838400  1
  Cl  Cl2  1  0.83161600  0.16838400  0.66838400  1
  Cl  Cl3  1  0.33161600  0.33161600  0.33161600  1
  Cl  Cl4  1  0.68581400  0.18581400  0.31418600  1
  Cl  Cl5  1  0.18581400  0.31418600  0.68581400  1
  Cl  Cl6  1  0.31418600  0.68581400  0.18581400  1
  Cl  Cl7  1  0.81418600  0.81418600  0.81418600  1
  O  O0  1  0.17842100  0.61042900  0.68892300  1
  O  O1  1  0.31107700  0.67842100  0.88957100  1
  O  O2  1  0.11042900  0.81107700  0.82157900  1
  O  O3  1  0.67842100  0.88957100  0.31107700  1
  O  O4  1  0.81107700  0.82157900  0.11042900  1
  O  O5  1  0.61042900  0.68892300  0.17842100  1
  O  O6  1  0.82157900  0.11042900  0.81107700  1
  O  O7  1  0.68892300  0.17842100  0.61042900  1
  O  O8  1  0.88957100  0.31107700  0.67842100  1
  O  O9  1  0.32157900  0.38957100  0.18892300  1
  O  O10  1  0.18892300  0.32157900  0.38957100  1
  O  O11  1  0.38957100  0.18892300  0.32157900  1
  O  O12  1  0.83766200  0.16991000  0.34653700  1
  O  O13  1  0.65346300  0.33766200  0.33009000  1
  O  O14  1  0.66991000  0.15346300  0.16233800  1
  O  O15  1  0.33766200  0.33009000  0.65346300  1
  O  O16  1  0.15346300  0.16233800  0.66991000  1
  O  O17  1  0.16991000  0.34653700  0.83766200  1
  O  O18  1  0.16233800  0.66991000  0.15346300  1
  O  O19  1  0.34653700  0.83766200  0.16991000  1
  O  O20  1  0.33009000  0.65346300  0.33766200  1
  O  O21  1  0.66233800  0.83009000  0.84653700  1
  O  O22  1  0.84653700  0.66233800  0.83009000  1
  O  O23  1  0.83009000  0.84653700  0.66233800  1
loop_
_geom_bond_atom_site_label_1
_geom_bond_atom_site_label_2
_geom_bond_distance
_geom_bond_site_symmetry_2
Ag0 O18 2.727488 1_556
Ag0 O22 2.727488 1_455
Ag0 O17 2.727488 1_555
Ag0 Cl0 2.826431 1_555
Ag1 O14 2.727488 1_565
Ag1 O21 2.727488 1_554
Ag1 O19 2.727488 1_555
Ag1 Cl1 2.826431 1_555
Ag2 O16 2.727488 1_655
Ag2 O23 2.727488 1_545
Ag2 O12 2.727488 1_555
Ag2 Cl2 2.826431 1_555
Ag3 O13 2.727488 1_555
Ag3 O15 2.727488 1_555
Ag3 O20 2.727488 1_555
Ag3 Cl3 2.826431 1_555
Ag4 O5 2.375951 1_555
Ag4 O13 2.545140 1_555
Ag4 Te2 2.904136 1_554
Ag4 Te1 3.100642 1_555
Ag5 O6 2.375951 1_554
Ag5 O14 2.545140 1_555
Ag5 Te3 2.904136 1_655
Ag5 Te2 3.100642 1_554
Ag6 O10 2.375951 1_655
Ag6 O12 2.545140 1_555
Ag6 Te1 2.904136 1_555
Ag6 Te3 3.100642 1_655
Ag7 O2 2.375951 1_545
Ag7 O16 2.545140 1_555
Ag7 Te3 2.904136 1_556
Ag7 Te0 3.100642 1_545
Ag8 O9 2.375951 1_556
Ag8 O17 2.545140 1_555
Ag8 Te2 2.904136 1_555
Ag8 Te3 3.100642 1_556
Ag9 O7 2.375951 1_555
Ag9 O15 2.545140 1_555
Ag9 Te0 2.904136 1_545
Ag9 Te2 3.100642 1_555
Ag10 O11 2.375951 1_565
Ag10 O19 2.545140 1_555
Ag10 Te0 2.904136 1_555
Ag10 Te3 3.100642 1_565
Ag11 O0 2.375951 1_555
Ag11 O20 2.545140 1_555
Ag11 Te1 2.904136 1_455
Ag11 Te0 3.100642 1_555
Ag12 O4 2.375951 1_455
Ag12 O18 2.545140 1_555
Ag12 Te3 2.904136 1_565
Ag12 Te1 3.100642 1_455
Ag13 O8 2.375951 1_555
Ag13 O22 2.545140 1_555
Ag13 Te1 2.904136 1_555
Ag13 Te2 3.100642 1_555
Ag14 O3 2.375951 1_555
Ag14 O23 2.545140 1_555
Ag14 Te0 2.904136 1_555
Ag14 Te1 3.100642 1_555
Ag15 O1 2.375951 1_555
Ag15 O21 2.545140 1_555
Ag15 Te2 2.904136 1_555
Ag15 Te0 3.100642 1_555
Cl0 O1 1.502384 1_555
Cl0 O0 1.502384 1_555
Cl0 O2 1.502384 1_555
Cl1 O3 1.502384 1_555
Cl1 O5 1.502384 1_555
Cl1 O4 1.502384 1_555
Cl2 O8 1.502384 1_555
Cl2 O7 1.502384 1_555
Cl2 O6 1.502384 1_555
Cl3 O9 1.502384 1_555
Cl3 O10 1.502384 1_555
Cl3 O11 1.502384 1_555
Cl4 O12 1.519209 1_555
Cl4 O13 1.519209 1_555
Cl4 O14 1.519209 1_555
Cl5 O17 1.519209 1_555
Cl5 O15 1.519209 1_555
Cl5 O16 1.519209 1_555
Cl6 O19 1.519209 1_555
Cl6 O20 1.519209 1_555
Cl6 O18 1.519209 1_555
Cl7 O21 1.519209 1_555
Cl7 O22 1.519209 1_555
Cl7 O23 1.519209 1_555
