# generated using pymatgen
data_Li2FeCo3O8
_symmetry_space_group_name_H-M   'P 1'
_cell_length_a   5.77652880
_cell_length_b   5.77652880
_cell_length_c   9.41620247
_cell_angle_alpha   89.69988631
_cell_angle_beta   89.69988631
_cell_angle_gamma   119.79188778
_symmetry_Int_Tables_number   1
_chemical_formula_structural   Li2FeCo3O8
_chemical_formula_sum   'Li4 Fe2 Co6 O16'
_cell_volume   272.66133535
_cell_formula_units_Z   2
loop_
 _symmetry_equiv_pos_site_id
 _symmetry_equiv_pos_as_xyz
  1  'x, y, z'
loop_
 _atom_site_type_symbol
 _atom_site_label
 _atom_site_symmetry_multiplicity
 _atom_site_fract_x
 _atom_site_fract_y
 _atom_site_fract_z
 _atom_site_occupancy
  Li  Li0  1  0.66107100  0.32973300  0.10561900  1
  Li  Li1  1  0.00200000  0.00012600  0.00207800  1
  Li  Li2  1  0.00012600  0.00200000  0.50207800  1
  Li  Li3  1  0.32973300  0.66107100  0.60561900  1
  Fe  Fe0  1  0.67518700  0.33897600  0.51126800  1
  Fe  Fe1  1  0.33897600  0.67518700  0.01126800  1
  Co  Co0  1  0.83089900  0.66159800  0.78531800  1
  Co  Co1  1  0.33769700  0.16854000  0.78687900  1
  Co  Co2  1  0.83187100  0.16907900  0.78712600  1
  Co  Co3  1  0.16907900  0.83187100  0.28712600  1
  Co  Co4  1  0.66159800  0.83089900  0.28531800  1
  Co  Co5  1  0.16854000  0.33769700  0.28687900  1
  O  O0  1  0.85083500  0.67584100  0.39715900  1
  O  O1  1  0.50519500  0.46716300  0.66375100  1
  O  O2  1  0.65951900  0.31926900  0.89304800  1
  O  O3  1  0.00835500  0.01454400  0.69014300  1
  O  O4  1  0.01454400  0.00835500  0.19014300  1
  O  O5  1  0.32100500  0.15908900  0.39103300  1
  O  O6  1  0.96392400  0.46660500  0.66585200  1
  O  O7  1  0.52033400  0.03901300  0.67178700  1
  O  O8  1  0.17383000  0.84900000  0.89502000  1
  O  O9  1  0.84900000  0.17383000  0.39502000  1
  O  O10  1  0.46660500  0.96392400  0.16585200  1
  O  O11  1  0.03901300  0.52033400  0.17178700  1
  O  O12  1  0.31926900  0.65951900  0.39304800  1
  O  O13  1  0.67584100  0.85083500  0.89715900  1
  O  O14  1  0.46716300  0.50519500  0.16375100  1
  O  O15  1  0.15908900  0.32100500  0.89103300  1
loop_
_geom_bond_atom_site_label_1
_geom_bond_atom_site_label_2
_geom_bond_distance
_geom_bond_site_symmetry_2
Li0 O10 1.915926 1_545
Li0 O14 1.925912 1_555
Li0 O11 1.999901 1_655
Li0 O2 2.002773 1_554
Li1 O4 1.772640 1_555
Li1 O8 1.903504 1_544
Li1 O15 1.910715 1_554
Li1 O13 1.919194 1_444
Li2 O3 1.772640 1_555
Li2 O9 1.903504 1_455
Li2 O5 1.910715 1_555
Li2 O0 1.919194 1_445
Li3 O6 1.915926 1_455
Li3 O1 1.925912 1_555
Li3 O7 1.999901 1_565
Li3 O12 2.002773 1_555
Fe0 O0 1.993807 1_555
Fe0 O9 2.016815 1_555
Fe0 O6 2.063719 1_555
Fe0 O1 2.071960 1_555
Fe0 O5 2.114576 1_555
Fe0 O7 2.122575 1_555
Fe1 O13 1.993807 1_554
Fe1 O8 2.016815 1_554
Fe1 O10 2.063719 1_555
Fe1 O14 2.071960 1_555
Fe1 O15 2.114576 1_554
Fe1 O11 2.122575 1_555
Co0 O3 1.976137 1_665
Co0 O2 1.985603 1_555
Co0 O6 1.997236 1_555
Co0 O1 2.011919 1_555
Co0 O8 2.016258 1_655
Co0 O13 2.020247 1_555
Co1 O1 1.888062 1_555
Co1 O8 1.890499 1_545
Co1 O3 1.893492 1_555
Co1 O7 1.904799 1_555
Co1 O2 1.906203 1_555
Co1 O15 1.924416 1_555
Co2 O6 1.872773 1_555
Co2 O3 1.890302 1_655
Co2 O13 1.894503 1_545
Co2 O2 1.896221 1_555
Co2 O7 1.915209 1_555
Co2 O15 1.918398 1_655
Co3 O10 1.872773 1_555
Co3 O4 1.890302 1_565
Co3 O0 1.894503 1_455
Co3 O12 1.896221 1_555
Co3 O11 1.915209 1_555
Co3 O5 1.918398 1_565
Co4 O4 1.976137 1_665
Co4 O12 1.985603 1_555
Co4 O10 1.997236 1_555
Co4 O14 2.011919 1_555
Co4 O9 2.016258 1_565
Co4 O0 2.020247 1_555
Co5 O14 1.888062 1_555
Co5 O9 1.890499 1_455
Co5 O4 1.893492 1_555
Co5 O11 1.904799 1_555
Co5 O12 1.906203 1_555
Co5 O5 1.924416 1_555
