# generated using pymatgen
data_Li2FeSiO4
_symmetry_space_group_name_H-M   'P 1'
_cell_length_a   5.05774900
_cell_length_b   6.29576600
_cell_length_c   11.01063600
_cell_angle_alpha   90.00000000
_cell_angle_beta   90.00000000
_cell_angle_gamma   90.00000000
_symmetry_Int_Tables_number   1
_chemical_formula_structural   Li2FeSiO4
_chemical_formula_sum   'Li8 Fe4 Si4 O16'
_cell_volume   350.60512191
_cell_formula_units_Z   4
loop_
 _symmetry_equiv_pos_site_id
 _symmetry_equiv_pos_as_xyz
  1  'x, y, z'
loop_
 _atom_site_type_symbol
 _atom_site_label
 _atom_site_symmetry_multiplicity
 _atom_site_fract_x
 _atom_site_fract_y
 _atom_site_fract_z
 _atom_site_occupancy
  Li  Li0  1  0.26486500  0.74907500  0.92325300  1
  Li  Li1  1  0.76390500  0.50329300  0.84107800  1
  Li  Li2  1  0.26390500  0.00329300  0.65892200  1
  Li  Li3  1  0.76486500  0.24907500  0.57674700  1
  Li  Li4  1  0.26486500  0.75092500  0.42325300  1
  Li  Li5  1  0.76390500  0.99670700  0.34107800  1
  Li  Li6  1  0.26390500  0.49670700  0.15892200  1
  Li  Li7  1  0.76486500  0.25092500  0.07674700  1
  Fe  Fe0  1  0.26266700  0.48982600  0.66704800  1
  Fe  Fe1  1  0.26266700  0.01017400  0.16704800  1
  Fe  Fe2  1  0.76266700  0.98982600  0.83295200  1
  Fe  Fe3  1  0.76266700  0.51017400  0.33295200  1
  Si  Si0  1  0.25796500  0.25125500  0.91240400  1
  Si  Si1  1  0.75796500  0.75125500  0.58759600  1
  Si  Si2  1  0.25796500  0.24874500  0.41240400  1
  Si  Si3  1  0.75796500  0.74874500  0.08759600  1
  O  O0  1  0.86787800  0.75341000  0.94607800  1
  O  O1  1  0.93160000  0.25087500  0.91230900  1
  O  O2  1  0.36374000  0.47053000  0.84422300  1
  O  O3  1  0.35775400  0.03605600  0.83775700  1
  O  O4  1  0.86374000  0.97053000  0.65577700  1
  O  O5  1  0.85775400  0.53605600  0.66224300  1
  O  O6  1  0.43160000  0.75087500  0.58769100  1
  O  O7  1  0.36787800  0.25341000  0.55392200  1
  O  O8  1  0.86787800  0.74659000  0.44607800  1
  O  O9  1  0.93160000  0.24912500  0.41230900  1
  O  O10  1  0.36374000  0.02947000  0.34422300  1
  O  O11  1  0.35775400  0.46394400  0.33775700  1
  O  O12  1  0.86374000  0.52947000  0.15577700  1
  O  O13  1  0.85775400  0.96394400  0.16224300  1
  O  O14  1  0.43160000  0.74912500  0.08769100  1
  O  O15  1  0.36787800  0.24659000  0.05392200  1
loop_
_geom_bond_atom_site_label_1
_geom_bond_atom_site_label_2
_geom_bond_distance
_geom_bond_site_symmetry_2
Li0 O14 1.997327 1_556
Li0 O2 2.020541 1_555
Li0 O0 2.023712 1_455
Li0 O3 2.090763 1_565
Li1 O1 1.964674 1_555
Li1 O0 2.023056 1_555
Li1 O2 2.034713 1_555
Li1 O5 2.035966 1_555
Li2 O6 1.964674 1_545
Li2 O7 2.023056 1_555
Li2 O4 2.034713 1_445
Li2 O3 2.035966 1_555
Li3 O9 1.997327 1_555
Li3 O4 2.020541 1_545
Li3 O7 2.023712 1_555
Li3 O5 2.090763 1_555
Li4 O6 1.997327 1_555
Li4 O10 2.020541 1_565
Li4 O8 2.023712 1_455
Li4 O11 2.090763 1_555
Li5 O9 1.964674 1_565
Li5 O8 2.023056 1_555
Li5 O10 2.034713 1_565
Li5 O13 2.035966 1_555
Li6 O14 1.964674 1_555
Li6 O15 2.023056 1_555
Li6 O12 2.034713 1_455
Li6 O11 2.035966 1_555
Li7 O1 1.997327 1_554
Li7 O12 2.020541 1_555
Li7 O15 2.023712 1_555
Li7 O13 2.090763 1_545
Fe0 O7 2.012473 1_555
Fe0 O2 2.020332 1_555
Fe0 O6 2.048076 1_555
Fe0 O5 2.069204 1_455
Fe1 O15 2.012473 1_555
Fe1 O10 2.020332 1_555
Fe1 O14 2.048076 1_545
Fe1 O13 2.069204 1_445
Fe2 O0 2.012473 1_555
Fe2 O4 2.020332 1_555
Fe2 O1 2.048076 1_565
Fe2 O3 2.069204 1_565
Fe3 O8 2.012473 1_555
Fe3 O12 2.020332 1_555
Fe3 O9 2.048076 1_555
Fe3 O11 2.069204 1_555
O0 Si3 1.654660 1_556
O1 Si0 1.650674 1_655
O2 Si0 1.659992 1_555
O3 Si0 1.663089 1_555
O4 Si1 1.659992 1_555
O5 Si1 1.663089 1_555
O6 Si1 1.650674 1_555
O7 Si2 1.654660 1_555
O8 Si1 1.654660 1_555
O9 Si2 1.650674 1_655
O10 Si2 1.659992 1_555
O11 Si2 1.663089 1_555
O12 Si3 1.659992 1_555
O13 Si3 1.663089 1_555
O14 Si3 1.650674 1_555
O15 Si0 1.654660 1_554
