# generated using pymatgen
data_Li3Mn3CrO8
_symmetry_space_group_name_H-M   'P 1'
_cell_length_a   5.68805882
_cell_length_b   5.68805882
_cell_length_c   9.41422400
_cell_angle_alpha   90.00000000
_cell_angle_beta   90.00000000
_cell_angle_gamma   120.05097133
_symmetry_Int_Tables_number   1
_chemical_formula_structural   Li3Mn3CrO8
_chemical_formula_sum   'Li6 Mn6 Cr2 O16'
_cell_volume   263.64529489
_cell_formula_units_Z   2
loop_
 _symmetry_equiv_pos_site_id
 _symmetry_equiv_pos_as_xyz
  1  'x, y, z'
loop_
 _atom_site_type_symbol
 _atom_site_label
 _atom_site_symmetry_multiplicity
 _atom_site_fract_x
 _atom_site_fract_y
 _atom_site_fract_z
 _atom_site_occupancy
  Li  Li0  1  0.35095600  0.17418000  0.44570400  1
  Li  Li1  1  0.82582000  0.64904400  0.44570400  1
  Li  Li2  1  0.83486800  0.16513200  0.44757400  1
  Li  Li3  1  0.16513200  0.83486800  0.94757400  1
  Li  Li4  1  0.17418000  0.35095600  0.94570400  1
  Li  Li5  1  0.64904400  0.82582000  0.94570400  1
  Mn  Mn0  1  0.33894600  0.16663700  0.71404400  1
  Mn  Mn1  1  0.83336300  0.66105400  0.71404400  1
  Mn  Mn2  1  0.83279900  0.16720100  0.71405100  1
  Mn  Mn3  1  0.16720100  0.83279900  0.21405100  1
  Mn  Mn4  1  0.16663700  0.33894600  0.21404400  1
  Mn  Mn5  1  0.66105400  0.83336300  0.21404400  1
  Cr  Cr0  1  0.66455900  0.33544100  0.98909700  1
  Cr  Cr1  1  0.33544100  0.66455900  0.48909700  1
  O  O0  1  0.31757400  0.16168900  0.09401500  1
  O  O1  1  0.51590800  0.48409200  0.84000700  1
  O  O2  1  0.66849700  0.33150300  0.60137200  1
  O  O3  1  0.00097200  0.99902800  0.82371200  1
  O  O4  1  0.99902800  0.00097200  0.32371200  1
  O  O5  1  0.83831100  0.68242600  0.09401500  1
  O  O6  1  0.51662800  0.03162000  0.84162200  1
  O  O7  1  0.96838000  0.48337200  0.84162200  1
  O  O8  1  0.83676600  0.16323400  0.09560300  1
  O  O9  1  0.16323400  0.83676600  0.59560300  1
  O  O10  1  0.03162000  0.51662800  0.34162200  1
  O  O11  1  0.33150300  0.66849700  0.10137200  1
  O  O12  1  0.48337200  0.96838000  0.34162200  1
  O  O13  1  0.16168900  0.31757400  0.59401500  1
  O  O14  1  0.48409200  0.51590800  0.34000700  1
  O  O15  1  0.68242600  0.83831100  0.59401500  1
loop_
_geom_bond_atom_site_label_1
_geom_bond_atom_site_label_2
_geom_bond_distance
_geom_bond_site_symmetry_2
Li0 O12 1.944417 1_545
Li0 O14 1.966621 1_555
Li0 O4 2.078829 1_455
Li0 O2 2.142894 1_555
Li0 O13 2.157114 1_555
Li0 O9 2.182330 1_545
Li1 O10 1.944417 1_655
Li1 O14 1.966621 1_555
Li1 O4 2.078829 1_565
Li1 O2 2.142894 1_555
Li1 O15 2.157114 1_555
Li1 O9 2.182330 1_655
Li2 O4 1.994173 1_555
Li2 O10 2.000934 1_655
Li2 O12 2.000934 1_545
Li2 O13 2.119876 1_655
Li2 O15 2.119876 1_545
Li2 O2 2.187321 1_555
Li3 O3 1.994173 1_555
Li3 O6 2.000934 1_565
Li3 O7 2.000934 1_455
Li3 O5 2.119876 1_456
Li3 O0 2.119876 1_566
Li3 O11 2.187321 1_556
Li4 O7 1.944417 1_455
Li4 O1 1.966621 1_555
Li4 O3 2.078829 1_545
Li4 O11 2.142894 1_556
Li4 O0 2.157114 1_556
Li4 O8 2.182330 1_456
Li5 O6 1.944417 1_565
Li5 O1 1.966621 1_555
Li5 O3 2.078829 1_655
Li5 O11 2.142894 1_556
Li5 O5 2.157114 1_556
Li5 O8 2.182330 1_566
Mn0 O2 1.938491 1_555
Mn0 O6 1.957328 1_555
Mn0 O3 1.958298 1_545
Mn0 O1 1.964588 1_555
Mn0 O9 1.970941 1_545
Mn0 O13 1.974199 1_555
Mn1 O2 1.938491 1_555
Mn1 O7 1.957328 1_555
Mn1 O3 1.958298 1_655
Mn1 O1 1.964588 1_555
Mn1 O9 1.970941 1_655
Mn1 O15 1.974199 1_555
Mn2 O2 1.935669 1_555
Mn2 O3 1.952518 1_645
Mn2 O6 1.970352 1_555
Mn2 O7 1.970352 1_555
Mn2 O15 1.976288 1_545
Mn2 O13 1.976288 1_655
Mn3 O11 1.935669 1_555
Mn3 O4 1.952518 1_465
Mn3 O10 1.970352 1_555
Mn3 O12 1.970352 1_555
Mn3 O5 1.976288 1_455
Mn3 O0 1.976288 1_565
Mn4 O11 1.938491 1_555
Mn4 O10 1.957328 1_555
Mn4 O4 1.958298 1_455
Mn4 O14 1.964588 1_555
Mn4 O8 1.970941 1_455
Mn4 O0 1.974199 1_555
Mn5 O11 1.938491 1_555
Mn5 O12 1.957328 1_555
Mn5 O4 1.958298 1_565
Mn5 O14 1.964588 1_555
Mn5 O8 1.970941 1_565
Mn5 O5 1.974199 1_555
Cr0 O8 1.971098 1_556
Cr0 O5 1.973354 1_556
Cr0 O0 1.973354 1_556
Cr0 O1 2.028766 1_555
Cr0 O6 2.041006 1_555
Cr0 O7 2.041006 1_555
Cr1 O9 1.971098 1_555
Cr1 O13 1.973354 1_555
Cr1 O15 1.973354 1_555
Cr1 O14 2.028766 1_555
Cr1 O12 2.041006 1_555
Cr1 O10 2.041006 1_555
