# generated using pymatgen
data_Li3V4F19
_symmetry_space_group_name_H-M   'P 1'
_cell_length_a   5.29212100
_cell_length_b   10.43199072
_cell_length_c   12.32622790
_cell_angle_alpha   108.54936177
_cell_angle_beta   92.55789724
_cell_angle_gamma   102.96052134
_symmetry_Int_Tables_number   1
_chemical_formula_structural   Li3V4F19
_chemical_formula_sum   'Li6 V8 F38'
_cell_volume   623.73808256
_cell_formula_units_Z   2
loop_
 _symmetry_equiv_pos_site_id
 _symmetry_equiv_pos_as_xyz
  1  'x, y, z'
loop_
 _atom_site_type_symbol
 _atom_site_label
 _atom_site_symmetry_multiplicity
 _atom_site_fract_x
 _atom_site_fract_y
 _atom_site_fract_z
 _atom_site_occupancy
  Li  Li0  1  0.52392900  0.83151200  0.93563300  1
  Li  Li1  1  0.27649800  0.25506400  0.50653200  1
  Li  Li2  1  0.39830200  0.51432000  0.20513900  1
  Li  Li3  1  0.60169800  0.48568000  0.79486100  1
  Li  Li4  1  0.72350200  0.74493600  0.49346800  1
  Li  Li5  1  0.47607100  0.16848800  0.06436700  1
  V  V0  1  0.10833100  0.95154600  0.78825500  1
  V  V1  1  0.13142300  0.61810500  0.63158700  1
  V  V2  1  0.05472300  0.33741200  0.94362100  1
  V  V3  1  0.33959600  0.88419900  0.36582800  1
  V  V4  1  0.66040400  0.11580100  0.63417200  1
  V  V5  1  0.94527700  0.66258800  0.05637900  1
  V  V6  1  0.86857700  0.38189500  0.36841300  1
  V  V7  1  0.89166900  0.04845400  0.21174500  1
  F  F0  1  0.06437300  0.81457800  0.43159000  1
  F  F1  1  0.12063100  0.99142900  0.31195300  1
  F  F2  1  0.33686900  0.99567600  0.91911900  1
  F  F3  1  0.16786700  0.75300500  0.21213900  1
  F  F4  1  0.23716700  0.73830000  0.99755500  1
  F  F5  1  0.26209100  0.78076500  0.77942800  1
  F  F6  1  0.12526100  0.52387600  0.08307000  1
  F  F7  1  0.12014000  0.42512100  0.51004000  1
  F  F8  1  0.03134000  0.21335000  0.35507500  1
  F  F9  1  0.14977900  0.45547100  0.30261000  1
  F  F10  1  0.12703100  0.14850800  0.87439600  1
  F  F11  1  0.39978800  0.69532700  0.56100900  1
  F  F12  1  0.34601800  0.55040800  0.70427100  1
  F  F13  1  0.32030000  0.40917800  0.87008700  1
  F  F14  1  0.48619200  0.73557200  0.34335700  1
  F  F15  1  0.61217100  0.98103000  0.29538100  1
  F  F16  1  0.17850100  0.11011200  0.14791200  1
  F  F17  1  0.28281600  0.32666200  0.05667500  1
  F  F18  1  0.62545700  0.93135500  0.50800900  1
  F  F19  1  0.37454300  0.06864500  0.49199100  1
  F  F20  1  0.71718400  0.67333800  0.94332500  1
  F  F21  1  0.82149900  0.88988800  0.85208800  1
  F  F22  1  0.38782900  0.01897000  0.70461900  1
  F  F23  1  0.51380800  0.26442800  0.65664300  1
  F  F24  1  0.67970000  0.59082200  0.12991300  1
  F  F25  1  0.65398200  0.44959200  0.29572900  1
  F  F26  1  0.60021200  0.30467300  0.43899100  1
  F  F27  1  0.87296900  0.85149200  0.12560400  1
  F  F28  1  0.85022100  0.54452900  0.69739000  1
  F  F29  1  0.96866000  0.78665000  0.64492500  1
  F  F30  1  0.87986000  0.57487900  0.48996000  1
  F  F31  1  0.87473900  0.47612400  0.91693000  1
  F  F32  1  0.73790900  0.21923500  0.22057200  1
  F  F33  1  0.76283300  0.26170000  0.00244500  1
  F  F34  1  0.83213300  0.24699500  0.78786100  1
  F  F35  1  0.66313100  0.00432400  0.08088100  1
  F  F36  1  0.87936900  0.00857100  0.68804700  1
  F  F37  1  0.93562700  0.18542200  0.56841000  1
loop_
_geom_bond_atom_site_label_1
_geom_bond_atom_site_label_2
_geom_bond_distance
_geom_bond_site_symmetry_2
F0 V3 1.819736 1_555
F0 Li4 2.061849 1_455
F1 V7 2.001256 1_465
F1 V3 2.005117 1_555
F2 V0 1.838562 1_555
F2 Li5 2.056961 1_566
F2 Li0 2.217779 1_555
F3 V3 1.981572 1_555
F3 V5 2.027557 1_455
F4 V5 1.858168 1_456
F4 Li0 1.935156 1_555
F5 V1 2.017962 1_555
F5 V0 2.093531 1_555
F5 Li0 2.166076 1_555
F6 V5 2.000651 1_455
F6 Li2 2.080342 1_555
F6 V2 2.089825 1_554
F7 V6 2.011389 1_455
F7 V1 2.078525 1_555
F7 Li1 2.108699 1_555
F8 V7 2.001551 1_455
F8 V6 2.090099 1_455
F8 Li1 2.090836 1_555
F9 V6 1.858251 1_455
F9 Li2 1.948924 1_555
F10 V0 1.967321 1_545
F10 V2 2.013829 1_555
F11 V1 1.861664 1_555
F11 Li4 1.974714 1_555
F12 V1 1.806277 1_555
F12 Li3 2.070838 1_555
F13 V2 1.852256 1_555
F13 Li3 1.943034 1_555
F14 V3 1.835228 1_555
F14 Li4 2.152426 1_555
F14 Li2 2.322085 1_555
F15 V3 1.967610 1_555
F15 V7 1.968792 1_565
F16 V7 1.824179 1_455
F16 Li5 2.006199 1_555
F17 V2 1.849754 1_554
F17 Li5 2.150710 1_555
F17 Li2 2.153825 1_555
F18 V4 2.016382 1_565
F18 Li4 2.079047 1_555
F18 V3 2.117322 1_555
F19 V3 2.016382 1_545
F19 Li1 2.079047 1_555
F19 V4 2.117322 1_555
F20 V5 1.849754 1_556
F20 Li0 2.150710 1_555
F20 Li3 2.153825 1_555
F21 V0 1.824179 1_655
F21 Li0 2.006199 1_555
F22 V4 1.967610 1_555
F22 V0 1.968792 1_545
F23 V4 1.835228 1_555
F23 Li1 2.152426 1_555
F23 Li3 2.322085 1_555
F24 V5 1.852256 1_555
F24 Li2 1.943034 1_555
F25 V6 1.806277 1_555
F25 Li2 2.070838 1_555
F26 V6 1.861664 1_555
F26 Li1 1.974714 1_555
F27 V7 1.967321 1_565
F27 V5 2.013829 1_555
F28 V1 1.858251 1_655
F28 Li3 1.948924 1_555
F29 V0 2.001551 1_655
F29 V1 2.090099 1_655
F29 Li4 2.090836 1_555
F30 V1 2.011389 1_655
F30 V6 2.078525 1_555
F30 Li4 2.108699 1_555
F31 V2 2.000651 1_655
F31 Li3 2.080342 1_555
F31 V5 2.089825 1_556
F32 V6 2.017962 1_555
F32 V7 2.093531 1_555
F32 Li5 2.166076 1_555
F33 V2 1.858168 1_654
F33 Li5 1.935156 1_555
F34 V4 1.981572 1_555
F34 V2 2.027557 1_655
F35 V7 1.838562 1_555
F35 Li0 2.056961 1_544
F35 Li5 2.217779 1_555
F36 V0 2.001256 1_645
F36 V4 2.005117 1_555
F37 V4 1.819736 1_555
F37 Li1 2.061849 1_655
