# generated using pymatgen
data_Na7Cu7O13
_symmetry_space_group_name_H-M   'P 1'
_cell_length_a   6.76004800
_cell_length_b   6.80648024
_cell_length_c   7.68995316
_cell_angle_alpha   99.25589539
_cell_angle_beta   99.71917392
_cell_angle_gamma   101.25067442
_symmetry_Int_Tables_number   1
_chemical_formula_structural   Na7Cu7O13
_chemical_formula_sum   'Na7 Cu7 O13'
_cell_volume   335.10799960
_cell_formula_units_Z   1
loop_
 _symmetry_equiv_pos_site_id
 _symmetry_equiv_pos_as_xyz
  1  'x, y, z'
loop_
 _atom_site_type_symbol
 _atom_site_label
 _atom_site_symmetry_multiplicity
 _atom_site_fract_x
 _atom_site_fract_y
 _atom_site_fract_z
 _atom_site_occupancy
  Na  Na0  1  0.71350500  0.21467600  0.57316900  1
  Na  Na1  1  0.85175900  0.33632300  0.27509300  1
  Na  Na2  1  0.56849600  0.07161200  0.85427800  1
  Na  Na3  1  0.42890100  0.92896100  0.14028800  1
  Na  Na4  1  0.30102300  0.79031200  0.42603100  1
  Na  Na5  1  0.14578600  0.63943900  0.72635100  1
  Na  Na6  1  0.99879200  0.50078400  0.00090800  1
  Cu  Cu0  1  0.85343200  0.85707500  0.28502600  1
  Cu  Cu1  1  0.71078100  0.71677500  0.56955200  1
  Cu  Cu2  1  0.57437700  0.57359500  0.85676800  1
  Cu  Cu3  1  0.42995600  0.43135900  0.14540500  1
  Cu  Cu4  1  0.28506000  0.28810500  0.42941100  1
  Cu  Cu5  1  0.14061900  0.14307800  0.71323100  1
  Cu  Cu6  1  0.99873800  0.99577000  0.00009800  1
  O  O0  1  0.79459900  0.56523200  0.73952600  1
  O  O1  1  0.21648800  0.98953500  0.88126800  1
  O  O2  1  0.92442400  0.15012000  0.83024400  1
  O  O3  1  0.48439100  0.72058400  0.69102800  1
  O  O4  1  0.35450800  0.57826900  0.97416700  1
  O  O5  1  0.64452500  0.86103100  0.40086100  1
  O  O6  1  0.50614100  0.28082000  0.31588100  1
  O  O7  1  0.64976200  0.42367200  0.03009700  1
  O  O8  1  0.35788800  0.13211700  0.59603600  1
  O  O9  1  0.07895600  0.84771200  0.17461000  1
  O  O10  1  0.77665300  0.00938300  0.10513900  1
  O  O11  1  0.06505300  0.29868200  0.54370000  1
  O  O12  1  0.20879400  0.44165300  0.26186600  1
loop_
_geom_bond_atom_site_label_1
_geom_bond_atom_site_label_2
_geom_bond_distance
_geom_bond_site_symmetry_2
Na0 O6 2.382994 1_555
Na0 O2 2.388797 1_555
Na0 O11 2.391495 1_655
Na0 O8 2.402759 1_555
Na0 O0 2.429240 1_555
Na0 O5 2.468721 1_545
Na1 O10 2.305946 1_555
Na1 O7 2.361371 1_555
Na1 O6 2.375074 1_555
Na1 O11 2.391662 1_655
Na1 O12 2.404334 1_655
Na2 O10 2.336626 1_556
Na2 O8 2.382754 1_555
Na2 O1 2.388086 1_545
Na2 O2 2.406075 1_555
Na2 O3 2.423199 1_545
Na2 O7 2.462788 1_556
Na3 O10 2.378879 1_565
Na3 O9 2.391454 1_555
Na3 O1 2.393497 1_554
Na3 O4 2.432335 1_554
Na3 O5 2.434851 1_555
Na3 O6 2.462783 1_565
Na4 O5 2.325262 1_555
Na4 O3 2.366914 1_555
Na4 O9 2.374062 1_555
Na4 O8 2.402576 1_565
Na4 O12 2.409851 1_555
Na5 O4 2.317856 1_555
Na5 O3 2.320167 1_555
Na5 O0 2.351856 1_455
Na5 O1 2.403351 1_555
Na5 O11 2.418551 1_555
Na6 O7 2.372004 1_555
Na6 O0 2.391880 1_554
Na6 O12 2.392753 1_655
Na6 O4 2.410352 1_654
Na6 O9 2.428073 1_655
Na6 O2 2.444022 1_554
Cu0 O5 1.794551 1_555
Cu0 O9 1.872661 1_655
Cu0 O10 1.920036 1_565
Cu1 O5 1.797957 1_555
Cu1 O0 1.872214 1_555
Cu1 O3 1.925054 1_555
Cu2 O3 1.838840 1_555
Cu2 O4 1.867479 1_555
Cu2 O7 1.867815 1_556
Cu2 O0 1.871388 1_555
Cu3 O4 1.841148 1_554
Cu3 O6 1.855744 1_555
Cu3 O7 1.859346 1_555
Cu3 O12 1.874824 1_555
Cu4 O12 1.853978 1_555
Cu4 O8 1.854746 1_555
Cu4 O11 1.858037 1_555
Cu4 O6 1.858434 1_555
Cu5 O2 1.845376 1_455
Cu5 O8 1.855544 1_555
Cu5 O1 1.856026 1_545
Cu5 O11 1.874219 1_555
Cu6 O10 1.831566 1_565
Cu6 O1 1.862706 1_654
Cu6 O2 1.867616 1_564
Cu6 O9 1.874339 1_655
