# generated using pymatgen
data_Li2Mn4O5F3
_symmetry_space_group_name_H-M   'P 1'
_cell_length_a   6.17640939
_cell_length_b   6.17640939
_cell_length_c   11.00616880
_cell_angle_alpha   72.84030291
_cell_angle_beta   72.84030291
_cell_angle_gamma   56.48662540
_symmetry_Int_Tables_number   1
_chemical_formula_structural   Li2Mn4O5F3
_chemical_formula_sum   'Li4 Mn8 O10 F6'
_cell_volume   329.84833114
_cell_formula_units_Z   2
loop_
 _symmetry_equiv_pos_site_id
 _symmetry_equiv_pos_as_xyz
  1  'x, y, z'
loop_
 _atom_site_type_symbol
 _atom_site_label
 _atom_site_symmetry_multiplicity
 _atom_site_fract_x
 _atom_site_fract_y
 _atom_site_fract_z
 _atom_site_occupancy
  Li  Li0  1  0.79177700  0.29154400  0.55192600  1
  Li  Li1  1  0.68460400  0.22742400  0.93988800  1
  Li  Li2  1  0.29154400  0.79177700  0.05192600  1
  Li  Li3  1  0.22742400  0.68460400  0.43988800  1
  Mn  Mn0  1  0.01327900  0.49871800  0.99840000  1
  Mn  Mn1  1  0.75169800  0.74860700  0.75126900  1
  Mn  Mn2  1  0.25375300  0.74062000  0.75355900  1
  Mn  Mn3  1  0.74062000  0.25375300  0.25355900  1
  Mn  Mn4  1  0.49871800  0.01327900  0.49840000  1
  Mn  Mn5  1  0.25758000  0.25279300  0.75823000  1
  Mn  Mn6  1  0.74860700  0.75169800  0.25126900  1
  Mn  Mn7  1  0.25279300  0.25758000  0.25823000  1
  O  O0  1  0.87727500  0.38118600  0.34144800  1
  O  O1  1  0.38118600  0.87727500  0.84144800  1
  O  O2  1  0.59210100  0.09358400  0.64153200  1
  O  O3  1  0.90483000  0.40505700  0.86137100  1
  O  O4  1  0.41869700  0.35844400  0.36873600  1
  O  O5  1  0.35844400  0.41869700  0.86873600  1
  O  O6  1  0.09358400  0.59210100  0.14153200  1
  O  O7  1  0.40505700  0.90483000  0.36137100  1
  O  O8  1  0.62276400  0.11936100  0.15996700  1
  O  O9  1  0.11936100  0.62276400  0.65996700  1
  F  F0  1  0.85697900  0.89795000  0.88017400  1
  F  F1  1  0.89795000  0.85697900  0.38017400  1
  F  F2  1  0.63007800  0.62003500  0.61385000  1
  F  F3  1  0.62003500  0.63007800  0.11385000  1
  F  F4  1  0.11861900  0.09064400  0.62964900  1
  F  F5  1  0.09064400  0.11861900  0.12964900  1
loop_
_geom_bond_atom_site_label_1
_geom_bond_atom_site_label_2
_geom_bond_distance
_geom_bond_site_symmetry_2
Li0 O2 2.055351 1_555
Li0 O0 2.189985 1_555
Li1 O5 1.955525 1_555
Li1 O3 2.048298 1_555
Li1 O8 2.289142 1_556
Li2 O6 2.055351 1_555
Li2 O1 2.189985 1_554
Li3 O4 1.955525 1_555
Li3 O7 2.048298 1_555
Li3 O9 2.289142 1_555
Mn0 O5 2.069600 1_555
Mn0 O6 2.091283 1_556
Mn0 O3 2.143984 1_455
Mn1 O3 1.951504 1_555
Mn1 O2 1.958332 1_565
Mn1 O9 1.983922 1_655
Mn1 O1 1.992618 1_555
Mn2 O5 1.885516 1_555
Mn2 O9 1.973365 1_555
Mn2 O1 1.982981 1_555
Mn3 O4 1.885516 1_555
Mn3 O8 1.973365 1_555
Mn3 O0 1.982981 1_555
Mn4 O4 2.069600 1_555
Mn4 O2 2.091283 1_555
Mn4 O7 2.143984 1_545
Mn5 O2 1.954834 1_555
Mn5 O3 1.956498 1_455
Mn5 O1 2.001232 1_545
Mn5 O9 2.013070 1_555
Mn5 O5 2.191975 1_555
Mn6 O7 1.951504 1_555
Mn6 O6 1.958332 1_655
Mn6 O8 1.983922 1_565
Mn6 O0 1.992618 1_555
Mn7 O6 1.954834 1_555
Mn7 O7 1.956498 1_545
Mn7 O0 2.001232 1_455
Mn7 O8 2.013070 1_555
Mn7 O4 2.191975 1_555
F0 Li1 1.921038 1_565
F0 Mn0 2.219164 1_655
F0 Mn2 2.246356 1_655
F0 Mn1 2.294653 1_555
F1 Li3 1.921038 1_655
F1 Mn4 2.219164 1_565
F1 Mn3 2.246356 1_565
F1 Mn6 2.294653 1_555
F2 Li0 1.937806 1_555
F2 Mn4 2.187066 1_565
F2 Mn2 2.230885 1_555
F2 Mn1 2.349516 1_555
F3 Li2 1.937806 1_555
F3 Mn0 2.187066 1_654
F3 Mn3 2.230885 1_555
F3 Mn6 2.349516 1_555
F4 Li0 1.993293 1_455
F4 Mn2 2.041978 1_545
F4 Mn4 2.234712 1_555
F4 Mn5 2.498921 1_555
F5 Li2 1.993293 1_545
F5 Mn3 2.041978 1_455
F5 Mn0 2.234712 1_554
F5 Mn7 2.498921 1_555
