# generated using pymatgen
data_Li5V2Co3O10
_symmetry_space_group_name_H-M   'P 1'
_cell_length_a   5.05108853
_cell_length_b   5.18273492
_cell_length_c   7.90867097
_cell_angle_alpha   108.96137756
_cell_angle_beta   101.02320388
_cell_angle_gamma   101.11742224
_symmetry_Int_Tables_number   1
_chemical_formula_structural   Li5V2Co3O10
_chemical_formula_sum   'Li5 V2 Co3 O10'
_cell_volume   184.79942411
_cell_formula_units_Z   1
loop_
 _symmetry_equiv_pos_site_id
 _symmetry_equiv_pos_as_xyz
  1  'x, y, z'
loop_
 _atom_site_type_symbol
 _atom_site_label
 _atom_site_symmetry_multiplicity
 _atom_site_fract_x
 _atom_site_fract_y
 _atom_site_fract_z
 _atom_site_occupancy
  Li  Li0  1  0.20906900  0.90757800  0.40284300  1
  Li  Li1  1  0.40418000  0.30555100  0.79375900  1
  Li  Li2  1  0.50000000  0.50000000  0.50000000  1
  Li  Li3  1  0.59582000  0.69444900  0.20624100  1
  Li  Li4  1  0.79093100  0.09242200  0.59715700  1
  V  V0  1  0.10945100  0.70088400  0.69029300  1
  V  V1  1  0.89054900  0.29911600  0.30970700  1
  Co  Co0  1  0.00000000  0.50000000  0.00000000  1
  Co  Co1  1  0.71529400  0.90572800  0.90677500  1
  Co  Co2  1  0.28470600  0.09427200  0.09322500  1
  O  O0  1  0.04585500  0.08494400  0.84512200  1
  O  O1  1  0.34523500  0.70709000  0.93806700  1
  O  O2  1  0.13399600  0.32228900  0.54313400  1
  O  O3  1  0.21621700  0.47305100  0.24160400  1
  O  O4  1  0.43056700  0.89532500  0.66141200  1
  O  O5  1  0.56943300  0.10467500  0.33858800  1
  O  O6  1  0.78378300  0.52694900  0.75839600  1
  O  O7  1  0.86600400  0.67771100  0.45686600  1
  O  O8  1  0.65476500  0.29291000  0.06193300  1
  O  O9  1  0.95414500  0.91505600  0.15487800  1
loop_
_geom_bond_atom_site_label_1
_geom_bond_atom_site_label_2
_geom_bond_distance
_geom_bond_site_symmetry_2
Li0 O7 2.102948 1_455
Li0 O5 2.142187 1_565
Li0 O9 2.146700 1_455
Li0 O4 2.162036 1_555
Li0 O3 2.209478 1_555
Li0 O2 2.218091 1_565
Li1 O4 2.085677 1_545
Li1 O0 2.129095 1_555
Li1 O1 2.132473 1_555
Li1 O6 2.153246 1_555
Li1 O2 2.218494 1_555
Li1 O8 2.280410 1_556
Li2 O7 2.042337 1_555
Li2 O2 2.042337 1_555
Li2 O4 2.167728 1_555
Li2 O5 2.167728 1_555
Li2 O6 2.206234 1_555
Li2 O3 2.206234 1_555
Li3 O5 2.085677 1_565
Li3 O9 2.129095 1_555
Li3 O8 2.132473 1_555
Li3 O3 2.153246 1_555
Li3 O7 2.218494 1_555
Li3 O1 2.280410 1_554
Li4 O2 2.102948 1_655
Li4 O4 2.142187 1_545
Li4 O0 2.146700 1_655
Li4 O5 2.162036 1_555
Li4 O6 2.209478 1_555
Li4 O7 2.218091 1_545
Co0 O3 2.073046 1_555
Co0 O6 2.073046 1_454
Co0 O1 2.092665 1_554
Co0 O8 2.092665 1_455
Co0 O9 2.183953 1_455
Co0 O0 2.183953 1_554
Co1 O0 1.973809 1_665
Co1 O1 2.053138 1_555
Co1 O6 2.066546 1_555
Co1 O9 2.078113 1_556
Co1 O8 2.098999 1_566
Co1 O4 2.161404 1_555
Co2 O9 1.973809 1_445
Co2 O8 2.053138 1_555
Co2 O3 2.066546 1_555
Co2 O0 2.078113 1_554
Co2 O1 2.098999 1_544
Co2 O5 2.161404 1_555
O0 V0 2.092285 1_545
O1 V0 2.076325 1_555
O2 V1 1.966073 1_455
O2 V0 1.971013 1_555
O3 V1 1.972602 1_455
O4 V0 1.832882 1_555
O5 V1 1.832882 1_555
O6 V0 1.972602 1_655
O7 V0 1.966073 1_655
O7 V1 1.971013 1_555
O8 V1 2.076325 1_555
O9 V1 2.092285 1_565
