# generated using pymatgen
data_Li10FeCo9O20
_symmetry_space_group_name_H-M   'P 1'
_cell_length_a   5.00636700
_cell_length_b   7.61160649
_cell_length_c   9.81125426
_cell_angle_alpha   80.21382430
_cell_angle_beta   84.88144065
_cell_angle_gamma   71.29662188
_symmetry_Int_Tables_number   1
_chemical_formula_structural   Li10FeCo9O20
_chemical_formula_sum   'Li10 Fe1 Co9 O20'
_cell_volume   348.73447103
_cell_formula_units_Z   1
loop_
 _symmetry_equiv_pos_site_id
 _symmetry_equiv_pos_as_xyz
  1  'x, y, z'
loop_
 _atom_site_type_symbol
 _atom_site_label
 _atom_site_symmetry_multiplicity
 _atom_site_fract_x
 _atom_site_fract_y
 _atom_site_fract_z
 _atom_site_occupancy
  Li  Li0  1  0.60013000  0.79800400  0.99731000  1
  Li  Li1  1  0.30235700  0.90084400  0.50443300  1
  Li  Li2  1  0.89658500  0.69822300  0.50045600  1
  Li  Li3  1  0.00322900  0.00293200  0.99788400  1
  Li  Li4  1  0.19958100  0.59988200  0.99880500  1
  Li  Li5  1  0.50689000  0.50134500  0.50351500  1
  Li  Li6  1  0.79846100  0.40392300  0.99768000  1
  Li  Li7  1  0.09651700  0.29812900  0.50112600  1
  Li  Li8  1  0.69082200  0.09998700  0.50340700  1
  Li  Li9  1  0.40447700  0.19691700  0.99554400  1
  Fe  Fe0  1  0.94881300  0.85153600  0.74993400  1
  Co  Co0  1  0.65059100  0.94794900  0.25026700  1
  Co  Co1  1  0.25167800  0.74844000  0.24834600  1
  Co  Co2  1  0.85381800  0.54939900  0.24901100  1
  Co  Co3  1  0.45379600  0.34698500  0.25061900  1
  Co  Co4  1  0.04806700  0.15407200  0.25232000  1
  Co  Co5  1  0.54843500  0.65029500  0.74991600  1
  Co  Co6  1  0.15047200  0.44959100  0.74956100  1
  Co  Co7  1  0.75115300  0.25029500  0.75021700  1
  Co  Co8  1  0.35108000  0.04865300  0.75030900  1
  O  O0  1  0.96957500  0.93218600  0.36680200  1
  O  O1  1  0.61976700  0.87223500  0.64260200  1
  O  O2  1  0.32375100  0.97172000  0.13344700  1
  O  O3  1  0.27891800  0.82646100  0.85757800  1
  O  O4  1  0.92547200  0.76658500  0.13330300  1
  O  O5  1  0.86513100  0.63298900  0.85990300  1
  O  O6  1  0.59201900  0.71817100  0.36180300  1
  O  O7  1  0.22555700  0.67719100  0.63797500  1
  O  O8  1  0.81475800  0.47443800  0.63944100  1
  O  O9  1  0.54301300  0.57189200  0.13751000  1
  O  O10  1  0.48443100  0.42660600  0.86071300  1
  O  O11  1  0.17175500  0.52740000  0.36246900  1
  O  O12  1  0.77212200  0.33802500  0.36575500  1
  O  O13  1  0.43513100  0.26458000  0.64104200  1
  O  O14  1  0.07742400  0.22161600  0.85975700  1
  O  O15  1  0.11307500  0.37388900  0.13537800  1
  O  O16  1  0.67290900  0.03027800  0.85710200  1
  O  O17  1  0.71023300  0.17724100  0.13176000  1
  O  O18  1  0.37290000  0.12406900  0.37109400  1
  O  O19  1  0.02512600  0.07503000  0.64391100  1
loop_
_geom_bond_atom_site_label_1
_geom_bond_atom_site_label_2
_geom_bond_distance
_geom_bond_site_symmetry_2
Li0 O5 2.083980 1_555
Li0 O9 2.092040 1_556
Li0 O4 2.125998 1_556
Li0 O2 2.131700 1_556
Li0 O3 2.140433 1_555
Li0 O16 2.155867 1_565
Li1 O18 2.066371 1_565
Li1 O7 2.081870 1_555
Li1 O1 2.114792 1_555
Li1 O19 2.157439 1_565
Li1 O0 2.166327 1_455
Li1 O6 2.236226 1_555
Li2 O6 2.085659 1_555
Li2 O8 2.118245 1_555
Li2 O11 2.130280 1_655
Li2 O0 2.135987 1_555
Li2 O7 2.170830 1_655
Li2 O1 2.173882 1_555
Li3 O14 2.070047 1_555
Li3 O2 2.104584 1_546
Li3 O17 2.153532 1_456
Li3 O4 2.167360 1_446
Li3 O3 2.169043 1_545
Li3 O16 2.185175 1_455
Li4 O4 2.088995 1_456
Li4 O15 2.129013 1_556
Li4 O3 2.140281 1_555
Li4 O10 2.159920 1_555
Li4 O5 2.178093 1_455
Li4 O9 2.222054 1_556
Li5 O8 2.065798 1_555
Li5 O12 2.080302 1_555
Li5 O6 2.098544 1_555
Li5 O7 2.138988 1_555
Li5 O13 2.167853 1_555
Li5 O11 2.208388 1_555
Li6 O9 2.094472 1_556
Li6 O15 2.098109 1_656
Li6 O10 2.105072 1_555
Li6 O5 2.114283 1_555
Li6 O17 2.125130 1_556
Li6 O14 2.182980 1_655
Li7 O18 2.093172 1_555
Li7 O12 2.103618 1_455
Li7 O19 2.113091 1_555
Li7 O11 2.135674 1_555
Li7 O8 2.166967 1_455
Li7 O13 2.200429 1_555
Li8 O13 2.066353 1_555
Li8 O18 2.086333 1_555
Li8 O0 2.116653 1_545
Li8 O1 2.121519 1_545
Li8 O12 2.194417 1_555
Li8 O19 2.203692 1_655
Li9 O17 2.074033 1_556
Li9 O16 2.103929 1_555
Li9 O2 2.119066 1_546
Li9 O10 2.129523 1_555
Li9 O14 2.144244 1_555
Li9 O15 2.199051 1_556
Fe0 O5 1.965450 1_555
Fe0 O19 1.966286 1_665
Fe0 O16 1.971393 1_565
Fe0 O3 1.980812 1_655
Fe0 O7 1.982937 1_655
Fe0 O1 1.983462 1_555
Co0 O6 1.990844 1_555
Co0 O0 2.007035 1_555
Co0 O17 2.017295 1_565
Co0 O2 2.024372 1_555
Co0 O4 2.038326 1_555
Co0 O18 2.045985 1_565
Co1 O11 1.988948 1_555
Co1 O2 1.989671 1_555
Co1 O9 2.018022 1_555
Co1 O4 2.022715 1_455
Co1 O6 2.048135 1_555
Co1 O0 2.072269 1_455
Co2 O9 1.927804 1_555
Co2 O6 1.933227 1_555
Co2 O12 1.944159 1_555
Co2 O4 1.954481 1_555
Co2 O15 1.961717 1_655
Co2 O11 1.970424 1_655
Co3 O17 1.964354 1_555
Co3 O12 2.011413 1_555
Co3 O11 2.018923 1_555
Co3 O18 2.028211 1_555
Co3 O9 2.029227 1_555
Co3 O15 2.066734 1_555
Co4 O15 1.962602 1_555
Co4 O0 1.992597 1_445
Co4 O18 2.016001 1_555
Co4 O12 2.030386 1_455
Co4 O2 2.055756 1_545
Co4 O17 2.094172 1_455
Co5 O3 1.949674 1_555
Co5 O1 1.950659 1_555
Co5 O5 1.954137 1_555
Co5 O8 1.958321 1_555
Co5 O10 1.960072 1_555
Co5 O7 1.972090 1_555
Co6 O14 2.003106 1_555
Co6 O7 2.010117 1_555
Co6 O8 2.019538 1_455
Co6 O10 2.021903 1_555
Co6 O13 2.024726 1_555
Co6 O5 2.029836 1_455
Co7 O19 1.947577 1_655
Co7 O16 1.951446 1_555
Co7 O13 1.953139 1_555
Co7 O10 1.961203 1_555
Co7 O8 1.962066 1_555
Co7 O14 1.968653 1_655
Co8 O13 1.947226 1_555
Co8 O1 1.949256 1_545
Co8 O19 1.953341 1_555
Co8 O3 1.953810 1_545
Co8 O16 1.954539 1_555
Co8 O14 1.955662 1_555
