# generated using pymatgen
data_VGeO3
_symmetry_space_group_name_H-M   'P 1'
_cell_length_a   5.27290511
_cell_length_b   6.79661815
_cell_length_c   6.79681632
_cell_angle_alpha   94.20703712
_cell_angle_beta   82.68236710
_cell_angle_gamma   97.31846827
_symmetry_Int_Tables_number   1
_chemical_formula_structural   VGeO3
_chemical_formula_sum   'V4 Ge4 O12'
_cell_volume   239.22716143
_cell_formula_units_Z   4
loop_
 _symmetry_equiv_pos_site_id
 _symmetry_equiv_pos_as_xyz
  1  'x, y, z'
loop_
 _atom_site_type_symbol
 _atom_site_label
 _atom_site_symmetry_multiplicity
 _atom_site_fract_x
 _atom_site_fract_y
 _atom_site_fract_z
 _atom_site_occupancy
  V  V0  1  0.24999300  0.27322200  0.27322700  1
  V  V1  1  0.24999300  0.90876400  0.90877700  1
  V  V2  1  0.74998800  0.72676600  0.72676300  1
  V  V3  1  0.74998600  0.09137300  0.09137500  1
  Ge  Ge0  1  0.70858500  0.20571000  0.60566000  1
  Ge  Ge1  1  0.20859600  0.39430900  0.79425500  1
  Ge  Ge2  1  0.79144700  0.60565700  0.20572600  1
  Ge  Ge3  1  0.29140400  0.79426600  0.39433900  1
  O  O0  1  0.63715200  0.02637400  0.78780300  1
  O  O1  1  0.13716400  0.21216500  0.97359900  1
  O  O2  1  0.86282900  0.78781700  0.02639600  1
  O  O3  1  0.36280400  0.97359900  0.21219600  1
  O  O4  1  0.90167100  0.42462800  0.70701000  1
  O  O5  1  0.40167000  0.29297400  0.57533400  1
  O  O6  1  0.59836900  0.70703900  0.42463400  1
  O  O7  1  0.09836700  0.57533900  0.29296400  1
  O  O8  1  0.87229500  0.13776700  0.37882300  1
  O  O9  1  0.37229300  0.62115600  0.86220200  1
  O  O10  1  0.62770000  0.37883000  0.13775700  1
  O  O11  1  0.12769600  0.86224600  0.62116000  1
loop_
_geom_bond_atom_site_label_1
_geom_bond_atom_site_label_2
_geom_bond_distance
_geom_bond_site_symmetry_2
Ge0 O8 1.730180 1_555
Ge0 O0 1.773643 1_555
Ge0 O5 1.833222 1_555
Ge0 O4 1.835018 1_555
Ge1 O9 1.730166 1_555
Ge1 O1 1.773685 1_555
Ge1 O4 1.833204 1_455
Ge1 O5 1.835002 1_555
Ge2 O10 1.730206 1_555
Ge2 O2 1.773687 1_555
Ge2 O7 1.833156 1_655
Ge2 O6 1.835073 1_555
Ge3 O11 1.730154 1_555
Ge3 O3 1.773622 1_555
Ge3 O6 1.833305 1_555
Ge3 O7 1.834998 1_555
O0 V1 2.176158 1_545
O0 V2 2.189647 1_545
O0 V3 2.217761 1_556
O1 V3 2.176200 1_456
O1 V0 2.189818 1_556
O1 V1 2.216485 1_545
O2 V1 2.176144 1_654
O2 V2 2.189870 1_554
O2 V3 2.217615 1_565
O3 V3 2.176271 1_565
O3 V0 2.189690 1_565
O3 V1 2.216621 1_554
O4 V2 2.285888 1_555
O5 V0 2.285722 1_555
O6 V2 2.285731 1_555
O7 V0 2.285622 1_555
O8 V3 2.123958 1_555
O8 V0 2.143532 1_655
O9 V1 2.124978 1_555
O9 V2 2.143512 1_555
O10 V3 2.123920 1_555
O10 V0 2.143632 1_555
O11 V1 2.125057 1_555
O11 V2 2.143645 1_455
