# generated using pymatgen
data_LiFeF3
_symmetry_space_group_name_H-M   'P 1'
_cell_length_a   8.73206900
_cell_length_b   8.73206900
_cell_length_c   6.21044400
_cell_angle_alpha   90.00000000
_cell_angle_beta   90.00000000
_cell_angle_gamma   90.00000000
_symmetry_Int_Tables_number   1
_chemical_formula_structural   LiFeF3
_chemical_formula_sum   'Li8 Fe8 F24'
_cell_volume   473.54032479
_cell_formula_units_Z   8
loop_
 _symmetry_equiv_pos_site_id
 _symmetry_equiv_pos_as_xyz
  1  'x, y, z'
loop_
 _atom_site_type_symbol
 _atom_site_label
 _atom_site_symmetry_multiplicity
 _atom_site_fract_x
 _atom_site_fract_y
 _atom_site_fract_z
 _atom_site_occupancy
  Li  Li0  1  0.95761700  0.84950600  0.16396100  1
  Li  Li1  1  0.84950600  0.04238300  0.83603900  1
  Li  Li2  1  0.15049400  0.95761700  0.83603900  1
  Li  Li3  1  0.04238300  0.15049400  0.16396100  1
  Li  Li4  1  0.45761700  0.34950600  0.33603900  1
  Li  Li5  1  0.34950600  0.54238300  0.66396100  1
  Li  Li6  1  0.65049400  0.45761700  0.66396100  1
  Li  Li7  1  0.54238300  0.65049400  0.33603900  1
  Fe  Fe0  1  0.51841200  0.80743400  0.89679200  1
  Fe  Fe1  1  0.30743400  0.98158800  0.39679200  1
  Fe  Fe2  1  0.69256600  0.01841200  0.39679200  1
  Fe  Fe3  1  0.48158800  0.19256600  0.89679200  1
  Fe  Fe4  1  0.01841200  0.30743400  0.60320800  1
  Fe  Fe5  1  0.80743400  0.48158800  0.10320800  1
  Fe  Fe6  1  0.19256600  0.51841200  0.10320800  1
  Fe  Fe7  1  0.98158800  0.69256600  0.60320800  1
  F  F0  1  0.82729400  0.83216200  0.43915500  1
  F  F1  1  0.95348100  0.84104300  0.85723400  1
  F  F2  1  0.48452500  0.85926200  0.26786000  1
  F  F3  1  0.16783800  0.82729400  0.56084500  1
  F  F4  1  0.64073800  0.98452500  0.76786000  1
  F  F5  1  0.15895700  0.95348100  0.14276600  1
  F  F6  1  0.84104300  0.04651900  0.14276600  1
  F  F7  1  0.35926200  0.01547500  0.76786000  1
  F  F8  1  0.83216200  0.17270600  0.56084500  1
  F  F9  1  0.51547500  0.14073800  0.26786000  1
  F  F10  1  0.04651900  0.15895700  0.85723400  1
  F  F11  1  0.17270600  0.16783800  0.43915500  1
  F  F12  1  0.32729400  0.33216200  0.06084500  1
  F  F13  1  0.45348100  0.34104300  0.64276600  1
  F  F14  1  0.98452500  0.35926200  0.23214000  1
  F  F15  1  0.66783800  0.32729400  0.93915500  1
  F  F16  1  0.14073800  0.48452500  0.73214000  1
  F  F17  1  0.65895700  0.45348100  0.35723400  1
  F  F18  1  0.34104300  0.54651900  0.35723400  1
  F  F19  1  0.85926200  0.51547500  0.73214000  1
  F  F20  1  0.33216200  0.67270600  0.93915500  1
  F  F21  1  0.01547500  0.64073800  0.23214000  1
  F  F22  1  0.54651900  0.65895700  0.64276600  1
  F  F23  1  0.67270600  0.66783800  0.06084500  1
loop_
_geom_bond_atom_site_label_1
_geom_bond_atom_site_label_2
_geom_bond_distance
_geom_bond_site_symmetry_2
F0 Fe2 2.024418 1_565
F0 Li0 2.058859 1_555
F0 Fe7 2.083060 1_555
F1 Li0 1.906686 1_556
F1 Li1 1.983080 1_565
F1 Li2 2.003260 1_655
F1 Fe7 2.056707 1_555
F2 Li7 1.938499 1_555
F2 Fe1 2.042887 1_555
F2 Fe0 2.367083 1_554
F2 Fe2 2.423343 1_565
F3 Fe7 2.024418 1_455
F3 Li2 2.058859 1_555
F3 Fe1 2.083060 1_555
F4 Li1 1.938499 1_565
F4 Fe0 2.042887 1_555
F4 Fe2 2.367083 1_565
F4 Fe3 2.423343 1_565
F5 Li2 1.906686 1_554
F5 Li0 1.983080 1_455
F5 Li3 2.003260 1_565
F5 Fe1 2.056707 1_555
F6 Li1 1.906686 1_554
F6 Li3 1.983080 1_655
F6 Li0 2.003260 1_545
F6 Fe2 2.056707 1_555
F7 Li2 1.938499 1_545
F7 Fe3 2.042887 1_555
F7 Fe1 2.367083 1_545
F7 Fe0 2.423343 1_545
F8 Fe4 2.024418 1_655
F8 Li1 2.058859 1_555
F8 Fe2 2.083060 1_555
F9 Li4 1.938499 1_555
F9 Fe2 2.042887 1_555
F9 Fe3 2.367083 1_554
F9 Fe1 2.423343 1_545
F10 Li3 1.906686 1_556
F10 Li2 1.983080 1_545
F10 Li1 2.003260 1_455
F10 Fe4 2.056707 1_555
F11 Fe1 2.024418 1_545
F11 Li3 2.058859 1_555
F11 Fe4 2.083060 1_555
F12 Fe6 2.024418 1_555
F12 Li4 2.058859 1_555
F12 Fe3 2.083060 1_554
F13 Li4 1.906686 1_555
F13 Li5 1.983080 1_555
F13 Li6 2.003260 1_555
F13 Fe3 2.056707 1_555
F14 Li3 1.938499 1_655
F14 Fe5 2.042887 1_555
F14 Fe4 2.367083 1_655
F14 Fe6 2.423343 1_655
F15 Fe3 2.024418 1_555
F15 Li6 2.058859 1_555
F15 Fe5 2.083060 1_556
F16 Li5 1.938499 1_555
F16 Fe4 2.042887 1_555
F16 Fe6 2.367083 1_556
F16 Fe7 2.423343 1_455
F17 Li6 1.906686 1_555
F17 Li4 1.983080 1_555
F17 Li7 2.003260 1_555
F17 Fe5 2.056707 1_555
F18 Li5 1.906686 1_555
F18 Li7 1.983080 1_555
F18 Li4 2.003260 1_555
F18 Fe6 2.056707 1_555
F19 Li6 1.938499 1_555
F19 Fe7 2.042887 1_555
F19 Fe5 2.367083 1_556
F19 Fe4 2.423343 1_655
F20 Fe0 2.024418 1_555
F20 Li5 2.058859 1_555
F20 Fe6 2.083060 1_556
F21 Li0 1.938499 1_455
F21 Fe6 2.042887 1_555
F21 Fe7 2.367083 1_455
F21 Fe5 2.423343 1_455
F22 Li7 1.906686 1_555
F22 Li6 1.983080 1_555
F22 Li5 2.003260 1_555
F22 Fe0 2.056707 1_555
F23 Fe5 2.024418 1_555
F23 Li7 2.058859 1_555
F23 Fe0 2.083060 1_554
