# generated using pymatgen
data_Rb4FeO4
_symmetry_space_group_name_H-M   'P 1'
_cell_length_a   6.78041610
_cell_length_b   9.97563458
_cell_length_c   12.73330548
_cell_angle_alpha   83.01144287
_cell_angle_beta   98.96254127
_cell_angle_gamma   111.53962255
_symmetry_Int_Tables_number   1
_chemical_formula_structural   Rb4FeO4
_chemical_formula_sum   'Rb16 Fe4 O16'
_cell_volume   789.38783876
_cell_formula_units_Z   4
loop_
 _symmetry_equiv_pos_site_id
 _symmetry_equiv_pos_as_xyz
  1  'x, y, z'
loop_
 _atom_site_type_symbol
 _atom_site_label
 _atom_site_symmetry_multiplicity
 _atom_site_fract_x
 _atom_site_fract_y
 _atom_site_fract_z
 _atom_site_occupancy
  Rb  Rb0  1  0.95491200  0.02590600  0.13851800  1
  Rb  Rb1  1  0.45490100  0.02588100  0.63848700  1
  Rb  Rb2  1  0.54513900  0.97411700  0.36162000  1
  Rb  Rb3  1  0.04523600  0.97409500  0.86161100  1
  Rb  Rb4  1  0.09445900  0.42610000  0.13380700  1
  Rb  Rb5  1  0.59441900  0.42608900  0.63380900  1
  Rb  Rb6  1  0.40548700  0.57380300  0.36609000  1
  Rb  Rb7  1  0.90554100  0.57381600  0.86607700  1
  Rb  Rb8  1  0.37521400  0.85016400  0.10999300  1
  Rb  Rb9  1  0.87522000  0.85017800  0.61001400  1
  Rb  Rb10  1  0.12496800  0.14986100  0.39013100  1
  Rb  Rb11  1  0.62504100  0.14989100  0.89012100  1
  Rb  Rb12  1  0.70350900  0.62918000  0.11587700  1
  Rb  Rb13  1  0.20347400  0.62917700  0.61586100  1
  Rb  Rb14  1  0.79672600  0.37093600  0.38401900  1
  Rb  Rb15  1  0.29672400  0.37095500  0.88401200  1
  Fe  Fe0  1  0.03865300  0.24728500  0.62639200  1
  Fe  Fe1  1  0.96116100  0.75273800  0.37357400  1
  Fe  Fe2  1  0.53872600  0.24732000  0.12643000  1
  Fe  Fe3  1  0.46131000  0.75260800  0.87366900  1
  O  O0  1  0.32164900  0.12262100  0.04000900  1
  O  O1  1  0.82153300  0.12253400  0.53995200  1
  O  O2  1  0.17828600  0.87751100  0.46000600  1
  O  O3  1  0.67829100  0.87744600  0.95995800  1
  O  O4  1  0.69160400  0.37334800  0.02426900  1
  O  O5  1  0.19155000  0.37328500  0.52426600  1
  O  O6  1  0.80831300  0.62676700  0.47573200  1
  O  O7  1  0.30835900  0.62673600  0.97574700  1
  O  O8  1  0.74883700  0.19468600  0.21087000  1
  O  O9  1  0.24864800  0.19465200  0.71081900  1
  O  O10  1  0.75110500  0.80526000  0.28910400  1
  O  O11  1  0.25116700  0.80519000  0.78910400  1
  O  O12  1  0.09141500  0.69794900  0.27765300  1
  O  O13  1  0.59137700  0.69784000  0.77765600  1
  O  O14  1  0.40861600  0.30207800  0.22236900  1
  O  O15  1  0.90842800  0.30199700  0.72237500  1
loop_
_geom_bond_atom_site_label_1
_geom_bond_atom_site_label_2
_geom_bond_distance
_geom_bond_site_symmetry_2
Fe0 O9 1.842118 1_555
Fe0 O1 1.846788 1_455
Fe0 O5 1.846930 1_555
Fe0 O15 1.850323 1_455
Fe1 O10 1.842127 1_555
Fe1 O2 1.846846 1_655
Fe1 O6 1.846966 1_555
Fe1 O12 1.850273 1_655
Fe2 O8 1.842813 1_555
Fe2 O0 1.846285 1_555
Fe2 O4 1.847300 1_555
Fe2 O14 1.849607 1_555
Fe3 O11 1.843408 1_555
Fe3 O3 1.845687 1_555
Fe3 O7 1.846155 1_555
Fe3 O13 1.850187 1_555
O0 Rb0 2.757401 1_455
O0 Rb3 2.884698 1_544
O0 Rb8 2.889254 1_545
O0 Rb11 2.938443 1_554
O0 Rb15 3.019360 1_554
O1 Rb1 2.757006 1_555
O1 Rb2 2.883622 1_545
O1 Rb9 2.888821 1_545
O1 Rb10 2.937891 1_655
O1 Rb14 3.019224 1_555
O2 Rb2 2.757240 1_555
O2 Rb1 2.885376 1_565
O2 Rb10 2.887290 1_565
O2 Rb9 2.937737 1_455
O2 Rb13 3.018822 1_555
O3 Rb3 2.757477 1_655
O3 Rb0 2.886476 1_566
O3 Rb11 2.887911 1_565
O3 Rb8 2.938175 1_556
O3 Rb12 3.018804 1_556
O4 Rb4 2.760365 1_655
O4 Rb7 2.821507 1_554
O4 Rb11 2.835152 1_554
O4 Rb12 2.902435 1_555
O4 Rb15 2.971941 1_554
O5 Rb5 2.760411 1_555
O5 Rb6 2.821578 1_555
O5 Rb10 2.834748 1_555
O5 Rb13 2.902855 1_555
O5 Rb14 2.971686 1_455
O6 Rb6 2.760462 1_555
O6 Rb5 2.821273 1_555
O6 Rb9 2.835414 1_555
O6 Rb14 2.903872 1_555
O6 Rb13 2.972680 1_655
O7 Rb7 2.760598 1_455
O7 Rb4 2.820952 1_556
O7 Rb8 2.835319 1_556
O7 Rb15 2.903440 1_555
O7 Rb12 2.972541 1_556
O8 Rb4 2.824308 1_655
O8 Rb2 2.828501 1_545
O8 Rb0 2.853411 1_555
O8 Rb14 2.891144 1_555
O8 Rb10 3.269482 1_655
O9 Rb5 2.824751 1_555
O9 Rb3 2.828195 1_545
O9 Rb1 2.854131 1_555
O9 Rb15 2.891661 1_555
O9 Rb11 3.270840 1_555
O10 Rb6 2.824124 1_555
O10 Rb0 2.827748 1_565
O10 Rb2 2.854457 1_555
O10 Rb12 2.891296 1_555
O10 Rb8 3.267505 1_555
O11 Rb7 2.823704 1_455
O11 Rb1 2.828088 1_565
O11 Rb3 2.854611 1_555
O11 Rb13 2.890871 1_555
O11 Rb9 3.267913 1_455
O12 Rb6 2.861248 1_555
O12 Rb8 2.985261 1_555
O12 Rb12 2.993760 1_455
O12 Rb14 3.383839 1_455
O13 Rb7 2.860926 1_555
O13 Rb9 2.985485 1_555
O13 Rb13 2.993897 1_555
O13 Rb15 3.382827 1_555
O14 Rb4 2.861278 1_555
O14 Rb10 2.985661 1_555
O14 Rb14 2.993774 1_555
O14 Rb12 3.385475 1_555
O15 Rb5 2.860904 1_555
O15 Rb11 2.984296 1_555
O15 Rb15 2.994536 1_655
O15 Rb13 3.386434 1_655
