# generated using pymatgen
data_Ti2(PO4)3
_symmetry_space_group_name_H-M   'P 1'
_cell_length_a   8.78239026
_cell_length_b   8.78256821
_cell_length_c   8.78276029
_cell_angle_alpha   58.48227198
_cell_angle_beta   58.48294600
_cell_angle_gamma   58.48537732
_symmetry_Int_Tables_number   1
_chemical_formula_structural   Ti2(PO4)3
_chemical_formula_sum   'Ti4 P6 O24'
_cell_volume   462.39744591
_cell_formula_units_Z   2
loop_
 _symmetry_equiv_pos_site_id
 _symmetry_equiv_pos_as_xyz
  1  'x, y, z'
loop_
 _atom_site_type_symbol
 _atom_site_label
 _atom_site_symmetry_multiplicity
 _atom_site_fract_x
 _atom_site_fract_y
 _atom_site_fract_z
 _atom_site_occupancy
  Ti  Ti0  1  0.35980580  0.35984518  0.35979183  1
  Ti  Ti1  1  0.64016672  0.64012540  0.64017683  1
  Ti  Ti2  1  0.85985376  0.85981511  0.85986551  1
  Ti  Ti3  1  0.14016970  0.14020812  0.14017465  1
  P  P0  1  0.74998315  0.03176210  0.46826391  1
  P  P1  1  0.96823797  0.53174625  0.25001101  1
  P  P2  1  0.53176441  0.24998138  0.96826404  1
  P  P3  1  0.46822786  0.75002292  0.03173150  1
  P  P4  1  0.03176428  0.46825588  0.74998746  1
  P  P5  1  0.25001596  0.96823402  0.53174196  1
  O  O0  1  0.92358731  0.06011734  0.29037198  1
  O  O1  1  0.70960658  0.07635785  0.94001040  1
  O  O2  1  0.00233733  0.63974364  0.77813944  1
  O  O3  1  0.86025221  0.49769012  0.72186236  1
  O  O4  1  0.57638427  0.20962945  0.43991029  1
  O  O5  1  0.79039068  0.55999176  0.42363703  1
  O  O6  1  0.94001012  0.70960090  0.07638208  1
  O  O7  1  0.22185242  0.99769474  0.36024703  1
  O  O8  1  0.50232983  0.27815321  0.13974114  1
  O  O9  1  0.27817440  0.13973832  0.50227186  1
  O  O10  1  0.36023240  0.22188130  0.99770789  1
  O  O11  1  0.56004602  0.42358597  0.79037768  1
  O  O12  1  0.43989436  0.57641422  0.20962284  1
  O  O13  1  0.63973961  0.77816331  0.00228606  1
  O  O14  1  0.72179891  0.86027521  0.49772666  1
  O  O15  1  0.77819615  0.00229312  0.63972807  1
  O  O16  1  0.49767238  0.72181919  0.86027467  1
  O  O17  1  0.06005758  0.29039643  0.92361609  1
  O  O18  1  0.20960883  0.43995200  0.57636098  1
  O  O19  1  0.42362097  0.79036714  0.56003096  1
  O  O20  1  0.13977124  0.50231429  0.27810229  1
  O  O21  1  0.99765780  0.36023525  0.22189528  1
  O  O22  1  0.29038490  0.92363386  0.06006105  1
  O  O23  1  0.07640406  0.93995502  0.70962714  1
loop_
_geom_bond_atom_site_label_1
_geom_bond_atom_site_label_2
_geom_bond_distance
_geom_bond_site_symmetry_2
O0 P0 1.525545 1_555
O0 Ti3 1.912645 1_655
O1 P2 1.525383 1_555
O1 Ti2 1.912724 1_545
O2 P4 1.520488 1_555
O2 Ti2 1.949283 1_455
O3 P4 1.520496 1_655
O3 Ti1 1.949174 1_555
O4 P0 1.525479 1_555
O4 Ti0 1.912823 1_555
O5 P1 1.525374 1_555
O5 Ti1 1.912651 1_555
O6 P1 1.525386 1_555
O6 Ti2 1.912562 1_554
O7 P5 1.520493 1_555
O7 Ti3 1.949031 1_565
O8 P2 1.520491 1_554
O8 Ti0 1.948937 1_555
O9 P5 1.520467 1_545
O9 Ti0 1.948980 1_555
O10 P2 1.520479 1_555
O10 Ti3 1.948844 1_556
O11 P2 1.525433 1_555
O11 Ti1 1.912487 1_555
O12 P3 1.525539 1_555
O12 Ti0 1.912559 1_555
O13 P3 1.520506 1_555
O13 Ti2 1.949152 1_554
O14 P0 1.520478 1_565
O14 Ti1 1.949322 1_555
O15 P0 1.520452 1_555
O15 Ti2 1.949416 1_545
O16 P3 1.520444 1_556
O16 Ti1 1.949316 1_555
O17 P4 1.525488 1_555
O17 Ti3 1.912667 1_556
O18 P4 1.525443 1_555
O18 Ti0 1.912745 1_555
O19 P5 1.525422 1_555
O19 Ti1 1.912707 1_555
O20 P1 1.520513 1_455
O20 Ti0 1.948793 1_555
O21 P1 1.520528 1_555
O21 Ti3 1.948909 1_655
O22 P3 1.525426 1_555
O22 Ti3 1.912814 1_565
O23 P5 1.525457 1_555
O23 Ti2 1.912631 1_455
