# generated using pymatgen
data_Li6CrCo3(PO4)6
_symmetry_space_group_name_H-M   'P 1'
_cell_length_a   8.45435400
_cell_length_b   8.52839729
_cell_length_c   8.52825122
_cell_angle_alpha   61.98398972
_cell_angle_beta   62.23229982
_cell_angle_gamma   62.13924387
_symmetry_Int_Tables_number   1
_chemical_formula_structural   Li6CrCo3(PO4)6
_chemical_formula_sum   'Li6 Cr1 Co3 P6 O24'
_cell_volume   455.38500747
_cell_formula_units_Z   1
loop_
 _symmetry_equiv_pos_site_id
 _symmetry_equiv_pos_as_xyz
  1  'x, y, z'
loop_
 _atom_site_type_symbol
 _atom_site_label
 _atom_site_symmetry_multiplicity
 _atom_site_fract_x
 _atom_site_fract_y
 _atom_site_fract_z
 _atom_site_occupancy
  Li  Li0  1  0.97510600  0.00219700  0.99114100  1
  Li  Li1  1  0.25109700  0.65361900  0.84714100  1
  Li  Li2  1  0.52499700  0.50674900  0.49423000  1
  Li  Li3  1  0.72895200  0.35100800  0.16028100  1
  Li  Li4  1  0.34742200  0.16393100  0.72658600  1
  Li  Li5  1  0.16446700  0.72786200  0.34886800  1
  Cr  Cr0  1  0.14261700  0.14446400  0.14435800  1
  Co  Co0  1  0.85451600  0.86275200  0.85311700  1
  Co  Co1  1  0.64617000  0.64661400  0.63853900  1
  Co  Co2  1  0.35168400  0.35011300  0.34926000  1
  P  P0  1  0.95132100  0.54902300  0.24741000  1
  P  P1  1  0.54800500  0.25013000  0.95141500  1
  P  P2  1  0.24897500  0.95444000  0.54624700  1
  P  P3  1  0.75000900  0.04340600  0.45878900  1
  P  P4  1  0.45688800  0.74986100  0.04025300  1
  P  P5  1  0.04522700  0.46227300  0.75062900  1
  O  O0  1  0.87118000  0.50192400  0.70768300  1
  O  O1  1  0.69505900  0.88156100  0.49073100  1
  O  O2  1  0.95156400  0.73322200  0.07938600  1
  O  O3  1  0.46768400  0.70372100  0.88097300  1
  O  O4  1  0.76334800  0.56680000  0.40753200  1
  O  O5  1  0.98543500  0.38548600  0.19197300  1
  O  O6  1  0.73891300  0.09413000  0.93021500  1
  O  O7  1  0.54460600  0.42209300  0.77043700  1
  O  O8  1  0.40671300  0.76106500  0.56654000  1
  O  O9  1  0.81511800  0.00473800  0.61646100  1
  O  O10  1  0.90361200  0.07414000  0.26136000  1
  O  O11  1  0.62541800  0.80343200  0.99399600  1
  O  O12  1  0.38441400  0.19016600  0.99033300  1
  O  O13  1  0.09479400  0.93182400  0.74074000  1
  O  O14  1  0.18882200  0.99010100  0.38595200  1
  O  O15  1  0.58469100  0.23346900  0.44724200  1
  O  O16  1  0.44972100  0.58293600  0.22921400  1
  O  O17  1  0.26143700  0.90535600  0.07856100  1
  O  O18  1  0.02838400  0.61763700  0.80598700  1
  O  O19  1  0.23163000  0.44480200  0.58186900  1
  O  O20  1  0.52173800  0.30532900  0.11537000  1
  O  O21  1  0.07285000  0.26458800  0.90497200  1
  O  O22  1  0.30921500  0.11437500  0.51845700  1
  O  O23  1  0.11619900  0.51766300  0.30675300  1
loop_
_geom_bond_atom_site_label_1
_geom_bond_atom_site_label_2
_geom_bond_distance
_geom_bond_site_symmetry_2
Li0 O6 1.998223 1_555
Li0 O2 2.129188 1_546
Li0 O13 2.137142 1_645
Li0 O10 2.395057 1_556
Li0 O21 2.418303 1_655
Li0 O17 2.516444 1_646
Li1 O13 2.088860 1_555
Li1 O8 2.104847 1_555
Li1 O3 2.226689 1_555
Li1 O18 2.240451 1_555
Li1 O7 2.367631 1_555
Li1 O2 2.404065 1_456
Li2 O4 2.022417 1_555
Li2 O8 2.176967 1_555
Li2 O7 2.179849 1_555
Li2 O15 2.331686 1_555
Li2 O16 2.347236 1_555
Li2 O19 2.473002 1_555
Li3 O10 2.124629 1_555
Li3 O15 2.130359 1_555
Li3 O20 2.184199 1_555
Li3 O16 2.294763 1_555
Li3 O5 2.465388 1_555
Li4 O19 2.091928 1_555
Li4 O21 2.124554 1_555
Li4 O22 2.190903 1_555
Li4 O15 2.320092 1_555
Li4 O12 2.529994 1_555
Li5 O17 2.097238 1_555
Li5 O16 2.119158 1_555
Li5 O23 2.221335 1_555
Li5 O19 2.315671 1_555
Li5 O14 2.509943 1_555
Cr0 O12 1.953961 1_554
Cr0 O14 1.962644 1_545
Cr0 O5 1.970867 1_455
Cr0 O17 2.029159 1_545
Cr0 O10 2.032267 1_455
Cr0 O21 2.039058 1_554
Co0 O9 1.898452 1_565
Co0 O11 1.904584 1_555
Co0 O18 2.014702 1_655
Co0 O6 2.024582 1_565
Co0 O13 2.041106 1_655
Co0 O2 2.059780 1_556
Co1 O0 1.912290 1_555
Co1 O1 1.921066 1_555
Co1 O4 2.033956 1_555
Co1 O3 2.034943 1_555
Co1 O8 2.043648 1_555
Co1 O7 2.069391 1_555
Co2 O23 1.914098 1_555
Co2 O22 1.928635 1_555
Co2 O20 1.929237 1_555
Co2 O19 2.116682 1_555
Co2 O15 2.118902 1_555
Co2 O16 2.124986 1_555
O0 P5 1.527878 1_655
O1 P3 1.524263 1_565
O2 P0 1.551354 1_555
O3 P4 1.536693 1_556
O4 P0 1.536389 1_555
O5 P0 1.538946 1_555
O6 P1 1.534543 1_555
O7 P1 1.552191 1_555
O8 P2 1.555476 1_555
O9 P3 1.524242 1_555
O10 P3 1.567238 1_555
O11 P4 1.519810 1_556
O12 P1 1.535716 1_555
O13 P2 1.551580 1_555
O14 P2 1.527271 1_555
O15 P3 1.565695 1_555
O16 P4 1.568982 1_555
O17 P4 1.565789 1_555
O18 P5 1.532147 1_555
O19 P5 1.563879 1_555
O20 P1 1.567600 1_554
O21 P5 1.569450 1_555
O22 P2 1.552136 1_545
O23 P0 1.566029 1_455
