# generated using pymatgen
data_Li5Cu5(SnO6)2
_symmetry_space_group_name_H-M   'P 1'
_cell_length_a   5.18039844
_cell_length_b   5.18039844
_cell_length_c   9.99936517
_cell_angle_alpha   88.85384119
_cell_angle_beta   88.85384119
_cell_angle_gamma   114.30108724
_symmetry_Int_Tables_number   1
_chemical_formula_structural   Li5Cu5(SnO6)2
_chemical_formula_sum   'Li5 Cu5 Sn2 O12'
_cell_volume   244.40502528
_cell_formula_units_Z   1
loop_
 _symmetry_equiv_pos_site_id
 _symmetry_equiv_pos_as_xyz
  1  'x, y, z'
loop_
 _atom_site_type_symbol
 _atom_site_label
 _atom_site_symmetry_multiplicity
 _atom_site_fract_x
 _atom_site_fract_y
 _atom_site_fract_z
 _atom_site_occupancy
  Li  Li0  1  0.83405900  0.67786900  0.25456700  1
  Li  Li1  1  0.69068900  0.85295500  0.74033600  1
  Li  Li2  1  0.32213100  0.16594100  0.74543300  1
  Li  Li3  1  0.14704500  0.30931100  0.25966400  1
  Li  Li4  1  0.09387900  0.90612100  0.50000000  1
  Cu  Cu0  1  0.91775700  0.08224300  0.00000000  1
  Cu  Cu1  1  0.01102200  0.52094600  0.74548700  1
  Cu  Cu2  1  0.47905400  0.98897800  0.25451300  1
  Cu  Cu3  1  0.58573900  0.41426100  0.00000000  1
  Cu  Cu4  1  0.41298100  0.58701900  0.50000000  1
  Sn  Sn0  1  0.75333100  0.24666900  0.50000000  1
  Sn  Sn1  1  0.25156400  0.74843600  0.00000000  1
  O  O0  1  0.02663800  0.22231100  0.63988500  1
  O  O1  1  0.77768900  0.97336200  0.36011500  1
  O  O2  1  0.90433300  0.40490700  0.09949400  1
  O  O3  1  0.59509300  0.09566700  0.90050600  1
  O  O4  1  0.70098500  0.54969200  0.61756700  1
  O  O5  1  0.45030800  0.29901500  0.38243300  1
  O  O6  1  0.53638400  0.68668400  0.12334400  1
  O  O7  1  0.31331600  0.46361600  0.87665600  1
  O  O8  1  0.41971800  0.90114900  0.60493100  1
  O  O9  1  0.09885100  0.58028200  0.39506900  1
  O  O10  1  0.18811300  0.01067700  0.13657500  1
  O  O11  1  0.98932200  0.81188700  0.86342500  1
loop_
_geom_bond_atom_site_label_1
_geom_bond_atom_site_label_2
_geom_bond_distance
_geom_bond_site_symmetry_2
Li0 O1 1.990643 1_555
Li0 O6 2.058718 1_555
Li0 O9 2.174968 1_655
Li0 O10 2.226636 1_665
Li0 O2 2.241733 1_555
Li0 O5 2.454653 1_555
Li1 O4 2.030146 1_555
Li1 O8 2.053532 1_555
Li1 O11 2.071251 1_555
Li1 O0 2.193455 1_665
Li1 O3 2.225446 1_565
Li1 O7 2.507183 1_555
Li2 O0 1.990643 1_555
Li2 O7 2.058718 1_555
Li2 O8 2.174968 1_545
Li2 O11 2.226639 1_445
Li2 O3 2.241733 1_555
Li2 O4 2.454653 1_555
Li3 O5 2.030146 1_555
Li3 O9 2.053532 1_555
Li3 O10 2.071255 1_555
Li3 O1 2.193455 1_445
Li3 O2 2.225446 1_455
Li3 O6 2.507183 1_555
Li4 O8 2.014049 1_555
Li4 O9 2.014049 1_555
Li4 O1 2.302751 1_455
Li4 O0 2.302751 1_565
Li4 O4 2.378709 1_455
Li4 O5 2.378709 1_565
Cu0 O2 1.986972 1_555
Cu0 O3 1.986972 1_554
Cu0 O11 2.108946 1_544
Cu0 O10 2.108948 1_655
Cu0 O7 2.468349 1_654
Cu0 O6 2.468349 1_545
Cu1 O0 1.918302 1_555
Cu1 O11 1.969842 1_455
Cu1 O4 2.123523 1_455
Cu1 O7 2.170316 1_555
Cu1 O8 2.583649 1_555
Cu2 O1 1.918302 1_555
Cu2 O10 1.969840 1_565
Cu2 O5 2.123523 1_565
Cu2 O6 2.170316 1_555
Cu2 O9 2.583649 1_555
Cu3 O3 1.961040 1_554
Cu3 O2 1.961040 1_555
Cu3 O6 1.982980 1_555
Cu3 O7 1.982980 1_554
Cu3 O11 2.589945 1_554
Cu3 O10 2.589947 1_555
Cu4 O9 1.942504 1_555
Cu4 O8 1.942504 1_555
Cu4 O5 1.985935 1_555
Cu4 O4 1.985935 1_555
Cu4 O1 2.490333 1_555
Cu4 O0 2.490333 1_555
O0 Sn0 2.048480 1_455
O1 Sn0 2.048480 1_565
O2 Sn1 2.148323 1_655
O3 Sn1 2.148323 1_546
O4 Sn0 2.081155 1_555
O5 Sn0 2.081155 1_555
O6 Sn1 2.060600 1_555
O7 Sn1 2.060600 1_556
O8 Sn0 2.144255 1_565
O9 Sn0 2.144255 1_455
O10 Sn1 2.059718 1_545
O11 Sn1 2.059721 1_656
