# generated using pymatgen
data_Li4Co3OF8
_symmetry_space_group_name_H-M   'P 1'
_cell_length_a   5.09640460
_cell_length_b   5.09640460
_cell_length_c   11.51812734
_cell_angle_alpha   78.61348342
_cell_angle_beta   78.61348342
_cell_angle_gamma   32.66027830
_symmetry_Int_Tables_number   1
_chemical_formula_structural   Li4Co3OF8
_chemical_formula_sum   'Li4 Co3 O1 F8'
_cell_volume   157.99261717
_cell_formula_units_Z   1
loop_
 _symmetry_equiv_pos_site_id
 _symmetry_equiv_pos_as_xyz
  1  'x, y, z'
loop_
 _atom_site_type_symbol
 _atom_site_label
 _atom_site_symmetry_multiplicity
 _atom_site_fract_x
 _atom_site_fract_y
 _atom_site_fract_z
 _atom_site_occupancy
  Li  Li0  1  0.13370700  0.13370700  0.44187800  1
  Li  Li1  1  0.22951400  0.22951400  0.12656100  1
  Li  Li2  1  0.85211500  0.85211500  0.55508700  1
  Li  Li3  1  0.00666400  0.00666400  0.00608800  1
  Co  Co0  1  0.57622500  0.57622500  0.72965200  1
  Co  Co1  1  0.76060300  0.76060300  0.87718900  1
  Co  Co2  1  0.43018700  0.43018700  0.29830000  1
  O  O0  1  0.13520700  0.13520700  0.83510800  1
  F  F0  1  0.63215900  0.63215900  0.05172600  1
  F  F1  1  0.08626200  0.08626200  0.27441900  1
  F  F2  1  0.18945100  0.18945100  0.59928700  1
  F  F3  1  0.79011200  0.79011200  0.39320700  1
  F  F4  1  0.87143300  0.87143300  0.16903700  1
  F  F5  1  0.91689800  0.91689800  0.71312500  1
  F  F6  1  0.37564700  0.37564700  0.95213400  1
  F  F7  1  0.48645600  0.48645600  0.47672300  1
loop_
_geom_bond_atom_site_label_1
_geom_bond_atom_site_label_2
_geom_bond_distance
_geom_bond_site_symmetry_2
Li3 O0 2.107255 1_554
Co0 O0 2.037148 1_565
Co0 O0 2.037148 1_655
Co0 F5 2.154189 1_455
Co0 F5 2.154189 1_545
Co0 F2 2.202372 1_565
Co0 F2 2.202372 1_655
Co1 O0 2.009331 1_565
Co1 O0 2.009331 1_655
Co1 F6 2.112952 1_565
Co1 F6 2.112952 1_655
Co1 F0 2.140267 1_556
Co1 F5 2.172462 1_555
Co2 F1 2.070499 1_565
Co2 F1 2.070499 1_655
Co2 F3 2.123542 1_545
Co2 F3 2.123542 1_455
Co2 F4 2.225414 1_545
Co2 F4 2.225414 1_455
Co2 F7 2.234229 1_555
F0 Li1 2.010210 1_655
F0 Li1 2.010210 1_565
F0 Li3 2.025357 1_565
F0 Li3 2.025357 1_655
F1 Li1 1.970267 1_555
F1 Li0 2.074611 1_555
F2 Li0 1.997812 1_555
F2 Li2 2.123894 1_455
F2 Li2 2.123894 1_545
F3 Li2 2.075976 1_555
F3 Li0 2.086946 1_565
F3 Li0 2.086946 1_655
F4 Li3 2.061763 1_665
F4 Li1 2.121150 1_565
F4 Li1 2.121150 1_655
F5 Li2 2.046865 1_555
F6 Li3 2.099920 1_566
F6 Li3 2.099920 1_656
F6 Li1 2.213141 1_556
F7 Li0 2.012765 1_655
F7 Li0 2.012765 1_565
F7 Li2 2.026536 1_545
F7 Li2 2.026536 1_455
