# generated using pymatgen
data_VO2F
_symmetry_space_group_name_H-M   'P 1'
_cell_length_a   5.07810100
_cell_length_b   5.10839971
_cell_length_c   9.00808548
_cell_angle_alpha   76.52114279
_cell_angle_beta   76.00818805
_cell_angle_gamma   62.18939160
_symmetry_Int_Tables_number   1
_chemical_formula_structural   VO2F
_chemical_formula_sum   'V4 O8 F4'
_cell_volume   198.57562464
_cell_formula_units_Z   4
loop_
 _symmetry_equiv_pos_site_id
 _symmetry_equiv_pos_as_xyz
  1  'x, y, z'
loop_
 _atom_site_type_symbol
 _atom_site_label
 _atom_site_symmetry_multiplicity
 _atom_site_fract_x
 _atom_site_fract_y
 _atom_site_fract_z
 _atom_site_occupancy
  V  V0  1  0.00000000  0.00000000  0.00000000  1
  V  V1  1  0.20690300  0.31489200  0.25034700  1
  V  V2  1  0.50000000  0.50000000  0.50000000  1
  V  V3  1  0.79309700  0.68510800  0.74965300  1
  O  O0  1  0.20130300  0.62544900  0.12395800  1
  O  O1  1  0.12628700  0.53674100  0.62679100  1
  O  O2  1  0.05985500  0.18308100  0.12589000  1
  O  O3  1  0.54578100  0.70275500  0.62344600  1
  O  O4  1  0.45421900  0.29724500  0.37655400  1
  O  O5  1  0.94014500  0.81691900  0.87411000  1
  O  O6  1  0.87371300  0.46325900  0.37320900  1
  O  O7  1  0.79869700  0.37455100  0.87604200  1
  F  F0  1  0.29101400  0.86358600  0.37659800  1
  F  F1  1  0.37239600  0.96313000  0.87465400  1
  F  F2  1  0.62760400  0.03687000  0.12534600  1
  F  F3  1  0.70898600  0.13641400  0.62340200  1
loop_
_geom_bond_atom_site_label_1
_geom_bond_atom_site_label_2
_geom_bond_distance
_geom_bond_site_symmetry_2
O0 V1 1.716222 1_555
O0 V0 1.919293 1_565
O1 V3 1.717859 1_455
O1 V2 1.913276 1_555
O2 V0 1.783102 1_555
O2 V1 1.869171 1_555
O3 V2 1.802782 1_555
O3 V3 1.847951 1_555
O4 V2 1.802782 1_555
O4 V1 1.847951 1_555
O5 V0 1.783102 1_666
O5 V3 1.869171 1_555
O6 V1 1.717859 1_655
O6 V2 1.913276 1_555
O7 V3 1.716222 1_555
O7 V0 1.919293 1_656
F0 V2 1.892196 1_555
F0 V1 2.210142 1_565
F1 V0 1.902836 1_566
F1 V3 2.144794 1_555
F2 V0 1.902836 1_655
F2 V1 2.144794 1_555
F3 V2 1.892196 1_555
F3 V3 2.210142 1_545
