# generated using pymatgen
data_Li9Mg12Fe(PO4)12
_symmetry_space_group_name_H-M   'P 1'
_cell_length_a   8.17130300
_cell_length_b   11.31850701
_cell_length_c   12.67547904
_cell_angle_alpha   109.23542452
_cell_angle_beta   93.96337603
_cell_angle_gamma   92.50930123
_symmetry_Int_Tables_number   1
_chemical_formula_structural   Li9Mg12Fe(PO4)12
_chemical_formula_sum   'Li9 Mg12 Fe1 P12 O48'
_cell_volume   1101.46237067
_cell_formula_units_Z   1
loop_
 _symmetry_equiv_pos_site_id
 _symmetry_equiv_pos_as_xyz
  1  'x, y, z'
loop_
 _atom_site_type_symbol
 _atom_site_label
 _atom_site_symmetry_multiplicity
 _atom_site_fract_x
 _atom_site_fract_y
 _atom_site_fract_z
 _atom_site_occupancy
  Li  Li0  1  0.02156100  0.92770300  0.02114100  1
  Li  Li1  1  0.46793500  0.99521700  0.07770100  1
  Li  Li2  1  0.96296400  0.75594400  0.69137000  1
  Li  Li3  1  0.57252000  0.61836400  0.53003000  1
  Li  Li4  1  0.34372600  0.17254900  0.77876900  1
  Li  Li5  1  0.02116800  0.17202100  0.64275100  1
  Li  Li6  1  0.47783100  0.31756100  0.34305200  1
  Li  Li7  1  0.53704400  0.52535400  0.95231200  1
  Li  Li8  1  0.06242900  0.50745400  0.15340200  1
  Mg  Mg0  1  0.78041600  0.70317900  0.06935500  1
  Mg  Mg1  1  0.27547400  0.68235900  0.80745100  1
  Mg  Mg2  1  0.75611200  0.02401200  0.87100300  1
  Mg  Mg3  1  0.70583600  0.30948100  0.74585000  1
  Mg  Mg4  1  0.19690600  0.93233000  0.58531400  1
  Mg  Mg5  1  0.06741500  0.40830200  0.35957400  1
  Mg  Mg6  1  0.07116700  0.45886900  0.63071800  1
  Mg  Mg7  1  0.68776100  0.10445200  0.43645700  1
  Mg  Mg8  1  0.44840500  0.76958000  0.20969400  1
  Mg  Mg9  1  0.11514400  0.18228300  0.01495100  1
  Mg  Mg10  1  0.79778600  0.12673500  0.15155200  1
  Mg  Mg11  1  0.20451900  0.42800900  0.93014000  1
  Fe  Fe0  1  0.93516000  0.73394800  0.33618700  1
  P  P0  1  0.15629900  0.70469600  0.00680600  1
  P  P1  1  0.76084400  0.35410400  0.49069800  1
  P  P2  1  0.43951500  0.34465800  0.10227600  1
  P  P3  1  0.31317500  0.37482200  0.72424200  1
  P  P4  1  0.79988700  0.97811700  0.63856500  1
  P  P5  1  0.75046900  0.93821900  0.23781300  1
  P  P6  1  0.34770700  0.98009400  0.84013900  1
  P  P7  1  0.27514000  0.11394000  0.43124200  1
  P  P8  1  0.74498600  0.50260700  0.25613100  1
  P  P9  1  0.66183700  0.73174000  0.81763400  1
  P  P10  1  0.25280800  0.67008900  0.39492500  1
  P  P11  1  0.82896400  0.32065400  0.95107900  1
  O  O0  1  0.55368700  0.66558200  0.08696000  1
  O  O1  1  0.98170300  0.75419700  0.01281300  1
  O  O2  1  0.67976600  0.66257000  0.89807200  1
  O  O3  1  0.24197500  0.86605100  0.84126500  1
  O  O4  1  0.18329500  0.29467300  0.77200400  1
  O  O5  1  0.51076800  0.69966100  0.73680600  1
  O  O6  1  0.08398000  0.62992700  0.70746800  1
  O  O7  1  0.86090800  0.38621900  0.18324900  1
  O  O8  1  0.17740100  0.24036500  0.43912700  1
  O  O9  1  0.91604800  0.07831700  0.01218900  1
  O  O10  1  0.52472100  0.97942100  0.89642500  1
  O  O11  1  0.76757000  0.43091000  0.91623000  1
  O  O12  1  0.79452200  0.82775000  0.81645900  1
  O  O13  1  0.46950400  0.29675700  0.72215700  1
  O  O14  1  0.91226700  0.34873600  0.68066400  1
  O  O15  1  0.27086300  0.10467800  0.90567800  1
  O  O16  1  0.76247000  0.40302800  0.63589700  1
  O  O17  1  0.35772300  0.98682000  0.71874200  1
  O  O18  1  0.99311000  0.97713200  0.65645800  1
  O  O19  1  0.34401000  0.63532800  0.48617000  1
  O  O20  1  0.20646000  0.07834400  0.52829400  1
  O  O21  1  0.26123900  0.32888300  0.39486900  1
  O  O22  1  0.93744300  0.41618200  0.48556300  1
  O  O23  1  0.77673700  0.19874500  0.84710800  1
  O  O24  1  0.25794200  0.81868800  0.12339700  1
  O  O25  1  0.78601500  0.73335200  0.55782500  1
  O  O26  1  0.35905600  0.70390800  0.31440400  1
  O  O27  1  0.77102200  0.08022900  0.57818000  1
  O  O28  1  0.62631800  0.43468500  0.46548300  1
  O  O29  1  0.45861300  0.14952200  0.43780900  1
  O  O30  1  0.13863600  0.78525900  0.44597600  1
  O  O31  1  0.11360600  0.56472400  0.32302200  1
  O  O32  1  0.83004600  0.07275100  0.30160600  1
  O  O33  1  0.87045000  0.83434700  0.23605700  1
  O  O34  1  0.54782500  0.44607600  0.20542100  1
  O  O35  1  0.54830800  0.22402200  0.07097400  1
  O  O36  1  0.15297900  0.58750900  0.04909100  1
  O  O37  1  0.60039000  0.92237000  0.30199200  1
  O  O38  1  0.24638900  0.94251100  0.10976800  1
  O  O39  1  0.74231200  0.84396100  0.52759200  1
  O  O40  1  0.34459200  0.50252500  0.83242700  1
  O  O41  1  0.90407200  0.29609900  0.24210800  1
  O  O42  1  0.55794700  0.17605400  0.16934400  1
  O  O43  1  0.81286400  0.59169100  0.19288700  1
  O  O44  1  0.70313800  0.93157100  0.11541300  1
  O  O45  1  0.27527100  0.31495700  0.14122100  1
  O  O46  1  0.02093000  0.33343500  0.98173100  1
  O  O47  1  0.42219600  0.38336600  0.99861200  1
loop_
_geom_bond_atom_site_label_1
_geom_bond_atom_site_label_2
_geom_bond_distance
_geom_bond_site_symmetry_2
Li0 O1 1.943320 1_455
Li0 O9 1.976094 1_465
Li0 O38 2.056417 1_555
Li1 O38 1.991299 1_555
Li1 O42 2.064755 1_565
Li1 O44 2.159243 1_555
Li1 O10 2.326144 1_554
Li2 O6 1.827910 1_655
Li2 O25 2.089377 1_555
Li2 O12 2.149313 1_555
Li3 O19 1.946971 1_555
Li3 O28 2.047867 1_555
Li3 O25 2.067727 1_555
Li3 O5 2.570071 1_555
Li4 O4 1.964119 1_555
Li4 O17 1.997580 1_545
Li4 O13 2.046410 1_555
Li4 O15 2.106869 1_555
Li5 O4 2.099226 1_555
Li5 O14 2.145933 1_455
Li5 O27 2.224816 1_455
Li5 O20 2.225334 1_555
Li5 O18 2.272066 1_445
Li6 O21 1.924900 1_555
Li6 O28 1.970078 1_555
Li6 O42 2.410255 1_555
Li6 O29 2.567064 1_555
Li7 O0 1.901227 1_556
Li7 O40 2.055316 1_555
Li7 O47 2.091266 1_555
Li7 O11 2.207590 1_555
Li7 O2 2.213733 1_555
Li8 O36 1.995647 1_555
Li8 O31 2.037476 1_555
Li8 O7 2.228894 1_455
Li8 O43 2.305446 1_455
Li8 O46 2.396868 1_554
Mg0 O0 1.927164 1_555
Mg0 O1 1.976075 1_555
Mg0 O2 2.159598 1_554
Mg0 O33 2.198341 1_555
Mg0 O43 2.321264 1_555
Mg0 O44 2.573245 1_555
Mg1 O6 1.885675 1_555
Mg1 O3 2.015008 1_555
Mg1 O5 2.203948 1_555
Mg1 O40 2.250068 1_555
Mg2 O10 2.010319 1_545
Mg2 O9 2.042055 1_556
Mg2 O23 2.098586 1_555
Mg2 O12 2.142473 1_545
Mg3 O13 1.925412 1_555
Mg3 O14 2.023459 1_555
Mg3 O16 2.072737 1_555
Mg3 O23 2.138852 1_555
Mg3 O11 2.154169 1_555
Mg4 O18 1.955439 1_455
Mg4 O17 1.975370 1_555
Mg4 O30 1.998556 1_555
Mg4 O20 2.010795 1_565
Mg5 O21 1.951480 1_555
Mg5 O22 1.958342 1_455
Mg5 O41 1.985493 1_455
Mg5 O31 1.999452 1_555
Mg6 O6 1.852850 1_555
Mg6 O22 1.975553 1_455
Mg6 O14 2.032845 1_455
Mg7 O29 1.961851 1_555
Mg7 O27 1.984194 1_555
Mg7 O32 2.075899 1_555
Mg7 O37 2.247331 1_545
Mg7 P1 2.707258 1_555
Mg8 O26 1.893045 1_555
Mg8 O0 1.900788 1_555
Mg8 O24 2.041728 1_555
Mg8 O37 2.044439 1_555
Mg9 O9 1.957041 1_455
Mg9 O15 1.961872 1_554
Mg9 O46 2.059623 1_554
Mg9 O45 2.117441 1_555
Mg10 O9 1.999788 1_555
Mg10 O41 2.003274 1_555
Mg10 O42 2.068143 1_555
Mg10 O32 2.184262 1_555
Mg10 O44 2.195953 1_545
Mg11 O36 2.017591 1_556
Mg11 O4 2.064290 1_555
Mg11 O46 2.068862 1_555
Mg11 O47 2.080058 1_555
Mg11 O40 2.086904 1_555
Fe0 O33 2.022853 1_555
Fe0 O30 2.025199 1_655
Fe0 O43 2.138131 1_555
Fe0 O31 2.426976 1_655
O1 P0 1.553066 1_655
O2 P9 1.479634 1_555
O3 P6 1.526104 1_555
O4 P3 1.637739 1_555
O5 P9 1.498711 1_555
O7 P8 1.707170 1_555
O8 P7 1.646908 1_555
O10 P6 1.569438 1_555
O11 P11 1.546459 1_555
O12 P9 1.505442 1_555
O13 P3 1.581551 1_555
O14 O16 1.548379 1_555
O15 P6 1.565434 1_545
O16 P1 1.737408 1_555
O17 P6 1.573004 1_555
O18 P4 1.580551 1_555
O19 P10 1.501398 1_555
O20 P7 1.546877 1_555
O22 P1 1.592054 1_555
O23 P11 1.579676 1_555
O24 O38 1.473701 1_555
O24 P0 1.737427 1_555
O25 O39 1.475823 1_555
O26 P10 1.514196 1_555
O27 P4 1.599702 1_545
O28 P1 1.540665 1_555
O29 P7 1.524649 1_555
O30 P10 1.619411 1_555
O31 P10 1.602639 1_555
O32 P5 1.557119 1_545
O33 P5 1.559038 1_555
O34 P2 1.603904 1_555
O34 P8 1.706950 1_555
O35 O42 1.513910 1_555
O35 P2 1.615600 1_555
O36 P0 1.585745 1_555
O37 P5 1.553279 1_555
O39 P4 1.715884 1_555
O40 P3 1.627393 1_555
O41 O7 1.489301 1_555
O43 P8 1.584938 1_555
O44 P5 1.549164 1_555
O45 P2 1.522931 1_555
O46 P11 1.578377 1_455
O47 P2 1.515779 1_556
