# generated using pymatgen
data_NaP
_symmetry_space_group_name_H-M   'P 1'
_cell_length_a   5.58246188
_cell_length_b   6.00075860
_cell_length_c   10.05371571
_cell_angle_alpha   90.00000000
_cell_angle_beta   90.00000000
_cell_angle_gamma   90.00000000
_symmetry_Int_Tables_number   1
_chemical_formula_structural   NaP
_chemical_formula_sum   'Na8 P8'
_cell_volume   336.78948425
_cell_formula_units_Z   8
loop_
 _symmetry_equiv_pos_site_id
 _symmetry_equiv_pos_as_xyz
  1  'x, y, z'
loop_
 _atom_site_type_symbol
 _atom_site_label
 _atom_site_symmetry_multiplicity
 _atom_site_fract_x
 _atom_site_fract_y
 _atom_site_fract_z
 _atom_site_occupancy
  Na  Na0  1  0.09574138  0.58628400  0.96576180  1
  Na  Na1  1  0.59574138  0.41371600  0.53423820  1
  Na  Na2  1  0.40425862  0.08628400  0.03423820  1
  Na  Na3  1  0.90425862  0.91371600  0.46576180  1
  Na  Na4  1  0.36666570  0.86321871  0.66764315  1
  Na  Na5  1  0.86666570  0.13678129  0.83235685  1
  Na  Na6  1  0.13333430  0.36321871  0.33235685  1
  Na  Na7  1  0.63333430  0.63678129  0.16764315  1
  P  P0  1  0.86339102  0.69318543  0.71598322  1
  P  P1  1  0.36339102  0.30681357  0.78401678  1
  P  P2  1  0.63660898  0.19318643  0.28401678  1
  P  P3  1  0.13660898  0.80681457  0.21598322  1
  P  P4  1  0.59688937  0.57063115  0.86658965  1
  P  P5  1  0.09688937  0.42936885  0.63341035  1
  P  P6  1  0.90311063  0.07063115  0.13341035  1
  P  P7  1  0.40311063  0.92936885  0.36658965  1
loop_
_geom_bond_atom_site_label_1
_geom_bond_atom_site_label_2
_geom_bond_distance
_geom_bond_site_symmetry_2
Na0 P3 2.851636 1_556
Na0 P1 2.895448 1_555
Na0 P0 2.898290 1_455
Na0 P4 2.959420 1_455
Na0 P4 2.971484 1_555
Na1 P2 2.851633 1_555
Na1 P0 2.895444 1_555
Na1 P1 2.898291 1_555
Na1 P5 2.959420 1_555
Na1 P5 2.971484 1_655
Na2 P1 2.851633 1_554
Na2 P3 2.895444 1_545
Na2 P2 2.898291 1_555
Na2 P6 2.959420 1_555
Na2 P6 2.971484 1_455
Na3 P0 2.851636 1_555
Na3 P2 2.895448 1_565
Na3 P3 2.898290 1_655
Na3 P7 2.959420 1_655
Na3 P7 2.971484 1_555
Na4 P1 2.907739 1_565
Na4 P4 2.955509 1_555
Na4 P0 2.994414 1_555
Na4 P5 3.027272 1_555
Na4 P0 3.028303 1_455
Na4 P7 3.059398 1_555
Na5 P0 2.907745 1_545
Na5 P5 2.955509 1_655
Na5 P1 2.994412 1_655
Na5 P4 3.027272 1_555
Na5 P1 3.028301 1_555
Na5 P6 3.059398 1_556
Na6 P3 2.907745 1_555
Na6 P6 2.955509 1_455
Na6 P2 2.994412 1_455
Na6 P7 3.027272 1_545
Na6 P2 3.028301 1_555
Na6 P5 3.059398 1_555
Na7 P2 2.907739 1_555
Na7 P7 2.955509 1_555
Na7 P3 2.994414 1_555
Na7 P6 3.027272 1_565
Na7 P3 3.028303 1_655
Na7 P4 3.059398 1_554
P0 P5 2.212347 1_655
P0 P4 2.246522 1_555
P1 P4 2.212351 1_555
P1 P5 2.246524 1_555
P2 P7 2.212351 1_545
P2 P6 2.246524 1_555
P3 P6 2.212347 1_465
P3 P7 2.246522 1_555
