# generated using pymatgen
data_Dy2(BiO2)7
_symmetry_space_group_name_H-M   'P 1'
_cell_length_a   10.58603678
_cell_length_b   10.58603678
_cell_length_c   10.50346393
_cell_angle_alpha   65.61132306
_cell_angle_beta   65.61132306
_cell_angle_gamma   21.33461479
_symmetry_Int_Tables_number   1
_chemical_formula_structural   Dy2(BiO2)7
_chemical_formula_sum   'Dy2 Bi7 O14'
_cell_volume   388.59373279
_cell_formula_units_Z   1
loop_
 _symmetry_equiv_pos_site_id
 _symmetry_equiv_pos_as_xyz
  1  'x, y, z'
loop_
 _atom_site_type_symbol
 _atom_site_label
 _atom_site_symmetry_multiplicity
 _atom_site_fract_x
 _atom_site_fract_y
 _atom_site_fract_z
 _atom_site_occupancy
  Dy  Dy0  1  0.00471400  0.00471400  0.99916100  1
  Dy  Dy1  1  0.66841600  0.66841600  0.97977400  1
  Bi  Bi0  1  0.51080800  0.51080800  0.69250300  1
  Bi  Bi1  1  0.15505200  0.15505200  0.32863100  1
  Bi  Bi2  1  0.18001200  0.18001200  0.68163000  1
  Bi  Bi3  1  0.82084500  0.82084500  0.31278800  1
  Bi  Bi4  1  0.32981000  0.32981000  0.01137700  1
  Bi  Bi5  1  0.84279000  0.84279000  0.67300900  1
  Bi  Bi6  1  0.48745300  0.48745300  0.31525000  1
  O  O0  1  0.54228800  0.54228800  0.09371400  1
  O  O1  1  0.05012500  0.05012500  0.32761100  1
  O  O2  1  0.06552500  0.06552500  0.73776100  1
  O  O3  1  0.20057800  0.20057800  0.10008400  1
  O  O4  1  0.66689700  0.66689700  0.41311100  1
  O  O5  1  0.71069200  0.71069200  0.74093900  1
  O  O6  1  0.13258600  0.13258600  0.91144500  1
  O  O7  1  0.86668700  0.86668700  0.08519500  1
  O  O8  1  0.28925200  0.28925200  0.25166000  1
  O  O9  1  0.78922200  0.78922200  0.89820200  1
  O  O10  1  0.93622600  0.93622600  0.25290700  1
  O  O11  1  0.33682300  0.33682300  0.58189800  1
  O  O12  1  0.94256100  0.94256100  0.69640600  1
  O  O13  1  0.47065100  0.47065100  0.91494500  1
loop_
_geom_bond_atom_site_label_1
_geom_bond_atom_site_label_2
_geom_bond_distance
_geom_bond_site_symmetry_2
Dy0 O13 2.377258 1_545
Dy0 O13 2.377258 1_455
Dy0 O6 2.422257 1_555
Dy0 O10 2.437682 1_446
Dy0 O0 2.467740 1_546
Dy0 O0 2.467740 1_456
Dy0 O2 2.493964 1_555
Dy0 O7 2.623556 1_446
Dy1 O5 2.283071 1_555
Dy1 O9 2.289552 1_555
Dy1 O6 2.315220 1_565
Dy1 O6 2.315220 1_655
Dy1 O0 2.383196 1_556
Dy1 O3 2.568087 1_656
Dy1 O3 2.568087 1_566
Bi0 O13 2.125184 1_555
Bi0 O12 2.410153 1_545
Bi0 O12 2.410153 1_455
Bi0 O2 2.411769 1_565
Bi0 O2 2.411769 1_655
Bi1 O3 2.179204 1_555
Bi1 O1 2.187654 1_555
Bi1 O4 2.207184 1_455
Bi1 O4 2.207184 1_545
Bi1 O8 2.559864 1_555
Bi2 O6 2.190595 1_555
Bi2 O2 2.200341 1_555
Bi2 O5 2.229238 1_545
Bi2 O5 2.229238 1_455
Bi3 O7 2.169836 1_555
Bi3 O10 2.211284 1_555
Bi3 O8 2.244723 1_655
Bi3 O8 2.244723 1_565
Bi4 O8 2.300416 1_555
Bi4 O7 2.351508 1_545
Bi4 O7 2.351508 1_455
Bi4 O3 2.447969 1_555
Bi4 O9 2.609527 1_454
Bi4 O9 2.609527 1_544
Bi4 O13 2.668080 1_554
Bi5 O9 2.149759 1_555
Bi5 O12 2.190496 1_555
Bi5 O11 2.207002 1_655
Bi5 O11 2.207002 1_565
Bi5 O5 2.532806 1_555
Bi6 O0 2.117809 1_555
Bi6 O1 2.387309 1_565
Bi6 O1 2.387309 1_655
Bi6 O10 2.447674 1_545
Bi6 O10 2.447674 1_455
