# generated using pymatgen
data_Li11Co12(PO4)12
_symmetry_space_group_name_H-M   'P 1'
_cell_length_a   11.23531067
_cell_length_b   7.60263864
_cell_length_c   11.28862325
_cell_angle_alpha   75.00567980
_cell_angle_beta   110.76309822
_cell_angle_gamma   96.47419452
_symmetry_Int_Tables_number   1
_chemical_formula_structural   Li11Co12(PO4)12
_chemical_formula_sum   'Li11 Co12 P12 O48'
_cell_volume   870.69224353
_cell_formula_units_Z   1
loop_
 _symmetry_equiv_pos_site_id
 _symmetry_equiv_pos_as_xyz
  1  'x, y, z'
loop_
 _atom_site_type_symbol
 _atom_site_label
 _atom_site_symmetry_multiplicity
 _atom_site_fract_x
 _atom_site_fract_y
 _atom_site_fract_z
 _atom_site_occupancy
  Li  Li0  1  0.16666700  0.33333300  0.50000000  1
  Li  Li1  1  0.66666700  0.33333300  0.50000000  1
  Li  Li2  1  0.83330361  0.66634809  0.50022160  1
  Li  Li3  1  0.99983276  0.00028250  0.50006070  1
  Li  Li4  1  0.33350024  0.66638350  0.49993930  1
  Li  Li5  1  0.50002939  0.00031891  0.49977840  1
  Li  Li6  1  0.49871741  -0.00020265  0.99970752  1
  Li  Li7  1  0.66666700  0.33333300  0.00000000  1
  Li  Li8  1  0.33013942  0.66011344  0.99922236  1
  Li  Li9  1  0.83461559  0.66686865  0.00029248  1
  Li  Li10  1  0.00319358  0.00655356  0.00077764  1
  Co  Co0  1  0.33440593  0.41133654  0.78192524  1
  Co  Co1  1  0.67007491  0.08089523  0.77977291  1
  Co  Co2  1  0.00487063  0.74594754  0.78298346  1
  Co  Co3  1  0.65033998  0.59922122  0.72120130  1
  Co  Co4  1  0.31679479  0.93399285  0.72135110  1
  Co  Co5  1  0.98732231  0.26664252  0.72607744  1
  Co  Co6  1  0.34601169  0.40002348  0.27392256  1
  Co  Co7  1  0.68299302  0.06744578  0.27879870  1
  Co  Co8  1  0.01653821  0.73267415  0.27864890  1
  Co  Co9  1  0.99892707  0.25533046  0.21807476  1
  Co  Co10  1  0.66325809  0.58577077  0.22022709  1
  Co  Co11  1  0.32846237  0.92071946  0.21701654  1
  P  P0  1  0.19229279  0.05977583  0.90535806  1
  P  P1  1  0.52463239  0.72524192  0.90477618  1
  P  P2  1  0.85776609  0.39040477  0.90392803  1
  P  P3  1  0.42135117  0.32886337  0.59458606  1
  P  P4  1  0.75544760  0.99515440  0.59541967  1
  P  P5  1  0.08829347  0.66206700  0.59537303  1
  P  P6  1  0.24503953  0.00460000  0.40462697  1
  P  P7  1  0.57788540  0.67151160  0.40458033  1
  P  P8  1  0.91198183  0.33780363  0.40541394  1
  P  P9  1  0.80870161  0.94142508  0.09522382  1
  P  P10  1  0.47556791  0.27626223  0.09607197  1
  P  P11  1  0.14104121  0.60689117  0.09464194  1
  O  O0  1  0.13426055  0.62298818  0.95325216  1
  O  O1  1  0.80268770  0.94692347  0.95480199  1
  O  O2  1  0.46943227  0.28181366  0.95499776  1
  O  O3  1  0.95913134  0.28107628  0.89740373  1
  O  O4  1  0.29857890  0.95199361  0.90090621  1
  O  O5  1  0.63170625  0.61886528  0.90214733  1
  O  O6  1  0.38646274  0.65713478  0.83232505  1
  O  O7  1  0.52317761  0.93250641  0.83254987  1
  O  O8  1  0.85735125  0.59932886  0.83329843  1
  O  O9  1  0.05249572  0.99183441  0.83331269  1
  O  O10  1  0.71686872  0.32673856  0.83277727  1
  O  O11  1  0.19079798  0.26261624  0.82728956  1
  O  O12  1  0.46780476  0.48787174  0.66725271  1
  O  O13  1  0.13533209  0.82142542  0.66799498  1
  O  O14  1  0.80183300  0.15532925  0.66616763  1
  O  O15  1  0.99673732  0.54876123  0.66687529  1
  O  O16  1  0.66442652  0.87985450  0.66722503  1
  O  O17  1  0.33085318  0.21356091  0.66666215  1
  O  O18  1  0.53004618  0.21961993  0.59779252  1
  O  O19  1  0.86406731  0.88583720  0.59899292  1
  O  O20  1  0.19619552  0.55296429  0.59795224  1
  O  O21  1  0.33246430  0.91642276  0.54514925  1
  O  O22  1  0.99933411  0.25057802  0.54582628  1
  O  O23  1  0.66607782  0.58499122  0.54514444  1
  O  O24  1  0.66725618  0.08167578  0.45485556  1
  O  O25  1  0.00086870  0.75024324  0.45485075  1
  O  O26  1  0.33399889  0.41608798  0.45417372  1
  O  O27  1  0.46926569  0.78082980  0.40100708  1
  O  O28  1  0.80328782  0.44704707  0.40220748  1
  O  O29  1  0.13713748  0.11370271  0.40204776  1
  O  O30  1  0.86552824  0.17879526  0.33274729  1
  O  O31  1  0.19800091  0.84524158  0.33200502  1
  O  O32  1  0.00248082  0.45310609  0.33333785  1
  O  O33  1  0.66890648  0.78681250  0.33277497  1
  O  O34  1  0.53150000  0.51133675  0.33383237  1
  O  O35  1  0.33659568  0.11790577  0.33312471  1
  O  O36  1  0.28083828  0.67483259  0.16668731  1
  O  O37  1  0.14253502  0.40405076  0.17271044  1
  O  O38  1  0.94687026  0.00953122  0.16767495  1
  O  O39  1  0.81015539  0.73416059  0.16745013  1
  O  O40  1  0.61646528  0.33992844  0.16722273  1
  O  O41  1  0.47598175  0.06733714  0.16670157  1
  O  O42  1  0.37420266  0.38559072  0.10259627  1
  O  O43  1  0.70162675  0.04780172  0.09785267  1
  O  O44  1  0.03475410  0.71467239  0.09909379  1
  O  O45  1  0.53064530  0.71974353  0.04519801  1
  O  O46  1  0.19907245  0.04367882  0.04674784  1
  O  O47  1  0.86390073  0.38485334  0.04500224  1
loop_
_geom_bond_atom_site_label_1
_geom_bond_atom_site_label_2
_geom_bond_distance
_geom_bond_site_symmetry_2
Li0 O26 2.110060 1_555
Li0 O22 2.110071 1_455
Li0 O29 2.165924 1_555
Li0 O20 2.165932 1_555
Li0 O17 2.191644 1_555
Li0 O32 2.191646 1_555
Li1 O24 2.104778 1_555
Li1 O23 2.104785 1_555
Li1 O18 2.174989 1_555
Li1 O28 2.174990 1_555
Li1 O14 2.187804 1_555
Li1 O34 2.187809 1_555
Li2 O23 2.102599 1_555
Li2 O25 2.111238 1_655
Li2 O28 2.163545 1_555
Li2 O19 2.169485 1_555
Li2 O15 2.181937 1_555
Li2 O33 2.198560 1_555
Li3 O25 2.094148 1_645
Li3 O22 2.097892 1_555
Li3 O19 2.176413 1_545
Li3 O29 2.182671 1_655
Li3 O30 2.191101 1_555
Li3 O13 2.201642 1_645
Li4 O21 2.094148 1_555
Li4 O26 2.097892 1_555
Li4 O27 2.176414 1_555
Li4 O20 2.182670 1_555
Li4 O12 2.191097 1_555
Li4 O31 2.201646 1_555
Li5 O24 2.102609 1_555
Li5 O21 2.111239 1_545
Li5 O18 2.163544 1_555
Li5 O27 2.169485 1_545
Li5 O35 2.181937 1_555
Li5 O16 2.198560 1_545
Li6 O45 2.097982 1_546
Li6 O2 2.107468 1_555
Li6 O4 2.163243 1_545
Li6 O41 2.180485 1_556
Li6 O43 2.188319 1_556
Li6 O7 2.190169 1_545
Li7 O47 2.105026 1_555
Li7 O2 2.105036 1_554
Li7 O10 2.166648 1_554
Li7 O40 2.166650 1_555
Li7 O43 2.175012 1_555
Li7 O5 2.175020 1_554
Li8 O0 2.078049 1_555
Li8 O42 2.127434 1_556
Li8 O45 2.147610 1_556
Li8 O36 2.181518 1_556
Li8 O6 2.195721 1_555
Li8 O4 2.214898 1_555
Li9 O1 2.097989 1_554
Li9 O47 2.107461 1_555
Li9 O44 2.163243 1_655
Li9 O8 2.180485 1_554
Li9 O5 2.188317 1_554
Li9 O39 2.190173 1_555
Li10 O46 2.078049 1_555
Li10 O3 2.127433 1_454
Li10 O1 2.147610 1_444
Li10 O9 2.181524 1_544
Li10 O38 2.195719 1_455
Li10 O44 2.214904 1_545
Co0 O11 2.004692 1_555
Co0 O6 2.055629 1_555
Co0 O2 2.080429 1_555
Co0 O20 2.194819 1_555
Co0 O17 2.217538 1_555
Co0 O12 2.247174 1_555
Co1 O10 2.064425 1_555
Co1 O7 2.069082 1_545
Co1 O1 2.091634 1_545
Co1 O18 2.183863 1_555
Co1 O16 2.209104 1_545
Co1 O14 2.222141 1_555
Co2 O0 2.019226 1_555
Co2 O9 2.052359 1_555
Co2 O8 2.058012 1_455
Co2 O19 2.203276 1_455
Co2 O15 2.207856 1_455
Co2 O13 2.221856 1_555
Co3 O16 2.065891 1_555
Co3 O12 2.069589 1_555
Co3 O23 2.087490 1_555
Co3 O5 2.169465 1_555
Co3 O10 2.183612 1_555
Co3 O8 2.219050 1_555
Co4 O17 2.058663 1_565
Co4 O13 2.062632 1_555
Co4 O21 2.096743 1_555
Co4 O4 2.147797 1_555
Co4 O7 2.210751 1_555
Co4 O6 2.219084 1_555
Co5 O15 2.077362 1_555
Co5 O3 2.098772 1_555
Co5 O14 2.101397 1_555
Co5 O22 2.121438 1_555
Co5 O11 2.162965 1_655
Co5 O9 2.185052 1_645
Co6 O35 2.077356 1_555
Co6 O42 2.098770 1_555
Co6 O34 2.101388 1_555
Co6 O26 2.121442 1_555
Co6 O37 2.162975 1_555
Co6 O36 2.185058 1_555
Co7 O33 2.065891 1_545
Co7 O30 2.069589 1_555
Co7 O24 2.087485 1_555
Co7 O43 2.169465 1_555
Co7 O40 2.183610 1_555
Co7 O41 2.219050 1_555
Co8 O32 2.058662 1_555
Co8 O31 2.062632 1_555
Co8 O25 2.096741 1_555
Co8 O44 2.147800 1_555
Co8 O39 2.210751 1_455
Co8 O38 2.219077 1_465
Co9 O37 2.004692 1_655
Co9 O38 2.055637 1_555
Co9 O47 2.080429 1_555
Co9 O29 2.194819 1_655
Co9 O32 2.217535 1_655
Co9 O30 2.247174 1_555
Co10 O40 2.064417 1_555
Co10 O39 2.069084 1_555
Co10 O45 2.091636 1_555
Co10 O28 2.183866 1_555
Co10 O33 2.209111 1_555
Co10 O34 2.222141 1_555
Co11 O46 2.019226 1_565
Co11 O36 2.052358 1_555
Co11 O41 2.058009 1_565
Co11 O27 2.203276 1_555
Co11 O35 2.207856 1_565
Co11 O31 2.221856 1_555
O0 P11 1.543736 1_556
O1 P9 1.552251 1_556
O2 P10 1.559082 1_556
O3 P2 1.515895 1_555
O4 P0 1.544192 1_565
O5 P1 1.536005 1_555
O6 P1 1.576255 1_555
O7 P1 1.574677 1_555
O8 P2 1.581893 1_555
O9 P0 1.588697 1_565
O10 P2 1.585012 1_555
O11 P0 1.564352 1_555
O12 P3 1.572894 1_555
O13 P5 1.575304 1_555
O14 P4 1.567604 1_545
O15 P5 1.575049 1_655
O16 P4 1.577707 1_555
O17 P3 1.575043 1_555
O18 P3 1.537635 1_555
O19 P4 1.535626 1_555
O20 P5 1.532258 1_555
O21 P6 1.556941 1_565
O22 P8 1.554124 1_555
O23 P7 1.557076 1_555
O24 P4 1.557074 1_545
O25 P5 1.556939 1_555
O26 P3 1.554122 1_555
O27 P7 1.535631 1_555
O28 P8 1.537625 1_555
O29 P6 1.532258 1_555
O30 P8 1.572894 1_555
O31 P6 1.575304 1_565
O32 P8 1.575052 1_455
O33 P7 1.577710 1_555
O34 P7 1.567604 1_555
O35 P6 1.575049 1_555
O36 P11 1.588697 1_555
O37 P11 1.564353 1_555
O38 P9 1.576243 1_545
O39 P9 1.574678 1_555
O40 P10 1.585012 1_555
O41 P10 1.581900 1_555
O42 P10 1.515895 1_555
O43 P9 1.536014 1_545
O44 P11 1.544197 1_555
O45 P1 1.552255 1_554
O46 P0 1.543739 1_554
O47 P2 1.559085 1_554
