# generated using pymatgen
data_Li10Si(PO6)2
_symmetry_space_group_name_H-M   'P 1'
_cell_length_a   6.99575700
_cell_length_b   7.00022119
_cell_length_c   10.65402006
_cell_angle_alpha   90.89879965
_cell_angle_beta   90.28252140
_cell_angle_gamma   90.11534921
_symmetry_Int_Tables_number   1
_chemical_formula_structural   Li10Si(PO6)2
_chemical_formula_sum   'Li20 Si2 P4 O24'
_cell_volume   521.67535601
_cell_formula_units_Z   2
loop_
 _symmetry_equiv_pos_site_id
 _symmetry_equiv_pos_as_xyz
  1  'x, y, z'
loop_
 _atom_site_type_symbol
 _atom_site_label
 _atom_site_symmetry_multiplicity
 _atom_site_fract_x
 _atom_site_fract_y
 _atom_site_fract_z
 _atom_site_occupancy
  Li  Li0  1  0.98568300  0.48072300  0.06433800  1
  Li  Li1  1  0.95174800  0.48060200  0.57529800  1
  Li  Li2  1  0.52479700  0.04190400  0.43897100  1
  Li  Li3  1  0.49073400  0.99096800  0.94145600  1
  Li  Li4  1  0.26402900  0.72884400  0.84487500  1
  Li  Li5  1  0.73182500  0.26637700  0.71898100  1
  Li  Li6  1  0.20097800  0.16759900  0.25387100  1
  Li  Li7  1  0.21731800  0.24270100  0.74693900  1
  Li  Li8  1  0.75428500  0.75971400  0.64437200  1
  Li  Li9  1  0.45476700  0.47522200  0.25532900  1
  Li  Li10  1  0.23071100  0.73581400  0.62122300  1
  Li  Li11  1  0.75839100  0.75079600  0.13578200  1
  Li  Li12  1  0.22171400  0.22193000  0.00064700  1
  Li  Li13  1  0.74622300  0.75784100  0.87305000  1
  Li  Li14  1  0.76242600  0.25337200  0.30940200  1
  Li  Li15  1  0.18335500  0.76448700  0.08213700  1
  Li  Li16  1  0.77272200  0.21503900  0.99413900  1
  Li  Li17  1  0.27750500  0.30238200  0.50895300  1
  Li  Li18  1  0.75259900  0.78007700  0.37147700  1
  Li  Li19  1  0.26323600  0.79442600  0.34764300  1
  Si  Si0  1  0.99715400  0.50961800  0.82403600  1
  Si  Si1  1  0.50491900  0.00994600  0.18494600  1
  P  P0  1  0.99570100  0.03395400  0.50133400  1
  P  P1  1  0.49527100  0.49034400  0.00495900  1
  P  P2  1  0.01359900  0.51567100  0.31438100  1
  P  P3  1  0.48569200  0.99572900  0.68598800  1
  O  O0  1  0.99183500  0.83711600  0.56572500  1
  O  O1  1  0.00929900  0.20689500  0.59446200  1
  O  O2  1  0.31471000  0.48992900  0.09178700  1
  O  O3  1  0.68246200  0.48755000  0.08658400  1
  O  O4  1  0.48899500  0.30512100  0.92258200  1
  O  O5  1  0.49355900  0.68033500  0.93149800  1
  O  O6  1  0.17849000  0.04526400  0.41676800  1
  O  O7  1  0.80985200  0.04545100  0.42078200  1
  O  O8  1  0.01087100  0.68413300  0.93136200  1
  O  O9  1  0.00185700  0.30582200  0.90124300  1
  O  O10  1  0.20612200  0.51470000  0.39023300  1
  O  O11  1  0.83774400  0.51217300  0.40348100  1
  O  O12  1  0.47646600  0.19411200  0.62178100  1
  O  O13  1  0.49175600  0.83571600  0.58252400  1
  O  O14  1  0.30011700  0.01055000  0.10517000  1
  O  O15  1  0.68318200  0.00219800  0.08552400  1
  O  O16  1  0.99815300  0.33857900  0.22528700  1
  O  O17  1  0.00523300  0.70277400  0.23564600  1
  O  O18  1  0.80361200  0.53382100  0.73731000  1
  O  O19  1  0.17911100  0.52464300  0.72662600  1
  O  O20  1  0.51957900  0.81728200  0.27529400  1
  O  O21  1  0.49707100  0.19915800  0.28090500  1
  O  O22  1  0.67096800  0.98263000  0.76793100  1
  O  O23  1  0.30897400  0.97086500  0.77176900  1
loop_
_geom_bond_atom_site_label_1
_geom_bond_atom_site_label_2
_geom_bond_distance
_geom_bond_site_symmetry_2
Li0 O16 1.997623 1_555
Li0 O8 2.032349 1_654
Li0 O9 2.113502 1_654
Li0 O3 2.136168 1_555
Li0 O2 2.319504 1_655
Li0 O17 2.381936 1_655
Li1 O1 1.972168 1_655
Li1 O11 2.008683 1_555
Li1 O18 2.047224 1_555
Li1 O19 2.276286 1_655
Li2 O7 2.004662 1_555
Li2 O21 2.034992 1_555
Li2 O13 2.132425 1_545
Li2 O12 2.232893 1_555
Li2 O20 2.329765 1_545
Li2 O6 2.433236 1_555
Li3 O15 2.037178 1_566
Li3 O5 2.175558 1_555
Li3 O14 2.203517 1_566
Li3 O23 2.207620 1_555
Li3 O4 2.211506 1_565
Li3 O22 2.242976 1_555
Li4 O5 1.882239 1_555
Li4 O23 1.901970 1_555
Li4 O19 1.978917 1_555
Li4 O8 2.026441 1_555
Li5 O18 1.943998 1_555
Li5 O22 2.104726 1_545
Li5 O12 2.116914 1_555
Li5 O1 2.390119 1_655
Li6 O16 1.884844 1_455
Li6 O6 1.954198 1_555
Li6 O14 2.039314 1_555
Li6 O21 2.100646 1_555
Li7 O19 2.007125 1_555
Li7 O23 2.030081 1_545
Li7 O1 2.186778 1_555
Li7 O9 2.274678 1_555
Li7 O12 2.278722 1_555
Li8 O18 1.909965 1_555
Li8 O0 1.944669 1_555
Li8 O13 2.023191 1_555
Li8 O22 2.110560 1_555
Li9 O21 1.978498 1_555
Li9 O2 1.998925 1_555
Li9 O10 2.276394 1_555
Li9 O3 2.410282 1_555
Li9 O20 2.441953 1_555
Li10 O19 1.905385 1_555
Li10 O0 1.911361 1_455
Li10 O13 2.001356 1_555
Li10 O23 2.341925 1_555
Li11 O15 1.921246 1_565
Li11 O3 1.978823 1_555
Li11 O17 2.054858 1_655
Li11 O20 2.285377 1_555
Li12 O14 1.944066 1_555
Li12 O9 1.959388 1_554
Li12 O4 2.133845 1_554
Li12 O2 2.194854 1_555
Li13 O5 1.955518 1_555
Li13 O22 2.015036 1_555
Li13 O8 2.020514 1_655
Li13 O18 2.156141 1_555
Li14 O21 1.915794 1_555
Li14 O7 1.920654 1_555
Li14 O16 1.976299 1_555
Li14 O11 2.120939 1_555
Li15 O14 1.916646 1_565
Li15 O8 2.074275 1_554
Li15 O17 2.110523 1_555
Li15 O2 2.135728 1_555
Li16 O15 1.899468 1_556
Li16 O9 1.996045 1_655
Li16 O4 2.218969 1_555
Li16 O3 2.227079 1_556
Li17 O12 1.993258 1_555
Li17 O10 2.028289 1_555
Li17 O6 2.148675 1_555
Li17 O1 2.197311 1_555
Li18 O20 1.941369 1_555
Li18 O7 1.962559 1_565
Li18 O11 2.002673 1_555
Li18 O17 2.348436 1_655
Li19 O20 1.962667 1_555
Li19 O6 1.986214 1_565
Li19 O10 2.055816 1_555
Li19 O17 2.245716 1_555
O0 P0 1.549091 1_565
O1 P0 1.555642 1_455
O2 P1 1.569371 1_555
O3 P1 1.568743 1_555
O4 P1 1.554689 1_556
O5 P1 1.553758 1_556
O6 P0 1.570477 1_455
O7 P0 1.557233 1_555
O8 Si0 1.662447 1_455
O9 Si0 1.658213 1_455
O10 P2 1.567349 1_555
O11 P2 1.557990 1_655
O12 P3 1.558972 1_545
O13 P3 1.559962 1_555
O14 Si1 1.662316 1_555
O15 Si1 1.640627 1_555
O16 P2 1.552746 1_655
O17 P2 1.567436 1_555
O18 Si0 1.645960 1_555
O19 Si0 1.650565 1_455
O20 Si1 1.672225 1_565
O21 Si1 1.661609 1_555
O22 P3 1.562818 1_555
O23 P3 1.552152 1_555
