# generated using pymatgen
data_Li3Nb4ZnO12
_symmetry_space_group_name_H-M   'P 1'
_cell_length_a   5.24293800
_cell_length_b   5.60835221
_cell_length_c   7.67989706
_cell_angle_alpha   95.30269072
_cell_angle_beta   90.07455268
_cell_angle_gamma   90.07808208
_symmetry_Int_Tables_number   1
_chemical_formula_structural   Li3Nb4ZnO12
_chemical_formula_sum   'Li3 Nb4 Zn1 O12'
_cell_volume   224.85468361
_cell_formula_units_Z   1
loop_
 _symmetry_equiv_pos_site_id
 _symmetry_equiv_pos_as_xyz
  1  'x, y, z'
loop_
 _atom_site_type_symbol
 _atom_site_label
 _atom_site_symmetry_multiplicity
 _atom_site_fract_x
 _atom_site_fract_y
 _atom_site_fract_z
 _atom_site_occupancy
  Li  Li0  1  0.50009600  0.94319000  0.77983800  1
  Li  Li1  1  0.50118400  0.94398500  0.27760400  1
  Li  Li2  1  0.99960900  0.43971200  0.78036900  1
  Nb  Nb0  1  0.50252000  0.50667100  0.98886400  1
  Nb  Nb1  1  0.49887700  0.51985500  0.49823600  1
  Nb  Nb2  1  0.99872300  0.01933600  0.49580000  1
  Nb  Nb3  1  0.00491200  0.00162900  0.99051800  1
  Zn  Zn0  1  0.99833900  0.44511100  0.27488200  1
  O  O0  1  0.81676700  0.34336800  0.54353100  1
  O  O1  1  0.63183200  0.53749500  0.23607500  1
  O  O2  1  0.68154100  0.84265000  0.54282300  1
  O  O3  1  0.87796600  0.04196700  0.23627300  1
  O  O4  1  0.80479900  0.72044900  0.91910300  1
  O  O5  1  0.31980500  0.84688800  0.04304000  1
  O  O6  1  0.69345100  0.22230500  0.91854900  1
  O  O7  1  0.12573500  0.03838100  0.73794500  1
  O  O8  1  0.17643500  0.35277300  0.04661500  1
  O  O9  1  0.37446400  0.53787100  0.73802600  1
  O  O10  1  0.30423400  0.22109200  0.41865900  1
  O  O11  1  0.18871000  0.71417800  0.41380000  1
loop_
_geom_bond_atom_site_label_1
_geom_bond_atom_site_label_2
_geom_bond_distance
_geom_bond_site_symmetry_2
Li0 O7 2.067336 1_565
Li0 O6 2.073055 1_565
Li0 O2 2.086263 1_555
Li0 O5 2.340191 1_556
Li0 O4 2.346172 1_555
Li0 O9 2.358969 1_555
Li1 O5 2.063690 1_555
Li1 O3 2.082311 1_565
Li1 O10 2.085940 1_565
Li1 O2 2.361428 1_555
Li1 O1 2.374565 1_555
Li1 O11 2.384744 1_555
Li2 O9 2.074411 1_655
Li2 O0 2.081271 1_555
Li2 O4 2.086751 1_555
Li2 O6 2.329735 1_555
Li2 O8 2.336402 1_656
Li2 O7 2.340647 1_655
Nb0 O6 1.919305 1_555
Nb0 O8 1.983246 1_556
Nb0 O1 2.007414 1_556
Nb0 O9 2.061964 1_555
Nb0 O4 2.086131 1_555
Nb0 O5 2.142608 1_556
Nb1 O9 1.948321 1_555
Nb1 O0 1.986242 1_555
Nb1 O10 2.006711 1_555
Nb1 O2 2.047349 1_555
Nb1 O11 2.094141 1_555
Nb1 O1 2.142344 1_555
Nb2 O7 1.967998 1_655
Nb2 O2 1.985196 1_545
Nb2 O11 2.030974 1_645
Nb2 O0 2.056573 1_555
Nb2 O10 2.078084 1_655
Nb2 O3 2.105530 1_555
Nb3 O5 1.925723 1_546
Nb3 O4 1.929380 1_445
Nb3 O3 1.995269 1_456
Nb3 O7 2.069560 1_555
Nb3 O6 2.152535 1_455
Nb3 O8 2.170244 1_556
O0 Zn0 2.389531 1_555
O1 Zn0 2.019773 1_555
O3 Zn0 2.338788 1_555
O8 Zn0 2.012731 1_455
O10 Zn0 2.372165 1_455
O11 Zn0 2.026607 1_455
