# generated using pymatgen
data_TaSe2
_symmetry_space_group_name_H-M   'P 1'
_cell_length_a   3.47660071
_cell_length_b   3.47660020
_cell_length_c   26.91731990
_cell_angle_alpha   90.00000000
_cell_angle_beta   90.00000000
_cell_angle_gamma   119.99999490
_symmetry_Int_Tables_number   1
_chemical_formula_structural   TaSe2
_chemical_formula_sum   'Ta4 Se8'
_cell_volume   281.75526165
_cell_formula_units_Z   4
loop_
 _symmetry_equiv_pos_site_id
 _symmetry_equiv_pos_as_xyz
  1  'x, y, z'
loop_
 _atom_site_type_symbol
 _atom_site_label
 _atom_site_symmetry_multiplicity
 _atom_site_fract_x
 _atom_site_fract_y
 _atom_site_fract_z
 _atom_site_occupancy
  Ta  Ta0  1  0.66666700  0.33333300  0.37328457  1
  Ta  Ta1  1  0.33333300  0.66666700  0.87328457  1
  Ta  Ta2  1  0.66666700  0.33333300  0.12207137  1
  Ta  Ta3  1  0.33333300  0.66666700  0.62207137  1
  Se  Se0  1  0.66666700  0.33333300  0.93518857  1
  Se  Se1  1  0.33333300  0.66666700  0.43518857  1
  Se  Se2  1  0.66666700  0.33333300  0.81143228  1
  Se  Se3  1  0.33333300  0.66666700  0.31143228  1
  Se  Se4  1  -0.00000000  -0.00000000  0.06020341  1
  Se  Se5  1  -0.00000000  -0.00000000  0.56020341  1
  Se  Se6  1  -0.00000000  0.00000000  0.18381779  1
  Se  Se7  1  -0.00000000  -0.00000000  0.68381779  1
loop_
_geom_bond_atom_site_label_1
_geom_bond_atom_site_label_2
_geom_bond_distance
_geom_bond_site_symmetry_2
Se0 Ta1 2.608722 1_545
Se0 Ta1 2.608722 1_655
Se0 Ta1 2.608727 1_555
Se1 Ta0 2.608722 1_565
Se1 Ta0 2.608722 1_455
Se1 Ta0 2.608727 1_555
Se2 Ta1 2.607833 1_545
Se2 Ta1 2.607833 1_655
Se2 Ta1 2.607838 1_555
Se3 Ta0 2.607833 1_565
Se3 Ta0 2.607833 1_455
Se3 Ta0 2.607838 1_555
Se4 Ta2 2.608102 1_455
Se4 Ta2 2.608105 1_445
Se4 Ta2 2.608105 1_555
Se5 Ta3 2.608102 1_545
Se5 Ta3 2.608105 1_555
Se5 Ta3 2.608105 1_445
Se6 Ta2 2.606015 1_455
Se6 Ta2 2.606017 1_445
Se6 Ta2 2.606017 1_555
Se7 Ta3 2.606015 1_545
Se7 Ta3 2.606017 1_555
Se7 Ta3 2.606017 1_445
