# generated using pymatgen
data_MnCo3O8
_symmetry_space_group_name_H-M   'P 1'
_cell_length_a   5.75216663
_cell_length_b   5.75216663
_cell_length_c   5.75216686
_cell_angle_alpha   59.64939365
_cell_angle_beta   59.64939365
_cell_angle_gamma   59.64938621
_symmetry_Int_Tables_number   1
_chemical_formula_structural   MnCo3O8
_chemical_formula_sum   'Mn1 Co3 O8'
_cell_volume   133.50751852
_cell_formula_units_Z   1
loop_
 _symmetry_equiv_pos_site_id
 _symmetry_equiv_pos_as_xyz
  1  'x, y, z'
loop_
 _atom_site_type_symbol
 _atom_site_label
 _atom_site_symmetry_multiplicity
 _atom_site_fract_x
 _atom_site_fract_y
 _atom_site_fract_z
 _atom_site_occupancy
  Mn  Mn0  1  0.00000000  0.00000000  0.00000000  1
  Co  Co0  1  0.50000000  0.50000000  0.00000000  1
  Co  Co1  1  0.00000000  0.50000000  0.50000000  1
  Co  Co2  1  0.50000000  0.00000000  0.50000000  1
  O  O0  1  0.76335300  0.27285100  0.76335300  1
  O  O1  1  0.27285100  0.76335300  0.76335300  1
  O  O2  1  0.76335300  0.76335300  0.27285100  1
  O  O3  1  0.26726000  0.26726000  0.26726000  1
  O  O4  1  0.73274000  0.73274000  0.73274000  1
  O  O5  1  0.23664700  0.23664700  0.72714900  1
  O  O6  1  0.72714900  0.23664700  0.23664700  1
  O  O7  1  0.23664700  0.72714900  0.23664700  1
loop_
_geom_bond_atom_site_label_1
_geom_bond_atom_site_label_2
_geom_bond_distance
_geom_bond_site_symmetry_2
Mn0 O7 1.929683 1_545
Mn0 O6 1.929683 1_455
Mn0 O1 1.929683 1_544
Mn0 O0 1.929683 1_454
Mn0 O5 1.929683 1_554
Mn0 O2 1.929683 1_445
Co0 O0 1.888970 1_554
Co0 O6 1.888970 1_555
Co0 O7 1.888970 1_555
Co0 O1 1.888970 1_554
Co0 O4 1.897207 1_554
Co0 O3 1.897207 1_555
Co1 O2 1.888970 1_455
Co1 O5 1.888970 1_555
Co1 O0 1.888970 1_455
Co1 O7 1.888970 1_555
Co1 O4 1.897207 1_455
Co1 O3 1.897207 1_555
Co2 O2 1.888970 1_545
Co2 O5 1.888970 1_555
Co2 O1 1.888970 1_545
Co2 O6 1.888970 1_555
Co2 O4 1.897207 1_545
Co2 O3 1.897207 1_555
