# generated using pymatgen
data_LiCoCO4
_symmetry_space_group_name_H-M   'P 1'
_cell_length_a   5.26563700
_cell_length_b   6.58637900
_cell_length_c   10.61178278
_cell_angle_alpha   81.74591657
_cell_angle_beta   90.00000000
_cell_angle_gamma   90.00000000
_symmetry_Int_Tables_number   1
_chemical_formula_structural   LiCoCO4
_chemical_formula_sum   'Li4 Co4 C4 O16'
_cell_volume   364.21995357
_cell_formula_units_Z   4
loop_
 _symmetry_equiv_pos_site_id
 _symmetry_equiv_pos_as_xyz
  1  'x, y, z'
loop_
 _atom_site_type_symbol
 _atom_site_label
 _atom_site_symmetry_multiplicity
 _atom_site_fract_x
 _atom_site_fract_y
 _atom_site_fract_z
 _atom_site_occupancy
  Li  Li0  1  0.65456300  0.88334000  0.79406500  1
  Li  Li1  1  0.84543700  0.88334000  0.29406500  1
  Li  Li2  1  0.15456300  0.11666000  0.70593500  1
  Li  Li3  1  0.34543700  0.11666000  0.20593500  1
  Co  Co0  1  0.85247200  0.48986000  0.84598300  1
  Co  Co1  1  0.35247200  0.51014000  0.65401700  1
  Co  Co2  1  0.64752800  0.48986000  0.34598300  1
  Co  Co3  1  0.14752800  0.51014000  0.15401700  1
  C  C0  1  0.18210700  0.79481100  0.92644000  1
  C  C1  1  0.31789300  0.79481100  0.42644000  1
  C  C2  1  0.68210700  0.20518900  0.57356000  1
  C  C3  1  0.81789300  0.20518900  0.07356000  1
  O  O0  1  0.29592400  0.92045900  0.84439300  1
  O  O1  1  0.20407600  0.92045900  0.34439300  1
  O  O2  1  0.94174900  0.74379400  0.91094500  1
  O  O3  1  0.55825100  0.74379400  0.41094500  1
  O  O4  1  0.20293500  0.71126500  0.52986000  1
  O  O5  1  0.63070700  0.61306600  0.73021100  1
  O  O6  1  0.29706500  0.71126500  0.02986000  1
  O  O7  1  0.86929300  0.61306600  0.23021100  1
  O  O8  1  0.13070700  0.38693400  0.76978900  1
  O  O9  1  0.70293500  0.28873500  0.97014000  1
  O  O10  1  0.36929300  0.38693400  0.26978900  1
  O  O11  1  0.79706500  0.28873500  0.47014000  1
  O  O12  1  0.44174900  0.25620600  0.58905500  1
  O  O13  1  0.05825100  0.25620600  0.08905500  1
  O  O14  1  0.79592400  0.07954100  0.65560700  1
  O  O15  1  0.70407600  0.07954100  0.15560700  1
loop_
_geom_bond_atom_site_label_1
_geom_bond_atom_site_label_2
_geom_bond_distance
_geom_bond_site_symmetry_2
Li0 O14 1.958985 1_565
Li0 O0 1.987154 1_555
Li0 O5 1.997528 1_555
Li0 O2 2.083889 1_555
Li1 O15 1.958985 1_565
Li1 O1 1.987154 1_655
Li1 O7 1.997528 1_555
Li1 O3 2.083889 1_555
Li2 O0 1.958985 1_545
Li2 O14 1.987154 1_455
Li2 O8 1.997528 1_555
Li2 O12 2.083889 1_555
Li3 O1 1.958985 1_545
Li3 O15 1.987154 1_555
Li3 O10 1.997528 1_555
Li3 O13 2.083889 1_555
Co0 O5 1.801440 1_555
Co0 O8 1.848560 1_655
Co0 O9 1.899883 1_555
Co0 O2 1.955642 1_555
Co1 O8 1.801440 1_555
Co1 O5 1.848560 1_555
Co1 O4 1.899883 1_555
Co1 O12 1.955642 1_555
Co2 O7 1.801440 1_555
Co2 O10 1.848560 1_555
Co2 O11 1.899883 1_555
Co2 O3 1.955642 1_555
Co3 O10 1.801440 1_555
Co3 O7 1.848560 1_455
Co3 O6 1.899883 1_555
Co3 O13 1.955642 1_555
C0 O0 1.263021 1_555
C0 O6 1.303940 1_556
C0 O2 1.325763 1_455
C1 O1 1.263021 1_555
C1 O4 1.303940 1_555
C1 O3 1.325763 1_555
C2 O14 1.263021 1_555
C2 O11 1.303940 1_555
C2 O12 1.325763 1_555
C3 O15 1.263021 1_555
C3 O9 1.303940 1_554
C3 O13 1.325763 1_655
