# generated using pymatgen
data_HRu6C16NO16
_symmetry_space_group_name_H-M   'P 1'
_cell_length_a   10.35504900
_cell_length_b   15.48417800
_cell_length_c   16.45099853
_cell_angle_alpha   81.54726755
_cell_angle_beta   90.00000000
_cell_angle_gamma   90.00000000
_symmetry_Int_Tables_number   1
_chemical_formula_structural   HRu6C16NO16
_chemical_formula_sum   'H4 Ru24 C64 N4 O64'
_cell_volume   2609.09101488
_cell_formula_units_Z   4
loop_
 _symmetry_equiv_pos_site_id
 _symmetry_equiv_pos_as_xyz
  1  'x, y, z'
loop_
 _atom_site_type_symbol
 _atom_site_label
 _atom_site_symmetry_multiplicity
 _atom_site_fract_x
 _atom_site_fract_y
 _atom_site_fract_z
 _atom_site_occupancy
  H  H0  1  0.30086100  0.22128500  0.64039200  1
  H  H1  1  0.19913900  0.72128500  0.14039200  1
  H  H2  1  0.69913900  0.77871500  0.35960800  1
  H  H3  1  0.80086100  0.27871500  0.85960800  1
  Ru  Ru0  1  0.30097600  0.13684400  0.57430500  1
  Ru  Ru1  1  0.19902400  0.63684400  0.07430500  1
  Ru  Ru2  1  0.69902400  0.86315600  0.42569500  1
  Ru  Ru3  1  0.80097600  0.36315600  0.92569500  1
  Ru  Ru4  1  0.47339000  0.28610400  0.50584900  1
  Ru  Ru5  1  0.02661000  0.78610400  0.00584900  1
  Ru  Ru6  1  0.52661000  0.71389600  0.49415100  1
  Ru  Ru7  1  0.97339000  0.21389600  0.99415100  1
  Ru  Ru8  1  0.22892700  0.32108400  0.58822000  1
  Ru  Ru9  1  0.27107300  0.82108400  0.08822000  1
  Ru  Ru10  1  0.77107300  0.67891600  0.41178000  1
  Ru  Ru11  1  0.72892700  0.17891600  0.91178000  1
  Ru  Ru12  1  0.33049800  0.18920000  0.38975900  1
  Ru  Ru13  1  0.16950200  0.68920000  0.88975900  1
  Ru  Ru14  1  0.66950200  0.81080000  0.61024100  1
  Ru  Ru15  1  0.83049800  0.31080000  0.11024100  1
  Ru  Ru16  1  0.08861300  0.22066100  0.47902200  1
  Ru  Ru17  1  0.41138700  0.72066100  0.97902200  1
  Ru  Ru18  1  0.91138700  0.77933900  0.52097800  1
  Ru  Ru19  1  0.58861300  0.27933900  0.02097800  1
  Ru  Ru20  1  0.27186900  0.36436800  0.40549900  1
  Ru  Ru21  1  0.22813100  0.86436800  0.90549900  1
  Ru  Ru22  1  0.72813100  0.63563200  0.59450100  1
  Ru  Ru23  1  0.77186900  0.13563200  0.09450100  1
  C  C0  1  0.28231100  0.25122600  0.48953800  1
  C  C1  1  0.21768900  0.75122600  0.98953800  1
  C  C2  1  0.71768900  0.74877400  0.51046200  1
  C  C3  1  0.78231100  0.24877400  0.01046200  1
  C  C4  1  0.19161500  0.06988600  0.65684600  1
  C  C5  1  0.30838500  0.56988600  0.15684600  1
  C  C6  1  0.80838500  0.93011400  0.34315400  1
  C  C7  1  0.69161500  0.43011400  0.84315400  1
  C  C8  1  0.31575000  0.03843200  0.51437900  1
  C  C9  1  0.18425000  0.53843200  0.01437900  1
  C  C10  1  0.68425000  0.96156800  0.48562100  1
  C  C11  1  0.81575000  0.46156800  0.98562100  1
  C  C12  1  0.46576900  0.11318400  0.62733900  1
  C  C13  1  0.03423100  0.61318400  0.12733900  1
  C  C14  1  0.53423100  0.88681600  0.37266100  1
  C  C15  1  0.96576900  0.38681600  0.87266100  1
  C  C16  1  0.62427300  0.24978900  0.45696900  1
  C  C17  1  0.87572700  0.74978900  0.95696900  1
  C  C18  1  0.37572700  0.75021100  0.54303100  1
  C  C19  1  0.12427300  0.25021100  0.04303100  1
  C  C20  1  0.58030700  0.32403300  0.58745200  1
  C  C21  1  0.91969300  0.82403300  0.08745200  1
  C  C22  1  0.41969300  0.67596700  0.41254800  1
  C  C23  1  0.08030700  0.17596700  0.91254800  1
  C  C24  1  0.46062700  0.40262000  0.43005400  1
  C  C25  1  0.03937300  0.90262000  0.93005400  1
  C  C26  1  0.53937300  0.59738000  0.56994600  1
  C  C27  1  0.96062700  0.09738000  0.06994600  1
  C  C28  1  0.07775900  0.30930900  0.65720500  1
  C  C29  1  0.42224100  0.80930900  0.15720500  1
  C  C30  1  0.92224100  0.69069100  0.34279500  1
  C  C31  1  0.57775900  0.19069100  0.84279500  1
  C  C32  1  0.18226200  0.43913500  0.54213000  1
  C  C33  1  0.31773800  0.93913500  0.04213000  1
  C  C34  1  0.81773800  0.56086500  0.45787000  1
  C  C35  1  0.68226200  0.06086500  0.95787000  1
  C  C36  1  0.33473900  0.36453500  0.67013300  1
  C  C37  1  0.16526100  0.86453500  0.17013300  1
  C  C38  1  0.66526100  0.63546500  0.32986700  1
  C  C39  1  0.83473900  0.13546500  0.82986700  1
  C  C40  1  0.24147300  0.13115800  0.31318000  1
  C  C41  1  0.25852700  0.63115800  0.81318000  1
  C  C42  1  0.75852700  0.86884200  0.68682000  1
  C  C43  1  0.74147300  0.36884200  0.18682000  1
  C  C44  1  0.48292300  0.14271700  0.35078100  1
  C  C45  1  0.01707700  0.64271700  0.85078100  1
  C  C46  1  0.51707700  0.85728300  0.64921900  1
  C  C47  1  0.98292300  0.35728300  0.14921900  1
  C  C48  1  0.33666600  0.30325000  0.30910300  1
  C  C49  1  0.16333400  0.80325000  0.80910300  1
  C  C50  1  0.66333400  0.69675000  0.69089700  1
  C  C51  1  0.83666600  0.19675000  0.19089700  1
  C  C52  1  0.03691100  0.12002400  0.43422900  1
  C  C53  1  0.46308900  0.62002400  0.93422900  1
  C  C54  1  0.96308900  0.87997600  0.56577100  1
  C  C55  1  0.53691100  0.37997600  0.06577100  1
  C  C56  1  0.94936200  0.19825000  0.55537100  1
  C  C57  1  0.55063800  0.69825000  0.05537100  1
  C  C58  1  0.05063800  0.80175000  0.44462900  1
  C  C59  1  0.44936200  0.30175000  0.94462900  1
  C  C60  1  0.99784900  0.30445300  0.40217200  1
  C  C61  1  0.50215100  0.80445300  0.90217200  1
  C  C62  1  0.00215100  0.69554700  0.59782800  1
  C  C63  1  0.49784900  0.19554700  0.09782800  1
  N  N0  1  0.19859800  0.45995900  0.35019000  1
  N  N1  1  0.30140200  0.95995900  0.85019000  1
  N  N2  1  0.80140200  0.54004100  0.64981000  1
  N  N3  1  0.69859800  0.04004100  0.14981000  1
  O  O0  1  0.12755000  0.03207000  0.70741000  1
  O  O1  1  0.37245000  0.53207000  0.20741000  1
  O  O2  1  0.87245000  0.96793000  0.29259000  1
  O  O3  1  0.62755000  0.46793000  0.79259000  1
  O  O4  1  0.32564400  0.97067900  0.49210200  1
  O  O5  1  0.17435600  0.47067900  0.99210200  1
  O  O6  1  0.67435600  0.02932100  0.50789800  1
  O  O7  1  0.82564400  0.52932100  0.00789800  1
  O  O8  1  0.55897800  0.09135100  0.66364800  1
  O  O9  1  0.94102200  0.59135100  0.16364800  1
  O  O10  1  0.44102200  0.90864900  0.33635200  1
  O  O11  1  0.05897800  0.40864900  0.83635200  1
  O  O12  1  0.71979300  0.23002100  0.42733600  1
  O  O13  1  0.78020700  0.73002100  0.92733600  1
  O  O14  1  0.28020700  0.76997900  0.57266400  1
  O  O15  1  0.21979300  0.26997900  0.07266400  1
  O  O16  1  0.64808200  0.34551200  0.63706000  1
  O  O17  1  0.85191800  0.84551200  0.13706000  1
  O  O18  1  0.35191800  0.65448800  0.36294000  1
  O  O19  1  0.14808200  0.15448800  0.86294000  1
  O  O20  1  0.52452000  0.46514000  0.40856100  1
  O  O21  1  0.97548000  0.96514000  0.90856100  1
  O  O22  1  0.47548000  0.53486000  0.59143900  1
  O  O23  1  0.02452000  0.03486000  0.09143900  1
  O  O24  1  0.99000200  0.30448600  0.70120300  1
  O  O25  1  0.50999800  0.80448600  0.20120300  1
  O  O26  1  0.00999800  0.69551400  0.29879700  1
  O  O27  1  0.49000200  0.19551400  0.79879700  1
  O  O28  1  0.15088200  0.51203300  0.52818700  1
  O  O29  1  0.34911800  0.01203300  0.02818700  1
  O  O30  1  0.84911800  0.48796700  0.47181300  1
  O  O31  1  0.65088200  0.98796700  0.97181300  1
  O  O32  1  0.39095500  0.38850600  0.72313100  1
  O  O33  1  0.10904500  0.88850600  0.22313100  1
  O  O34  1  0.60904500  0.61149400  0.27686900  1
  O  O35  1  0.89095500  0.11149400  0.77686900  1
  O  O36  1  0.18813400  0.09859600  0.26360800  1
  O  O37  1  0.31186600  0.59859600  0.76360800  1
  O  O38  1  0.81186600  0.90140400  0.73639200  1
  O  O39  1  0.68813400  0.40140400  0.23639200  1
  O  O40  1  0.57401200  0.11234100  0.32464600  1
  O  O41  1  0.92598800  0.61234100  0.82464600  1
  O  O42  1  0.42598800  0.88765900  0.67535400  1
  O  O43  1  0.07401200  0.38765900  0.17535400  1
  O  O44  1  0.36370900  0.32639000  0.23943600  1
  O  O45  1  0.13629100  0.82639000  0.73943600  1
  O  O46  1  0.63629100  0.67361000  0.76056400  1
  O  O47  1  0.86370900  0.17361000  0.26056400  1
  O  O48  1  0.99816800  0.05642700  0.41338500  1
  O  O49  1  0.50183200  0.55642700  0.91338500  1
  O  O50  1  0.00183200  0.94357300  0.58661500  1
  O  O51  1  0.49816800  0.44357300  0.08661500  1
  O  O52  1  0.86123300  0.18102100  0.59809700  1
  O  O53  1  0.63876700  0.68102100  0.09809700  1
  O  O54  1  0.13876700  0.81897900  0.40190300  1
  O  O55  1  0.36123300  0.31897900  0.90190300  1
  O  O56  1  0.93315800  0.34885100  0.35587200  1
  O  O57  1  0.56684200  0.84885100  0.85587200  1
  O  O58  1  0.06684200  0.65114900  0.64412800  1
  O  O59  1  0.43315800  0.15114900  0.14412800  1
  O  O60  1  0.12894900  0.51678400  0.32240800  1
  O  O61  1  0.37105100  0.01678400  0.82240800  1
  O  O62  1  0.87105100  0.48321600  0.67759200  1
  O  O63  1  0.62894900  0.98321600  0.17759200  1
loop_
_geom_bond_atom_site_label_1
_geom_bond_atom_site_label_2
_geom_bond_distance
_geom_bond_site_symmetry_2
H0 Ru8 1.813710 1_555
H0 Ru0 1.819192 1_555
H1 Ru9 1.813710 1_555
H1 Ru1 1.819192 1_555
H2 Ru10 1.813710 1_555
H2 Ru2 1.819192 1_555
H3 Ru11 1.813710 1_555
H3 Ru3 1.819192 1_555
C0 Ru20 2.068866 1_555
C0 Ru16 2.073892 1_555
C0 Ru4 2.078762 1_555
C0 Ru12 2.080688 1_555
C0 Ru0 2.095885 1_555
C0 Ru8 2.151134 1_555
C1 Ru21 2.068866 1_555
C1 Ru17 2.073892 1_555
C1 Ru5 2.078762 1_556
C1 Ru13 2.080688 1_555
C1 Ru1 2.095885 1_556
C1 Ru9 2.151134 1_556
C2 Ru22 2.068866 1_555
C2 Ru18 2.073892 1_555
C2 Ru6 2.078762 1_555
C2 Ru14 2.080688 1_555
C2 Ru2 2.095885 1_555
C2 Ru10 2.151134 1_555
C3 Ru23 2.068866 1_555
C3 Ru19 2.073892 1_555
C3 Ru7 2.078762 1_554
C3 Ru15 2.080688 1_555
C3 Ru3 2.095885 1_554
C3 Ru11 2.151134 1_554
C4 O0 1.153996 1_555
C4 Ru0 1.946100 1_555
C5 O1 1.153996 1_555
C5 Ru1 1.946100 1_555
C6 O2 1.153996 1_555
C6 Ru2 1.946100 1_555
C7 O3 1.153996 1_555
C7 Ru3 1.946100 1_555
C8 O4 1.165523 1_545
C8 Ru0 1.938811 1_555
C9 O5 1.165523 1_554
C9 Ru1 1.938811 1_555
C10 O6 1.165523 1_565
C10 Ru2 1.938811 1_555
C11 O7 1.165523 1_556
C11 Ru3 1.938811 1_555
C12 O8 1.159005 1_555
C12 Ru0 1.927012 1_555
C13 O9 1.159005 1_455
C13 Ru1 1.927012 1_555
C14 O10 1.159005 1_555
C14 Ru2 1.927012 1_555
C15 O11 1.159005 1_655
C15 Ru3 1.927012 1_555
C16 O12 1.163424 1_555
C16 Ru4 1.880647 1_555
C17 O13 1.163424 1_555
C17 Ru5 1.880647 1_656
C18 O14 1.163424 1_555
C18 Ru6 1.880647 1_555
C19 O15 1.163424 1_555
C19 Ru7 1.880647 1_454
C20 O16 1.161452 1_555
C20 Ru4 1.898583 1_555
C21 O17 1.161452 1_555
C21 Ru5 1.898583 1_655
C22 O18 1.161452 1_555
C22 Ru6 1.898583 1_555
C23 O19 1.161452 1_555
C23 Ru7 1.898583 1_455
C24 O20 1.182914 1_555
C24 Ru4 2.041042 1_555
C24 Ru20 2.098760 1_555
C25 O21 1.182914 1_455
C25 Ru5 2.041042 1_556
C25 Ru21 2.098760 1_555
C26 O22 1.182914 1_555
C26 Ru6 2.041042 1_555
C26 Ru22 2.098760 1_555
C27 O23 1.182914 1_655
C27 Ru7 2.041042 1_554
C27 Ru23 2.098760 1_555
C28 O24 1.157314 1_455
C28 Ru8 1.926311 1_555
C29 O25 1.157314 1_555
C29 Ru9 1.926311 1_555
C30 O26 1.157314 1_655
C30 Ru10 1.926311 1_555
C31 O27 1.157314 1_555
C31 Ru11 1.926311 1_555
C32 O28 1.164558 1_555
C32 Ru8 1.934489 1_555
C33 O29 1.164558 1_565
C33 Ru9 1.934489 1_555
C34 O30 1.164558 1_555
C34 Ru10 1.934489 1_555
C35 O31 1.164558 1_545
C35 Ru11 1.934489 1_555
C36 O32 1.154091 1_555
C36 Ru8 1.932778 1_555
C37 O33 1.154091 1_555
C37 Ru9 1.932778 1_555
C38 O34 1.154091 1_555
C38 Ru10 1.932778 1_555
C39 O35 1.154091 1_555
C39 Ru11 1.932778 1_555
C40 O36 1.159834 1_555
C40 Ru12 1.891428 1_555
C41 O37 1.159834 1_555
C41 Ru13 1.891428 1_555
C42 O38 1.159834 1_555
C42 Ru14 1.891428 1_555
C43 O39 1.159834 1_555
C43 Ru15 1.891428 1_555
C44 O40 1.164138 1_555
C44 Ru12 1.885774 1_555
C45 O41 1.164138 1_455
C45 Ru13 1.885774 1_555
C46 O42 1.164138 1_555
C46 Ru14 1.885774 1_555
C47 O43 1.164138 1_655
C47 Ru15 1.885774 1_555
C48 O44 1.183047 1_555
C48 Ru12 2.048034 1_555
C48 Ru20 2.074080 1_555
C49 O45 1.183047 1_555
C49 Ru13 2.048034 1_555
C49 Ru21 2.074080 1_555
C50 O46 1.183047 1_555
C50 Ru14 2.048034 1_555
C50 Ru22 2.074080 1_555
C51 O47 1.183047 1_555
C51 Ru15 2.048034 1_555
C51 Ru23 2.074080 1_555
C52 O48 1.160833 1_455
C52 Ru16 1.896168 1_555
C53 O49 1.160833 1_555
C53 Ru17 1.896168 1_555
C54 O50 1.160833 1_655
C54 Ru18 1.896168 1_555
C55 O51 1.160833 1_555
C55 Ru19 1.896168 1_555
C56 O52 1.158833 1_555
C56 Ru16 1.910258 1_655
C57 O53 1.158833 1_555
C57 Ru17 1.910258 1_554
C58 O54 1.158833 1_555
C58 Ru18 1.910258 1_455
C59 O55 1.158833 1_555
C59 Ru19 1.910258 1_556
C60 O56 1.160847 1_555
C60 Ru16 1.919074 1_655
C61 O57 1.160847 1_555
C61 Ru17 1.919074 1_555
C62 O58 1.160847 1_555
C62 Ru18 1.919074 1_455
C63 O59 1.160847 1_555
C63 Ru19 1.919074 1_555
N0 O60 1.176869 1_555
N0 Ru20 1.788425 1_555
N1 O61 1.176869 1_565
N1 Ru21 1.788425 1_555
N2 O62 1.176869 1_555
N2 Ru22 1.788425 1_555
N3 O63 1.176869 1_545
N3 Ru23 1.788425 1_555
