# generated using pymatgen
data_Li4Ti3(CoO4)3
_symmetry_space_group_name_H-M   'P 1'
_cell_length_a   7.95131919
_cell_length_b   8.32734546
_cell_length_c   7.94472370
_cell_angle_alpha   104.30178409
_cell_angle_beta   65.66149025
_cell_angle_gamma   106.22103932
_symmetry_Int_Tables_number   1
_chemical_formula_structural   Li4Ti3(CoO4)3
_chemical_formula_sum   'Li8 Ti6 Co6 O24'
_cell_volume   454.95423337
_cell_formula_units_Z   2
loop_
 _symmetry_equiv_pos_site_id
 _symmetry_equiv_pos_as_xyz
  1  'x, y, z'
loop_
 _atom_site_type_symbol
 _atom_site_label
 _atom_site_symmetry_multiplicity
 _atom_site_fract_x
 _atom_site_fract_y
 _atom_site_fract_z
 _atom_site_occupancy
  Li  Li0  1  0.91710100  0.58348300  0.41655000  1
  Li  Li1  1  0.41635100  0.08329300  0.91672300  1
  Li  Li2  1  0.16971300  0.83545100  0.16499400  1
  Li  Li3  1  0.66371600  0.33113500  0.66826700  1
  Li  Li4  1  0.72790500  0.72052900  0.27047800  1
  Li  Li5  1  0.23680600  0.23337100  0.75762700  1
  Li  Li6  1  0.59735100  0.93406500  0.07527800  1
  Li  Li7  1  0.10481900  0.44556600  0.56326700  1
  Ti  Ti0  1  0.16258700  0.32147700  0.16160800  1
  Ti  Ti1  1  0.67058400  0.84549200  0.67168200  1
  Ti  Ti2  1  0.33826000  0.18707800  0.34868400  1
  Ti  Ti3  1  0.82778600  0.67317700  0.84280600  1
  Ti  Ti4  1  0.49475500  0.97961600  0.48442200  1
  Ti  Ti5  1  0.00544400  0.49357400  0.99024300  1
  Co  Co0  1  0.91668700  0.08321700  0.41652200  1
  Co  Co1  1  0.58248000  0.41583400  0.07917100  1
  Co  Co2  1  0.25086100  0.75075000  0.75410600  1
  Co  Co3  1  0.41670500  0.58339100  0.91679200  1
  Co  Co4  1  0.08127800  0.91576900  0.58225000  1
  Co  Co5  1  0.75187900  0.25109900  0.25145000  1
  O  O0  1  0.26959900  0.98023400  0.72083100  1
  O  O1  1  0.76908900  0.47799500  0.22076100  1
  O  O2  1  0.06428700  0.68865300  0.61260900  1
  O  O3  1  0.56376600  0.18645600  0.11257200  1
  O  O4  1  0.49807200  0.23152700  0.49057100  1
  O  O5  1  0.00287700  0.73023200  0.98784600  1
  O  O6  1  0.33514000  0.93501500  0.34279300  1
  O  O7  1  0.83065100  0.43629400  0.84542200  1
  O  O8  1  0.89940000  0.83420900  0.44017300  1
  O  O9  1  0.40182500  0.33537100  0.93743000  1
  O  O10  1  0.43157100  0.83126300  0.89585100  1
  O  O11  1  0.93390100  0.33233200  0.39320300  1
  O  O12  1  0.17573500  0.10008100  0.18565600  1
  O  O13  1  0.67457300  0.60100900  0.69058900  1
  O  O14  1  0.15875600  0.56547300  0.14287100  1
  O  O15  1  0.65766100  0.06658800  0.64769100  1
  O  O16  1  0.32455200  0.39975000  0.31799000  1
  O  O17  1  0.82359500  0.90096100  0.82183900  1
  O  O18  1  0.00974500  0.26570300  0.01152100  1
  O  O19  1  0.50874500  0.76693200  0.51541000  1
  O  O20  1  0.60594200  0.65035800  0.07106300  1
  O  O21  1  0.10570900  0.14644500  0.56423900  1
  O  O22  1  0.72755900  0.02026500  0.26917200  1
  O  O23  1  0.22751600  0.51615800  0.76230500  1
loop_
_geom_bond_atom_site_label_1
_geom_bond_atom_site_label_2
_geom_bond_distance
_geom_bond_site_symmetry_2
Li0 O8 2.088801 1_555
Li0 O11 2.090525 1_555
Li0 O2 2.195186 1_655
Li0 O1 2.198299 1_555
Li0 O14 2.235716 1_655
Li0 O13 2.240486 1_555
Li1 O9 2.096658 1_555
Li1 O10 2.097683 1_545
Li1 O0 2.190365 1_545
Li1 O3 2.193916 1_556
Li1 O12 2.208503 1_556
Li1 O15 2.211606 1_555
Li2 O12 2.157357 1_565
Li2 O6 2.180942 1_555
Li2 O5 2.188264 1_554
Li2 O14 2.191085 1_555
Li2 O10 2.289685 1_554
Li2 O8 2.350528 1_455
Li3 O15 2.156721 1_555
Li3 O4 2.181623 1_555
Li3 O7 2.188870 1_555
Li3 O13 2.190145 1_555
Li3 O9 2.289928 1_555
Li3 O11 2.349491 1_555
Li4 O19 2.045063 1_555
Li4 O1 2.052084 1_555
Li4 O20 2.069856 1_555
Li4 O8 2.176406 1_555
Li4 O5 2.402739 1_654
Li4 O22 2.499362 1_565
Li5 O21 2.078506 1_555
Li5 O18 2.098180 1_556
Li5 O0 2.129962 1_545
Li5 O9 2.192374 1_555
Li5 O4 2.277313 1_555
Li5 O23 2.367257 1_555
Li6 O22 2.076813 1_565
Li6 O17 2.093707 1_554
Li6 O3 2.125354 1_565
Li6 O10 2.194977 1_554
Li6 O6 2.283094 1_555
Li6 O20 2.374133 1_555
Li7 O16 2.047985 1_555
Li7 O2 2.055115 1_555
Li7 O23 2.071185 1_555
Li7 O11 2.174784 1_455
Li7 O7 2.397258 1_455
Li7 O21 2.494796 1_555
Co0 O8 2.089471 1_545
Co0 O11 2.089692 1_555
Co0 O12 2.116177 1_655
Co0 O15 2.117217 1_555
Co0 O22 2.148054 1_555
Co0 O21 2.149391 1_655
Co1 O20 1.923984 1_555
Co1 O3 1.949400 1_555
Co1 O9 2.050171 1_554
Co1 O7 2.078361 1_554
Co1 O1 2.096171 1_555
Co1 O16 2.142120 1_555
Co2 O23 1.924912 1_555
Co2 O0 1.949881 1_555
Co2 O10 2.050558 1_555
Co2 O5 2.077512 1_555
Co2 O2 2.095409 1_555
Co2 O19 2.141435 1_555
Co3 O10 2.078309 1_555
Co3 O9 2.078784 1_555
Co3 O14 2.092855 1_556
Co3 O13 2.092907 1_555
Co3 O20 2.188804 1_556
Co3 O23 2.189654 1_555
Co4 O21 1.911165 1_565
Co4 O2 1.925903 1_555
Co4 O8 2.060288 1_455
Co4 O0 2.088143 1_555
Co4 O6 2.126983 1_555
Co4 O17 2.143979 1_455
Co5 O22 1.912016 1_555
Co5 O1 1.924528 1_555
Co5 O11 2.059307 1_555
Co5 O3 2.088401 1_555
Co5 O4 2.125432 1_555
Co5 O18 2.146170 1_655
O0 Ti4 1.990378 1_555
O1 Ti5 2.011716 1_654
O2 Ti3 2.010942 1_455
O3 Ti2 1.990456 1_555
O4 Ti2 1.932403 1_555
O4 Ti4 2.079220 1_545
O5 Ti5 1.981389 1_555
O5 Ti3 2.043046 1_455
O6 Ti4 1.929254 1_555
O6 Ti2 2.081346 1_565
O7 Ti3 1.984409 1_555
O7 Ti5 2.039484 1_655
O8 Ti1 1.988420 1_555
O9 Ti0 1.997583 1_556
O10 Ti1 1.996566 1_555
O11 Ti0 1.987961 1_655
O12 Ti0 1.935101 1_555
O12 Ti2 2.065287 1_555
O13 Ti3 1.937520 1_555
O13 Ti1 2.087948 1_555
O14 Ti5 1.940830 1_554
O14 Ti0 2.083076 1_555
O15 Ti1 1.931816 1_545
O15 Ti4 2.069194 1_545
O16 Ti2 1.884379 1_555
O16 Ti0 2.019088 1_555
O17 Ti1 1.930497 1_555
O17 Ti3 1.955209 1_555
O18 Ti0 1.928718 1_555
O18 Ti5 1.957035 1_554
O19 Ti4 1.886219 1_555
O19 Ti1 2.017572 1_555
O20 Ti3 1.944875 1_554
O21 Ti2 1.947563 1_555
O22 Ti4 1.947380 1_545
O23 Ti5 1.944156 1_555
