# generated using pymatgen
data_Sr3Tm3Al4Si8N17O4
_symmetry_space_group_name_H-M   'P 1'
_cell_length_a   6.09035600
_cell_length_b   6.41874240
_cell_length_c   28.52352226
_cell_angle_alpha   87.10526918
_cell_angle_beta   87.98797359
_cell_angle_gamma   65.59773498
_symmetry_Int_Tables_number   1
_chemical_formula_structural   Sr3Tm3Al4Si8N17O4
_chemical_formula_sum   'Sr6 Tm6 Al8 Si16 N34 O8'
_cell_volume   1014.02286635
_cell_formula_units_Z   2
loop_
 _symmetry_equiv_pos_site_id
 _symmetry_equiv_pos_as_xyz
  1  'x, y, z'
loop_
 _atom_site_type_symbol
 _atom_site_label
 _atom_site_symmetry_multiplicity
 _atom_site_fract_x
 _atom_site_fract_y
 _atom_site_fract_z
 _atom_site_occupancy
  Sr  Sr0  1  0.39283300  0.32328300  0.62223500  1
  Sr  Sr1  1  0.35413300  0.25084400  0.96288700  1
  Sr  Sr2  1  0.22771300  0.37876200  0.29791800  1
  Sr  Sr3  1  0.69729100  0.58398300  0.45030400  1
  Sr  Sr4  1  0.67086500  0.72752800  0.12589600  1
  Sr  Sr5  1  0.68573300  0.60870100  0.79074100  1
  Tm  Tm0  1  0.22324900  0.40071500  0.08013700  1
  Tm  Tm1  1  0.37758300  0.14121500  0.41550200  1
  Tm  Tm2  1  0.44680100  0.16399900  0.74313300  1
  Tm  Tm3  1  0.76542400  0.55433500  0.92539300  1
  Tm  Tm4  1  0.73318600  0.63630600  0.56925100  1
  Tm  Tm5  1  0.62431100  0.79560700  0.24485900  1
  Al  Al0  1  0.68049300  0.23598000  0.19995800  1
  Al  Al1  1  0.65766500  0.13982100  0.51879800  1
  Al  Al2  1  0.88405200  0.80291300  0.68998800  1
  Al  Al3  1  0.75375500  0.87023600  0.34753900  1
  Al  Al4  1  0.88260800  0.80920000  0.01287000  1
  Al  Al5  1  0.35733800  0.84070900  0.67902200  1
  Al  Al6  1  0.37478200  0.75211100  0.35206300  1
  Al  Al7  1  0.35983400  0.81734800  0.02302700  1
  Si  Si0  1  0.96524200  0.04266400  0.75806500  1
  Si  Si1  1  0.99823800  0.95743100  0.93433400  1
  Si  Si2  1  0.66938500  0.14583700  0.85110900  1
  Si  Si3  1  0.14859200  0.15986100  0.51786000  1
  Si  Si4  1  0.23986500  0.15698700  0.18682900  1
  Si  Si5  1  0.99830900  0.99118700  0.42705600  1
  Si  Si6  1  0.14188900  0.20071800  0.85015500  1
  Si  Si7  1  0.06143000  0.01891200  0.09880800  1
  Si  Si8  1  0.22055000  0.57750900  0.52786300  1
  Si  Si9  1  0.19991000  0.66363200  0.19157400  1
  Si  Si10  1  0.25080100  0.56512800  0.87134000  1
  Si  Si11  1  0.85068100  0.39260600  0.67290500  1
  Si  Si12  1  0.76880900  0.34316000  0.34958000  1
  Si  Si13  1  0.80113800  0.38751000  0.03387800  1
  Si  Si14  1  0.98790600  0.94430800  0.60504900  1
  Si  Si15  1  0.10469100  0.91320000  0.27767300  1
  N  N0  1  0.47837800  0.49985900  0.02762500  1
  N  N1  1  0.06727200  0.17515700  0.90991600  1
  N  N2  1  0.66760300  0.34037000  0.98665500  1
  N  N3  1  0.94141300  0.11674900  0.81847300  1
  N  N4  1  0.12151500  0.12592200  0.58315000  1
  N  N5  1  0.89084400  0.29533500  0.61096600  1
  N  N6  1  0.96125300  0.05805700  0.48840600  1
  N  N7  1  0.21215700  0.08483500  0.24589500  1
  N  N8  1  0.82816600  0.10138400  0.30731500  1
  N  N9  1  0.86248500  0.30250800  0.09106600  1
  N  N10  1  0.76444700  0.28879900  0.72400000  1
  N  N11  1  0.96209600  0.25464900  0.39483700  1
  N  N12  1  0.06053600  0.49316300  0.68470300  1
  N  N13  1  0.74206800  0.60296100  0.32374300  1
  N  N14  1  0.99912500  0.49185200  0.01147700  1
  N  N15  1  0.04025500  0.50140100  0.84743300  1
  N  N16  1  0.03639900  0.46037700  0.50877000  1
  N  N17  1  0.12693800  0.45196400  0.16540800  1
  N  N18  1  0.19375900  0.68600100  0.92273000  1
  N  N19  1  0.11069300  0.68154200  0.57967900  1
  N  N20  1  0.02407600  0.74208700  0.24286500  1
  N  N21  1  0.99524100  0.81373200  0.07294100  1
  N  N22  1  0.10515600  0.97309200  0.16116400  1
  N  N23  1  0.81402400  0.87590800  0.75178800  1
  N  N24  1  0.78115100  0.91109600  0.40909100  1
  N  N25  1  0.55384200  0.43205400  0.86686100  1
  N  N26  1  0.52340700  0.46134200  0.52473200  1
  N  N27  1  0.51439800  0.55654100  0.20023300  1
  N  N28  1  0.44085400  0.08955000  0.82648300  1
  N  N29  1  0.44178200  0.03134700  0.49794300  1
  N  N30  1  0.55154600  0.04569000  0.18037300  1
  N  N31  1  0.32968100  0.00846900  0.07064400  1
  N  N32  1  0.26068200  0.92238200  0.73896300  1
  N  N33  1  0.29285400  0.82010600  0.41494000  1
  O  O0  1  0.71274000  0.00605000  0.57805100  1
  O  O1  1  0.74516100  0.98290300  0.90166700  1
  O  O2  1  0.65776400  0.17423200  0.26648700  1
  O  O3  1  0.55999100  0.97986800  0.67271700  1
  O  O4  1  0.43474800  0.01379800  0.34120300  1
  O  O5  1  0.59106500  0.84756300  0.98517700  1
  O  O6  1  0.56885200  0.58975100  0.65124700  1
  O  O7  1  0.47649600  0.41531100  0.36474800  1
loop_
_geom_bond_atom_site_label_1
_geom_bond_atom_site_label_2
_geom_bond_distance
_geom_bond_site_symmetry_2
Al0 N30 1.820166 1_555
Al0 N27 1.881036 1_555
Al0 O2 1.930859 1_555
Al1 O0 1.833435 1_555
Al1 N29 1.849467 1_555
Al1 N6 1.891344 1_555
Al1 N26 1.894089 1_555
Al2 N23 1.836910 1_555
Al2 N12 1.839593 1_655
Al2 O3 1.894079 1_555
Al3 O4 1.784671 1_565
Al3 N24 1.811704 1_555
Al3 N13 1.905477 1_555
Al3 N8 2.017471 1_565
Al4 N14 1.861781 1_555
Al4 N21 1.873854 1_555
Al4 O5 1.885445 1_554
Al5 O6 1.795696 1_555
Al5 O3 1.797953 1_555
Al5 N32 1.819173 1_555
Al6 N33 1.868765 1_555
Al6 O4 1.870059 1_565
Al6 O7 2.004585 1_555
Al6 N13 2.180486 1_555
Al7 O5 1.812237 1_554
Al7 N31 1.829754 1_565
Al7 N0 1.858858 1_555
N0 N2 1.671291 1_554
N0 Si13 1.804507 1_555
N0 Tm0 2.370694 1_555
N1 Si1 1.726725 1_445
N1 Si6 1.765799 1_555
N1 Tm3 2.419211 1_455
N1 Sr1 2.555780 1_555
N2 Si13 1.699620 1_556
N2 Sr1 2.339099 1_555
N2 Tm3 2.378055 1_555
N3 Si0 1.795624 1_555
N3 Si6 1.807852 1_655
N3 Si2 1.816563 1_555
N3 Sr5 2.965290 1_555
N4 N5 1.591293 1_455
N4 Si14 1.756650 1_445
N4 Si3 1.873488 1_555
N4 Sr0 2.753151 1_555
N5 Si11 1.877718 1_555
N5 Tm4 2.282217 1_555
N6 Si3 1.781409 1_655
N6 Si5 1.807061 1_545
N7 Si15 1.707910 1_545
N7 Si4 1.745628 1_555
N7 Tm5 2.428605 1_545
N7 Sr2 2.492111 1_555
N8 O2 1.510226 1_555
N8 Si15 1.825511 1_645
N8 Si12 1.920213 1_555
N9 Si13 1.697813 1_555
N9 Si7 1.728062 1_655
N9 Tm0 2.529550 1_655
N9 Sr4 2.711659 1_555
N10 Si11 1.726605 1_555
N10 Si0 1.807653 1_555
N10 Tm2 2.417504 1_555
N10 Sr5 2.754548 1_555
N11 Si12 1.689661 1_555
N11 Si5 1.817165 1_545
N11 Tm1 2.412433 1_655
N11 Sr3 2.629513 1_555
N12 Si11 1.702100 1_455
N12 Sr0 2.565002 1_555
N12 Tm2 2.930629 1_555
N13 Si12 1.735052 1_555
N13 Tm5 2.491113 1_555
N13 Sr2 2.792654 1_655
N14 Si13 1.697284 1_555
N14 Tm0 2.335179 1_655
N14 Sr1 2.496240 1_654
N14 Tm3 2.808922 1_554
N15 Si10 1.673198 1_555
N15 Si6 1.764999 1_555
N15 Sr5 2.579757 1_455
N15 Tm3 2.684579 1_455
N16 Si8 1.703144 1_555
N16 Si3 1.768550 1_555
N16 Tm4 2.431349 1_455
N16 Sr3 2.535792 1_455
N17 Si9 1.795853 1_555
N17 Si4 1.807738 1_555
N17 Tm0 2.487812 1_555
N17 Sr4 2.841301 1_455
N18 Si10 1.651567 1_555
N18 Si1 1.696840 1_455
N18 Sr1 2.751167 1_555
N18 Tm3 3.053965 1_455
N18 Tm3 3.228414 1_555
N19 Si8 1.655007 1_555
N19 Si14 1.723571 1_455
N19 Tm4 2.463175 1_455
N19 Sr0 2.512701 1_555
N20 Si15 1.738698 1_555
N20 Si9 1.749164 1_555
N20 Tm5 2.313053 1_455
N20 Sr2 2.611449 1_555
N21 Si7 1.731780 1_665
N21 Tm0 2.433463 1_655
N21 Sr4 2.664545 1_555
N22 Si7 1.799053 1_565
N22 Si4 1.879339 1_565
N22 Si9 1.986188 1_555
N23 Si0 1.694516 1_565
N23 Tm2 2.248960 1_565
N23 Sr5 2.374979 1_555
N24 Si5 1.706471 1_555
N24 Tm1 2.291783 1_565
N24 Sr3 2.577968 1_555
N25 Si10 1.686452 1_555
N25 Si2 1.750757 1_555
N25 Tm3 2.486577 1_555
N25 Sr5 2.650746 1_555
N26 Si8 1.680745 1_555
N26 Tm4 2.439181 1_555
N26 Sr3 2.571047 1_555
N27 Si9 1.769251 1_555
N27 Tm5 2.351370 1_555
N27 Sr4 2.663795 1_555
N28 Si2 1.752403 1_555
N28 Si6 1.780221 1_555
N28 Tm2 2.403201 1_555
N28 Sr5 3.032713 1_545
N29 Si3 1.717759 1_555
N29 Tm1 2.418476 1_555
N30 Si4 1.736618 1_555
N30 Tm5 2.308164 1_545
N30 Sr4 2.475514 1_545
N31 Si7 1.772500 1_555
N31 Tm0 2.353820 1_555
N31 Sr4 2.626806 1_545
N32 Si0 1.719399 1_465
N32 Tm2 2.277045 1_565
N32 Sr5 2.932224 1_555
N33 Si5 1.705999 1_455
N33 Tm1 2.323250 1_565
N33 Sr3 2.513390 1_555
O0 Si14 1.752027 1_545
O0 Tm4 2.350490 1_545
O0 Sr0 2.517798 1_555
O1 Si2 1.697637 1_565
O1 Si1 1.774224 1_555
O1 Tm3 2.752784 1_555
O1 Sr1 2.881959 1_565
O2 Sr2 2.549531 1_555
O2 Tm5 2.626369 1_545
O3 Tm2 2.318520 1_565
O3 Sr0 2.428338 1_565
O4 Tm1 2.273627 1_555
O4 Sr2 2.445109 1_555
O5 Sr1 2.449266 1_565
O5 Tm3 2.474588 1_555
O6 Si11 1.769149 1_555
O6 Sr0 2.545534 1_555
O6 Tm4 2.563830 1_555
O7 Si12 1.689967 1_555
O7 Tm1 2.472097 1_555
O7 Sr2 2.554640 1_555
