# generated using pymatgen
data_LiAgF4
_symmetry_space_group_name_H-M   'P 1'
_cell_length_a   6.44723929
_cell_length_b   6.44723929
_cell_length_c   5.56197018
_cell_angle_alpha   73.68536805
_cell_angle_beta   73.68536805
_cell_angle_gamma   53.32245998
_symmetry_Int_Tables_number   1
_chemical_formula_structural   LiAgF4
_chemical_formula_sum   'Li2 Ag2 F8'
_cell_volume   176.02130419
_cell_formula_units_Z   2
loop_
 _symmetry_equiv_pos_site_id
 _symmetry_equiv_pos_as_xyz
  1  'x, y, z'
loop_
 _atom_site_type_symbol
 _atom_site_label
 _atom_site_symmetry_multiplicity
 _atom_site_fract_x
 _atom_site_fract_y
 _atom_site_fract_z
 _atom_site_occupancy
  Li  Li0  1  0.10387200  0.89612800  0.25000000  1
  Li  Li1  1  0.89612800  0.10387200  0.75000000  1
  Ag  Ag0  1  0.00000000  0.50000000  0.00000000  1
  Ag  Ag1  1  0.50000000  0.00000000  0.50000000  1
  F  F0  1  0.26732700  0.43705600  0.70269900  1
  F  F1  1  0.02820600  0.18335000  0.96947400  1
  F  F2  1  0.18335000  0.02820600  0.46947400  1
  F  F3  1  0.43705600  0.26732700  0.20269900  1
  F  F4  1  0.56294400  0.73267300  0.79730100  1
  F  F5  1  0.81665000  0.97179400  0.53052600  1
  F  F6  1  0.97179400  0.81665000  0.03052600  1
  F  F7  1  0.73267300  0.56294400  0.29730100  1
loop_
_geom_bond_atom_site_label_1
_geom_bond_atom_site_label_2
_geom_bond_distance
_geom_bond_site_symmetry_2
Ag0 F7 1.951872 1_455
Ag0 F0 1.951872 1_554
Ag0 F6 1.990874 1_455
Ag0 F1 1.990874 1_554
Ag1 F4 1.951872 1_545
Ag1 F3 1.951872 1_555
Ag1 F5 1.990874 1_545
Ag1 F2 1.990874 1_555
F1 Li0 1.956207 1_546
F1 Li1 1.983558 1_455
F2 Li1 1.956207 1_455
F2 Li0 1.983558 1_545
F5 Li0 1.956207 1_655
F5 Li1 1.983558 1_565
F6 Li1 1.956207 1_564
F6 Li0 1.983558 1_655
