# generated using pymatgen
data_Na(FeO2)2
_symmetry_space_group_name_H-M   'P 1'
_cell_length_a   5.94588415
_cell_length_b   5.94588415
_cell_length_c   5.94588415
_cell_angle_alpha   60.00000000
_cell_angle_beta   60.00000000
_cell_angle_gamma   60.00000000
_symmetry_Int_Tables_number   1
_chemical_formula_structural   Na(FeO2)2
_chemical_formula_sum   'Na2 Fe4 O8'
_cell_volume   148.63953251
_cell_formula_units_Z   2
loop_
 _symmetry_equiv_pos_site_id
 _symmetry_equiv_pos_as_xyz
  1  'x, y, z'
loop_
 _atom_site_type_symbol
 _atom_site_label
 _atom_site_symmetry_multiplicity
 _atom_site_fract_x
 _atom_site_fract_y
 _atom_site_fract_z
 _atom_site_occupancy
  Na  Na0  1  0.37500000  0.37500000  0.37500000  1
  Na  Na1  1  0.62500000  0.62500000  0.62500000  1
  Fe  Fe0  1  0.00000000  0.00000000  0.50000000  1
  Fe  Fe1  1  0.50000000  0.00000000  0.00000000  1
  Fe  Fe2  1  0.00000000  0.50000000  0.00000000  1
  Fe  Fe3  1  0.00000000  0.00000000  0.00000000  1
  O  O0  1  0.22829500  0.22829500  0.22829500  1
  O  O1  1  0.22829500  0.81511500  0.22829500  1
  O  O2  1  0.81511500  0.22829500  0.22829500  1
  O  O3  1  0.22829500  0.22829500  0.81511500  1
  O  O4  1  0.77170500  0.77170500  0.18488500  1
  O  O5  1  0.18488500  0.77170500  0.77170500  1
  O  O6  1  0.77170500  0.77170500  0.77170500  1
  O  O7  1  0.77170500  0.18488500  0.77170500  1
loop_
_geom_bond_atom_site_label_1
_geom_bond_atom_site_label_2
_geom_bond_distance
_geom_bond_site_symmetry_2
Na0 O2 2.136668 1_555
Na0 O0 2.136668 1_555
Na0 O3 2.136668 1_555
Na0 O1 2.136668 1_555
Na1 O6 2.136668 1_555
Na1 O5 2.136668 1_555
Na1 O7 2.136668 1_555
Na1 O4 2.136668 1_555
Fe0 O5 1.936950 1_545
Fe0 O0 1.936950 1_555
Fe0 O2 1.936950 1_455
Fe0 O1 1.936950 1_545
Fe0 O7 1.936950 1_455
Fe0 O6 1.936950 1_445
Fe1 O3 1.936950 1_554
Fe1 O1 1.936950 1_545
Fe1 O7 1.936950 1_554
Fe1 O0 1.936950 1_555
Fe1 O6 1.936950 1_544
Fe1 O4 1.936950 1_545
Fe2 O3 1.936950 1_554
Fe2 O2 1.936950 1_455
Fe2 O5 1.936950 1_554
Fe2 O6 1.936950 1_454
Fe2 O0 1.936950 1_555
Fe2 O4 1.936950 1_455
Fe3 O2 1.936950 1_455
Fe3 O1 1.936950 1_545
Fe3 O5 1.936950 1_544
Fe3 O3 1.936950 1_554
Fe3 O4 1.936950 1_445
Fe3 O7 1.936950 1_454
