# generated using pymatgen
data_Mn2Cd3O5
_symmetry_space_group_name_H-M   'P 1'
_cell_length_a   5.72124978
_cell_length_b   5.74076463
_cell_length_c   8.74630053
_cell_angle_alpha   109.07897066
_cell_angle_beta   71.08973706
_cell_angle_gamma   99.45383804
_symmetry_Int_Tables_number   1
_chemical_formula_structural   Mn2Cd3O5
_chemical_formula_sum   'Mn4 Cd6 O10'
_cell_volume   256.28685891
_cell_formula_units_Z   2
loop_
 _symmetry_equiv_pos_site_id
 _symmetry_equiv_pos_as_xyz
  1  'x, y, z'
loop_
 _atom_site_type_symbol
 _atom_site_label
 _atom_site_symmetry_multiplicity
 _atom_site_fract_x
 _atom_site_fract_y
 _atom_site_fract_z
 _atom_site_occupancy
  Mn  Mn0  1  0.99681800  0.99899300  0.99894200  1
  Mn  Mn1  1  0.90276000  0.50183500  0.69952600  1
  Mn  Mn2  1  0.49681700  0.49901700  0.49893300  1
  Mn  Mn3  1  0.40274700  0.00182400  0.19953000  1
  Cd  Cd0  1  0.69914200  0.50093000  0.09935400  1
  Cd  Cd1  1  0.19915200  0.00092800  0.59934300  1
  Cd  Cd2  1  0.09435900  0.49795000  0.29833900  1
  Cd  Cd3  1  0.59435600  0.99794900  0.79833800  1
  Cd  Cd4  1  0.30426400  0.50428700  0.90064700  1
  Cd  Cd5  1  0.80426000  0.00428500  0.40064500  1
  O  O0  1  0.94861400  0.25292800  0.84856100  1
  O  O1  1  0.44861400  0.75292800  0.34856000  1
  O  O2  1  0.33037000  0.23048200  0.05053600  1
  O  O3  1  0.83034700  0.73047900  0.55052000  1
  O  O4  1  0.06688200  0.77232300  0.14845700  1
  O  O5  1  0.56685800  0.27231900  0.64844100  1
  O  O6  1  0.23269300  0.74351700  0.74679600  1
  O  O7  1  0.73264200  0.24352300  0.24681900  1
  O  O8  1  0.66457700  0.76195100  0.95393700  1
  O  O9  1  0.16462800  0.26194300  0.45391300  1
loop_
_geom_bond_atom_site_label_1
_geom_bond_atom_site_label_2
_geom_bond_distance
_geom_bond_site_symmetry_2
Mn0 O8 2.214715 1_555
Mn0 O2 2.223611 1_666
Mn0 O4 2.277634 1_656
Mn0 O6 2.332887 1_655
Mn0 O7 2.353450 1_566
Mn0 O0 2.356226 1_565
Mn1 O6 2.220262 1_655
Mn1 O5 2.229083 1_555
Mn1 O3 2.289087 1_555
Mn1 O0 2.317802 1_555
Mn1 O9 2.326721 1_655
Mn1 O8 2.359864 1_555
Mn2 O9 2.214582 1_555
Mn2 O3 2.223429 1_555
Mn2 O5 2.277651 1_555
Mn2 O7 2.332668 1_555
Mn2 O6 2.353186 1_555
Mn2 O1 2.356055 1_555
Mn3 O7 2.220170 1_555
Mn3 O4 2.228844 1_545
Mn3 O2 2.288971 1_555
Mn3 O1 2.317745 1_545
Mn3 O8 2.326490 1_544
Mn3 O9 2.359599 1_555
Cd0 O7 2.320157 1_555
Cd0 O8 2.325600 1_554
Cd0 O0 2.339292 1_554
Cd0 O1 2.343689 1_555
Cd0 O4 2.471796 1_655
Cd0 O2 2.473595 1_555
Cd1 O6 2.320180 1_545
Cd1 O9 2.325574 1_555
Cd1 O1 2.339217 1_545
Cd1 O0 2.343773 1_455
Cd1 O5 2.471624 1_555
Cd1 O3 2.473760 1_445
Cd2 O2 2.342426 1_555
Cd2 O3 2.346592 1_455
Cd2 O9 2.363786 1_555
Cd2 O1 2.371819 1_555
Cd2 O4 2.406027 1_555
Cd2 O7 2.408389 1_455
Cd3 O3 2.342456 1_555
Cd3 O2 2.346617 1_566
Cd3 O8 2.363801 1_555
Cd3 O0 2.371840 1_565
Cd3 O5 2.406157 1_565
Cd3 O6 2.408198 1_555
Cd4 O5 2.342033 1_555
Cd4 O4 2.346945 1_556
Cd4 O6 2.369500 1_555
Cd4 O0 2.374144 1_455
Cd4 O2 2.400594 1_556
Cd4 O8 2.413533 1_555
Cd5 O4 2.342003 1_645
Cd5 O5 2.346920 1_555
Cd5 O7 2.369480 1_555
Cd5 O1 2.374118 1_545
Cd5 O3 2.400465 1_545
Cd5 O9 2.413724 1_655
