# generated using pymatgen
data_Li2Zr2O5
_symmetry_space_group_name_H-M   'P 1'
_cell_length_a   3.93065600
_cell_length_b   10.37499200
_cell_length_c   13.14277511
_cell_angle_alpha   56.42855539
_cell_angle_beta   90.00000000
_cell_angle_gamma   90.00000000
_symmetry_Int_Tables_number   1
_chemical_formula_structural   Li2Zr2O5
_chemical_formula_sum   'Li8 Zr8 O20'
_cell_volume   446.56794975
_cell_formula_units_Z   4
loop_
 _symmetry_equiv_pos_site_id
 _symmetry_equiv_pos_as_xyz
  1  'x, y, z'
loop_
 _atom_site_type_symbol
 _atom_site_label
 _atom_site_symmetry_multiplicity
 _atom_site_fract_x
 _atom_site_fract_y
 _atom_site_fract_z
 _atom_site_occupancy
  Li  Li0  1  0.25956500  0.04583300  0.04764800  1
  Li  Li1  1  0.29676200  0.92429900  0.32994300  1
  Li  Li2  1  0.79676200  0.07570100  0.17005700  1
  Li  Li3  1  0.75956500  0.95416700  0.45235200  1
  Li  Li4  1  0.24043500  0.04583300  0.54764800  1
  Li  Li5  1  0.20323800  0.92429900  0.82994300  1
  Li  Li6  1  0.70323800  0.07570100  0.67005700  1
  Li  Li7  1  0.74043500  0.95416700  0.95235200  1
  Zr  Zr0  1  0.68476600  0.33078000  0.85537600  1
  Zr  Zr1  1  0.86100400  0.66933500  0.36432100  1
  Zr  Zr2  1  0.18476600  0.66922000  0.64462400  1
  Zr  Zr3  1  0.63899600  0.66933500  0.86432100  1
  Zr  Zr4  1  0.36100400  0.33066500  0.13567900  1
  Zr  Zr5  1  0.81523400  0.33078000  0.35537600  1
  Zr  Zr6  1  0.13899600  0.33066500  0.63567900  1
  Zr  Zr7  1  0.31523400  0.66922000  0.14462400  1
  O  O0  1  0.74815500  0.11475600  0.98903600  1
  O  O1  1  0.17622500  0.38630200  0.78565200  1
  O  O2  1  0.33963100  0.70889000  0.29121300  1
  O  O3  1  0.13350700  0.58650000  0.53215900  1
  O  O4  1  0.63350700  0.41350000  0.96784100  1
  O  O5  1  0.79860100  0.87591700  0.33893100  1
  O  O6  1  0.67622500  0.61369800  0.71434800  1
  O  O7  1  0.24815500  0.88524400  0.51096400  1
  O  O8  1  0.29860100  0.12408300  0.16106900  1
  O  O9  1  0.16036900  0.70889000  0.79121300  1
  O  O10  1  0.83963100  0.29111000  0.20878700  1
  O  O11  1  0.70139900  0.87591700  0.83893100  1
  O  O12  1  0.75184500  0.11475600  0.48903600  1
  O  O13  1  0.32377500  0.38630200  0.28565200  1
  O  O14  1  0.20139900  0.12408300  0.66106900  1
  O  O15  1  0.36649300  0.58650000  0.03215900  1
  O  O16  1  0.86649300  0.41350000  0.46784100  1
  O  O17  1  0.66036900  0.29111000  0.70878700  1
  O  O18  1  0.82377500  0.61369800  0.21434800  1
  O  O19  1  0.25184500  0.88524400  0.01096400  1
loop_
_geom_bond_atom_site_label_1
_geom_bond_atom_site_label_2
_geom_bond_distance
_geom_bond_site_symmetry_2
Li0 O19 1.974255 1_545
Li0 O0 2.045427 1_554
Li0 O8 2.059886 1_555
Li0 O0 2.129869 1_454
Li1 O5 2.008606 1_455
Li1 O5 2.022702 1_555
Li1 O8 2.033366 1_565
Li1 O7 2.189690 1_555
Li1 O2 2.557390 1_555
Li2 O8 2.008606 1_555
Li2 O8 2.022702 1_655
Li2 O5 2.033366 1_545
Li2 O0 2.189690 1_554
Li2 O10 2.557390 1_555
Li3 O12 1.974255 1_565
Li3 O7 2.045427 1_655
Li3 O5 2.059886 1_555
Li3 O7 2.129869 1_555
Li4 O7 1.974255 1_545
Li4 O12 2.045427 1_455
Li4 O14 2.059886 1_555
Li4 O12 2.129869 1_555
Li5 O11 2.008606 1_555
Li5 O11 2.022702 1_455
Li5 O14 2.033366 1_565
Li5 O19 2.189690 1_556
Li5 O9 2.557390 1_555
Li6 O14 2.008606 1_655
Li6 O14 2.022702 1_555
Li6 O11 2.033366 1_545
Li6 O12 2.189690 1_555
Li6 O17 2.557390 1_555
Li7 O0 1.974255 1_565
Li7 O19 2.045427 1_556
Li7 O11 2.059886 1_555
Li7 O19 2.129869 1_656
O0 Zr0 1.953681 1_555
O1 Zr0 2.078326 1_455
O1 Zr0 2.140878 1_555
O1 Zr6 2.344783 1_555
O1 Zr2 2.456714 1_555
O2 Zr1 2.048145 1_455
O2 Zr7 2.183409 1_555
O2 Zr1 2.203480 1_555
O3 Zr2 2.089225 1_555
O3 Zr1 2.157564 1_455
O3 Zr6 2.214246 1_555
O4 Zr0 2.089225 1_555
O4 Zr4 2.157564 1_556
O4 Zr3 2.214246 1_555
O5 Zr1 1.993543 1_555
O6 Zr2 2.078326 1_555
O6 Zr2 2.140878 1_655
O6 Zr3 2.344783 1_555
O6 Zr0 2.456714 1_555
O7 Zr2 1.953681 1_555
O8 Zr4 1.993543 1_555
O9 Zr3 2.048145 1_555
O9 Zr2 2.183409 1_555
O9 Zr3 2.203480 1_455
O10 Zr4 2.048145 1_555
O10 Zr5 2.183409 1_555
O10 Zr4 2.203480 1_655
O11 Zr3 1.993543 1_555
O12 Zr5 1.953681 1_555
O13 Zr5 2.078326 1_555
O13 Zr5 2.140878 1_455
O13 Zr4 2.344783 1_555
O13 Zr7 2.456714 1_555
O14 Zr6 1.993543 1_555
O15 Zr7 2.089225 1_555
O15 Zr3 2.157564 1_554
O15 Zr4 2.214246 1_555
O16 Zr5 2.089225 1_555
O16 Zr6 2.157564 1_655
O16 Zr1 2.214246 1_555
O17 Zr6 2.048145 1_655
O17 Zr0 2.183409 1_555
O17 Zr6 2.203480 1_555
O18 Zr7 2.078326 1_655
O18 Zr7 2.140878 1_555
O18 Zr1 2.344783 1_555
O18 Zr5 2.456714 1_555
O19 Zr7 1.953681 1_555
