# generated using pymatgen
data_Co6O7F5
_symmetry_space_group_name_H-M   'P 1'
_cell_length_a   4.55986400
_cell_length_b   5.45947013
_cell_length_c   7.56235316
_cell_angle_alpha   86.65060144
_cell_angle_beta   87.13554578
_cell_angle_gamma   86.31034003
_symmetry_Int_Tables_number   1
_chemical_formula_structural   Co6O7F5
_chemical_formula_sum   'Co6 O7 F5'
_cell_volume   187.34751777
_cell_formula_units_Z   1
loop_
 _symmetry_equiv_pos_site_id
 _symmetry_equiv_pos_as_xyz
  1  'x, y, z'
loop_
 _atom_site_type_symbol
 _atom_site_label
 _atom_site_symmetry_multiplicity
 _atom_site_fract_x
 _atom_site_fract_y
 _atom_site_fract_z
 _atom_site_occupancy
  Co  Co0  1  0.53122400  0.50717500  0.01333300  1
  Co  Co1  1  0.48909300  0.16659000  0.33590200  1
  Co  Co2  1  0.54203600  0.84873300  0.66332300  1
  Co  Co3  1  0.99816400  0.32403500  0.66846300  1
  Co  Co4  1  0.99101700  0.66456300  0.32392900  1
  Co  Co5  1  0.95845600  0.00156500  0.99723000  1
  O  O0  1  0.81184100  0.04087900  0.76691000  1
  O  O1  1  0.80264100  0.70148800  0.10194200  1
  O  O2  1  0.70006400  0.53219000  0.77247400  1
  O  O3  1  0.68595000  0.20047300  0.10941100  1
  O  O4  1  0.69497400  0.87168400  0.42573900  1
  O  O5  1  0.30480800  0.12562100  0.56522100  1
  O  O6  1  0.30547700  0.46443000  0.23224900  1
  F  F0  1  0.80125000  0.36616800  0.43361900  1
  F  F1  1  0.30031500  0.79727300  0.89804200  1
  F  F2  1  0.19358900  0.96684300  0.21971600  1
  F  F3  1  0.20216000  0.29764300  0.90880400  1
  F  F4  1  0.18693900  0.62264600  0.56369100  1
loop_
_geom_bond_atom_site_label_1
_geom_bond_atom_site_label_2
_geom_bond_distance
_geom_bond_site_symmetry_2
Co0 O1 1.855011 1_555
Co0 O3 1.893787 1_555
Co0 O6 1.915795 1_555
Co0 O2 1.942526 1_554
Co0 F1 2.023098 1_554
Co0 F3 2.151753 1_554
Co1 O5 1.896521 1_555
Co1 O3 1.898516 1_555
Co1 O4 1.917415 1_545
Co1 O6 1.923777 1_555
Co1 F0 2.039156 1_555
Co1 F2 2.048483 1_545
Co2 O0 1.893703 1_565
Co2 O4 1.894691 1_555
Co2 O5 1.935033 1_565
Co2 O2 1.979800 1_555
Co2 F1 2.056836 1_555
Co2 F4 2.280536 1_555
Co3 O5 1.879591 1_655
Co3 O2 1.885892 1_555
Co3 O0 1.907142 1_555
Co3 F4 1.996994 1_655
Co3 F0 2.024421 1_555
Co3 F3 2.076201 1_655
Co4 O4 1.869516 1_555
Co4 O6 1.875653 1_655
Co4 O1 1.918056 1_555
Co4 F0 2.010607 1_555
Co4 F2 2.041870 1_655
Co4 F4 2.055520 1_655
Co5 O3 1.808757 1_556
Co5 O0 1.892348 1_555
Co5 O1 1.938492 1_546
Co5 F1 1.998417 1_645
Co5 F2 2.033035 1_646
Co5 F3 2.079788 1_655
