# generated using pymatgen
data_Mn2O3F
_symmetry_space_group_name_H-M   'P 1'
_cell_length_a   4.56489150
_cell_length_b   4.56489150
_cell_length_c   6.01830000
_cell_angle_alpha   90.00000000
_cell_angle_beta   90.00000000
_cell_angle_gamma   92.18864598
_symmetry_Int_Tables_number   1
_chemical_formula_structural   Mn2O3F
_chemical_formula_sum   'Mn4 O6 F2'
_cell_volume   125.31925929
_cell_formula_units_Z   2
loop_
 _symmetry_equiv_pos_site_id
 _symmetry_equiv_pos_as_xyz
  1  'x, y, z'
loop_
 _atom_site_type_symbol
 _atom_site_label
 _atom_site_symmetry_multiplicity
 _atom_site_fract_x
 _atom_site_fract_y
 _atom_site_fract_z
 _atom_site_occupancy
  Mn  Mn0  1  0.00000000  0.00000000  0.00000000  1
  Mn  Mn1  1  0.00000000  0.00000000  0.50000000  1
  Mn  Mn2  1  0.52437800  0.47562200  0.25000000  1
  Mn  Mn3  1  0.47562200  0.52437800  0.75000000  1
  O  O0  1  0.18714500  0.81285500  0.75000000  1
  O  O1  1  0.30802400  0.30802400  0.00000000  1
  O  O2  1  0.30802400  0.30802400  0.50000000  1
  O  O3  1  0.69197600  0.69197600  0.00000000  1
  O  O4  1  0.69197600  0.69197600  0.50000000  1
  O  O5  1  0.81285500  0.18714500  0.25000000  1
  F  F0  1  0.22029100  0.77970900  0.25000000  1
  F  F1  1  0.77970900  0.22029100  0.75000000  1
loop_
_geom_bond_atom_site_label_1
_geom_bond_atom_site_label_2
_geom_bond_distance
_geom_bond_site_symmetry_2
Mn0 O0 1.944000 1_544
Mn0 O5 1.944000 1_455
Mn0 O1 1.950180 1_555
Mn0 O3 1.950180 1_445
Mn1 O0 1.944000 1_545
Mn1 O5 1.944000 1_455
Mn1 O2 1.950180 1_555
Mn1 O4 1.950180 1_445
Mn2 O5 1.897558 1_555
Mn2 O4 1.940819 1_555
Mn2 O3 1.940819 1_555
Mn2 O2 1.940819 1_555
Mn2 O1 1.940819 1_555
Mn3 O0 1.897558 1_555
Mn3 O3 1.940819 1_556
Mn3 O4 1.940819 1_555
Mn3 O2 1.940819 1_555
Mn3 O1 1.940819 1_556
F0 Mn2 2.000238 1_555
F0 Mn0 2.088891 1_565
F0 Mn1 2.088891 1_565
F1 Mn3 2.000238 1_555
F1 Mn1 2.088891 1_655
F1 Mn0 2.088891 1_656
