# generated using pymatgen
data_Li3Mn(PO4)2
_symmetry_space_group_name_H-M   'P 1'
_cell_length_a   9.90254000
_cell_length_b   8.66785800
_cell_length_c   16.39237727
_cell_angle_alpha   64.04134755
_cell_angle_beta   90.00000000
_cell_angle_gamma   90.00000000
_symmetry_Int_Tables_number   1
_chemical_formula_structural   Li3Mn(PO4)2
_chemical_formula_sum   'Li24 Mn8 P16 O64'
_cell_volume   1265.06616612
_cell_formula_units_Z   8
loop_
 _symmetry_equiv_pos_site_id
 _symmetry_equiv_pos_as_xyz
  1  'x, y, z'
loop_
 _atom_site_type_symbol
 _atom_site_label
 _atom_site_symmetry_multiplicity
 _atom_site_fract_x
 _atom_site_fract_y
 _atom_site_fract_z
 _atom_site_occupancy
  Li  Li0  1  0.40040700  0.98080200  0.44668400  1
  Li  Li1  1  0.90401800  0.60545300  0.80241400  1
  Li  Li2  1  0.62258100  0.59203300  0.72473100  1
  Li  Li3  1  0.07808200  0.28136200  0.00924500  1
  Li  Li4  1  0.11499500  0.03960100  0.24465800  1
  Li  Li5  1  0.58855600  0.25252300  0.00079500  1
  Li  Li6  1  0.08855600  0.74747700  0.49920500  1
  Li  Li7  1  0.61499500  0.96039900  0.25534200  1
  Li  Li8  1  0.57808200  0.71863800  0.49075500  1
  Li  Li9  1  0.12258100  0.40796700  0.77526900  1
  Li  Li10  1  0.40401800  0.39454700  0.69758600  1
  Li  Li11  1  0.90040700  0.01919800  0.05331600  1
  Li  Li12  1  0.09959300  0.98080200  0.94668400  1
  Li  Li13  1  0.59598200  0.60545300  0.30241400  1
  Li  Li14  1  0.87741900  0.59203300  0.22473100  1
  Li  Li15  1  0.42191800  0.28136200  0.50924500  1
  Li  Li16  1  0.38500500  0.03960100  0.74465800  1
  Li  Li17  1  0.91144400  0.25252300  0.50079500  1
  Li  Li18  1  0.41144400  0.74747700  0.99920500  1
  Li  Li19  1  0.88500500  0.96039900  0.75534200  1
  Li  Li20  1  0.92191800  0.71863800  0.99075500  1
  Li  Li21  1  0.37741900  0.40796700  0.27526900  1
  Li  Li22  1  0.09598200  0.39454700  0.19758600  1
  Li  Li23  1  0.59959300  0.01919800  0.55331600  1
  Mn  Mn0  1  0.85796500  0.02176700  0.38773900  1
  Mn  Mn1  1  0.37907600  0.55285100  0.86409400  1
  Mn  Mn2  1  0.87907600  0.44714900  0.63590600  1
  Mn  Mn3  1  0.35796500  0.97823300  0.11226100  1
  Mn  Mn4  1  0.64203500  0.02176700  0.88773900  1
  Mn  Mn5  1  0.12092400  0.55285100  0.36409400  1
  Mn  Mn6  1  0.62092400  0.44714900  0.13590600  1
  Mn  Mn7  1  0.14203500  0.97823300  0.61226100  1
  P  P0  1  0.86254700  0.25881700  0.15783300  1
  P  P1  1  0.35925300  0.78364600  0.64146000  1
  P  P2  1  0.84533900  0.82764500  0.60011300  1
  P  P3  1  0.33053300  0.36106200  0.08918500  1
  P  P4  1  0.83053300  0.63893800  0.41081500  1
  P  P5  1  0.34533900  0.17235500  0.89988700  1
  P  P6  1  0.85925300  0.21635400  0.85854000  1
  P  P7  1  0.36254700  0.74118300  0.34216700  1
  P  P8  1  0.63745300  0.25881700  0.65783300  1
  P  P9  1  0.14074700  0.78364600  0.14146000  1
  P  P10  1  0.65466100  0.82764500  0.10011300  1
  P  P11  1  0.16946700  0.36106200  0.58918500  1
  P  P12  1  0.66946700  0.63893800  0.91081500  1
  P  P13  1  0.15466100  0.17235500  0.39988700  1
  P  P14  1  0.64074700  0.21635400  0.35854000  1
  P  P15  1  0.13745300  0.74118300  0.84216700  1
  O  O0  1  0.05772400  0.01990800  0.41793100  1
  O  O1  1  0.59591000  0.58546900  0.84477100  1
  O  O2  1  0.77378400  0.76585500  0.69219400  1
  O  O3  1  0.18061400  0.32111300  0.11085800  1
  O  O4  1  0.35078100  0.51165900  0.99183200  1
  O  O5  1  0.93173100  0.13635700  0.24843500  1
  O  O6  1  0.74363500  0.88716000  0.52070300  1
  O  O7  1  0.65907600  0.05512700  0.34086700  1
  O  O8  1  0.11449000  0.55254300  0.85569600  1
  O  O9  1  0.39127400  0.61058700  0.72672300  1
  O  O10  1  0.91155100  0.21795500  0.08127100  1
  O  O11  1  0.70328700  0.22872200  0.16561100  1
  O  O12  1  0.47283600  0.81637700  0.57289800  1
  O  O13  1  0.21338400  0.77070400  0.60608000  1
  O  O14  1  0.93595200  0.68040200  0.59961300  1
  O  O15  1  0.41022200  0.20172100  0.09456100  1
  O  O16  1  0.91022200  0.79827900  0.40543900  1
  O  O17  1  0.43595200  0.31959800  0.90038700  1
  O  O18  1  0.71338400  0.22929600  0.89392000  1
  O  O19  1  0.20328700  0.77127800  0.33438900  1
  O  O20  1  0.97283600  0.18362300  0.92710200  1
  O  O21  1  0.41155100  0.78204500  0.41872900  1
  O  O22  1  0.89127400  0.38941300  0.77327700  1
  O  O23  1  0.61449000  0.44745700  0.64430400  1
  O  O24  1  0.15907600  0.94487300  0.15913300  1
  O  O25  1  0.24363500  0.11284000  0.97929700  1
  O  O26  1  0.43173100  0.86364300  0.25156500  1
  O  O27  1  0.68061400  0.67888700  0.38914200  1
  O  O28  1  0.85078100  0.48834100  0.50816800  1
  O  O29  1  0.27378400  0.23414500  0.80780600  1
  O  O30  1  0.55772400  0.98009200  0.08206900  1
  O  O31  1  0.09591000  0.41453100  0.65522900  1
  O  O32  1  0.90409000  0.58546900  0.34477100  1
  O  O33  1  0.44227600  0.01990800  0.91793100  1
  O  O34  1  0.72621600  0.76585500  0.19219400  1
  O  O35  1  0.14921900  0.51165900  0.49183200  1
  O  O36  1  0.31938600  0.32111300  0.61085800  1
  O  O37  1  0.56826900  0.13635700  0.74843500  1
  O  O38  1  0.75636500  0.88716000  0.02070300  1
  O  O39  1  0.84092400  0.05512700  0.84086700  1
  O  O40  1  0.38551000  0.55254300  0.35569600  1
  O  O41  1  0.10872600  0.61058700  0.22672300  1
  O  O42  1  0.58844900  0.21795500  0.58127100  1
  O  O43  1  0.02716400  0.81637700  0.07289800  1
  O  O44  1  0.79671300  0.22872200  0.66561100  1
  O  O45  1  0.28661600  0.77070400  0.10608000  1
  O  O46  1  0.56404800  0.68040200  0.09961300  1
  O  O47  1  0.08977800  0.20172100  0.59456100  1
  O  O48  1  0.58977800  0.79827900  0.90543900  1
  O  O49  1  0.06404800  0.31959800  0.40038700  1
  O  O50  1  0.78661600  0.22929600  0.39392000  1
  O  O51  1  0.52716400  0.18362300  0.42710200  1
  O  O52  1  0.29671300  0.77127800  0.83438900  1
  O  O53  1  0.08844900  0.78204500  0.91872900  1
  O  O54  1  0.60872600  0.38941300  0.27327700  1
  O  O55  1  0.88551000  0.44745700  0.14430400  1
  O  O56  1  0.34092400  0.94487300  0.65913300  1
  O  O57  1  0.25636500  0.11284000  0.47929700  1
  O  O58  1  0.06826900  0.86364300  0.75156500  1
  O  O59  1  0.64921900  0.48834100  0.00816800  1
  O  O60  1  0.81938600  0.67888700  0.88914200  1
  O  O61  1  0.22621600  0.23414500  0.30780600  1
  O  O62  1  0.40409000  0.41453100  0.15522900  1
  O  O63  1  0.94227600  0.98009200  0.58206900  1
loop_
_geom_bond_atom_site_label_1
_geom_bond_atom_site_label_2
_geom_bond_distance
_geom_bond_site_symmetry_2
Li0 O21 1.970111 1_555
Li0 O57 2.041043 1_565
Li0 O12 2.060286 1_555
Li0 O51 2.067661 1_565
Li1 O60 1.980124 1_555
Li1 O22 2.129248 1_555
Li1 O2 2.159053 1_555
Li1 O8 2.228551 1_655
Li2 O1 1.961373 1_555
Li2 O2 2.023091 1_555
Li2 O23 2.182055 1_555
Li2 O9 2.297399 1_555
Li3 O10 1.961491 1_455
Li3 O3 2.103932 1_555
Li3 O20 2.148417 1_454
Li3 O25 2.385396 1_554
Li3 O8 2.609799 1_554
Li4 O24 1.959074 1_545
Li4 O5 2.011486 1_455
Li4 O19 2.311355 1_545
Li4 O3 2.549831 1_555
Li4 O61 2.579964 1_555
Li5 O17 2.119664 1_554
Li5 O30 2.165682 1_545
Li5 O59 2.183994 1_555
Li5 O18 2.224089 1_554
Li5 O15 2.254441 1_555
Li6 O14 2.119664 1_455
Li6 O0 2.165682 1_565
Li6 O35 2.183994 1_555
Li6 O13 2.224089 1_555
Li6 O16 2.254441 1_455
Li7 O7 1.959074 1_565
Li7 O26 2.011486 1_555
Li7 O11 2.311355 1_565
Li7 O27 2.549831 1_555
Li7 O34 2.579964 1_555
Li8 O21 1.961491 1_555
Li8 O27 2.103932 1_555
Li8 O12 2.148417 1_555
Li8 O6 2.385396 1_555
Li8 O23 2.609799 1_555
Li9 O31 1.961373 1_555
Li9 O29 2.023091 1_555
Li9 O8 2.182055 1_555
Li9 O22 2.297399 1_455
Li10 O36 1.980124 1_555
Li10 O9 2.129248 1_555
Li10 O29 2.159053 1_555
Li10 O23 2.228551 1_555
Li11 O10 1.970111 1_555
Li11 O38 2.041043 1_545
Li11 O20 2.060286 1_554
Li11 O43 2.067661 1_645
Li12 O53 1.970111 1_555
Li12 O25 2.041043 1_565
Li12 O43 2.060286 1_556
Li12 O20 2.067661 1_465
Li13 O27 1.980124 1_555
Li13 O54 2.129248 1_555
Li13 O34 2.159053 1_555
Li13 O40 2.228551 1_555
Li14 O32 1.961373 1_555
Li14 O34 2.023091 1_555
Li14 O55 2.182055 1_555
Li14 O41 2.297399 1_655
Li15 O42 1.961491 1_555
Li15 O36 2.103932 1_555
Li15 O51 2.148417 1_555
Li15 O57 2.385396 1_555
Li15 O40 2.609799 1_555
Li16 O56 1.959074 1_545
Li16 O37 2.011486 1_555
Li16 O52 2.311355 1_545
Li16 O36 2.549831 1_555
Li16 O29 2.579964 1_555
Li17 O49 2.119664 1_655
Li17 O63 2.165682 1_545
Li17 O28 2.183994 1_555
Li17 O50 2.224089 1_555
Li17 O47 2.254441 1_655
Li18 O46 2.119664 1_556
Li18 O33 2.165682 1_565
Li18 O4 2.183994 1_555
Li18 O45 2.224089 1_556
Li18 O48 2.254441 1_555
Li19 O39 1.959074 1_565
Li19 O58 2.011486 1_655
Li19 O44 2.311355 1_565
Li19 O60 2.549831 1_555
Li19 O2 2.579964 1_555
Li20 O53 1.961491 1_655
Li20 O60 2.103932 1_555
Li20 O43 2.148417 1_656
Li20 O38 2.385396 1_556
Li20 O55 2.609799 1_556
Li21 O62 1.961373 1_555
Li21 O61 2.023091 1_555
Li21 O40 2.182055 1_555
Li21 O54 2.297399 1_555
Li22 O3 1.980124 1_555
Li22 O41 2.129248 1_555
Li22 O61 2.159053 1_555
Li22 O55 2.228551 1_455
Li23 O42 1.970111 1_555
Li23 O6 2.041043 1_545
Li23 O51 2.060286 1_555
Li23 O12 2.067661 1_545
Mn0 O16 1.900661 1_545
Mn0 O50 1.976060 1_555
Mn0 O0 2.037446 1_655
Mn0 O7 2.087683 1_555
Mn0 O5 2.179222 1_555
Mn0 O6 2.273199 1_545
Mn1 O52 1.918279 1_555
Mn1 O17 1.925054 1_555
Mn1 O4 1.983941 1_555
Mn1 O9 2.085485 1_555
Mn1 O1 2.170798 1_555
Mn1 O8 2.623750 1_555
Mn2 O44 1.918279 1_555
Mn2 O14 1.925054 1_555
Mn2 O28 1.983941 1_555
Mn2 O22 2.085485 1_555
Mn2 O31 2.170798 1_655
Mn2 O23 2.623750 1_555
Mn3 O15 1.900661 1_565
Mn3 O45 1.976060 1_555
Mn3 O30 2.037446 1_555
Mn3 O24 2.087683 1_555
Mn3 O26 2.179222 1_555
Mn3 O25 2.273199 1_564
Mn4 O48 1.900661 1_545
Mn4 O18 1.976060 1_555
Mn4 O33 2.037446 1_555
Mn4 O39 2.087683 1_555
Mn4 O37 2.179222 1_555
Mn4 O38 2.273199 1_546
Mn5 O19 1.918279 1_555
Mn5 O49 1.925054 1_555
Mn5 O35 1.983941 1_555
Mn5 O41 2.085485 1_555
Mn5 O32 2.170798 1_455
Mn5 O40 2.623750 1_555
Mn6 O11 1.918279 1_555
Mn6 O46 1.925054 1_555
Mn6 O59 1.983941 1_555
Mn6 O54 2.085485 1_555
Mn6 O62 2.170798 1_555
Mn6 O55 2.623750 1_555
Mn7 O47 1.900661 1_565
Mn7 O13 1.976060 1_555
Mn7 O63 2.037446 1_455
Mn7 O56 2.087683 1_555
Mn7 O58 2.179222 1_555
Mn7 O57 2.273199 1_565
O0 P13 1.553333 1_555
O1 P12 1.535149 1_555
O2 P2 1.536088 1_555
O3 P3 1.530490 1_555
O4 P3 1.570732 1_556
O5 P0 1.556188 1_555
O6 P2 1.545000 1_555
O7 P14 1.557012 1_555
O8 P15 1.567483 1_555
O9 P1 1.571220 1_555
O10 P0 1.524856 1_555
O11 P0 1.594479 1_555
O12 P1 1.526293 1_555
O13 P1 1.578734 1_555
O14 P2 1.563094 1_555
O15 P3 1.559324 1_555
O16 P4 1.559324 1_555
O17 P5 1.563094 1_555
O18 P6 1.578734 1_555
O19 P7 1.594479 1_555
O20 P6 1.526293 1_555
O21 P7 1.524856 1_555
O22 P6 1.571220 1_555
O23 P8 1.567483 1_555
O24 P9 1.557012 1_555
O25 P5 1.545000 1_555
O26 P7 1.556188 1_555
O27 P4 1.530490 1_555
O28 P4 1.570732 1_555
O29 P5 1.536088 1_555
O30 P10 1.553333 1_555
O31 P11 1.535149 1_555
O32 P4 1.535149 1_555
O33 P5 1.553333 1_555
O34 P10 1.536088 1_555
O35 P11 1.570732 1_555
O36 P11 1.530490 1_555
O37 P8 1.556188 1_555
O38 P10 1.545000 1_555
O39 P6 1.557012 1_555
O40 P7 1.567483 1_555
O41 P9 1.571220 1_555
O42 P8 1.524856 1_555
O43 P9 1.526293 1_555
O44 P8 1.594479 1_555
O45 P9 1.578734 1_555
O46 P10 1.563094 1_555
O47 P11 1.559324 1_555
O48 P12 1.559324 1_555
O49 P13 1.563094 1_555
O50 P14 1.578734 1_555
O51 P14 1.526293 1_555
O52 P15 1.594479 1_555
O53 P15 1.524856 1_555
O54 P14 1.571220 1_555
O55 P0 1.567483 1_555
O56 P1 1.557012 1_555
O57 P13 1.545000 1_555
O58 P15 1.556188 1_555
O59 P12 1.570732 1_554
O60 P12 1.530490 1_555
O61 P13 1.536088 1_555
O62 P3 1.535149 1_555
O63 P2 1.553333 1_555
