# generated using pymatgen
data_KOsF6
_symmetry_space_group_name_H-M   'P 1'
_cell_length_a   4.91940351
_cell_length_b   4.91940847
_cell_length_c   4.91942015
_cell_angle_alpha   97.58854414
_cell_angle_beta   97.58855450
_cell_angle_gamma   97.58839204
_symmetry_Int_Tables_number   1
_chemical_formula_structural   KOsF6
_chemical_formula_sum   'K1 Os1 F6'
_cell_volume   115.61461348
_cell_formula_units_Z   1
loop_
 _symmetry_equiv_pos_site_id
 _symmetry_equiv_pos_as_xyz
  1  'x, y, z'
loop_
 _atom_site_type_symbol
 _atom_site_label
 _atom_site_symmetry_multiplicity
 _atom_site_fract_x
 _atom_site_fract_y
 _atom_site_fract_z
 _atom_site_occupancy
  K  K0  1  0.50000000  0.50000000  0.50000000  1
  Os  Os0  1  0.00000000  0.00000000  0.00000100  1
  F  F0  1  0.92621529  0.32514447  0.21498875  1
  F  F1  1  0.32514447  0.21498975  0.92621529  1
  F  F2  1  0.78501125  0.07378371  0.67485453  1
  F  F3  1  0.67485553  0.78501025  0.07378471  1
  F  F4  1  0.07378471  0.67485553  0.78501125  1
  F  F5  1  0.21498875  0.92621629  0.32514547  1
loop_
_geom_bond_atom_site_label_1
_geom_bond_atom_site_label_2
_geom_bond_distance
_geom_bond_site_symmetry_2
F0 Os0 1.901761 1_655
F0 K0 2.834834 1_555
F0 K0 2.944181 1_655
F1 Os0 1.901768 1_556
F1 K0 2.834838 1_555
F1 K0 2.944185 1_556
F2 Os0 1.901770 1_656
F2 K0 2.834835 1_555
F2 K0 2.944179 1_545
F3 Os0 1.901765 1_665
F3 K0 2.834838 1_555
F3 K0 2.944185 1_554
F4 Os0 1.901765 1_566
F4 K0 2.834834 1_555
F4 K0 2.944181 1_455
F5 Os0 1.901763 1_565
F5 K0 2.834835 1_555
F5 K0 2.944179 1_565
