# generated using pymatgen
data_Na3MgPCO7
_symmetry_space_group_name_H-M   'P 1'
_cell_length_a   6.58353652
_cell_length_b   5.10957665
_cell_length_c   8.79323529
_cell_angle_alpha   89.70659214
_cell_angle_beta   90.00000000
_cell_angle_gamma   90.00000000
_symmetry_Int_Tables_number   1
_chemical_formula_structural   Na3MgPCO7
_chemical_formula_sum   'Na6 Mg2 P2 C2 O14'
_cell_volume   295.79250603
_cell_formula_units_Z   2
loop_
 _symmetry_equiv_pos_site_id
 _symmetry_equiv_pos_as_xyz
  1  'x, y, z'
loop_
 _atom_site_type_symbol
 _atom_site_label
 _atom_site_symmetry_multiplicity
 _atom_site_fract_x
 _atom_site_fract_y
 _atom_site_fract_z
 _atom_site_occupancy
  Na  Na0  1  0.49576167  0.25039639  0.26487604  1
  Na  Na1  1  0.99576167  0.74960361  0.73512396  1
  Na  Na2  1  0.50423833  0.74960361  0.73512396  1
  Na  Na3  1  0.00423833  0.25039639  0.26487604  1
  Na  Na4  1  0.75000000  0.23850960  0.91782698  1
  Na  Na5  1  0.25000000  0.76149040  0.08217302  1
  Mg  Mg0  1  0.25000000  0.21648284  0.64648801  1
  Mg  Mg1  1  0.75000000  0.78351716  0.35351199  1
  P  P0  1  0.75000000  0.29437469  0.58548661  1
  P  P1  1  0.25000000  0.70562531  0.41451339  1
  C  C0  1  0.25000000  0.26874527  0.93652554  1
  C  C1  1  0.75000000  0.73125473  0.06347446  1
  O  O0  1  0.25000000  0.04069233  0.87315773  1
  O  O1  1  0.75000000  0.95930767  0.12684227  1
  O  O2  1  0.25000000  0.47450122  0.84985890  1
  O  O3  1  0.75000000  0.52549878  0.15014110  1
  O  O4  1  0.25000000  0.29026891  0.08235663  1
  O  O5  1  0.75000000  0.70973109  0.91764337  1
  O  O6  1  0.93791932  0.22285663  0.68133657  1
  O  O7  1  0.43791932  0.77714337  0.31866343  1
  O  O8  1  0.06208068  0.77714337  0.31866343  1
  O  O9  1  0.56208068  0.22285663  0.68133657  1
  O  O10  1  0.75000000  0.15139705  0.43299918  1
  O  O11  1  0.25000000  0.84860295  0.56700082  1
  O  O12  1  0.25000000  0.40771629  0.44581559  1
  O  O13  1  0.75000000  0.59228371  0.55418441  1
loop_
_geom_bond_atom_site_label_1
_geom_bond_atom_site_label_2
_geom_bond_distance
_geom_bond_site_symmetry_2
Na0 O4 2.287322 1_555
Na0 O10 2.288076 1_555
Na0 O3 2.404324 1_555
Na0 O12 2.410091 1_555
Na0 O7 2.490846 1_545
Na0 O1 2.550579 1_545
Na0 O7 2.761462 1_555
Na1 O5 2.287322 1_555
Na1 O11 2.288076 1_655
Na1 O2 2.404324 1_655
Na1 O13 2.410091 1_555
Na1 O6 2.490846 1_565
Na1 O0 2.550579 1_665
Na1 O6 2.761462 1_555
Na2 O5 2.287322 1_555
Na2 O11 2.288076 1_555
Na2 O2 2.404324 1_555
Na2 O13 2.410091 1_555
Na2 O9 2.490846 1_565
Na2 O0 2.550579 1_565
Na2 O9 2.761462 1_555
Na3 O4 2.287322 1_555
Na3 O10 2.288076 1_455
Na3 O3 2.404324 1_455
Na3 O12 2.410091 1_555
Na3 O8 2.490846 1_545
Na3 O1 2.550579 1_445
Na3 O8 2.761462 1_555
Na4 O1 2.320840 1_546
Na4 O5 2.407735 1_555
Na4 O9 2.421381 1_555
Na4 O6 2.421381 1_555
Na4 O3 2.520712 1_556
Na4 O5 2.701843 1_545
Na5 O0 2.320840 1_564
Na5 O4 2.407735 1_555
Na5 O8 2.421381 1_555
Na5 O7 2.421381 1_555
Na5 O2 2.520712 1_554
Na5 O4 2.701843 1_565
Mg0 O11 2.008805 1_545
Mg0 O12 2.012655 1_555
Mg0 O6 2.077600 1_455
Mg0 O9 2.077600 1_555
Mg0 O0 2.182004 1_555
Mg0 O2 2.227152 1_555
Mg1 O10 2.008805 1_565
Mg1 O13 2.012655 1_555
Mg1 O7 2.077600 1_555
Mg1 O8 2.077600 1_655
Mg1 O1 2.182004 1_555
Mg1 O3 2.227152 1_555
C0 O4 1.287595 1_556
C0 O0 1.294198 1_555
C0 O2 1.295317 1_555
C1 O5 1.287595 1_554
C1 O1 1.294198 1_555
C1 O3 1.295317 1_555
O6 P0 1.539917 1_555
O7 P1 1.539917 1_555
O8 P1 1.539917 1_555
O9 P0 1.539917 1_555
O10 P0 1.530243 1_555
O11 P1 1.530243 1_555
O12 P1 1.545487 1_555
O13 P0 1.545487 1_555
