# generated using pymatgen
data_Sr3Ir2O7
_symmetry_space_group_name_H-M   'P 1'
_cell_length_a   10.85892514
_cell_length_b   10.85892514
_cell_length_c   5.53144856
_cell_angle_alpha   90.00000000
_cell_angle_beta   90.00000000
_cell_angle_gamma   150.48379174
_symmetry_Int_Tables_number   1
_chemical_formula_structural   Sr3Ir2O7
_chemical_formula_sum   'Sr6 Ir4 O14'
_cell_volume   321.34271322
_cell_formula_units_Z   2
loop_
 _symmetry_equiv_pos_site_id
 _symmetry_equiv_pos_as_xyz
  1  'x, y, z'
loop_
 _atom_site_type_symbol
 _atom_site_label
 _atom_site_symmetry_multiplicity
 _atom_site_fract_x
 _atom_site_fract_y
 _atom_site_fract_z
 _atom_site_occupancy
  Sr  Sr0  1  0.50000000  0.50000000  -0.00000000  1
  Sr  Sr1  1  0.31268445  0.68731555  -0.00000000  1
  Sr  Sr2  1  0.68731555  0.31268445  -0.00000000  1
  Sr  Sr3  1  0.18731555  0.81268445  0.50000000  1
  Sr  Sr4  1  0.81268445  0.18731555  0.50000000  1
  Sr  Sr5  1  0.00000000  0.00000000  0.50000000  1
  Ir  Ir0  1  0.09734955  0.90265045  -0.00000000  1
  Ir  Ir1  1  0.90265045  0.09734955  -0.00000000  1
  Ir  Ir2  1  0.40265045  0.59734955  0.50000000  1
  Ir  Ir3  1  0.59734955  0.40265045  0.50000000  1
  O  O0  1  0.19413446  0.80586554  -0.00000000  1
  O  O1  1  0.09349136  0.28637974  0.68990927  1
  O  O2  1  0.59349136  0.78637974  0.81009073  1
  O  O3  1  0.00000000  0.00000000  -0.00000000  1
  O  O4  1  0.80586554  0.19413446  -0.00000000  1
  O  O5  1  0.40650864  0.21362026  0.81009073  1
  O  O6  1  0.30586554  0.69413446  0.50000000  1
  O  O7  1  0.50000000  0.50000000  0.50000000  1
  O  O8  1  0.21362026  0.40650864  0.18990927  1
  O  O9  1  0.28637974  0.09349136  0.31009073  1
  O  O10  1  0.69413446  0.30586554  0.50000000  1
  O  O11  1  0.71362026  0.90650864  0.31009073  1
  O  O12  1  0.90650864  0.71362026  0.68990927  1
  O  O13  1  0.78637974  0.59349136  0.18990927  1
loop_
_geom_bond_atom_site_label_1
_geom_bond_atom_site_label_2
_geom_bond_distance
_geom_bond_site_symmetry_2
Ir0 O5 2.011574 1_564
Ir0 O13 2.011574 1_455
Ir0 O12 2.011621 1_454
Ir0 O9 2.011621 1_565
Ir0 O0 2.032616 1_555
Ir0 O3 2.044475 1_565
Ir1 O8 2.011574 1_655
Ir1 O2 2.011574 1_544
Ir1 O11 2.011621 1_545
Ir1 O1 2.011621 1_654
Ir1 O4 2.032616 1_555
Ir1 O3 2.044475 1_655
Ir2 O1 2.011574 1_555
Ir2 O11 2.011574 1_555
Ir2 O8 2.011621 1_555
Ir2 O2 2.011621 1_555
Ir2 O6 2.032616 1_555
Ir2 O7 2.044475 1_555
Ir3 O12 2.011574 1_555
Ir3 O9 2.011574 1_555
Ir3 O13 2.011621 1_555
Ir3 O5 2.011621 1_555
Ir3 O10 2.032616 1_555
Ir3 O7 2.044475 1_555
O0 Sr1 2.489713 1_555
O0 Sr3 2.769429 1_554
O0 Sr3 2.769429 1_555
O0 Sr2 2.769893 1_565
O0 Sr2 2.769893 1_455
O1 Sr4 2.418625 1_455
O1 Sr5 2.512002 1_555
O2 Sr1 2.418625 1_556
O2 Sr0 2.512002 1_556
O3 Sr5 2.765724 1_555
O3 Sr5 2.765724 1_554
O3 Sr0 2.766189 1_555
O3 Sr0 2.766189 1_445
O4 Sr2 2.489713 1_555
O4 Sr4 2.769429 1_555
O4 Sr4 2.769429 1_554
O4 Sr1 2.769893 1_655
O4 Sr1 2.769893 1_545
O5 Sr2 2.418625 1_556
O5 Sr0 2.512002 1_556
O6 Sr3 2.489713 1_555
O6 Sr1 2.769429 1_555
O6 Sr1 2.769429 1_556
O6 Sr4 2.769893 1_455
O6 Sr4 2.769893 1_565
O7 Sr0 2.765724 1_555
O7 Sr0 2.765724 1_556
O7 Sr5 2.766189 1_665
O7 Sr5 2.766189 1_555
O8 Sr1 2.418625 1_555
O8 Sr0 2.512002 1_555
O9 Sr3 2.418625 1_545
O9 Sr5 2.512002 1_555
O10 Sr4 2.489713 1_555
O10 Sr2 2.769429 1_556
O10 Sr2 2.769429 1_555
O10 Sr3 2.769893 1_655
O10 Sr3 2.769893 1_545
O11 Sr4 2.418625 1_565
O11 Sr5 2.512002 1_665
O12 Sr3 2.418625 1_655
O12 Sr5 2.512002 1_665
O13 Sr2 2.418625 1_555
O13 Sr0 2.512002 1_555
