# generated using pymatgen
data_Ti3CuNi2(PO4)6
_symmetry_space_group_name_H-M   'P 1'
_cell_length_a   8.46612690
_cell_length_b   8.46612690
_cell_length_c   8.46612713
_cell_angle_alpha   61.24030521
_cell_angle_beta   61.24030521
_cell_angle_gamma   61.24030424
_symmetry_Int_Tables_number   1
_chemical_formula_structural   Ti3CuNi2(PO4)6
_chemical_formula_sum   'Ti3 Cu1 Ni2 P6 O24'
_cell_volume   441.04894759
_cell_formula_units_Z   1
loop_
 _symmetry_equiv_pos_site_id
 _symmetry_equiv_pos_as_xyz
  1  'x, y, z'
loop_
 _atom_site_type_symbol
 _atom_site_label
 _atom_site_symmetry_multiplicity
 _atom_site_fract_x
 _atom_site_fract_y
 _atom_site_fract_z
 _atom_site_occupancy
  Ti  Ti0  1  0.14226300  0.14226300  0.14226300  1
  Ti  Ti1  1  0.35500200  0.35500200  0.35500200  1
  Ti  Ti2  1  0.64493900  0.64493900  0.64493900  1
  Cu  Cu0  1  0.85544400  0.85544400  0.85544400  1
  Ni  Ni0  1  0.99716400  0.99716400  0.99716400  1
  Ni  Ni1  1  0.49864300  0.49864300  0.49864300  1
  P  P0  1  0.54557200  0.25041100  0.95305500  1
  P  P1  1  0.95305500  0.54557200  0.25041100  1
  P  P2  1  0.25041100  0.95305500  0.54557200  1
  P  P3  1  0.75224800  0.04775400  0.45537400  1
  P  P4  1  0.04775400  0.45537400  0.75224800  1
  P  P5  1  0.45537400  0.75224800  0.04775400  1
  O  O0  1  0.33053800  0.11106500  0.48630700  1
  O  O1  1  0.48630700  0.33053800  0.11106500  1
  O  O2  1  0.90893700  0.05856800  0.25408100  1
  O  O3  1  0.11106500  0.48630700  0.33053800  1
  O  O4  1  0.81871300  0.01763800  0.60554100  1
  O  O5  1  0.58943700  0.24525800  0.43098000  1
  O  O6  1  0.05856800  0.25408100  0.90893700  1
  O  O7  1  0.24525800  0.43098000  0.58943700  1
  O  O8  1  0.38177400  0.18217700  0.00234200  1
  O  O9  1  0.43098000  0.58943700  0.24525800  1
  O  O10  1  0.73995000  0.09696400  0.94716300  1
  O  O11  1  0.00234200  0.38177400  0.18217700  1
  O  O12  1  0.01763800  0.60554100  0.81871300  1
  O  O13  1  0.25408100  0.90893700  0.05856800  1
  O  O14  1  0.55367900  0.41272700  0.75663700  1
  O  O15  1  0.60554100  0.81871300  0.01763800  1
  O  O16  1  0.75663700  0.55367900  0.41272700  1
  O  O17  1  0.94716300  0.73995000  0.09696400  1
  O  O18  1  0.41272700  0.75663700  0.55367900  1
  O  O19  1  0.18217700  0.00234200  0.38177400  1
  O  O20  1  0.88240200  0.50524600  0.68400800  1
  O  O21  1  0.09696400  0.94716300  0.73995000  1
  O  O22  1  0.50524600  0.68400800  0.88240200  1
  O  O23  1  0.68400800  0.88240200  0.50524600  1
loop_
_geom_bond_atom_site_label_1
_geom_bond_atom_site_label_2
_geom_bond_distance
_geom_bond_site_symmetry_2
Cu0 O12 1.971063 1_655
Cu0 O15 1.971063 1_556
Cu0 O4 1.971063 1_565
Cu0 O10 2.147866 1_565
Cu0 O21 2.147866 1_655
Cu0 O17 2.147866 1_556
Ni0 O10 2.099387 1_565
Ni0 O17 2.099387 1_556
Ni0 O21 2.099387 1_655
Ni0 O13 2.170309 1_656
Ni0 O6 2.170309 1_665
Ni0 O2 2.170309 1_566
Ni1 O18 2.154376 1_555
Ni1 O16 2.154376 1_555
Ni1 O14 2.154376 1_555
Ni1 O5 2.166307 1_555
Ni1 O7 2.166307 1_555
Ni1 O9 2.166307 1_555
O0 P2 1.549609 1_545
O0 Ti1 1.877390 1_555
O1 P0 1.549609 1_554
O1 Ti1 1.877390 1_555
O2 P3 1.569607 1_555
O2 Ti0 2.049945 1_655
O3 P1 1.549609 1_455
O3 Ti1 1.877390 1_555
O4 P3 1.495441 1_555
O5 P3 1.569165 1_555
O5 Ti1 2.023658 1_555
O6 P4 1.569607 1_555
O6 Ti0 2.049945 1_556
O7 P4 1.569165 1_555
O7 Ti1 2.023658 1_555
O8 P0 1.553369 1_554
O8 Ti0 1.895227 1_555
O9 P5 1.569165 1_555
O9 Ti1 2.023658 1_555
O10 P0 1.524607 1_555
O11 P1 1.553369 1_455
O11 Ti0 1.895227 1_555
O12 P4 1.495441 1_555
O13 P5 1.569607 1_555
O13 Ti0 2.049945 1_565
O14 P0 1.562160 1_555
O14 Ti2 2.079832 1_555
O15 P5 1.495441 1_555
O16 P1 1.562160 1_555
O16 Ti2 2.079832 1_555
O17 P1 1.524607 1_555
O18 P2 1.562159 1_555
O18 Ti2 2.079832 1_555
O19 P2 1.553369 1_545
O19 Ti0 1.895227 1_555
O20 P4 1.564125 1_655
O20 Ti2 1.877580 1_555
O21 P2 1.524607 1_555
O22 P5 1.564125 1_556
O22 Ti2 1.877580 1_555
O23 P3 1.564125 1_565
O23 Ti2 1.877580 1_555
