# generated using pymatgen
data_SrH2I2O
_symmetry_space_group_name_H-M   'P 1'
_cell_length_a   4.55612600
_cell_length_b   9.81803100
_cell_length_c   12.68950700
_cell_angle_alpha   90.00000000
_cell_angle_beta   90.00000000
_cell_angle_gamma   90.00000000
_symmetry_Int_Tables_number   1
_chemical_formula_structural   SrH2I2O
_chemical_formula_sum   'Sr4 H8 I8 O4'
_cell_volume   567.62939128
_cell_formula_units_Z   4
loop_
 _symmetry_equiv_pos_site_id
 _symmetry_equiv_pos_as_xyz
  1  'x, y, z'
loop_
 _atom_site_type_symbol
 _atom_site_label
 _atom_site_symmetry_multiplicity
 _atom_site_fract_x
 _atom_site_fract_y
 _atom_site_fract_z
 _atom_site_occupancy
  Sr  Sr0  1  0.25000000  0.37782800  0.69806400  1
  Sr  Sr1  1  0.25000000  0.12217200  0.19806400  1
  Sr  Sr2  1  0.75000000  0.62217200  0.30193600  1
  Sr  Sr3  1  0.75000000  0.87782800  0.80193600  1
  H  H0  1  0.75000000  0.31543900  0.87536500  1
  H  H1  1  0.75000000  0.18456100  0.37536500  1
  H  H2  1  0.25000000  0.68456100  0.12463500  1
  H  H3  1  0.25000000  0.81543900  0.62463500  1
  H  H4  1  0.75000000  0.47037100  0.84938900  1
  H  H5  1  0.75000000  0.02962900  0.34938900  1
  H  H6  1  0.25000000  0.52962900  0.15061100  1
  H  H7  1  0.25000000  0.97037100  0.65061100  1
  I  I0  1  0.75000000  0.61033600  0.60303300  1
  I  I1  1  0.75000000  0.88966400  0.10303300  1
  I  I2  1  0.25000000  0.38966400  0.39696700  1
  I  I3  1  0.25000000  0.11033600  0.89696700  1
  I  I4  1  0.75000000  0.14343000  0.60812400  1
  I  I5  1  0.75000000  0.35657000  0.10812400  1
  I  I6  1  0.25000000  0.85657000  0.39187600  1
  I  I7  1  0.25000000  0.64343000  0.89187600  1
  O  O0  1  0.75000000  0.38005000  0.81575000  1
  O  O1  1  0.75000000  0.11995000  0.31575000  1
  O  O2  1  0.25000000  0.61995000  0.18425000  1
  O  O3  1  0.25000000  0.88005000  0.68425000  1
loop_
_geom_bond_atom_site_label_1
_geom_bond_atom_site_label_2
_geom_bond_distance
_geom_bond_site_symmetry_2
H0 O0 0.987255 1_555
H1 O1 0.987255 1_555
H2 O2 0.987255 1_555
H3 O3 0.987255 1_555
H4 O0 0.984165 1_555
H5 O1 0.984165 1_555
H6 O2 0.984165 1_555
H7 O3 0.984165 1_555
I0 Sr0 3.443080 1_655
I0 Sr0 3.443080 1_555
I0 Sr3 3.642477 1_555
I0 Sr2 3.822539 1_555
I1 Sr1 3.443080 1_665
I1 Sr1 3.443080 1_565
I1 Sr2 3.642477 1_555
I1 Sr3 3.822539 1_554
I2 Sr2 3.443080 1_455
I2 Sr2 3.443080 1_555
I2 Sr1 3.642477 1_555
I2 Sr0 3.822539 1_555
I3 Sr3 3.443080 1_445
I3 Sr3 3.443080 1_545
I3 Sr0 3.642477 1_555
I3 Sr1 3.822539 1_556
I4 Sr0 3.433399 1_655
I4 Sr0 3.433399 1_555
I4 Sr3 3.584492 1_545
I5 Sr1 3.433399 1_655
I5 Sr1 3.433399 1_555
I5 Sr2 3.584492 1_555
I6 Sr2 3.433399 1_455
I6 Sr2 3.433399 1_555
I6 Sr1 3.584492 1_565
I7 Sr3 3.433399 1_555
I7 Sr3 3.433399 1_455
I7 Sr0 3.584492 1_555
O0 Sr0 2.724009 1_655
O0 Sr0 2.724009 1_555
O1 Sr1 2.724009 1_655
O1 Sr1 2.724009 1_555
O2 Sr2 2.724009 1_555
O2 Sr2 2.724009 1_455
O3 Sr3 2.724009 1_455
O3 Sr3 2.724009 1_555
