# generated using pymatgen
data_LiV2S2(O4F3)2
_symmetry_space_group_name_H-M   'P 1'
_cell_length_a   7.18146600
_cell_length_b   7.95278500
_cell_length_c   10.24832727
_cell_angle_alpha   87.09615427
_cell_angle_beta   90.00000000
_cell_angle_gamma   90.00000000
_symmetry_Int_Tables_number   1
_chemical_formula_structural   LiV2S2(O4F3)2
_chemical_formula_sum   'Li2 V4 S4 O16 F12'
_cell_volume   584.55761970
_cell_formula_units_Z   2
loop_
 _symmetry_equiv_pos_site_id
 _symmetry_equiv_pos_as_xyz
  1  'x, y, z'
loop_
 _atom_site_type_symbol
 _atom_site_label
 _atom_site_symmetry_multiplicity
 _atom_site_fract_x
 _atom_site_fract_y
 _atom_site_fract_z
 _atom_site_occupancy
  Li  Li0  1  0.39150800  0.08270600  0.27876600  1
  Li  Li1  1  0.60849200  0.58270600  0.77876600  1
  V  V0  1  0.74630700  0.00410400  0.00010100  1
  V  V1  1  0.75377400  0.50164400  0.48932600  1
  V  V2  1  0.24622600  0.00164400  0.98932600  1
  V  V3  1  0.25369300  0.50410400  0.50010100  1
  S  S0  1  0.01601300  0.17252900  0.50011500  1
  S  S1  1  0.98398700  0.67252900  0.00011500  1
  S  S2  1  0.48838700  0.83723600  0.51363500  1
  S  S3  1  0.51161300  0.33723600  0.01363500  1
  O  O0  1  0.85801500  0.28771100  0.44595800  1
  O  O1  1  0.85216500  0.80553500  0.06790900  1
  O  O2  1  0.87894600  0.60865900  0.89274200  1
  O  O3  1  0.94701800  0.05801300  0.59983800  1
  O  O4  1  0.12105400  0.10865900  0.39274200  1
  O  O5  1  0.05298200  0.55801300  0.09983800  1
  O  O6  1  0.14198500  0.78771100  0.94595800  1
  O  O7  1  0.14783500  0.30553500  0.56790900  1
  O  O8  1  0.35558600  0.21963300  0.05893600  1
  O  O9  1  0.34767800  0.71099800  0.44439300  1
  O  O10  1  0.45409000  0.45394100  0.90835000  1
  O  O11  1  0.39556800  0.90377000  0.62353900  1
  O  O12  1  0.60443200  0.40377000  0.12353900  1
  O  O13  1  0.54591000  0.95394100  0.40835000  1
  O  O14  1  0.64441400  0.71963300  0.55893600  1
  O  O15  1  0.65232200  0.21099800  0.94439300  1
  F  F0  1  0.75900300  0.44783500  0.66521900  1
  F  F1  1  0.76640200  0.93799400  0.83824300  1
  F  F2  1  0.00894200  0.59988300  0.49918300  1
  F  F3  1  0.99105800  0.09988300  0.99918300  1
  F  F4  1  0.24099700  0.94783500  0.16521900  1
  F  F5  1  0.23359800  0.43799400  0.33824300  1
  F  F6  1  0.27196600  0.09052000  0.83008300  1
  F  F7  1  0.32030900  0.54832500  0.66413400  1
  F  F8  1  0.50359400  0.40212400  0.48850000  1
  F  F9  1  0.49640600  0.90212400  0.98850000  1
  F  F10  1  0.67969100  0.04832500  0.16413400  1
  F  F11  1  0.72803400  0.59052000  0.33008300  1
loop_
_geom_bond_atom_site_label_1
_geom_bond_atom_site_label_2
_geom_bond_distance
_geom_bond_site_symmetry_2
Li0 O13 1.975858 1_545
Li0 O4 2.281175 1_555
Li0 O8 2.465626 1_555
Li1 O10 1.975858 1_555
Li1 O2 2.281175 1_555
Li1 O14 2.465626 1_555
O0 S0 1.543719 1_655
O0 V1 1.931112 1_555
O1 S1 1.603821 1_555
O1 V0 1.855653 1_565
O2 S1 1.447255 1_556
O3 S0 1.423055 1_655
O4 S0 1.447255 1_555
O5 S1 1.423055 1_455
O6 S1 1.543719 1_456
O6 V2 1.931112 1_565
O7 S0 1.603821 1_555
O7 V3 1.855653 1_555
O8 S3 1.517169 1_555
O8 V2 2.063119 1_554
O9 S2 1.613921 1_555
O9 V3 1.842175 1_555
O10 S3 1.447356 1_556
O11 S2 1.432938 1_555
O12 S3 1.432938 1_555
O13 S2 1.447356 1_555
O14 S2 1.517169 1_555
O14 V1 2.063119 1_555
O15 S3 1.613921 1_556
O15 V0 1.842175 1_556
F0 V1 1.831878 1_555
F0 Li1 1.949199 1_555
F1 V0 1.771198 1_566
F2 V3 1.915456 1_555
F2 V1 1.996641 1_455
F3 V0 1.915456 1_556
F3 V2 1.996641 1_655
F4 V2 1.831878 1_564
F4 Li0 1.949199 1_565
F5 V3 1.771198 1_555
F6 V2 1.755056 1_555
F7 V3 1.799562 1_555
F7 Li1 2.402202 1_555
F8 V1 1.963452 1_555
F8 V3 1.975463 1_555
F9 V2 1.963452 1_565
F9 V0 1.975463 1_566
F10 V0 1.799562 1_555
F10 Li0 2.402202 1_555
F11 V1 1.755056 1_555
