# generated using pymatgen
data_K3(TcCl4)2
_symmetry_space_group_name_H-M   'P 1'
_cell_length_a   12.75040318
_cell_length_b   12.75071526
_cell_length_c   8.14393495
_cell_angle_alpha   90.00975739
_cell_angle_beta   89.98845571
_cell_angle_gamma   120.00326109
_symmetry_Int_Tables_number   1
_chemical_formula_structural   K3(TcCl4)2
_chemical_formula_sum   'K9 Tc6 Cl24'
_cell_volume   1146.59253587
_cell_formula_units_Z   3
loop_
 _symmetry_equiv_pos_site_id
 _symmetry_equiv_pos_as_xyz
  1  'x, y, z'
loop_
 _atom_site_type_symbol
 _atom_site_label
 _atom_site_symmetry_multiplicity
 _atom_site_fract_x
 _atom_site_fract_y
 _atom_site_fract_z
 _atom_site_occupancy
  K  K0  1  0.33200185  0.81960396  0.92186039  1
  K  K1  1  0.48765198  0.66844825  0.58829319  1
  K  K2  1  0.18053190  0.51229251  0.25588411  1
  K  K3  1  0.66841926  0.48774001  0.41170024  1
  K  K4  1  0.81977978  0.33208085  0.07814771  1
  K  K5  1  0.51218901  0.18044248  0.74411770  1
  K  K6  1  0.70673385  0.00003021  0.33312000  1
  K  K7  1  0.29300804  0.29303932  -0.00004764  1
  K  K8  1  0.00001521  0.70668050  0.66683613  1
  Tc  Tc0  1  0.35828985  0.91736578  0.39864062  1
  Tc  Tc1  1  0.55902347  0.64170592  0.06556697  1
  Tc  Tc2  1  0.08262740  0.44094982  0.73257450  1
  Tc  Tc3  1  0.64157889  0.55913797  0.93445210  1
  Tc  Tc4  1  0.91761737  0.35841343  0.60139918  1
  Tc  Tc5  1  0.44082629  0.08238537  0.26746305  1
  Cl  Cl0  1  0.25302718  0.94644936  0.61811134  1
  Cl  Cl1  1  0.69342929  0.74700187  0.28501950  1
  Cl  Cl2  1  0.05336319  0.30650904  0.95189111  1
  Cl  Cl3  1  0.74691174  0.69352904  0.71498257  1
  Cl  Cl4  1  0.94665877  0.25315972  0.38188159  1
  Cl  Cl5  1  0.30642222  0.05316517  0.04814014  1
  Cl  Cl6  1  0.50197413  0.93789176  0.60463138  1
  Cl  Cl7  1  0.43581207  0.49823693  0.27168727  1
  Cl  Cl8  1  0.06219391  0.56406572  0.93876982  1
  Cl  Cl9  1  0.49816551  0.43593305  0.72830485  1
  Cl  Cl10  1  0.93812773  0.50208344  0.39538949  1
  Cl  Cl11  1  0.56397343  0.06199099  0.06130475  1
  Cl  Cl12  1  0.17300283  0.80038252  0.26648921  1
  Cl  Cl13  1  0.62734618  0.82698151  0.93325174  1
  Cl  Cl14  1  0.19961302  0.37264856  0.60024233  1
  Cl  Cl15  1  0.82684323  0.62744541  0.06670078  1
  Cl  Cl16  1  0.80062878  0.17311080  0.73347401  1
  Cl  Cl17  1  0.37248741  0.19933910  0.39972696  1
  Cl  Cl18  1  0.42280308  0.79207231  0.26635284  1
  Cl  Cl19  1  0.36935555  0.57704000  0.93298804  1
  Cl  Cl20  1  0.20776014  0.63076613  0.60014308  1
  Cl  Cl21  1  0.57689647  0.36945547  0.06699450  1
  Cl  Cl22  1  0.79228466  0.42287751  0.73366391  1
  Cl  Cl23  1  0.63062833  0.20754920  0.39985155  1
loop_
_geom_bond_atom_site_label_1
_geom_bond_atom_site_label_2
_geom_bond_distance
_geom_bond_site_symmetry_2
Tc0 Tc5 2.112308 1_565
Tc1 Tc3 2.112825 1_554
Tc2 Tc4 2.112219 1_455
Cl0 Tc0 2.372778 1_555
Cl0 K8 3.169778 1_555
Cl0 K5 3.318786 1_565
Cl0 K0 3.373463 1_555
Cl1 Tc1 2.373370 1_555
Cl1 K6 3.169137 1_565
Cl1 K3 3.322792 1_555
Cl1 K1 3.370070 1_555
Cl2 Tc2 2.372552 1_555
Cl2 K7 3.169313 1_556
Cl2 K4 3.317163 1_456
Cl2 K2 3.374530 1_556
Cl3 Tc3 2.373428 1_555
Cl3 K8 3.170929 1_655
Cl3 K1 3.322382 1_555
Cl3 K3 3.370413 1_555
Cl4 Tc4 2.372796 1_555
Cl4 K6 3.171557 1_555
Cl4 K2 3.317903 1_655
Cl4 K4 3.373277 1_555
Cl5 Tc5 2.372424 1_555
Cl5 K7 3.172019 1_555
Cl5 K0 3.317099 1_544
Cl5 K5 3.374591 1_554
Cl6 Tc0 2.400138 1_555
Cl6 K6 3.203541 1_565
Cl6 K0 3.221199 1_555
Cl6 K5 3.235455 1_565
Cl6 K1 3.350640 1_555
Cl7 Tc1 2.399606 1_555
Cl7 K7 3.208348 1_555
Cl7 K1 3.218619 1_555
Cl7 K3 3.242328 1_555
Cl7 K2 3.350641 1_555
Cl8 Tc2 2.400002 1_555
Cl8 K8 3.206813 1_555
Cl8 K2 3.221857 1_556
Cl8 K4 3.232281 1_456
Cl8 K0 3.355585 1_555
Cl9 Tc3 2.399494 1_555
Cl9 K7 3.207646 1_556
Cl9 K3 3.218872 1_555
Cl9 K1 3.241368 1_555
Cl9 K5 3.353175 1_555
Cl10 Tc4 2.400159 1_555
Cl10 K8 3.202377 1_655
Cl10 K4 3.221663 1_555
Cl10 K2 3.233686 1_655
Cl10 K3 3.353788 1_555
Cl11 Tc5 2.399803 1_555
Cl11 K6 3.205957 1_555
Cl11 K5 3.223214 1_554
Cl11 K0 3.232297 1_544
Cl11 K4 3.359087 1_555
Cl12 Tc0 2.332539 1_555
Cl12 K0 3.398271 1_554
Cl13 Tc1 2.333079 1_556
Cl13 K1 3.398556 1_555
Cl14 Tc2 2.333024 1_555
Cl14 K2 3.395531 1_555
Cl15 Tc3 2.332732 1_554
Cl15 K3 3.398296 1_555
Cl16 Tc4 2.332378 1_555
Cl16 K4 3.398656 1_556
Cl17 Tc5 2.332788 1_555
Cl17 K5 3.395394 1_555
Cl18 Tc0 2.388067 1_555
Cl18 K0 3.121330 1_554
Cl18 K6 3.291305 1_565
Cl18 K2 3.354827 1_555
Cl18 K1 3.368726 1_555
Cl19 Tc1 2.387585 1_556
Cl19 K1 3.123292 1_555
Cl19 K7 3.291385 1_556
Cl19 K0 3.357703 1_555
Cl19 K2 3.376891 1_556
Cl20 Tc2 2.388485 1_555
Cl20 K2 3.120459 1_555
Cl20 K8 3.288119 1_555
Cl20 K1 3.355749 1_555
Cl20 K0 3.369947 1_555
Cl21 Tc3 2.387580 1_554
Cl21 K3 3.123602 1_555
Cl21 K7 3.289838 1_555
Cl21 K4 3.361843 1_555
Cl21 K5 3.378368 1_554
Cl22 Tc4 2.387948 1_555
Cl22 K4 3.121090 1_556
Cl22 K8 3.289524 1_655
Cl22 K5 3.358037 1_555
Cl22 K3 3.370781 1_555
Cl23 Tc5 2.388291 1_555
Cl23 K5 3.120458 1_555
Cl23 K6 3.287180 1_555
Cl23 K3 3.359086 1_555
Cl23 K4 3.372076 1_555
