# generated using pymatgen
data_Ti3CoNi2(PO4)6
_symmetry_space_group_name_H-M   'P 1'
_cell_length_a   8.49876602
_cell_length_b   8.49876602
_cell_length_c   8.49876611
_cell_angle_alpha   61.04975631
_cell_angle_beta   61.04975631
_cell_angle_gamma   61.04975664
_symmetry_Int_Tables_number   1
_chemical_formula_structural   Ti3CoNi2(PO4)6
_chemical_formula_sum   'Ti3 Co1 Ni2 P6 O24'
_cell_volume   444.32308581
_cell_formula_units_Z   1
loop_
 _symmetry_equiv_pos_site_id
 _symmetry_equiv_pos_as_xyz
  1  'x, y, z'
loop_
 _atom_site_type_symbol
 _atom_site_label
 _atom_site_symmetry_multiplicity
 _atom_site_fract_x
 _atom_site_fract_y
 _atom_site_fract_z
 _atom_site_occupancy
  Ti  Ti0  1  0.85693300  0.85693300  0.85693300  1
  Ti  Ti1  1  0.64509500  0.64509500  0.64509500  1
  Ti  Ti2  1  0.35432800  0.35432800  0.35432800  1
  Co  Co0  1  0.14410500  0.14410500  0.14410500  1
  Ni  Ni0  1  0.00259300  0.00259300  0.00259300  1
  Ni  Ni1  1  0.50096800  0.50096800  0.50096800  1
  P  P0  1  0.74987300  0.45383100  0.04641000  1
  P  P1  1  0.45383100  0.04641000  0.74987300  1
  P  P2  1  0.04641000  0.74987300  0.45383100  1
  P  P3  1  0.95245900  0.24775400  0.54536600  1
  P  P4  1  0.54536600  0.95245900  0.24775400  1
  P  P5  1  0.24775400  0.54536600  0.95245900  1
  O  O0  1  0.88621000  0.67405200  0.51172400  1
  O  O1  1  0.67405200  0.51172400  0.88621000  1
  O  O2  1  0.94180900  0.09051600  0.74528500  1
  O  O3  1  0.51172400  0.88621000  0.67405200  1
  O  O4  1  0.98492100  0.18301700  0.39449900  1
  O  O5  1  0.75635300  0.41203000  0.56666400  1
  O  O6  1  0.74528500  0.94180900  0.09051600  1
  O  O7  1  0.56666400  0.75635300  0.41203000  1
  O  O8  1  0.81478300  0.61914500  0.99803500  1
  O  O9  1  0.41203000  0.56666400  0.75635300  1
  O  O10  1  0.90239100  0.26079200  0.05267500  1
  O  O11  1  0.61914500  0.99803500  0.81478300  1
  O  O12  1  0.39449900  0.98492100  0.18301700  1
  O  O13  1  0.09051600  0.74528500  0.94180900  1
  O  O14  1  0.58674400  0.44708200  0.24184400  1
  O  O15  1  0.18301700  0.39449900  0.98492100  1
  O  O16  1  0.44708200  0.24184400  0.58674400  1
  O  O17  1  0.26079200  0.05267500  0.90239100  1
  O  O18  1  0.24184400  0.58674400  0.44708200  1
  O  O19  1  0.99803500  0.81478300  0.61914500  1
  O  O20  1  0.49694300  0.11803600  0.31473500  1
  O  O21  1  0.05267500  0.90239100  0.26079200  1
  O  O22  1  0.31473500  0.49694300  0.11803600  1
  O  O23  1  0.11803600  0.31473500  0.49694300  1
loop_
_geom_bond_atom_site_label_1
_geom_bond_atom_site_label_2
_geom_bond_distance
_geom_bond_site_symmetry_2
Co0 O15 1.982228 1_554
Co0 O12 1.982228 1_545
Co0 O4 1.982228 1_455
Co0 O21 2.152762 1_545
Co0 O10 2.152762 1_455
Co0 O17 2.152762 1_554
Ni0 O17 2.113256 1_554
Ni0 O10 2.113256 1_455
Ni0 O21 2.113256 1_545
Ni0 O6 2.178378 1_445
Ni0 O13 2.178378 1_544
Ni0 O2 2.178378 1_454
Ni1 O16 2.165634 1_555
Ni1 O18 2.165634 1_555
Ni1 O14 2.165634 1_555
Ni1 O7 2.184111 1_555
Ni1 O5 2.184111 1_555
Ni1 O9 2.184111 1_555
O0 P2 1.550773 1_655
O0 Ti1 1.874576 1_555
O1 P0 1.550773 1_556
O1 Ti1 1.874576 1_555
O2 P3 1.565543 1_555
O2 Ti0 2.064383 1_545
O3 P1 1.550773 1_565
O3 Ti1 1.874576 1_555
O4 P3 1.488739 1_555
O5 P3 1.568331 1_555
O5 Ti1 2.028956 1_555
O6 P4 1.565543 1_555
O6 Ti0 2.064383 1_554
O7 P4 1.568331 1_555
O7 Ti1 2.028956 1_555
O8 P0 1.555264 1_556
O8 Ti0 1.894535 1_555
O9 P5 1.568331 1_555
O9 Ti1 2.028956 1_555
O10 P0 1.515942 1_555
O11 P1 1.555264 1_565
O11 Ti0 1.894535 1_555
O12 P4 1.488739 1_555
O13 P5 1.565543 1_555
O13 Ti0 2.064383 1_455
O14 P0 1.561926 1_555
O14 Ti2 2.094448 1_555
O15 P5 1.488739 1_555
O16 P1 1.561926 1_555
O16 Ti2 2.094448 1_555
O17 P1 1.515942 1_555
O18 P2 1.561926 1_555
O18 Ti2 2.094448 1_555
O19 P2 1.555264 1_655
O19 Ti0 1.894535 1_555
O20 P4 1.568979 1_545
O20 Ti2 1.875657 1_555
O21 P2 1.515942 1_555
O22 P5 1.568979 1_554
O22 Ti2 1.875657 1_555
O23 P3 1.568979 1_455
O23 Ti2 1.875657 1_555
