# generated using pymatgen
data_LiV3O5F3
_symmetry_space_group_name_H-M   'P 1'
_cell_length_a   7.20267878
_cell_length_b   7.20267878
_cell_length_c   5.09511299
_cell_angle_alpha   89.23130389
_cell_angle_beta   89.23130389
_cell_angle_gamma   101.47771231
_symmetry_Int_Tables_number   1
_chemical_formula_structural   LiV3O5F3
_chemical_formula_sum   'Li2 V6 O10 F6'
_cell_volume   258.98305455
_cell_formula_units_Z   2
loop_
 _symmetry_equiv_pos_site_id
 _symmetry_equiv_pos_as_xyz
  1  'x, y, z'
loop_
 _atom_site_type_symbol
 _atom_site_label
 _atom_site_symmetry_multiplicity
 _atom_site_fract_x
 _atom_site_fract_y
 _atom_site_fract_z
 _atom_site_occupancy
  Li  Li0  1  0.84102700  0.17189800  0.74723500  1
  Li  Li1  1  0.17189800  0.84102700  0.24723500  1
  V  V0  1  0.80494600  0.69188900  0.73888400  1
  V  V1  1  0.69188900  0.80494600  0.23888400  1
  V  V2  1  0.31544500  0.66876600  0.77837000  1
  V  V3  1  0.66876600  0.31544500  0.27837000  1
  V  V4  1  0.33870100  0.17496700  0.77931200  1
  V  V5  1  0.17496700  0.33870100  0.27931200  1
  O  O0  1  0.80629400  0.90645900  0.56653000  1
  O  O1  1  0.90645900  0.80629400  0.06653000  1
  O  O2  1  0.56799800  0.69045100  0.91356000  1
  O  O3  1  0.69045100  0.56799800  0.41356000  1
  O  O4  1  0.31809100  0.93626700  0.87072200  1
  O  O5  1  0.93626700  0.31809100  0.37072200  1
  O  O6  1  0.57112600  0.20368600  0.56645700  1
  O  O7  1  0.20368600  0.57112600  0.06645700  1
  O  O8  1  0.30134600  0.42304500  0.59457200  1
  O  O9  1  0.42304500  0.30134600  0.09457200  1
  F  F0  1  0.79684000  0.43240000  0.91586100  1
  F  F1  1  0.43240000  0.79684000  0.41586100  1
  F  F2  1  0.07206400  0.68748700  0.59233700  1
  F  F3  1  0.68748700  0.07206400  0.09233700  1
  F  F4  1  0.08580400  0.19300400  0.93616000  1
  F  F5  1  0.19300400  0.08580400  0.43616000  1
loop_
_geom_bond_atom_site_label_1
_geom_bond_atom_site_label_2
_geom_bond_distance
_geom_bond_site_symmetry_2
Li0 O0 2.104427 1_545
Li0 O5 2.209645 1_555
Li0 O6 2.213485 1_555
Li1 O1 2.104427 1_455
Li1 O4 2.209645 1_554
Li1 O7 2.213485 1_555
O0 V0 1.765546 1_555
O0 V1 1.957134 1_555
O1 V1 1.765546 1_555
O1 V0 1.957134 1_554
O2 V0 1.912289 1_555
O2 V2 1.931647 1_555
O2 V1 2.001844 1_556
O3 V1 1.912289 1_555
O3 V3 1.931647 1_555
O3 V0 2.001844 1_555
O4 V4 1.752131 1_565
O4 V2 1.985949 1_555
O5 V5 1.752131 1_655
O5 V3 1.985949 1_555
O6 V3 1.735627 1_555
O6 V4 1.956777 1_555
O7 V2 1.735627 1_554
O7 V5 1.956777 1_555
O8 V5 1.903454 1_555
O8 V2 1.998788 1_555
O8 V4 2.074639 1_555
O9 V4 1.903454 1_554
O9 V3 1.998788 1_555
O9 V5 2.074639 1_555
F0 V0 2.054182 1_555
F0 V3 2.139008 1_556
F0 Li0 2.152576 1_555
F1 V1 2.054182 1_555
F1 V2 2.139008 1_555
F1 Li1 2.152576 1_555
F2 V2 2.030969 1_555
F2 V0 2.060712 1_455
F2 Li1 2.104575 1_555
F3 V3 2.030969 1_555
F3 V1 2.060712 1_545
F3 Li0 2.104575 1_554
F4 Li0 2.000210 1_455
F4 V4 2.007842 1_555
F4 V5 2.093260 1_556
F5 Li1 2.000210 1_545
F5 V5 2.007842 1_555
F5 V4 2.093260 1_555
