# generated using pymatgen
data_Na4H2RuN6O13
_symmetry_space_group_name_H-M   'P 1'
_cell_length_a   7.65393552
_cell_length_b   7.65393552
_cell_length_c   12.29190347
_cell_angle_alpha   87.48966146
_cell_angle_beta   87.48966146
_cell_angle_gamma   116.96806293
_symmetry_Int_Tables_number   1
_chemical_formula_structural   Na4H2RuN6O13
_chemical_formula_sum   'Na8 H4 Ru2 N12 O26'
_cell_volume   639.53305392
_cell_formula_units_Z   2
loop_
 _symmetry_equiv_pos_site_id
 _symmetry_equiv_pos_as_xyz
  1  'x, y, z'
loop_
 _atom_site_type_symbol
 _atom_site_label
 _atom_site_symmetry_multiplicity
 _atom_site_fract_x
 _atom_site_fract_y
 _atom_site_fract_z
 _atom_site_occupancy
  Na  Na0  1  0.72240800  0.97199000  0.38067300  1
  Na  Na1  1  0.02801000  0.27759200  0.11932700  1
  Na  Na2  1  0.27759200  0.02801000  0.61932700  1
  Na  Na3  1  0.97199000  0.72240800  0.88067300  1
  Na  Na4  1  0.34404200  0.16986900  0.30637500  1
  Na  Na5  1  0.83013100  0.65595800  0.19362500  1
  Na  Na6  1  0.65595800  0.83013100  0.69362500  1
  Na  Na7  1  0.16986900  0.34404200  0.80637500  1
  H  H0  1  0.46751700  0.56326500  0.31234100  1
  H  H1  1  0.43673500  0.53248300  0.18765900  1
  H  H2  1  0.53248300  0.43673500  0.68765900  1
  H  H3  1  0.56326500  0.46751700  0.81234100  1
  Ru  Ru0  1  0.00000000  0.50000000  0.50000000  1
  Ru  Ru1  1  0.50000000  0.00000000  0.00000000  1
  N  N0  1  0.01216000  0.75881600  0.43231400  1
  N  N1  1  0.24118400  0.98784000  0.06768600  1
  N  N2  1  0.98784000  0.24118400  0.56768600  1
  N  N3  1  0.75881600  0.01216000  0.93231400  1
  N  N4  1  0.69750500  0.34751200  0.48473200  1
  N  N5  1  0.65248800  0.30249500  0.01526800  1
  N  N6  1  0.30249500  0.65248800  0.51526800  1
  N  N7  1  0.34751200  0.69750500  0.98473200  1
  N  N8  1  0.04266900  0.42370700  0.34387900  1
  N  N9  1  0.57629300  0.95733100  0.15612100  1
  N  N10  1  0.95733100  0.57629300  0.65612100  1
  N  N11  1  0.42370700  0.04266900  0.84387900  1
  O  O0  1  0.15657600  0.92317600  0.44406300  1
  O  O1  1  0.07682400  0.84342400  0.05593700  1
  O  O2  1  0.84342400  0.07682400  0.55593700  1
  O  O3  1  0.92317600  0.15657600  0.94406300  1
  O  O4  1  0.87810600  0.75736900  0.37553600  1
  O  O5  1  0.24263100  0.12189400  0.12446400  1
  O  O6  1  0.12189400  0.24263100  0.62446400  1
  O  O7  1  0.75736900  0.87810600  0.87553600  1
  O  O8  1  0.63461900  0.24622300  0.40340300  1
  O  O9  1  0.75377700  0.36538100  0.09659700  1
  O  O10  1  0.36538100  0.75377700  0.59659700  1
  O  O11  1  0.24622300  0.63461900  0.90340300  1
  O  O12  1  0.57059800  0.34402300  0.55466000  1
  O  O13  1  0.65597700  0.42940200  0.94534000  1
  O  O14  1  0.42940200  0.65597700  0.44534000  1
  O  O15  1  0.34402300  0.57059800  0.05466000  1
  O  O16  1  0.05724600  0.52973100  0.25950300  1
  O  O17  1  0.47026900  0.94275400  0.24049700  1
  O  O18  1  0.94275400  0.47026900  0.74049700  1
  O  O19  1  0.52973100  0.05724600  0.75950300  1
  O  O20  1  0.04991800  0.26343300  0.32943100  1
  O  O21  1  0.73656700  0.95008200  0.17056900  1
  O  O22  1  0.95008200  0.73656700  0.67056900  1
  O  O23  1  0.26343300  0.04991800  0.82943100  1
  O  O24  1  0.49747600  0.50252400  0.25000000  1
  O  O25  1  0.50252400  0.49747600  0.75000000  1
loop_
_geom_bond_atom_site_label_1
_geom_bond_atom_site_label_2
_geom_bond_distance
_geom_bond_site_symmetry_2
Na0 O2 2.407289 1_565
Na0 O4 2.429116 1_555
Na0 O8 2.499859 1_565
Na0 O14 2.503437 1_555
Na0 O20 2.514636 1_665
Na0 O17 2.583918 1_555
Na0 O21 2.596049 1_555
Na1 O3 2.407289 1_454
Na1 O5 2.429116 1_555
Na1 O9 2.499859 1_455
Na1 O15 2.503437 1_555
Na1 O21 2.514636 1_445
Na1 O16 2.583918 1_555
Na1 O20 2.596049 1_555
Na2 O0 2.407289 1_545
Na2 O6 2.429116 1_555
Na2 O10 2.499859 1_545
Na2 O12 2.503437 1_555
Na2 O22 2.514636 1_445
Na2 O19 2.583918 1_555
Na2 O23 2.596049 1_555
Na3 O1 2.407289 1_656
Na3 O7 2.429116 1_555
Na3 O11 2.499859 1_655
Na3 O13 2.503437 1_555
Na3 O23 2.514636 1_665
Na3 O18 2.583918 1_555
Na3 O22 2.596049 1_555
Na4 O24 2.324703 1_555
Na4 O0 2.353393 1_545
Na4 O5 2.388013 1_555
Na4 O8 2.413494 1_555
Na4 O17 2.487754 1_545
Na4 O20 2.661803 1_555
Na5 O24 2.324703 1_555
Na5 O1 2.353393 1_655
Na5 O4 2.388013 1_555
Na5 O9 2.413494 1_555
Na5 O16 2.487754 1_655
Na5 O21 2.661803 1_555
Na6 O25 2.324703 1_555
Na6 O2 2.353393 1_565
Na6 O7 2.388013 1_555
Na6 O10 2.413494 1_555
Na6 O19 2.487754 1_565
Na6 O22 2.661803 1_555
Na7 O25 2.324703 1_555
Na7 O3 2.353393 1_455
Na7 O6 2.388013 1_555
Na7 O11 2.413494 1_555
Na7 O18 2.487754 1_455
Na7 O23 2.661803 1_555
H0 O24 0.984085 1_555
H1 O24 0.984085 1_555
H2 O25 0.984085 1_555
H3 O25 0.984085 1_555
N0 O4 1.262164 1_455
N0 O0 1.262508 1_555
N0 Ru0 2.075258 1_555
N1 O5 1.262164 1_565
N1 O1 1.262508 1_555
N1 Ru1 2.075258 1_565
N2 O6 1.262164 1_655
N2 O2 1.262508 1_555
N2 Ru0 2.075258 1_655
N3 O7 1.262164 1_545
N3 O3 1.262508 1_555
N3 Ru1 2.075258 1_556
N4 O12 1.258713 1_555
N4 O8 1.266363 1_555
N4 Ru0 2.089087 1_655
N5 O13 1.258713 1_554
N5 O9 1.266363 1_555
N5 Ru1 2.089087 1_555
N6 O14 1.258713 1_555
N6 O10 1.266363 1_555
N6 Ru0 2.089087 1_555
N7 O15 1.258713 1_556
N7 O11 1.266363 1_555
N7 Ru1 2.089087 1_566
N8 O16 1.257244 1_555
N8 O20 1.272568 1_555
N8 Ru0 2.084834 1_555
N9 O17 1.257244 1_555
N9 O21 1.272568 1_555
N9 Ru1 2.084834 1_565
N10 O18 1.257244 1_555
N10 O22 1.272568 1_555
N10 Ru0 2.084834 1_655
N11 O19 1.257244 1_555
N11 O23 1.272568 1_555
N11 Ru1 2.084834 1_556
