# generated using pymatgen
data_Li2VCrP2(HO5)2
_symmetry_space_group_name_H-M   'P 1'
_cell_length_a   5.42699000
_cell_length_b   7.45249162
_cell_length_c   14.45848000
_cell_angle_alpha   95.19234619
_cell_angle_beta   92.57668752
_cell_angle_gamma   110.49002299
_symmetry_Int_Tables_number   1
_chemical_formula_structural   Li2VCrP2(HO5)2
_chemical_formula_sum   'Li6 V3 Cr3 P6 H6 O30'
_cell_volume   543.67942612
_cell_formula_units_Z   3
loop_
 _symmetry_equiv_pos_site_id
 _symmetry_equiv_pos_as_xyz
  1  'x, y, z'
loop_
 _atom_site_type_symbol
 _atom_site_label
 _atom_site_symmetry_multiplicity
 _atom_site_fract_x
 _atom_site_fract_y
 _atom_site_fract_z
 _atom_site_occupancy
  Li  Li0  1  0.26567700  0.86829900  0.69220100  1
  Li  Li1  1  0.06742200  0.46462100  0.64133400  1
  Li  Li2  1  0.40054100  0.79752800  0.97396900  1
  Li  Li3  1  0.59953200  0.20252700  0.02512000  1
  Li  Li4  1  0.93238500  0.53498600  0.35904900  1
  Li  Li5  1  0.73431300  0.13211100  0.30834600  1
  V  V0  1  0.66568400  0.66648600  0.16691800  1
  V  V1  1  0.99987000  0.99994900  0.50007500  1
  V  V2  1  0.00001100  0.99980100  0.99946100  1
  Cr  Cr0  1  0.33435000  0.33339300  0.83298800  1
  Cr  Cr1  1  0.33383400  0.33365700  0.33349600  1
  Cr  Cr2  1  0.66624900  0.66656100  0.66693800  1
  P  P0  1  0.02049600  0.38035000  0.14855200  1
  P  P1  1  0.31311800  0.95418800  0.18571700  1
  P  P2  1  0.35426000  0.71219100  0.48142100  1
  P  P3  1  0.64540900  0.28775100  0.51890600  1
  P  P4  1  0.68762300  0.04814100  0.81407500  1
  P  P5  1  0.97897100  0.61731600  0.85131200  1
  H  H0  1  0.04672800  0.98826400  0.32592800  1
  H  H1  1  0.28823800  0.34774900  0.00595300  1
  H  H2  1  0.38182200  0.32154000  0.66082200  1
  H  H3  1  0.61959900  0.67803800  0.34113700  1
  H  H4  1  0.70950700  0.65287400  0.99170300  1
  H  H5  1  0.95347000  0.01147400  0.67430700  1
  O  O0  1  0.08090000  0.82609600  0.90059800  1
  O  O1  1  0.04273500  0.83891300  0.21848100  1
  O  O2  1  0.13773600  0.79205500  0.45175200  1
  O  O3  1  0.19665100  0.53962100  0.88139600  1
  O  O4  1  0.29876800  0.95907400  0.07761800  1
  O  O5  1  0.03703600  0.37540300  0.25644900  1
  O  O6  1  0.37016900  0.70736600  0.58935800  1
  O  O7  1  0.25261500  0.50272300  0.43268300  1
  O  O8  1  0.04958200  0.09718300  0.37131500  1
  O  O9  1  0.29012200  0.49522600  0.11493600  1
  O  O10  1  0.28532300  0.23844700  0.96079200  1
  O  O11  1  0.58715300  0.83852000  0.76551000  1
  O  O12  1  0.52845600  0.87387500  0.21592400  1
  O  O13  1  0.38034300  0.43048200  0.70534600  1
  O  O14  1  0.62357900  0.82785500  0.44799900  1
  O  O15  1  0.37602100  0.17210000  0.55223000  1
  O  O16  1  0.61816100  0.56928000  0.29591300  1
  O  O17  1  0.46996800  0.12584500  0.78405100  1
  O  O18  1  0.41441200  0.16374900  0.23419900  1
  O  O19  1  0.71800400  0.76203100  0.03794100  1
  O  O20  1  0.70707500  0.50308100  0.88478300  1
  O  O21  1  0.94975700  0.90242900  0.62886100  1
  O  O22  1  0.74659200  0.49723800  0.56759100  1
  O  O23  1  0.62966300  0.29226100  0.41092900  1
  O  O24  1  0.96206200  0.62363800  0.74356800  1
  O  O25  1  0.70250900  0.04238500  0.92209300  1
  O  O26  1  0.80499300  0.46061300  0.11846800  1
  O  O27  1  0.86221400  0.20804900  0.54846700  1
  O  O28  1  0.96011200  0.16304700  0.78156500  1
  O  O29  1  0.91817800  0.17161600  0.09945500  1
loop_
_geom_bond_atom_site_label_1
_geom_bond_atom_site_label_2
_geom_bond_distance
_geom_bond_site_symmetry_2
Li0 O21 2.012253 1_455
Li0 O6 2.049445 1_555
Li0 O11 2.088991 1_555
Li0 O17 2.143184 1_565
Li0 O24 2.200666 1_455
Li1 O13 2.002259 1_555
Li1 O24 2.037052 1_455
Li1 O22 2.098514 1_455
Li1 O27 2.146932 1_455
Li1 O6 2.193880 1_555
Li2 O19 2.028264 1_556
Li2 O4 2.052728 1_556
Li2 O0 2.076973 1_555
Li2 O3 2.149977 1_555
Li2 O25 2.200618 1_565
Li3 O10 2.016554 1_554
Li3 O25 2.043433 1_554
Li3 O29 2.086919 1_555
Li3 O26 2.158172 1_555
Li3 O4 2.195349 1_545
Li4 O16 2.003500 1_555
Li4 O5 2.041289 1_655
Li4 O7 2.093804 1_655
Li4 O2 2.148255 1_655
Li4 O23 2.193101 1_555
Li5 O8 2.009644 1_655
Li5 O23 2.043716 1_555
Li5 O18 2.093780 1_555
Li5 O12 2.152336 1_545
Li5 O5 2.195725 1_655
Cr0 O3 2.016632 1_555
Cr0 O17 2.020020 1_555
Cr0 O10 2.033491 1_555
Cr0 O13 2.036765 1_555
Cr0 O20 2.037942 1_555
Cr0 O28 2.043930 1_455
Cr1 O7 1.989221 1_555
Cr1 O18 1.992695 1_555
Cr1 O16 2.027531 1_555
Cr1 O8 2.032604 1_555
Cr1 O23 2.042976 1_555
Cr1 O5 2.045577 1_555
Cr2 O22 1.989760 1_555
Cr2 O11 1.991808 1_555
Cr2 O21 2.029319 1_555
Cr2 O13 2.038245 1_555
Cr2 O24 2.042267 1_555
Cr2 O6 2.043114 1_555
H0 O8 0.991782 1_565
H1 O10 0.991924 1_554
H2 O13 0.992003 1_555
H3 O16 0.991834 1_555
H4 O19 0.991645 1_556
H5 O21 0.991598 1_545
O0 P5 1.547911 1_455
O0 V2 2.007755 1_555
O1 P1 1.539231 1_555
O1 V0 2.059803 1_455
O2 P2 1.552282 1_555
O2 V1 2.027557 1_455
O3 P5 1.548647 1_455
O4 P1 1.565738 1_555
O4 V2 2.059062 1_554
O5 P0 1.563085 1_555
O6 P2 1.563474 1_555
O7 P2 1.549467 1_555
O8 V1 2.053334 1_445
O9 P0 1.540303 1_555
O9 V0 2.053159 1_555
O10 V2 2.050140 1_545
O11 P4 1.549683 1_565
O12 P1 1.551068 1_555
O12 V0 2.024970 1_555
O14 P2 1.539369 1_555
O14 V1 2.058022 1_555
O15 P3 1.539055 1_555
O15 V1 2.057853 1_445
O16 V0 2.055918 1_555
O17 P4 1.548329 1_555
O18 P1 1.548802 1_545
O19 V2 2.036697 1_654
O19 V0 2.052208 1_555
O20 P5 1.547777 1_555
O21 V1 2.054625 1_555
O22 P3 1.549365 1_555
O23 P3 1.563726 1_555
O24 P5 1.562333 1_555
O25 P4 1.565477 1_555
O25 V2 2.054107 1_645
O26 P0 1.551100 1_655
O26 V0 2.020254 1_555
O27 P3 1.552379 1_555
O27 V1 2.028429 1_545
O28 P4 1.545926 1_555
O29 P0 1.546630 1_655
O29 V2 2.011909 1_644
