# generated using pymatgen
data_VSO4
_symmetry_space_group_name_H-M   'P 1'
_cell_length_a   4.90537800
_cell_length_b   8.92380500
_cell_length_c   6.85221900
_cell_angle_alpha   89.99708179
_cell_angle_beta   89.99997160
_cell_angle_gamma   89.99990834
_symmetry_Int_Tables_number   1
_chemical_formula_structural   VSO4
_chemical_formula_sum   'V4 S4 O16'
_cell_volume   299.95339728
_cell_formula_units_Z   4
loop_
 _symmetry_equiv_pos_site_id
 _symmetry_equiv_pos_as_xyz
  1  'x, y, z'
loop_
 _atom_site_type_symbol
 _atom_site_label
 _atom_site_symmetry_multiplicity
 _atom_site_fract_x
 _atom_site_fract_y
 _atom_site_fract_z
 _atom_site_occupancy
  V  V0  1  0.99999000  0.00004900  0.50007600  1
  V  V1  1  0.50013700  0.50018300  0.50002700  1
  V  V2  1  0.99996200  0.00004800  0.99986800  1
  V  V3  1  0.49980800  0.49974300  0.99998200  1
  S  S0  1  0.48745600  0.17674300  0.24990900  1
  S  S1  1  0.98747400  0.32326800  0.75007600  1
  S  S2  1  0.01254500  0.67676000  0.24986300  1
  S  S3  1  0.51252600  0.82325200  0.75012600  1
  O  O0  1  0.77879400  0.12156600  0.24989000  1
  O  O1  1  0.27884100  0.37841100  0.75007000  1
  O  O2  1  0.72124400  0.62153900  0.24989000  1
  O  O3  1  0.22119800  0.87843500  0.75007500  1
  O  O4  1  0.98076700  0.15352400  0.75001100  1
  O  O5  1  0.48075900  0.34650400  0.25002600  1
  O  O6  1  0.51918600  0.65349500  0.75015000  1
  O  O7  1  0.01918400  0.84653200  0.24988900  1
  O  O8  1  0.35345800  0.12607000  0.07011200  1
  O  O9  1  0.35343800  0.12599400  0.42972800  1
  O  O10  1  0.85352100  0.37389800  0.92990900  1
  O  O11  1  0.85337300  0.37401100  0.57028500  1
  O  O12  1  0.14662300  0.62598800  0.07015600  1
  O  O13  1  0.14654500  0.62600300  0.42968900  1
  O  O14  1  0.64661000  0.87400300  0.57032700  1
  O  O15  1  0.64655800  0.87398000  0.92986600  1
loop_
_geom_bond_atom_site_label_1
_geom_bond_atom_site_label_2
_geom_bond_distance
_geom_bond_site_symmetry_2
O0 S0 1.511568 1_555
O0 V2 2.299613 1_554
O0 V0 2.300430 1_555
O1 S1 1.511605 1_455
O1 V3 2.297807 1_555
O1 V1 2.301006 1_555
O2 S2 1.511526 1_655
O2 V1 2.299298 1_555
O2 V3 2.300826 1_554
O3 S3 1.511539 1_555
O3 V2 2.299002 1_465
O3 V0 2.299911 1_465
O4 S1 1.515120 1_555
O4 V2 2.194448 1_555
O4 V0 2.194974 1_555
O5 S0 1.515270 1_555
O5 V3 2.194099 1_554
O5 V1 2.196497 1_555
O6 S3 1.515231 1_555
O6 V1 2.195037 1_555
O6 V3 2.195892 1_555
O7 S2 1.515362 1_555
O7 V2 2.195554 1_464
O7 V0 2.196550 1_465
O8 S0 1.467802 1_555
O8 V2 2.122102 1_454
O9 S0 1.468142 1_555
O9 V0 2.121681 1_455
O10 S1 1.467791 1_555
O10 V3 2.121867 1_555
O11 S1 1.468147 1_555
O11 V1 2.121763 1_555
O12 S2 1.467731 1_555
O12 V3 2.121800 1_554
O13 S2 1.468165 1_555
O13 V1 2.121650 1_555
O14 S3 1.468178 1_555
O14 V0 2.121736 1_565
O15 S3 1.467700 1_555
O15 V2 2.121576 1_565
