# generated using pymatgen
data_Li2VSiO4
_symmetry_space_group_name_H-M   'P 1'
_cell_length_a   4.90940600
_cell_length_b   6.71776600
_cell_length_c   10.59905200
_cell_angle_alpha   90.00000000
_cell_angle_beta   90.00000000
_cell_angle_gamma   90.00000000
_symmetry_Int_Tables_number   1
_chemical_formula_structural   Li2VSiO4
_chemical_formula_sum   'Li8 V4 Si4 O16'
_cell_volume   349.55928623
_cell_formula_units_Z   4
loop_
 _symmetry_equiv_pos_site_id
 _symmetry_equiv_pos_as_xyz
  1  'x, y, z'
loop_
 _atom_site_type_symbol
 _atom_site_label
 _atom_site_symmetry_multiplicity
 _atom_site_fract_x
 _atom_site_fract_y
 _atom_site_fract_z
 _atom_site_occupancy
  Li  Li0  1  0.18333600  0.00110200  0.59005000  1
  Li  Li1  1  0.31666400  0.00110200  0.09005000  1
  Li  Li2  1  0.31666400  0.49889800  0.09005000  1
  Li  Li3  1  0.18333600  0.49889800  0.59005000  1
  Li  Li4  1  0.68333600  0.50110200  0.90995000  1
  Li  Li5  1  0.81666400  0.50110200  0.40995000  1
  Li  Li6  1  0.68333600  0.99889800  0.90995000  1
  Li  Li7  1  0.81666400  0.99889800  0.40995000  1
  V  V0  1  0.19438800  0.25000000  0.84698700  1
  V  V1  1  0.30561200  0.25000000  0.34698700  1
  V  V2  1  0.69438800  0.75000000  0.65301300  1
  V  V3  1  0.80561200  0.75000000  0.15301300  1
  Si  Si0  1  0.66863900  0.25000000  0.66423300  1
  Si  Si1  1  0.83136100  0.25000000  0.16423300  1
  Si  Si2  1  0.33136100  0.75000000  0.33576700  1
  Si  Si3  1  0.16863900  0.75000000  0.83576700  1
  O  O0  1  0.77847300  0.04573900  0.59455900  1
  O  O1  1  0.72152700  0.04573900  0.09455900  1
  O  O2  1  0.33157700  0.25000000  0.65788800  1
  O  O3  1  0.74450200  0.25000000  0.31616600  1
  O  O4  1  0.75549800  0.25000000  0.81616600  1
  O  O5  1  0.16842300  0.25000000  0.15788800  1
  O  O6  1  0.72152700  0.45426100  0.09455900  1
  O  O7  1  0.77847300  0.45426100  0.59455900  1
  O  O8  1  0.27847300  0.54573900  0.90544100  1
  O  O9  1  0.22152700  0.54573900  0.40544100  1
  O  O10  1  0.66842300  0.75000000  0.34211200  1
  O  O11  1  0.83157700  0.75000000  0.84211200  1
  O  O12  1  0.25549800  0.75000000  0.68383400  1
  O  O13  1  0.24450200  0.75000000  0.18383400  1
  O  O14  1  0.22152700  0.95426100  0.40544100  1
  O  O15  1  0.27847300  0.95426100  0.90544100  1
loop_
_geom_bond_atom_site_label_1
_geom_bond_atom_site_label_2
_geom_bond_distance
_geom_bond_site_symmetry_2
Li0 O2 1.960193 1_555
Li0 O12 1.989732 1_545
Li0 O14 1.990670 1_545
Li0 O0 2.010697 1_455
Li1 O5 1.960193 1_555
Li1 O13 1.989732 1_545
Li1 O15 1.990670 1_544
Li1 O1 2.010697 1_555
Li2 O5 1.960193 1_555
Li2 O13 1.989732 1_555
Li2 O8 1.990670 1_554
Li2 O6 2.010697 1_555
Li3 O2 1.960193 1_555
Li3 O12 1.989732 1_555
Li3 O9 1.990670 1_555
Li3 O7 2.010697 1_455
Li4 O11 1.960193 1_555
Li4 O4 1.989732 1_555
Li4 O6 1.990670 1_556
Li4 O8 2.010697 1_555
Li5 O10 1.960193 1_555
Li5 O3 1.989732 1_555
Li5 O7 1.990670 1_555
Li5 O9 2.010697 1_655
Li6 O11 1.960193 1_555
Li6 O4 1.989732 1_565
Li6 O1 1.990670 1_566
Li6 O15 2.010697 1_555
Li7 O10 1.960193 1_555
Li7 O3 1.989732 1_565
Li7 O0 1.990670 1_565
Li7 O14 2.010697 1_655
O0 Si0 1.648933 1_555
O0 V2 2.121617 1_545
O1 Si1 1.648933 1_555
O1 V3 2.121617 1_545
O2 Si0 1.656140 1_555
O2 V0 2.114408 1_555
O3 Si1 1.665849 1_555
O3 V1 2.179312 1_555
O4 Si0 1.665849 1_555
O4 V0 2.179312 1_655
O5 Si1 1.656140 1_455
O5 V1 2.114408 1_555
O6 Si1 1.648933 1_555
O6 V3 2.121617 1_555
O7 Si0 1.648933 1_555
O7 V2 2.121617 1_555
O8 Si3 1.648933 1_555
O8 V0 2.121617 1_555
O9 Si2 1.648933 1_555
O9 V1 2.121617 1_555
O10 Si2 1.656140 1_555
O10 V3 2.114408 1_555
O11 Si3 1.656140 1_655
O11 V2 2.114408 1_555
O12 Si3 1.665849 1_555
O12 V2 2.179312 1_555
O13 Si2 1.665849 1_555
O13 V3 2.179312 1_455
O14 Si2 1.648933 1_555
O14 V1 2.121617 1_565
O15 Si3 1.648933 1_555
O15 V0 2.121617 1_565
