# generated using pymatgen
data_Li3TiV2O6
_symmetry_space_group_name_H-M   'P 1'
_cell_length_a   2.94338510
_cell_length_b   6.01983518
_cell_length_c   13.16993882
_cell_angle_alpha   103.93498673
_cell_angle_beta   89.99740800
_cell_angle_gamma   90.00804416
_symmetry_Int_Tables_number   1
_chemical_formula_structural   Li3TiV2O6
_chemical_formula_sum   'Li6 Ti2 V4 O12'
_cell_volume   226.48640066
_cell_formula_units_Z   2
loop_
 _symmetry_equiv_pos_site_id
 _symmetry_equiv_pos_as_xyz
  1  'x, y, z'
loop_
 _atom_site_type_symbol
 _atom_site_label
 _atom_site_symmetry_multiplicity
 _atom_site_fract_x
 _atom_site_fract_y
 _atom_site_fract_z
 _atom_site_occupancy
  Li  Li0  1  0.49764800  0.83384300  0.16681400  1
  Li  Li1  1  0.99765400  0.83383900  0.66681600  1
  Li  Li2  1  0.49616600  0.50689000  0.49968700  1
  Li  Li3  1  0.99618600  0.50679600  0.99963400  1
  Li  Li4  1  0.99880200  0.15924900  0.33351400  1
  Li  Li5  1  0.49880400  0.15920500  0.83346900  1
  Ti  Ti0  1  0.49826000  0.33346100  0.16672000  1
  Ti  Ti1  1  0.99826600  0.33348200  0.66672800  1
  V  V0  1  0.49800600  0.67103000  0.83400800  1
  V  V1  1  0.49831200  0.99545500  0.49934500  1
  V  V2  1  0.99801400  0.67103600  0.33396900  1
  V  V3  1  0.99824700  0.99543300  0.99936400  1
  O  O0  1  0.49823300  0.24714400  0.01029500  1
  O  O1  1  0.99827900  0.24711200  0.51028800  1
  O  O2  1  0.49803500  0.41914800  0.32303500  1
  O  O3  1  0.99802600  0.41925900  0.82309300  1
  O  O4  1  0.49812400  0.90974800  0.33442600  1
  O  O5  1  0.99810200  0.90981900  0.83445600  1
  O  O6  1  0.99813600  0.75675900  0.49888500  1
  O  O7  1  0.49808500  0.75685600  0.99892700  1
  O  O8  1  0.99808800  0.56440500  0.16747900  1
  O  O9  1  0.49809200  0.56446900  0.66750800  1
  O  O10  1  0.99826100  0.10227900  0.16586700  1
  O  O11  1  0.49827200  0.10228000  0.66588000  1
loop_
_geom_bond_atom_site_label_1
_geom_bond_atom_site_label_2
_geom_bond_distance
_geom_bond_site_symmetry_2
Li0 O4 2.143775 1_555
Li0 O7 2.147099 1_554
Li0 O10 2.186862 1_465
Li0 O10 2.188984 1_565
Li0 O8 2.190687 1_455
Li0 O8 2.192733 1_555
Li1 O5 2.144120 1_555
Li1 O6 2.147648 1_555
Li1 O11 2.186848 1_565
Li1 O11 2.188989 1_665
Li1 O9 2.190453 1_555
Li1 O9 2.192491 1_655
Li2 O6 2.102322 1_455
Li2 O6 2.110129 1_555
Li2 O9 2.153171 1_555
Li2 O1 2.171897 1_455
Li2 O1 2.180614 1_555
Li2 O2 2.258261 1_555
Li3 O7 2.103070 1_555
Li3 O7 2.110583 1_655
Li3 O8 2.153467 1_556
Li3 O0 2.171658 1_556
Li3 O0 2.180114 1_656
Li3 O3 2.256855 1_555
Li4 O4 2.103647 1_645
Li4 O4 2.106142 1_545
Li4 O10 2.151219 1_555
Li4 O2 2.174726 1_655
Li4 O2 2.178084 1_555
Li4 O1 2.259809 1_555
Li5 O5 2.103278 1_545
Li5 O5 2.105873 1_445
Li5 O11 2.150488 1_555
Li5 O3 2.175069 1_555
Li5 O3 2.178471 1_455
Li5 O0 2.260470 1_556
O0 Ti0 1.999616 1_555
O0 V3 2.092085 1_444
O0 V3 2.092433 1_544
O1 Ti1 1.999811 1_555
O1 V1 2.091799 1_545
O1 V1 2.092226 1_645
O2 Ti0 1.998173 1_555
O2 V2 2.092821 1_555
O2 V2 2.093198 1_455
O3 Ti1 1.998816 1_555
O3 V0 2.092351 1_655
O3 V0 2.092724 1_555
O4 V2 2.055816 1_555
O4 V2 2.055991 1_455
O4 V1 2.108063 1_555
O5 V0 2.056189 1_655
O5 V0 2.056305 1_555
O5 V3 2.107924 1_555
O6 V1 2.055603 1_555
O6 V1 2.056056 1_655
O6 V2 2.108024 1_555
O7 V3 2.055182 1_455
O7 V3 2.055577 1_555
O7 V0 2.108061 1_555
O8 Ti0 2.022376 1_555
O8 Ti0 2.023396 1_655
O8 V2 2.131176 1_555
O9 Ti1 2.022505 1_455
O9 Ti1 2.023533 1_555
O9 V0 2.131280 1_555
O10 Ti0 2.023526 1_655
O10 Ti0 2.023814 1_555
O10 V3 2.131409 1_544
O11 Ti1 2.023609 1_555
O11 Ti1 2.023918 1_455
O11 V1 2.131805 1_545
