# generated using pymatgen
data_Li3MnV(PO4)3
_symmetry_space_group_name_H-M   'P 1'
_cell_length_a   8.36153900
_cell_length_b   8.43583741
_cell_length_c   9.24947497
_cell_angle_alpha   63.20100820
_cell_angle_beta   63.79914624
_cell_angle_gamma   60.47205196
_symmetry_Int_Tables_number   1
_chemical_formula_structural   Li3MnV(PO4)3
_chemical_formula_sum   'Li6 Mn2 V2 P6 O24'
_cell_volume   486.09133608
_cell_formula_units_Z   2
loop_
 _symmetry_equiv_pos_site_id
 _symmetry_equiv_pos_as_xyz
  1  'x, y, z'
loop_
 _atom_site_type_symbol
 _atom_site_label
 _atom_site_symmetry_multiplicity
 _atom_site_fract_x
 _atom_site_fract_y
 _atom_site_fract_z
 _atom_site_occupancy
  Li  Li0  1  0.06797300  0.33005700  0.85933300  1
  Li  Li1  1  0.44402700  0.74768900  0.62556400  1
  Li  Li2  1  0.53351100  0.26273600  0.40545900  1
  Li  Li3  1  0.25931900  0.92478500  0.14219900  1
  Li  Li4  1  0.70317900  0.25681100  0.08571400  1
  Li  Li5  1  0.94586900  0.69186900  0.11464400  1
  Mn  Mn0  1  0.85811500  0.84834700  0.43757200  1
  Mn  Mn1  1  0.13498800  0.14408400  0.56799400  1
  V  V0  1  0.34807000  0.34319400  0.96515000  1
  V  V1  1  0.66333400  0.66336700  0.02816100  1
  P  P0  1  0.73462300  0.46298200  0.75158600  1
  P  P1  1  0.05019300  0.73584000  0.75530300  1
  P  P2  1  0.45300800  0.05000000  0.76268300  1
  P  P3  1  0.54864200  0.95285100  0.24193700  1
  P  P4  1  0.94587300  0.26543500  0.24269500  1
  P  P5  1  0.27307300  0.53056400  0.24258900  1
  O  O0  1  0.78476200  0.48073000  0.89119700  1
  O  O1  1  0.87032400  0.26562700  0.73752300  1
  O  O2  1  0.51816800  0.48130700  0.82177300  1
  O  O3  1  0.16449900  0.51572900  0.83111800  1
  O  O4  1  0.85667800  0.78150100  0.90299000  1
  O  O5  1  0.49719800  0.84140400  0.89212000  1
  O  O6  1  0.73638100  0.63246100  0.59196600  1
  O  O7  1  0.16242600  0.84904900  0.73011200  1
  O  O8  1  0.01483300  0.76500400  0.59734400  1
  O  O9  1  0.46959800  0.17283300  0.83795300  1
  O  O10  1  0.24536800  0.12703700  0.76215500  1
  O  O11  1  0.59644500  0.04449400  0.59074400  1
  O  O12  1  0.41010800  0.95848800  0.41677100  1
  O  O13  1  0.75918100  0.86619300  0.24128600  1
  O  O14  1  0.51299800  0.83700100  0.17260700  1
  O  O15  1  0.97688500  0.22998900  0.40342000  1
  O  O16  1  0.82621000  0.15887600  0.26253100  1
  O  O17  1  0.25881600  0.37394100  0.41140500  1
  O  O18  1  0.51431600  0.16297800  0.11677700  1
  O  O19  1  0.13976600  0.20957200  0.10038700  1
  O  O20  1  0.83029800  0.48629200  0.16886900  1
  O  O21  1  0.49080600  0.50666200  0.16955800  1
  O  O22  1  0.14416700  0.73531000  0.24951700  1
  O  O23  1  0.21475700  0.50078000  0.11646600  1
loop_
_geom_bond_atom_site_label_1
_geom_bond_atom_site_label_2
_geom_bond_distance
_geom_bond_site_symmetry_2
Li0 O10 1.909979 1_555
Li0 O3 1.965787 1_555
Li0 O0 2.016143 1_455
Li0 O19 2.213968 1_556
Li1 O12 1.965224 1_555
Li1 O7 1.990198 1_555
Li1 O6 2.067979 1_555
Li1 O2 2.161144 1_555
Li2 O11 1.897307 1_555
Li2 O17 1.992430 1_555
Li2 O16 2.139842 1_555
Li2 O21 2.244504 1_555
Li3 O22 1.926020 1_555
Li3 O14 1.979255 1_555
Li3 O19 2.014159 1_565
Li3 O5 2.413874 1_554
Li4 O18 1.956872 1_555
Li4 O16 1.960899 1_555
Li4 O0 2.095781 1_554
Li4 O21 2.183066 1_555
Li5 O13 1.909799 1_555
Li5 O23 2.022442 1_655
Li5 O4 2.087838 1_554
Li5 O20 2.152318 1_555
Mn0 O8 2.064070 1_655
Mn0 O6 2.142574 1_555
Mn0 O13 2.227149 1_555
Mn0 O22 2.286792 1_655
Mn0 O11 2.310923 1_565
Mn0 O16 2.328689 1_565
Mn1 O15 2.104264 1_455
Mn1 O1 2.134567 1_455
Mn1 O7 2.207094 1_545
Mn1 O17 2.247654 1_555
Mn1 O10 2.279838 1_555
Mn1 O12 2.298460 1_545
O0 P0 1.606228 1_555
O0 V1 2.022816 1_556
O1 P0 1.509649 1_555
O2 P0 1.580582 1_555
O2 V0 1.927073 1_555
O3 P1 1.587903 1_555
O3 V0 1.965330 1_555
O4 P1 1.594017 1_655
O4 V1 1.960098 1_556
O5 P2 1.586315 1_565
O5 V1 1.884587 1_556
O6 P0 1.523876 1_555
O7 P1 1.528619 1_555
O8 P1 1.506056 1_555
O9 P2 1.566887 1_555
O9 V0 1.873922 1_555
O10 P2 1.526164 1_555
O11 P2 1.515654 1_555
O12 P3 1.523178 1_555
O13 P3 1.536113 1_555
O14 P3 1.573574 1_555
O14 V1 1.994335 1_555
O15 P4 1.493263 1_555
O16 P4 1.555178 1_555
O17 P5 1.525981 1_555
O18 P3 1.583093 1_545
O18 V0 1.981491 1_554
O19 P4 1.582698 1_455
O19 V0 2.146831 1_554
O20 P4 1.591277 1_555
O20 V1 1.915732 1_555
O21 P5 1.576862 1_555
O21 V1 2.047881 1_555
O22 P5 1.533909 1_555
O23 P5 1.596604 1_555
O23 V0 1.951426 1_554
