# generated using pymatgen
data_Mn2OF2
_symmetry_space_group_name_H-M   'P 1'
_cell_length_a   5.49607574
_cell_length_b   5.83164199
_cell_length_c   5.49607841
_cell_angle_alpha   94.52456975
_cell_angle_beta   115.66267440
_cell_angle_gamma   117.09918740
_symmetry_Int_Tables_number   1
_chemical_formula_structural   Mn2OF2
_chemical_formula_sum   'Mn4 O2 F4'
_cell_volume   132.71319770
_cell_formula_units_Z   2
loop_
 _symmetry_equiv_pos_site_id
 _symmetry_equiv_pos_as_xyz
  1  'x, y, z'
loop_
 _atom_site_type_symbol
 _atom_site_label
 _atom_site_symmetry_multiplicity
 _atom_site_fract_x
 _atom_site_fract_y
 _atom_site_fract_z
 _atom_site_occupancy
  Mn  Mn0  1  0.22382400  0.91653200  0.56843700  1
  Mn  Mn1  1  0.69850300  0.05862700  0.33625100  1
  Mn  Mn2  1  0.34810400  0.41653200  0.19272600  1
  Mn  Mn3  1  0.72232700  0.55860700  0.86010800  1
  O  O0  1  0.51852200  0.24288100  0.48118000  1
  O  O1  1  0.76170200  0.74288800  0.22435400  1
  F  F0  1  0.19829100  0.79472500  0.92458200  1
  F  F1  1  0.87018400  0.29477900  0.09652800  1
  F  F2  1  0.17182200  0.23720600  0.75046600  1
  F  F3  1  0.48671800  0.73722000  0.56536600  1
loop_
_geom_bond_atom_site_label_1
_geom_bond_atom_site_label_2
_geom_bond_distance
_geom_bond_site_symmetry_2
Mn0 O1 2.060834 1_455
Mn0 O0 2.117490 1_565
Mn1 O0 2.069617 1_555
Mn1 O1 2.116179 1_545
Mn2 O0 2.060938 1_555
Mn2 O1 2.117470 1_555
Mn3 O1 2.069511 1_556
Mn3 O0 2.116015 1_555
F0 Mn3 2.168672 1_455
F0 Mn0 2.173052 1_555
F0 Mn1 2.292180 1_566
F1 Mn1 2.168400 1_555
F1 Mn2 2.172996 1_655
F1 Mn3 2.292558 1_554
F2 Mn2 2.139319 1_556
F2 Mn0 2.240337 1_545
F2 Mn1 2.250061 1_455
F2 Mn3 2.471139 1_555
F3 Mn0 2.139227 1_555
F3 Mn2 2.240224 1_555
F3 Mn3 2.250356 1_555
F3 Mn1 2.471416 1_565
