# generated using pymatgen
data_LiCrPO4
_symmetry_space_group_name_H-M   'P 1'
_cell_length_a   8.70664677
_cell_length_b   8.70664677
_cell_length_c   8.70664620
_cell_angle_alpha   107.56171035
_cell_angle_beta   107.56171035
_cell_angle_gamma   107.56171500
_symmetry_Int_Tables_number   1
_chemical_formula_structural   LiCrPO4
_chemical_formula_sum   'Li6 Cr6 P6 O24'
_cell_volume   541.02208305
_cell_formula_units_Z   6
loop_
 _symmetry_equiv_pos_site_id
 _symmetry_equiv_pos_as_xyz
  1  'x, y, z'
loop_
 _atom_site_type_symbol
 _atom_site_label
 _atom_site_symmetry_multiplicity
 _atom_site_fract_x
 _atom_site_fract_y
 _atom_site_fract_z
 _atom_site_occupancy
  Li  Li0  1  0.92720400  0.14660300  0.33394900  1
  Li  Li1  1  0.85435100  0.61710100  0.44937000  1
  Li  Li2  1  0.61710100  0.44937000  0.85435100  1
  Li  Li3  1  0.14660300  0.33394900  0.92720400  1
  Li  Li4  1  0.44937000  0.85435100  0.61710100  1
  Li  Li5  1  0.33394900  0.92720400  0.14660300  1
  Cr  Cr0  1  0.76972800  0.18433200  0.95251400  1
  Cr  Cr1  1  0.65811500  0.26328800  0.49682100  1
  Cr  Cr2  1  0.95251400  0.76972800  0.18433200  1
  Cr  Cr3  1  0.49682100  0.65811500  0.26328800  1
  Cr  Cr4  1  0.26328800  0.49682100  0.65811500  1
  Cr  Cr5  1  0.18433200  0.95251400  0.76972800  1
  P  P0  1  0.82518300  0.00430500  0.59728500  1
  P  P1  1  0.51071800  0.29843500  0.11368600  1
  P  P2  1  0.29843500  0.11368700  0.51071800  1
  P  P3  1  0.59728500  0.82518300  0.00430500  1
  P  P4  1  0.11368600  0.51071800  0.29843500  1
  P  P5  1  0.00430500  0.59728500  0.82518300  1
  O  O0  1  0.73581000  0.02132100  0.07954200  1
  O  O1  1  0.80866200  0.12367100  0.49701200  1
  O  O2  1  0.70492300  0.00684000  0.69810700  1
  O  O3  1  0.02048900  0.63771800  0.32837200  1
  O  O4  1  0.80874600  0.45897200  0.75988900  1
  O  O5  1  0.63771800  0.32837200  0.02048900  1
  O  O6  1  0.39832500  0.07148100  0.39323400  1
  O  O7  1  0.62904500  0.38707100  0.32036000  1
  O  O8  1  0.38998600  0.09731400  0.04243800  1
  O  O9  1  0.09731400  0.04243800  0.38998600  1
  O  O10  1  0.38707100  0.32036000  0.62904500  1
  O  O11  1  0.69810700  0.70492300  0.00684000  1
  O  O12  1  0.39323400  0.39832500  0.07148100  1
  O  O13  1  0.75988900  0.80874600  0.45897200  1
  O  O14  1  0.02132100  0.07954200  0.73581000  1
  O  O15  1  0.45897200  0.75988900  0.80874600  1
  O  O16  1  0.07148100  0.39323400  0.39832500  1
  O  O17  1  0.49701200  0.80866200  0.12367100  1
  O  O18  1  0.04243800  0.38998600  0.09731400  1
  O  O19  1  0.32036000  0.62904500  0.38707100  1
  O  O20  1  0.12367100  0.49701200  0.80866200  1
  O  O21  1  0.07954200  0.73581000  0.02132100  1
  O  O22  1  0.32837200  0.02048900  0.63771800  1
  O  O23  1  0.00684000  0.69810700  0.70492300  1
loop_
_geom_bond_atom_site_label_1
_geom_bond_atom_site_label_2
_geom_bond_distance
_geom_bond_site_symmetry_2
Li0 O16 1.929804 1_655
Li0 O9 1.973761 1_655
Li0 O1 2.012886 1_555
Li0 O0 2.022533 1_555
Li1 O23 1.978898 1_655
Li1 O7 2.015639 1_555
Li1 O3 2.027675 1_655
Li1 O13 2.062292 1_555
Li2 O11 1.978898 1_556
Li2 O10 2.015639 1_555
Li2 O5 2.027675 1_556
Li2 O4 2.062292 1_555
Li3 O12 1.929804 1_556
Li3 O18 1.973760 1_556
Li3 O20 2.012886 1_555
Li3 O14 2.022533 1_555
Li4 O2 1.978898 1_565
Li4 O19 2.015639 1_555
Li4 O22 2.027675 1_565
Li4 O15 2.062292 1_555
Li5 O6 1.929804 1_565
Li5 O8 1.973760 1_565
Li5 O17 2.012886 1_555
Li5 O21 2.022533 1_555
Cr0 O5 2.019041 1_556
Cr0 O0 2.053340 1_556
Cr0 O2 2.065621 1_555
Cr0 O18 2.167698 1_656
Cr1 O1 2.038923 1_555
Cr1 O6 2.073402 1_555
Cr1 O4 2.086337 1_555
Cr1 O7 2.124905 1_555
Cr2 O3 2.019041 1_655
Cr2 O21 2.053340 1_655
Cr2 O11 2.065621 1_555
Cr2 O9 2.167698 1_665
Cr3 O17 2.038923 1_555
Cr3 O12 2.073402 1_555
Cr3 O13 2.086337 1_555
Cr3 O19 2.124905 1_555
Cr4 O20 2.038923 1_555
Cr4 O16 2.073402 1_555
Cr4 O15 2.086337 1_555
Cr4 O10 2.124905 1_555
Cr5 O22 2.019041 1_565
Cr5 O14 2.053340 1_565
Cr5 O23 2.065621 1_555
Cr5 O8 2.167698 1_566
O0 P3 1.550884 1_545
O1 P0 1.557230 1_555
O2 P0 1.557021 1_555
O3 P4 1.563391 1_555
O4 P5 1.561355 1_655
O5 P1 1.563391 1_555
O6 P2 1.562247 1_555
O7 P1 1.567922 1_555
O8 P1 1.547988 1_555
O9 P2 1.547987 1_555
O10 P2 1.567916 1_555
O11 P3 1.557021 1_555
O12 P1 1.562246 1_555
O13 P0 1.561355 1_565
O14 P0 1.550884 1_455
O15 P3 1.561355 1_556
O16 P4 1.562245 1_555
O17 P3 1.557230 1_555
O18 P4 1.547988 1_555
O19 P4 1.567923 1_555
O20 P5 1.557230 1_555
O21 P5 1.550884 1_554
O22 P2 1.563398 1_555
O23 P5 1.557021 1_555
