# generated using pymatgen
data_Li32Ti3Cr13O48
_symmetry_space_group_name_H-M   'P 1'
_cell_length_a   5.05447300
_cell_length_b   8.74335811
_cell_length_c   19.54708124
_cell_angle_alpha   97.99953062
_cell_angle_beta   94.93879759
_cell_angle_gamma   89.58071161
_symmetry_Int_Tables_number   1
_chemical_formula_structural   Li32Ti3Cr13O48
_chemical_formula_sum   'Li32 Ti3 Cr13 O48'
_cell_volume   852.25400939
_cell_formula_units_Z   1
loop_
 _symmetry_equiv_pos_site_id
 _symmetry_equiv_pos_as_xyz
  1  'x, y, z'
loop_
 _atom_site_type_symbol
 _atom_site_label
 _atom_site_symmetry_multiplicity
 _atom_site_fract_x
 _atom_site_fract_y
 _atom_site_fract_z
 _atom_site_occupancy
  Li  Li0  1  0.99083900  0.16897500  0.24927300  1
  Li  Li1  1  0.87448500  0.37497500  0.37529400  1
  Li  Li2  1  0.74954800  0.25131500  0.00025400  1
  Li  Li3  1  0.74098300  0.92054700  0.00072500  1
  Li  Li4  1  0.99169000  0.16904100  0.74993300  1
  Li  Li5  1  0.75421400  0.57827900  0.50052300  1
  Li  Li6  1  0.87369800  0.37497300  0.87580400  1
  Li  Li7  1  0.74235000  0.25156400  0.50043700  1
  Li  Li8  1  0.74440300  0.92207700  0.50020900  1
  Li  Li9  1  0.62524900  0.12488500  0.12506900  1
  Li  Li10  1  0.75736700  0.57814500  0.00050200  1
  Li  Li11  1  0.50907800  0.32924900  0.25040200  1
  Li  Li12  1  0.62600700  0.12591000  0.62524500  1
  Li  Li13  1  0.49264500  0.00083400  0.25034400  1
  Li  Li14  1  0.49385500  0.67134700  0.25010700  1
  Li  Li15  1  0.51492100  0.33050100  0.75042200  1
  Li  Li16  1  0.37491500  0.87591400  0.37478300  1
  Li  Li17  1  0.49031200  0.00289600  0.75001000  1
  Li  Li18  1  0.24675500  0.75277900  0.99995300  1
  Li  Li19  1  0.49173700  0.66885700  0.74959400  1
  Li  Li20  1  0.24217500  0.41824500  0.99944100  1
  Li  Li21  1  0.37451800  0.87549800  0.87505400  1
  Li  Li22  1  0.26237500  0.08108600  0.49948800  1
  Li  Li23  1  0.24900800  0.74982500  0.49946400  1
  Li  Li24  1  0.12502300  0.62487300  0.12503200  1
  Li  Li25  1  0.24445600  0.41898500  0.49955000  1
  Li  Li26  1  0.00994800  0.83050300  0.24966100  1
  Li  Li27  1  0.26143700  0.08107100  0.00005400  1
  Li  Li28  1  0.12751200  0.62436600  0.62400800  1
  Li  Li29  1  0.00067600  0.49874500  0.24947800  1
  Li  Li30  1  0.00871500  0.83024100  0.75030500  1
  Li  Li31  1  0.00077800  0.49880400  0.74998500  1
  Ti  Ti0  1  0.87664800  0.03840700  0.37412200  1
  Ti  Ti1  1  0.87429100  0.03744900  0.87348200  1
  Ti  Ti2  1  0.13015300  0.28880400  0.62664100  1
  Cr  Cr0  1  0.87507900  0.70304100  0.37456900  1
  Cr  Cr1  1  0.87697600  0.70287900  0.87529700  1
  Cr  Cr2  1  0.63154500  0.78944000  0.12475700  1
  Cr  Cr3  1  0.61838600  0.46028700  0.12537300  1
  Cr  Cr4  1  0.62067500  0.79674500  0.62388800  1
  Cr  Cr5  1  0.62963800  0.46198800  0.62526700  1
  Cr  Cr6  1  0.37862400  0.54858600  0.37571400  1
  Cr  Cr7  1  0.37084600  0.21279800  0.37454400  1
  Cr  Cr8  1  0.38115800  0.54741400  0.87646100  1
  Cr  Cr9  1  0.36896600  0.21174300  0.87505800  1
  Cr  Cr10  1  0.11791900  0.96024400  0.12533000  1
  Cr  Cr11  1  0.13137400  0.28972000  0.12490600  1
  Cr  Cr12  1  0.12004100  0.95228800  0.62419500  1
  O  O0  1  0.96617300  0.10128700  0.06828700  1
  O  O1  1  0.91893700  0.78319800  0.06873200  1
  O  O2  1  0.92626600  0.42722300  0.06868600  1
  O  O3  1  0.96536600  0.10417200  0.56856500  1
  O  O4  1  0.83038400  0.96683800  0.18121700  1
  O  O5  1  0.82467200  0.32285900  0.18176400  1
  O  O6  1  0.93557900  0.78805700  0.56854000  1
  O  O7  1  0.91936800  0.42899000  0.56737600  1
  O  O8  1  0.78450200  0.64861400  0.18164500  1
  O  O9  1  0.71405000  0.85363600  0.31854300  1
  O  O10  1  0.81325000  0.95851300  0.68103000  1
  O  O11  1  0.82724700  0.32075200  0.68398400  1
  O  O12  1  0.68764300  0.53852900  0.31886000  1
  O  O13  1  0.67236900  0.17872300  0.31741000  1
  O  O14  1  0.78340400  0.64025400  0.67970000  1
  O  O15  1  0.71327900  0.85324800  0.81855900  1
  O  O16  1  0.46579200  0.60129800  0.06885600  1
  O  O17  1  0.56515400  0.71139100  0.43127500  1
  O  O18  1  0.57117300  0.07355900  0.43260400  1
  O  O19  1  0.68742400  0.53904600  0.81920700  1
  O  O20  1  0.67431000  0.17976100  0.81794400  1
  O  O21  1  0.42677300  0.92649800  0.06853600  1
  O  O22  1  0.41875400  0.28355800  0.06902800  1
  O  O23  1  0.53539300  0.39649700  0.43043700  1
  O  O24  1  0.46258500  0.61216700  0.56865600  1
  O  O25  1  0.56454400  0.71216200  0.93152400  1
  O  O26  1  0.57007500  0.07454900  0.93252200  1
  O  O27  1  0.32292300  0.82360900  0.18156000  1
  O  O28  1  0.33205800  0.46633000  0.18176600  1
  O  O29  1  0.43312700  0.92505000  0.56694200  1
  O  O30  1  0.43286800  0.28769900  0.56915700  1
  O  O31  1  0.53609500  0.39743500  0.93142700  1
  O  O32  1  0.28453800  0.14865600  0.18147100  1
  O  O33  1  0.21654200  0.35807800  0.31975500  1
  O  O34  1  0.31362100  0.82512100  0.68204600  1
  O  O35  1  0.32576300  0.46631800  0.68117200  1
  O  O36  1  0.18368400  0.67307400  0.31706800  1
  O  O37  1  0.17705400  0.03433900  0.31766000  1
  O  O38  1  0.28698200  0.13892600  0.68130600  1
  O  O39  1  0.21699600  0.35581000  0.81986300  1
  O  O40  1  0.06533100  0.57509700  0.43220600  1
  O  O41  1  0.07901700  0.21583300  0.43125500  1
  O  O42  1  0.18387100  0.67213900  0.81744600  1
  O  O43  1  0.17550600  0.03319200  0.81768600  1
  O  O44  1  0.03619600  0.88951500  0.43124300  1
  O  O45  1  0.06604900  0.57496400  0.93264400  1
  O  O46  1  0.07860000  0.21667700  0.93131400  1
  O  O47  1  0.03472000  0.88961900  0.93151400  1
loop_
_geom_bond_atom_site_label_1
_geom_bond_atom_site_label_2
_geom_bond_distance
_geom_bond_site_symmetry_2
Li0 O32 2.064256 1_655
Li0 O37 2.064871 1_655
Li0 O5 2.131626 1_555
Li0 O13 2.169756 1_555
Li0 O4 2.175272 1_545
Li0 O33 2.248609 1_655
Li1 O23 2.095645 1_555
Li1 O12 2.096089 1_555
Li1 O41 2.099825 1_655
Li1 O33 2.112905 1_655
Li1 O40 2.127867 1_655
Li1 O13 2.134111 1_555
Li2 O2 2.048028 1_555
Li2 O26 2.051497 1_554
Li2 O31 2.194204 1_554
Li2 O0 2.214007 1_555
Li2 O46 2.222343 1_654
Li2 O22 2.226406 1_555
Li3 O1 2.059357 1_555
Li3 O47 2.084665 1_654
Li3 O26 2.149637 1_564
Li3 O21 2.150351 1_555
Li3 O0 2.173369 1_565
Li3 O25 2.252731 1_554
Li4 O43 2.058593 1_655
Li4 O38 2.082597 1_655
Li4 O11 2.094628 1_555
Li4 O20 2.163302 1_555
Li4 O39 2.229331 1_655
Li4 O10 2.267341 1_545
Li5 O24 2.063018 1_555
Li5 O17 2.073501 1_555
Li5 O7 2.092670 1_555
Li5 O40 2.146513 1_655
Li5 O23 2.187479 1_555
Li5 O6 2.260130 1_555
Li6 O46 2.090226 1_655
Li6 O31 2.094673 1_555
Li6 O19 2.100216 1_555
Li6 O20 2.121235 1_555
Li6 O39 2.122762 1_655
Li6 O45 2.129651 1_655
Li7 O7 2.042774 1_555
Li7 O18 2.043713 1_555
Li7 O30 2.141865 1_555
Li7 O23 2.188383 1_555
Li7 O3 2.214217 1_555
Li7 O41 2.256742 1_655
Li8 O6 2.070662 1_555
Li8 O44 2.074360 1_655
Li8 O29 2.126253 1_555
Li8 O18 2.130283 1_565
Li8 O3 2.178190 1_565
Li8 O17 2.270067 1_555
Li9 O4 2.096279 1_545
Li9 O22 2.102136 1_555
Li9 O32 2.117136 1_555
Li9 O0 2.122325 1_555
Li9 O21 2.130107 1_545
Li9 O5 2.130650 1_555
Li10 O16 2.063386 1_555
Li10 O25 2.082695 1_554
Li10 O2 2.126853 1_555
Li10 O45 2.130707 1_654
Li10 O31 2.177714 1_554
Li10 O1 2.197352 1_555
Li11 O28 2.064518 1_555
Li11 O33 2.081393 1_555
Li11 O13 2.099213 1_555
Li11 O5 2.166583 1_555
Li11 O32 2.183468 1_555
Li11 O12 2.255697 1_555
Li12 O30 2.093607 1_555
Li12 O38 2.106170 1_555
Li12 O3 2.114156 1_555
Li12 O10 2.114982 1_545
Li12 O11 2.129541 1_555
Li12 O29 2.147126 1_545
Li13 O27 2.045906 1_545
Li13 O13 2.052075 1_555
Li13 O37 2.146858 1_555
Li13 O32 2.193146 1_555
Li13 O9 2.210305 1_545
Li13 O4 2.259712 1_545
Li14 O8 2.061244 1_555
Li14 O12 2.074891 1_555
Li14 O36 2.125734 1_555
Li14 O27 2.143453 1_555
Li14 O9 2.178221 1_555
Li14 O28 2.198497 1_555
Li15 O35 2.089147 1_555
Li15 O20 2.100870 1_555
Li15 O39 2.102969 1_555
Li15 O11 2.122767 1_555
Li15 O19 2.243171 1_555
Li15 O38 2.255803 1_555
Li16 O37 2.093694 1_565
Li16 O9 2.108257 1_555
Li16 O44 2.109280 1_555
Li16 O17 2.110035 1_555
Li16 O18 2.129822 1_565
Li16 O36 2.152387 1_555
Li17 O34 2.054214 1_545
Li17 O20 2.063122 1_555
Li17 O38 2.112670 1_555
Li17 O43 2.147261 1_555
Li17 O10 2.203872 1_545
Li17 O15 2.232456 1_545
Li18 O21 2.043426 1_556
Li18 O45 2.055951 1_555
Li18 O47 2.132976 1_555
Li18 O25 2.173635 1_555
Li18 O1 2.213886 1_456
Li18 O16 2.238791 1_556
Li19 O19 2.073589 1_555
Li19 O14 2.085365 1_555
Li19 O42 2.127318 1_555
Li19 O34 2.167948 1_555
Li19 O35 2.190404 1_555
Li19 O15 2.198171 1_555
Li20 O22 2.062762 1_556
Li20 O31 2.067956 1_555
Li20 O45 2.157516 1_555
Li20 O2 2.174529 1_456
Li20 O46 2.177492 1_555
Li20 O16 2.199578 1_556
Li21 O43 2.094315 1_565
Li21 O25 2.101562 1_555
Li21 O15 2.109523 1_555
Li21 O47 2.113856 1_555
Li21 O26 2.134863 1_565
Li21 O42 2.153832 1_555
Li22 O41 2.057761 1_555
Li22 O3 2.094357 1_455
Li22 O18 2.115568 1_555
Li22 O29 2.152243 1_545
Li22 O30 2.235305 1_555
Li22 O44 2.244003 1_545
Li23 O40 2.043481 1_555
Li23 O29 2.049410 1_555
Li23 O44 2.148054 1_555
Li23 O24 2.150797 1_555
Li23 O17 2.162682 1_555
Li23 O6 2.163228 1_455
Li24 O1 2.101890 1_455
Li24 O28 2.110278 1_555
Li24 O16 2.114808 1_555
Li24 O8 2.118691 1_455
Li24 O2 2.124588 1_455
Li24 O27 2.131092 1_555
Li25 O30 2.066741 1_555
Li25 O23 2.071259 1_555
Li25 O40 2.166204 1_555
Li25 O41 2.192242 1_555
Li25 O7 2.192271 1_455
Li25 O24 2.242539 1_555
Li26 O4 2.062415 1_455
Li26 O9 2.087383 1_455
Li26 O27 2.148721 1_555
Li26 O36 2.165582 1_555
Li26 O8 2.184580 1_455
Li26 O37 2.196771 1_565
Li27 O46 2.068531 1_554
Li27 O0 2.076216 1_455
Li27 O26 2.124081 1_554
Li27 O21 2.147368 1_545
Li27 O22 2.180837 1_555
Li27 O47 2.247152 1_544
Li28 O24 2.081136 1_555
Li28 O35 2.092593 1_555
Li28 O6 2.096554 1_455
Li28 O14 2.123648 1_455
Li28 O34 2.130510 1_555
Li28 O7 2.133025 1_455
Li29 O5 2.039368 1_455
Li29 O36 2.043071 1_555
Li29 O12 2.166528 1_455
Li29 O33 2.186949 1_555
Li29 O8 2.209570 1_455
Li29 O28 2.215406 1_555
Li30 O10 2.060023 1_455
Li30 O15 2.077083 1_455
Li30 O34 2.119858 1_555
Li30 O42 2.168885 1_555
Li30 O43 2.185048 1_565
Li30 O14 2.253880 1_455
Li31 O11 2.030622 1_455
Li31 O42 2.036250 1_555
Li31 O19 2.165994 1_455
Li31 O14 2.194845 1_455
Li31 O39 2.195787 1_555
Li31 O35 2.203508 1_555
Cr0 O12 1.886443 1_555
Cr0 O40 1.895765 1_655
Cr0 O9 1.956452 1_555
Cr0 O44 1.977383 1_655
Cr0 O17 1.990649 1_555
Cr0 O36 1.994740 1_655
Cr1 O45 1.889322 1_655
Cr1 O19 1.890507 1_555
Cr1 O15 1.968513 1_555
Cr1 O47 1.969235 1_655
Cr1 O42 1.992114 1_655
Cr1 O25 1.995119 1_555
Cr2 O1 1.889042 1_555
Cr2 O8 1.889299 1_555
Cr2 O21 1.966606 1_555
Cr2 O27 1.988599 1_555
Cr2 O16 1.991016 1_555
Cr2 O4 1.997307 1_555
Cr3 O16 1.885170 1_555
Cr3 O28 1.889378 1_555
Cr3 O5 1.974434 1_555
Cr3 O2 1.983485 1_555
Cr3 O22 1.994151 1_555
Cr3 O8 1.995822 1_555
Cr4 O29 1.883203 1_555
Cr4 O10 1.894410 1_555
Cr4 O24 1.947802 1_555
Cr4 O6 1.995381 1_555
Cr4 O34 1.995559 1_555
Cr4 O14 1.995830 1_555
Cr5 O14 1.891900 1_555
Cr5 O7 1.922655 1_555
Cr5 O35 1.957372 1_555
Cr5 O30 1.970650 1_555
Cr5 O24 1.972037 1_555
Cr5 O11 2.004721 1_555
Cr6 O17 1.872886 1_555
Cr6 O36 1.899158 1_555
Cr6 O23 1.942911 1_555
Cr6 O12 1.987983 1_555
Cr6 O33 2.000170 1_555
Cr6 O40 2.001286 1_555
Cr7 O33 1.894482 1_555
Cr7 O41 1.917833 1_555
Cr7 O23 1.959532 1_555
Cr7 O13 1.962784 1_555
Cr7 O18 1.990982 1_555
Cr7 O37 1.995592 1_555
Cr8 O25 1.873176 1_555
Cr8 O42 1.910622 1_555
Cr8 O31 1.928593 1_555
Cr8 O19 1.981929 1_555
Cr8 O45 2.005679 1_555
Cr8 O39 2.016279 1_555
Cr9 O39 1.887357 1_555
Cr9 O46 1.904944 1_555
Cr9 O26 1.973432 1_555
Cr9 O20 1.977366 1_555
Cr9 O31 1.981301 1_555
Cr9 O43 1.999303 1_555
Cr10 O4 1.887731 1_455
Cr10 O0 1.890485 1_465
Cr10 O27 1.964742 1_555
Cr10 O21 1.989224 1_555
Cr10 O32 1.996324 1_565
Cr10 O1 1.996562 1_455
Cr11 O32 1.887133 1_555
Cr11 O22 1.887190 1_555
Cr11 O2 1.970058 1_455
Cr11 O5 1.980608 1_455
Cr11 O0 1.997495 1_455
Cr11 O28 1.999947 1_555
Cr12 O6 1.877460 1_455
Cr12 O34 1.901544 1_555
Cr12 O3 1.948725 1_465
Cr12 O10 1.979979 1_455
Cr12 O38 1.993007 1_565
Cr12 O29 2.009643 1_555
O3 Ti2 1.983745 1_655
O7 Ti2 2.035443 1_655
O9 Ti0 1.960309 1_565
O11 Ti2 1.969912 1_655
O13 Ti0 1.990735 1_555
O15 Ti1 1.948391 1_565
O18 Ti0 1.996101 1_555
O20 Ti1 1.979171 1_555
O26 Ti1 1.998875 1_555
O30 Ti2 1.973970 1_555
O35 Ti2 1.975646 1_555
O37 Ti0 1.949794 1_455
O38 Ti2 1.927710 1_555
O41 Ti0 2.011053 1_455
O43 Ti1 1.944900 1_455
O44 Ti0 1.955991 1_465
O46 Ti1 2.032145 1_455
O47 Ti1 1.961963 1_465
