# generated using pymatgen
data_LiMn2(BO3)2
_symmetry_space_group_name_H-M   'P 1'
_cell_length_a   5.30062600
_cell_length_b   9.11041117
_cell_length_c   10.55596851
_cell_angle_alpha   100.21087679
_cell_angle_beta   100.94405470
_cell_angle_gamma   89.90257008
_symmetry_Int_Tables_number   1
_chemical_formula_structural   LiMn2(BO3)2
_chemical_formula_sum   'Li4 Mn8 B8 O24'
_cell_volume   492.28996756
_cell_formula_units_Z   4
loop_
 _symmetry_equiv_pos_site_id
 _symmetry_equiv_pos_as_xyz
  1  'x, y, z'
loop_
 _atom_site_type_symbol
 _atom_site_label
 _atom_site_symmetry_multiplicity
 _atom_site_fract_x
 _atom_site_fract_y
 _atom_site_fract_z
 _atom_site_occupancy
  Li  Li0  1  0.99073300  0.61718800  0.16782900  1
  Li  Li1  1  0.26047500  0.13482700  0.33371800  1
  Li  Li2  1  0.73952500  0.86517300  0.66628200  1
  Li  Li3  1  0.00926700  0.38281200  0.83217100  1
  Mn  Mn0  1  0.97285400  0.25476800  0.12640800  1
  Mn  Mn1  1  0.47633600  0.76020500  0.12417400  1
  Mn  Mn2  1  0.77248000  0.98669300  0.37222500  1
  Mn  Mn3  1  0.27614100  0.49749300  0.37665800  1
  Mn  Mn4  1  0.72385900  0.50250700  0.62334200  1
  Mn  Mn5  1  0.22752000  0.01330700  0.62777500  1
  Mn  Mn6  1  0.52366400  0.23979500  0.87582600  1
  Mn  Mn7  1  0.02714600  0.74523200  0.87359200  1
  B  B0  1  0.99207400  0.92793600  0.13047900  1
  B  B1  1  0.48670700  0.43578400  0.12527000  1
  B  B2  1  0.76304200  0.31311900  0.37502100  1
  B  B3  1  0.25898600  0.82247800  0.36934800  1
  B  B4  1  0.74101400  0.17752200  0.63065200  1
  B  B5  1  0.23695800  0.68688100  0.62497900  1
  B  B6  1  0.51329300  0.56421600  0.87473000  1
  B  B7  1  0.00792600  0.07206400  0.86952100  1
  O  O0  1  0.57180900  0.29660100  0.07230000  1
  O  O1  1  0.63725500  0.56014100  0.13663700  1
  O  O2  1  0.13478300  0.05444200  0.14576300  1
  O  O3  1  0.99914500  0.31093300  0.33282800  1
  O  O4  1  0.76325800  0.92389800  0.17489900  1
  O  O5  1  0.25274200  0.44208900  0.17146300  1
  O  O6  1  0.08186400  0.78698000  0.07973100  1
  O  O7  1  0.61615700  0.18830000  0.36458000  1
  O  O8  1  0.66865400  0.45121800  0.42497300  1
  O  O9  1  0.48339400  0.82208700  0.31934200  1
  O  O10  1  0.82376600  0.03629900  0.57690300  1
  O  O11  1  0.11264400  0.69613200  0.35506800  1
  O  O12  1  0.88735600  0.30386800  0.64493200  1
  O  O13  1  0.17623400  0.96370100  0.42309700  1
  O  O14  1  0.51660600  0.17791300  0.68065800  1
  O  O15  1  0.33134600  0.54878200  0.57502700  1
  O  O16  1  0.38384300  0.81170000  0.63542000  1
  O  O17  1  0.91813600  0.21302000  0.92026900  1
  O  O18  1  0.74725800  0.55791100  0.82853700  1
  O  O19  1  0.23674200  0.07610200  0.82510100  1
  O  O20  1  0.00085500  0.68906700  0.66717200  1
  O  O21  1  0.86521700  0.94555800  0.85423700  1
  O  O22  1  0.36274500  0.43985900  0.86336300  1
  O  O23  1  0.42819100  0.70339900  0.92770000  1
loop_
_geom_bond_atom_site_label_1
_geom_bond_atom_site_label_2
_geom_bond_distance
_geom_bond_site_symmetry_2
Li0 O1 1.896708 1_555
Li0 O11 1.963158 1_655
Li0 O6 2.043066 1_655
Li0 O5 2.113987 1_655
Li1 O7 1.900420 1_555
Li1 O2 1.975157 1_555
Li1 O13 2.050354 1_545
Li1 O3 2.117980 1_455
Li2 O16 1.900420 1_555
Li2 O21 1.975157 1_555
Li2 O10 2.050354 1_565
Li2 O20 2.117980 1_655
Li3 O22 1.896708 1_555
Li3 O12 1.963158 1_455
Li3 O17 2.043066 1_455
Li3 O18 2.113987 1_455
Mn0 O2 2.041952 1_655
Mn0 O17 2.105007 1_554
Mn0 O3 2.125740 1_555
Mn0 O0 2.145660 1_555
Mn0 O5 2.189185 1_655
Mn1 O23 2.013272 1_554
Mn1 O1 2.025857 1_555
Mn1 O9 2.030424 1_555
Mn1 O4 2.058918 1_555
Mn1 O6 2.077988 1_555
Mn2 O7 2.022039 1_565
Mn2 O4 2.051188 1_555
Mn2 O9 2.072385 1_555
Mn2 O10 2.092233 1_565
Mn2 O13 2.124727 1_655
Mn3 O15 2.027217 1_555
Mn3 O11 2.035644 1_555
Mn3 O8 2.106404 1_555
Mn3 O5 2.114813 1_555
Mn3 O3 2.174936 1_455
Mn4 O8 2.027217 1_555
Mn4 O12 2.035644 1_555
Mn4 O15 2.106404 1_555
Mn4 O18 2.114813 1_555
Mn4 O20 2.174936 1_655
Mn5 O16 2.022039 1_545
Mn5 O19 2.051188 1_555
Mn5 O14 2.072385 1_555
Mn5 O13 2.092233 1_545
Mn5 O10 2.124727 1_455
Mn6 O0 2.013272 1_556
Mn6 O22 2.025857 1_555
Mn6 O14 2.030424 1_555
Mn6 O19 2.058918 1_555
Mn6 O17 2.077988 1_555
Mn7 O21 2.041952 1_455
Mn7 O6 2.105007 1_556
Mn7 O20 2.125740 1_555
Mn7 O23 2.145660 1_555
Mn7 O18 2.189185 1_455
B0 O2 1.348053 1_665
B0 O4 1.383645 1_555
B0 O6 1.418946 1_655
B1 O1 1.361353 1_555
B1 O0 1.402300 1_555
B1 O5 1.413684 1_555
B2 O7 1.355525 1_555
B2 O3 1.404784 1_555
B2 O8 1.405022 1_555
B3 O11 1.358863 1_555
B3 O9 1.389712 1_555
B3 O13 1.415422 1_555
B4 O12 1.358863 1_555
B4 O14 1.389712 1_555
B4 O10 1.415422 1_555
B5 O16 1.355525 1_555
B5 O20 1.404784 1_555
B5 O15 1.405022 1_555
B6 O22 1.361353 1_555
B6 O23 1.402300 1_555
B6 O18 1.413684 1_555
B7 O21 1.348053 1_445
B7 O19 1.383645 1_555
B7 O17 1.418946 1_455
