# generated using pymatgen
data_CdSiO3
_symmetry_space_group_name_H-M   'P 1'
_cell_length_a   5.51997100
_cell_length_b   9.74505700
_cell_length_c   9.85231600
_cell_angle_alpha   90.00000000
_cell_angle_beta   90.00000000
_cell_angle_gamma   90.00000000
_symmetry_Int_Tables_number   1
_chemical_formula_structural   CdSiO3
_chemical_formula_sum   'Cd8 Si8 O24'
_cell_volume   529.98003880
_cell_formula_units_Z   8
loop_
 _symmetry_equiv_pos_site_id
 _symmetry_equiv_pos_as_xyz
  1  'x, y, z'
loop_
 _atom_site_type_symbol
 _atom_site_label
 _atom_site_symmetry_multiplicity
 _atom_site_fract_x
 _atom_site_fract_y
 _atom_site_fract_z
 _atom_site_occupancy
  Cd  Cd0  1  0.25000000  0.89739800  0.00000000  1
  Cd  Cd1  1  0.25000000  0.27774200  0.00000000  1
  Cd  Cd2  1  0.75000000  0.72225800  0.00000000  1
  Cd  Cd3  1  0.75000000  0.10260200  0.00000000  1
  Cd  Cd4  1  0.25000000  0.39739800  0.50000000  1
  Cd  Cd5  1  0.25000000  0.77774200  0.50000000  1
  Cd  Cd6  1  0.75000000  0.22225800  0.50000000  1
  Cd  Cd7  1  0.75000000  0.60260200  0.50000000  1
  Si  Si0  1  0.08336200  0.58326100  0.20979500  1
  Si  Si1  1  0.58336200  0.41673900  0.20979500  1
  Si  Si2  1  0.08336200  0.08326100  0.29020500  1
  Si  Si3  1  0.58336200  0.91673900  0.29020500  1
  Si  Si4  1  0.41663800  0.08326100  0.70979500  1
  Si  Si5  1  0.91663800  0.91673900  0.70979500  1
  Si  Si6  1  0.91663800  0.41673900  0.79020500  1
  Si  Si7  1  0.41663800  0.58326100  0.79020500  1
  O  O0  1  0.09105600  0.09037500  0.12463000  1
  O  O1  1  0.59105600  0.90962500  0.12463000  1
  O  O2  1  0.56819200  0.27025200  0.13163500  1
  O  O3  1  0.06819200  0.72974800  0.13163500  1
  O  O4  1  0.82683700  0.50439000  0.15818300  1
  O  O5  1  0.32683700  0.49561000  0.15818300  1
  O  O6  1  0.32683700  0.99561000  0.34181700  1
  O  O7  1  0.82683700  0.00439000  0.34181700  1
  O  O8  1  0.06819200  0.22974800  0.36836500  1
  O  O9  1  0.56819200  0.77025200  0.36836500  1
  O  O10  1  0.09105600  0.59037500  0.37537000  1
  O  O11  1  0.59105600  0.40962500  0.37537000  1
  O  O12  1  0.90894400  0.40962500  0.62463000  1
  O  O13  1  0.40894400  0.59037500  0.62463000  1
  O  O14  1  0.43180800  0.22974800  0.63163500  1
  O  O15  1  0.93180800  0.77025200  0.63163500  1
  O  O16  1  0.17316300  0.99561000  0.65818300  1
  O  O17  1  0.67316300  0.00439000  0.65818300  1
  O  O18  1  0.17316300  0.49561000  0.84181700  1
  O  O19  1  0.67316300  0.50439000  0.84181700  1
  O  O20  1  0.93180800  0.27025200  0.86836500  1
  O  O21  1  0.43180800  0.72974800  0.86836500  1
  O  O22  1  0.40894400  0.09037500  0.87537000  1
  O  O23  1  0.90894400  0.90962500  0.87537000  1
loop_
_geom_bond_atom_site_label_1
_geom_bond_atom_site_label_2
_geom_bond_distance
_geom_bond_site_symmetry_2
Cd0 O23 2.250817 1_454
Cd0 O1 2.250817 1_555
Cd0 O3 2.314801 1_555
Cd0 O21 2.314801 1_554
Cd0 O22 2.411233 1_564
Cd0 O0 2.411233 1_565
Cd1 O2 2.184555 1_555
Cd1 O20 2.184555 1_454
Cd1 O22 2.368842 1_554
Cd1 O0 2.368842 1_555
Cd1 O5 2.667663 1_555
Cd1 O18 2.667663 1_554
Cd2 O3 2.184555 1_655
Cd2 O21 2.184555 1_554
Cd2 O23 2.368842 1_554
Cd2 O1 2.368842 1_555
Cd2 O4 2.667663 1_555
Cd2 O19 2.667663 1_554
Cd3 O22 2.250817 1_554
Cd3 O0 2.250817 1_655
Cd3 O2 2.314801 1_555
Cd3 O20 2.314801 1_554
Cd3 O23 2.411233 1_544
Cd3 O1 2.411233 1_545
Cd4 O11 2.250817 1_555
Cd4 O12 2.250817 1_455
Cd4 O14 2.314801 1_555
Cd4 O8 2.314801 1_555
Cd4 O10 2.411233 1_555
Cd4 O13 2.411233 1_555
Cd5 O9 2.184555 1_555
Cd5 O15 2.184555 1_455
Cd5 O13 2.368842 1_555
Cd5 O10 2.368842 1_555
Cd5 O6 2.667663 1_555
Cd5 O16 2.667663 1_555
Cd6 O8 2.184555 1_655
Cd6 O14 2.184555 1_555
Cd6 O12 2.368842 1_555
Cd6 O11 2.368842 1_555
Cd6 O7 2.667663 1_555
Cd6 O17 2.667663 1_555
Cd7 O13 2.250817 1_555
Cd7 O10 2.250817 1_655
Cd7 O15 2.314801 1_555
Cd7 O9 2.314801 1_555
Cd7 O11 2.411233 1_555
Cd7 O12 2.411233 1_555
O0 Si2 1.633322 1_555
O1 Si3 1.633322 1_555
O2 Si1 1.624138 1_555
O3 Si0 1.624138 1_555
O4 Si1 1.671656 1_555
O4 Si0 1.689499 1_655
O5 Si0 1.671656 1_555
O5 Si1 1.689499 1_555
O6 Si2 1.671656 1_565
O6 Si3 1.689499 1_555
O7 Si3 1.671656 1_545
O7 Si2 1.689499 1_655
O8 Si2 1.624138 1_555
O9 Si3 1.624138 1_555
O10 Si0 1.633322 1_555
O11 Si1 1.633322 1_555
O12 Si6 1.633322 1_555
O13 Si7 1.633322 1_555
O14 Si4 1.624138 1_555
O15 Si5 1.624138 1_555
O16 Si4 1.671656 1_565
O16 Si5 1.689499 1_455
O17 Si5 1.671656 1_545
O17 Si4 1.689499 1_555
O18 Si7 1.671656 1_555
O18 Si6 1.689499 1_455
O19 Si6 1.671656 1_555
O19 Si7 1.689499 1_555
O20 Si6 1.624138 1_555
O21 Si7 1.624138 1_555
O22 Si4 1.633322 1_555
O23 Si5 1.633322 1_555
