# generated using pymatgen
data_LiFeO3
_symmetry_space_group_name_H-M   'P 1'
_cell_length_a   5.79940734
_cell_length_b   5.79940734
_cell_length_c   6.19466001
_cell_angle_alpha   72.88444898
_cell_angle_beta   72.88444898
_cell_angle_gamma   29.07169064
_symmetry_Int_Tables_number   1
_chemical_formula_structural   LiFeO3
_chemical_formula_sum   'Li2 Fe2 O6'
_cell_volume   96.44365165
_cell_formula_units_Z   2
loop_
 _symmetry_equiv_pos_site_id
 _symmetry_equiv_pos_as_xyz
  1  'x, y, z'
loop_
 _atom_site_type_symbol
 _atom_site_label
 _atom_site_symmetry_multiplicity
 _atom_site_fract_x
 _atom_site_fract_y
 _atom_site_fract_z
 _atom_site_occupancy
  Li  Li0  1  0.11140500  0.11140500  0.67920400  1
  Li  Li1  1  0.88859500  0.88859500  0.32079600  1
  Fe  Fe0  1  0.32643700  0.32643700  0.80408700  1
  Fe  Fe1  1  0.67356300  0.67356300  0.19591300  1
  O  O0  1  0.49640100  0.49640100  0.62041700  1
  O  O1  1  0.50359900  0.50359900  0.37958300  1
  O  O2  1  0.84898300  0.84898300  0.00053400  1
  O  O3  1  0.78588100  0.78588100  0.64604200  1
  O  O4  1  0.15101700  0.15101700  0.99946600  1
  O  O5  1  0.21411900  0.21411900  0.35395800  1
loop_
_geom_bond_atom_site_label_1
_geom_bond_atom_site_label_2
_geom_bond_distance
_geom_bond_site_symmetry_2
Li0 O5 1.994107 1_555
Li0 O0 2.050474 1_545
Li0 O0 2.050474 1_455
Li0 O4 2.161072 1_555
Li0 O3 2.398670 1_545
Li0 O3 2.398670 1_455
Li1 O3 1.994107 1_555
Li1 O1 2.050474 1_565
Li1 O1 2.050474 1_655
Li1 O2 2.161072 1_555
Li1 O5 2.398670 1_655
Li1 O5 2.398670 1_565
Fe0 O3 1.885630 1_545
Fe0 O3 1.885630 1_455
Fe0 O0 1.901535 1_555
Fe0 O2 1.962388 1_456
Fe0 O2 1.962388 1_546
Fe0 O4 1.973436 1_555
Fe1 O5 1.885630 1_655
Fe1 O5 1.885630 1_565
Fe1 O1 1.901535 1_555
Fe1 O4 1.962388 1_564
Fe1 O4 1.962388 1_654
Fe1 O2 1.973436 1_555
O0 O1 1.469333 1_555
