# generated using pymatgen
data_Li2TmPCO7
_symmetry_space_group_name_H-M   'P 1'
_cell_length_a   6.74673200
_cell_length_b   4.90168500
_cell_length_c   8.96827313
_cell_angle_alpha   87.18457878
_cell_angle_beta   90.00000000
_cell_angle_gamma   90.00000000
_symmetry_Int_Tables_number   1
_chemical_formula_structural   Li2TmPCO7
_chemical_formula_sum   'Li4 Tm2 P2 C2 O14'
_cell_volume   296.22598564
_cell_formula_units_Z   2
loop_
 _symmetry_equiv_pos_site_id
 _symmetry_equiv_pos_as_xyz
  1  'x, y, z'
loop_
 _atom_site_type_symbol
 _atom_site_label
 _atom_site_symmetry_multiplicity
 _atom_site_fract_x
 _atom_site_fract_y
 _atom_site_fract_z
 _atom_site_occupancy
  Li  Li0  1  0.98676500  0.79263000  0.79390000  1
  Li  Li1  1  0.51323500  0.79263000  0.79390000  1
  Li  Li2  1  0.48676500  0.20737000  0.20610000  1
  Li  Li3  1  0.01323500  0.20737000  0.20610000  1
  Tm  Tm0  1  0.25000000  0.24938400  0.64136500  1
  Tm  Tm1  1  0.75000000  0.75061600  0.35863500  1
  P  P0  1  0.75000000  0.27891700  0.58864800  1
  P  P1  1  0.25000000  0.72108300  0.41135200  1
  C  C0  1  0.25000000  0.26060600  0.94258600  1
  C  C1  1  0.75000000  0.73939400  0.05741400  1
  O  O0  1  0.75000000  0.71967000  0.91678100  1
  O  O1  1  0.25000000  0.02565400  0.87847400  1
  O  O2  1  0.25000000  0.47830200  0.84944900  1
  O  O3  1  0.93579200  0.15019300  0.66327300  1
  O  O4  1  0.56420800  0.15019300  0.66327300  1
  O  O5  1  0.25000000  0.76832200  0.58403600  1
  O  O6  1  0.75000000  0.59480900  0.59810700  1
  O  O7  1  0.25000000  0.40519100  0.40189300  1
  O  O8  1  0.75000000  0.23167800  0.41596400  1
  O  O9  1  0.43579200  0.84980700  0.33672700  1
  O  O10  1  0.06420800  0.84980700  0.33672700  1
  O  O11  1  0.75000000  0.52169800  0.15055100  1
  O  O12  1  0.75000000  0.97434600  0.12152600  1
  O  O13  1  0.25000000  0.28033000  0.08321900  1
loop_
_geom_bond_atom_site_label_1
_geom_bond_atom_site_label_2
_geom_bond_distance
_geom_bond_site_symmetry_2
Li0 O0 1.963493 1_555
Li0 O3 2.088251 1_565
Li0 O1 2.262551 1_665
Li0 O2 2.387622 1_655
Li0 O5 2.594742 1_655
Li0 O6 2.596618 1_555
Li1 O0 1.963493 1_555
Li1 O4 2.088251 1_565
Li1 O1 2.262551 1_565
Li1 O2 2.387622 1_555
Li1 O5 2.594742 1_555
Li1 O6 2.596618 1_555
Li2 O13 1.963493 1_555
Li2 O9 2.088251 1_545
Li2 O12 2.262551 1_545
Li2 O11 2.387622 1_555
Li2 O8 2.594742 1_555
Li2 O7 2.596618 1_555
Li3 O13 1.963493 1_555
Li3 O10 2.088251 1_545
Li3 O12 2.262551 1_445
Li3 O11 2.387622 1_455
Li3 O8 2.594742 1_455
Li3 O7 2.596618 1_555
C0 O13 1.269661 1_556
C0 O1 1.312238 1_555
C0 O2 1.322416 1_555
C1 O0 1.269661 1_554
C1 O12 1.312238 1_555
C1 O11 1.322416 1_555
O1 Tm0 2.344224 1_555
O2 Tm0 2.224255 1_555
O3 P0 1.541354 1_555
O3 Tm0 2.181626 1_655
O4 P0 1.541354 1_555
O4 Tm0 2.181626 1_555
O5 P1 1.577100 1_555
O5 Tm0 2.437965 1_565
O5 Tm0 2.570239 1_555
O6 P0 1.554880 1_555
O6 Tm1 2.243777 1_555
O7 P1 1.554880 1_555
O7 Tm0 2.243777 1_555
O8 P0 1.577100 1_555
O8 Tm1 2.437965 1_545
O8 Tm1 2.570239 1_555
O9 P1 1.541354 1_555
O9 Tm1 2.181626 1_555
O10 P1 1.541354 1_555
O10 Tm1 2.181626 1_455
O11 Tm1 2.224255 1_555
O12 Tm1 2.344224 1_555
