# generated using pymatgen
data_Na2LiMn(PO3)5
_symmetry_space_group_name_H-M   'P 1'
_cell_length_a   13.95492600
_cell_length_b   5.23293800
_cell_length_c   9.13395563
_cell_angle_alpha   75.23648735
_cell_angle_beta   90.00000000
_cell_angle_gamma   90.00000000
_symmetry_Int_Tables_number   1
_chemical_formula_structural   Na2LiMn(PO3)5
_chemical_formula_sum   'Na4 Li2 Mn2 P10 O30'
_cell_volume   644.98876712
_cell_formula_units_Z   2
loop_
 _symmetry_equiv_pos_site_id
 _symmetry_equiv_pos_as_xyz
  1  'x, y, z'
loop_
 _atom_site_type_symbol
 _atom_site_label
 _atom_site_symmetry_multiplicity
 _atom_site_fract_x
 _atom_site_fract_y
 _atom_site_fract_z
 _atom_site_occupancy
  Na  Na0  1  0.90116700  0.41057200  0.14489500  1
  Na  Na1  1  0.59883300  0.41057200  0.14489500  1
  Na  Na2  1  0.40116700  0.58942800  0.85510500  1
  Na  Na3  1  0.09883300  0.58942800  0.85510500  1
  Li  Li0  1  0.25000000  0.47384600  0.16972700  1
  Li  Li1  1  0.75000000  0.52615400  0.83027300  1
  Mn  Mn0  1  0.00000000  0.00000000  0.50000000  1
  Mn  Mn1  1  0.50000000  0.00000000  0.50000000  1
  P  P0  1  0.35597500  0.49024300  0.48848400  1
  P  P1  1  0.14402500  0.49024300  0.48848400  1
  P  P2  1  0.92203100  0.14784300  0.81381000  1
  P  P3  1  0.57796900  0.14784300  0.81381000  1
  P  P4  1  0.25000000  0.03853400  0.99828100  1
  P  P5  1  0.75000000  0.96146600  0.00171900  1
  P  P6  1  0.42203100  0.85215700  0.18619000  1
  P  P7  1  0.07796900  0.85215700  0.18619000  1
  P  P8  1  0.64402500  0.50975700  0.51151600  1
  P  P9  1  0.85597500  0.50975700  0.51151600  1
  O  O0  1  0.75000000  0.44408800  0.46395000  1
  O  O1  1  0.95918400  0.29519400  0.92203400  1
  O  O2  1  0.54081600  0.29519400  0.92203400  1
  O  O3  1  0.25000000  0.28124800  0.87139100  1
  O  O4  1  0.85343300  0.35587300  0.69315100  1
  O  O5  1  0.64656700  0.35587300  0.69315100  1
  O  O6  1  0.57795100  0.37801300  0.42341300  1
  O  O7  1  0.92204900  0.37801300  0.42341300  1
  O  O8  1  0.36565600  0.20319700  0.49425600  1
  O  O9  1  0.13434400  0.20319700  0.49425600  1
  O  O10  1  0.98896400  0.00399400  0.73471800  1
  O  O11  1  0.51103600  0.00399400  0.73471800  1
  O  O12  1  0.83983000  0.93000000  0.89138200  1
  O  O13  1  0.66017000  0.93000000  0.89138200  1
  O  O14  1  0.75000000  0.23998500  0.02130900  1
  O  O15  1  0.25000000  0.76001500  0.97869100  1
  O  O16  1  0.33983000  0.07000000  0.10861800  1
  O  O17  1  0.16017000  0.07000000  0.10861800  1
  O  O18  1  0.48896400  0.99600600  0.26528200  1
  O  O19  1  0.01103600  0.99600600  0.26528200  1
  O  O20  1  0.86565600  0.79680300  0.50574400  1
  O  O21  1  0.63434400  0.79680300  0.50574400  1
  O  O22  1  0.42204900  0.62198700  0.57658700  1
  O  O23  1  0.07795100  0.62198700  0.57658700  1
  O  O24  1  0.35343300  0.64412700  0.30684900  1
  O  O25  1  0.14656700  0.64412700  0.30684900  1
  O  O26  1  0.75000000  0.71875200  0.12860900  1
  O  O27  1  0.45918400  0.70480600  0.07796600  1
  O  O28  1  0.04081600  0.70480600  0.07796600  1
  O  O29  1  0.25000000  0.55591200  0.53605000  1
loop_
_geom_bond_atom_site_label_1
_geom_bond_atom_site_label_2
_geom_bond_distance
_geom_bond_site_symmetry_2
Na0 O1 2.406260 1_554
Na0 O28 2.462211 1_655
Na0 O7 2.522861 1_555
Na0 O26 2.636421 1_555
Na0 O14 2.652316 1_555
Na0 O19 2.655256 1_645
Na1 O2 2.406260 1_554
Na1 O27 2.462211 1_555
Na1 O6 2.522861 1_555
Na1 O26 2.636421 1_555
Na1 O14 2.652316 1_555
Na1 O18 2.655256 1_545
Na2 O27 2.406260 1_556
Na2 O2 2.462211 1_555
Na2 O22 2.522861 1_555
Na2 O3 2.636421 1_555
Na2 O15 2.652316 1_555
Na2 O11 2.655256 1_565
Na3 O28 2.406260 1_556
Na3 O1 2.462211 1_455
Na3 O23 2.522861 1_555
Na3 O3 2.636421 1_555
Na3 O15 2.652316 1_555
Na3 O10 2.655256 1_465
Li0 O15 1.988843 1_554
Li0 O24 2.239393 1_555
Li0 O25 2.239393 1_555
Li1 O14 1.988843 1_556
Li1 O4 2.239393 1_555
Li1 O5 2.239393 1_555
Mn0 O9 2.149347 1_555
Mn0 O20 2.149347 1_445
Mn0 O10 2.154835 1_455
Mn0 O19 2.154835 1_545
Mn0 O23 2.209155 1_545
Mn0 O7 2.209155 1_455
Mn1 O8 2.149347 1_555
Mn1 O21 2.149347 1_545
Mn1 O11 2.154835 1_555
Mn1 O18 2.154835 1_545
Mn1 O6 2.209155 1_555
Mn1 O22 2.209155 1_545
O0 P9 1.603125 1_555
O0 P8 1.603125 1_555
O1 P2 1.492985 1_555
O2 P3 1.492985 1_555
O3 P4 1.485335 1_555
O4 P2 1.644567 1_555
O4 P9 1.649622 1_555
O5 P3 1.644567 1_555
O5 P8 1.649622 1_555
O6 P8 1.501937 1_555
O7 P9 1.501937 1_555
O8 P0 1.495646 1_555
O9 P1 1.495646 1_555
O10 P2 1.496037 1_555
O11 P3 1.496037 1_555
O12 P5 1.642808 1_556
O12 P2 1.644913 1_565
O13 P5 1.642808 1_556
O13 P3 1.644913 1_565
O14 P5 1.512997 1_545
O15 P4 1.512997 1_565
O16 P4 1.642808 1_554
O16 P6 1.644913 1_545
O17 P4 1.642808 1_554
O17 P7 1.644913 1_545
O18 P6 1.496037 1_555
O19 P7 1.496037 1_555
O20 P9 1.495646 1_555
O21 P8 1.495646 1_555
O22 P0 1.501937 1_555
O23 P1 1.501937 1_555
O24 P6 1.644567 1_555
O24 P0 1.649622 1_555
O25 P7 1.644567 1_555
O25 P1 1.649622 1_555
O26 P5 1.485335 1_555
O27 P6 1.492985 1_555
O28 P7 1.492985 1_555
O29 P0 1.603125 1_555
O29 P1 1.603125 1_555
