# generated using pymatgen
data_MnSe3O8
_symmetry_space_group_name_H-M   'P 1'
_cell_length_a   13.01829300
_cell_length_b   7.20357600
_cell_length_c   10.25053305
_cell_angle_alpha   47.81984161
_cell_angle_beta   90.00000000
_cell_angle_gamma   90.00000000
_symmetry_Int_Tables_number   1
_chemical_formula_structural   MnSe3O8
_chemical_formula_sum   'Mn4 Se12 O32'
_cell_volume   712.34212410
_cell_formula_units_Z   4
loop_
 _symmetry_equiv_pos_site_id
 _symmetry_equiv_pos_as_xyz
  1  'x, y, z'
loop_
 _atom_site_type_symbol
 _atom_site_label
 _atom_site_symmetry_multiplicity
 _atom_site_fract_x
 _atom_site_fract_y
 _atom_site_fract_z
 _atom_site_occupancy
  Mn  Mn0  1  0.82773000  0.87375800  0.93862700  1
  Mn  Mn1  1  0.67227000  0.87375800  0.43862700  1
  Mn  Mn2  1  0.17227000  0.12624200  0.06137300  1
  Mn  Mn3  1  0.32773000  0.12624200  0.56137300  1
  Se  Se0  1  0.69530700  0.33232900  0.55507900  1
  Se  Se1  1  0.80469300  0.33232900  0.05507900  1
  Se  Se2  1  0.30469300  0.66767100  0.44492100  1
  Se  Se3  1  0.19530700  0.66767100  0.94492100  1
  Se  Se4  1  0.86312000  0.99585400  0.56556700  1
  Se  Se5  1  0.63688000  0.99585400  0.06556700  1
  Se  Se6  1  0.13688000  0.00414600  0.43443300  1
  Se  Se7  1  0.36312000  0.00414600  0.93443300  1
  Se  Se8  1  0.99183200  0.68294000  0.24496500  1
  Se  Se9  1  0.50816800  0.68294000  0.74496500  1
  Se  Se10  1  0.00816800  0.31706000  0.75503500  1
  Se  Se11  1  0.49183200  0.31706000  0.25503500  1
  O  O0  1  0.75012700  0.57855700  0.01798800  1
  O  O1  1  0.74987300  0.57855700  0.51798800  1
  O  O2  1  0.24987300  0.42144300  0.98201200  1
  O  O3  1  0.25012700  0.42144300  0.48201200  1
  O  O4  1  0.70958000  0.07711400  0.77612200  1
  O  O5  1  0.79042000  0.07711400  0.27612200  1
  O  O6  1  0.29042000  0.92288600  0.22387800  1
  O  O7  1  0.20958000  0.92288600  0.72387800  1
  O  O8  1  0.90319200  0.89010800  0.76605600  1
  O  O9  1  0.59680800  0.89010800  0.26605600  1
  O  O10  1  0.09680800  0.10989200  0.23394400  1
  O  O11  1  0.40319200  0.10989200  0.73394400  1
  O  O12  1  0.74885100  0.82955000  0.12256300  1
  O  O13  1  0.75114900  0.82955000  0.62256300  1
  O  O14  1  0.25114900  0.17045000  0.87743700  1
  O  O15  1  0.24885100  0.17045000  0.37743700  1
  O  O16  1  0.43219600  0.34703000  0.39769600  1
  O  O17  1  0.06780400  0.34703000  0.89769600  1
  O  O18  1  0.56780400  0.65297000  0.60230400  1
  O  O19  1  0.93219600  0.65297000  0.10230400  1
  O  O20  1  0.10624700  0.84490600  0.11520400  1
  O  O21  1  0.39375300  0.84490600  0.61520400  1
  O  O22  1  0.89375300  0.15509400  0.88479600  1
  O  O23  1  0.60624700  0.15509400  0.38479600  1
  O  O24  1  0.53331100  0.61018600  0.10520000  1
  O  O25  1  0.96668900  0.61018600  0.60520000  1
  O  O26  1  0.46668900  0.38981400  0.89480000  1
  O  O27  1  0.03331100  0.38981400  0.39480000  1
  O  O28  1  0.30837200  0.69982600  0.03548700  1
  O  O29  1  0.19162800  0.69982600  0.53548700  1
  O  O30  1  0.69162800  0.30017400  0.96451300  1
  O  O31  1  0.80837200  0.30017400  0.46451300  1
loop_
_geom_bond_atom_site_label_1
_geom_bond_atom_site_label_2
_geom_bond_distance
_geom_bond_site_symmetry_2
Mn0 O19 1.900131 1_556
Mn0 O22 1.910148 1_565
Mn0 O8 1.956612 1_555
Mn0 O0 1.970097 1_556
Mn0 O12 1.975964 1_556
Mn0 O4 2.002373 1_565
Mn1 O18 1.900131 1_555
Mn1 O23 1.910148 1_565
Mn1 O9 1.956612 1_555
Mn1 O1 1.970097 1_555
Mn1 O13 1.975964 1_555
Mn1 O5 2.002373 1_565
Mn2 O17 1.900131 1_554
Mn2 O20 1.910148 1_545
Mn2 O10 1.956612 1_555
Mn2 O2 1.970097 1_554
Mn2 O14 1.975964 1_554
Mn2 O6 2.002373 1_545
Mn3 O16 1.900131 1_555
Mn3 O21 1.910148 1_545
Mn3 O11 1.956612 1_555
Mn3 O3 1.970097 1_555
Mn3 O15 1.975964 1_555
Mn3 O7 2.002373 1_545
O0 Se1 1.699887 1_555
O1 Se0 1.699887 1_555
O2 Se3 1.699887 1_555
O3 Se2 1.699887 1_555
O4 Se0 1.718793 1_555
O5 Se1 1.718793 1_555
O6 Se2 1.718793 1_555
O7 Se3 1.718793 1_555
O8 Se4 1.724407 1_555
O9 Se5 1.724407 1_555
O10 Se6 1.724407 1_555
O11 Se7 1.724407 1_555
O12 Se5 1.720866 1_555
O13 Se4 1.720866 1_555
O14 Se7 1.720866 1_555
O15 Se6 1.720866 1_555
O16 Se11 1.792146 1_555
O17 Se10 1.792146 1_555
O18 Se9 1.792146 1_555
O19 Se8 1.792146 1_555
O20 Se8 1.806925 1_455
O21 Se9 1.806925 1_555
O22 Se10 1.806925 1_655
O23 Se11 1.806925 1_555
O24 Se11 1.659499 1_555
O25 Se10 1.659499 1_655
O26 Se9 1.659499 1_555
O27 Se8 1.659499 1_455
O28 Se7 1.826791 1_564
O28 Se3 1.835971 1_554
O29 Se6 1.826791 1_565
O29 Se2 1.835971 1_555
O30 Se5 1.826791 1_546
O30 Se1 1.835971 1_556
O31 Se4 1.826791 1_545
O31 Se0 1.835971 1_555
