# generated using pymatgen
data_Li4FeO3F
_symmetry_space_group_name_H-M   'P 1'
_cell_length_a   6.41341300
_cell_length_b   7.29206100
_cell_length_c   8.04036100
_cell_angle_alpha   90.00002997
_cell_angle_beta   90.00000000
_cell_angle_gamma   90.00003358
_symmetry_Int_Tables_number   1
_chemical_formula_structural   Li4FeO3F
_chemical_formula_sum   'Li16 Fe4 O12 F4'
_cell_volume   376.02355335
_cell_formula_units_Z   4
loop_
 _symmetry_equiv_pos_site_id
 _symmetry_equiv_pos_as_xyz
  1  'x, y, z'
loop_
 _atom_site_type_symbol
 _atom_site_label
 _atom_site_symmetry_multiplicity
 _atom_site_fract_x
 _atom_site_fract_y
 _atom_site_fract_z
 _atom_site_occupancy
  Li  Li0  1  0.49754300  0.50664000  0.33553800  1
  Li  Li1  1  0.49754300  0.00664200  0.83554200  1
  Li  Li2  1  0.99754300  0.49336000  0.33553800  1
  Li  Li3  1  0.99754300  0.99335900  0.83554200  1
  Li  Li4  1  0.99754300  0.49336000  0.66446200  1
  Li  Li5  1  0.99754200  0.99335900  0.16445800  1
  Li  Li6  1  0.49754300  0.50664000  0.66446200  1
  Li  Li7  1  0.49754300  0.00664200  0.16445800  1
  Li  Li8  1  0.23734200  0.73251600  0.15249500  1
  Li  Li9  1  0.23734300  0.23252000  0.65249700  1
  Li  Li10  1  0.73734200  0.26748400  0.15249500  1
  Li  Li11  1  0.73734400  0.76748000  0.65249700  1
  Li  Li12  1  0.73734200  0.26748400  0.84750600  1
  Li  Li13  1  0.73734400  0.76748000  0.34750300  1
  Li  Li14  1  0.23734200  0.73251600  0.84750500  1
  Li  Li15  1  0.23734300  0.23252000  0.34750300  1
  Fe  Fe0  1  0.27651100  0.85362800  0.49999900  1
  Fe  Fe1  1  0.77650400  0.14637200  0.50000100  1
  Fe  Fe2  1  0.27648900  0.35360800  0.00000000  1
  Fe  Fe3  1  0.77649500  0.64639000  0.00000000  1
  O  O0  1  0.01012300  0.79885400  0.00000000  1
  O  O1  1  0.01011600  0.29885400  0.50000000  1
  O  O2  1  0.51012200  0.20114700  0.00000000  1
  O  O3  1  0.51011800  0.70114600  0.50000000  1
  O  O4  1  0.24974400  0.46862400  0.20690600  1
  O  O5  1  0.24974400  0.96862500  0.70691200  1
  O  O6  1  0.74974500  0.53137600  0.20690600  1
  O  O7  1  0.74974400  0.03137400  0.70691300  1
  O  O8  1  0.74974500  0.53137600  0.79309400  1
  O  O9  1  0.74974400  0.03137500  0.29308800  1
  O  O10  1  0.24974400  0.46862400  0.79309400  1
  O  O11  1  0.24974400  0.96862600  0.29308800  1
  F  F0  1  0.99411900  0.20544900  0.00000000  1
  F  F1  1  0.99412700  0.70545200  0.50000000  1
  F  F2  1  0.49412000  0.79455100  0.00000000  1
  F  F3  1  0.49412800  0.29454800  0.50000000  1
loop_
_geom_bond_atom_site_label_1
_geom_bond_atom_site_label_2
_geom_bond_distance
_geom_bond_site_symmetry_2
Li0 O4 1.916296 1_555
Li0 O6 1.928323 1_555
Li0 O3 1.940821 1_555
Li1 O5 1.916289 1_545
Li1 O7 1.928302 1_555
Li1 O2 1.940794 1_556
Li2 O6 1.916291 1_555
Li2 O4 1.928318 1_655
Li2 O1 1.940821 1_655
Li3 O7 1.916283 1_565
Li3 O5 1.928308 1_655
Li3 O0 1.940796 1_656
Li4 O8 1.916291 1_555
Li4 O10 1.928318 1_655
Li4 O1 1.940820 1_655
Li5 O9 1.916282 1_565
Li5 O11 1.928313 1_655
Li5 O0 1.940795 1_655
Li6 O10 1.916296 1_555
Li6 O8 1.928323 1_555
Li6 O3 1.940822 1_555
Li7 O11 1.916288 1_545
Li7 O9 1.928307 1_555
Li7 O2 1.940795 1_555
Li8 O0 1.964927 1_555
Li8 O4 1.975023 1_555
Li8 O11 2.061194 1_555
Li9 O1 1.964968 1_555
Li9 O5 1.975051 1_545
Li9 O10 2.061175 1_555
Li10 O2 1.964930 1_555
Li10 O6 1.975022 1_555
Li10 O9 2.061189 1_555
Li11 O3 1.964963 1_555
Li11 O7 1.975045 1_565
Li11 O8 2.061176 1_555
Li12 O2 1.964925 1_556
Li12 O8 1.975025 1_555
Li12 O7 2.061194 1_555
Li13 O3 1.964963 1_555
Li13 O9 1.975050 1_565
Li13 O6 2.061175 1_555
Li14 O0 1.964927 1_556
Li14 O10 1.975022 1_555
Li14 O5 2.061189 1_555
Li15 O1 1.964968 1_555
Li15 O11 1.975043 1_545
Li15 O4 2.061175 1_555
Fe0 O3 1.865744 1_555
Fe0 O11 1.870928 1_555
Fe0 O5 1.870938 1_555
Fe1 O1 1.865768 1_655
Fe1 O7 1.870931 1_555
Fe1 O9 1.870934 1_555
Fe2 O2 1.865786 1_555
Fe2 O4 1.870937 1_555
Fe2 O10 1.870938 1_554
Fe3 O0 1.865772 1_655
Fe3 O8 1.870933 1_554
Fe3 O6 1.870934 1_555
F0 Li3 2.034908 1_544
F0 Li5 2.034909 1_545
F0 Li12 2.102374 1_554
F0 Li10 2.102379 1_555
F0 Fe2 2.108741 1_655
F1 Li2 2.034939 1_555
F1 Li4 2.034940 1_555
F1 Li11 2.102407 1_555
F1 Li13 2.102408 1_555
F1 Fe0 2.108881 1_655
F2 Li7 2.034913 1_565
F2 Li1 2.034915 1_564
F2 Li14 2.102383 1_554
F2 Li8 2.102384 1_555
F2 Fe3 2.108777 1_555
F3 Li6 2.034939 1_555
F3 Li0 2.034940 1_555
F3 Li15 2.102417 1_555
F3 Li9 2.102417 1_555
F3 Fe1 2.108838 1_555
