# generated using pymatgen
data_Li2Fe2S3
_symmetry_space_group_name_H-M   'P 1'
_cell_length_a   9.25916643
_cell_length_b   9.25916643
_cell_length_c   6.28236681
_cell_angle_alpha   75.94943813
_cell_angle_beta   75.94943813
_cell_angle_gamma   85.05107085
_symmetry_Int_Tables_number   1
_chemical_formula_structural   Li2Fe2S3
_chemical_formula_sum   'Li8 Fe8 S12'
_cell_volume   506.64138191
_cell_formula_units_Z   4
loop_
 _symmetry_equiv_pos_site_id
 _symmetry_equiv_pos_as_xyz
  1  'x, y, z'
loop_
 _atom_site_type_symbol
 _atom_site_label
 _atom_site_symmetry_multiplicity
 _atom_site_fract_x
 _atom_site_fract_y
 _atom_site_fract_z
 _atom_site_occupancy
  Li  Li0  1  0.62852100  0.77240600  0.21179400  1
  Li  Li1  1  0.92339500  0.42183100  0.24599800  1
  Li  Li2  1  0.77240600  0.62852100  0.71179400  1
  Li  Li3  1  0.42183100  0.92339500  0.74599800  1
  Li  Li4  1  0.57816900  0.07660500  0.25400200  1
  Li  Li5  1  0.22759400  0.37147900  0.28820600  1
  Li  Li6  1  0.07660500  0.57816900  0.75400200  1
  Li  Li7  1  0.37147900  0.22759400  0.78820600  1
  Fe  Fe0  1  0.02418000  0.84165200  0.15473700  1
  Fe  Fe1  1  0.84165200  0.02418000  0.65473700  1
  Fe  Fe2  1  0.68289000  0.31711000  0.75000000  1
  Fe  Fe3  1  0.48400700  0.51599300  0.75000000  1
  Fe  Fe4  1  0.51599300  0.48400700  0.25000000  1
  Fe  Fe5  1  0.31711000  0.68289000  0.25000000  1
  Fe  Fe6  1  0.15834800  0.97582000  0.34526300  1
  Fe  Fe7  1  0.97582000  0.15834800  0.84526300  1
  S  S0  1  0.69426500  0.52960500  0.43518800  1
  S  S1  1  0.38640200  0.87225500  0.39593400  1
  S  S2  1  0.52960500  0.69426500  0.93518800  1
  S  S3  1  0.87225500  0.38640200  0.89593400  1
  S  S4  1  0.80812900  0.96321000  0.05117800  1
  S  S5  1  0.19187100  0.03679000  0.94882200  1
  S  S6  1  0.12774400  0.61359800  0.10406600  1
  S  S7  1  0.47039500  0.30573500  0.06481200  1
  S  S8  1  0.96321000  0.80812900  0.55117800  1
  S  S9  1  0.61359800  0.12774500  0.60406600  1
  S  S10  1  0.30573500  0.47039500  0.56481200  1
  S  S11  1  0.03679000  0.19187100  0.44882200  1
loop_
_geom_bond_atom_site_label_1
_geom_bond_atom_site_label_2
_geom_bond_distance
_geom_bond_site_symmetry_2
Li0 S4 2.394061 1_555
Li0 S2 2.424803 1_554
Li0 S0 2.457851 1_555
Li0 S1 2.474110 1_555
Li1 S0 2.428109 1_555
Li1 S3 2.459916 1_554
Li1 S11 2.491220 1_655
Li1 S6 2.553348 1_655
Li2 S8 2.394061 1_555
Li2 S0 2.424803 1_555
Li2 S2 2.457851 1_555
Li2 S3 2.474110 1_555
Li3 S2 2.428109 1_555
Li3 S1 2.459916 1_555
Li3 S5 2.491220 1_565
Li3 S9 2.553355 1_565
Li4 S7 2.428109 1_555
Li4 S9 2.459916 1_555
Li4 S4 2.491220 1_545
Li4 S1 2.553355 1_545
Li5 S11 2.394061 1_555
Li5 S10 2.424803 1_555
Li5 S7 2.457851 1_555
Li5 S6 2.474114 1_555
Li6 S10 2.428109 1_555
Li6 S6 2.459912 1_556
Li6 S8 2.491220 1_455
Li6 S3 2.553355 1_455
Li7 S5 2.394061 1_555
Li7 S7 2.424803 1_556
Li7 S10 2.457851 1_555
Li7 S9 2.474110 1_555
Fe0 S6 2.304014 1_555
Fe0 S4 2.362162 1_455
Fe0 S8 2.364368 1_455
Fe0 S5 2.392218 1_564
Fe1 S9 2.304017 1_555
Fe1 S8 2.362162 1_545
Fe1 S4 2.364368 1_546
Fe1 S11 2.392218 1_655
Fe2 S3 2.363617 1_555
Fe2 S9 2.363617 1_555
Fe2 S0 2.416396 1_555
Fe2 S7 2.416396 1_556
Fe3 S10 2.355344 1_555
Fe3 S2 2.355344 1_555
Fe3 S7 2.401930 1_556
Fe3 S0 2.401930 1_555
Fe4 S7 2.355344 1_555
Fe4 S0 2.355344 1_555
Fe4 S10 2.401930 1_555
Fe4 S2 2.401930 1_554
Fe5 S1 2.363617 1_555
Fe5 S6 2.363625 1_555
Fe5 S2 2.416396 1_554
Fe5 S10 2.416396 1_555
Fe6 S1 2.304017 1_555
Fe6 S11 2.362162 1_565
Fe6 S5 2.364368 1_564
Fe6 S8 2.392218 1_455
Fe7 S3 2.304017 1_555
Fe7 S5 2.362162 1_655
Fe7 S11 2.364368 1_655
Fe7 S4 2.392218 1_546
