# generated using pymatgen
data_Li5Fe3(SbO5)2
_symmetry_space_group_name_H-M   'P 1'
_cell_length_a   5.36501730
_cell_length_b   5.35623982
_cell_length_c   8.24535087
_cell_angle_alpha   108.10740497
_cell_angle_beta   102.69210367
_cell_angle_gamma   100.70295237
_symmetry_Int_Tables_number   1
_chemical_formula_structural   Li5Fe3(SbO5)2
_chemical_formula_sum   'Li5 Fe3 Sb2 O10'
_cell_volume   211.29983732
_cell_formula_units_Z   1
loop_
 _symmetry_equiv_pos_site_id
 _symmetry_equiv_pos_as_xyz
  1  'x, y, z'
loop_
 _atom_site_type_symbol
 _atom_site_label
 _atom_site_symmetry_multiplicity
 _atom_site_fract_x
 _atom_site_fract_y
 _atom_site_fract_z
 _atom_site_occupancy
  Li  Li0  1  0.22994700  0.89476300  0.39833700  1
  Li  Li1  1  0.41096900  0.29879000  0.79544200  1
  Li  Li2  1  0.50000000  0.50000000  0.50000000  1
  Li  Li3  1  0.58903100  0.70121000  0.20455800  1
  Li  Li4  1  0.77005300  0.10523700  0.60166300  1
  Fe  Fe0  1  0.00000000  0.50000000  0.00000000  1
  Fe  Fe1  1  0.70205400  0.89867800  0.89757200  1
  Fe  Fe2  1  0.29794600  0.10132200  0.10242800  1
  Sb  Sb0  1  0.10996100  0.70979100  0.69971600  1
  Sb  Sb1  1  0.89003900  0.29020900  0.30028400  1
  O  O0  1  0.05465600  0.08035100  0.84323200  1
  O  O1  1  0.34230800  0.69945000  0.93561400  1
  O  O2  1  0.13898200  0.32730900  0.54629600  1
  O  O3  1  0.21652100  0.48702000  0.24096700  1
  O  O4  1  0.44281200  0.90088600  0.65628800  1
  O  O5  1  0.55718800  0.09911400  0.34371200  1
  O  O6  1  0.78347900  0.51298000  0.75903300  1
  O  O7  1  0.86101800  0.67269100  0.45370400  1
  O  O8  1  0.65769200  0.30055000  0.06438600  1
  O  O9  1  0.94534400  0.91964900  0.15676800  1
loop_
_geom_bond_atom_site_label_1
_geom_bond_atom_site_label_2
_geom_bond_distance
_geom_bond_site_symmetry_2
Li0 O5 2.103182 1_565
Li0 O3 2.144196 1_555
Li0 O4 2.168955 1_555
Li0 O9 2.284896 1_455
Li0 O7 2.324014 1_455
Li0 O2 2.453332 1_565
Li1 O4 2.142265 1_545
Li1 O0 2.228303 1_555
Li1 O1 2.239620 1_555
Li1 O6 2.241986 1_555
Li1 O2 2.309412 1_555
Li1 O8 2.315644 1_556
Li2 O7 2.152132 1_555
Li2 O2 2.152132 1_555
Li2 O4 2.250300 1_555
Li2 O5 2.250300 1_555
Li2 O6 2.306651 1_555
Li2 O3 2.306651 1_555
Li3 O5 2.142265 1_565
Li3 O9 2.228303 1_555
Li3 O8 2.239620 1_555
Li3 O3 2.241986 1_555
Li3 O7 2.309412 1_555
Li3 O1 2.315644 1_554
Li4 O4 2.103182 1_545
Li4 O6 2.144196 1_555
Li4 O5 2.168955 1_555
Li4 O0 2.284896 1_655
Li4 O2 2.324014 1_655
Li4 O7 2.453332 1_545
Fe0 O3 2.098454 1_555
Fe0 O6 2.098454 1_454
Fe0 O1 2.201824 1_554
Fe0 O8 2.201824 1_455
Fe0 O9 2.326909 1_455
Fe0 O0 2.326909 1_554
Fe1 O1 2.161314 1_555
Fe1 O0 2.164708 1_665
Fe1 O4 2.167349 1_555
Fe1 O6 2.202542 1_555
Fe1 O9 2.203248 1_556
Fe1 O8 2.252915 1_566
Fe2 O8 2.161314 1_555
Fe2 O9 2.164708 1_445
Fe2 O5 2.167349 1_555
Fe2 O3 2.202542 1_555
Fe2 O0 2.203248 1_554
Fe2 O1 2.252915 1_544
O0 Sb0 2.083477 1_545
O1 Sb0 2.089831 1_555
O2 Sb1 2.097210 1_455
O2 Sb0 2.101336 1_555
O3 Sb1 2.104663 1_455
O4 Sb0 2.048092 1_555
O5 Sb1 2.048092 1_555
O6 Sb0 2.104663 1_655
O7 Sb0 2.097210 1_655
O7 Sb1 2.101336 1_555
O8 Sb1 2.089831 1_555
O9 Sb1 2.083477 1_565
