# generated using pymatgen
data_Nb2CoO6
_symmetry_space_group_name_H-M   'P 1'
_cell_length_a   4.82910201
_cell_length_b   10.39951891
_cell_length_c   9.65930110
_cell_angle_alpha   62.34460947
_cell_angle_beta   90.00166628
_cell_angle_gamma   90.00826420
_symmetry_Int_Tables_number   1
_chemical_formula_structural   Nb2CoO6
_chemical_formula_sum   'Nb8 Co4 O24'
_cell_volume   429.67400066
_cell_formula_units_Z   4
loop_
 _symmetry_equiv_pos_site_id
 _symmetry_equiv_pos_as_xyz
  1  'x, y, z'
loop_
 _atom_site_type_symbol
 _atom_site_label
 _atom_site_symmetry_multiplicity
 _atom_site_fract_x
 _atom_site_fract_y
 _atom_site_fract_z
 _atom_site_occupancy
  Nb  Nb0  1  0.99997800  0.00262300  0.49869700  1
  Nb  Nb1  1  0.99998600  0.00276000  0.99862400  1
  Nb  Nb2  1  0.00002300  0.66404300  0.16797500  1
  Nb  Nb3  1  0.00001400  0.66390600  0.66804800  1
  Nb  Nb4  1  0.49997000  0.16396600  0.16783600  1
  Nb  Nb5  1  0.49993500  0.16396500  0.66816800  1
  Nb  Nb6  1  0.50006600  0.50270200  0.99850200  1
  Nb  Nb7  1  0.50002600  0.50270000  0.49883500  1
  Co  Co0  1  0.99999900  0.33333600  0.33332700  1
  Co  Co1  1  0.50000000  0.83333600  0.83332700  1
  Co  Co2  1  0.99999900  0.33333600  0.83332700  1
  Co  Co3  1  0.50000100  0.83333600  0.33332700  1
  O  O0  1  0.19015200  0.83336000  0.67837500  1
  O  O1  1  0.19016000  0.83333300  0.17839300  1
  O  O2  1  0.31006300  0.33333200  0.17826400  1
  O  O3  1  0.30965700  0.33333600  0.67850700  1
  O  O4  1  0.69033100  0.33332300  0.98815800  1
  O  O5  1  0.68992300  0.33332900  0.48840000  1
  O  O6  1  0.80986300  0.83329900  0.98829000  1
  O  O7  1  0.80985500  0.83332600  0.48827200  1
  O  O8  1  0.20356300  0.15846000  0.02259600  1
  O  O9  1  0.20385000  0.15812700  0.52286200  1
  O  O10  1  0.20336800  0.50818000  0.84763100  1
  O  O11  1  0.20355800  0.50844200  0.34756300  1
  O  O12  1  0.29651500  0.00826700  0.34760200  1
  O  O13  1  0.29642500  0.00839900  0.84766000  1
  O  O14  1  0.29637800  0.65838300  0.02259200  1
  O  O15  1  0.29630600  0.65823100  0.52278800  1
  O  O16  1  0.70370600  0.00843800  0.14388100  1
  O  O17  1  0.70363200  0.00828600  0.64407800  1
  O  O18  1  0.70357200  0.65827100  0.81900600  1
  O  O19  1  0.70348400  0.65840300  0.31906500  1
  O  O20  1  0.79644400  0.15822600  0.31910300  1
  O  O21  1  0.79663300  0.15849000  0.81903600  1
  O  O22  1  0.79613800  0.50854100  0.14380800  1
  O  O23  1  0.79642600  0.50821000  0.64407300  1
loop_
_geom_bond_atom_site_label_1
_geom_bond_atom_site_label_2
_geom_bond_distance
_geom_bond_site_symmetry_2
Nb0 O20 1.997108 1_555
Nb0 O9 1.997230 1_655
Nb0 O17 2.024941 1_555
Nb0 O12 2.026012 1_655
Nb0 O7 2.029024 1_545
Nb0 O0 2.029396 1_645
Nb1 O21 1.997188 1_555
Nb1 O8 1.997372 1_656
Nb1 O16 2.023924 1_556
Nb1 O13 2.024799 1_655
Nb1 O6 2.030145 1_545
Nb1 O1 2.030597 1_646
Nb2 O11 1.997073 1_555
Nb2 O22 1.997252 1_455
Nb2 O14 2.024974 1_555
Nb2 O19 2.025997 1_455
Nb2 O1 2.028959 1_555
Nb2 O6 2.029362 1_454
Nb3 O10 1.997149 1_555
Nb3 O23 1.997376 1_455
Nb3 O15 2.023974 1_555
Nb3 O18 2.024781 1_455
Nb3 O0 2.030083 1_555
Nb3 O7 2.030560 1_455
Nb4 O16 1.996360 1_555
Nb4 O12 1.997965 1_555
Nb4 O8 2.023545 1_555
Nb4 O20 2.026619 1_555
Nb4 O2 2.029437 1_555
Nb4 O4 2.030081 1_554
Nb5 O13 1.996229 1_555
Nb5 O17 1.998266 1_555
Nb5 O9 2.024108 1_555
Nb5 O21 2.025501 1_555
Nb5 O5 2.029694 1_555
Nb5 O3 2.029905 1_555
Nb6 O18 1.996251 1_555
Nb6 O14 1.998263 1_556
Nb6 O22 2.024067 1_556
Nb6 O10 2.025512 1_555
Nb6 O2 2.029730 1_556
Nb6 O4 2.029972 1_555
Nb7 O15 1.996339 1_555
Nb7 O19 1.998008 1_555
Nb7 O23 2.023522 1_555
Nb7 O11 2.026626 1_555
Nb7 O5 2.029492 1_555
Nb7 O3 2.030106 1_555
Co0 O2 2.117922 1_655
Co0 O5 2.117994 1_555
Co0 O20 2.129117 1_555
Co0 O11 2.129143 1_655
Co0 O22 2.131730 1_555
Co0 O9 2.131798 1_655
Co1 O0 2.116269 1_555
Co1 O6 2.116351 1_555
Co1 O17 2.128612 1_565
Co1 O14 2.128675 1_556
Co1 O18 2.129420 1_555
Co1 O13 2.129462 1_565
Co2 O3 2.114862 1_655
Co2 O4 2.114927 1_555
Co2 O21 2.126565 1_555
Co2 O10 2.126611 1_655
Co2 O23 2.128335 1_555
Co2 O8 2.128392 1_656
Co3 O1 2.116214 1_555
Co3 O7 2.116289 1_555
Co3 O19 2.127743 1_555
Co3 O12 2.127789 1_565
Co3 O16 2.130375 1_565
Co3 O15 2.130433 1_555
