# generated using pymatgen
data_Li4MnSb(WO6)2
_symmetry_space_group_name_H-M   'P 1'
_cell_length_a   5.13566173
_cell_length_b   9.66530980
_cell_length_c   9.02913945
_cell_angle_alpha   109.22489766
_cell_angle_beta   89.55668266
_cell_angle_gamma   90.67123505
_symmetry_Int_Tables_number   1
_chemical_formula_structural   Li4MnSb(WO6)2
_chemical_formula_sum   'Li8 Mn2 Sb2 W4 O24'
_cell_volume   423.15982273
_cell_formula_units_Z   2
loop_
 _symmetry_equiv_pos_site_id
 _symmetry_equiv_pos_as_xyz
  1  'x, y, z'
loop_
 _atom_site_type_symbol
 _atom_site_label
 _atom_site_symmetry_multiplicity
 _atom_site_fract_x
 _atom_site_fract_y
 _atom_site_fract_z
 _atom_site_occupancy
  Li  Li0  1  0.99747300  0.43252000  0.13329700  1
  Li  Li1  1  0.99747300  0.93251900  0.63328800  1
  Li  Li2  1  0.50437300  0.92862600  0.16004600  1
  Li  Li3  1  0.50437900  0.42865500  0.66004400  1
  Li  Li4  1  0.99721200  0.13663200  0.38605800  1
  Li  Li5  1  0.99721600  0.63665900  0.88607000  1
  Li  Li6  1  0.50063900  0.68935600  0.39137600  1
  Li  Li7  1  0.50064400  0.18934000  0.89139000  1
  Mn  Mn0  1  0.50134400  0.50298000  0.00289300  1
  Mn  Mn1  1  0.50125200  0.00297800  0.50290400  1
  Sb  Sb0  1  0.99715400  0.00253700  0.99903300  1
  Sb  Sb1  1  0.99714200  0.50253800  0.49903800  1
  W  W0  1  0.00380400  0.25143600  0.74921200  1
  W  W1  1  0.49459200  0.25246900  0.25154100  1
  W  W2  1  0.49460300  0.75247700  0.75153700  1
  W  W3  1  0.00380900  0.75143700  0.24921000  1
  O  O0  1  0.30160000  0.62308500  0.18403400  1
  O  O1  1  0.30161300  0.12308700  0.68405500  1
  O  O2  1  0.12279000  0.86778600  0.11792000  1
  O  O3  1  0.12278700  0.36778100  0.61792400  1
  O  O4  1  0.31894700  0.12320600  0.05594100  1
  O  O5  1  0.31895600  0.62320600  0.55594200  1
  O  O6  1  0.19755400  0.86840400  0.42902600  1
  O  O7  1  0.19755900  0.36839200  0.92901800  1
  O  O8  1  0.80087300  0.11126600  0.19071300  1
  O  O9  1  0.80086600  0.61126100  0.69071700  1
  O  O10  1  0.37247600  0.12045100  0.35348200  1
  O  O11  1  0.37253300  0.62045700  0.85350300  1
  O  O12  1  0.63461500  0.35505700  0.12648600  1
  O  O13  1  0.63467100  0.85511200  0.62652700  1
  O  O14  1  0.18310400  0.37211100  0.30762100  1
  O  O15  1  0.18311400  0.87211300  0.80761700  1
  O  O16  1  0.81728100  0.61765200  0.07059100  1
  O  O17  1  0.81729200  0.11766800  0.57059500  1
  O  O18  1  0.68411500  0.36671100  0.43972800  1
  O  O19  1  0.68412100  0.86671400  0.93973300  1
  O  O20  1  0.87396800  0.61868500  0.36762500  1
  O  O21  1  0.87398100  0.11867300  0.86759500  1
  O  O22  1  0.69602900  0.86579000  0.31894500  1
  O  O23  1  0.69604000  0.36578000  0.81893000  1
loop_
_geom_bond_atom_site_label_1
_geom_bond_atom_site_label_2
_geom_bond_distance
_geom_bond_site_symmetry_2
Li0 O12 1.993939 1_555
Li0 O7 2.018624 1_654
Li0 O14 2.090144 1_655
Li0 O16 2.256729 1_555
Li0 O0 2.330205 1_655
Li0 O20 2.369667 1_555
Li1 O13 1.993518 1_555
Li1 O6 2.018485 1_655
Li1 O15 2.090191 1_655
Li1 O17 2.256789 1_565
Li1 O1 2.330254 1_665
Li1 O21 2.369477 1_565
Li2 O22 2.001442 1_555
Li2 O2 2.041581 1_555
Li2 O19 2.089956 1_554
Li2 O10 2.196678 1_565
Li2 O8 2.265654 1_565
Li2 O4 2.558779 1_565
Li3 O23 2.001564 1_555
Li3 O3 2.041690 1_555
Li3 O18 2.089945 1_555
Li3 O11 2.196573 1_555
Li3 O9 2.265363 1_555
Li3 O5 2.558516 1_555
Li4 O10 1.947609 1_655
Li4 O17 1.958820 1_555
Li4 O8 1.981103 1_555
Li4 O3 2.587874 1_655
Li5 O11 1.947877 1_655
Li5 O16 1.958882 1_556
Li5 O9 1.981140 1_555
Li5 O2 2.587671 1_656
Li6 O5 2.019272 1_555
Li6 O20 2.028896 1_555
Li6 O0 2.045621 1_555
Li6 O22 2.242061 1_555
Li6 O6 2.280505 1_555
Li6 O13 2.303297 1_555
Li7 O4 2.019106 1_556
Li7 O21 2.028918 1_555
Li7 O1 2.045548 1_555
Li7 O23 2.242265 1_555
Li7 O7 2.280554 1_555
Li7 O12 2.302712 1_556
Mn0 O16 1.939526 1_555
Mn0 O0 1.956140 1_555
Mn0 O7 1.992048 1_554
Mn0 O23 2.017941 1_554
Mn0 O11 2.141572 1_554
Mn0 O12 2.200757 1_555
Mn1 O17 1.940038 1_555
Mn1 O1 1.955927 1_555
Mn1 O6 1.991631 1_545
Mn1 O22 2.018080 1_545
Mn1 O10 2.141719 1_555
Mn1 O13 2.200746 1_545
O0 W3 1.942673 1_555
O1 W0 1.942715 1_555
O2 W3 1.973282 1_555
O2 Sb0 2.053287 1_464
O3 W0 1.973242 1_555
O3 Sb1 2.053342 1_455
O4 Sb0 1.982110 1_454
O4 W1 2.009694 1_555
O5 Sb1 1.982192 1_455
O5 W2 2.009693 1_555
O6 W3 1.921982 1_555
O7 W0 1.921917 1_555
O8 Sb0 1.978865 1_554
O8 W1 2.044929 1_555
O9 Sb1 1.978832 1_555
O9 W2 2.044928 1_555
O10 W1 1.901173 1_555
O11 W2 1.901272 1_555
O12 W1 1.866354 1_555
O13 W2 1.866455 1_555
O14 W1 1.948803 1_555
O14 Sb1 2.014004 1_455
O15 W2 1.948777 1_555
O15 Sb0 2.013983 1_465
O16 W3 1.952500 1_655
O17 W0 1.952385 1_655
O18 W1 1.954122 1_555
O18 Sb1 2.023739 1_555
O19 W2 1.954151 1_555
O19 Sb0 2.023736 1_565
O20 Sb1 1.993421 1_555
O20 W3 2.026447 1_655
O21 Sb0 1.993515 1_555
O21 W0 2.026291 1_655
O22 W3 1.919309 1_655
O23 W0 1.919179 1_655
