# generated using pymatgen
data_Li6V(SiO4)2
_symmetry_space_group_name_H-M   'P 1'
_cell_length_a   11.05407900
_cell_length_b   5.12876800
_cell_length_c   7.94498175
_cell_angle_alpha   51.47277831
_cell_angle_beta   90.00000000
_cell_angle_gamma   90.00000000
_symmetry_Int_Tables_number   1
_chemical_formula_structural   Li6V(SiO4)2
_chemical_formula_sum   'Li12 V2 Si4 O16'
_cell_volume   352.37791737
_cell_formula_units_Z   2
loop_
 _symmetry_equiv_pos_site_id
 _symmetry_equiv_pos_as_xyz
  1  'x, y, z'
loop_
 _atom_site_type_symbol
 _atom_site_label
 _atom_site_symmetry_multiplicity
 _atom_site_fract_x
 _atom_site_fract_y
 _atom_site_fract_z
 _atom_site_occupancy
  Li  Li0  1  0.59285300  0.12630500  0.01891100  1
  Li  Li1  1  0.81339300  0.94889400  0.24942900  1
  Li  Li2  1  0.32355200  0.10713200  0.23884400  1
  Li  Li3  1  0.44382700  0.67334000  0.30354500  1
  Li  Li4  1  0.09659300  0.80517700  0.50518200  1
  Li  Li5  1  0.59744400  0.68973200  0.49106400  1
  Li  Li6  1  0.40714700  0.12630500  0.51891100  1
  Li  Li7  1  0.67644800  0.10713200  0.73884400  1
  Li  Li8  1  0.18660700  0.94889400  0.74942900  1
  Li  Li9  1  0.55617300  0.67334000  0.80354500  1
  Li  Li10  1  0.90340700  0.80517700  0.00518200  1
  Li  Li11  1  0.40255600  0.68973200  0.99106400  1
  V  V0  1  0.07740600  0.30509500  0.99623300  1
  V  V1  1  0.92259400  0.30509500  0.49623300  1
  Si  Si0  1  0.65325000  0.42199000  0.24815400  1
  Si  Si1  1  0.17357900  0.57726700  0.24966300  1
  Si  Si2  1  0.82642100  0.57726700  0.74966300  1
  Si  Si3  1  0.34675000  0.42199000  0.74815400  1
  O  O0  1  0.58177000  0.74156100  0.02678300  1
  O  O1  1  0.09308000  0.68999900  0.03512700  1
  O  O2  1  0.31449300  0.47130000  0.25158000  1
  O  O3  1  0.65754000  0.10167600  0.24977500  1
  O  O4  1  0.79107300  0.54423300  0.25462700  1
  O  O5  1  0.17497200  0.89822100  0.25155300  1
  O  O6  1  0.57525400  0.32832800  0.45988800  1
  O  O7  1  0.10394900  0.25469600  0.46647400  1
  O  O8  1  0.90692000  0.68999900  0.53512700  1
  O  O9  1  0.41823000  0.74156100  0.52678300  1
  O  O10  1  0.82502800  0.89822100  0.75155300  1
  O  O11  1  0.34246000  0.10167600  0.74977500  1
  O  O12  1  0.68550700  0.47130000  0.75158000  1
  O  O13  1  0.20892700  0.54423300  0.75462700  1
  O  O14  1  0.89605100  0.25469600  0.96647400  1
  O  O15  1  0.42474600  0.32832800  0.95988800  1
loop_
_geom_bond_atom_site_label_1
_geom_bond_atom_site_label_2
_geom_bond_distance
_geom_bond_site_symmetry_2
Li0 O3 1.898145 1_555
Li0 O0 1.938799 1_545
Li0 O12 2.002287 1_554
Li0 O15 2.035026 1_554
Li1 O3 1.893350 1_565
Li1 O14 1.989001 1_564
Li1 O8 2.056581 1_555
Li1 O4 2.064737 1_555
Li2 O5 1.928980 1_545
Li2 O2 1.934976 1_555
Li2 O15 2.077983 1_554
Li2 O9 2.121492 1_545
Li3 O2 1.954765 1_555
Li3 O6 2.011589 1_555
Li3 O9 2.030101 1_555
Li3 O0 2.514779 1_555
Li4 O5 1.959844 1_555
Li4 O13 1.989099 1_555
Li4 O7 2.129120 1_565
Li4 O8 2.150920 1_455
Li5 O3 1.880005 1_565
Li5 O12 1.896854 1_555
Li5 O6 2.032029 1_555
Li5 O9 2.041987 1_555
Li6 O11 1.898145 1_555
Li6 O9 1.938799 1_545
Li6 O2 2.002287 1_555
Li6 O6 2.035026 1_555
Li7 O10 1.928980 1_545
Li7 O12 1.934976 1_555
Li7 O6 2.077983 1_555
Li7 O0 2.121492 1_546
Li8 O11 1.893350 1_565
Li8 O7 1.989001 1_565
Li8 O1 2.056581 1_556
Li8 O13 2.064737 1_555
Li9 O12 1.954765 1_555
Li9 O15 2.011589 1_555
Li9 O0 2.030101 1_556
Li9 O9 2.514779 1_555
Li10 O10 1.959844 1_554
Li10 O4 1.989099 1_555
Li10 O14 2.129120 1_564
Li10 O1 2.150920 1_655
Li11 O11 1.880005 1_565
Li11 O2 1.896854 1_556
Li11 O15 2.032029 1_555
Li11 O0 2.041987 1_556
O0 Si0 1.677159 1_555
O1 Si1 1.674418 1_555
O1 V0 2.186882 1_554
O2 Si1 1.646706 1_555
O3 Si0 1.635513 1_555
O4 Si0 1.660409 1_555
O4 V1 2.090380 1_555
O5 Si1 1.655565 1_555
O5 V0 2.087875 1_564
O6 Si0 1.672506 1_555
O7 Si1 1.657246 1_555
O7 V1 2.053710 1_455
O8 Si2 1.674418 1_555
O8 V1 2.186882 1_555
O9 Si3 1.677159 1_555
O10 Si2 1.655565 1_555
O10 V1 2.087875 1_565
O11 Si3 1.635513 1_555
O12 Si2 1.646706 1_555
O13 Si3 1.660409 1_555
O13 V0 2.090380 1_555
O14 Si2 1.657246 1_555
O14 V0 2.053710 1_655
O15 Si3 1.672506 1_555
