# generated using pymatgen
data_RbLi2V2(BO3)3
_symmetry_space_group_name_H-M   'P 1'
_cell_length_a   5.12370300
_cell_length_b   6.46423800
_cell_length_c   13.12012180
_cell_angle_alpha   88.55560501
_cell_angle_beta   90.00000000
_cell_angle_gamma   90.00000000
_symmetry_Int_Tables_number   1
_chemical_formula_structural   RbLi2V2(BO3)3
_chemical_formula_sum   'Rb2 Li4 V4 B6 O18'
_cell_volume   434.41132349
_cell_formula_units_Z   2
loop_
 _symmetry_equiv_pos_site_id
 _symmetry_equiv_pos_as_xyz
  1  'x, y, z'
loop_
 _atom_site_type_symbol
 _atom_site_label
 _atom_site_symmetry_multiplicity
 _atom_site_fract_x
 _atom_site_fract_y
 _atom_site_fract_z
 _atom_site_occupancy
  Rb  Rb0  1  0.79462800  0.00000000  0.75000000  1
  Rb  Rb1  1  0.20537200  0.00000000  0.25000000  1
  Li  Li0  1  0.82857700  0.50338700  0.86433000  1
  Li  Li1  1  0.82857700  0.49661300  0.63567000  1
  Li  Li2  1  0.17142300  0.50338700  0.36433000  1
  Li  Li3  1  0.17142300  0.49661300  0.13567000  1
  V  V0  1  0.32019200  0.76385600  0.56239800  1
  V  V1  1  0.67980800  0.76385600  0.06239800  1
  V  V2  1  0.32019200  0.23614400  0.93760200  1
  V  V3  1  0.67980800  0.23614400  0.43760200  1
  B  B0  1  0.17862000  0.80122200  0.95676200  1
  B  B1  1  0.82138000  0.80122200  0.45676200  1
  B  B2  1  0.33115000  0.50000000  0.75000000  1
  B  B3  1  0.66885000  0.50000000  0.25000000  1
  B  B4  1  0.17862000  0.19877800  0.54323800  1
  B  B5  1  0.82138000  0.19877800  0.04323800  1
  O  O0  1  0.29829600  0.95196600  0.89594100  1
  O  O1  1  0.70170400  0.95196600  0.39594100  1
  O  O2  1  0.91488100  0.75838100  0.94510900  1
  O  O3  1  0.08511900  0.75838100  0.44510900  1
  O  O4  1  0.68074300  0.69366900  0.53155700  1
  O  O5  1  0.31925700  0.69366900  0.03155700  1
  O  O6  1  0.18073400  0.59513500  0.67202200  1
  O  O7  1  0.81926600  0.59513500  0.17202200  1
  O  O8  1  0.59472900  0.50000000  0.75000000  1
  O  O9  1  0.40527100  0.50000000  0.25000000  1
  O  O10  1  0.18073400  0.40486500  0.82797800  1
  O  O11  1  0.81926600  0.40486500  0.32797800  1
  O  O12  1  0.68074300  0.30633100  0.96844300  1
  O  O13  1  0.31925700  0.30633100  0.46844300  1
  O  O14  1  0.91488100  0.24161900  0.55489100  1
  O  O15  1  0.08511900  0.24161900  0.05489100  1
  O  O16  1  0.29829600  0.04803400  0.60405900  1
  O  O17  1  0.70170400  0.04803400  0.10405900  1
loop_
_geom_bond_atom_site_label_1
_geom_bond_atom_site_label_2
_geom_bond_distance
_geom_bond_site_symmetry_2
Li0 O8 1.920368 1_555
Li0 O10 1.975870 1_655
Li0 O12 1.993620 1_555
Li0 O2 2.030734 1_555
Li1 O8 1.920368 1_555
Li1 O6 1.975870 1_655
Li1 O4 1.993620 1_555
Li1 O14 2.030734 1_555
Li2 O9 1.920368 1_555
Li2 O11 1.975870 1_455
Li2 O13 1.993620 1_555
Li2 O3 2.030734 1_555
Li3 O9 1.920368 1_555
Li3 O7 1.975870 1_455
Li3 O5 1.993620 1_555
Li3 O15 2.030734 1_555
B0 O0 1.386762 1_555
B0 O2 1.388621 1_455
B0 O5 1.389677 1_556
B1 O1 1.386762 1_555
B1 O3 1.388621 1_655
B1 O4 1.389677 1_555
B2 O8 1.350501 1_555
B2 O6 1.409656 1_555
B2 O10 1.409656 1_555
B3 O9 1.350501 1_555
B3 O11 1.409656 1_555
B3 O7 1.409656 1_555
B4 O16 1.386762 1_555
B4 O14 1.388621 1_455
B4 O13 1.389677 1_555
B5 O17 1.386762 1_555
B5 O15 1.388621 1_655
B5 O12 1.389677 1_554
O0 V2 1.933009 1_565
O0 Rb0 3.193729 1_565
O0 Rb0 3.223738 1_465
O1 V3 1.933009 1_565
O1 Rb1 3.193729 1_565
O1 Rb1 3.223738 1_665
O2 V1 1.955181 1_556
O2 Rb0 3.028266 1_565
O3 V0 1.955181 1_555
O3 Rb1 3.028266 1_565
O4 V0 1.947193 1_555
O5 V1 1.947193 1_555
O6 V0 1.920849 1_555
O6 Rb0 3.456119 1_465
O7 V1 1.920849 1_555
O7 Rb1 3.456119 1_665
O8 Rb0 3.390520 1_555
O8 Rb0 3.390520 1_565
O9 Rb1 3.390520 1_555
O9 Rb1 3.390520 1_565
O10 V2 1.920849 1_555
O10 Rb0 3.456119 1_455
O11 V3 1.920849 1_555
O11 Rb1 3.456119 1_655
O12 V2 1.947193 1_555
O13 V3 1.947193 1_555
O14 V3 1.955181 1_555
O14 Rb0 3.028266 1_555
O15 V2 1.955181 1_554
O15 Rb1 3.028266 1_555
O16 V0 1.933009 1_545
O16 Rb0 3.193729 1_555
O16 Rb0 3.223738 1_455
O17 V1 1.933009 1_545
O17 Rb1 3.193729 1_555
O17 Rb1 3.223738 1_655
