# generated using pymatgen
data_HfMoP
_symmetry_space_group_name_H-M   'P 1'
_cell_length_a   6.89715982
_cell_length_b   6.89715899
_cell_length_c   3.40103816
_cell_angle_alpha   90.00000000
_cell_angle_beta   90.00000000
_cell_angle_gamma   119.99999911
_symmetry_Int_Tables_number   1
_chemical_formula_structural   HfMoP
_chemical_formula_sum   'Hf3 Mo3 P3'
_cell_volume   140.11436630
_cell_formula_units_Z   3
loop_
 _symmetry_equiv_pos_site_id
 _symmetry_equiv_pos_as_xyz
  1  'x, y, z'
loop_
 _atom_site_type_symbol
 _atom_site_label
 _atom_site_symmetry_multiplicity
 _atom_site_fract_x
 _atom_site_fract_y
 _atom_site_fract_z
 _atom_site_occupancy
  Hf  Hf0  1  -0.00000000  0.59681147  0.50000000  1
  Hf  Hf1  1  0.40318853  0.40318853  0.50000000  1
  Hf  Hf2  1  0.59681147  0.00000000  0.50000000  1
  Mo  Mo0  1  0.25297852  0.00000000  0.00000000  1
  Mo  Mo1  1  0.74702148  0.74702148  -0.00000000  1
  Mo  Mo2  1  -0.00000000  0.25297852  -0.00000000  1
  P  P0  1  0.66666700  0.33333300  -0.00000000  1
  P  P1  1  0.33333300  0.66666700  -0.00000000  1
  P  P2  1  -0.00000000  -0.00000000  0.50000000  1
loop_
_geom_bond_atom_site_label_1
_geom_bond_atom_site_label_2
_geom_bond_distance
_geom_bond_site_symmetry_2
Hf0 P1 2.702192 1_556
Hf0 P1 2.702192 1_555
Hf0 P0 2.702194 1_456
Hf0 P0 2.702194 1_455
Hf0 P2 2.780855 1_565
Hf0 Mo2 2.918157 1_555
Hf0 Mo2 2.918157 1_556
Hf0 Mo0 2.969383 1_565
Hf0 Mo0 2.969383 1_566
Hf0 Mo1 2.969383 1_456
Hf0 Mo1 2.969383 1_455
Hf1 P1 2.702197 1_555
Hf1 P1 2.702197 1_556
Hf1 P0 2.702197 1_556
Hf1 P0 2.702197 1_555
Hf1 P2 2.780856 1_555
Hf1 Mo1 2.918157 1_556
Hf1 Mo1 2.918157 1_555
Hf1 Mo0 2.969383 1_556
Hf1 Mo0 2.969383 1_555
Hf1 Mo2 2.969383 1_556
Hf1 Mo2 2.969383 1_555
Hf2 P0 2.702192 1_555
Hf2 P0 2.702192 1_556
Hf2 P1 2.702194 1_546
Hf2 P1 2.702194 1_545
Hf2 P2 2.780856 1_655
Hf2 Mo0 2.918157 1_556
Hf2 Mo0 2.918157 1_555
Hf2 Mo1 2.969383 1_546
Hf2 Mo1 2.969383 1_545
Hf2 Mo2 2.969383 1_655
Hf2 Mo2 2.969383 1_656
Mo0 P2 2.436434 1_555
Mo0 P2 2.436434 1_554
Mo0 P1 2.620490 1_545
Mo0 P0 2.620494 1_555
Mo1 P2 2.436433 1_664
Mo1 P2 2.436433 1_665
Mo1 P0 2.620496 1_555
Mo1 P1 2.620497 1_555
Mo2 P2 2.436433 1_555
Mo2 P2 2.436433 1_554
Mo2 P0 2.620490 1_455
Mo2 P1 2.620494 1_555
