# generated using pymatgen
data_Li3CuSbO5
_symmetry_space_group_name_H-M   'P 1'
_cell_length_a   5.20225880
_cell_length_b   5.46285944
_cell_length_c   7.83672873
_cell_angle_alpha   104.80175027
_cell_angle_beta   102.88894879
_cell_angle_gamma   103.74834550
_symmetry_Int_Tables_number   1
_chemical_formula_structural   Li3CuSbO5
_chemical_formula_sum   'Li6 Cu2 Sb2 O10'
_cell_volume   199.37630512
_cell_formula_units_Z   2
loop_
 _symmetry_equiv_pos_site_id
 _symmetry_equiv_pos_as_xyz
  1  'x, y, z'
loop_
 _atom_site_type_symbol
 _atom_site_label
 _atom_site_symmetry_multiplicity
 _atom_site_fract_x
 _atom_site_fract_y
 _atom_site_fract_z
 _atom_site_occupancy
  Li  Li0  1  0.22493600  0.89138900  0.37576300  1
  Li  Li1  1  0.41805500  0.29773100  0.81190700  1
  Li  Li2  1  0.49808200  0.48856800  0.49243100  1
  Li  Li3  1  0.29095300  0.10698400  0.10043800  1
  Li  Li4  1  0.58977000  0.70358900  0.19730400  1
  Li  Li5  1  0.77685500  0.10479700  0.61094900  1
  Cu  Cu0  1  0.00687100  0.50053600  0.00249100  1
  Cu  Cu1  1  0.70636200  0.89571000  0.90341500  1
  Sb  Sb0  1  0.10663800  0.69951000  0.70156200  1
  Sb  Sb1  1  0.88823800  0.29604200  0.29550800  1
  O  O0  1  0.04972700  0.03745500  0.82687200  1
  O  O1  1  0.34322600  0.68250800  0.93838900  1
  O  O2  1  0.14462400  0.33948000  0.54922800  1
  O  O3  1  0.22172300  0.50663600  0.24214100  1
  O  O4  1  0.45611300  0.88914300  0.66781900  1
  O  O5  1  0.56024900  0.11221000  0.34932800  1
  O  O6  1  0.79113200  0.48039300  0.75954200  1
  O  O7  1  0.86627700  0.66448600  0.45004700  1
  O  O8  1  0.66931500  0.34102800  0.06917300  1
  O  O9  1  0.93579200  0.95396400  0.16213300  1
loop_
_geom_bond_atom_site_label_1
_geom_bond_atom_site_label_2
_geom_bond_distance
_geom_bond_site_symmetry_2
Li0 O5 1.956962 1_565
Li0 O3 2.089379 1_555
Li0 O9 2.143745 1_455
Li0 O7 2.260678 1_455
Li0 O4 2.340580 1_555
Li1 O8 2.064698 1_556
Li1 O6 2.138927 1_555
Li1 O0 2.144171 1_555
Li1 O1 2.246968 1_555
Li1 O4 2.306149 1_545
Li1 O2 2.323953 1_555
Li2 O2 2.020168 1_555
Li2 O7 2.067556 1_555
Li2 O3 2.198253 1_555
Li2 O5 2.211134 1_555
Li2 O6 2.316118 1_555
Li2 O4 2.355758 1_555
Li3 O9 2.053586 1_445
Li3 O0 2.114798 1_554
Li3 O5 2.121638 1_555
Li3 O8 2.179014 1_555
Li3 O3 2.332987 1_555
Li3 O1 2.452124 1_544
Li4 O1 2.103500 1_554
Li4 O9 2.104943 1_555
Li4 O3 2.112155 1_555
Li4 O8 2.158967 1_555
Li4 O7 2.264743 1_555
Li4 O5 2.304686 1_565
Li5 O4 2.009072 1_545
Li5 O6 2.059051 1_555
Li5 O5 2.123293 1_555
Li5 O0 2.123307 1_655
Li5 O2 2.258728 1_655
Li5 O7 2.614567 1_545
Cu0 O6 1.943611 1_454
Cu0 O3 1.947149 1_555
Cu0 O8 2.007691 1_455
Cu0 O1 2.030493 1_554
Cu1 O4 1.994141 1_555
Cu1 O9 2.011668 1_556
Cu1 O0 2.051361 1_665
Cu1 O1 2.085357 1_555
Cu1 O6 2.450224 1_555
Cu1 O8 2.522402 1_566
O0 Sb0 1.980770 1_545
O1 Sb0 2.022711 1_555
O2 Sb1 2.052834 1_455
O2 Sb0 2.103040 1_555
O3 Sb1 2.032015 1_455
O4 Sb0 1.976783 1_555
O5 Sb1 1.954692 1_555
O6 Sb0 2.002510 1_655
O7 Sb0 2.019720 1_655
O7 Sb1 2.111040 1_555
O8 Sb1 1.989504 1_555
O9 Sb1 1.995723 1_565
