# generated using pymatgen
data_Nd3SbO7
_symmetry_space_group_name_H-M   'P 1'
_cell_length_a   6.63992456
_cell_length_b   6.63992456
_cell_length_c   7.66276199
_cell_angle_alpha   90.00000000
_cell_angle_beta   90.00000000
_cell_angle_gamma   110.77339079
_symmetry_Int_Tables_number   1
_chemical_formula_structural   Nd3SbO7
_chemical_formula_sum   'Nd6 Sb2 O14'
_cell_volume   315.87759417
_cell_formula_units_Z   2
loop_
 _symmetry_equiv_pos_site_id
 _symmetry_equiv_pos_as_xyz
  1  'x, y, z'
loop_
 _atom_site_type_symbol
 _atom_site_label
 _atom_site_symmetry_multiplicity
 _atom_site_fract_x
 _atom_site_fract_y
 _atom_site_fract_z
 _atom_site_occupancy
  Nd  Nd0  1  -0.00000000  -0.00000000  0.50000000  1
  Nd  Nd1  1  -0.00000000  -0.00000000  0.00000000  1
  Nd  Nd2  1  0.52020048  0.06642899  0.25000000  1
  Nd  Nd3  1  0.93357101  0.47979952  0.75000000  1
  Nd  Nd4  1  0.47979952  0.93357101  0.75000000  1
  Nd  Nd5  1  0.06642899  0.52020048  0.25000000  1
  Sb  Sb0  1  0.50000000  0.50000000  0.50000000  1
  Sb  Sb1  1  0.50000000  0.50000000  0.00000000  1
  O  O0  1  0.44005362  0.18819400  0.53440156  1
  O  O1  1  0.81180600  0.55994638  0.46559844  1
  O  O2  1  0.44005362  0.18819400  0.96559844  1
  O  O3  1  0.81180600  0.55994638  0.03440156  1
  O  O4  1  0.55994638  0.81180600  0.46559844  1
  O  O5  1  0.18819400  0.44005362  0.53440156  1
  O  O6  1  0.55994638  0.81180600  0.03440156  1
  O  O7  1  0.18819400  0.44005362  0.96559844  1
  O  O8  1  0.15266265  0.88915084  0.25000000  1
  O  O9  1  0.11084916  0.84733735  0.75000000  1
  O  O10  1  0.84733735  0.11084916  0.75000000  1
  O  O11  1  0.88915084  0.15266265  0.25000000  1
  O  O12  1  0.42081813  0.42081813  0.25000000  1
  O  O13  1  0.57918187  0.57918187  0.75000000  1
loop_
_geom_bond_atom_site_label_1
_geom_bond_atom_site_label_2
_geom_bond_distance
_geom_bond_site_symmetry_2
Nd0 O11 2.401743 1_455
Nd0 O9 2.401743 1_545
Nd0 O10 2.401743 1_455
Nd0 O8 2.401743 1_545
Nd0 O5 2.752932 1_555
Nd0 O4 2.752932 1_445
Nd0 O1 2.752932 1_445
Nd0 O0 2.752932 1_555
Nd1 O11 2.401743 1_455
Nd1 O10 2.401743 1_454
Nd1 O8 2.401743 1_545
Nd1 O9 2.401743 1_544
Nd1 O7 2.752932 1_554
Nd1 O6 2.752932 1_445
Nd1 O3 2.752932 1_445
Nd1 O2 2.752932 1_554
Nd2 O8 2.302945 1_545
Nd2 O11 2.309626 1_555
Nd2 O4 2.444157 1_545
Nd2 O6 2.444157 1_545
Nd2 O2 2.447745 1_554
Nd2 O0 2.447745 1_555
Nd2 O12 2.659716 1_555
Nd3 O9 2.302945 1_655
Nd3 O10 2.309626 1_555
Nd3 O7 2.444157 1_655
Nd3 O5 2.444157 1_655
Nd3 O1 2.447745 1_555
Nd3 O3 2.447745 1_556
Nd3 O13 2.659716 1_555
Nd4 O10 2.302945 1_565
Nd4 O9 2.309626 1_555
Nd4 O0 2.444157 1_565
Nd4 O2 2.444157 1_565
Nd4 O4 2.447745 1_555
Nd4 O6 2.447745 1_556
Nd4 O13 2.659716 1_555
Nd5 O11 2.302945 1_455
Nd5 O8 2.309626 1_555
Nd5 O3 2.444157 1_455
Nd5 O1 2.444157 1_455
Nd5 O7 2.447745 1_554
Nd5 O5 2.447745 1_555
Nd5 O12 2.659716 1_555
O0 Sb0 1.982369 1_555
O1 Sb0 1.982369 1_555
O2 Sb1 1.982369 1_556
O3 Sb1 1.982369 1_555
O4 Sb0 1.982369 1_555
O5 Sb0 1.982369 1_555
O6 Sb1 1.982369 1_555
O7 Sb1 1.982369 1_556
O12 Sb1 2.006649 1_555
O12 Sb0 2.006649 1_555
O13 Sb0 2.006649 1_555
O13 Sb1 2.006649 1_556
