# generated using pymatgen
data_ZnCoO2
_symmetry_space_group_name_H-M   'P 1'
_cell_length_a   3.05265184
_cell_length_b   8.62523984
_cell_length_c   6.09261980
_cell_angle_alpha   90.16869158
_cell_angle_beta   90.00000468
_cell_angle_gamma   90.00000490
_symmetry_Int_Tables_number   1
_chemical_formula_structural   ZnCoO2
_chemical_formula_sum   'Zn4 Co4 O8'
_cell_volume   160.41709630
_cell_formula_units_Z   4
loop_
 _symmetry_equiv_pos_site_id
 _symmetry_equiv_pos_as_xyz
  1  'x, y, z'
loop_
 _atom_site_type_symbol
 _atom_site_label
 _atom_site_symmetry_multiplicity
 _atom_site_fract_x
 _atom_site_fract_y
 _atom_site_fract_z
 _atom_site_occupancy
  Zn  Zn0  1  0.00000000  0.00000000  0.00000000  1
  Zn  Zn1  1  0.50000000  0.25000000  0.75000000  1
  Zn  Zn2  1  0.00000000  0.50000000  0.50000000  1
  Zn  Zn3  1  0.50000000  0.75000000  0.25000000  1
  Co  Co0  1  0.00000000  0.00000000  0.50000000  1
  Co  Co1  1  0.50000000  0.25000000  0.25000000  1
  Co  Co2  1  0.00000000  0.50000000  0.00000000  1
  Co  Co3  1  0.50000000  0.75000000  0.75000000  1
  O  O0  1  0.00000000  0.24939500  0.49878900  1
  O  O1  1  0.50000000  0.49939500  0.24878900  1
  O  O2  1  0.00000000  0.74939500  0.99878900  1
  O  O3  1  0.50000000  0.99939500  0.74878900  1
  O  O4  1  0.00000000  0.75060500  0.50121100  1
  O  O5  1  0.50000000  0.00060500  0.25121100  1
  O  O6  1  0.00000000  0.25060500  0.00121100  1
  O  O7  1  0.50000000  0.50060500  0.75121100  1
loop_
_geom_bond_atom_site_label_1
_geom_bond_atom_site_label_2
_geom_bond_distance
_geom_bond_site_symmetry_2
Co0 O3 2.151121 1_545
Co0 O5 2.151121 1_455
Co0 O3 2.151122 1_445
Co0 O5 2.151122 1_555
Co0 O0 2.151126 1_555
Co0 O4 2.151126 1_545
Co1 O0 2.151121 1_655
Co1 O6 2.151121 1_555
Co1 O0 2.151122 1_555
Co1 O6 2.151122 1_655
Co1 O1 2.151126 1_555
Co1 O5 2.151126 1_555
Co2 O1 2.151121 1_555
Co2 O7 2.151121 1_454
Co2 O1 2.151122 1_455
Co2 O7 2.151122 1_554
Co2 O2 2.151126 1_554
Co2 O6 2.151126 1_555
Co3 O2 2.151121 1_655
Co3 O4 2.151121 1_555
Co3 O2 2.151122 1_555
Co3 O4 2.151122 1_655
Co3 O3 2.151126 1_555
Co3 O7 2.151126 1_555
O0 Zn2 2.161519 1_555
O0 Zn1 2.161523 1_555
O0 Zn1 2.161523 1_455
O1 Zn3 2.161519 1_555
O1 Zn2 2.161523 1_655
O1 Zn2 2.161523 1_555
O2 Zn0 2.161519 1_566
O2 Zn3 2.161523 1_556
O2 Zn3 2.161523 1_456
O3 Zn1 2.161519 1_565
O3 Zn0 2.161523 1_666
O3 Zn0 2.161523 1_566
O4 Zn2 2.161519 1_555
O4 Zn3 2.161523 1_455
O4 Zn3 2.161523 1_555
O5 Zn3 2.161519 1_545
O5 Zn0 2.161523 1_555
O5 Zn0 2.161523 1_655
O6 Zn0 2.161519 1_555
O6 Zn1 2.161523 1_454
O6 Zn1 2.161523 1_554
O7 Zn1 2.161519 1_555
O7 Zn2 2.161523 1_555
O7 Zn2 2.161523 1_655
