# generated using pymatgen
data_Li5Co5(CuO6)2
_symmetry_space_group_name_H-M   'P 1'
_cell_length_a   5.01715890
_cell_length_b   5.01716306
_cell_length_c   9.54342946
_cell_angle_alpha   94.62259240
_cell_angle_beta   94.62275596
_cell_angle_gamma   118.10277192
_symmetry_Int_Tables_number   1
_chemical_formula_structural   Li5Co5(CuO6)2
_chemical_formula_sum   'Li5 Co5 Cu2 O12'
_cell_volume   209.28629112
_cell_formula_units_Z   1
loop_
 _symmetry_equiv_pos_site_id
 _symmetry_equiv_pos_as_xyz
  1  'x, y, z'
loop_
 _atom_site_type_symbol
 _atom_site_label
 _atom_site_symmetry_multiplicity
 _atom_site_fract_x
 _atom_site_fract_y
 _atom_site_fract_z
 _atom_site_occupancy
  Li  Li0  1  0.82515300  0.66178800  0.49174300  1
  Li  Li1  1  0.67759400  0.84435300  0.00717300  1
  Li  Li2  1  0.33821100  0.17484600  0.00825800  1
  Li  Li3  1  0.15564800  0.32240600  0.49282800  1
  Li  Li4  1  0.08153700  0.91846700  0.25000100  1
  Co  Co0  1  0.92018200  0.07981800  0.75000000  1
  Co  Co1  1  0.00000000  0.51234200  0.00715200  1
  Co  Co2  1  0.48765800  0.00000100  0.49284900  1
  Co  Co3  1  0.58690800  0.41309200  0.75000100  1
  Co  Co4  1  0.41374600  0.58625500  0.25000000  1
  Cu  Cu0  1  0.74563300  0.25436800  0.25000100  1
  Cu  Cu1  1  0.25406000  0.74594000  0.75000000  1
  O  O0  1  0.83094100  0.32157000  0.62578300  1
  O  O1  1  0.94006500  0.76623600  0.86027000  1
  O  O2  1  0.69398800  0.53334200  0.13208000  1
  O  O3  1  0.67842900  0.16905800  0.87421800  1
  O  O4  1  0.46665800  0.30601100  0.36792100  1
  O  O5  1  0.74910000  0.94625600  0.36551800  1
  O  O6  1  0.56979800  0.72407900  0.64487000  1
  O  O7  1  0.23376400  0.05993600  0.63973000  1
  O  O8  1  0.34164800  0.82553000  0.11573800  1
  O  O9  1  0.27592200  0.43020500  0.85513000  1
  O  O10  1  0.05374400  0.25090200  0.13448300  1
  O  O11  1  0.17447100  0.65835300  0.38426200  1
loop_
_geom_bond_atom_site_label_1
_geom_bond_atom_site_label_2
_geom_bond_distance
_geom_bond_site_symmetry_2
Li0 O4 2.027408 1_555
Li0 O5 2.085606 1_555
Li0 O11 2.106979 1_655
Li0 O6 2.116596 1_555
Li0 O0 2.223390 1_555
Li0 O7 2.325546 1_665
Li1 O8 2.017567 1_555
Li1 O2 2.065787 1_555
Li1 O1 2.132713 1_554
Li1 O3 2.142792 1_564
Li1 O10 2.191484 1_665
Li1 O9 2.362592 1_554
Li2 O2 2.027410 1_555
Li2 O10 2.085611 1_555
Li2 O8 2.106967 1_545
Li2 O9 2.116612 1_554
Li2 O3 2.223392 1_554
Li2 O1 2.325544 1_444
Li3 O11 2.017575 1_555
Li3 O4 2.065786 1_555
Li3 O7 2.132698 1_555
Li3 O0 2.142800 1_455
Li3 O5 2.191481 1_445
Li3 O6 2.362594 1_555
Li4 O11 2.075756 1_555
Li4 O8 2.075766 1_555
Li4 O5 2.123047 1_455
Li4 O10 2.123050 1_565
Li4 O4 2.130219 1_565
Li4 O2 2.130242 1_455
Co0 O0 1.932550 1_555
Co0 O3 1.932560 1_555
Co0 O6 1.937422 1_545
Co0 O9 1.937430 1_655
Co0 O7 1.997611 1_655
Co0 O1 1.997612 1_545
Co1 O8 1.842500 1_555
Co1 O10 1.951202 1_555
Co1 O3 1.969471 1_454
Co1 O2 2.053514 1_455
Co1 O1 2.063667 1_454
Co1 O9 2.226187 1_554
Co2 O11 1.842503 1_545
Co2 O5 1.951214 1_545
Co2 O0 1.969465 1_555
Co2 O4 2.053504 1_555
Co2 O7 2.063662 1_555
Co2 O6 2.226185 1_545
Co3 O3 1.947064 1_555
Co3 O0 1.947070 1_555
Co3 O9 1.952702 1_555
Co3 O6 1.952710 1_555
Co3 O1 1.956375 1_555
Co3 O7 1.956380 1_555
Co4 O8 1.948362 1_555
Co4 O11 1.948364 1_555
Co4 O10 1.955910 1_555
Co4 O5 1.955914 1_555
Co4 O2 1.967828 1_555
Co4 O4 1.967838 1_555
Cu0 O4 1.959893 1_555
Cu0 O2 1.959897 1_555
Cu0 O5 1.975405 1_545
Cu0 O10 1.975407 1_655
Cu0 O11 2.325441 1_655
Cu0 O8 2.325449 1_545
Cu1 O9 1.982454 1_555
Cu1 O6 1.982467 1_555
Cu1 O1 2.000167 1_455
Cu1 O7 2.000170 1_565
Cu1 O3 2.318269 1_565
Cu1 O0 2.318270 1_455
