# generated using pymatgen
data_BaNb2Fe2(PO4)6
_symmetry_space_group_name_H-M   'P 1'
_cell_length_a   8.64747200
_cell_length_b   9.28317500
_cell_length_c   12.68978447
_cell_angle_alpha   84.82044656
_cell_angle_beta   90.00000000
_cell_angle_gamma   90.00000000
_symmetry_Int_Tables_number   1
_chemical_formula_structural   BaNb2Fe2(PO4)6
_chemical_formula_sum   'Ba2 Nb4 Fe4 P12 O48'
_cell_volume   1014.52546715
_cell_formula_units_Z   2
loop_
 _symmetry_equiv_pos_site_id
 _symmetry_equiv_pos_as_xyz
  1  'x, y, z'
loop_
 _atom_site_type_symbol
 _atom_site_label
 _atom_site_symmetry_multiplicity
 _atom_site_fract_x
 _atom_site_fract_y
 _atom_site_fract_z
 _atom_site_occupancy
  Ba  Ba0  1  0.00000000  0.00000000  0.50000000  1
  Ba  Ba1  1  0.50000000  0.50000000  0.50000000  1
  Nb  Nb0  1  0.49901700  0.21045800  0.85291600  1
  Nb  Nb1  1  0.99901700  0.28954200  0.14708400  1
  Nb  Nb2  1  0.50098300  0.78954200  0.14708400  1
  Nb  Nb3  1  0.00098300  0.71045800  0.85291600  1
  Fe  Fe0  1  0.50189900  0.80527500  0.65021000  1
  Fe  Fe1  1  0.00189900  0.69472500  0.34979000  1
  Fe  Fe2  1  0.49810100  0.19472500  0.34979000  1
  Fe  Fe3  1  0.99810100  0.30527500  0.65021000  1
  P  P0  1  0.35542900  0.85829900  0.39367300  1
  P  P1  1  0.28282100  0.50269900  0.74668000  1
  P  P2  1  0.14457100  0.35829900  0.39367300  1
  P  P3  1  0.86135800  0.35944300  0.88947700  1
  P  P4  1  0.36135800  0.14055700  0.11052300  1
  P  P5  1  0.78282100  0.99730100  0.25332000  1
  P  P6  1  0.21717900  0.00269900  0.74668000  1
  P  P7  1  0.63864200  0.85944300  0.88947700  1
  P  P8  1  0.13864200  0.64055700  0.11052300  1
  P  P9  1  0.85542900  0.64170100  0.60632700  1
  P  P10  1  0.71717900  0.49730100  0.25332000  1
  P  P11  1  0.64457100  0.14170100  0.60632700  1
  O  O0  1  0.31224000  0.91855100  0.67103100  1
  O  O1  1  0.18218600  0.82161400  0.38977500  1
  O  O2  1  0.43243500  0.78689400  0.49453900  1
  O  O3  1  0.43972100  0.79153700  0.29875900  1
  O  O4  1  0.39074600  0.60614300  0.68192400  1
  O  O5  1  0.13172900  0.52371700  0.38444500  1
  O  O6  1  0.18776000  0.41855100  0.67103100  1
  O  O7  1  0.38192100  0.38941000  0.81779600  1
  O  O8  1  0.12493100  0.47388300  0.11764300  1
  O  O9  1  0.81799400  0.41734400  0.17597800  1
  O  O10  1  0.31781400  0.32161400  0.38977500  1
  O  O11  1  0.06756500  0.28689400  0.49453900  1
  O  O12  1  0.06027900  0.29153700  0.29875900  1
  O  O13  1  0.68640900  0.32025500  0.88801200  1
  O  O14  1  0.92690800  0.29963400  0.99885000  1
  O  O15  1  0.94684100  0.29040500  0.80296100  1
  O  O16  1  0.44684100  0.20959500  0.19703900  1
  O  O17  1  0.42690800  0.20036600  0.00115000  1
  O  O18  1  0.18640900  0.17974500  0.11198800  1
  O  O19  1  0.88192100  0.11059000  0.18220400  1
  O  O20  1  0.36827100  0.02371700  0.38444500  1
  O  O21  1  0.10925400  0.10614300  0.68192400  1
  O  O22  1  0.31799400  0.08265600  0.82402200  1
  O  O23  1  0.62493100  0.02611700  0.88235700  1
  O  O24  1  0.37506900  0.97388300  0.11764300  1
  O  O25  1  0.68200600  0.91734400  0.17597800  1
  O  O26  1  0.89074600  0.89385700  0.31807600  1
  O  O27  1  0.63172900  0.97628300  0.61555500  1
  O  O28  1  0.11807900  0.88941000  0.81779600  1
  O  O29  1  0.81359100  0.82025500  0.88801200  1
  O  O30  1  0.57309200  0.79963400  0.99885000  1
  O  O31  1  0.55315900  0.79040500  0.80296100  1
  O  O32  1  0.05315900  0.70959500  0.19703900  1
  O  O33  1  0.07309200  0.70036600  0.00115000  1
  O  O34  1  0.31359100  0.67974500  0.11198800  1
  O  O35  1  0.93972100  0.70846300  0.70124100  1
  O  O36  1  0.93243500  0.71310600  0.50546100  1
  O  O37  1  0.68218600  0.67838600  0.61022500  1
  O  O38  1  0.18200600  0.58265600  0.82402200  1
  O  O39  1  0.87506900  0.52611700  0.88235700  1
  O  O40  1  0.61807900  0.61059000  0.18220400  1
  O  O41  1  0.81224000  0.58144900  0.32896900  1
  O  O42  1  0.86827100  0.47628300  0.61555500  1
  O  O43  1  0.60925400  0.39385700  0.31807600  1
  O  O44  1  0.56027900  0.20846300  0.70124100  1
  O  O45  1  0.56756500  0.21310600  0.50546100  1
  O  O46  1  0.81781400  0.17838600  0.61022500  1
  O  O47  1  0.68776000  0.08144900  0.32896900  1
loop_
_geom_bond_atom_site_label_1
_geom_bond_atom_site_label_2
_geom_bond_distance
_geom_bond_site_symmetry_2
Ba0 O36 2.721387 1_445
Ba0 O11 2.721387 1_555
Ba0 O46 2.756628 1_455
Ba0 O1 2.756628 1_545
Ba0 O26 2.757487 1_445
Ba0 O21 2.757487 1_555
Ba1 O45 2.721387 1_555
Ba1 O2 2.721387 1_555
Ba1 O37 2.756628 1_555
Ba1 O10 2.756628 1_555
Ba1 O43 2.757487 1_555
Ba1 O4 2.757487 1_555
Nb0 O7 1.962141 1_555
Nb0 O17 1.975896 1_556
Nb0 O13 1.986233 1_555
Nb0 O44 1.997995 1_555
Nb0 O22 2.017671 1_555
Nb0 O23 2.034246 1_555
Nb1 O19 1.962141 1_555
Nb1 O14 1.975896 1_554
Nb1 O18 1.986233 1_655
Nb1 O12 1.997995 1_655
Nb1 O9 2.017671 1_555
Nb1 O8 2.034246 1_655
Nb2 O40 1.962141 1_555
Nb2 O30 1.975896 1_554
Nb2 O34 1.986233 1_555
Nb2 O3 1.997995 1_555
Nb2 O25 2.017671 1_555
Nb2 O24 2.034246 1_555
Nb3 O28 1.962141 1_555
Nb3 O33 1.975896 1_556
Nb3 O29 1.986233 1_455
Nb3 O35 1.997995 1_455
Nb3 O38 2.017671 1_555
Nb3 O39 2.034246 1_455
Fe0 O27 1.961619 1_555
Fe0 O0 1.978784 1_555
Fe0 O31 1.981045 1_555
Fe0 O37 2.045351 1_555
Fe0 O2 2.086416 1_555
Fe0 O4 2.090159 1_555
Fe1 O5 1.961619 1_555
Fe1 O41 1.978784 1_455
Fe1 O32 1.981045 1_555
Fe1 O1 2.045351 1_555
Fe1 O36 2.086416 1_455
Fe1 O26 2.090159 1_455
Fe2 O20 1.961619 1_555
Fe2 O47 1.978784 1_555
Fe2 O16 1.981045 1_555
Fe2 O10 2.045351 1_555
Fe2 O45 2.086416 1_555
Fe2 O43 2.090159 1_555
Fe3 O42 1.961619 1_555
Fe3 O6 1.978784 1_655
Fe3 O15 1.981045 1_555
Fe3 O46 2.045351 1_555
Fe3 O11 2.086416 1_655
Fe3 O21 2.090159 1_655
O0 P6 1.530652 1_565
O1 P0 1.538119 1_555
O2 P0 1.538814 1_555
O3 P0 1.581414 1_555
O4 P1 1.525104 1_555
O5 P2 1.533512 1_555
O6 P1 1.530652 1_555
O7 P1 1.575903 1_555
O8 P8 1.546288 1_555
O9 P10 1.551048 1_555
O10 P2 1.538119 1_555
O11 P2 1.538814 1_555
O12 P2 1.581414 1_555
O13 P3 1.556494 1_555
O14 P3 1.554594 1_555
O15 P3 1.513121 1_555
O16 P4 1.513121 1_555
O17 P4 1.554594 1_555
O18 P4 1.556494 1_555
O19 P5 1.575903 1_545
O20 P0 1.533512 1_545
O21 P6 1.525104 1_555
O22 P6 1.551048 1_555
O23 P7 1.546288 1_545
O24 P4 1.546288 1_565
O25 P5 1.551048 1_555
O26 P5 1.525104 1_555
O27 P11 1.533512 1_565
O28 P6 1.575903 1_565
O29 P7 1.556494 1_555
O30 P7 1.554594 1_555
O31 P7 1.513121 1_555
O32 P8 1.513121 1_555
O33 P8 1.554594 1_555
O34 P8 1.556494 1_555
O35 P9 1.581414 1_555
O36 P9 1.538814 1_555
O37 P9 1.538119 1_555
O38 P1 1.551048 1_555
O39 P3 1.546288 1_555
O40 P10 1.575903 1_555
O41 P10 1.530652 1_555
O42 P9 1.533512 1_555
O43 P10 1.525104 1_555
O44 P11 1.581414 1_555
O45 P11 1.538814 1_555
O46 P11 1.538119 1_555
O47 P5 1.530652 1_545
