# generated using pymatgen
data_Mn3OF5
_symmetry_space_group_name_H-M   'P 1'
_cell_length_a   4.87556597
_cell_length_b   4.87556597
_cell_length_c   9.78761568
_cell_angle_alpha   89.59885773
_cell_angle_beta   89.59885773
_cell_angle_gamma   91.83965215
_symmetry_Int_Tables_number   1
_chemical_formula_structural   Mn3OF5
_chemical_formula_sum   'Mn6 O2 F10'
_cell_volume   232.53112194
_cell_formula_units_Z   2
loop_
 _symmetry_equiv_pos_site_id
 _symmetry_equiv_pos_as_xyz
  1  'x, y, z'
loop_
 _atom_site_type_symbol
 _atom_site_label
 _atom_site_symmetry_multiplicity
 _atom_site_fract_x
 _atom_site_fract_y
 _atom_site_fract_z
 _atom_site_occupancy
  Mn  Mn0  1  0.03224900  0.03224900  0.66294900  1
  Mn  Mn1  1  0.96775100  0.96775100  0.33705100  1
  Mn  Mn2  1  0.00000000  0.00000000  0.00000000  1
  Mn  Mn3  1  0.49597300  0.49597300  0.82252900  1
  Mn  Mn4  1  0.50000000  0.50000000  0.50000000  1
  Mn  Mn5  1  0.50402700  0.50402700  0.17747100  1
  O  O0  1  0.67358000  0.67358000  0.34373900  1
  O  O1  1  0.32642000  0.32642000  0.65626100  1
  F  F0  1  0.79704000  0.20296000  0.50000000  1
  F  F1  1  0.79285500  0.18555800  0.16808900  1
  F  F2  1  0.81444200  0.20714500  0.83191100  1
  F  F3  1  0.71956700  0.71956700  0.66134400  1
  F  F4  1  0.68928500  0.68928500  0.99310100  1
  F  F5  1  0.28043300  0.28043300  0.33865600  1
  F  F6  1  0.31071500  0.31071500  0.00689900  1
  F  F7  1  0.20296000  0.79704000  0.50000000  1
  F  F8  1  0.18555800  0.79285500  0.16808900  1
  F  F9  1  0.20714500  0.81444200  0.83191100  1
loop_
_geom_bond_atom_site_label_1
_geom_bond_atom_site_label_2
_geom_bond_distance
_geom_bond_site_symmetry_2
Mn0 O1 1.995928 1_555
Mn1 O0 1.995928 1_555
Mn3 O1 2.002218 1_555
Mn4 O1 1.920768 1_555
Mn4 O0 1.920768 1_555
Mn5 O0 2.002218 1_555
F0 Mn4 2.080733 1_555
F0 Mn0 2.149371 1_655
F0 Mn1 2.149371 1_545
F1 Mn5 2.131422 1_555
F1 Mn2 2.145081 1_655
F1 Mn1 2.154753 1_545
F2 Mn3 2.131422 1_555
F2 Mn2 2.145081 1_656
F2 Mn0 2.154753 1_655
F3 Mn0 2.121299 1_665
F3 Mn3 2.177441 1_555
F3 Mn4 2.181639 1_555
F4 Mn2 2.109500 1_666
F4 Mn3 2.133277 1_555
F4 Mn5 2.188612 1_556
F5 Mn1 2.121299 1_445
F5 Mn5 2.177441 1_555
F5 Mn4 2.181639 1_555
F6 Mn2 2.109500 1_555
F6 Mn5 2.133277 1_555
F6 Mn3 2.188612 1_554
F7 Mn4 2.080733 1_555
F7 Mn0 2.149371 1_565
F7 Mn1 2.149371 1_455
F8 Mn5 2.131422 1_555
F8 Mn2 2.145081 1_565
F8 Mn1 2.154753 1_455
F9 Mn3 2.131422 1_555
F9 Mn2 2.145081 1_566
F9 Mn0 2.154753 1_565
