# generated using pymatgen
data_Gd2Te4O11
_symmetry_space_group_name_H-M   'P 1'
_cell_length_a   6.82462637
_cell_length_b   6.82462637
_cell_length_c   17.91303947
_cell_angle_alpha   64.58134190
_cell_angle_beta   64.58134190
_cell_angle_gamma   45.01222350
_symmetry_Int_Tables_number   1
_chemical_formula_structural   Gd2Te4O11
_chemical_formula_sum   'Gd4 Te8 O22'
_cell_volume   522.51592170
_cell_formula_units_Z   2
loop_
 _symmetry_equiv_pos_site_id
 _symmetry_equiv_pos_as_xyz
  1  'x, y, z'
loop_
 _atom_site_type_symbol
 _atom_site_label
 _atom_site_symmetry_multiplicity
 _atom_site_fract_x
 _atom_site_fract_y
 _atom_site_fract_z
 _atom_site_occupancy
  Gd  Gd0  1  0.33374400  0.33781900  0.03543000  1
  Gd  Gd1  1  0.66506700  0.66311100  0.46370400  1
  Gd  Gd2  1  0.66537600  0.67729100  0.96238100  1
  Gd  Gd3  1  0.32731100  0.32734600  0.53991900  1
  Te  Te0  1  0.98182100  0.03615100  0.37259600  1
  Te  Te1  1  0.97044500  0.02660900  0.12566000  1
  Te  Te2  1  0.02139000  0.95947200  0.62680000  1
  Te  Te3  1  0.04216700  0.97093300  0.87142600  1
  Te  Te4  1  0.70672000  0.63441200  0.19961400  1
  Te  Te5  1  0.36405300  0.30018200  0.29900600  1
  Te  Te6  1  0.29585000  0.35400300  0.80355700  1
  Te  Te7  1  0.64154900  0.70371800  0.69641500  1
  O  O0  1  0.31488200  0.93768700  0.37421000  1
  O  O1  1  0.06004900  0.67737800  0.12640700  1
  O  O2  1  0.68935200  0.05925900  0.62654400  1
  O  O3  1  0.94933800  0.30827700  0.87423500  1
  O  O4  1  0.72770400  0.29368700  0.44693600  1
  O  O5  1  0.69401600  0.28613400  0.05544400  1
  O  O6  1  0.28001000  0.70321300  0.55057200  1
  O  O7  1  0.30542900  0.71625000  0.94402700  1
  O  O8  1  0.01275500  0.72734100  0.45331900  1
  O  O9  1  0.26890800  0.99752100  0.04842700  1
  O  O10  1  0.99464300  0.26567000  0.54622100  1
  O  O11  1  0.72651800  0.01060200  0.95560800  1
  O  O12  1  0.49152600  0.15162600  0.40497200  1
  O  O13  1  0.84400000  0.51599800  0.09846800  1
  O  O14  1  0.50191700  0.84338600  0.59849600  1
  O  O15  1  0.15116800  0.48651300  0.90350100  1
  O  O16  1  0.95583800  0.58587700  0.33107700  1
  O  O17  1  0.42535600  0.02685000  0.16949200  1
  O  O18  1  0.04000700  0.41542100  0.66772000  1
  O  O19  1  0.56709000  0.97464800  0.83128100  1
  O  O20  1  0.39206800  0.60179600  0.25302500  1
  O  O21  1  0.60019700  0.39772000  0.75292200  1
loop_
_geom_bond_atom_site_label_1
_geom_bond_atom_site_label_2
_geom_bond_distance
_geom_bond_site_symmetry_2
Gd0 O11 2.281184 1_554
Gd0 O7 2.307400 1_554
Gd0 O17 2.387374 1_555
Gd0 O5 2.391689 1_555
Gd0 O1 2.454309 1_555
Gd0 O13 2.473286 1_455
Gd0 O9 2.558112 1_545
Gd0 O15 2.616982 1_554
Gd1 O6 2.289169 1_555
Gd1 O10 2.321051 1_555
Gd1 O16 2.325687 1_555
Gd1 O4 2.375993 1_555
Gd1 O12 2.469885 1_565
Gd1 O0 2.484160 1_555
Gd1 O8 2.622753 1_655
Gd1 O14 2.624643 1_555
Gd2 O19 2.328007 1_555
Gd2 O9 2.328885 1_556
Gd2 O5 2.380158 1_556
Gd2 O15 2.423421 1_655
Gd2 O7 2.430638 1_555
Gd2 O11 2.534734 1_565
Gd2 O3 2.545036 1_555
Gd2 O13 2.643956 1_556
Gd3 O18 2.260139 1_555
Gd3 O8 2.324759 1_555
Gd3 O4 2.414038 1_555
Gd3 O6 2.432521 1_555
Gd3 O14 2.441975 1_545
Gd3 O2 2.514466 1_555
Gd3 O10 2.536669 1_455
Gd3 O12 2.607716 1_555
O0 Te0 1.870587 1_465
O0 Te5 2.443826 1_565
O1 Te1 1.993366 1_465
O1 Te4 2.361202 1_455
O2 Te2 1.850139 1_645
O2 Te7 2.392104 1_545
O3 Te3 1.927194 1_645
O3 Te6 2.329522 1_655
O4 Te0 1.893933 1_555
O5 Te1 1.917865 1_555
O6 Te2 1.911803 1_555
O7 Te3 1.894822 1_555
O8 Te0 1.895770 1_465
O9 Te1 1.829558 1_465
O10 Te2 1.892367 1_645
O11 Te3 1.930022 1_645
O12 Te5 1.976419 1_555
O12 Te0 2.674264 1_555
O13 Te4 1.882231 1_555
O13 Te1 2.650665 1_555
O14 Te7 1.899631 1_555
O14 Te2 2.623599 1_555
O15 Te6 1.899407 1_555
O15 Te3 2.659340 1_555
O16 Te5 1.949455 1_655
O17 Te4 1.878499 1_545
O18 Te7 1.906160 1_455
O19 Te6 1.812534 1_565
O20 Te5 1.979343 1_555
O20 Te4 2.074963 1_555
O21 Te7 2.058819 1_555
O21 Te6 2.062150 1_555
