# generated using pymatgen
data_Li2Fe3S4
_symmetry_space_group_name_H-M   'P 1'
_cell_length_a   8.97201962
_cell_length_b   8.97201962
_cell_length_c   6.20711688
_cell_angle_alpha   72.73512547
_cell_angle_beta   72.73512547
_cell_angle_gamma   42.67570589
_symmetry_Int_Tables_number   1
_chemical_formula_structural   Li2Fe3S4
_chemical_formula_sum   'Li4 Fe6 S8'
_cell_volume   321.03726156
_cell_formula_units_Z   2
loop_
 _symmetry_equiv_pos_site_id
 _symmetry_equiv_pos_as_xyz
  1  'x, y, z'
loop_
 _atom_site_type_symbol
 _atom_site_label
 _atom_site_symmetry_multiplicity
 _atom_site_fract_x
 _atom_site_fract_y
 _atom_site_fract_z
 _atom_site_occupancy
  Li  Li0  1  0.81016900  0.01579700  0.94470700  1
  Li  Li1  1  0.01579700  0.81016900  0.44470700  1
  Li  Li2  1  0.98420300  0.18983100  0.55529300  1
  Li  Li3  1  0.18983100  0.98420300  0.05529300  1
  Fe  Fe0  1  0.44295700  0.18545500  0.55761600  1
  Fe  Fe1  1  0.18545500  0.44295700  0.05761600  1
  Fe  Fe2  1  0.81454500  0.55704300  0.94238400  1
  Fe  Fe3  1  0.55704300  0.81454500  0.44238400  1
  Fe  Fe4  1  0.48744400  0.51255600  0.75000000  1
  Fe  Fe5  1  0.51255600  0.48744400  0.25000000  1
  S  S0  1  0.69357500  0.19858400  0.55604100  1
  S  S1  1  0.19858400  0.69357500  0.05604100  1
  S  S2  1  0.10348500  0.50035400  0.70385900  1
  S  S3  1  0.49964600  0.89651500  0.79614100  1
  S  S4  1  0.50035400  0.10348500  0.20385900  1
  S  S5  1  0.89651500  0.49964600  0.29614100  1
  S  S6  1  0.80141600  0.30642500  0.94395900  1
  S  S7  1  0.30642500  0.80141600  0.44395900  1
loop_
_geom_bond_atom_site_label_1
_geom_bond_atom_site_label_2
_geom_bond_distance
_geom_bond_site_symmetry_2
Li0 S4 2.411343 1_556
Li0 S0 2.496183 1_555
Li0 S1 2.531678 1_646
Li0 S6 2.548976 1_555
Li1 S2 2.411343 1_555
Li1 S1 2.496183 1_555
Li1 S0 2.531678 1_465
Li1 S7 2.548976 1_555
Li2 S5 2.411343 1_555
Li2 S6 2.496183 1_555
Li2 S7 2.531678 1_645
Li2 S0 2.548976 1_555
Li3 S3 2.411343 1_554
Li3 S7 2.496183 1_555
Li3 S6 2.531678 1_464
Li3 S1 2.548976 1_555
Fe0 S2 2.304570 1_555
Fe0 S4 2.314762 1_555
Fe0 S3 2.324030 1_545
Fe0 S0 2.333597 1_555
Fe1 S4 2.304570 1_555
Fe1 S2 2.314762 1_554
Fe1 S5 2.324030 1_455
Fe1 S1 2.333597 1_555
Fe2 S3 2.304570 1_555
Fe2 S5 2.314762 1_556
Fe2 S2 2.324030 1_655
Fe2 S6 2.333597 1_555
Fe3 S5 2.304570 1_555
Fe3 S3 2.314762 1_555
Fe3 S4 2.324030 1_565
Fe3 S7 2.333597 1_555
Fe4 S1 2.383884 1_556
Fe4 S7 2.383884 1_555
Fe4 S0 2.415798 1_555
Fe4 S6 2.415798 1_555
Fe5 S0 2.383884 1_555
Fe5 S6 2.383884 1_554
Fe5 S7 2.415798 1_555
Fe5 S1 2.415798 1_555
