# generated using pymatgen
data_LiAgF2
_symmetry_space_group_name_H-M   'P 1'
_cell_length_a   3.18054900
_cell_length_b   5.10805300
_cell_length_c   6.74153600
_cell_angle_alpha   90.00000000
_cell_angle_beta   90.00000000
_cell_angle_gamma   90.00000000
_symmetry_Int_Tables_number   1
_chemical_formula_structural   LiAgF2
_chemical_formula_sum   'Li2 Ag2 F4'
_cell_volume   109.52577717
_cell_formula_units_Z   2
loop_
 _symmetry_equiv_pos_site_id
 _symmetry_equiv_pos_as_xyz
  1  'x, y, z'
loop_
 _atom_site_type_symbol
 _atom_site_label
 _atom_site_symmetry_multiplicity
 _atom_site_fract_x
 _atom_site_fract_y
 _atom_site_fract_z
 _atom_site_occupancy
  Li  Li0  1  0.00000000  0.08530800  0.41564000  1
  Li  Li1  1  0.50000000  0.58530800  0.58436000  1
  Ag  Ag0  1  0.00000000  0.60106900  0.13423100  1
  Ag  Ag1  1  0.50000000  0.10106900  0.86576900  1
  F  F0  1  0.00000000  0.71987200  0.46782000  1
  F  F1  1  0.00000000  0.11490300  0.13739000  1
  F  F2  1  0.50000000  0.21987200  0.53218000  1
  F  F3  1  0.50000000  0.61490300  0.86261000  1
loop_
_geom_bond_atom_site_label_1
_geom_bond_atom_site_label_2
_geom_bond_distance
_geom_bond_site_symmetry_2
Ag0 F0 2.329341 1_555
Ag0 F3 2.426324 1_554
Ag0 F3 2.426324 1_454
Ag0 F1 2.483453 1_555
Ag0 F1 2.624778 1_565
Ag1 F2 2.329341 1_555
Ag1 F1 2.426324 1_556
Ag1 F1 2.426324 1_656
Ag1 F3 2.483453 1_545
Ag1 F3 2.624778 1_555
F0 Li0 1.899523 1_565
F0 Li1 1.902287 1_555
F0 Li1 1.902287 1_455
F1 Li0 1.881914 1_555
F2 Li1 1.899523 1_555
F2 Li0 1.902287 1_555
F2 Li0 1.902287 1_655
F3 Li1 1.881914 1_555
