# generated using pymatgen
data_Li4Mn3Cr3(WO8)2
_symmetry_space_group_name_H-M   'P 1'
_cell_length_a   6.03107707
_cell_length_b   6.03107707
_cell_length_c   9.78220422
_cell_angle_alpha   88.63430513
_cell_angle_beta   88.63430513
_cell_angle_gamma   60.00148019
_symmetry_Int_Tables_number   1
_chemical_formula_structural   Li4Mn3Cr3(WO8)2
_chemical_formula_sum   'Li4 Mn3 Cr3 W2 O16'
_cell_volume   308.03428763
_cell_formula_units_Z   1
loop_
 _symmetry_equiv_pos_site_id
 _symmetry_equiv_pos_as_xyz
  1  'x, y, z'
loop_
 _atom_site_type_symbol
 _atom_site_label
 _atom_site_symmetry_multiplicity
 _atom_site_fract_x
 _atom_site_fract_y
 _atom_site_fract_z
 _atom_site_occupancy
  Li  Li0  1  0.33624900  0.33624900  0.90949600  1
  Li  Li1  1  0.99683400  0.99683400  0.98728900  1
  Li  Li2  1  0.99655200  0.99655200  0.48833700  1
  Li  Li3  1  0.67102900  0.67102900  0.40546200  1
  Mn  Mn0  1  0.16860200  0.16860200  0.21176700  1
  Mn  Mn1  1  0.33798100  0.82722000  0.71260900  1
  Mn  Mn2  1  0.82722000  0.33798100  0.71260900  1
  Cr  Cr0  1  0.16801400  0.66052300  0.21351400  1
  Cr  Cr1  1  0.66052300  0.16801400  0.21351400  1
  Cr  Cr2  1  0.82866900  0.82866900  0.71509200  1
  W  W0  1  0.33217800  0.33217800  0.48572600  1
  W  W1  1  0.66726800  0.66726800  0.98607600  1
  O  O0  1  0.16376700  0.64859200  0.58689300  1
  O  O1  1  0.47932300  0.47932300  0.34020900  1
  O  O2  1  0.33423900  0.33423900  0.11232000  1
  O  O3  1  0.99891300  0.99891300  0.30279500  1
  O  O4  1  0.99627200  0.99627200  0.80149600  1
  O  O5  1  0.64859200  0.16376700  0.58689300  1
  O  O6  1  0.04368300  0.48903100  0.34871300  1
  O  O7  1  0.48903100  0.04368300  0.34871300  1
  O  O8  1  0.82914900  0.82914900  0.09932900  1
  O  O9  1  0.17082500  0.17082500  0.57506800  1
  O  O10  1  0.53492100  0.96255300  0.85487000  1
  O  O11  1  0.96255300  0.53492100  0.85487000  1
  O  O12  1  0.67074100  0.67074100  0.60999800  1
  O  O13  1  0.34312900  0.82649800  0.08942900  1
  O  O14  1  0.52368200  0.52368200  0.86469000  1
  O  O15  1  0.82649800  0.34312900  0.08942900  1
loop_
_geom_bond_atom_site_label_1
_geom_bond_atom_site_label_2
_geom_bond_distance
_geom_bond_site_symmetry_2
Li0 O2 1.983599 1_556
Li0 O14 1.994589 1_555
Li0 O10 2.031579 1_545
Li0 O11 2.031579 1_455
Li1 O4 1.817636 1_555
Li1 O8 2.040541 1_556
Li1 O13 2.078632 1_656
Li1 O15 2.078632 1_566
Li2 O3 1.814498 1_555
Li2 O9 2.029513 1_665
Li2 O0 2.045520 1_655
Li2 O5 2.045520 1_565
Li3 O12 2.000732 1_555
Li3 O6 2.016679 1_655
Li3 O7 2.016679 1_565
Li3 O1 2.118514 1_555
Mn0 O2 1.961502 1_555
Mn0 O3 1.961650 1_445
Mn0 O15 2.164055 1_455
Mn0 O13 2.164055 1_545
Mn0 O6 2.171705 1_555
Mn0 O7 2.171705 1_555
Mn1 O4 1.974462 1_455
Mn1 O12 1.995259 1_555
Mn1 O14 2.172160 1_555
Mn1 O9 2.227941 1_565
Mn1 O0 2.243562 1_555
Mn1 O10 2.261842 1_555
Mn2 O4 1.974462 1_545
Mn2 O12 1.995259 1_555
Mn2 O14 2.172160 1_555
Mn2 O9 2.227941 1_655
Mn2 O5 2.243562 1_555
Mn2 O11 2.261842 1_555
Cr0 O3 1.982217 1_455
Cr0 O2 1.982472 1_555
Cr0 O6 2.011015 1_555
Cr0 O1 2.061559 1_555
Cr0 O8 2.105950 1_455
Cr0 O13 2.128127 1_555
Cr1 O3 1.982217 1_545
Cr1 O2 1.982472 1_555
Cr1 O7 2.011015 1_555
Cr1 O1 2.061559 1_555
Cr1 O8 2.105950 1_545
Cr1 O15 2.128127 1_555
Cr2 O4 1.964972 1_555
Cr2 O12 1.967697 1_555
Cr2 O10 2.041309 1_555
Cr2 O11 2.041309 1_555
Cr2 O5 2.141482 1_565
Cr2 O0 2.141482 1_655
O0 W0 1.938200 1_555
O1 W0 2.066031 1_555
O5 W0 1.938200 1_555
O6 W0 2.030636 1_555
O7 W0 2.030636 1_555
O8 W1 2.046954 1_554
O9 W0 1.877138 1_555
O10 W1 1.993602 1_555
O11 W1 1.993602 1_555
O13 W1 1.959810 1_554
O14 W1 1.938485 1_555
O15 W1 1.959810 1_554
