# generated using pymatgen
data_Ba3GeO5
_symmetry_space_group_name_H-M   'P 1'
_cell_length_a   10.71486060
_cell_length_b   10.71486060
_cell_length_c   10.71486092
_cell_angle_alpha   44.24787767
_cell_angle_beta   44.24787767
_cell_angle_gamma   44.24787701
_symmetry_Int_Tables_number   1
_chemical_formula_structural   Ba3GeO5
_chemical_formula_sum   'Ba9 Ge3 O15'
_cell_volume   544.27287308
_cell_formula_units_Z   3
loop_
 _symmetry_equiv_pos_site_id
 _symmetry_equiv_pos_as_xyz
  1  'x, y, z'
loop_
 _atom_site_type_symbol
 _atom_site_label
 _atom_site_symmetry_multiplicity
 _atom_site_fract_x
 _atom_site_fract_y
 _atom_site_fract_z
 _atom_site_occupancy
  Ba  Ba0  1  0.28562400  0.75504100  0.28562400  1
  Ba  Ba1  1  0.71829700  0.71829700  0.23430700  1
  Ba  Ba2  1  0.75504100  0.28562400  0.28562400  1
  Ba  Ba3  1  0.01009800  0.49672900  0.49672900  1
  Ba  Ba4  1  0.23430700  0.71829700  0.71829700  1
  Ba  Ba5  1  0.28562400  0.28562400  0.75504100  1
  Ba  Ba6  1  0.71829700  0.23430700  0.71829700  1
  Ba  Ba7  1  0.49672900  0.01009800  0.49672900  1
  Ba  Ba8  1  0.49672900  0.49672900  0.01009800  1
  Ge  Ge0  1  0.99899700  0.99899700  0.99899700  1
  Ge  Ge1  1  0.78084500  0.78084500  0.78084500  1
  Ge  Ge2  1  0.21501600  0.21501600  0.21501600  1
  O  O0  1  0.35635600  0.99496700  0.35635600  1
  O  O1  1  0.62292100  0.62292100  0.62292100  1
  O  O2  1  0.64024700  0.00291900  0.64024700  1
  O  O3  1  0.64024700  0.64024700  0.00291900  1
  O  O4  1  0.93768600  0.93768600  0.93768600  1
  O  O5  1  0.84223800  0.84223800  0.84223800  1
  O  O6  1  0.99496700  0.35635600  0.35635600  1
  O  O7  1  0.00291900  0.64024700  0.64024700  1
  O  O8  1  0.15276900  0.15276900  0.15276900  1
  O  O9  1  0.13975200  0.77496600  0.13975200  1
  O  O10  1  0.13975200  0.13975200  0.77496600  1
  O  O11  1  0.35635600  0.35635600  0.99496700  1
  O  O12  1  0.38261400  0.38261400  0.38261400  1
  O  O13  1  0.49975000  0.49975000  0.49975000  1
  O  O14  1  0.77496600  0.13975200  0.13975200  1
loop_
_geom_bond_atom_site_label_1
_geom_bond_atom_site_label_2
_geom_bond_distance
_geom_bond_site_symmetry_2
Ba0 O3 2.697945 1_555
Ba0 O7 2.697945 1_555
Ba0 O9 2.734100 1_555
Ba0 O13 2.751236 1_555
Ba0 O8 2.781162 1_565
Ba0 O12 2.783662 1_555
Ba1 O0 2.712150 1_555
Ba1 O6 2.712150 1_555
Ba1 O4 2.768123 1_554
Ba1 O5 2.777881 1_554
Ba1 O13 2.798024 1_555
Ba1 O1 2.954760 1_555
Ba2 O3 2.697945 1_555
Ba2 O2 2.697945 1_555
Ba2 O14 2.734100 1_555
Ba2 O13 2.751236 1_555
Ba2 O8 2.781162 1_655
Ba2 O12 2.783662 1_555
Ba3 O12 2.660774 1_555
Ba3 O1 2.722795 1_455
Ba3 O10 2.726195 1_555
Ba3 O9 2.726196 1_555
Ba3 O7 2.790048 1_555
Ba3 O6 2.913848 1_455
Ba4 O11 2.712151 1_555
Ba4 O0 2.712151 1_555
Ba4 O4 2.768123 1_455
Ba4 O5 2.777880 1_455
Ba4 O13 2.798024 1_555
Ba4 O1 2.954759 1_555
Ba5 O7 2.697945 1_555
Ba5 O2 2.697945 1_555
Ba5 O10 2.734100 1_555
Ba5 O13 2.751236 1_555
Ba5 O8 2.781162 1_556
Ba5 O12 2.783662 1_555
Ba6 O11 2.712151 1_555
Ba6 O6 2.712151 1_555
Ba6 O4 2.768123 1_545
Ba6 O5 2.777880 1_545
Ba6 O13 2.798024 1_555
Ba6 O1 2.954759 1_555
Ba7 O12 2.660774 1_555
Ba7 O1 2.722795 1_545
Ba7 O10 2.726195 1_555
Ba7 O14 2.726196 1_555
Ba7 O2 2.790048 1_555
Ba7 O0 2.913848 1_545
Ba8 O12 2.660774 1_555
Ba8 O1 2.722795 1_554
Ba8 O9 2.726195 1_555
Ba8 O14 2.726195 1_555
Ba8 O3 2.790048 1_555
Ba8 O11 2.913848 1_554
Ge0 O4 1.774704 1_555
Ge0 O14 1.787948 1_566
Ge0 O9 1.787948 1_656
Ge0 O10 1.787948 1_665
Ge1 O5 1.777077 1_555
Ge1 O2 1.783593 1_565
Ge1 O7 1.783593 1_655
Ge1 O3 1.783593 1_556
Ge2 O0 1.789080 1_545
Ge2 O6 1.789080 1_455
Ge2 O11 1.789080 1_554
Ge2 O8 1.801797 1_555
