# generated using pymatgen
data_Bi3B7O12
_symmetry_space_group_name_H-M   'P 1'
_cell_length_a   7.04338500
_cell_length_b   9.11806321
_cell_length_c   9.44259033
_cell_angle_alpha   95.36062566
_cell_angle_beta   104.26098292
_cell_angle_gamma   96.94157287
_symmetry_Int_Tables_number   1
_chemical_formula_structural   Bi3B7O12
_chemical_formula_sum   'Bi6 B14 O24'
_cell_volume   578.62341570
_cell_formula_units_Z   2
loop_
 _symmetry_equiv_pos_site_id
 _symmetry_equiv_pos_as_xyz
  1  'x, y, z'
loop_
 _atom_site_type_symbol
 _atom_site_label
 _atom_site_symmetry_multiplicity
 _atom_site_fract_x
 _atom_site_fract_y
 _atom_site_fract_z
 _atom_site_occupancy
  Bi  Bi0  1  0.16398000  0.22657500  0.73711700  1
  Bi  Bi1  1  0.63346200  0.05014900  0.18349300  1
  Bi  Bi2  1  0.50851000  0.33748900  0.00300400  1
  Bi  Bi3  1  0.49149000  0.66251100  0.99699600  1
  Bi  Bi4  1  0.36653800  0.94985100  0.81650700  1
  Bi  Bi5  1  0.83602000  0.77342500  0.26288300  1
  B  B0  1  0.99657200  0.32525800  0.31568900  1
  B  B1  1  0.81355200  0.06468300  0.85799000  1
  B  B2  1  0.91628500  0.80303700  0.90897700  1
  B  B3  1  0.80653500  0.52465400  0.81046200  1
  B  B4  1  0.69900700  0.31050200  0.45494400  1
  B  B5  1  0.64189600  0.70725500  0.52075500  1
  B  B6  1  0.63983500  0.25306100  0.69428300  1
  B  B7  1  0.36016500  0.74693900  0.30571700  1
  B  B8  1  0.35810400  0.29274500  0.47924500  1
  B  B9  1  0.30099300  0.68949800  0.54505600  1
  B  B10  1  0.19346500  0.47534600  0.18953800  1
  B  B11  1  0.08371500  0.19696300  0.09102300  1
  B  B12  1  0.18644800  0.93531700  0.14201000  1
  B  B13  1  0.00342800  0.67474200  0.68431100  1
  O  O0  1  0.94587200  0.20617000  0.18354600  1
  O  O1  1  0.97693400  0.16923100  0.93015200  1
  O  O2  1  0.94195100  0.53184000  0.73057700  1
  O  O3  1  0.84005600  0.71172100  0.56555600  1
  O  O4  1  0.81618100  0.33563000  0.36329100  1
  O  O5  1  0.75631800  0.25711300  0.58829700  1
  O  O6  1  0.65421200  0.11496200  0.76571000  1
  O  O7  1  0.78084200  0.65438300  0.89156500  1
  O  O8  1  0.69419300  0.38814200  0.81301800  1
  O  O9  1  0.57398800  0.75303800  0.38128000  1
  O  O10  1  0.78822000  0.91666100  0.87025200  1
  O  O11  1  0.50016700  0.66371000  0.59404800  1
  O  O12  1  0.49983300  0.33629000  0.40595200  1
  O  O13  1  0.21178000  0.08333900  0.12974800  1
  O  O14  1  0.42601200  0.24696200  0.61872000  1
  O  O15  1  0.30580700  0.61185800  0.18698200  1
  O  O16  1  0.21915800  0.34561700  0.10843500  1
  O  O17  1  0.34578800  0.88503800  0.23429000  1
  O  O18  1  0.24368200  0.74288700  0.41170300  1
  O  O19  1  0.18381900  0.66437000  0.63670900  1
  O  O20  1  0.15994400  0.28827900  0.43444400  1
  O  O21  1  0.05804900  0.46816000  0.26942300  1
  O  O22  1  0.02306600  0.83076900  0.06984800  1
  O  O23  1  0.05412800  0.79383000  0.81645400  1
loop_
_geom_bond_atom_site_label_1
_geom_bond_atom_site_label_2
_geom_bond_distance
_geom_bond_site_symmetry_2
Bi0 O14 2.379725 1_555
Bi0 O1 2.554627 1_455
Bi1 O0 2.471509 1_555
Bi1 O17 2.545285 1_545
Bi2 O16 2.484440 1_555
Bi2 O8 2.511330 1_554
Bi3 O7 2.484440 1_555
Bi3 O15 2.511330 1_556
Bi4 O23 2.471509 1_555
Bi4 O6 2.545285 1_565
Bi5 O9 2.379725 1_555
Bi5 O22 2.554627 1_655
B0 O4 1.458692 1_555
B0 O21 1.462640 1_655
B0 O20 1.491283 1_655
B0 O0 1.515624 1_555
B1 O10 1.359423 1_545
B1 O1 1.387242 1_555
B1 O6 1.395060 1_555
B2 O23 1.461790 1_655
B2 O10 1.467945 1_555
B2 O22 1.502153 1_656
B2 O7 1.530636 1_555
B3 O2 1.353365 1_555
B3 O8 1.397492 1_555
B3 O7 1.403279 1_555
B4 O4 1.351239 1_555
B4 O5 1.377356 1_555
B4 O12 1.420434 1_555
B5 O3 1.349367 1_555
B5 O11 1.388897 1_555
B5 O9 1.406478 1_555
B6 O5 1.442273 1_555
B6 O6 1.485455 1_555
B6 O14 1.491061 1_555
B6 O8 1.528770 1_555
B7 O18 1.442273 1_555
B7 O17 1.485455 1_555
B7 O9 1.491061 1_555
B7 O15 1.528770 1_555
B8 O20 1.349367 1_555
B8 O12 1.388897 1_555
B8 O14 1.406478 1_555
B9 O19 1.351239 1_555
B9 O18 1.377356 1_555
B9 O11 1.420434 1_555
B10 O21 1.353365 1_555
B10 O15 1.397492 1_555
B10 O16 1.403279 1_555
B11 O0 1.461790 1_455
B11 O13 1.467945 1_555
B11 O1 1.502153 1_454
B11 O16 1.530636 1_555
B12 O13 1.359423 1_565
B12 O22 1.387242 1_555
B12 O17 1.395060 1_555
B13 O19 1.458692 1_555
B13 O2 1.462640 1_455
B13 O3 1.491283 1_455
B13 O23 1.515624 1_555
