# generated using pymatgen
data_KFe2H(SeO3)4
_symmetry_space_group_name_H-M   'P 1'
_cell_length_a   5.37103000
_cell_length_b   10.21099200
_cell_length_c   10.78569346
_cell_angle_alpha   83.22554963
_cell_angle_beta   90.00000000
_cell_angle_gamma   90.00000000
_symmetry_Int_Tables_number   1
_chemical_formula_structural   KFe2H(SeO3)4
_chemical_formula_sum   'K2 Fe4 H2 Se8 O24'
_cell_volume   587.39574910
_cell_formula_units_Z   2
loop_
 _symmetry_equiv_pos_site_id
 _symmetry_equiv_pos_as_xyz
  1  'x, y, z'
loop_
 _atom_site_type_symbol
 _atom_site_label
 _atom_site_symmetry_multiplicity
 _atom_site_fract_x
 _atom_site_fract_y
 _atom_site_fract_z
 _atom_site_occupancy
  K  K0  1  0.42985600  0.50000000  0.00000000  1
  K  K1  1  0.50491000  0.00000000  0.50000000  1
  Fe  Fe0  1  0.99750500  0.74618100  0.74046700  1
  Fe  Fe1  1  0.99750500  0.25381900  0.25953300  1
  Fe  Fe2  1  0.48608200  0.25564200  0.75761200  1
  Fe  Fe3  1  0.48608200  0.74435800  0.24238800  1
  H  H0  1  0.81201800  0.01495000  0.73492200  1
  H  H1  1  0.81201800  0.98505000  0.26507800  1
  Se  Se0  1  0.98156800  0.22802000  0.93656300  1
  Se  Se1  1  0.98156800  0.77198000  0.06343700  1
  Se  Se2  1  0.99254400  0.26294700  0.57633700  1
  Se  Se3  1  0.99254400  0.73705300  0.42366300  1
  Se  Se4  1  0.50872600  0.59491100  0.64484000  1
  Se  Se5  1  0.50872600  0.40508900  0.35516000  1
  Se  Se6  1  0.46680500  0.90780800  0.84767600  1
  Se  Se7  1  0.46680500  0.09219200  0.15232400  1
  O  O0  1  0.70044200  0.30570800  0.90186600  1
  O  O1  1  0.70044200  0.69429200  0.09813400  1
  O  O2  1  0.06608700  0.71104800  0.92556000  1
  O  O3  1  0.06608700  0.28895200  0.07444000  1
  O  O4  1  0.18413900  0.32213500  0.83729600  1
  O  O5  1  0.18413900  0.67786500  0.16270400  1
  O  O6  1  0.27835600  0.19268500  0.61447400  1
  O  O7  1  0.27835600  0.80731500  0.38552600  1
  O  O8  1  0.91876000  0.80842400  0.55732200  1
  O  O9  1  0.91876000  0.19157600  0.44267800  1
  O  O10  1  0.79262900  0.16759500  0.68200000  1
  O  O11  1  0.79262900  0.83240500  0.31800000  1
  O  O12  1  0.55453800  0.42694900  0.65260000  1
  O  O13  1  0.55453800  0.57305100  0.34740000  1
  O  O14  1  0.67958400  0.64162800  0.76995000  1
  O  O15  1  0.67958400  0.35837200  0.23005000  1
  O  O16  1  0.20676200  0.59880000  0.70098900  1
  O  O17  1  0.20676200  0.40120000  0.29901100  1
  O  O18  1  0.43095400  0.07080500  0.86364600  1
  O  O19  1  0.43095400  0.92919500  0.13635400  1
  O  O20  1  0.28728600  0.88219900  0.72225300  1
  O  O21  1  0.28728600  0.11780100  0.27774700  1
  O  O22  1  0.77930100  0.91930600  0.77300100  1
  O  O23  1  0.77930100  0.08069400  0.22699900  1
loop_
_geom_bond_atom_site_label_1
_geom_bond_atom_site_label_2
_geom_bond_distance
_geom_bond_site_symmetry_2
K0 O0 2.768353 1_554
K0 O1 2.768353 1_555
K0 O3 2.949217 1_555
K0 O2 2.949217 1_554
K0 O5 2.978551 1_555
K0 O4 2.978551 1_554
K0 O14 3.033233 1_554
K0 O15 3.033233 1_555
K1 O6 2.729340 1_555
K1 O7 2.729340 1_545
K1 O20 2.806991 1_545
K1 O21 2.806991 1_555
K1 O9 2.977314 1_555
K1 O8 2.977314 1_545
Fe0 O16 1.964798 1_655
Fe0 O14 2.019046 1_555
Fe0 O2 2.020114 1_655
Fe0 O8 2.046612 1_555
Fe0 O20 2.079821 1_655
Fe0 O22 2.183588 1_555
Fe1 O17 1.964798 1_655
Fe1 O15 2.019046 1_555
Fe1 O3 2.020114 1_655
Fe1 O9 2.046612 1_555
Fe1 O21 2.079821 1_655
Fe1 O23 2.183588 1_555
Fe2 O4 1.991823 1_555
Fe2 O12 2.002591 1_555
Fe2 O0 2.048251 1_555
Fe2 O6 2.067764 1_555
Fe2 O10 2.087396 1_555
Fe2 O18 2.109155 1_555
Fe3 O5 1.991823 1_555
Fe3 O13 2.002591 1_555
Fe3 O1 2.048251 1_555
Fe3 O7 2.067764 1_555
Fe3 O11 2.087396 1_555
Fe3 O19 2.109155 1_555
H0 O22 1.028940 1_545
H0 O10 1.598804 1_555
H1 O23 1.028940 1_565
H1 O11 1.598804 1_555
O0 Se0 1.726035 1_555
O1 Se1 1.726035 1_555
O2 Se1 1.738656 1_456
O3 Se0 1.738656 1_454
O4 Se0 1.735191 1_455
O5 Se1 1.735191 1_455
O6 Se2 1.723614 1_455
O7 Se3 1.723614 1_455
O8 Se3 1.736156 1_555
O9 Se2 1.736156 1_555
O10 Se2 1.771420 1_555
O11 Se3 1.771420 1_555
O12 Se4 1.724851 1_555
O13 Se5 1.724851 1_555
O14 Se4 1.744258 1_555
O15 Se5 1.744258 1_555
O16 Se4 1.733330 1_555
O17 Se5 1.733330 1_555
O18 Se6 1.704253 1_545
O19 Se7 1.704253 1_565
O20 Se6 1.706317 1_555
O21 Se7 1.706317 1_555
O22 Se6 1.859379 1_555
O23 Se7 1.859379 1_555
