# generated using pymatgen
data_Li2V(FeO3)2
_symmetry_space_group_name_H-M   'P 1'
_cell_length_a   7.72970617
_cell_length_b   7.72970617
_cell_length_c   5.95101072
_cell_angle_alpha   77.09716685
_cell_angle_beta   77.09716685
_cell_angle_gamma   69.20217384
_symmetry_Int_Tables_number   1
_chemical_formula_structural   Li2V(FeO3)2
_chemical_formula_sum   'Li6 V3 Fe6 O18'
_cell_volume   319.92959957
_cell_formula_units_Z   3
loop_
 _symmetry_equiv_pos_site_id
 _symmetry_equiv_pos_as_xyz
  1  'x, y, z'
loop_
 _atom_site_type_symbol
 _atom_site_label
 _atom_site_symmetry_multiplicity
 _atom_site_fract_x
 _atom_site_fract_y
 _atom_site_fract_z
 _atom_site_occupancy
  Li  Li0  1  0.16568800  0.49519600  0.82776200  1
  Li  Li1  1  0.49519600  0.16568800  0.82776200  1
  Li  Li2  1  0.83431200  0.50480400  0.17223800  1
  Li  Li3  1  0.50480400  0.83431200  0.17223800  1
  Li  Li4  1  0.82981300  0.17018700  0.50000000  1
  Li  Li5  1  0.17018700  0.82981300  0.50000000  1
  V  V0  1  0.83668400  0.16331600  0.00000000  1
  V  V1  1  0.50000000  0.50000000  0.00000000  1
  V  V2  1  0.16331600  0.83668400  0.00000000  1
  Fe  Fe0  1  0.16822900  0.49829000  0.33634600  1
  Fe  Fe1  1  0.83286300  0.83286300  0.34193300  1
  Fe  Fe2  1  0.49829000  0.16822900  0.33634600  1
  Fe  Fe3  1  0.83177100  0.50171000  0.66365400  1
  Fe  Fe4  1  0.50171000  0.83177100  0.66365400  1
  Fe  Fe5  1  0.16713700  0.16713700  0.65806700  1
  O  O0  1  0.99242500  0.99242500  0.23658300  1
  O  O1  1  0.99665900  0.65423800  0.56141500  1
  O  O2  1  0.65423800  0.99665900  0.56141500  1
  O  O3  1  0.00757500  0.00757500  0.76341700  1
  O  O4  1  0.01239300  0.67242400  0.10943200  1
  O  O5  1  0.67242400  0.01239300  0.10943200  1
  O  O6  1  0.00334100  0.34576200  0.43858500  1
  O  O7  1  0.67697200  0.67697200  0.43874700  1
  O  O8  1  0.34576200  0.00334100  0.43858500  1
  O  O9  1  0.98760700  0.32757600  0.89056800  1
  O  O10  1  0.65373700  0.65373700  0.91174800  1
  O  O11  1  0.32757600  0.98760700  0.89056800  1
  O  O12  1  0.66718100  0.32313700  0.22735100  1
  O  O13  1  0.32313700  0.66718100  0.22735100  1
  O  O14  1  0.32302800  0.32302800  0.56125300  1
  O  O15  1  0.67686300  0.33281900  0.77264900  1
  O  O16  1  0.33281900  0.67686300  0.77264900  1
  O  O17  1  0.34626300  0.34626300  0.08825200  1
loop_
_geom_bond_atom_site_label_1
_geom_bond_atom_site_label_2
_geom_bond_distance
_geom_bond_site_symmetry_2
Li0 O9 2.129248 1_455
Li0 O16 2.154468 1_555
Li0 O1 2.155157 1_455
Li0 O14 2.167341 1_555
Li0 O17 2.169056 1_556
Li0 O4 2.253041 1_556
Li1 O11 2.129248 1_545
Li1 O15 2.154468 1_555
Li1 O2 2.155157 1_545
Li1 O14 2.167341 1_555
Li1 O17 2.169056 1_556
Li1 O5 2.253041 1_556
Li2 O4 2.129248 1_655
Li2 O12 2.154468 1_555
Li2 O6 2.155157 1_655
Li2 O7 2.167341 1_555
Li2 O10 2.169056 1_554
Li2 O9 2.253041 1_554
Li3 O5 2.129248 1_565
Li3 O13 2.154468 1_555
Li3 O8 2.155157 1_565
Li3 O7 2.167341 1_555
Li3 O10 2.169056 1_554
Li3 O11 2.253041 1_554
Li4 O12 2.146966 1_555
Li4 O15 2.146966 1_555
Li4 O6 2.151005 1_655
Li4 O2 2.151005 1_545
Li4 O0 2.186497 1_545
Li4 O3 2.186497 1_655
Li5 O13 2.146966 1_555
Li5 O16 2.146966 1_555
Li5 O8 2.151005 1_565
Li5 O1 2.151005 1_455
Li5 O0 2.186497 1_455
Li5 O3 2.186497 1_565
Fe0 O6 1.945532 1_555
Fe0 O1 1.948926 1_455
Fe0 O14 1.952615 1_555
Fe0 O4 1.962018 1_555
Fe0 O13 1.985900 1_555
Fe0 O17 2.042924 1_555
Fe1 O7 1.909708 1_555
Fe1 O0 1.955774 1_555
Fe1 O1 1.976640 1_555
Fe1 O2 1.976640 1_555
Fe1 O5 2.016132 1_565
Fe1 O4 2.016132 1_655
Fe2 O8 1.945532 1_555
Fe2 O2 1.948926 1_545
Fe2 O14 1.952615 1_555
Fe2 O5 1.962018 1_555
Fe2 O12 1.985900 1_555
Fe2 O17 2.042924 1_555
Fe3 O1 1.945532 1_555
Fe3 O6 1.948926 1_655
Fe3 O7 1.952615 1_555
Fe3 O9 1.962018 1_555
Fe3 O15 1.985900 1_555
Fe3 O10 2.042924 1_555
Fe4 O2 1.945532 1_555
Fe4 O8 1.948926 1_565
Fe4 O7 1.952615 1_555
Fe4 O11 1.962018 1_555
Fe4 O16 1.985900 1_555
Fe4 O10 2.042924 1_555
Fe5 O14 1.909708 1_555
Fe5 O3 1.955774 1_555
Fe5 O6 1.976640 1_555
Fe5 O8 1.976640 1_555
Fe5 O11 2.016132 1_545
Fe5 O9 2.016132 1_455
O0 V2 1.993339 1_655
O0 V0 1.993339 1_565
O3 V0 1.993339 1_456
O3 V2 1.993339 1_546
O4 V2 1.934019 1_555
O5 V0 1.934019 1_555
O9 V0 1.934019 1_556
O10 V1 1.882956 1_556
O11 V2 1.934019 1_556
O12 V0 1.969430 1_555
O12 V1 2.017332 1_555
O13 V2 1.969430 1_555
O13 V1 2.017332 1_555
O15 V0 1.969430 1_556
O15 V1 2.017332 1_556
O16 V2 1.969430 1_556
O16 V1 2.017332 1_556
O17 V1 1.882956 1_555
