# generated using pymatgen
data_LiV2F7
_symmetry_space_group_name_H-M   'P 1'
_cell_length_a   5.19147200
_cell_length_b   5.55087000
_cell_length_c   10.30716269
_cell_angle_alpha   79.77957711
_cell_angle_beta   90.00000000
_cell_angle_gamma   90.00000000
_symmetry_Int_Tables_number   1
_chemical_formula_structural   LiV2F7
_chemical_formula_sum   'Li2 V4 F14'
_cell_volume   292.31038437
_cell_formula_units_Z   2
loop_
 _symmetry_equiv_pos_site_id
 _symmetry_equiv_pos_as_xyz
  1  'x, y, z'
loop_
 _atom_site_type_symbol
 _atom_site_label
 _atom_site_symmetry_multiplicity
 _atom_site_fract_x
 _atom_site_fract_y
 _atom_site_fract_z
 _atom_site_occupancy
  Li  Li0  1  0.06000300  0.50000000  0.75000000  1
  Li  Li1  1  0.93999700  0.50000000  0.25000000  1
  V  V0  1  0.75064200  0.92916700  0.92660100  1
  V  V1  1  0.24935800  0.92916700  0.42660100  1
  V  V2  1  0.75064200  0.07083300  0.57339900  1
  V  V3  1  0.24935800  0.07083300  0.07339900  1
  F  F0  1  0.57917300  0.00000000  0.75000000  1
  F  F1  1  0.42082700  0.00000000  0.25000000  1
  F  F2  1  0.05193500  0.84623200  0.60555700  1
  F  F3  1  0.94806500  0.84623200  0.10555700  1
  F  F4  1  0.55885400  0.78229000  0.51640000  1
  F  F5  1  0.44114600  0.78229000  0.01640000  1
  F  F6  1  0.91311600  0.66653800  0.87001900  1
  F  F7  1  0.08688400  0.66653800  0.37001900  1
  F  F8  1  0.91311600  0.33346200  0.62998100  1
  F  F9  1  0.08688400  0.33346200  0.12998100  1
  F  F10  1  0.55885400  0.21771000  0.98360000  1
  F  F11  1  0.44114600  0.21771000  0.48360000  1
  F  F12  1  0.05193500  0.15376800  0.89444300  1
  F  F13  1  0.94806500  0.15376800  0.39444300  1
loop_
_geom_bond_atom_site_label_1
_geom_bond_atom_site_label_2
_geom_bond_distance
_geom_bond_site_symmetry_2
F0 V0 2.001589 1_545
F0 V2 2.001589 1_555
F1 V1 2.001589 1_545
F1 V3 2.001589 1_555
F2 V2 1.991013 1_465
F2 V1 2.088859 1_555
F2 Li0 2.212812 1_555
F3 V3 1.991013 1_665
F3 V0 2.088859 1_554
F3 Li1 2.212812 1_555
F4 V1 1.958370 1_555
F4 V2 2.058094 1_565
F5 V0 1.958370 1_554
F5 V3 2.058094 1_565
F6 Li0 1.836354 1_655
F6 V0 1.865081 1_555
F7 Li1 1.836354 1_455
F7 V1 1.865081 1_555
F8 Li0 1.836354 1_655
F8 V2 1.865081 1_555
F9 Li1 1.836354 1_455
F9 V3 1.865081 1_555
F10 V3 1.958370 1_556
F10 V0 2.058094 1_545
F11 V2 1.958370 1_555
F11 V1 2.058094 1_545
F12 V0 1.991013 1_445
F12 V3 2.088859 1_556
F12 Li0 2.212812 1_555
F13 V1 1.991013 1_645
F13 V2 2.088859 1_555
F13 Li1 2.212812 1_555
