# generated using pymatgen
data_Cd7P10
_symmetry_space_group_name_H-M   'P 1'
_cell_length_a   18.18194533
_cell_length_b   14.15424422
_cell_length_c   11.88464377
_cell_angle_alpha   88.12561957
_cell_angle_beta   51.08342529
_cell_angle_gamma   40.79095514
_symmetry_Int_Tables_number   1
_chemical_formula_structural   Cd7P10
_chemical_formula_sum   'Cd14 P20'
_cell_volume   762.94458974
_cell_formula_units_Z   2
loop_
 _symmetry_equiv_pos_site_id
 _symmetry_equiv_pos_as_xyz
  1  'x, y, z'
loop_
 _atom_site_type_symbol
 _atom_site_label
 _atom_site_symmetry_multiplicity
 _atom_site_fract_x
 _atom_site_fract_y
 _atom_site_fract_z
 _atom_site_occupancy
  Cd  Cd0  1  0.57282300  0.52655100  0.93261000  1
  Cd  Cd1  1  0.98204200  0.92385000  0.51429200  1
  Cd  Cd2  1  0.32401500  0.26995200  0.67228000  1
  Cd  Cd3  1  0.72319600  0.68039800  0.28352900  1
  Cd  Cd4  1  0.19410600  0.97000600  0.56519200  1
  Cd  Cd5  1  0.26023700  0.57469900  0.98183100  1
  Cd  Cd6  1  0.68512600  0.98207800  0.05354300  1
  Cd  Cd7  1  0.27417600  0.06384800  0.99044700  1
  Cd  Cd8  1  0.93193900  0.49072100  0.83313700  1
  Cd  Cd9  1  0.75526800  0.81767500  0.47735800  1
  Cd  Cd10  1  0.42602600  0.49742000  0.31273900  1
  Cd  Cd11  1  0.77546600  0.29800200  0.49009800  1
  Cd  Cd12  1  0.24654500  0.25493300  0.25361700  1
  Cd  Cd13  1  0.00520700  0.99332000  0.99866300  1
  P  P0  1  0.66949300  0.46054400  0.24449000  1
  P  P1  1  0.63020700  0.24394300  0.45439200  1
  P  P2  1  0.00540700  0.62227100  0.58151700  1
  P  P3  1  0.79466600  0.57532900  0.62272000  1
  P  P4  1  0.98363700  0.27995900  0.92696200  1
  P  P5  1  0.81344200  0.92919900  0.27201900  1
  P  P6  1  0.32946800  0.42933900  0.25984700  1
  P  P7  1  0.98337000  0.25670000  0.43112900  1
  P  P8  1  0.88783000  0.11645400  0.78130200  1
  P  P9  1  0.22676500  0.76768400  0.11086200  1
  P  P10  1  0.46632000  0.03564900  0.36946200  1
  P  P11  1  0.14296000  0.35081300  0.02214900  1
  P  P12  1  0.32299200  0.90575000  0.24479000  1
  P  P13  1  0.52356900  0.24427800  0.90485000  1
  P  P14  1  0.48220500  0.64938400  0.59010800  1
  P  P15  1  0.26544900  0.60533100  0.66434500  1
  P  P16  1  0.65204600  0.97362100  0.77785200  1
  P  P17  1  0.59117500  0.78113400  0.97736900  1
  P  P18  1  0.33898300  0.93035600  0.72486900  1
  P  P19  1  0.00851700  0.72214200  0.92125200  1
loop_
_geom_bond_atom_site_label_1
_geom_bond_atom_site_label_2
_geom_bond_distance
_geom_bond_site_symmetry_2
Cd0 P12 2.533495 1_556
Cd0 P9 2.633465 1_556
Cd0 P8 2.670852 1_555
Cd0 P7 2.872786 1_555
Cd1 P9 2.582645 1_655
Cd1 P8 2.664902 1_565
Cd1 P13 2.668408 1_565
Cd1 P6 2.911198 1_655
Cd2 P10 2.594946 1_555
Cd2 P11 2.616331 1_556
Cd2 P19 2.635582 1_555
Cd2 P5 2.899518 1_545
Cd3 P18 2.565990 1_555
Cd3 P11 2.628921 1_655
Cd3 P10 2.631189 1_565
Cd3 P4 2.868117 1_554
Cd4 P12 2.570366 1_555
Cd4 P8 2.608451 1_465
Cd4 P0 2.695574 1_555
Cd4 P4 2.741969 1_465
Cd5 P13 2.550310 1_555
Cd5 P9 2.601476 1_556
Cd5 P5 2.697354 1_456
Cd5 P1 2.778104 1_555
Cd6 P19 2.566750 1_654
Cd6 P6 2.648227 1_565
Cd6 P2 2.690215 1_654
Cd6 P10 2.711273 1_565
Cd7 P11 2.574760 1_556
Cd7 P7 2.669647 1_456
Cd7 P18 2.695753 1_545
Cd7 P3 2.720449 1_545
Cd8 P10 2.558999 1_655
Cd8 P17 2.603160 1_555
Cd8 P4 2.807059 1_555
Cd8 P10 2.887340 1_566
Cd9 P11 2.553041 1_655
Cd9 P16 2.640173 1_555
Cd9 P11 2.869341 1_566
Cd9 P5 2.932436 1_555
Cd10 P8 2.551828 1_554
Cd10 P15 2.579877 1_555
Cd10 P6 2.897192 1_555
Cd10 P8 2.905117 1_465
Cd11 P9 2.544278 1_645
Cd11 P14 2.617003 1_555
Cd11 P9 2.909284 1_556
Cd11 P7 2.911074 1_555
Cd12 P2 2.604692 1_555
Cd12 P16 2.613198 1_544
Cd12 P3 2.629488 1_455
Cd12 P17 2.642143 1_544
Cd13 P1 2.577589 1_466
Cd13 P15 2.606746 1_555
Cd13 P14 2.683499 1_555
Cd13 P0 2.695183 1_466
P0 P4 2.200520 1_554
P0 P14 2.230465 1_555
P1 P5 2.174743 1_545
P1 P15 2.247508 1_555
P2 P6 2.192731 1_555
P3 P7 2.173126 1_555
P12 P7 2.191511 1_465
P12 P17 2.204919 1_554
P13 P16 2.192961 1_545
P13 P6 2.265994 1_556
P14 P18 2.158190 1_555
P15 P19 2.143346 1_555
P16 P2 2.235672 1_655
P17 P3 2.197921 1_555
P18 P4 2.206630 1_465
P19 P5 2.242868 1_456
