# generated using pymatgen
data_Mn3OF5
_symmetry_space_group_name_H-M   'P 1'
_cell_length_a   4.89029200
_cell_length_b   5.89709019
_cell_length_c   8.10158697
_cell_angle_alpha   86.74073407
_cell_angle_beta   88.38542974
_cell_angle_gamma   88.71233512
_symmetry_Int_Tables_number   1
_chemical_formula_structural   Mn3OF5
_chemical_formula_sum   'Mn6 O2 F10'
_cell_volume   233.11604914
_cell_formula_units_Z   2
loop_
 _symmetry_equiv_pos_site_id
 _symmetry_equiv_pos_as_xyz
  1  'x, y, z'
loop_
 _atom_site_type_symbol
 _atom_site_label
 _atom_site_symmetry_multiplicity
 _atom_site_fract_x
 _atom_site_fract_y
 _atom_site_fract_z
 _atom_site_occupancy
  Mn  Mn0  1  0.50000000  0.50000000  0.00000000  1
  Mn  Mn1  1  0.51748100  0.81560900  0.66546400  1
  Mn  Mn2  1  0.48251900  0.18439100  0.33453600  1
  Mn  Mn3  1  0.97722600  0.34697100  0.67836000  1
  Mn  Mn4  1  0.02277400  0.65302900  0.32164000  1
  Mn  Mn5  1  0.00000000  0.00000000  0.00000000  1
  O  O0  1  0.68285700  0.53574600  0.78419700  1
  O  O1  1  0.31714300  0.46425400  0.21580300  1
  F  F0  1  0.80523000  0.36935900  0.43662900  1
  F  F1  1  0.80230300  0.03486900  0.76541000  1
  F  F2  1  0.79727800  0.70095000  0.10030600  1
  F  F3  1  0.69704200  0.20460600  0.09667400  1
  F  F4  1  0.70132200  0.87425500  0.42373900  1
  F  F5  1  0.29867800  0.12574500  0.57626100  1
  F  F6  1  0.30295800  0.79539400  0.90332600  1
  F  F7  1  0.19477000  0.63064100  0.56337100  1
  F  F8  1  0.19769700  0.96513100  0.23459000  1
  F  F9  1  0.20272200  0.29905000  0.89969400  1
loop_
_geom_bond_atom_site_label_1
_geom_bond_atom_site_label_2
_geom_bond_distance
_geom_bond_site_symmetry_2
Mn0 O0 1.944030 1_554
Mn0 O1 1.944030 1_555
Mn1 O0 2.026434 1_555
Mn2 O1 2.026434 1_555
Mn3 O0 2.003433 1_555
Mn4 O1 2.003433 1_555
F0 Mn2 2.148948 1_555
F0 Mn3 2.149111 1_555
F0 Mn4 2.155211 1_655
F1 Mn3 2.122665 1_555
F1 Mn1 2.128638 1_545
F1 Mn5 2.153890 1_656
F2 Mn0 2.105141 1_555
F2 Mn4 2.133333 1_655
F2 Mn5 2.150218 1_665
F3 Mn5 2.055719 1_655
F3 Mn0 2.094834 1_555
F3 Mn2 2.166545 1_555
F4 Mn1 2.144942 1_555
F4 Mn4 2.194215 1_655
F4 Mn2 2.194859 1_565
F5 Mn2 2.144942 1_555
F5 Mn3 2.194215 1_455
F5 Mn1 2.194859 1_545
F6 Mn5 2.055719 1_566
F6 Mn0 2.094834 1_556
F6 Mn1 2.166545 1_555
F7 Mn1 2.148948 1_555
F7 Mn4 2.149111 1_555
F7 Mn3 2.155211 1_455
F8 Mn4 2.122665 1_555
F8 Mn2 2.128638 1_565
F8 Mn5 2.153890 1_565
F9 Mn0 2.105141 1_556
F9 Mn3 2.133333 1_455
F9 Mn5 2.150218 1_556
