# generated using pymatgen
data_Li4Mn3Fe(PO4)4
_symmetry_space_group_name_H-M   'P 1'
_cell_length_a   6.15019600
_cell_length_b   4.78016800
_cell_length_c   10.52501525
_cell_angle_alpha   89.93754904
_cell_angle_beta   90.00000000
_cell_angle_gamma   90.00000000
_symmetry_Int_Tables_number   1
_chemical_formula_structural   Li4Mn3Fe(PO4)4
_chemical_formula_sum   'Li4 Mn3 Fe1 P4 O16'
_cell_volume   309.42442503
_cell_formula_units_Z   1
loop_
 _symmetry_equiv_pos_site_id
 _symmetry_equiv_pos_as_xyz
  1  'x, y, z'
loop_
 _atom_site_type_symbol
 _atom_site_label
 _atom_site_symmetry_multiplicity
 _atom_site_fract_x
 _atom_site_fract_y
 _atom_site_fract_z
 _atom_site_occupancy
  Li  Li0  1  0.24963900  0.99997700  0.00028200  1
  Li  Li1  1  0.75036100  0.99997700  0.00028200  1
  Li  Li2  1  0.75059100  0.49984700  0.49982300  1
  Li  Li3  1  0.24940900  0.49984700  0.49982300  1
  Mn  Mn0  1  0.50000000  0.02836100  0.71872400  1
  Mn  Mn1  1  0.50000000  0.47137200  0.21840000  1
  Mn  Mn2  1  0.00000000  0.52787000  0.78138800  1
  Fe  Fe0  1  0.00000000  0.97009500  0.28160500  1
  P  P0  1  0.00000000  0.08920100  0.59136700  1
  P  P1  1  0.00000000  0.40944600  0.09363400  1
  P  P2  1  0.50000000  0.58992900  0.90798600  1
  P  P3  1  0.50000000  0.91220400  0.40723400  1
  O  O0  1  0.00000000  0.21018400  0.45389700  1
  O  O1  1  0.20105300  0.22353900  0.66106800  1
  O  O2  1  0.79894700  0.22353900  0.66106800  1
  O  O3  1  0.50000000  0.23291200  0.40403600  1
  O  O4  1  0.50000000  0.26867400  0.90401400  1
  O  O5  1  0.20098800  0.27370400  0.16254700  1
  O  O6  1  0.79901200  0.27370400  0.16254700  1
  O  O7  1  0.00000000  0.28868100  0.95577000  1
  O  O8  1  0.50000000  0.71215700  0.04495700  1
  O  O9  1  0.70125900  0.72358400  0.83842500  1
  O  O10  1  0.29874100  0.72358400  0.83842500  1
  O  O11  1  0.00000000  0.73105200  0.09726600  1
  O  O12  1  0.00000000  0.76818900  0.59618000  1
  O  O13  1  0.70271000  0.78075500  0.33756900  1
  O  O14  1  0.29729000  0.78075500  0.33756900  1
  O  O15  1  0.50000000  0.78686600  0.54411200  1
loop_
_geom_bond_atom_site_label_1
_geom_bond_atom_site_label_2
_geom_bond_distance
_geom_bond_site_symmetry_2
Li0 O7 2.116567 1_564
Li0 O8 2.117422 1_555
Li0 O5 2.173291 1_565
Li0 O10 2.178017 1_554
Li0 O4 2.245974 1_564
Li0 O11 2.246964 1_555
Li1 O7 2.116567 1_664
Li1 O8 2.117422 1_555
Li1 O6 2.173291 1_565
Li1 O9 2.178017 1_554
Li1 O4 2.245974 1_564
Li1 O11 2.246964 1_655
Li2 O15 2.115730 1_555
Li2 O0 2.122551 1_655
Li2 O2 2.169847 1_555
Li2 O13 2.191147 1_555
Li2 O3 2.241115 1_555
Li2 O12 2.242681 1_655
Li3 O15 2.115730 1_555
Li3 O0 2.122551 1_555
Li3 O1 2.169847 1_555
Li3 O14 2.191147 1_555
Li3 O3 2.241115 1_555
Li3 O12 2.242681 1_555
Mn0 O2 2.148919 1_555
Mn0 O1 2.148919 1_555
Mn0 O15 2.171341 1_545
Mn0 O4 2.264438 1_555
Mn0 O9 2.288636 1_545
Mn0 O10 2.288636 1_545
Mn1 O6 2.149756 1_555
Mn1 O5 2.149756 1_555
Mn1 O8 2.156993 1_555
Mn1 O3 2.260949 1_555
Mn1 O14 2.306216 1_555
Mn1 O13 2.306216 1_555
Mn2 O10 2.147691 1_555
Mn2 O9 2.147691 1_455
Mn2 O7 2.161319 1_555
Mn2 O12 2.261552 1_555
Mn2 O1 2.291939 1_555
Mn2 O2 2.291939 1_455
Fe0 O14 2.123197 1_555
Fe0 O13 2.123197 1_455
Fe0 O0 2.147092 1_565
Fe0 O11 2.252727 1_555
Fe0 O5 2.280465 1_565
Fe0 O6 2.280465 1_465
O0 P0 1.557586 1_555
O1 P0 1.574973 1_555
O2 P0 1.574973 1_655
O3 P3 1.533371 1_545
O4 P2 1.536267 1_555
O5 P1 1.572915 1_555
O6 P1 1.572915 1_655
O7 P1 1.562221 1_556
O8 P2 1.556111 1_554
O9 P2 1.573304 1_555
O10 P2 1.573304 1_555
O11 P1 1.537848 1_555
O12 P0 1.535272 1_565
O13 P3 1.577251 1_555
O14 P3 1.577251 1_555
O15 P3 1.559659 1_555
