# generated using pymatgen
data_Li2Ni5(PO4)4
_symmetry_space_group_name_H-M   'P 1'
_cell_length_a   7.83783800
_cell_length_b   7.88704776
_cell_length_c   5.19648335
_cell_angle_alpha   93.85155194
_cell_angle_beta   98.31630646
_cell_angle_gamma   110.33125635
_symmetry_Int_Tables_number   1
_chemical_formula_structural   Li2Ni5(PO4)4
_chemical_formula_sum   'Li2 Ni5 P4 O16'
_cell_volume   295.65611406
_cell_formula_units_Z   1
loop_
 _symmetry_equiv_pos_site_id
 _symmetry_equiv_pos_as_xyz
  1  'x, y, z'
loop_
 _atom_site_type_symbol
 _atom_site_label
 _atom_site_symmetry_multiplicity
 _atom_site_fract_x
 _atom_site_fract_y
 _atom_site_fract_z
 _atom_site_occupancy
  Li  Li0  1  0.28253300  0.62863300  0.04153000  1
  Li  Li1  1  0.71746700  0.37136700  0.95847000  1
  Ni  Ni0  1  0.77021700  0.10194100  0.25493900  1
  Ni  Ni1  1  0.00000000  0.00000000  0.00000000  1
  Ni  Ni2  1  0.66999500  0.63456900  0.40583800  1
  Ni  Ni3  1  0.33000500  0.36543100  0.59416200  1
  Ni  Ni4  1  0.22978300  0.89805900  0.74506100  1
  P  P0  1  0.57897500  0.85241000  0.79444200  1
  P  P1  1  0.97139500  0.35940200  0.69669300  1
  P  P2  1  0.02860500  0.64059800  0.30330700  1
  P  P3  1  0.42102500  0.14759000  0.20555800  1
  O  O0  1  0.05501600  0.64525200  0.79377900  1
  O  O1  1  0.12382700  0.20873900  0.65890100  1
  O  O2  1  0.74702300  0.90174400  0.98269800  1
  O  O3  1  0.49134400  0.11084200  0.76760700  1
  O  O4  1  0.43336200  0.65452500  0.82498000  1
  O  O5  1  0.94498400  0.35474800  0.20622100  1
  O  O6  1  0.87617300  0.79126100  0.34109900  1
  O  O7  1  0.25297700  0.09825600  0.01730200  1
  O  O8  1  0.50865600  0.88915800  0.23239300  1
  O  O9  1  0.56663800  0.34547500  0.17502000  1
  O  O10  1  0.10393700  0.76932500  0.17406900  1
  O  O11  1  0.81523700  0.34525500  0.50700900  1
  O  O12  1  0.36929700  0.27552900  0.36280100  1
  O  O13  1  0.63070300  0.72447100  0.63719900  1
  O  O14  1  0.18476300  0.65474500  0.49299100  1
  O  O15  1  0.89606300  0.23067500  0.82593100  1
loop_
_geom_bond_atom_site_label_1
_geom_bond_atom_site_label_2
_geom_bond_distance
_geom_bond_site_symmetry_2
Li0 O4 1.718566 1_554
Li0 O0 2.091791 1_554
Li0 O10 2.218269 1_555
Li0 O8 2.243661 1_555
Li1 O9 1.718566 1_556
Li1 O5 2.091791 1_556
Li1 O15 2.218269 1_555
Li1 O3 2.243661 1_555
Ni0 O2 1.988363 1_544
Ni0 O5 2.046040 1_555
Ni0 O8 2.132207 1_545
Ni0 O11 2.140330 1_555
Ni1 O2 1.847002 1_444
Ni1 O7 1.847002 1_555
Ni2 O13 1.478976 1_555
Ni2 O6 1.754205 1_555
Ni2 O9 2.315543 1_555
Ni3 O12 1.478976 1_555
Ni3 O1 1.754205 1_555
Ni3 O4 2.315543 1_555
Ni4 O7 1.988363 1_566
Ni4 O0 2.046040 1_555
Ni4 O3 2.132207 1_565
Ni4 O14 2.140330 1_555
O0 P1 2.119355 1_455
O1 P1 1.975106 1_455
O2 P0 1.436400 1_555
O3 P0 2.372555 1_545
O4 P0 1.616010 1_555
O5 P2 2.119355 1_655
O6 P2 1.975106 1_655
O7 P3 1.436400 1_555
O8 P3 2.372555 1_565
O9 P3 1.616010 1_555
O10 P2 1.272861 1_555
O11 P1 1.422464 1_555
O12 P3 1.455886 1_555
O13 P0 1.455886 1_555
O14 P2 1.422464 1_555
O15 P1 1.272861 1_555
