# generated using pymatgen
data_La6Cu6O17
_symmetry_space_group_name_H-M   'P 1'
_cell_length_a   6.77290132
_cell_length_b   6.77290132
_cell_length_c   10.52509243
_cell_angle_alpha   86.92661526
_cell_angle_beta   86.92661526
_cell_angle_gamma   120.30546620
_symmetry_Int_Tables_number   1
_chemical_formula_structural   La6Cu6O17
_chemical_formula_sum   'La6 Cu6 O17'
_cell_volume   414.40617738
_cell_formula_units_Z   1
loop_
 _symmetry_equiv_pos_site_id
 _symmetry_equiv_pos_as_xyz
  1  'x, y, z'
loop_
 _atom_site_type_symbol
 _atom_site_label
 _atom_site_symmetry_multiplicity
 _atom_site_fract_x
 _atom_site_fract_y
 _atom_site_fract_z
 _atom_site_occupancy
  La  La0  1  0.47450600  0.47450600  0.24221500  1
  La  La1  1  0.86169200  0.19464200  0.73991400  1
  La  La2  1  0.80535800  0.13830800  0.26008600  1
  La  La3  1  0.52549400  0.52549400  0.75778500  1
  La  La4  1  0.19464200  0.86169200  0.73991400  1
  La  La5  1  0.13830800  0.80535800  0.26008600  1
  Cu  Cu0  1  0.33687900  0.66312100  0.50000000  1
  Cu  Cu1  1  0.66312100  0.33687900  0.50000000  1
  Cu  Cu2  1  0.00000000  0.00000000  0.00000000  1
  Cu  Cu3  1  0.00000000  0.00000000  0.50000000  1
  Cu  Cu4  1  0.00000000  0.50000000  0.00000000  1
  Cu  Cu5  1  0.50000000  0.00000000  0.00000000  1
  O  O0  1  0.14617100  0.48477800  0.14275800  1
  O  O1  1  0.17441900  0.17441900  0.85105600  1
  O  O2  1  0.51522200  0.85382900  0.85724200  1
  O  O3  1  0.83449300  0.16550700  0.00000000  1
  O  O4  1  0.83110600  0.16889400  0.50000000  1
  O  O5  1  0.50000000  0.50000000  0.50000000  1
  O  O6  1  0.82558100  0.82558100  0.14894400  1
  O  O7  1  0.86711100  0.86711100  0.66340000  1
  O  O8  1  0.48477800  0.14617100  0.14275800  1
  O  O9  1  0.13288900  0.13288900  0.33660000  1
  O  O10  1  0.85382900  0.51522200  0.85724200  1
  O  O11  1  0.77977400  0.45540700  0.33328100  1
  O  O12  1  0.16889400  0.83110600  0.50000000  1
  O  O13  1  0.16550700  0.83449300  0.00000000  1
  O  O14  1  0.22022600  0.54459300  0.66671900  1
  O  O15  1  0.54459300  0.22022600  0.66671900  1
  O  O16  1  0.45540700  0.77977400  0.33328100  1
loop_
_geom_bond_atom_site_label_1
_geom_bond_atom_site_label_2
_geom_bond_distance
_geom_bond_site_symmetry_2
La0 O11 2.383127 1_555
La0 O16 2.383127 1_555
La0 O9 2.407895 1_555
La0 O6 2.462700 1_555
La0 O8 2.538456 1_555
La0 O0 2.538456 1_555
La0 O5 2.737065 1_555
La1 O15 2.403066 1_555
La1 O7 2.416910 1_545
La1 O14 2.429601 1_655
La1 O2 2.505343 1_545
La1 O1 2.532715 1_655
La1 O4 2.552723 1_555
La1 O10 2.576683 1_555
La1 O3 2.723547 1_556
La2 O11 2.403066 1_555
La2 O9 2.416910 1_655
La2 O16 2.429601 1_545
La2 O0 2.505343 1_655
La2 O6 2.532715 1_545
La2 O4 2.552723 1_555
La2 O8 2.576683 1_555
La2 O3 2.723547 1_555
La3 O14 2.383127 1_555
La3 O15 2.383127 1_555
La3 O7 2.407895 1_555
La3 O1 2.462700 1_555
La3 O10 2.538456 1_555
La3 O2 2.538456 1_555
La3 O5 2.737065 1_555
La4 O14 2.403066 1_555
La4 O7 2.416910 1_455
La4 O15 2.429601 1_565
La4 O10 2.505343 1_455
La4 O1 2.532715 1_565
La4 O12 2.552723 1_555
La4 O2 2.576683 1_555
La4 O13 2.723547 1_556
La5 O16 2.403066 1_555
La5 O9 2.416910 1_565
La5 O11 2.429601 1_455
La5 O8 2.505343 1_565
La5 O6 2.532715 1_455
La5 O12 2.552723 1_555
La5 O0 2.576683 1_555
La5 O13 2.723547 1_555
Cu0 O14 1.846063 1_555
Cu0 O16 1.846063 1_555
Cu0 O5 1.916512 1_555
Cu0 O12 1.973659 1_555
Cu1 O15 1.846063 1_555
Cu1 O11 1.846063 1_555
Cu1 O5 1.916512 1_555
Cu1 O4 1.973659 1_555
Cu2 O1 1.855538 1_554
Cu2 O6 1.855538 1_445
Cu2 O3 1.944545 1_455
Cu2 O13 1.944545 1_545
Cu3 O7 1.851583 1_445
Cu3 O9 1.851583 1_555
Cu3 O4 1.984339 1_455
Cu3 O12 1.984339 1_545
Cu4 O0 1.869295 1_555
Cu4 O10 1.869295 1_454
Cu4 O3 1.956030 1_455
Cu4 O13 1.956030 1_555
Cu5 O8 1.869295 1_555
Cu5 O2 1.869295 1_544
Cu5 O3 1.956030 1_555
Cu5 O13 1.956030 1_545
