# generated using pymatgen
data_CoSb(PO4)2
_symmetry_space_group_name_H-M   'P 1'
_cell_length_a   4.95950364
_cell_length_b   20.27390730
_cell_length_c   6.23347640
_cell_angle_alpha   89.96402661
_cell_angle_beta   89.97811662
_cell_angle_gamma   87.00161894
_symmetry_Int_Tables_number   1
_chemical_formula_structural   CoSb(PO4)2
_chemical_formula_sum   'Co4 Sb4 P8 O32'
_cell_volume   625.90861092
_cell_formula_units_Z   4
loop_
 _symmetry_equiv_pos_site_id
 _symmetry_equiv_pos_as_xyz
  1  'x, y, z'
loop_
 _atom_site_type_symbol
 _atom_site_label
 _atom_site_symmetry_multiplicity
 _atom_site_fract_x
 _atom_site_fract_y
 _atom_site_fract_z
 _atom_site_occupancy
  Co  Co0  1  0.44137300  0.61357500  0.74988800  1
  Co  Co1  1  0.55995600  0.38668200  0.25006200  1
  Co  Co2  1  0.43163700  0.11122300  0.75005500  1
  Co  Co3  1  0.57069500  0.88863400  0.24647300  1
  Sb  Sb0  1  0.94364400  0.14086200  0.25008600  1
  Sb  Sb1  1  0.95286500  0.64152600  0.24983200  1
  Sb  Sb2  1  0.04675800  0.35838000  0.74997100  1
  Sb  Sb3  1  0.05830000  0.85887100  0.74933000  1
  P  P0  1  0.39804400  0.04672400  0.24981800  1
  P  P1  1  0.40679600  0.54778300  0.25002700  1
  P  P2  1  0.59303500  0.45214900  0.74995700  1
  P  P3  1  0.60512600  0.95295000  0.75008100  1
  P  P4  1  0.87849900  0.20190500  0.75001600  1
  P  P5  1  0.88460300  0.70291700  0.75002700  1
  P  P6  1  0.11442100  0.29726600  0.25001800  1
  P  P7  1  0.11891300  0.79806900  0.25067200  1
  O  O0  1  0.64517500  0.02599200  0.75164700  1
  O  O1  1  0.63379900  0.52516400  0.74992600  1
  O  O2  1  0.36514800  0.47479800  0.25010500  1
  O  O3  1  0.35307800  0.97364800  0.24925300  1
  O  O4  1  0.70422400  0.05845200  0.25015500  1
  O  O5  1  0.71270200  0.55980400  0.24997500  1
  O  O6  1  0.28728400  0.43988000  0.74993900  1
  O  O7  1  0.29980800  0.94033900  0.74951700  1
  O  O8  1  0.18247700  0.19179300  0.74972800  1
  O  O9  1  0.18869800  0.69276700  0.74958400  1
  O  O10  1  0.81025100  0.30728900  0.25009800  1
  O  O11  1  0.81385800  0.80741400  0.25308000  1
  O  O12  1  0.20388400  0.22283100  0.25009100  1
  O  O13  1  0.20839200  0.72348000  0.24777800  1
  O  O14  1  0.79161700  0.27687500  0.74992700  1
  O  O15  1  0.79685800  0.77759400  0.75089700  1
  O  O16  1  0.24603500  0.08524000  0.05742100  1
  O  O17  1  0.25391400  0.58619000  0.05783800  1
  O  O18  1  0.24580200  0.08494600  0.44258000  1
  O  O19  1  0.25394800  0.58619300  0.44214900  1
  O  O20  1  0.74653200  0.41379300  0.55800000  1
  O  O21  1  0.75925900  0.91532100  0.55764300  1
  O  O22  1  0.74640300  0.41375800  0.94196100  1
  O  O23  1  0.75796100  0.91458400  0.94249900  1
  O  O24  1  0.73840300  0.16733900  0.94540000  1
  O  O25  1  0.74663500  0.66752700  0.94504100  1
  O  O26  1  0.73812300  0.16729900  0.55503400  1
  O  O27  1  0.74639900  0.66774400  0.55495200  1
  O  O28  1  0.25154400  0.33296800  0.05482500  1
  O  O29  1  0.25542200  0.83407000  0.05619700  1
  O  O30  1  0.25153200  0.33298100  0.44500000  1
  O  O31  1  0.26017200  0.83241200  0.44544900  1
loop_
_geom_bond_atom_site_label_1
_geom_bond_atom_site_label_2
_geom_bond_distance
_geom_bond_site_symmetry_2
Co0 O9 1.984343 1_555
Co0 O1 1.986110 1_555
Co0 O19 2.215561 1_555
Co0 O17 2.215571 1_556
Co0 O27 2.267562 1_555
Co0 O25 2.268176 1_555
Co1 O10 1.980587 1_555
Co1 O2 1.986028 1_555
Co1 O22 2.212526 1_554
Co1 O20 2.213323 1_555
Co1 O30 2.274381 1_555
Co1 O28 2.276826 1_555
Co2 O0 1.978908 1_555
Co2 O8 1.996005 1_555
Co2 O16 2.200867 1_556
Co2 O18 2.204710 1_555
Co2 O26 2.293123 1_555
Co2 O24 2.296953 1_555
Co3 O3 1.985252 1_555
Co3 O11 1.989901 1_555
Co3 O23 2.185910 1_554
Co3 O21 2.232770 1_555
Co3 O29 2.293333 1_555
Co3 O31 2.321581 1_555
O0 P3 1.504408 1_545
O1 P2 1.504482 1_555
O2 P1 1.504700 1_555
O3 P0 1.509724 1_565
O4 P0 1.549245 1_555
O4 Sb0 2.099751 1_555
O5 P1 1.549128 1_555
O5 Sb1 2.090505 1_555
O6 P2 1.549425 1_555
O6 Sb2 2.087908 1_555
O7 P3 1.548796 1_555
O7 Sb3 2.090365 1_555
O8 P4 1.510793 1_455
O9 P5 1.511433 1_455
O10 P6 1.511586 1_655
O11 P7 1.514943 1_655
O12 P6 1.550536 1_555
O12 Sb0 2.156821 1_455
O13 P7 1.553661 1_555
O13 Sb1 2.141751 1_455
O14 P4 1.557997 1_555
O14 Sb2 2.133172 1_655
O15 P5 1.553276 1_555
O15 Sb3 2.149434 1_655
O16 P0 1.598237 1_555
O16 Sb0 2.187811 1_455
O17 P1 1.598181 1_555
O17 Sb1 2.178351 1_455
O18 P0 1.598009 1_555
O18 Sb0 2.189181 1_455
O19 P1 1.598119 1_555
O19 Sb1 2.179392 1_455
O20 P2 1.598289 1_555
O20 Sb2 2.176187 1_655
O21 P3 1.595217 1_555
O21 Sb3 2.181550 1_655
O22 P2 1.598252 1_555
O22 Sb2 2.176482 1_655
O23 P3 1.598763 1_555
O23 Sb3 2.183745 1_655
O24 P4 1.583166 1_555
O24 Sb0 2.207816 1_556
O25 P5 1.584408 1_555
O25 Sb1 2.208499 1_556
O26 P4 1.583345 1_555
O26 Sb0 2.209576 1_555
O27 P5 1.584239 1_555
O27 Sb1 2.211636 1_555
O28 P6 1.586377 1_555
O28 Sb2 2.203088 1_554
O29 P7 1.584487 1_555
O29 Sb3 2.194621 1_554
O30 P6 1.586563 1_555
O30 Sb2 2.203523 1_555
O31 P7 1.581918 1_555
O31 Sb3 2.195881 1_555
