# generated using pymatgen
data_Li3Sn2(PO4)3
_symmetry_space_group_name_H-M   'P 1'
_cell_length_a   5.05430979
_cell_length_b   5.05430979
_cell_length_c   20.42423955
_cell_angle_alpha   89.81528298
_cell_angle_beta   89.81528298
_cell_angle_gamma   66.37279441
_symmetry_Int_Tables_number   1
_chemical_formula_structural   Li3Sn2(PO4)3
_chemical_formula_sum   'Li6 Sn4 P6 O24'
_cell_volume   478.01734350
_cell_formula_units_Z   2
loop_
 _symmetry_equiv_pos_site_id
 _symmetry_equiv_pos_as_xyz
  1  'x, y, z'
loop_
 _atom_site_type_symbol
 _atom_site_label
 _atom_site_symmetry_multiplicity
 _atom_site_fract_x
 _atom_site_fract_y
 _atom_site_fract_z
 _atom_site_occupancy
  Li  Li0  1  0.99353500  0.99353500  0.64948600  1
  Li  Li1  1  0.66432600  0.66432600  0.41244900  1
  Li  Li2  1  0.66720300  0.66720300  0.72572100  1
  Li  Li3  1  0.33279700  0.33279700  0.27427900  1
  Li  Li4  1  0.00646500  0.00646500  0.35051400  1
  Li  Li5  1  0.33567400  0.33567400  0.58755100  1
  Sn  Sn0  1  0.00000000  0.00000000  0.00000000  1
  Sn  Sn1  1  0.99893100  0.99893100  0.82001200  1
  Sn  Sn2  1  0.00106900  0.00106900  0.17998800  1
  Sn  Sn3  1  0.00000000  0.00000000  0.50000000  1
  P  P0  1  0.65285800  0.65285800  0.25521800  1
  P  P1  1  0.64242100  0.64242100  0.89647500  1
  P  P2  1  0.64100000  0.64100000  0.58576800  1
  P  P3  1  0.35757900  0.35757900  0.10352500  1
  P  P4  1  0.35900000  0.35900000  0.41423200  1
  P  P5  1  0.34714200  0.34714200  0.74478200  1
  O  O0  1  0.29985800  0.76494200  0.89339200  1
  O  O1  1  0.30948100  0.75851800  0.25053800  1
  O  O2  1  0.30475900  0.75216300  0.59266100  1
  O  O3  1  0.23505800  0.70014200  0.10660800  1
  O  O4  1  0.24783700  0.69524100  0.40733900  1
  O  O5  1  0.24148200  0.69051900  0.74946200  1
  O  O6  1  0.27111800  0.27111800  0.03873700  1
  O  O7  1  0.23948000  0.23948000  0.35772800  1
  O  O8  1  0.25320500  0.25320500  0.68309500  1
  O  O9  1  0.75120300  0.75120300  0.83396200  1
  O  O10  1  0.72888200  0.72888200  0.96126300  1
  O  O11  1  0.75954700  0.75954700  0.19289000  1
  O  O12  1  0.24045300  0.24045300  0.80711000  1
  O  O13  1  0.24879700  0.24879700  0.16603800  1
  O  O14  1  0.74679500  0.74679500  0.31690500  1
  O  O15  1  0.28241200  0.28241200  0.48296500  1
  O  O16  1  0.71758800  0.71758800  0.51703500  1
  O  O17  1  0.76052000  0.76052000  0.64227200  1
  O  O18  1  0.70014200  0.23505800  0.10660800  1
  O  O19  1  0.69051900  0.24148200  0.74946200  1
  O  O20  1  0.69524100  0.24783700  0.40733900  1
  O  O21  1  0.76494200  0.29985800  0.89339200  1
  O  O22  1  0.75216300  0.30475900  0.59266100  1
  O  O23  1  0.75851800  0.30948100  0.25053800  1
loop_
_geom_bond_atom_site_label_1
_geom_bond_atom_site_label_2
_geom_bond_distance
_geom_bond_site_symmetry_2
Li0 O2 1.941353 1_655
Li0 O22 1.941353 1_565
Li0 O17 1.977336 1_555
Li0 O8 2.304041 1_665
Li0 O19 2.558022 1_565
Li0 O5 2.558022 1_655
Li1 O20 2.050429 1_555
Li1 O4 2.050429 1_555
Li1 O14 2.069849 1_555
Li1 O16 2.184794 1_555
Li2 O17 1.875575 1_555
Li2 O5 2.160860 1_555
Li2 O19 2.160860 1_555
Li2 O9 2.324751 1_555
Li3 O7 1.875575 1_555
Li3 O1 2.160860 1_555
Li3 O23 2.160860 1_555
Li3 O13 2.324751 1_555
Li4 O4 1.941353 1_545
Li4 O20 1.941353 1_455
Li4 O7 1.977336 1_555
Li4 O14 2.304041 1_445
Li4 O23 2.558022 1_455
Li4 O1 2.558022 1_545
Li5 O22 2.050429 1_555
Li5 O2 2.050429 1_555
Li5 O8 2.069849 1_555
Li5 O15 2.184794 1_555
O0 P1 1.589425 1_555
O0 Sn1 2.125948 1_455
O0 Sn0 2.646048 1_566
O1 P0 1.601320 1_555
O1 Sn2 2.116689 1_565
O2 P2 1.567570 1_555
O2 Sn3 2.445473 1_565
O3 P3 1.589425 1_555
O3 Sn2 2.125948 1_565
O3 Sn0 2.646048 1_565
O4 P4 1.567570 1_555
O4 Sn3 2.445473 1_565
O5 P5 1.601320 1_555
O5 Sn1 2.116689 1_455
O6 P3 1.514414 1_555
O6 Sn0 2.429118 1_555
O7 P4 1.537267 1_555
O8 P5 1.492188 1_555
O9 P1 1.570996 1_555
O9 Sn1 2.113932 1_555
O10 P1 1.514414 1_555
O10 Sn0 2.429118 1_666
O11 P0 1.557665 1_555
O11 Sn2 2.059154 1_665
O12 P5 1.557665 1_555
O12 Sn1 2.059154 1_445
O13 P3 1.570996 1_555
O13 Sn2 2.113932 1_555
O14 P0 1.492188 1_555
O15 P4 1.543860 1_555
O15 Sn3 2.413036 1_555
O16 P2 1.543860 1_555
O16 Sn3 2.413036 1_665
O17 P2 1.537267 1_555
O18 P3 1.589425 1_555
O18 Sn2 2.125948 1_655
O18 Sn0 2.646048 1_655
O19 P5 1.601320 1_555
O19 Sn1 2.116689 1_545
O20 P4 1.567570 1_555
O20 Sn3 2.445473 1_655
O21 P1 1.589425 1_555
O21 Sn1 2.125948 1_545
O21 Sn0 2.646048 1_656
O22 P2 1.567570 1_555
O22 Sn3 2.445473 1_655
O23 P0 1.601320 1_555
O23 Sn2 2.116689 1_655
