# generated using pymatgen
data_W2N5Cl6
_symmetry_space_group_name_H-M   'P 1'
_cell_length_a   8.09486700
_cell_length_b   8.29962224
_cell_length_c   10.31683297
_cell_angle_alpha   107.27004137
_cell_angle_beta   84.62393495
_cell_angle_gamma   112.26934585
_symmetry_Int_Tables_number   1
_chemical_formula_structural   W2N5Cl6
_chemical_formula_sum   'W4 N10 Cl12'
_cell_volume   612.37389169
_cell_formula_units_Z   2
loop_
 _symmetry_equiv_pos_site_id
 _symmetry_equiv_pos_as_xyz
  1  'x, y, z'
loop_
 _atom_site_type_symbol
 _atom_site_label
 _atom_site_symmetry_multiplicity
 _atom_site_fract_x
 _atom_site_fract_y
 _atom_site_fract_z
 _atom_site_occupancy
  W  W0  1  0.65266000  0.23410100  0.73779000  1
  W  W1  1  0.34734000  0.76589900  0.26221000  1
  W  W2  1  0.43122700  0.72249800  0.59754200  1
  W  W3  1  0.56877300  0.27750200  0.40245800  1
  N  N0  1  0.71343400  0.12181700  0.92092700  1
  N  N1  1  0.28656600  0.87818300  0.07907300  1
  N  N2  1  0.80784400  0.03598600  0.90200800  1
  N  N3  1  0.19215600  0.96401400  0.09799200  1
  N  N4  1  0.90000700  0.95074000  0.88205800  1
  N  N5  1  0.09999300  0.04926000  0.11794200  1
  N  N6  1  0.61003900  0.28966100  0.59551000  1
  N  N7  1  0.38996100  0.71033900  0.40449000  1
  N  N8  1  0.53833200  0.95707800  0.66246400  1
  N  N9  1  0.46166800  0.04292200  0.33753600  1
  Cl  Cl0  1  0.91472900  0.19110100  0.65799300  1
  Cl  Cl1  1  0.08527100  0.80889900  0.34200700  1
  Cl  Cl2  1  0.38427800  0.19926600  0.84877200  1
  Cl  Cl3  1  0.61572200  0.80073400  0.15122800  1
  Cl  Cl4  1  0.80445600  0.51479300  0.88522300  1
  Cl  Cl5  1  0.19554400  0.48520700  0.11477700  1
  Cl  Cl6  1  0.69815700  0.66521700  0.51440300  1
  Cl  Cl7  1  0.30184300  0.33478300  0.48559700  1
  Cl  Cl8  1  0.13905600  0.69479600  0.63365600  1
  Cl  Cl9  1  0.86094400  0.30520400  0.36634400  1
  Cl  Cl10  1  0.44514700  0.63665900  0.78922400  1
  Cl  Cl11  1  0.55485300  0.36334100  0.21077600  1
loop_
_geom_bond_atom_site_label_1
_geom_bond_atom_site_label_2
_geom_bond_distance
_geom_bond_site_symmetry_2
N0 N2 1.196551 1_555
N0 W0 2.499480 1_555
N1 N3 1.196551 1_555
N1 W1 2.499480 1_555
N2 N4 1.176580 1_545
N3 N5 1.176580 1_565
N6 W0 1.761737 1_555
N6 W3 2.017017 1_555
N7 W1 1.761737 1_555
N7 W2 2.017017 1_555
N8 W2 1.745283 1_555
N8 W0 2.051299 1_565
N9 W3 1.745283 1_555
N9 W1 2.051299 1_545
Cl0 W0 2.318970 1_555
Cl1 W1 2.318970 1_555
Cl2 W0 2.317062 1_555
Cl3 W1 2.317062 1_555
Cl4 W0 2.308098 1_555
Cl5 W1 2.308098 1_555
Cl6 W2 2.412423 1_555
Cl6 W3 2.872497 1_555
Cl7 W3 2.412423 1_555
Cl7 W2 2.872497 1_555
Cl8 W2 2.293232 1_555
Cl9 W3 2.293232 1_555
Cl10 W2 2.317343 1_555
Cl11 W3 2.317343 1_555
