# generated using pymatgen
data_Li3VSi2O7
_symmetry_space_group_name_H-M   'P 1'
_cell_length_a   5.02169100
_cell_length_b   8.98635000
_cell_length_c   12.54352200
_cell_angle_alpha   90.00000000
_cell_angle_beta   90.00000000
_cell_angle_gamma   90.00000000
_symmetry_Int_Tables_number   1
_chemical_formula_structural   Li3VSi2O7
_chemical_formula_sum   'Li12 V4 Si8 O28'
_cell_volume   566.04741453
_cell_formula_units_Z   4
loop_
 _symmetry_equiv_pos_site_id
 _symmetry_equiv_pos_as_xyz
  1  'x, y, z'
loop_
 _atom_site_type_symbol
 _atom_site_label
 _atom_site_symmetry_multiplicity
 _atom_site_fract_x
 _atom_site_fract_y
 _atom_site_fract_z
 _atom_site_occupancy
  Li  Li0  1  0.03364600  0.33805500  0.09017500  1
  Li  Li1  1  0.03364600  0.33805500  0.40982500  1
  Li  Li2  1  0.02800600  0.01804500  0.25000000  1
  Li  Li3  1  0.47199400  0.51804500  0.25000000  1
  Li  Li4  1  0.46635400  0.83805500  0.09017500  1
  Li  Li5  1  0.46635400  0.83805500  0.40982500  1
  Li  Li6  1  0.53364600  0.16194500  0.59017500  1
  Li  Li7  1  0.53364600  0.16194500  0.90982500  1
  Li  Li8  1  0.52800600  0.48195500  0.75000000  1
  Li  Li9  1  0.97199400  0.98195500  0.75000000  1
  Li  Li10  1  0.96635400  0.66194500  0.90982500  1
  Li  Li11  1  0.96635400  0.66194500  0.59017500  1
  V  V0  1  0.00000000  0.00000000  0.00000000  1
  V  V1  1  0.00000000  0.00000000  0.50000000  1
  V  V2  1  0.50000000  0.50000000  0.50000000  1
  V  V3  1  0.50000000  0.50000000  0.00000000  1
  Si  Si0  1  0.01123500  0.31715700  0.63137700  1
  Si  Si1  1  0.01123500  0.31715700  0.86862300  1
  Si  Si2  1  0.48876500  0.81715700  0.63137700  1
  Si  Si3  1  0.48876500  0.81715700  0.86862300  1
  Si  Si4  1  0.51123500  0.18284300  0.13137700  1
  Si  Si5  1  0.51123500  0.18284300  0.36862300  1
  Si  Si6  1  0.98876500  0.68284300  0.13137700  1
  Si  Si7  1  0.98876500  0.68284300  0.36862300  1
  O  O0  1  0.06361100  0.86102500  0.12833500  1
  O  O1  1  0.06361100  0.86102500  0.37166500  1
  O  O2  1  0.08883700  0.61521700  0.25000000  1
  O  O3  1  0.16422400  0.60124000  0.03937300  1
  O  O4  1  0.16422400  0.60124000  0.46062700  1
  O  O5  1  0.17309700  0.85228700  0.61658700  1
  O  O6  1  0.17309700  0.85228700  0.88341300  1
  O  O7  1  0.32690300  0.35228700  0.61658700  1
  O  O8  1  0.32690300  0.35228700  0.88341300  1
  O  O9  1  0.33577600  0.10124000  0.03937300  1
  O  O10  1  0.33577600  0.10124000  0.46062700  1
  O  O11  1  0.41116300  0.11521700  0.25000000  1
  O  O12  1  0.43638900  0.36102500  0.12833500  1
  O  O13  1  0.43638900  0.36102500  0.37166500  1
  O  O14  1  0.56361100  0.63897500  0.62833500  1
  O  O15  1  0.56361100  0.63897500  0.87166500  1
  O  O16  1  0.58883700  0.88478300  0.75000000  1
  O  O17  1  0.66422400  0.89876000  0.53937300  1
  O  O18  1  0.66422400  0.89876000  0.96062700  1
  O  O19  1  0.67309700  0.64771300  0.11658700  1
  O  O20  1  0.67309700  0.64771300  0.38341300  1
  O  O21  1  0.82690300  0.14771300  0.38341300  1
  O  O22  1  0.82690300  0.14771300  0.11658700  1
  O  O23  1  0.83577600  0.39876000  0.53937300  1
  O  O24  1  0.83577600  0.39876000  0.96062700  1
  O  O25  1  0.91116300  0.38478300  0.75000000  1
  O  O26  1  0.93638900  0.13897500  0.62833500  1
  O  O27  1  0.93638900  0.13897500  0.87166500  1
loop_
_geom_bond_atom_site_label_1
_geom_bond_atom_site_label_2
_geom_bond_distance
_geom_bond_site_symmetry_2
Li0 O24 1.981287 1_454
Li0 O22 2.028142 1_455
Li0 O12 2.088548 1_555
Li1 O23 1.981287 1_455
Li1 O21 2.028142 1_455
Li1 O13 2.088548 1_555
Li2 O1 2.086144 1_545
Li2 O0 2.086144 1_545
Li2 O11 2.112975 1_555
Li2 O21 2.275552 1_455
Li2 O22 2.275552 1_455
Li3 O13 2.086144 1_555
Li3 O12 2.086144 1_555
Li3 O2 2.112975 1_555
Li3 O19 2.275552 1_555
Li3 O20 2.275552 1_555
Li4 O18 1.981287 1_554
Li4 O19 2.028142 1_555
Li4 O0 2.088548 1_555
Li5 O17 1.981287 1_555
Li5 O20 2.028142 1_555
Li5 O1 2.088548 1_555
Li6 O10 1.981287 1_555
Li6 O7 2.028142 1_555
Li6 O26 2.088548 1_555
Li7 O9 1.981287 1_556
Li7 O8 2.028142 1_555
Li7 O27 2.088548 1_555
Li8 O15 2.086144 1_555
Li8 O14 2.086144 1_555
Li8 O25 2.112975 1_555
Li8 O8 2.275552 1_555
Li8 O7 2.275552 1_555
Li9 O27 2.086144 1_565
Li9 O26 2.086144 1_565
Li9 O16 2.112975 1_555
Li9 O6 2.275552 1_655
Li9 O5 2.275552 1_655
Li10 O3 1.981287 1_656
Li10 O6 2.028142 1_655
Li10 O15 2.088548 1_555
Li11 O4 1.981287 1_655
Li11 O5 2.028142 1_655
Li11 O14 2.088548 1_555
O0 Si6 1.645169 1_455
O0 V0 2.062305 1_565
O1 Si7 1.645169 1_455
O1 V1 2.062305 1_565
O2 Si7 1.683997 1_455
O2 Si6 1.683997 1_455
O3 Si6 1.626631 1_455
O3 V3 1.978574 1_555
O4 Si7 1.626631 1_455
O4 V2 1.978574 1_555
O5 Si2 1.626928 1_555
O5 V1 2.157827 1_565
O6 Si3 1.626928 1_555
O6 V0 2.157827 1_566
O7 Si0 1.626928 1_555
O7 V2 2.157827 1_555
O8 Si1 1.626928 1_555
O8 V3 2.157827 1_556
O9 Si4 1.626631 1_555
O9 V0 1.978574 1_555
O10 Si5 1.626631 1_555
O10 V1 1.978574 1_555
O11 Si5 1.683997 1_555
O11 Si4 1.683997 1_555
O12 Si4 1.645169 1_555
O12 V3 2.062305 1_555
O13 Si5 1.645169 1_555
O13 V2 2.062305 1_555
O14 Si2 1.645169 1_555
O14 V2 2.062305 1_555
O15 Si3 1.645169 1_555
O15 V3 2.062305 1_556
O16 Si3 1.683997 1_555
O16 Si2 1.683997 1_555
O17 Si2 1.626631 1_555
O17 V1 1.978574 1_665
O18 Si3 1.626631 1_555
O18 V0 1.978574 1_666
O19 Si6 1.626928 1_555
O19 V3 2.157827 1_555
O20 Si7 1.626928 1_555
O20 V2 2.157827 1_555
O21 Si5 1.626928 1_555
O21 V1 2.157827 1_655
O22 Si4 1.626928 1_555
O22 V0 2.157827 1_655
O23 Si0 1.626631 1_655
O23 V2 1.978574 1_555
O24 Si1 1.626631 1_655
O24 V3 1.978574 1_556
O25 Si1 1.683997 1_655
O25 Si0 1.683997 1_655
O26 Si0 1.645169 1_655
O26 V1 2.062305 1_655
O27 Si1 1.645169 1_655
O27 V0 2.062305 1_656
