# generated using pymatgen
data_Li6MnF8
_symmetry_space_group_name_H-M   'P 1'
_cell_length_a   5.95988769
_cell_length_b   5.95988769
_cell_length_c   5.95988769
_cell_angle_alpha   60.00000000
_cell_angle_beta   60.00000000
_cell_angle_gamma   60.00000000
_symmetry_Int_Tables_number   1
_chemical_formula_structural   Li6MnF8
_chemical_formula_sum   'Li6 Mn1 F8'
_cell_volume   149.69222009
_cell_formula_units_Z   1
loop_
 _symmetry_equiv_pos_site_id
 _symmetry_equiv_pos_as_xyz
  1  'x, y, z'
loop_
 _atom_site_type_symbol
 _atom_site_label
 _atom_site_symmetry_multiplicity
 _atom_site_fract_x
 _atom_site_fract_y
 _atom_site_fract_z
 _atom_site_occupancy
  Li  Li0  1  0.50000000  0.50000000  0.00000000  1
  Li  Li1  1  0.50000000  0.00000000  0.00000000  1
  Li  Li2  1  0.00000000  0.00000000  0.50000000  1
  Li  Li3  1  0.50000000  0.00000000  0.50000000  1
  Li  Li4  1  0.00000000  0.50000000  0.00000000  1
  Li  Li5  1  0.00000000  0.50000000  0.50000000  1
  Mn  Mn0  1  0.00000000  0.00000000  0.00000000  1
  F  F0  1  0.75333300  0.24666700  0.24666700  1
  F  F1  1  0.75333300  0.75333300  0.24666700  1
  F  F2  1  0.24666700  0.75333300  0.24666700  1
  F  F3  1  0.75333300  0.24666700  0.75333300  1
  F  F4  1  0.25000000  0.25000000  0.25000000  1
  F  F5  1  0.75000000  0.75000000  0.75000000  1
  F  F6  1  0.24666700  0.75333300  0.75333300  1
  F  F7  1  0.24666700  0.24666700  0.75333300  1
loop_
_geom_bond_atom_site_label_1
_geom_bond_atom_site_label_2
_geom_bond_distance
_geom_bond_site_symmetry_2
F0 Mn0 2.079046 1_655
F0 Li4 2.107326 1_655
F0 Li2 2.107326 1_655
F0 Li3 2.107326 1_555
F0 Li0 2.107326 1_555
F1 Mn0 2.079046 1_665
F1 Li4 2.107326 1_655
F1 Li5 2.107326 1_655
F1 Li3 2.107326 1_565
F1 Li1 2.107326 1_565
F2 Mn0 2.079046 1_565
F2 Li2 2.107326 1_565
F2 Li0 2.107326 1_555
F2 Li5 2.107326 1_555
F2 Li1 2.107326 1_565
F3 Mn0 2.079046 1_656
F3 Li5 2.107326 1_655
F3 Li0 2.107326 1_556
F3 Li2 2.107326 1_655
F3 Li1 2.107326 1_556
F4 Li2 2.107139 1_555
F4 Li3 2.107139 1_555
F4 Li0 2.107139 1_555
F4 Li1 2.107139 1_555
F4 Li5 2.107139 1_555
F4 Li4 2.107139 1_555
F5 Li0 2.107139 1_556
F5 Li2 2.107139 1_665
F5 Li3 2.107139 1_565
F5 Li1 2.107139 1_566
F5 Li4 2.107139 1_656
F5 Li5 2.107139 1_655
F6 Mn0 2.079046 1_566
F6 Li2 2.107326 1_565
F6 Li0 2.107326 1_556
F6 Li3 2.107326 1_565
F6 Li4 2.107326 1_556
F7 Mn0 2.079046 1_556
F7 Li5 2.107326 1_555
F7 Li3 2.107326 1_555
F7 Li1 2.107326 1_556
F7 Li4 2.107326 1_556
