# generated using pymatgen
data_Lu2GeO5
_symmetry_space_group_name_H-M   'P 1'
_cell_length_a   3.62709500
_cell_length_b   10.16068800
_cell_length_c   10.95593200
_cell_angle_alpha   90.00000000
_cell_angle_beta   90.00000000
_cell_angle_gamma   90.00000000
_symmetry_Int_Tables_number   1
_chemical_formula_structural   Lu2GeO5
_chemical_formula_sum   'Lu8 Ge4 O20'
_cell_volume   403.76751465
_cell_formula_units_Z   4
loop_
 _symmetry_equiv_pos_site_id
 _symmetry_equiv_pos_as_xyz
  1  'x, y, z'
loop_
 _atom_site_type_symbol
 _atom_site_label
 _atom_site_symmetry_multiplicity
 _atom_site_fract_x
 _atom_site_fract_y
 _atom_site_fract_z
 _atom_site_occupancy
  Lu  Lu0  1  0.25000000  0.11108200  0.77547800  1
  Lu  Lu1  1  0.25000000  0.13410400  0.43918400  1
  Lu  Lu2  1  0.75000000  0.36589600  0.93918400  1
  Lu  Lu3  1  0.75000000  0.38891800  0.27547800  1
  Lu  Lu4  1  0.25000000  0.61108200  0.72452200  1
  Lu  Lu5  1  0.25000000  0.63410400  0.06081600  1
  Lu  Lu6  1  0.75000000  0.86589600  0.56081600  1
  Lu  Lu7  1  0.75000000  0.88891800  0.22452200  1
  Ge  Ge0  1  0.25000000  0.17563700  0.11537400  1
  Ge  Ge1  1  0.75000000  0.32436300  0.61537400  1
  Ge  Ge2  1  0.25000000  0.67563700  0.38462600  1
  Ge  Ge3  1  0.75000000  0.82436300  0.88462600  1
  O  O0  1  0.25000000  0.99194000  0.60431700  1
  O  O1  1  0.25000000  0.00816300  0.15622300  1
  O  O2  1  0.75000000  0.23888100  0.11168500  1
  O  O3  1  0.75000000  0.24084300  0.76589000  1
  O  O4  1  0.25000000  0.22398800  0.95458300  1
  O  O5  1  0.75000000  0.27601200  0.45458300  1
  O  O6  1  0.25000000  0.25915700  0.26589000  1
  O  O7  1  0.25000000  0.26111900  0.61168500  1
  O  O8  1  0.75000000  0.49183700  0.65622300  1
  O  O9  1  0.75000000  0.50806000  0.10431700  1
  O  O10  1  0.25000000  0.49194000  0.89568300  1
  O  O11  1  0.25000000  0.50816300  0.34377700  1
  O  O12  1  0.75000000  0.73888100  0.38831500  1
  O  O13  1  0.75000000  0.74084300  0.73411000  1
  O  O14  1  0.25000000  0.72398800  0.54541700  1
  O  O15  1  0.75000000  0.77601200  0.04541700  1
  O  O16  1  0.25000000  0.75915700  0.23411000  1
  O  O17  1  0.25000000  0.76111900  0.88831500  1
  O  O18  1  0.75000000  0.99183700  0.84377700  1
  O  O19  1  0.75000000  0.00806000  0.39568300  1
loop_
_geom_bond_atom_site_label_1
_geom_bond_atom_site_label_2
_geom_bond_distance
_geom_bond_site_symmetry_2
Lu0 O0 2.232028 1_545
Lu0 O3 2.244622 1_455
Lu0 O3 2.244622 1_555
Lu0 O4 2.273004 1_555
Lu0 O18 2.305836 1_445
Lu0 O18 2.305836 1_545
Lu0 O7 2.354630 1_555
Lu1 O19 2.270743 1_455
Lu1 O19 2.270743 1_555
Lu1 O6 2.284548 1_555
Lu1 O7 2.288515 1_555
Lu1 O0 2.315100 1_545
Lu1 O5 2.323025 1_555
Lu1 O5 2.323025 1_455
Lu2 O10 2.270743 1_655
Lu2 O10 2.270743 1_555
Lu2 O3 2.284548 1_555
Lu2 O2 2.288515 1_556
Lu2 O9 2.315100 1_556
Lu2 O4 2.323025 1_555
Lu2 O4 2.323025 1_655
Lu3 O9 2.232028 1_555
Lu3 O6 2.244622 1_655
Lu3 O6 2.244622 1_555
Lu3 O5 2.273004 1_555
Lu3 O11 2.305836 1_655
Lu3 O11 2.305836 1_555
Lu3 O2 2.354630 1_555
Lu4 O10 2.232028 1_555
Lu4 O13 2.244622 1_555
Lu4 O13 2.244622 1_455
Lu4 O14 2.273004 1_555
Lu4 O8 2.305836 1_555
Lu4 O8 2.305836 1_455
Lu4 O17 2.354630 1_555
Lu5 O9 2.270743 1_555
Lu5 O9 2.270743 1_455
Lu5 O16 2.284548 1_555
Lu5 O17 2.288515 1_554
Lu5 O10 2.315100 1_554
Lu5 O15 2.323025 1_455
Lu5 O15 2.323025 1_555
Lu6 O0 2.270743 1_555
Lu6 O0 2.270743 1_655
Lu6 O13 2.284548 1_555
Lu6 O12 2.288515 1_555
Lu6 O19 2.315100 1_565
Lu6 O14 2.323025 1_655
Lu6 O14 2.323025 1_555
Lu7 O19 2.232028 1_565
Lu7 O16 2.244622 1_655
Lu7 O16 2.244622 1_555
Lu7 O15 2.273004 1_555
Lu7 O1 2.305836 1_565
Lu7 O1 2.305836 1_665
Lu7 O12 2.354630 1_555
Ge0 O1 1.759519 1_555
Ge0 O4 1.828837 1_554
Ge0 O6 1.854589 1_555
Ge0 O2 1.924455 1_455
Ge0 O2 1.924455 1_555
Ge1 O8 1.759519 1_555
Ge1 O5 1.828837 1_555
Ge1 O3 1.854589 1_555
Ge1 O7 1.924455 1_555
Ge1 O7 1.924455 1_655
Ge2 O11 1.759519 1_555
Ge2 O14 1.828837 1_555
Ge2 O16 1.854589 1_555
Ge2 O12 1.924455 1_555
Ge2 O12 1.924455 1_455
Ge3 O18 1.759519 1_555
Ge3 O15 1.828837 1_556
Ge3 O13 1.854589 1_555
Ge3 O17 1.924455 1_555
Ge3 O17 1.924455 1_655
