# generated using pymatgen
data_Li3Cr2(PO4)3
_symmetry_space_group_name_H-M   'P 1'
_cell_length_a   8.82375700
_cell_length_b   9.07739459
_cell_length_c   15.01481822
_cell_angle_alpha   81.58538424
_cell_angle_beta   72.97519860
_cell_angle_gamma   60.95819369
_symmetry_Int_Tables_number   1
_chemical_formula_structural   Li3Cr2(PO4)3
_chemical_formula_sum   'Li12 Cr8 P12 O48'
_cell_volume   1005.33683126
_cell_formula_units_Z   4
loop_
 _symmetry_equiv_pos_site_id
 _symmetry_equiv_pos_as_xyz
  1  'x, y, z'
loop_
 _atom_site_type_symbol
 _atom_site_label
 _atom_site_symmetry_multiplicity
 _atom_site_fract_x
 _atom_site_fract_y
 _atom_site_fract_z
 _atom_site_occupancy
  Li  Li0  1  0.09750800  0.42940600  0.65241400  1
  Li  Li1  1  0.19461500  0.71974600  0.05814600  1
  Li  Li2  1  0.60496700  0.74780300  0.74929300  1
  Li  Li3  1  0.47151500  0.77771100  0.44304900  1
  Li  Li4  1  0.67447100  0.07330600  0.84932100  1
  Li  Li5  1  0.99467000  0.00490700  0.50053400  1
  Li  Li6  1  0.32069700  0.92547700  0.15127000  1
  Li  Li7  1  0.53002100  0.21998200  0.55773200  1
  Li  Li8  1  0.40483100  0.24474200  0.24844100  1
  Li  Li9  1  0.80637600  0.28000800  0.94161000  1
  Li  Li10  1  0.90654800  0.57129700  0.34908100  1
  Li  Li11  1  0.00183600  0.49314600  0.00112100  1
  Cr  Cr0  1  0.24523700  0.54381400  0.47059600  1
  Cr  Cr1  1  0.64315500  0.51974200  0.16539000  1
  Cr  Cr2  1  0.82937400  0.98086600  0.33520500  1
  Cr  Cr3  1  0.76131700  0.95471400  0.03024700  1
  Cr  Cr4  1  0.24010400  0.04304300  0.96890100  1
  Cr  Cr5  1  0.16966300  0.02073400  0.66437600  1
  Cr  Cr6  1  0.35481900  0.47897100  0.83511400  1
  Cr  Cr7  1  0.75245200  0.45733400  0.53068900  1
  P  P0  1  0.33399400  0.64256300  0.62788200  1
  P  P1  1  0.25203300  0.71724600  0.31151500  1
  P  P2  1  0.62355000  0.71707400  0.97054900  1
  P  P3  1  0.81200500  0.78314600  0.52984800  1
  P  P4  1  0.78279800  0.78217900  0.19012300  1
  P  P5  1  0.10287800  0.85787400  0.87247100  1
  P  P6  1  0.89539200  0.14221700  0.12654900  1
  P  P7  1  0.21881300  0.21741900  0.80964800  1
  P  P8  1  0.18675800  0.21807900  0.47021200  1
  P  P9  1  0.37676300  0.28157400  0.02924300  1
  P  P10  1  0.74522000  0.28336500  0.68939000  1
  P  P11  1  0.66345700  0.35898500  0.37376600  1
  O  O0  1  0.19685900  0.20226500  0.71226300  1
  O  O1  1  0.06013500  0.22218500  0.89322300  1
  O  O2  1  0.87567300  0.32056700  0.12628000  1
  O  O3  1  0.49846000  0.35802500  0.44754000  1
  O  O4  1  0.17463100  0.36494000  0.52033300  1
  O  O5  1  0.60454000  0.41001200  0.28284600  1
  O  O6  1  0.27827800  0.51943700  0.60227600  1
  O  O7  1  0.20460200  0.56951600  0.33904400  1
  O  O8  1  0.64809000  0.55239000  0.03029700  1
  O  O9  1  0.77426700  0.61493800  0.19834600  1
  O  O10  1  0.63964500  0.69011200  0.87060600  1
  O  O11  1  0.38545600  0.70146000  0.21362000  1
  O  O12  1  0.00821000  0.74770700  0.51795500  1
  O  O13  1  0.32433600  0.72087400  0.39446300  1
  O  O14  1  0.77212100  0.75239900  0.98309200  1
  O  O15  1  0.17642800  0.82052900  0.62690200  1
  O  O16  1  0.69994100  0.81323200  0.62947400  1
  O  O17  1  0.19340400  0.85792900  0.94697600  1
  O  O18  1  0.08756200  0.88854300  0.30526900  1
  O  O19  1  0.43855900  0.86448500  0.01973600  1
  O  O20  1  0.19845300  0.91459200  0.78282000  1
  O  O21  1  0.73229800  0.94678300  0.46938200  1
  O  O22  1  0.89814900  0.97925300  0.89761200  1
  O  O23  1  0.61684900  0.93363600  0.16313000  1
  O  O24  1  0.38634300  0.06979600  0.83731900  1
  O  O25  1  0.09947700  0.01870900  0.10079000  1
  O  O26  1  0.26722900  0.05248600  0.52926300  1
  O  O27  1  0.79939000  0.08806900  0.21709700  1
  O  O28  1  0.56114500  0.13339100  0.98072100  1
  O  O29  1  0.91115500  0.11289100  0.69434600  1
  O  O30  1  0.80249000  0.14369900  0.05286200  1
  O  O31  1  0.29659300  0.19224800  0.37009300  1
  O  O32  1  0.82108500  0.18079600  0.37500700  1
  O  O33  1  0.22864200  0.24555100  0.01632700  1
  O  O34  1  0.67348400  0.28055300  0.60591400  1
  O  O35  1  0.98990600  0.25373900  0.48291000  1
  O  O36  1  0.61186200  0.29653300  0.78680200  1
  O  O37  1  0.35951900  0.31104700  0.12896000  1
  O  O38  1  0.22006600  0.38810800  0.80203300  1
  O  O39  1  0.35130000  0.44601400  0.96931300  1
  O  O40  1  0.79029300  0.43271900  0.66303400  1
  O  O41  1  0.71844200  0.48320300  0.39884200  1
  O  O42  1  0.39346100  0.58910300  0.71848700  1
  O  O43  1  0.82500500  0.63446100  0.48120200  1
  O  O44  1  0.49965700  0.64397200  0.55492900  1
  O  O45  1  0.12442200  0.67910400  0.87290900  1
  O  O46  1  0.94203800  0.77422100  0.10607200  1
  O  O47  1  0.80787300  0.79580200  0.28698100  1
loop_
_geom_bond_atom_site_label_1
_geom_bond_atom_site_label_2
_geom_bond_distance
_geom_bond_site_symmetry_2
Li0 O4 1.975159 1_555
Li0 O0 1.997843 1_555
Li0 O6 2.039923 1_555
Li1 O17 1.935035 1_554
Li1 O46 1.955606 1_455
Li1 O39 2.533654 1_554
Li1 O25 2.541922 1_565
Li2 O10 1.891383 1_555
Li2 O16 1.891912 1_555
Li3 O44 1.926683 1_555
Li3 O13 1.949453 1_555
Li3 O41 2.520306 1_555
Li3 O26 2.521824 1_565
Li4 O28 1.954502 1_555
Li4 O36 1.988081 1_555
Li4 O22 2.042273 1_545
Li4 O24 2.616439 1_555
Li5 O35 2.216556 1_555
Li5 O12 2.258826 1_645
Li6 O19 1.961333 1_555
Li6 O11 1.991472 1_555
Li6 O25 2.043456 1_565
Li7 O3 1.925976 1_555
Li7 O34 1.938189 1_555
Li7 O21 2.524757 1_545
Li7 O6 2.563258 1_555
Li8 O37 1.900226 1_555
Li8 O31 1.908193 1_555
Li9 O30 1.930086 1_556
Li9 O1 1.958290 1_655
Li9 O8 2.521705 1_556
Li9 O22 2.571697 1_545
Li10 O43 1.969350 1_555
Li10 O47 1.994276 1_555
Li10 O41 2.083327 1_555
Li10 O7 2.582051 1_655
Li11 O33 2.204306 1_555
Li11 O14 2.285521 1_454
Cr0 O4 1.984211 1_555
Cr0 O3 2.003964 1_555
Cr0 O12 2.015306 1_555
Cr0 O6 2.046937 1_555
Cr0 O7 2.069577 1_555
Cr0 O13 2.112182 1_555
Cr1 O5 1.918847 1_555
Cr1 O9 1.939325 1_555
Cr1 O2 1.956230 1_555
Cr1 O8 1.997246 1_555
Cr1 O11 2.039503 1_555
Cr2 O27 1.918728 1_565
Cr2 O18 1.936867 1_655
Cr2 O32 1.954255 1_565
Cr2 O21 1.988112 1_555
Cr2 O47 2.031799 1_555
Cr3 O28 1.984455 1_564
Cr3 O30 2.009483 1_565
Cr3 O14 2.013490 1_554
Cr3 O22 2.048584 1_554
Cr3 O23 2.068384 1_555
Cr3 O46 2.122257 1_555
Cr4 O19 1.985208 1_546
Cr4 O17 2.003836 1_545
Cr4 O33 2.014169 1_556
Cr4 O25 2.051648 1_556
Cr4 O24 2.073245 1_555
Cr4 O1 2.113274 1_555
Cr5 O20 1.918603 1_545
Cr5 O29 1.939537 1_455
Cr5 O15 1.948630 1_545
Cr5 O26 1.996725 1_555
Cr5 O0 2.030179 1_555
Cr6 O42 1.910787 1_555
Cr6 O38 1.938737 1_555
Cr6 O45 1.948265 1_555
Cr6 O39 1.986590 1_555
Cr6 O36 2.038222 1_555
Cr7 O43 1.979472 1_555
Cr7 O44 2.003577 1_555
Cr7 O35 2.017054 1_555
Cr7 O41 2.051257 1_555
Cr7 O40 2.072745 1_555
Cr7 O34 2.104911 1_555
O0 P7 1.563693 1_555
O1 P7 1.570088 1_555
O2 P6 1.541527 1_555
O3 P11 1.553014 1_555
O4 P8 1.569381 1_555
O5 P11 1.531392 1_555
O6 P0 1.551968 1_555
O7 P1 1.557459 1_555
O8 P2 1.579048 1_554
O9 P4 1.541502 1_555
O10 P2 1.510263 1_555
O11 P1 1.565766 1_555
O12 P3 1.558110 1_455
O13 P1 1.567462 1_555
O14 P2 1.557971 1_555
O15 P0 1.538610 1_555
O16 P3 1.510364 1_555
O17 P5 1.553479 1_555
O18 P1 1.542348 1_555
O19 P2 1.569422 1_554
O20 P5 1.530433 1_555
O21 P3 1.578048 1_555
O22 P5 1.552350 1_655
O23 P4 1.558352 1_555
O24 P7 1.557873 1_555
O25 P6 1.551865 1_455
O26 P8 1.578644 1_555
O27 P6 1.530313 1_555
O28 P9 1.566863 1_556
O29 P10 1.540864 1_555
O30 P6 1.553160 1_555
O31 P8 1.511116 1_555
O32 P11 1.540539 1_555
O33 P9 1.560340 1_555
O34 P10 1.569042 1_555
O35 P8 1.560916 1_655
O36 P10 1.563651 1_555
O37 P9 1.510213 1_555
O38 P7 1.542049 1_555
O39 P9 1.577329 1_556
O40 P10 1.557930 1_555
O41 P11 1.552724 1_555
O42 P0 1.529421 1_555
O43 P3 1.567615 1_555
O44 P0 1.553456 1_555
O45 P5 1.538717 1_555
O46 P4 1.569062 1_555
O47 P4 1.564247 1_555
