# generated using pymatgen
data_Na3LiMn5O9
_symmetry_space_group_name_H-M   'P 1'
_cell_length_a   5.34110400
_cell_length_b   5.35129362
_cell_length_c   8.47587347
_cell_angle_alpha   90.04093092
_cell_angle_beta   108.26112707
_cell_angle_gamma   118.91527715
_symmetry_Int_Tables_number   1
_chemical_formula_structural   Na3LiMn5O9
_chemical_formula_sum   'Na3 Li1 Mn5 O9'
_cell_volume   197.97037767
_cell_formula_units_Z   1
loop_
 _symmetry_equiv_pos_site_id
 _symmetry_equiv_pos_as_xyz
  1  'x, y, z'
loop_
 _atom_site_type_symbol
 _atom_site_label
 _atom_site_symmetry_multiplicity
 _atom_site_fract_x
 _atom_site_fract_y
 _atom_site_fract_z
 _atom_site_occupancy
  Na  Na0  1  0.29807100  0.15137800  0.47870200  1
  Na  Na1  1  0.64263200  0.82142000  0.48171200  1
  Na  Na2  1  0.96739300  0.47435400  0.47982200  1
  Li  Li0  1  0.77136100  0.05108400  0.16948000  1
  Mn  Mn0  1  0.44700100  0.39623500  0.15405300  1
  Mn  Mn1  1  0.10917300  0.73414400  0.15370300  1
  Mn  Mn2  1  0.19897800  0.93044100  0.81949400  1
  Mn  Mn3  1  0.52811200  0.60242600  0.82014300  1
  Mn  Mn4  1  0.86764500  0.26998900  0.82367900  1
  O  O0  1  0.67477400  0.39447000  0.99322800  1
  O  O1  1  0.32295800  0.67844600  0.96293000  1
  O  O2  1  0.83069000  0.73686300  0.28405900  1
  O  O3  1  0.49407200  0.07344100  0.28409300  1
  O  O4  1  0.19865700  0.44821400  0.26710800  1
  O  O5  1  0.43127300  0.87658300  0.69354700  1
  O  O6  1  0.74861700  0.55541300  0.68779100  1
  O  O7  1  0.10988200  0.19746700  0.68786700  1
  O  O8  1  0.04993400  0.01788000  0.99318100  1
loop_
_geom_bond_atom_site_label_1
_geom_bond_atom_site_label_2
_geom_bond_distance
_geom_bond_site_symmetry_2
Na0 O3 2.343938 1_555
Na0 O7 2.360085 1_555
Na0 O6 2.428323 1_555
Na0 O2 2.435734 1_445
Na0 O5 2.487609 1_545
Na0 O4 2.498897 1_555
Na1 O3 2.336486 1_565
Na1 O2 2.348019 1_555
Na1 O6 2.358142 1_555
Na1 O4 2.373237 1_555
Na1 O7 2.395105 1_665
Na1 O5 2.485369 1_555
Na2 O2 2.344264 1_555
Na2 O3 2.422332 1_555
Na2 O5 2.465309 1_655
Na2 O7 2.477350 1_655
Na2 O4 2.521559 1_655
Na2 O6 2.537841 1_555
Li0 O2 2.048342 1_545
Li0 O3 2.055310 1_555
Li0 O4 2.129172 1_655
Li0 O1 2.350794 1_544
Li0 O8 2.475260 1_654
Li0 O0 2.512393 1_554
Mn0 O2 1.925130 1_555
Mn0 O4 1.976861 1_555
Mn0 O0 2.094898 1_554
Mn0 O8 2.118427 1_554
Mn0 O3 2.123881 1_555
Mn0 O1 2.375345 1_554
Mn1 O3 1.925627 1_565
Mn1 O4 1.978617 1_555
Mn1 O8 2.110542 1_564
Mn1 O0 2.116049 1_454
Mn1 O2 2.117587 1_455
Mn1 O1 2.343663 1_554
Mn2 O7 1.959623 1_565
Mn2 O5 1.984291 1_555
Mn2 O1 2.023938 1_555
Mn2 O8 2.028185 1_565
Mn2 O6 2.169223 1_455
Mn2 O0 2.517893 1_565
Mn3 O6 1.955225 1_555
Mn3 O5 1.989846 1_555
Mn3 O1 2.022939 1_555
Mn3 O0 2.032084 1_555
Mn3 O7 2.165370 1_555
Mn3 O8 2.510626 1_665
Mn4 O6 2.132203 1_555
Mn4 O7 2.137273 1_655
Mn4 O5 2.172894 1_545
Mn4 O1 2.267577 1_655
Mn4 O0 2.271585 1_555
Mn4 O8 2.286583 1_655
