# generated using pymatgen
data_Li3Cu3(PO4)2
_symmetry_space_group_name_H-M   'P 1'
_cell_length_a   5.12094600
_cell_length_b   5.45820453
_cell_length_c   6.23484894
_cell_angle_alpha   88.14539838
_cell_angle_beta   89.26265194
_cell_angle_gamma   89.35903905
_symmetry_Int_Tables_number   1
_chemical_formula_structural   Li3Cu3(PO4)2
_chemical_formula_sum   'Li3 Cu3 P2 O8'
_cell_volume   174.15550180
_cell_formula_units_Z   1
loop_
 _symmetry_equiv_pos_site_id
 _symmetry_equiv_pos_as_xyz
  1  'x, y, z'
loop_
 _atom_site_type_symbol
 _atom_site_label
 _atom_site_symmetry_multiplicity
 _atom_site_fract_x
 _atom_site_fract_y
 _atom_site_fract_z
 _atom_site_occupancy
  Li  Li0  1  0.50038200  0.15655400  0.00234100  1
  Li  Li1  1  0.99583500  0.33202500  0.24965800  1
  Li  Li2  1  0.49963600  0.67512100  0.25343500  1
  Cu  Cu0  1  0.01102600  0.76424100  0.51528600  1
  Cu  Cu1  1  0.54495400  0.65251600  0.72254200  1
  Cu  Cu2  1  0.98666300  0.34978900  0.72986600  1
  P  P0  1  0.00278600  0.84144100  0.01316700  1
  P  P1  1  0.49605000  0.17946200  0.49063500  1
  O  O0  1  0.10619500  0.10825300  0.01418200  1
  O  O1  1  0.69951200  0.83583800  0.00815300  1
  O  O2  1  0.10546900  0.68944500  0.21399200  1
  O  O3  1  0.60669800  0.32303400  0.28983700  1
  O  O4  1  0.19354600  0.18689900  0.48969400  1
  O  O5  1  0.59559500  0.90909000  0.48341600  1
  O  O6  1  0.58964300  0.28937400  0.70841100  1
  O  O7  1  0.12341700  0.70691700  0.81538600  1
loop_
_geom_bond_atom_site_label_1
_geom_bond_atom_site_label_2
_geom_bond_distance
_geom_bond_site_symmetry_2
Li0 O6 1.998205 1_554
Li0 O1 2.015551 1_545
Li0 O0 2.038763 1_555
Li0 O3 2.115837 1_555
Li1 O4 1.958738 1_655
Li1 O3 2.006180 1_555
Li1 O0 2.011454 1_655
Li1 O2 2.040530 1_655
Li2 O3 1.999167 1_555
Li2 O1 2.012189 1_555
Li2 O5 2.019676 1_555
Li2 O2 2.036901 1_555
Cu0 O7 1.978859 1_555
Cu0 O2 1.987778 1_555
Cu0 O5 2.270125 1_455
Cu0 O4 2.498338 1_565
Cu1 O6 1.997374 1_555
Cu1 O5 2.028379 1_555
Cu1 O1 2.228908 1_556
Cu1 O7 2.246715 1_555
Cu2 O4 2.044374 1_655
Cu2 O6 2.070038 1_555
Cu2 O7 2.163758 1_655
Cu2 O0 2.261349 1_656
O0 P0 1.555395 1_545
O1 P0 1.554429 1_655
O2 P0 1.572424 1_555
O3 P1 1.559071 1_555
O4 P1 1.549266 1_555
O5 P1 1.557751 1_565
O6 P1 1.584030 1_555
O7 P0 1.571693 1_556
