# generated using pymatgen
data_Li3Mn2CuO6
_symmetry_space_group_name_H-M   'P 1'
_cell_length_a   2.82037114
_cell_length_b   7.49402176
_cell_length_c   11.44923493
_cell_angle_alpha   79.76654395
_cell_angle_beta   90.00053823
_cell_angle_gamma   79.15477247
_symmetry_Int_Tables_number   1
_chemical_formula_structural   Li3Mn2CuO6
_chemical_formula_sum   'Li6 Mn4 Cu2 O12'
_cell_volume   233.74714645
_cell_formula_units_Z   2
loop_
 _symmetry_equiv_pos_site_id
 _symmetry_equiv_pos_as_xyz
  1  'x, y, z'
loop_
 _atom_site_type_symbol
 _atom_site_label
 _atom_site_symmetry_multiplicity
 _atom_site_fract_x
 _atom_site_fract_y
 _atom_site_fract_z
 _atom_site_occupancy
  Li  Li0  1  0.33346200  0.33312000  0.08337700  1
  Li  Li1  1  0.33324400  0.33353500  0.58330000  1
  Li  Li2  1  0.01034900  0.97906800  0.25506300  1
  Li  Li3  1  0.01033700  0.97909200  0.75506200  1
  Li  Li4  1  0.65637500  0.68755400  0.41164800  1
  Li  Li5  1  0.65637900  0.68755300  0.91165100  1
  Mn  Mn0  1  0.00008900  0.99970800  0.49970900  1
  Mn  Mn1  1  0.66656400  0.66699900  0.16702300  1
  Mn  Mn2  1  0.00011100  0.99966700  0.99961600  1
  Mn  Mn3  1  0.66655900  0.66701500  0.66707700  1
  Cu  Cu0  1  0.33324700  0.33336100  0.33317000  1
  Cu  Cu1  1  0.33332700  0.33335000  0.83333400  1
  O  O0  1  0.51224400  0.97554500  0.88827800  1
  O  O1  1  0.51224300  0.97554700  0.38830100  1
  O  O2  1  0.15447100  0.69108000  0.27840900  1
  O  O3  1  0.15446400  0.69110500  0.77843600  1
  O  O4  1  0.17241200  0.65542400  0.05163000  1
  O  O5  1  0.17246800  0.65532200  0.55167100  1
  O  O6  1  0.49425600  0.01123000  0.61507000  1
  O  O7  1  0.49421200  0.01131600  0.11503700  1
  O  O8  1  0.82255800  0.35474500  0.22116600  1
  O  O9  1  0.82259300  0.35480900  0.72140900  1
  O  O10  1  0.84396800  0.31196300  0.44529500  1
  O  O11  1  0.84406700  0.31189200  0.94526600  1
loop_
_geom_bond_atom_site_label_1
_geom_bond_atom_site_label_2
_geom_bond_distance
_geom_bond_site_symmetry_2
Li0 O8 2.143076 1_555
Li0 O8 2.143439 1_455
Li0 O11 2.145413 1_554
Li0 O11 2.145423 1_454
Li0 O7 2.330393 1_555
Li0 O4 2.334001 1_555
Li1 O10 2.144927 1_555
Li1 O10 2.145134 1_455
Li1 O9 2.145433 1_555
Li1 O9 2.145508 1_455
Li1 O5 2.330279 1_555
Li1 O6 2.334001 1_555
Li2 O1 2.073894 1_455
Li2 O1 2.074388 1_555
Li2 O2 2.087905 1_555
Li2 O7 2.115996 1_565
Li2 O7 2.116031 1_465
Li3 O0 2.073687 1_455
Li3 O0 2.074180 1_555
Li3 O3 2.087880 1_555
Li3 O6 2.115731 1_565
Li3 O6 2.115762 1_465
Li4 O2 2.073884 1_655
Li4 O2 2.074406 1_555
Li4 O1 2.087941 1_555
Li4 O5 2.115941 1_655
Li4 O5 2.116041 1_555
Li5 O3 2.073663 1_655
Li5 O3 2.074178 1_555
Li5 O0 2.087917 1_555
Li5 O4 2.115572 1_656
Li5 O4 2.115705 1_556
Mn0 O1 1.930978 1_455
Mn0 O1 1.931303 1_555
Mn0 O6 1.944280 1_565
Mn0 O6 1.944595 1_465
Mn0 O10 2.269819 1_465
Mn0 O5 2.496654 1_555
Mn1 O2 1.930726 1_655
Mn1 O2 1.930964 1_555
Mn1 O4 1.944621 1_555
Mn1 O4 1.944888 1_655
Mn1 O8 2.269530 1_555
Mn1 O7 2.496175 1_565
Mn2 O0 1.930377 1_455
Mn2 O0 1.930696 1_555
Mn2 O7 1.944903 1_566
Mn2 O7 1.945228 1_466
Mn2 O11 2.269539 1_465
Mn2 O4 2.495663 1_556
Mn3 O3 1.930536 1_655
Mn3 O3 1.930764 1_555
Mn3 O5 1.944864 1_555
Mn3 O5 1.945140 1_655
Mn3 O9 2.269386 1_555
Mn3 O6 2.495458 1_565
Cu0 O8 1.893350 1_455
Cu0 O8 1.893376 1_555
Cu0 O10 1.894237 1_455
Cu0 O10 1.894316 1_555
Cu1 O9 1.892740 1_555
Cu1 O9 1.892745 1_455
Cu1 O11 1.892779 1_455
Cu1 O11 1.892812 1_555
