# generated using pymatgen
data_LiV2F5
_symmetry_space_group_name_H-M   'P 1'
_cell_length_a   5.37234992
_cell_length_b   5.37234992
_cell_length_c   10.13317155
_cell_angle_alpha   90.00000000
_cell_angle_beta   90.00000000
_cell_angle_gamma   135.15447064
_symmetry_Int_Tables_number   1
_chemical_formula_structural   LiV2F5
_chemical_formula_sum   'Li2 V4 F10'
_cell_volume   206.24572335
_cell_formula_units_Z   2
loop_
 _symmetry_equiv_pos_site_id
 _symmetry_equiv_pos_as_xyz
  1  'x, y, z'
loop_
 _atom_site_type_symbol
 _atom_site_label
 _atom_site_symmetry_multiplicity
 _atom_site_fract_x
 _atom_site_fract_y
 _atom_site_fract_z
 _atom_site_occupancy
  Li  Li0  1  0.81995120  0.18004880  0.25000000  1
  Li  Li1  1  0.18004880  0.81995120  0.75000000  1
  V  V0  1  0.85575130  0.14424870  0.56446027  1
  V  V1  1  0.85575130  0.14424870  0.93553973  1
  V  V2  1  0.14424870  0.85575130  0.06446027  1
  V  V3  1  0.14424870  0.85575130  0.43553973  1
  F  F0  1  0.67657804  0.32342196  0.05506844  1
  F  F1  1  0.67657804  0.32342196  0.44493156  1
  F  F2  1  0.94519780  0.05480220  0.11832766  1
  F  F3  1  0.94519780  0.05480220  0.38167234  1
  F  F4  1  0.76153909  0.23846091  0.75000000  1
  F  F5  1  0.23846091  0.76153909  0.25000000  1
  F  F6  1  0.05480220  0.94519780  0.88167234  1
  F  F7  1  0.05480220  0.94519780  0.61832766  1
  F  F8  1  0.32342196  0.67657804  0.94493156  1
  F  F9  1  0.32342196  0.67657804  0.55506844  1
loop_
_geom_bond_atom_site_label_1
_geom_bond_atom_site_label_2
_geom_bond_distance
_geom_bond_site_symmetry_2
F0 V2 2.076404 1_655
F0 V2 2.076404 1_545
F0 V1 2.152680 1_554
F0 Li0 2.435072 1_555
F1 V3 2.076404 1_655
F1 V3 2.076404 1_545
F1 V0 2.152680 1_555
F1 Li0 2.435072 1_555
F2 Li0 1.824215 1_555
F2 V2 2.051010 1_645
F2 V1 2.054264 1_554
F3 Li0 1.824215 1_555
F3 V3 2.051010 1_645
F3 V0 2.054264 1_555
F4 V0 2.100101 1_555
F4 V1 2.100101 1_555
F4 Li1 2.203270 1_545
F4 Li1 2.203270 1_655
F5 V2 2.100101 1_555
F5 V3 2.100101 1_555
F5 Li0 2.203270 1_455
F5 Li0 2.203270 1_565
F6 Li1 1.824215 1_555
F6 V1 2.051010 1_465
F6 V2 2.054264 1_556
F7 Li1 1.824215 1_555
F7 V0 2.051010 1_465
F7 V3 2.054264 1_555
F8 V1 2.076404 1_455
F8 V1 2.076404 1_565
F8 V2 2.152680 1_556
F8 Li1 2.435072 1_555
F9 V0 2.076404 1_565
F9 V0 2.076404 1_455
F9 V3 2.152680 1_555
F9 Li1 2.435072 1_555
