# generated using pymatgen
data_Li4MnCr2Fe3(PO4)6
_symmetry_space_group_name_H-M   'P 1'
_cell_length_a   8.37551400
_cell_length_b   8.56800006
_cell_length_c   8.70176865
_cell_angle_alpha   62.79519033
_cell_angle_beta   63.59354905
_cell_angle_gamma   63.90201676
_symmetry_Int_Tables_number   1
_chemical_formula_structural   Li4MnCr2Fe3(PO4)6
_chemical_formula_sum   'Li4 Mn1 Cr2 Fe3 P6 O24'
_cell_volume   474.98096247
_cell_formula_units_Z   1
loop_
 _symmetry_equiv_pos_site_id
 _symmetry_equiv_pos_as_xyz
  1  'x, y, z'
loop_
 _atom_site_type_symbol
 _atom_site_label
 _atom_site_symmetry_multiplicity
 _atom_site_fract_x
 _atom_site_fract_y
 _atom_site_fract_z
 _atom_site_occupancy
  Li  Li0  1  0.25087800  0.64089500  0.85834800  1
  Li  Li1  1  0.74683000  0.34214400  0.16032000  1
  Li  Li2  1  0.35142900  0.15610800  0.74924200  1
  Li  Li3  1  0.14956300  0.74977100  0.34420700  1
  Mn  Mn0  1  0.15258100  0.15716100  0.16072300  1
  Cr  Cr0  1  0.99619900  0.00536000  0.00013100  1
  Cr  Cr1  1  0.50314300  0.50167000  0.49406700  1
  Fe  Fe0  1  0.85230300  0.85760700  0.85159500  1
  Fe  Fe1  1  0.64890900  0.64639200  0.64394300  1
  Fe  Fe2  1  0.34897800  0.34245600  0.34400900  1
  P  P0  1  0.74940500  0.04486100  0.45873000  1
  P  P1  1  0.44414600  0.74735400  0.03818400  1
  P  P2  1  0.05475600  0.46053100  0.75156100  1
  P  P3  1  0.93336900  0.56015100  0.25193800  1
  P  P4  1  0.56792700  0.24739600  0.94246900  1
  P  P5  1  0.25066400  0.93753800  0.55918000  1
  O  O0  1  0.89406300  0.52421800  0.67630300  1
  O  O1  1  0.67287800  0.89038000  0.50397500  1
  O  O2  1  0.92957700  0.74615500  0.08874100  1
  O  O3  1  0.46567200  0.67925700  0.89148300  1
  O  O4  1  0.95423000  0.40679100  0.19235600  1
  O  O5  1  0.74201600  0.58198700  0.40677000  1
  O  O6  1  0.76064000  0.09225200  0.92000200  1
  O  O7  1  0.57615900  0.41073900  0.75991200  1
  O  O8  1  0.82117400  0.00170800  0.61243600  1
  O  O9  1  0.40213300  0.74222800  0.58811600  1
  O  O10  1  0.89955900  0.06386200  0.26806000  1
  O  O11  1  0.60801300  0.81930800  0.97866800  1
  O  O12  1  0.40899700  0.18293600  0.97092600  1
  O  O13  1  0.10022000  0.91029000  0.75223600  1
  O  O14  1  0.59795700  0.23877000  0.43760200  1
  O  O15  1  0.19035500  0.96035500  0.40623100  1
  O  O16  1  0.43364000  0.59745200  0.22884500  1
  O  O17  1  0.24852900  0.89928500  0.06472300  1
  O  O18  1  0.25040100  0.43651800  0.60078200  1
  O  O19  1  0.03189900  0.60481000  0.82495500  1
  O  O20  1  0.54130200  0.30331600  0.09941200  1
  O  O21  1  0.06425900  0.26507600  0.89765200  1
  O  O22  1  0.31018600  0.09711600  0.52947200  1
  O  O23  1  0.09505800  0.52479500  0.31469700  1
loop_
_geom_bond_atom_site_label_1
_geom_bond_atom_site_label_2
_geom_bond_distance
_geom_bond_site_symmetry_2
Li0 O13 2.073074 1_555
Li0 O9 2.083141 1_555
Li0 O3 2.120350 1_555
Li0 O19 2.144501 1_555
Li0 O7 2.605134 1_555
Li0 O2 2.606459 1_456
Li1 O14 2.121940 1_555
Li1 O10 2.130646 1_555
Li1 O4 2.195540 1_555
Li1 O20 2.198042 1_555
Li1 O16 2.602767 1_555
Li2 O18 2.122011 1_555
Li2 O21 2.165264 1_555
Li2 O12 2.310146 1_555
Li2 O22 2.378451 1_555
Li2 O14 2.582441 1_555
Li3 O17 2.129624 1_555
Li3 O16 2.171041 1_555
Li3 O15 2.293519 1_555
Li3 O23 2.306734 1_555
Li3 O10 2.590680 1_465
Mn0 O12 2.077882 1_554
Mn0 O15 2.084580 1_545
Mn0 O4 2.101342 1_455
Mn0 O10 2.247119 1_455
Mn0 O21 2.368890 1_554
Mn0 O17 2.398707 1_545
Cr0 O6 2.095126 1_554
Cr0 O17 2.123191 1_645
Cr0 O21 2.218416 1_654
Cr0 O2 2.231591 1_545
Cr0 O10 2.318433 1_555
Cr0 O13 2.320847 1_644
Cr1 O5 2.105913 1_555
Cr1 O18 2.114754 1_555
Cr1 O9 2.241865 1_555
Cr1 O14 2.244336 1_555
Cr1 O16 2.319841 1_555
Cr1 O7 2.350247 1_555
Fe0 O11 1.939918 1_555
Fe0 O8 1.942523 1_565
Fe0 O13 2.033172 1_655
Fe0 O19 2.071287 1_655
Fe0 O6 2.077350 1_565
Fe0 O2 2.105132 1_556
Fe1 O1 1.928103 1_555
Fe1 O0 1.935144 1_555
Fe1 O7 2.034396 1_555
Fe1 O9 2.053630 1_555
Fe1 O3 2.075677 1_555
Fe1 O5 2.098376 1_555
Fe2 O22 2.039960 1_555
Fe2 O23 2.055144 1_555
Fe2 O20 2.089304 1_555
Fe2 O16 2.238190 1_555
Fe2 O14 2.240594 1_555
Fe2 O18 2.396628 1_555
O0 P2 1.532684 1_655
O1 P0 1.537268 1_565
O2 P3 1.575998 1_555
O3 P1 1.544759 1_556
O4 P3 1.538261 1_555
O5 P3 1.569987 1_555
O6 P4 1.574698 1_555
O7 P4 1.562574 1_555
O8 P0 1.534401 1_555
O9 P5 1.582469 1_555
O10 P0 1.561450 1_555
O11 P1 1.533700 1_556
O12 P4 1.538442 1_555
O13 P5 1.575363 1_555
O14 P0 1.573870 1_555
O15 P5 1.529025 1_555
O16 P1 1.559208 1_555
O17 P1 1.579267 1_555
O18 P2 1.576950 1_555
O19 P2 1.541944 1_555
O20 P4 1.542002 1_554
O21 P2 1.566225 1_555
O22 P5 1.531880 1_545
O23 P3 1.539340 1_455
