# generated using pymatgen
data_Mg2Te3O8
_symmetry_space_group_name_H-M   'P 1'
_cell_length_a   6.81827072
_cell_length_b   6.81827072
_cell_length_c   11.58384128
_cell_angle_alpha   82.21593110
_cell_angle_beta   82.21593110
_cell_angle_gamma   45.00609778
_symmetry_Int_Tables_number   1
_chemical_formula_structural   Mg2Te3O8
_chemical_formula_sum   'Mg4 Te6 O16'
_cell_volume   376.71630757
_cell_formula_units_Z   2
loop_
 _symmetry_equiv_pos_site_id
 _symmetry_equiv_pos_as_xyz
  1  'x, y, z'
loop_
 _atom_site_type_symbol
 _atom_site_label
 _atom_site_symmetry_multiplicity
 _atom_site_fract_x
 _atom_site_fract_y
 _atom_site_fract_z
 _atom_site_occupancy
  Mg  Mg0  1  0.57559067  0.96016078  0.85250792  1
  Mg  Mg1  1  0.03983922  0.42440933  0.64749208  1
  Mg  Mg2  1  0.42440933  0.03983922  0.14749208  1
  Mg  Mg3  1  0.96016078  0.57559067  0.35250792  1
  Te  Te0  1  0.16142116  0.83857884  0.75000000  1
  Te  Te1  1  0.83857884  0.16142116  0.25000000  1
  Te  Te2  1  0.94633460  0.32556494  0.94383736  1
  Te  Te3  1  0.67443506  0.05366540  0.55616264  1
  Te  Te4  1  0.05366540  0.67443506  0.05616264  1
  Te  Te5  1  0.32556494  0.94633460  0.44383736  1
  O  O0  1  0.25365281  0.27268554  0.97327599  1
  O  O1  1  0.72731446  0.74634719  0.52672401  1
  O  O2  1  0.74634719  0.72731446  0.02672401  1
  O  O3  1  0.27268554  0.25365281  0.47327599  1
  O  O4  1  0.24694914  0.98180415  0.86388971  1
  O  O5  1  0.01819585  0.75305086  0.63611029  1
  O  O6  1  0.75305086  0.01819585  0.13611029  1
  O  O7  1  0.98180415  0.24694914  0.36388971  1
  O  O8  1  0.01546078  0.14518392  0.64691779  1
  O  O9  1  0.85481608  0.98453922  0.85308221  1
  O  O10  1  0.98453922  0.85481608  0.35308221  1
  O  O11  1  0.14518392  0.01546078  0.14691779  1
  O  O12  1  0.84394992  0.55520607  0.80751712  1
  O  O13  1  0.44479393  0.15605008  0.69248288  1
  O  O14  1  0.15605008  0.44479393  0.19248288  1
  O  O15  1  0.55520607  0.84394992  0.30751712  1
loop_
_geom_bond_atom_site_label_1
_geom_bond_atom_site_label_2
_geom_bond_distance
_geom_bond_site_symmetry_2
Mg0 O9 2.025703 1_555
Mg0 O13 2.026885 1_565
Mg0 O12 2.056868 1_555
Mg0 O4 2.125524 1_555
Mg0 O0 2.162764 1_565
Mg0 O2 2.259100 1_556
Mg1 O8 2.025703 1_555
Mg1 O12 2.026885 1_455
Mg1 O13 2.056868 1_555
Mg1 O5 2.125524 1_555
Mg1 O1 2.162764 1_455
Mg1 O3 2.259100 1_555
Mg2 O11 2.025703 1_555
Mg2 O15 2.026885 1_545
Mg2 O14 2.056868 1_555
Mg2 O6 2.125524 1_555
Mg2 O2 2.162764 1_545
Mg2 O0 2.259100 1_554
Mg3 O10 2.025703 1_555
Mg3 O14 2.026885 1_655
Mg3 O15 2.056868 1_555
Mg3 O7 2.125524 1_555
Mg3 O3 2.162764 1_655
Mg3 O1 2.259100 1_555
O0 Te2 1.931023 1_455
O0 Te4 2.315316 1_556
O1 Te3 1.931023 1_565
O1 Te5 2.315316 1_555
O2 Te4 1.931023 1_655
O2 Te2 2.315316 1_554
O3 Te5 1.931023 1_545
O3 Te3 2.315316 1_555
O4 Te2 1.957785 1_465
O4 Te0 2.096873 1_555
O5 Te3 1.957785 1_465
O5 Te0 2.096873 1_555
O6 Te4 1.957785 1_645
O6 Te1 2.096873 1_555
O7 Te5 1.957785 1_645
O7 Te1 2.096873 1_555
O8 Te0 1.868238 1_545
O8 Te5 2.702918 1_545
O9 Te0 1.868238 1_655
O9 Te4 2.702918 1_656
O10 Te1 1.868238 1_565
O10 Te3 2.702918 1_565
O11 Te1 1.868238 1_455
O11 Te2 2.702918 1_454
O12 Te2 1.875032 1_555
O13 Te3 1.875032 1_555
O14 Te4 1.875032 1_555
O15 Te5 1.875032 1_555
