# generated using pymatgen
data_Li7V(O2F)2
_symmetry_space_group_name_H-M   'P 1'
_cell_length_a   5.41997309
_cell_length_b   5.95187325
_cell_length_c   18.58029394
_cell_angle_alpha   92.21913416
_cell_angle_beta   95.75254374
_cell_angle_gamma   63.00024784
_symmetry_Int_Tables_number   1
_chemical_formula_structural   Li7V(O2F)2
_chemical_formula_sum   'Li28 V4 O16 F8'
_cell_volume   531.34905429
_cell_formula_units_Z   4
loop_
 _symmetry_equiv_pos_site_id
 _symmetry_equiv_pos_as_xyz
  1  'x, y, z'
loop_
 _atom_site_type_symbol
 _atom_site_label
 _atom_site_symmetry_multiplicity
 _atom_site_fract_x
 _atom_site_fract_y
 _atom_site_fract_z
 _atom_site_occupancy
  Li  Li0  1  0.52253700  0.99330500  0.37600200  1
  Li  Li1  1  0.02281800  0.49328300  0.87599800  1
  Li  Li2  1  0.20508200  0.34156800  0.03305300  1
  Li  Li3  1  0.70543500  0.84145300  0.53308500  1
  Li  Li4  1  0.62227800  0.95277800  0.09482000  1
  Li  Li5  1  0.12277500  0.45280700  0.59491400  1
  Li  Li6  1  0.12245500  0.78151600  0.15557100  1
  Li  Li7  1  0.62292900  0.28156000  0.65565700  1
  Li  Li8  1  0.54599500  0.37667400  0.22335600  1
  Li  Li9  1  0.04637000  0.87655400  0.72343400  1
  Li  Li10  1  0.74676500  0.25345100  0.37393900  1
  Li  Li11  1  0.24679300  0.75349900  0.87395800  1
  Li  Li12  1  0.42322900  0.59038800  0.05380600  1
  Li  Li13  1  0.92350100  0.09026600  0.55381300  1
  Li  Li14  1  0.06992900  0.91040400  0.44177500  1
  Li  Li15  1  0.56982500  0.41055200  0.94175500  1
  Li  Li16  1  0.81112800  0.25293300  0.12388400  1
  Li  Li17  1  0.31164600  0.75275300  0.62394600  1
  Li  Li18  1  0.97292900  0.06609500  0.27259100  1
  Li  Li19  1  0.47307700  0.56603500  0.77267500  1
  Li  Li20  1  0.32686000  0.70597000  0.33501300  1
  Li  Li21  1  0.82703600  0.20605300  0.83506100  1
  Li  Li22  1  0.86889900  0.58330100  0.41030300  1
  Li  Li23  1  0.36898700  0.08343900  0.91036600  1
  Li  Li24  1  0.28070400  0.16607900  0.48007500  1
  Li  Li25  1  0.78052300  0.66619000  0.98002900  1
  Li  Li26  1  0.16155800  0.33209800  0.29985700  1
  Li  Li27  1  0.66190200  0.83207400  0.79991800  1
  V  V0  1  0.00172300  0.99955100  0.99934300  1
  V  V1  1  0.21394600  0.28849700  0.75595100  1
  V  V2  1  0.50195400  0.49930200  0.49936900  1
  V  V3  1  0.71373800  0.78866500  0.25594700  1
  O  O0  1  0.47655500  0.79914200  0.44439100  1
  O  O1  1  0.97645400  0.29916800  0.94437600  1
  O  O2  1  0.34717100  0.98205900  0.28330400  1
  O  O3  1  0.84751800  0.48190700  0.78327300  1
  O  O4  1  0.76148700  0.02750000  0.19052500  1
  O  O5  1  0.26182500  0.52735500  0.69051800  1
  O  O6  1  0.88864200  0.89099400  0.34872200  1
  O  O7  1  0.38860000  0.39103200  0.84869500  1
  O  O8  1  0.60974600  0.22668800  0.02953100  1
  O  O9  1  0.11007300  0.72664100  0.52956600  1
  O  O10  1  0.89304600  0.28409400  0.46956200  1
  O  O11  1  0.39286500  0.78429200  0.96962200  1
  O  O12  1  0.76819100  0.45780500  0.30184500  1
  O  O13  1  0.26834100  0.95780400  0.80188300  1
  O  O14  1  0.02188600  0.70865500  0.05471900  1
  O  O15  1  0.52209400  0.20861600  0.55474300  1
  F  F0  1  0.17381400  0.10434000  0.09337600  1
  F  F1  1  0.67436400  0.60416600  0.59338200  1
  F  F2  1  0.56857500  0.60384800  0.15213000  1
  F  F3  1  0.06889400  0.10374200  0.65216400  1
  F  F4  1  0.17250100  0.55746400  0.23741800  1
  F  F5  1  0.67289300  0.05737300  0.73744000  1
  F  F6  1  0.35296700  0.35906800  0.39845200  1
  F  F7  1  0.85294100  0.85906000  0.89847400  1
loop_
_geom_bond_atom_site_label_1
_geom_bond_atom_site_label_2
_geom_bond_distance
_geom_bond_site_symmetry_2
Li0 O0 1.857675 1_555
Li0 O2 1.896066 1_555
Li0 O6 1.909371 1_555
Li1 O1 1.858330 1_455
Li1 O3 1.896519 1_455
Li1 O7 1.907969 1_555
Li2 O8 1.986426 1_555
Li2 O14 1.990931 1_555
Li2 O1 2.038720 1_454
Li3 O9 1.986349 1_655
Li3 O15 1.991307 1_565
Li3 O0 2.039555 1_555
Li4 O4 1.975762 1_565
Li4 O8 2.042082 1_565
Li4 O14 2.177061 1_655
Li5 O5 1.973445 1_555
Li5 O9 2.042041 1_555
Li5 O15 2.176547 1_555
Li6 O14 1.985816 1_555
Li6 O4 1.993301 1_465
Li7 O15 1.987415 1_555
Li7 O5 1.992809 1_555
Li8 O4 1.973840 1_555
Li8 O12 1.982850 1_555
Li9 O5 1.974444 1_555
Li9 O13 1.981917 1_555
Li10 O12 1.890181 1_555
Li10 O10 1.908494 1_555
Li10 O6 1.988088 1_545
Li11 O13 1.889997 1_555
Li11 O11 1.908976 1_555
Li11 O7 1.988371 1_555
Li12 O11 1.929084 1_554
Li12 O14 1.960551 1_555
Li12 O8 1.984980 1_555
Li13 O10 1.929712 1_555
Li13 O15 1.960841 1_555
Li13 O9 1.984489 1_645
Li14 O6 1.927463 1_455
Li14 O9 1.937858 1_555
Li14 O0 1.988453 1_555
Li14 O10 2.051037 1_465
Li15 O7 1.927590 1_555
Li15 O8 1.938226 1_556
Li15 O1 1.988339 1_555
Li15 O11 2.051676 1_555
Li16 O4 1.982187 1_555
Li16 O8 2.009760 1_555
Li17 O5 1.981670 1_555
Li17 O9 2.010447 1_555
Li18 O2 1.846544 1_645
Li18 O4 1.884875 1_555
Li18 O6 1.992923 1_545
Li18 O12 2.153146 1_555
Li19 O3 1.847445 1_555
Li19 O5 1.885718 1_555
Li19 O7 1.991543 1_555
Li19 O13 2.153216 1_555
Li20 O2 1.985742 1_555
Li20 O6 2.154884 1_455
Li20 O0 2.255360 1_555
Li20 O12 2.302214 1_555
Li21 O3 1.985734 1_555
Li21 O7 2.155634 1_555
Li21 O1 2.253660 1_555
Li21 O13 2.302249 1_645
Li22 O0 2.073654 1_555
Li22 O10 2.076579 1_555
Li22 O12 2.224841 1_555
Li22 O6 2.244821 1_555
Li23 O1 2.073797 1_455
Li23 O11 2.076798 1_545
Li23 O13 2.225483 1_545
Li23 O7 2.244894 1_555
Li24 O10 1.880020 1_455
Li24 O15 1.900067 1_555
Li24 O0 2.063998 1_545
Li25 O11 1.879942 1_555
Li25 O14 1.900057 1_656
Li25 O1 2.064246 1_555
Li26 O2 1.885876 1_545
Li26 O12 1.916250 1_455
Li27 O3 1.886827 1_555
Li27 O13 1.917171 1_555
O0 V2 2.034007 1_555
O1 V0 2.033018 1_645
O2 V3 1.900342 1_555
O3 V1 1.899526 1_655
O4 V3 2.023902 1_545
O5 V1 2.024498 1_555
O6 V3 2.087195 1_555
O7 V1 2.086641 1_555
O8 V0 2.056237 1_644
O9 V2 2.056113 1_555
O10 V2 2.038556 1_555
O11 V0 2.038250 1_555
O12 V3 2.060136 1_555
O13 V1 2.059615 1_565
O14 V0 2.002964 1_554
O15 V2 2.001919 1_555
F0 Li16 1.890417 1_455
F0 Li2 1.912188 1_555
F0 V0 2.104441 1_544
F0 Li4 2.172676 1_545
F0 Li6 2.413872 1_545
F1 Li17 1.890968 1_555
F1 Li3 1.911653 1_555
F1 V2 2.105217 1_555
F1 Li5 2.172385 1_655
F1 Li7 2.413738 1_555
F2 Li12 1.929246 1_555
F2 Li8 1.978853 1_555
F2 Li16 1.981491 1_555
F2 Li6 2.161711 1_555
F2 V3 2.422219 1_555
F2 Li4 2.512746 1_555
F3 Li13 1.929802 1_455
F3 Li9 1.979355 1_545
F3 Li17 1.981896 1_545
F3 Li7 2.161057 1_455
F3 V1 2.421321 1_555
F3 Li5 2.513460 1_555
F4 Li26 1.831718 1_555
F4 Li8 1.852157 1_555
F4 Li6 1.977488 1_555
F4 Li20 2.238882 1_555
F4 V3 2.285369 1_455
F5 Li27 1.832004 1_545
F5 Li9 1.851855 1_645
F5 Li7 1.977185 1_555
F5 Li21 2.239248 1_555
F5 V1 2.286071 1_555
F6 Li0 1.986899 1_545
F6 Li10 2.027961 1_555
F6 Li26 2.050714 1_555
F6 Li24 2.106006 1_555
F6 V2 2.247627 1_555
F6 Li20 2.358435 1_555
F6 Li22 2.372106 1_455
F7 Li1 1.987053 1_655
F7 Li11 2.028311 1_655
F7 Li27 2.049226 1_555
F7 Li25 2.105006 1_555
F7 V0 2.247203 1_655
F7 Li21 2.359075 1_565
F7 Li23 2.371763 1_565
