# generated using pymatgen
data_V(TeO3)4
_symmetry_space_group_name_H-M   'P 1'
_cell_length_a   5.15272677
_cell_length_b   10.87583417
_cell_length_c   9.08058651
_cell_angle_alpha   108.97754133
_cell_angle_beta   90.56167924
_cell_angle_gamma   91.46900436
_symmetry_Int_Tables_number   1
_chemical_formula_structural   V(TeO3)4
_chemical_formula_sum   'V2 Te8 O24'
_cell_volume   480.97168074
_cell_formula_units_Z   2
loop_
 _symmetry_equiv_pos_site_id
 _symmetry_equiv_pos_as_xyz
  1  'x, y, z'
loop_
 _atom_site_type_symbol
 _atom_site_label
 _atom_site_symmetry_multiplicity
 _atom_site_fract_x
 _atom_site_fract_y
 _atom_site_fract_z
 _atom_site_occupancy
  V  V0  1  0.01590000  0.96648700  0.67167900  1
  V  V1  1  0.01615000  0.46658000  0.17192100  1
  Te  Te0  1  0.97516800  0.46118500  0.49425400  1
  Te  Te1  1  0.97514900  0.96119800  0.99413500  1
  Te  Te2  1  0.51620500  0.99235400  0.48910200  1
  Te  Te3  1  0.51615900  0.49237800  0.98917600  1
  Te  Te4  1  0.95795800  0.77646800  0.25497300  1
  Te  Te5  1  0.95794000  0.27645600  0.75509000  1
  Te  Te6  1  0.50801600  0.18912000  0.23358600  1
  Te  Te7  1  0.50804500  0.68914000  0.73358000  1
  O  O0  1  0.31814600  0.57658800  0.17556800  1
  O  O1  1  0.31806100  0.07655600  0.67547400  1
  O  O2  1  0.12445900  0.85755900  0.12264900  1
  O  O3  1  0.12444200  0.35759700  0.62286000  1
  O  O4  1  0.29381300  0.06647500  0.05455000  1
  O  O5  1  0.29382500  0.56648400  0.55460200  1
  O  O6  1  0.20308100  0.87879000  0.45230600  1
  O  O7  1  0.20289100  0.37877700  0.95240600  1
  O  O8  1  0.81920300  0.08854200  0.17815900  1
  O  O9  1  0.81922400  0.58852800  0.67819700  1
  O  O10  1  0.37865800  0.10817900  0.38439500  1
  O  O11  1  0.37867100  0.60819000  0.88441600  1
  O  O12  1  0.70690800  0.37508000  0.07770500  1
  O  O13  1  0.70677300  0.87502400  0.57761900  1
  O  O14  1  0.13200100  0.36218000  0.28636000  1
  O  O15  1  0.13179000  0.86212300  0.78614100  1
  O  O16  1  0.82785500  0.59816400  0.06393900  1
  O  O17  1  0.82804900  0.09800100  0.56363200  1
  O  O18  1  0.68960200  0.33962000  0.44269800  1
  O  O19  1  0.68963000  0.83959200  0.94268500  1
  O  O20  1  0.88036100  0.56682700  0.36148800  1
  O  O21  1  0.88029400  0.06682600  0.86138300  1
  O  O22  1  0.65279200  0.88542800  0.28624600  1
  O  O23  1  0.65277500  0.38540500  0.78633000  1
loop_
_geom_bond_atom_site_label_1
_geom_bond_atom_site_label_2
_geom_bond_distance
_geom_bond_site_symmetry_2
O0 V1 1.931776 1_555
O0 Te3 1.953998 1_554
O1 V0 1.932583 1_545
O1 Te2 1.954217 1_545
O2 Te4 1.904809 1_455
O2 Te1 2.026479 1_454
O3 Te5 1.904498 1_455
O3 Te0 2.026619 1_455
O4 Te1 1.945628 1_444
O4 Te6 2.029635 1_555
O5 Te0 1.945662 1_455
O5 Te7 2.029420 1_555
O6 Te2 1.964476 1_555
O6 Te4 2.152027 1_455
O6 V0 2.158067 1_555
O7 Te3 1.965305 1_555
O7 Te5 2.151422 1_455
O7 V1 2.158197 1_556
O8 Te6 1.941297 1_555
O8 Te1 1.983526 1_544
O9 Te7 1.941414 1_555
O9 Te0 1.983061 1_555
O10 Te2 1.950569 1_545
O10 Te6 1.966325 1_555
O11 Te3 1.950674 1_555
O11 Te7 1.966625 1_555
O12 V1 1.897243 1_655
O12 Te3 1.988855 1_554
O13 V0 1.896228 1_655
O13 Te2 1.988590 1_555
O14 V1 1.874953 1_555
O14 Te0 2.031924 1_455
O14 Te6 2.672953 1_555
O15 V0 1.874864 1_555
O15 Te1 2.032381 1_455
O15 Te7 2.673401 1_555
O16 Te3 1.933895 1_554
O16 V1 2.217208 1_655
O16 Te4 2.223010 1_555
O17 Te2 1.933505 1_545
O17 V0 2.215953 1_645
O17 Te5 2.225619 1_555
O18 Te0 1.901710 1_555
O18 Te6 2.241752 1_555
O19 Te1 1.901781 1_555
O19 Te7 2.241480 1_555
O20 V1 1.866408 1_655
O20 Te0 1.982500 1_555
O21 V0 1.867242 1_645
O21 Te1 1.982343 1_545
O22 Te4 1.960337 1_555
O22 Te2 1.978632 1_555
O23 Te5 1.960277 1_555
O23 Te3 1.978772 1_555
