# generated using pymatgen
data_Li4Cr3FeO8
_symmetry_space_group_name_H-M   'P 1'
_cell_length_a   5.12507900
_cell_length_b   5.88290632
_cell_length_c   10.60529652
_cell_angle_alpha   73.90845829
_cell_angle_beta   76.19410882
_cell_angle_gamma   73.30518593
_symmetry_Int_Tables_number   1
_chemical_formula_structural   Li4Cr3FeO8
_chemical_formula_sum   'Li8 Cr6 Fe2 O16'
_cell_volume   289.85002393
_cell_formula_units_Z   2
loop_
 _symmetry_equiv_pos_site_id
 _symmetry_equiv_pos_as_xyz
  1  'x, y, z'
loop_
 _atom_site_type_symbol
 _atom_site_label
 _atom_site_symmetry_multiplicity
 _atom_site_fract_x
 _atom_site_fract_y
 _atom_site_fract_z
 _atom_site_occupancy
  Li  Li0  1  0.99699400  0.31370300  0.62562800  1
  Li  Li1  1  0.00215400  0.93642000  0.87483200  1
  Li  Li2  1  0.00300600  0.68629700  0.37437200  1
  Li  Li3  1  0.99784600  0.06358000  0.12516800  1
  Li  Li4  1  0.00013600  0.81132000  0.62587500  1
  Li  Li5  1  0.00068600  0.43854500  0.87374300  1
  Li  Li6  1  0.99986400  0.18868000  0.37412500  1
  Li  Li7  1  0.99931400  0.56145500  0.12625700  1
  Cr  Cr0  1  0.49997800  0.12488500  0.75018300  1
  Cr  Cr1  1  0.50000000  0.50000000  0.50000000  1
  Cr  Cr2  1  0.50002200  0.87511500  0.24981700  1
  Cr  Cr3  1  0.49997800  0.25190200  0.00003700  1
  Cr  Cr4  1  0.50000000  0.00000000  0.50000000  1
  Cr  Cr5  1  0.50002200  0.74809800  0.99996300  1
  Fe  Fe0  1  0.50004100  0.62505600  0.74992900  1
  Fe  Fe1  1  0.49995900  0.37494400  0.25007100  1
  O  O0  1  0.27539000  0.70933200  0.18655500  1
  O  O1  1  0.72381500  0.53388200  0.31354700  1
  O  O2  1  0.27618500  0.46611800  0.68645300  1
  O  O3  1  0.72461000  0.29066800  0.81344500  1
  O  O4  1  0.72653600  0.91110300  0.06427400  1
  O  O5  1  0.27346400  0.08889700  0.93572600  1
  O  O6  1  0.27334200  0.83888800  0.43544800  1
  O  O7  1  0.72468800  0.66033300  0.56677500  1
  O  O8  1  0.27596000  0.21646600  0.18640600  1
  O  O9  1  0.72442600  0.04039000  0.31344000  1
  O  O10  1  0.27557400  0.95961000  0.68656000  1
  O  O11  1  0.72404000  0.78353400  0.81359400  1
  O  O12  1  0.27510500  0.58966600  0.93302100  1
  O  O13  1  0.27531200  0.33966700  0.43322500  1
  O  O14  1  0.72489500  0.41033400  0.06697900  1
  O  O15  1  0.72665800  0.16111200  0.56455200  1
loop_
_geom_bond_atom_site_label_1
_geom_bond_atom_site_label_2
_geom_bond_distance
_geom_bond_site_symmetry_2
Li0 O3 2.136962 1_555
Li0 O7 2.137902 1_555
Li0 O15 2.147135 1_555
Li0 O2 2.183066 1_655
Li0 O10 2.186474 1_645
Li0 O13 2.187429 1_655
Li1 O12 2.138605 1_555
Li1 O10 2.143001 1_555
Li1 O5 2.149755 1_565
Li1 O4 2.157427 1_456
Li1 O11 2.182782 1_455
Li1 O3 2.185621 1_465
Li2 O0 2.136962 1_555
Li2 O13 2.137902 1_555
Li2 O6 2.147135 1_555
Li2 O1 2.183066 1_455
Li2 O9 2.186474 1_465
Li2 O7 2.187429 1_455
Li3 O14 2.138605 1_555
Li3 O9 2.143001 1_555
Li3 O4 2.149755 1_545
Li3 O5 2.157427 1_654
Li3 O8 2.182782 1_655
Li3 O0 2.185621 1_645
Li4 O2 2.144353 1_555
Li4 O11 2.144843 1_455
Li4 O10 2.149500 1_555
Li4 O7 2.150824 1_455
Li4 O15 2.158240 1_465
Li4 O6 2.159792 1_555
Li5 O2 2.140014 1_555
Li5 O11 2.144033 1_455
Li5 O12 2.147974 1_555
Li5 O3 2.148289 1_455
Li5 O5 2.157412 1_555
Li5 O14 2.188355 1_456
Li6 O1 2.144353 1_555
Li6 O8 2.144843 1_655
Li6 O9 2.149500 1_555
Li6 O13 2.150824 1_655
Li6 O6 2.158240 1_645
Li6 O15 2.159792 1_555
Li7 O1 2.140014 1_555
Li7 O8 2.144033 1_655
Li7 O14 2.147974 1_555
Li7 O0 2.148289 1_655
Li7 O4 2.157412 1_555
Li7 O12 2.188355 1_654
Cr0 O5 2.021024 1_555
Cr0 O15 2.022095 1_555
Cr0 O2 2.024136 1_555
Cr0 O11 2.024491 1_545
Cr0 O10 2.024810 1_545
Cr0 O3 2.025627 1_555
Cr1 O15 2.021154 1_555
Cr1 O6 2.021154 1_555
Cr1 O2 2.023834 1_555
Cr1 O1 2.023834 1_555
Cr1 O13 2.025035 1_555
Cr1 O7 2.025035 1_555
Cr2 O4 2.021024 1_555
Cr2 O6 2.022095 1_555
Cr2 O1 2.024136 1_555
Cr2 O8 2.024491 1_565
Cr2 O9 2.024810 1_565
Cr2 O0 2.025627 1_555
Cr3 O12 2.018415 1_554
Cr3 O14 2.018944 1_555
Cr3 O8 2.023421 1_555
Cr3 O3 2.026494 1_554
Cr3 O5 2.027930 1_554
Cr3 O4 2.028491 1_545
Cr4 O6 2.021939 1_545
Cr4 O15 2.021939 1_555
Cr4 O13 2.025629 1_555
Cr4 O7 2.025629 1_545
Cr4 O10 2.025902 1_545
Cr4 O9 2.025902 1_555
Cr5 O14 2.018415 1_556
Cr5 O12 2.018944 1_555
Cr5 O11 2.023421 1_555
Cr5 O0 2.026494 1_556
Cr5 O4 2.027930 1_556
Cr5 O5 2.028491 1_565
Fe0 O11 1.994203 1_555
Fe0 O2 1.994379 1_555
Fe0 O3 1.995693 1_555
Fe0 O10 1.995893 1_555
Fe0 O7 1.997010 1_555
Fe0 O12 1.997035 1_555
Fe1 O8 1.994203 1_555
Fe1 O1 1.994379 1_555
Fe1 O0 1.995693 1_555
Fe1 O9 1.995893 1_555
Fe1 O13 1.997010 1_555
Fe1 O14 1.997035 1_555
