# generated using pymatgen
data_Li6V2B4SO16
_symmetry_space_group_name_H-M   'P 1'
_cell_length_a   9.46056264
_cell_length_b   9.46056264
_cell_length_c   9.46056264
_cell_angle_alpha   60.00000000
_cell_angle_beta   60.00000000
_cell_angle_gamma   60.00000000
_symmetry_Int_Tables_number   1
_chemical_formula_structural   Li6V2B4SO16
_chemical_formula_sum   'Li12 V4 B8 S2 O32'
_cell_volume   598.73672794
_cell_formula_units_Z   2
loop_
 _symmetry_equiv_pos_site_id
 _symmetry_equiv_pos_as_xyz
  1  'x, y, z'
loop_
 _atom_site_type_symbol
 _atom_site_label
 _atom_site_symmetry_multiplicity
 _atom_site_fract_x
 _atom_site_fract_y
 _atom_site_fract_z
 _atom_site_occupancy
  Li  Li0  1  0.97048400  0.97048400  0.52951600  1
  Li  Li1  1  0.72048400  0.27951600  0.27951600  1
  Li  Li2  1  0.97048400  0.52951600  0.97048400  1
  Li  Li3  1  0.52951600  0.97048400  0.52951600  1
  Li  Li4  1  0.72048400  0.72048400  0.27951600  1
  Li  Li5  1  0.27951600  0.72048400  0.72048400  1
  Li  Li6  1  0.52951600  0.52951600  0.97048400  1
  Li  Li7  1  0.97048400  0.52951600  0.52951600  1
  Li  Li8  1  0.27951600  0.72048400  0.27951600  1
  Li  Li9  1  0.72048400  0.27951600  0.72048400  1
  Li  Li10  1  0.52951600  0.97048400  0.97048400  1
  Li  Li11  1  0.27951600  0.27951600  0.72048400  1
  V  V0  1  0.12500000  0.62500000  0.12500000  1
  V  V1  1  0.12500000  0.12500000  0.62500000  1
  V  V2  1  0.12500000  0.12500000  0.12500000  1
  V  V3  1  0.62500000  0.12500000  0.12500000  1
  B  B0  1  0.34253600  0.97239100  0.34253600  1
  B  B1  1  0.97239100  0.34253600  0.34253600  1
  B  B2  1  0.34253600  0.34253600  0.97239100  1
  B  B3  1  0.34253600  0.34253600  0.34253600  1
  B  B4  1  0.90746400  0.90746400  0.90746400  1
  B  B5  1  0.27760900  0.90746400  0.90746400  1
  B  B6  1  0.90746400  0.90746400  0.27760900  1
  B  B7  1  0.90746400  0.27760900  0.90746400  1
  S  S0  1  0.75000000  0.75000000  0.75000000  1
  S  S1  1  0.50000000  0.50000000  0.50000000  1
  O  O0  1  0.92660600  0.04199100  0.27905000  1
  O  O1  1  0.75235300  0.27905000  0.04199100  1
  O  O2  1  0.20800900  0.97095000  0.32339400  1
  O  O3  1  0.32339400  0.97095000  0.49764700  1
  O  O4  1  0.68538000  0.68538000  0.68538000  1
  O  O5  1  0.97095000  0.32339400  0.20800900  1
  O  O6  1  0.97095000  0.20800900  0.49764700  1
  O  O7  1  0.94386100  0.68538000  0.68538000  1
  O  O8  1  0.68538000  0.68538000  0.94386100  1
  O  O9  1  0.49764700  0.32339400  0.97095000  1
  O  O10  1  0.20800900  0.49764700  0.97095000  1
  O  O11  1  0.68538000  0.94386100  0.68538000  1
  O  O12  1  0.49764700  0.20800900  0.32339400  1
  O  O13  1  0.97095000  0.49764700  0.32339400  1
  O  O14  1  0.20800900  0.32339400  0.49764700  1
  O  O15  1  0.92660600  0.75235300  0.04199100  1
  O  O16  1  0.32339400  0.49764700  0.20800900  1
  O  O17  1  0.04199100  0.92660600  0.75235300  1
  O  O18  1  0.27905000  0.75235300  0.92660600  1
  O  O19  1  0.75235300  0.04199100  0.92660600  1
  O  O20  1  0.56462000  0.30613900  0.56462000  1
  O  O21  1  0.04199100  0.75235300  0.27905000  1
  O  O22  1  0.75235300  0.92660600  0.27905000  1
  O  O23  1  0.30613900  0.56462000  0.56462000  1
  O  O24  1  0.56462000  0.56462000  0.30613900  1
  O  O25  1  0.27905000  0.04199100  0.75235300  1
  O  O26  1  0.27905000  0.92660600  0.04199100  1
  O  O27  1  0.56462000  0.56462000  0.56462000  1
  O  O28  1  0.92660600  0.27905000  0.75235300  1
  O  O29  1  0.04199100  0.27905000  0.92660600  1
  O  O30  1  0.49764700  0.97095000  0.20800900  1
  O  O31  1  0.32339400  0.20800900  0.97095000  1
loop_
_geom_bond_atom_site_label_1
_geom_bond_atom_site_label_2
_geom_bond_distance
_geom_bond_site_symmetry_2
Li0 O2 2.114602 1_655
Li0 O6 2.114602 1_565
Li0 O17 2.311826 1_655
Li0 O0 2.311826 1_565
Li0 O7 2.417354 1_555
Li0 O11 2.417354 1_555
Li1 O1 2.114602 1_555
Li1 O0 2.114602 1_555
Li1 O5 2.311826 1_555
Li1 O12 2.311826 1_555
Li1 O24 2.417354 1_555
Li1 O20 2.417354 1_555
Li2 O5 2.114602 1_556
Li2 O10 2.114602 1_655
Li2 O29 2.311826 1_655
Li2 O15 2.311826 1_556
Li2 O7 2.417354 1_555
Li2 O8 2.417354 1_555
Li3 O3 2.114602 1_555
Li3 O12 2.114602 1_565
Li3 O25 2.311826 1_565
Li3 O22 2.311826 1_555
Li3 O4 2.417357 1_555
Li3 O11 2.417362 1_555
Li4 O15 2.114602 1_555
Li4 O22 2.114602 1_555
Li4 O13 2.311826 1_555
Li4 O30 2.311826 1_555
Li4 O27 2.417357 1_555
Li4 O24 2.417362 1_555
Li5 O17 2.114602 1_555
Li5 O18 2.114602 1_555
Li5 O3 2.311826 1_555
Li5 O10 2.311826 1_555
Li5 O27 2.417357 1_555
Li5 O23 2.417362 1_555
Li6 O9 2.114602 1_555
Li6 O16 2.114602 1_556
Li6 O1 2.311826 1_556
Li6 O18 2.311826 1_555
Li6 O4 2.417357 1_555
Li6 O8 2.417362 1_555
Li7 O13 2.114602 1_555
Li7 O14 2.114602 1_655
Li7 O28 2.311826 1_555
Li7 O21 2.311826 1_655
Li7 O4 2.417357 1_555
Li7 O7 2.417362 1_555
Li8 O21 2.114602 1_555
Li8 O26 2.114602 1_555
Li8 O2 2.311826 1_555
Li8 O16 2.311826 1_555
Li8 O24 2.417354 1_555
Li8 O23 2.417354 1_555
Li9 O19 2.114602 1_555
Li9 O28 2.114602 1_555
Li9 O6 2.311826 1_555
Li9 O9 2.311826 1_555
Li9 O27 2.417357 1_555
Li9 O20 2.417362 1_555
Li10 O31 2.114602 1_565
Li10 O30 2.114602 1_556
Li10 O19 2.311826 1_565
Li10 O26 2.311826 1_556
Li10 O11 2.417354 1_555
Li10 O8 2.417354 1_555
Li11 O25 2.114602 1_555
Li11 O29 2.114602 1_555
Li11 O31 2.311826 1_555
Li11 O14 2.311826 1_555
Li11 O23 2.417354 1_555
Li11 O20 2.417354 1_555
B0 O2 1.379510 1_555
B0 O30 1.379515 1_555
B0 O3 1.379519 1_555
B1 O5 1.379510 1_555
B1 O6 1.379515 1_555
B1 O13 1.379519 1_555
B2 O31 1.379510 1_555
B2 O10 1.379515 1_555
B2 O9 1.379519 1_555
B3 O16 1.379515 1_555
B3 O12 1.379515 1_555
B3 O14 1.379515 1_555
B4 O19 1.379515 1_565
B4 O17 1.379515 1_655
B4 O15 1.379515 1_556
B5 O26 1.379510 1_556
B5 O25 1.379515 1_565
B5 O18 1.379519 1_555
B6 O0 1.379510 1_565
B6 O21 1.379515 1_655
B6 O22 1.379519 1_555
B7 O29 1.379510 1_655
B7 O1 1.379515 1_556
B7 O28 1.379519 1_555
O0 V2 1.964074 1_655
O1 V3 1.964074 1_555
O2 V2 1.964074 1_565
O3 V1 1.964074 1_565
O4 S0 1.497475 1_555
O5 V2 1.964074 1_655
O6 V1 1.964074 1_655
O7 S0 1.497483 1_555
O8 S0 1.497483 1_555
O9 V3 1.964074 1_556
O10 V0 1.964074 1_556
O11 S0 1.497483 1_555
O12 V3 1.964074 1_555
O13 V0 1.964074 1_655
O14 V1 1.964074 1_555
O15 V0 1.964074 1_655
O16 V0 1.964074 1_555
O17 V1 1.964074 1_565
O18 V0 1.964074 1_556
O19 V3 1.964074 1_556
O20 S1 1.497483 1_555
O21 V0 1.964074 1_555
O22 V3 1.964074 1_565
O23 S1 1.497483 1_555
O24 S1 1.497483 1_555
O25 V1 1.964074 1_555
O26 V2 1.964074 1_565
O27 S1 1.497475 1_555
O28 V1 1.964074 1_655
O29 V2 1.964074 1_556
O30 V3 1.964074 1_565
O31 V2 1.964074 1_556
