# generated using pymatgen
data_ScInO3
_symmetry_space_group_name_H-M   'P 1'
_cell_length_a   3.46640047
_cell_length_b   3.46640047
_cell_length_c   12.74871100
_cell_angle_alpha   90.00000000
_cell_angle_beta   90.00000000
_cell_angle_gamma   120.00000893
_symmetry_Int_Tables_number   1
_chemical_formula_structural   ScInO3
_chemical_formula_sum   'Sc2 In2 O6'
_cell_volume   132.66438197
_cell_formula_units_Z   2
loop_
 _symmetry_equiv_pos_site_id
 _symmetry_equiv_pos_as_xyz
  1  'x, y, z'
loop_
 _atom_site_type_symbol
 _atom_site_label
 _atom_site_symmetry_multiplicity
 _atom_site_fract_x
 _atom_site_fract_y
 _atom_site_fract_z
 _atom_site_occupancy
  Sc  Sc0  1  0.33333300  0.66666700  0.75000000  1
  Sc  Sc1  1  0.66666700  0.33333300  0.25000000  1
  In  In0  1  0.00000000  0.00000000  0.00000000  1
  In  In1  1  0.00000000  0.00000000  0.50000000  1
  O  O0  1  0.00000000  0.00000000  0.25000000  1
  O  O1  1  0.00000000  0.00000000  0.75000000  1
  O  O2  1  0.33333300  0.66666700  0.58236700  1
  O  O3  1  0.33333300  0.66666700  0.91763300  1
  O  O4  1  0.66666700  0.33333300  0.41763300  1
  O  O5  1  0.66666700  0.33333300  0.08236700  1
loop_
_geom_bond_atom_site_label_1
_geom_bond_atom_site_label_2
_geom_bond_distance
_geom_bond_site_symmetry_2
In0 O5 2.260079 1_455
In0 O3 2.260079 1_544
In0 O5 2.260081 1_555
In0 O5 2.260081 1_445
In0 O3 2.260081 1_554
In0 O3 2.260081 1_444
In1 O2 2.260079 1_545
In1 O4 2.260079 1_455
In1 O2 2.260081 1_555
In1 O2 2.260081 1_445
In1 O4 2.260081 1_555
In1 O4 2.260081 1_445
O0 Sc1 2.001325 1_455
O0 Sc1 2.001328 1_445
O0 Sc1 2.001328 1_555
O1 Sc0 2.001325 1_545
O1 Sc0 2.001328 1_555
O1 Sc0 2.001328 1_445
O2 Sc0 2.137105 1_555
O3 Sc0 2.137105 1_555
O4 Sc1 2.137105 1_555
O5 Sc1 2.137105 1_555
