# generated using pymatgen
data_Li3Fe9O5F11
_symmetry_space_group_name_H-M   'P 1'
_cell_length_a   6.16170900
_cell_length_b   6.22139568
_cell_length_c   10.73009447
_cell_angle_alpha   90.59476703
_cell_angle_beta   105.49057995
_cell_angle_gamma   118.32046796
_symmetry_Int_Tables_number   1
_chemical_formula_structural   Li3Fe9O5F11
_chemical_formula_sum   'Li3 Fe9 O5 F11'
_cell_volume   344.35940629
_cell_formula_units_Z   1
loop_
 _symmetry_equiv_pos_site_id
 _symmetry_equiv_pos_as_xyz
  1  'x, y, z'
loop_
 _atom_site_type_symbol
 _atom_site_label
 _atom_site_symmetry_multiplicity
 _atom_site_fract_x
 _atom_site_fract_y
 _atom_site_fract_z
 _atom_site_occupancy
  Li  Li0  1  0.61039200  0.04652100  0.19597300  1
  Li  Li1  1  0.60520900  0.56190200  0.19460900  1
  Li  Li2  1  0.63826500  0.79285800  0.42525500  1
  Fe  Fe0  1  0.63307900  0.29940400  0.93661700  1
  Fe  Fe1  1  0.63222600  0.07680500  0.69115600  1
  Fe  Fe2  1  0.99992300  0.98348900  0.97643700  1
  Fe  Fe3  1  0.63796700  0.56226800  0.69032200  1
  Fe  Fe4  1  0.13637900  0.05854600  0.68966100  1
  Fe  Fe5  1  0.26162400  0.17094900  0.39069100  1
  Fe  Fe6  1  0.22223900  0.65857200  0.87779000  1
  Fe  Fe7  1  0.02948800  0.48771700  0.48113300  1
  Fe  Fe8  1  0.13079800  0.55239100  0.20104100  1
  O  O0  1  0.39163700  0.21118100  0.58563100  1
  O  O1  1  0.39297000  0.96475000  0.81558500  1
  O  O2  1  0.85564000  0.42879900  0.81846400  1
  O  O3  1  0.85839300  0.92408500  0.78300000  1
  O  O4  1  0.37589500  0.46761100  0.31250900  1
  F  F0  1  0.38474100  0.43656300  0.82367900  1
  F  F1  1  0.85845300  0.15892000  0.54667900  1
  F  F2  1  0.41015100  0.71034500  0.55687500  1
  F  F3  1  0.82114000  0.40544300  0.29115400  1
  F  F4  1  0.87328200  0.18238100  0.07236300  1
  F  F5  1  0.89674400  0.68838200  0.55888300  1
  F  F6  1  0.87042400  0.66175700  0.07308900  1
  F  F7  1  0.39009300  0.19782100  0.06219100  1
  F  F8  1  0.85175800  0.93354900  0.30918100  1
  F  F9  1  0.34309400  0.91859600  0.30702800  1
  F  F10  1  0.38799700  0.70839200  0.08300100  1
loop_
_geom_bond_atom_site_label_1
_geom_bond_atom_site_label_2
_geom_bond_distance
_geom_bond_site_symmetry_2
Li1 O4 2.030961 1_555
Li2 O4 1.993062 1_555
Fe0 O2 2.009576 1_555
Fe0 O1 2.050650 1_545
Fe1 O3 2.087616 1_545
Fe1 O0 2.116019 1_555
Fe1 O1 2.130143 1_545
Fe1 O2 2.151706 1_555
Fe2 O3 1.979042 1_555
Fe3 O0 2.056540 1_555
Fe3 O3 2.057163 1_555
Fe3 O2 2.115254 1_555
Fe4 O0 2.040652 1_555
Fe4 O3 2.052075 1_445
Fe4 O1 2.101551 1_545
Fe5 O4 1.928886 1_555
Fe5 O0 1.995877 1_555
Fe6 O1 1.918550 1_555
Fe6 O2 1.923666 1_455
Fe8 O4 1.947702 1_555
F0 Fe0 2.192720 1_555
F0 Fe6 2.203067 1_555
F0 Fe3 2.269759 1_555
F0 Fe4 2.297885 1_555
F1 Fe7 2.042071 1_655
F1 Li2 2.188010 1_545
F1 Fe1 2.258855 1_555
F1 Fe4 2.303809 1_655
F2 Fe7 1.989077 1_555
F2 Li2 2.150472 1_555
F2 Fe3 2.247266 1_555
F2 Fe1 2.250558 1_565
F3 Fe7 2.005623 1_655
F3 Li0 2.051485 1_555
F3 Li1 2.074704 1_555
F3 Fe8 2.181756 1_655
F4 Fe2 2.125605 1_544
F4 Fe0 2.176024 1_554
F4 Li0 2.229212 1_555
F4 Fe8 2.240838 1_655
F5 Fe7 2.057976 1_655
F5 Li2 2.190143 1_555
F5 Fe4 2.247816 1_665
F5 Fe3 2.276916 1_555
F6 Fe2 2.165287 1_554
F6 Fe8 2.190980 1_655
F6 Li1 2.224516 1_555
F6 Fe0 2.241565 1_554
F7 Fe2 2.038570 1_444
F7 Fe0 2.157333 1_554
F7 Li1 2.232697 1_555
F7 Li0 2.233561 1_555
F8 Li2 1.962953 1_555
F8 Li0 2.055700 1_565
F8 Fe5 2.139775 1_665
F8 Li1 2.185396 1_555
F9 Fe5 2.117069 1_565
F9 Fe8 2.125802 1_555
F9 Li0 2.142519 1_565
F9 Li2 2.380590 1_555
F10 Li0 2.024148 1_565
F10 Li1 2.092820 1_555
F10 Fe6 2.114689 1_554
F10 Fe8 2.167045 1_555
