# generated using pymatgen
data_K2Li2TiO4
_symmetry_space_group_name_H-M   'P 1'
_cell_length_a   8.52779400
_cell_length_b   5.78977200
_cell_length_c   11.37850908
_cell_angle_alpha   70.82012784
_cell_angle_beta   90.00000000
_cell_angle_gamma   90.00000000
_symmetry_Int_Tables_number   1
_chemical_formula_structural   K2Li2TiO4
_chemical_formula_sum   'K8 Li8 Ti4 O16'
_cell_volume   530.61770144
_cell_formula_units_Z   4
loop_
 _symmetry_equiv_pos_site_id
 _symmetry_equiv_pos_as_xyz
  1  'x, y, z'
loop_
 _atom_site_type_symbol
 _atom_site_label
 _atom_site_symmetry_multiplicity
 _atom_site_fract_x
 _atom_site_fract_y
 _atom_site_fract_z
 _atom_site_occupancy
  K  K0  1  0.50437300  0.68351900  0.65778800  1
  K  K1  1  0.21719600  0.27829400  0.10475300  1
  K  K2  1  0.00437300  0.31648100  0.84221200  1
  K  K3  1  0.28280400  0.27829400  0.60475300  1
  K  K4  1  0.71719600  0.72170600  0.39524700  1
  K  K5  1  0.99562700  0.68351900  0.15778800  1
  K  K6  1  0.78280400  0.72170600  0.89524700  1
  K  K7  1  0.49562700  0.31648100  0.34221200  1
  Li  Li0  1  0.48130400  0.37618500  0.92584300  1
  Li  Li1  1  0.98130400  0.62381500  0.57415700  1
  Li  Li2  1  0.95060800  0.10731500  0.29628300  1
  Li  Li3  1  0.45060800  0.89268500  0.20371700  1
  Li  Li4  1  0.54939200  0.10731500  0.79628300  1
  Li  Li5  1  0.04939200  0.89268500  0.70371700  1
  Li  Li6  1  0.01869600  0.37618500  0.42584300  1
  Li  Li7  1  0.51869600  0.62381500  0.07415700  1
  Ti  Ti0  1  0.20613600  0.88091000  0.42739400  1
  Ti  Ti1  1  0.70613600  0.11909000  0.07260600  1
  Ti  Ti2  1  0.29386400  0.88091000  0.92739400  1
  Ti  Ti3  1  0.79386400  0.11909000  0.57260600  1
  O  O0  1  0.83244100  0.79091900  0.64557400  1
  O  O1  1  0.18994100  0.77975000  0.59733000  1
  O  O2  1  0.53144400  0.26491300  0.11573800  1
  O  O3  1  0.90303500  0.19488900  0.11609400  1
  O  O4  1  0.68994100  0.22025000  0.90267000  1
  O  O5  1  0.33244100  0.20908100  0.85442600  1
  O  O6  1  0.40303500  0.80511100  0.38390600  1
  O  O7  1  0.03144400  0.73508700  0.38426200  1
  O  O8  1  0.96855600  0.26491300  0.61573800  1
  O  O9  1  0.59696500  0.19488900  0.61609400  1
  O  O10  1  0.66755900  0.79091900  0.14557400  1
  O  O11  1  0.31005900  0.77975000  0.09733000  1
  O  O12  1  0.09696500  0.80511100  0.88390600  1
  O  O13  1  0.46855600  0.73508700  0.88426200  1
  O  O14  1  0.81005900  0.22025000  0.40267000  1
  O  O15  1  0.16755900  0.20908100  0.35442600  1
loop_
_geom_bond_atom_site_label_1
_geom_bond_atom_site_label_2
_geom_bond_distance
_geom_bond_site_symmetry_2
K0 O13 2.707135 1_555
K0 O1 2.778810 1_555
K0 O0 2.859423 1_555
K0 O9 2.948128 1_565
K0 O6 3.084257 1_555
K0 O9 3.119935 1_555
K1 O2 2.682688 1_555
K1 O3 2.717807 1_455
K1 O15 2.768119 1_555
K1 O11 2.983686 1_555
K1 O11 3.020941 1_545
K1 O5 3.160621 1_554
K2 O8 2.707135 1_455
K2 O4 2.778810 1_455
K2 O5 2.859423 1_555
K2 O12 2.948128 1_545
K2 O3 3.084257 1_456
K2 O12 3.119935 1_555
K3 O8 2.682688 1_455
K3 O9 2.717807 1_555
K3 O5 2.768119 1_555
K3 O1 2.983686 1_555
K3 O1 3.020941 1_545
K3 O15 3.160621 1_555
K4 O7 2.682688 1_655
K4 O6 2.717807 1_555
K4 O10 2.768119 1_555
K4 O14 2.983686 1_555
K4 O14 3.020941 1_565
K4 O0 3.160621 1_555
K5 O7 2.707135 1_655
K5 O11 2.778810 1_655
K5 O10 2.859423 1_555
K5 O3 2.948128 1_565
K5 O12 3.084257 1_654
K5 O3 3.119935 1_555
K6 O13 2.682688 1_555
K6 O12 2.717807 1_655
K6 O0 2.768119 1_555
K6 O4 2.983686 1_555
K6 O4 3.020941 1_565
K6 O10 3.160621 1_556
K7 O2 2.707135 1_555
K7 O14 2.778810 1_555
K7 O15 2.859423 1_555
K7 O6 2.948128 1_545
K7 O9 3.084257 1_555
K7 O6 3.119935 1_555
Li0 O5 1.929909 1_555
Li0 O13 1.976764 1_555
Li0 O4 2.051009 1_555
Li0 O2 2.086129 1_556
Li1 O0 1.929909 1_555
Li1 O8 1.976764 1_555
Li1 O1 2.051009 1_655
Li1 O7 2.086129 1_655
Li2 O14 1.962034 1_555
Li2 O3 1.985513 1_555
Li2 O15 2.112794 1_655
Li2 O7 2.168938 1_645
Li3 O11 1.962034 1_555
Li3 O6 1.985513 1_555
Li3 O10 2.112794 1_555
Li3 O2 2.168938 1_565
Li4 O4 1.962034 1_555
Li4 O9 1.985513 1_555
Li4 O5 2.112794 1_555
Li4 O13 2.168938 1_545
Li5 O1 1.962034 1_555
Li5 O12 1.985513 1_555
Li5 O0 2.112794 1_455
Li5 O8 2.168938 1_465
Li6 O15 1.929909 1_555
Li6 O7 1.976764 1_555
Li6 O14 2.051009 1_455
Li6 O8 2.086129 1_455
Li7 O10 1.929909 1_555
Li7 O2 1.976764 1_555
Li7 O11 2.051009 1_555
Li7 O13 2.086129 1_554
O0 Ti3 1.836070 1_565
O1 Ti0 1.832172 1_555
O2 Ti1 1.856139 1_555
O3 Ti1 1.843791 1_555
O4 Ti1 1.832172 1_556
O5 Ti2 1.836070 1_545
O6 Ti0 1.843791 1_555
O7 Ti0 1.856139 1_555
O8 Ti3 1.856139 1_555
O9 Ti3 1.843791 1_555
O10 Ti1 1.836070 1_565
O11 Ti2 1.832172 1_554
O12 Ti2 1.843791 1_555
O13 Ti2 1.856139 1_555
O14 Ti3 1.832172 1_555
O15 Ti0 1.836070 1_545
