# generated using pymatgen
data_Li4VCr3O8
_symmetry_space_group_name_H-M   'P 1'
_cell_length_a   5.15659579
_cell_length_b   5.96221552
_cell_length_c   10.71702907
_cell_angle_alpha   105.90492651
_cell_angle_beta   85.38584109
_cell_angle_gamma   72.96842172
_symmetry_Int_Tables_number   1
_chemical_formula_structural   Li4VCr3O8
_chemical_formula_sum   'Li8 V2 Cr6 O16'
_cell_volume   298.31801050
_cell_formula_units_Z   2
loop_
 _symmetry_equiv_pos_site_id
 _symmetry_equiv_pos_as_xyz
  1  'x, y, z'
loop_
 _atom_site_type_symbol
 _atom_site_label
 _atom_site_symmetry_multiplicity
 _atom_site_fract_x
 _atom_site_fract_y
 _atom_site_fract_z
 _atom_site_occupancy
  Li  Li0  1  0.00003500  0.12507300  0.74999300  1
  Li  Li1  1  0.99987100  0.00060500  0.00138900  1
  Li  Li2  1  0.00006400  0.24933700  0.49863700  1
  Li  Li3  1  0.00049700  0.37507900  0.24948400  1
  Li  Li4  1  0.00010300  0.62488900  0.75001200  1
  Li  Li5  1  0.99731300  0.50230600  0.00074300  1
  Li  Li6  1  0.00257000  0.74779600  0.49923500  1
  Li  Li7  1  0.99949500  0.87493100  0.25048600  1
  V  V0  1  0.49977100  0.06436700  0.87402900  1
  V  V1  1  0.50025600  0.18558200  0.62598900  1
  Cr  Cr0  1  0.50035300  0.31117400  0.37486200  1
  Cr  Cr1  1  0.49939300  0.56567400  0.87553600  1
  Cr  Cr2  1  0.50000700  0.43878100  0.12498800  1
  Cr  Cr3  1  0.50068800  0.68430000  0.62445600  1
  Cr  Cr4  1  0.49990100  0.81124900  0.37502700  1
  Cr  Cr5  1  0.49966600  0.93883500  0.12512900  1
  O  O0  1  0.27597800  0.08652400  0.31058900  1
  O  O1  1  0.72516400  0.03590100  0.43922300  1
  O  O2  1  0.27034800  0.34226500  0.81184900  1
  O  O3  1  0.72629700  0.29305500  0.94009500  1
  O  O4  1  0.72400300  0.16353800  0.18941000  1
  O  O5  1  0.27478200  0.21409800  0.06079500  1
  O  O6  1  0.27604700  0.45995800  0.56013100  1
  O  O7  1  0.72714400  0.41449800  0.69122300  1
  O  O8  1  0.27615900  0.58590500  0.31033500  1
  O  O9  1  0.72483500  0.53555000  0.43896300  1
  O  O10  1  0.27297400  0.83560600  0.80882400  1
  O  O11  1  0.72405500  0.78998100  0.93989500  1
  O  O12  1  0.27516600  0.71446700  0.06102800  1
  O  O13  1  0.27361400  0.95680200  0.55987100  1
  O  O14  1  0.72379700  0.66410700  0.18965900  1
  O  O15  1  0.72965900  0.90776700  0.68811300  1
loop_
_geom_bond_atom_site_label_1
_geom_bond_atom_site_label_2
_geom_bond_distance
_geom_bond_site_symmetry_2
Li0 O7 2.161120 1_455
Li0 O10 2.161769 1_545
Li0 O13 2.176312 1_545
Li0 O3 2.176485 1_455
Li0 O2 2.189710 1_555
Li0 O15 2.190502 1_445
Li1 O12 2.158504 1_645
Li1 O4 2.164273 1_555
Li1 O11 2.185787 1_544
Li1 O5 2.189355 1_655
Li1 O3 2.190399 1_554
Li1 O10 2.195019 1_644
Li2 O9 2.158867 1_455
Li2 O0 2.164598 1_555
Li2 O6 2.186501 1_555
Li2 O1 2.189088 1_455
Li2 O13 2.190329 1_545
Li2 O7 2.194784 1_455
Li3 O5 2.166043 1_555
Li3 O14 2.174599 1_455
Li3 O9 2.175681 1_455
Li3 O0 2.177653 1_555
Li3 O8 2.184598 1_555
Li3 O4 2.189547 1_455
Li4 O2 2.146078 1_555
Li4 O15 2.147946 1_455
Li4 O7 2.166896 1_455
Li4 O10 2.167900 1_555
Li4 O6 2.179557 1_555
Li4 O11 2.179816 1_455
Li5 O3 2.157566 1_554
Li5 O2 2.164860 1_654
Li5 O14 2.166106 1_555
Li5 O11 2.167416 1_554
Li5 O5 2.174431 1_655
Li5 O12 2.198422 1_655
Li6 O13 2.156661 1_555
Li6 O15 2.164447 1_455
Li6 O8 2.166143 1_555
Li6 O6 2.168873 1_555
Li6 O1 2.173626 1_465
Li6 O9 2.198230 1_455
Li7 O1 2.166540 1_565
Li7 O8 2.174653 1_655
Li7 O12 2.175531 1_655
Li7 O4 2.177713 1_565
Li7 O14 2.184696 1_555
Li7 O0 2.189771 1_665
Cr0 O6 2.032535 1_555
Cr0 O4 2.032899 1_555
Cr0 O9 2.032959 1_555
Cr0 O0 2.034095 1_555
Cr0 O8 2.034199 1_555
Cr0 O1 2.036632 1_555
Cr1 O3 2.030327 1_555
Cr1 O7 2.030835 1_555
Cr1 O10 2.031918 1_555
Cr1 O11 2.033955 1_555
Cr1 O12 2.034327 1_556
Cr1 O2 2.046484 1_555
Cr2 O8 2.032360 1_555
Cr2 O3 2.033068 1_554
Cr2 O4 2.035386 1_555
Cr2 O14 2.035542 1_555
Cr2 O12 2.035893 1_555
Cr2 O5 2.037524 1_555
Cr3 O13 2.030314 1_555
Cr3 O10 2.031245 1_555
Cr3 O7 2.031793 1_555
Cr3 O6 2.033947 1_555
Cr3 O9 2.034186 1_555
Cr3 O15 2.046368 1_555
Cr4 O14 2.032632 1_555
Cr4 O13 2.032644 1_555
Cr4 O8 2.035472 1_555
Cr4 O0 2.035495 1_565
Cr4 O9 2.035968 1_555
Cr4 O1 2.037550 1_565
Cr5 O11 2.032387 1_554
Cr5 O12 2.032997 1_555
Cr5 O0 2.033040 1_565
Cr5 O14 2.034088 1_555
Cr5 O4 2.034189 1_565
Cr5 O5 2.036549 1_565
O1 V1 2.046698 1_555
O2 V0 2.042710 1_555
O2 V1 2.048700 1_555
O3 V0 2.064416 1_555
O5 V0 2.046849 1_554
O6 V1 2.041361 1_555
O7 V1 2.065052 1_555
O10 V0 2.063941 1_565
O11 V0 2.041596 1_565
O13 V1 2.065404 1_565
O15 V1 2.041954 1_565
O15 V0 2.049133 1_565
