# generated using pymatgen
data_LaTa2NO5
_symmetry_space_group_name_H-M   'P 1'
_cell_length_a   11.31642600
_cell_length_b   5.53326800
_cell_length_c   7.72976517
_cell_angle_alpha   89.88278832
_cell_angle_beta   90.00000000
_cell_angle_gamma   90.00000000
_symmetry_Int_Tables_number   1
_chemical_formula_structural   LaTa2NO5
_chemical_formula_sum   'La4 Ta8 N4 O20'
_cell_volume   484.01228524
_cell_formula_units_Z   4
loop_
 _symmetry_equiv_pos_site_id
 _symmetry_equiv_pos_as_xyz
  1  'x, y, z'
loop_
 _atom_site_type_symbol
 _atom_site_label
 _atom_site_symmetry_multiplicity
 _atom_site_fract_x
 _atom_site_fract_y
 _atom_site_fract_z
 _atom_site_occupancy
  La  La0  1  0.03592500  0.79735300  0.50029700  1
  La  La1  1  0.45592300  0.29558700  0.99837100  1
  La  La2  1  0.53592500  0.20264700  0.49970300  1
  La  La3  1  0.95592300  0.70441300  0.00162900  1
  Ta  Ta0  1  0.14940500  0.28828100  0.75618400  1
  Ta  Ta1  1  0.14203400  0.29393700  0.24736700  1
  Ta  Ta2  1  0.35340400  0.79718100  0.75250900  1
  Ta  Ta3  1  0.35951500  0.78177000  0.24645300  1
  Ta  Ta4  1  0.64203400  0.70606300  0.75263300  1
  Ta  Ta5  1  0.64940500  0.71171900  0.24381600  1
  Ta  Ta6  1  0.85340400  0.20281900  0.24749100  1
  Ta  Ta7  1  0.85951400  0.21823000  0.75354700  1
  N  N0  1  0.29110700  0.12331400  0.80379100  1
  N  N1  1  0.35606700  0.70066100  0.00061900  1
  N  N2  1  0.79110700  0.87668600  0.19620900  1
  N  N3  1  0.85606700  0.29933900  0.99938100  1
  O  O0  1  0.02392600  0.02583700  0.78323000  1
  O  O1  1  0.02686700  0.02308000  0.21617900  1
  O  O2  1  0.12234500  0.39974900  0.00123600  1
  O  O3  1  0.14229900  0.20500000  0.49915700  1
  O  O4  1  0.21145100  0.61710000  0.30890400  1
  O  O5  1  0.20931600  0.61941500  0.69117100  1
  O  O6  1  0.28676700  0.11961800  0.19887400  1
  O  O7  1  0.37991100  0.89878400  0.49939000  1
  O  O8  1  0.47256400  0.51245100  0.28792700  1
  O  O9  1  0.48117400  0.52130200  0.71315400  1
  O  O10  1  0.52686700  0.97692000  0.78382100  1
  O  O11  1  0.52392600  0.97416300  0.21677000  1
  O  O12  1  0.62234500  0.60025100  0.99876400  1
  O  O13  1  0.64229900  0.79500000  0.50084300  1
  O  O14  1  0.70931600  0.38058500  0.30882900  1
  O  O15  1  0.71145100  0.38290000  0.69109600  1
  O  O16  1  0.78676700  0.88038200  0.80112600  1
  O  O17  1  0.87991100  0.10121600  0.50061000  1
  O  O18  1  0.98117400  0.47869800  0.28684600  1
  O  O19  1  0.97256400  0.48754900  0.71207300  1
loop_
_geom_bond_atom_site_label_1
_geom_bond_atom_site_label_2
_geom_bond_distance
_geom_bond_site_symmetry_2
La0 O17 2.438041 1_465
La0 O19 2.474048 1_455
La0 O18 2.495382 1_455
La0 O1 2.526351 1_565
La0 O0 2.532016 1_565
La0 O3 2.556734 1_565
La0 O5 2.643934 1_555
La0 O4 2.671143 1_555
La1 N1 2.510217 1_556
La1 O12 2.527595 1_555
La1 O9 2.547699 1_555
La1 O8 2.548708 1_556
La1 O10 2.552643 1_545
La1 O11 2.567685 1_546
La1 N0 2.579808 1_555
La1 O6 2.647303 1_556
La2 O7 2.438041 1_545
La2 O8 2.474048 1_555
La2 O9 2.495382 1_555
La2 O10 2.526351 1_545
La2 O11 2.532016 1_545
La2 O13 2.556734 1_545
La2 O14 2.643934 1_555
La2 O15 2.671143 1_555
La3 N3 2.510217 1_554
La3 O2 2.527595 1_655
La3 O18 2.547699 1_555
La3 O19 2.548708 1_554
La3 O1 2.552643 1_665
La3 O0 2.567685 1_664
La3 N2 2.579808 1_555
La3 O16 2.647303 1_554
N0 Ta0 1.881134 1_555
N0 Ta2 1.978274 1_545
N1 Ta3 1.953801 1_555
N1 Ta2 1.989982 1_554
N2 Ta5 1.881134 1_555
N2 Ta6 1.978274 1_565
N3 Ta7 1.953801 1_555
N3 Ta6 1.989982 1_556
O0 Ta0 2.041469 1_555
O0 Ta7 2.155599 1_455
O1 Ta1 2.001076 1_555
O1 Ta6 2.214041 1_455
O2 Ta1 2.001879 1_555
O2 Ta0 2.016667 1_554
O3 Ta1 2.006555 1_555
O3 Ta0 2.042002 1_555
O4 Ta3 1.966961 1_555
O4 Ta1 2.011045 1_555
O5 Ta2 1.962895 1_555
O5 Ta0 2.016329 1_555
O6 Ta1 1.937765 1_555
O6 Ta3 2.074813 1_545
O7 Ta2 2.056607 1_555
O7 Ta3 2.073706 1_555
O8 Ta3 1.989521 1_555
O8 Ta5 2.309824 1_555
O9 Ta4 2.110279 1_555
O9 Ta2 2.124925 1_555
O10 Ta4 2.001076 1_555
O10 Ta2 2.214041 1_555
O11 Ta5 2.041469 1_555
O11 Ta3 2.155589 1_555
O12 Ta4 2.001879 1_555
O12 Ta5 2.016667 1_556
O13 Ta4 2.006555 1_555
O13 Ta5 2.042002 1_555
O14 Ta6 1.962895 1_555
O14 Ta5 2.016329 1_555
O15 Ta7 1.966951 1_555
O15 Ta4 2.011045 1_555
O16 Ta4 1.937765 1_555
O16 Ta7 2.074809 1_565
O17 Ta6 2.056607 1_555
O17 Ta7 2.073707 1_555
O18 Ta1 2.110279 1_655
O18 Ta6 2.124925 1_555
O19 Ta7 1.989528 1_555
O19 Ta0 2.309824 1_655
