# generated using pymatgen
data_Li4Fe3Cu3(TeO8)2
_symmetry_space_group_name_H-M   'P 1'
_cell_length_a   6.01719517
_cell_length_b   5.91719349
_cell_length_c   9.86472506
_cell_angle_alpha   90.01827159
_cell_angle_beta   87.55297052
_cell_angle_gamma   119.53457753
_symmetry_Int_Tables_number   1
_chemical_formula_structural   Li4Fe3Cu3(TeO8)2
_chemical_formula_sum   'Li4 Fe3 Cu3 Te2 O16'
_cell_volume   305.22740950
_cell_formula_units_Z   1
loop_
 _symmetry_equiv_pos_site_id
 _symmetry_equiv_pos_as_xyz
  1  'x, y, z'
loop_
 _atom_site_type_symbol
 _atom_site_label
 _atom_site_symmetry_multiplicity
 _atom_site_fract_x
 _atom_site_fract_y
 _atom_site_fract_z
 _atom_site_occupancy
  Li  Li0  1  0.32660300  0.66321900  0.91545000  1
  Li  Li1  1  0.99770500  0.99928000  0.98384900  1
  Li  Li2  1  0.00535600  0.00254500  0.47925900  1
  Li  Li3  1  0.68303400  0.34163700  0.41336700  1
  Fe  Fe0  1  0.65885100  0.82950100  0.21444000  1
  Fe  Fe1  1  0.82274400  0.65789800  0.71294300  1
  Fe  Fe2  1  0.82273900  0.16480800  0.71291000  1
  Cu  Cu0  1  0.17247800  0.83251100  0.20952600  1
  Cu  Cu1  1  0.17247500  0.33996800  0.20947000  1
  Cu  Cu2  1  0.33805400  0.16883200  0.70802600  1
  Te  Te0  1  0.34208000  0.67110900  0.48300400  1
  Te  Te1  1  0.65542800  0.32753100  0.98332100  1
  O  O0  1  0.16346500  0.82414800  0.58660600  1
  O  O1  1  0.05841700  0.52981600  0.35003300  1
  O  O2  1  0.33261900  0.66675400  0.11857300  1
  O  O3  1  0.00477300  0.00200100  0.28908200  1
  O  O4  1  0.00118100  0.00076800  0.79379400  1
  O  O5  1  0.16296800  0.33935900  0.58643200  1
  O  O6  1  0.51514300  0.97703500  0.36154400  1
  O  O7  1  0.51431300  0.53769100  0.36146900  1
  O  O8  1  0.32013000  0.15957900  0.08751300  1
  O  O9  1  0.65098100  0.82536600  0.60022200  1
  O  O10  1  0.52172800  0.48790800  0.85585300  1
  O  O11  1  0.52228700  0.03322900  0.85596300  1
  O  O12  1  0.66873300  0.33421000  0.61295400  1
  O  O13  1  0.80438200  0.64604100  0.08715100  1
  O  O14  1  0.95656100  0.47853300  0.84775600  1
  O  O15  1  0.80476900  0.15902300  0.08732900  1
loop_
_geom_bond_atom_site_label_1
_geom_bond_atom_site_label_2
_geom_bond_distance
_geom_bond_site_symmetry_2
Li0 O11 1.981049 1_565
Li0 O10 1.985372 1_555
Li0 O2 2.005541 1_556
Li0 O14 2.079791 1_455
Li1 O4 1.874039 1_665
Li1 O8 2.015919 1_666
Li1 O15 2.064782 1_566
Li1 O13 2.064823 1_556
Li2 O3 1.876196 1_555
Li2 O5 2.051829 1_555
Li2 O0 2.053692 1_545
Li2 O9 2.156251 1_445
Li3 O6 1.957298 1_545
Li3 O7 1.960740 1_555
Li3 O12 1.966634 1_555
Li3 O1 2.032849 1_655
Fe0 O3 1.988052 1_665
Fe0 O2 1.992317 1_555
Fe0 O6 2.062023 1_555
Fe0 O7 2.062734 1_555
Fe0 O13 2.089126 1_555
Fe0 O15 2.089212 1_565
Fe1 O12 1.956298 1_555
Fe1 O4 1.956925 1_665
Fe1 O10 2.065569 1_555
Fe1 O9 2.096467 1_555
Fe1 O14 2.116196 1_555
Fe1 O0 2.125655 1_655
Fe2 O12 1.957100 1_555
Fe2 O4 1.957768 1_655
Fe2 O11 2.064257 1_555
Fe2 O9 2.094810 1_545
Fe2 O14 2.116638 1_555
Fe2 O5 2.124298 1_655
Cu0 O2 1.884924 1_555
Cu0 O3 1.889360 1_565
Cu0 O8 2.049029 1_565
Cu0 O1 2.075735 1_555
Cu0 O13 2.323495 1_455
Cu0 O6 2.399238 1_555
Cu1 O2 1.887301 1_555
Cu1 O3 1.891586 1_555
Cu1 O8 2.054015 1_555
Cu1 O1 2.081712 1_555
Cu1 O15 2.320520 1_455
Cu1 O7 2.395337 1_555
Cu2 O4 1.918428 1_555
Cu2 O12 1.928185 1_555
Cu2 O0 2.166005 1_545
Cu2 O5 2.173385 1_555
Cu2 O10 2.234131 1_555
Cu2 O11 2.240161 1_555
O0 Te0 1.970989 1_555
O1 Te0 2.028927 1_555
O5 Te0 1.969157 1_555
O6 Te0 1.957876 1_555
O7 Te0 1.958212 1_555
O8 Te1 1.990325 1_554
O9 Te0 2.033535 1_555
O10 Te1 1.992176 1_555
O11 Te1 1.990466 1_555
O13 Te1 1.953517 1_554
O14 Te1 2.016848 1_555
O15 Te1 1.953753 1_554
