# generated using pymatgen
data_Be4Si2H2O9
_symmetry_space_group_name_H-M   'P 1'
_cell_length_a   8.86411573
_cell_length_b   8.86411573
_cell_length_c   4.61165700
_cell_angle_alpha   90.00000000
_cell_angle_beta   90.00000000
_cell_angle_gamma   120.61995638
_symmetry_Int_Tables_number   1
_chemical_formula_structural   Be4Si2H2O9
_chemical_formula_sum   'Be8 Si4 H4 O18'
_cell_volume   311.82529942
_cell_formula_units_Z   2
loop_
 _symmetry_equiv_pos_site_id
 _symmetry_equiv_pos_as_xyz
  1  'x, y, z'
loop_
 _atom_site_type_symbol
 _atom_site_label
 _atom_site_symmetry_multiplicity
 _atom_site_fract_x
 _atom_site_fract_y
 _atom_site_fract_z
 _atom_site_occupancy
  Be  Be0  1  0.87971500  0.77488300  0.99422400  1
  Be  Be1  1  0.22511700  0.12028500  0.99422400  1
  Be  Be2  1  0.12028500  0.22511700  0.49422400  1
  Be  Be3  1  0.77488300  0.87971500  0.49422400  1
  Be  Be4  1  0.89413200  0.45434700  0.99853100  1
  Be  Be5  1  0.54565300  0.10586800  0.99853100  1
  Be  Be6  1  0.10586800  0.54565300  0.49853100  1
  Be  Be7  1  0.45434700  0.89413200  0.49853100  1
  Si  Si0  1  0.20992700  0.43871400  0.99731300  1
  Si  Si1  1  0.56128600  0.79007300  0.99731300  1
  Si  Si2  1  0.79007300  0.56128600  0.49731300  1
  Si  Si3  1  0.43871400  0.20992700  0.49731300  1
  H  H0  1  0.86406800  0.13593200  0.68399500  1
  H  H1  1  0.13593200  0.86406800  0.18399500  1
  H  H2  1  0.80193900  0.19806100  0.19670900  1
  H  H3  1  0.19806100  0.80193900  0.69670900  1
  O  O0  1  0.16374000  0.41282400  0.64966300  1
  O  O1  1  0.58717600  0.83626000  0.64966300  1
  O  O2  1  0.83626000  0.58717600  0.14966300  1
  O  O3  1  0.41282400  0.16374000  0.14966300  1
  O  O4  1  0.16801800  0.25267000  0.14578100  1
  O  O5  1  0.74733000  0.83198200  0.14578100  1
  O  O6  1  0.83198200  0.74733000  0.64578100  1
  O  O7  1  0.25267000  0.16801800  0.64578100  1
  O  O8  1  0.08163900  0.49968900  0.15068300  1
  O  O9  1  0.50031100  0.91836100  0.15068300  1
  O  O10  1  0.91836100  0.50031100  0.65068300  1
  O  O11  1  0.49968900  0.08163900  0.65068300  1
  O  O12  1  0.58568000  0.41432000  0.55656500  1
  O  O13  1  0.41432000  0.58568000  0.05656500  1
  O  O14  1  0.91234200  0.08765800  0.54666800  1
  O  O15  1  0.08765800  0.91234200  0.04666800  1
  O  O16  1  0.75449500  0.24550500  0.05587100  1
  O  O17  1  0.24550500  0.75449500  0.55587100  1
loop_
_geom_bond_atom_site_label_1
_geom_bond_atom_site_label_2
_geom_bond_distance
_geom_bond_site_symmetry_2
Be0 O15 1.628733 1_656
Be0 O6 1.647887 1_555
Be0 O5 1.651287 1_556
Be0 O2 1.666662 1_556
Be1 O15 1.628733 1_546
Be1 O7 1.647887 1_555
Be1 O4 1.651287 1_556
Be1 O3 1.666662 1_556
Be2 O14 1.628733 1_455
Be2 O4 1.647887 1_555
Be2 O7 1.651287 1_555
Be2 O0 1.666662 1_555
Be3 O14 1.628733 1_565
Be3 O5 1.647887 1_555
Be3 O6 1.651287 1_555
Be3 O1 1.666662 1_555
Be4 O16 1.641574 1_556
Be4 O10 1.642042 1_555
Be4 O8 1.654057 1_656
Be4 O2 1.658461 1_556
Be5 O16 1.641574 1_556
Be5 O11 1.642042 1_555
Be5 O9 1.654057 1_546
Be5 O3 1.658461 1_556
Be6 O17 1.641574 1_555
Be6 O8 1.642042 1_555
Be6 O10 1.654057 1_455
Be6 O0 1.658461 1_555
Be7 O17 1.641574 1_555
Be7 O9 1.642042 1_555
Be7 O11 1.654057 1_565
Be7 O1 1.658461 1_555
H0 O14 0.976631 1_555
H1 O15 0.976631 1_555
H2 O16 0.977617 1_555
H3 O17 0.977617 1_555
O0 Si0 1.641632 1_555
O1 Si1 1.641632 1_555
O2 Si2 1.641632 1_555
O3 Si3 1.641632 1_555
O4 Si0 1.643869 1_554
O5 Si1 1.643869 1_554
O6 Si2 1.643869 1_555
O7 Si3 1.643869 1_555
O8 Si0 1.646701 1_554
O9 Si1 1.646701 1_554
O10 Si2 1.646701 1_555
O11 Si3 1.646701 1_555
O12 Si2 1.627857 1_555
O12 Si3 1.627857 1_555
O13 Si1 1.627857 1_554
O13 Si0 1.627857 1_554
