# generated using pymatgen
data_SbPC(ClO)3
_symmetry_space_group_name_H-M   'P 1'
_cell_length_a   10.51437400
_cell_length_b   18.40937400
_cell_length_c   18.74774712
_cell_angle_alpha   79.44461191
_cell_angle_beta   90.00000000
_cell_angle_gamma   90.00000000
_symmetry_Int_Tables_number   1
_chemical_formula_structural   SbPC(ClO)3
_chemical_formula_sum   'Sb16 P16 C16 Cl48 O48'
_cell_volume   3567.46425100
_cell_formula_units_Z   16
loop_
 _symmetry_equiv_pos_site_id
 _symmetry_equiv_pos_as_xyz
  1  'x, y, z'
loop_
 _atom_site_type_symbol
 _atom_site_label
 _atom_site_symmetry_multiplicity
 _atom_site_fract_x
 _atom_site_fract_y
 _atom_site_fract_z
 _atom_site_occupancy
  Sb  Sb0  1  0.90768000  0.97654800  0.81585400  1
  Sb  Sb1  1  0.40768000  0.52345200  0.18414600  1
  Sb  Sb2  1  0.09232000  0.02345200  0.18414600  1
  Sb  Sb3  1  0.59232000  0.47654800  0.81585400  1
  Sb  Sb4  1  0.88915100  0.79692500  0.61352400  1
  Sb  Sb5  1  0.38915100  0.70307500  0.38647600  1
  Sb  Sb6  1  0.11084900  0.20307500  0.38647600  1
  Sb  Sb7  1  0.61084900  0.29692500  0.61352400  1
  Sb  Sb8  1  0.32457000  0.93051900  0.67448400  1
  Sb  Sb9  1  0.82457000  0.56948100  0.32551600  1
  Sb  Sb10  1  0.67543000  0.06948100  0.32551600  1
  Sb  Sb11  1  0.17543000  0.43051900  0.67448400  1
  Sb  Sb12  1  0.13112000  0.71913700  0.87508900  1
  Sb  Sb13  1  0.63112000  0.78086300  0.12491100  1
  Sb  Sb14  1  0.86888000  0.28086300  0.12491100  1
  Sb  Sb15  1  0.36888000  0.21913700  0.87508900  1
  P  P0  1  0.85588600  0.80377300  0.79800600  1
  P  P1  1  0.35588600  0.69622700  0.20199400  1
  P  P2  1  0.14411400  0.19622700  0.20199400  1
  P  P3  1  0.64411400  0.30377300  0.79800600  1
  P  P4  1  0.01830300  0.96154800  0.64451700  1
  P  P5  1  0.51830300  0.53845200  0.35548300  1
  P  P6  1  0.98169700  0.03845200  0.35548300  1
  P  P7  1  0.48169700  0.46154800  0.64451700  1
  P  P8  1  0.18094700  0.75732300  0.69758800  1
  P  P9  1  0.68094700  0.74267700  0.30241200  1
  P  P10  1  0.81905300  0.24267700  0.30241200  1
  P  P11  1  0.31905300  0.25732300  0.69758800  1
  P  P12  1  0.20692900  0.90425000  0.84830500  1
  P  P13  1  0.70692900  0.59575000  0.15169500  1
  P  P14  1  0.79307100  0.09575000  0.15169500  1
  P  P15  1  0.29307100  0.40425000  0.84830500  1
  C  C0  1  0.73897600  0.73561600  0.83845300  1
  C  C1  1  0.23897600  0.76438400  0.16154700  1
  C  C2  1  0.26102400  0.26438400  0.16154700  1
  C  C3  1  0.76102400  0.23561600  0.83845300  1
  C  C4  1  0.92734500  0.03578400  0.58997400  1
  C  C5  1  0.42734500  0.46421600  0.41002600  1
  C  C6  1  0.07265500  0.96421600  0.41002600  1
  C  C7  1  0.57265500  0.53578400  0.58997400  1
  C  C8  1  0.28177600  0.71639300  0.63677300  1
  C  C9  1  0.78177600  0.78360700  0.36322700  1
  C  C10  1  0.71822400  0.28360700  0.36322700  1
  C  C11  1  0.21822400  0.21639300  0.63677300  1
  C  C12  1  0.30985000  0.93029100  0.91745800  1
  C  C13  1  0.80985000  0.56970900  0.08254200  1
  C  C14  1  0.69015000  0.06970900  0.08254200  1
  C  C15  1  0.19015000  0.43029100  0.91745800  1
  Cl  Cl0  1  0.02258300  0.08720400  0.78302400  1
  Cl  Cl1  1  0.52258300  0.41279600  0.21697600  1
  Cl  Cl2  1  0.97741700  0.91279600  0.21697600  1
  Cl  Cl3  1  0.47741700  0.58720400  0.78302400  1
  Cl  Cl4  1  0.84260000  0.99306200  0.93096900  1
  Cl  Cl5  1  0.34260000  0.50693800  0.06903100  1
  Cl  Cl6  1  0.15740000  0.00693800  0.06903100  1
  Cl  Cl7  1  0.65740000  0.49306200  0.93096900  1
  Cl  Cl8  1  0.72053700  0.02106700  0.75512300  1
  Cl  Cl9  1  0.22053700  0.47893300  0.24487700  1
  Cl  Cl10  1  0.27946300  0.97893300  0.24487700  1
  Cl  Cl11  1  0.77946300  0.52106700  0.75512300  1
  Cl  Cl12  1  0.78172100  0.68364200  0.63474600  1
  Cl  Cl13  1  0.28172100  0.81635800  0.36525400  1
  Cl  Cl14  1  0.21827900  0.31635800  0.36525400  1
  Cl  Cl15  1  0.71827900  0.18364200  0.63474600  1
  Cl  Cl16  1  0.99462800  0.77953400  0.50783800  1
  Cl  Cl17  1  0.49462800  0.72046600  0.49216200  1
  Cl  Cl18  1  0.00537200  0.22046600  0.49216200  1
  Cl  Cl19  1  0.50537200  0.27953400  0.50783800  1
  Cl  Cl20  1  0.71691500  0.86590000  0.55803100  1
  Cl  Cl21  1  0.21691500  0.63410000  0.44196900  1
  Cl  Cl22  1  0.28308500  0.13410000  0.44196900  1
  Cl  Cl23  1  0.78308500  0.36590000  0.55803100  1
  Cl  Cl24  1  0.42641000  0.04517700  0.66157200  1
  Cl  Cl25  1  0.92641000  0.45482300  0.33842800  1
  Cl  Cl26  1  0.57359000  0.95482300  0.33842800  1
  Cl  Cl27  1  0.07359000  0.54517700  0.66157200  1
  Cl  Cl28  1  0.49191000  0.85691400  0.73066300  1
  Cl  Cl29  1  0.99191000  0.64308600  0.26933700  1
  Cl  Cl30  1  0.50809000  0.14308600  0.26933700  1
  Cl  Cl31  1  0.00809000  0.35691400  0.73066300  1
  Cl  Cl32  1  0.36689700  0.90955700  0.55689300  1
  Cl  Cl33  1  0.86689700  0.59044300  0.44310700  1
  Cl  Cl34  1  0.63310300  0.09044300  0.44310700  1
  Cl  Cl35  1  0.13310300  0.40955700  0.55689300  1
  Cl  Cl36  1  0.01533900  0.60999600  0.87419000  1
  Cl  Cl37  1  0.51533900  0.89000400  0.12581000  1
  Cl  Cl38  1  0.98466100  0.39000400  0.12581000  1
  Cl  Cl39  1  0.48466100  0.10999600  0.87419000  1
  Cl  Cl40  1  0.03641900  0.74570600  0.98085500  1
  Cl  Cl41  1  0.53641900  0.75429400  0.01914500  1
  Cl  Cl42  1  0.96358100  0.25429400  0.01914500  1
  Cl  Cl43  1  0.46358100  0.24570600  0.98085500  1
  Cl  Cl44  1  0.31506700  0.66275800  0.92874100  1
  Cl  Cl45  1  0.81506700  0.83724200  0.07125900  1
  Cl  Cl46  1  0.68493300  0.33724200  0.07125900  1
  Cl  Cl47  1  0.18493300  0.16275800  0.92874100  1
  O  O0  1  0.82471800  0.87274100  0.83154400  1
  O  O1  1  0.32471800  0.62725900  0.16845600  1
  O  O2  1  0.17528200  0.12725900  0.16845600  1
  O  O3  1  0.67528200  0.37274100  0.83154400  1
  O  O4  1  0.98352600  0.89826200  0.60334500  1
  O  O5  1  0.48352600  0.60173800  0.39665500  1
  O  O6  1  0.01647400  0.10173800  0.39665500  1
  O  O7  1  0.51647400  0.39826200  0.60334500  1
  O  O8  1  0.20196400  0.84079600  0.69395000  1
  O  O9  1  0.70196400  0.65920400  0.30605000  1
  O  O10  1  0.79803600  0.15920400  0.30605000  1
  O  O11  1  0.29803600  0.34079600  0.69395000  1
  O  O12  1  0.23049400  0.81967100  0.86206300  1
  O  O13  1  0.73049400  0.68032900  0.13793700  1
  O  O14  1  0.76950600  0.18032900  0.13793700  1
  O  O15  1  0.26950600  0.31967100  0.86206300  1
  O  O16  1  0.97670100  0.93994700  0.72448200  1
  O  O17  1  0.47670100  0.56005300  0.27551800  1
  O  O18  1  0.02329900  0.06005300  0.27551800  1
  O  O19  1  0.52329900  0.43994700  0.72448200  1
  O  O20  1  0.15949500  0.98430500  0.63571500  1
  O  O21  1  0.65949500  0.51569500  0.36428500  1
  O  O22  1  0.84050500  0.01569500  0.36428500  1
  O  O23  1  0.34050500  0.48430500  0.63571500  1
  O  O24  1  0.25689700  0.94658000  0.77471400  1
  O  O25  1  0.75689700  0.55342000  0.22528600  1
  O  O26  1  0.74310300  0.05342000  0.22528600  1
  O  O27  1  0.24310300  0.44658000  0.77471400  1
  O  O28  1  0.06689800  0.92304200  0.86285700  1
  O  O29  1  0.56689800  0.57695800  0.13714300  1
  O  O30  1  0.93310200  0.07695800  0.13714300  1
  O  O31  1  0.43310200  0.42304200  0.86285700  1
  O  O32  1  0.81973500  0.81084300  0.71662600  1
  O  O33  1  0.31973500  0.68915700  0.28337400  1
  O  O34  1  0.18026500  0.18915700  0.28337400  1
  O  O35  1  0.68026500  0.31084300  0.71662600  1
  O  O36  1  0.04698600  0.74262100  0.66897500  1
  O  O37  1  0.54698600  0.75737900  0.33102500  1
  O  O38  1  0.95301400  0.25737900  0.33102500  1
  O  O39  1  0.45301400  0.24262100  0.66897500  1
  O  O40  1  0.20673800  0.71224400  0.77492200  1
  O  O41  1  0.70673800  0.78775600  0.22507800  1
  O  O42  1  0.79326200  0.28775600  0.22507800  1
  O  O43  1  0.29326200  0.21224400  0.77492200  1
  O  O44  1  0.99703600  0.78126300  0.80926300  1
  O  O45  1  0.49703600  0.71873700  0.19073700  1
  O  O46  1  0.00296400  0.21873700  0.19073700  1
  O  O47  1  0.50296400  0.28126300  0.80926300  1
loop_
_geom_bond_atom_site_label_1
_geom_bond_atom_site_label_2
_geom_bond_distance
_geom_bond_site_symmetry_2
C0 P0 1.819830 1_555
C1 P1 1.819830 1_555
C2 P2 1.819830 1_555
C3 P3 1.819830 1_555
C4 P4 1.820980 1_645
C5 P5 1.820980 1_555
C6 P6 1.820980 1_465
C7 P7 1.820980 1_555
C8 P8 1.818340 1_555
C9 P9 1.818340 1_555
C10 P10 1.818340 1_555
C11 P11 1.818340 1_555
C12 P12 1.819174 1_555
C13 P13 1.819174 1_555
C14 P14 1.819174 1_555
C15 P15 1.819174 1_555
Cl0 Sb0 2.351352 1_445
Cl1 Sb1 2.351352 1_555
Cl2 Sb2 2.351352 1_665
Cl3 Sb3 2.351352 1_555
Cl4 Sb0 2.336372 1_555
Cl5 Sb1 2.336372 1_555
Cl6 Sb2 2.336372 1_555
Cl7 Sb3 2.336372 1_555
Cl8 Sb0 2.344774 1_545
Cl9 Sb1 2.344774 1_555
Cl10 Sb2 2.344774 1_565
Cl11 Sb3 2.344774 1_555
Cl12 Sb4 2.340810 1_555
Cl13 Sb5 2.340810 1_555
Cl14 Sb6 2.340810 1_555
Cl15 Sb7 2.340810 1_555
Cl16 Sb4 2.343222 1_555
Cl17 Sb5 2.343222 1_555
Cl18 Sb6 2.343222 1_555
Cl19 Sb7 2.343222 1_555
Cl20 Sb4 2.343136 1_555
Cl21 Sb5 2.343136 1_555
Cl22 Sb6 2.343136 1_555
Cl23 Sb7 2.343136 1_555
Cl24 Sb8 2.339525 1_545
Cl25 Sb9 2.339525 1_555
Cl26 Sb10 2.339525 1_565
Cl27 Sb11 2.339525 1_555
Cl28 Sb8 2.349098 1_555
Cl29 Sb9 2.349098 1_555
Cl30 Sb10 2.349098 1_555
Cl31 Sb11 2.349098 1_555
Cl32 Sb8 2.349208 1_555
Cl33 Sb9 2.349208 1_555
Cl34 Sb10 2.349208 1_555
Cl35 Sb11 2.349208 1_555
Cl36 Sb12 2.351940 1_555
Cl37 Sb13 2.351940 1_555
Cl38 Sb14 2.351940 1_555
Cl39 Sb15 2.351940 1_555
Cl40 Sb12 2.349004 1_555
Cl41 Sb13 2.349004 1_555
Cl42 Sb14 2.349004 1_555
Cl43 Sb15 2.349004 1_555
Cl44 Sb12 2.333922 1_555
Cl45 Sb13 2.333922 1_555
Cl46 Sb14 2.333922 1_555
Cl47 Sb15 2.333922 1_555
O0 P0 1.551530 1_555
O0 Sb0 2.072071 1_555
O1 P1 1.551530 1_555
O1 Sb1 2.072071 1_555
O2 P2 1.551530 1_555
O2 Sb2 2.072071 1_555
O3 P3 1.551530 1_555
O3 Sb3 2.072071 1_555
O4 P4 1.554457 1_655
O4 Sb4 2.090673 1_555
O5 P5 1.554457 1_555
O5 Sb5 2.090673 1_555
O6 P6 1.554457 1_455
O6 Sb6 2.090673 1_555
O7 P7 1.554457 1_555
O7 Sb7 2.090673 1_555
O8 P8 1.541586 1_555
O8 Sb8 2.074233 1_555
O9 P9 1.541586 1_555
O9 Sb9 2.074233 1_555
O10 P10 1.541586 1_555
O10 Sb10 2.074233 1_555
O11 P11 1.541586 1_555
O11 Sb11 2.074233 1_555
O12 P12 1.550862 1_555
O12 Sb12 2.100265 1_555
O13 P13 1.550862 1_555
O13 Sb13 2.100265 1_555
O14 P14 1.550862 1_555
O14 Sb14 2.100265 1_555
O15 P15 1.550862 1_555
O15 Sb15 2.100265 1_555
O16 P4 1.542253 1_655
O16 Sb0 2.082782 1_555
O17 P5 1.542253 1_555
O17 Sb1 2.082782 1_555
O18 P6 1.542253 1_455
O18 Sb2 2.082782 1_555
O19 P7 1.542253 1_555
O19 Sb3 2.082782 1_555
O20 P4 1.543143 1_555
O20 Sb8 2.063385 1_555
O21 P5 1.543143 1_555
O21 Sb9 2.063385 1_555
O22 P6 1.543143 1_555
O22 Sb10 2.063385 1_555
O23 P7 1.543143 1_555
O23 Sb11 2.063385 1_555
O24 P12 1.546889 1_555
O24 Sb8 2.080440 1_555
O25 P13 1.546889 1_555
O25 Sb9 2.080440 1_555
O26 P14 1.546889 1_555
O26 Sb10 2.080440 1_555
O27 P15 1.546889 1_555
O27 Sb11 2.080440 1_555
O28 P12 1.548053 1_555
O28 Sb0 2.057010 1_455
O29 P13 1.548053 1_555
O29 Sb1 2.057010 1_555
O30 P14 1.548053 1_555
O30 Sb2 2.057010 1_655
O31 P15 1.548053 1_555
O31 Sb3 2.057010 1_555
O32 P0 1.554478 1_555
O32 Sb4 2.125093 1_555
O33 P1 1.554478 1_555
O33 Sb5 2.125093 1_555
O34 P2 1.554478 1_555
O34 Sb6 2.125093 1_555
O35 P3 1.554478 1_555
O35 Sb7 2.125093 1_555
O36 P8 1.548587 1_555
O36 Sb4 2.110316 1_455
O37 P9 1.548587 1_555
O37 Sb5 2.110316 1_555
O38 P10 1.548587 1_555
O38 Sb6 2.110316 1_655
O39 P11 1.548587 1_555
O39 Sb7 2.110316 1_555
O40 P8 1.556743 1_555
O40 Sb12 2.064481 1_555
O41 P9 1.556743 1_555
O41 Sb13 2.064481 1_555
O42 P10 1.556743 1_555
O42 Sb14 2.064481 1_555
O43 P11 1.556743 1_555
O43 Sb15 2.064481 1_555
O44 P0 1.544923 1_555
O44 Sb12 2.074001 1_655
O45 P1 1.544923 1_555
O45 Sb13 2.074001 1_555
O46 P2 1.544923 1_555
O46 Sb14 2.074001 1_455
O47 P3 1.544923 1_555
O47 Sb15 2.074001 1_555
