# generated using pymatgen
data_Mn6O5F7
_symmetry_space_group_name_H-M   'P 1'
_cell_length_a   4.74537500
_cell_length_b   5.75731530
_cell_length_c   15.59549659
_cell_angle_alpha   88.82690879
_cell_angle_beta   88.61049917
_cell_angle_gamma   85.49082347
_symmetry_Int_Tables_number   1
_chemical_formula_structural   Mn6O5F7
_chemical_formula_sum   'Mn12 O10 F14'
_cell_volume   424.56122565
_cell_formula_units_Z   2
loop_
 _symmetry_equiv_pos_site_id
 _symmetry_equiv_pos_as_xyz
  1  'x, y, z'
loop_
 _atom_site_type_symbol
 _atom_site_label
 _atom_site_symmetry_multiplicity
 _atom_site_fract_x
 _atom_site_fract_y
 _atom_site_fract_z
 _atom_site_occupancy
  Mn  Mn0  1  0.01067700  0.84828000  0.41582900  1
  Mn  Mn1  1  0.96631800  0.16158900  0.24317600  1
  Mn  Mn2  1  0.98100200  0.82778000  0.08751800  1
  Mn  Mn3  1  0.97334700  0.83569900  0.75014400  1
  Mn  Mn4  1  0.97329500  0.16856400  0.57808600  1
  Mn  Mn5  1  0.99879900  0.15898000  0.90845800  1
  Mn  Mn6  1  0.48841800  0.64268100  0.59354000  1
  Mn  Mn7  1  0.50802700  0.65682400  0.91999100  1
  Mn  Mn8  1  0.50496600  0.64367500  0.25406900  1
  Mn  Mn9  1  0.50636800  0.36316300  0.08806600  1
  Mn  Mn10  1  0.51875700  0.34848800  0.41144100  1
  Mn  Mn11  1  0.53105400  0.36367900  0.75076100  1
  O  O0  1  0.76544100  0.11684600  0.14109200  1
  O  O1  1  0.78501200  0.11900200  0.46724500  1
  O  O2  1  0.77244200  0.11433200  0.80169200  1
  O  O3  1  0.71045200  0.60822200  0.14520200  1
  O  O4  1  0.72608400  0.38388900  0.30519800  1
  O  O5  1  0.71719300  0.39092600  0.64146000  1
  O  O6  1  0.72831800  0.61551600  0.81262300  1
  O  O7  1  0.28309800  0.61422900  0.02720400  1
  O  O8  1  0.29001000  0.61765200  0.36268200  1
  O  O9  1  0.26579800  0.60324600  0.69758900  1
  F  F0  1  0.76949600  0.88211500  0.30926700  1
  F  F1  1  0.75934400  0.88924200  0.63489800  1
  F  F2  1  0.77208700  0.88949700  0.97161900  1
  F  F3  1  0.73891800  0.62147000  0.48524500  1
  F  F4  1  0.74891900  0.39083400  0.97567200  1
  F  F5  1  0.24600100  0.38782500  0.19391400  1
  F  F6  1  0.28003400  0.37410700  0.51857600  1
  F  F7  1  0.29359600  0.37948000  0.85877900  1
  F  F8  1  0.23288400  0.88657600  0.19924900  1
  F  F9  1  0.23918600  0.87662500  0.52942200  1
  F  F10  1  0.21937500  0.11728100  0.34755000  1
  F  F11  1  0.24126500  0.12175000  0.02646900  1
  F  F12  1  0.24085100  0.87985500  0.85961900  1
  F  F13  1  0.21316700  0.10008200  0.68665500  1
loop_
_geom_bond_atom_site_label_1
_geom_bond_atom_site_label_2
_geom_bond_distance
_geom_bond_site_symmetry_2
Mn0 O8 1.980438 1_555
Mn0 O1 1.991519 1_465
Mn1 O0 1.907524 1_555
Mn1 O4 1.908145 1_555
Mn2 O7 2.038703 1_655
Mn2 O3 2.051356 1_555
Mn2 O0 2.064451 1_565
Mn3 O2 1.975789 1_565
Mn3 O6 2.008643 1_555
Mn3 O9 2.021513 1_655
Mn4 O5 1.960010 1_555
Mn4 O1 2.000758 1_555
Mn5 O2 2.034701 1_555
Mn6 O5 1.893547 1_555
Mn6 O9 1.933958 1_555
Mn7 O6 1.960988 1_555
Mn7 O7 1.983168 1_556
Mn8 O4 1.928427 1_555
Mn8 O3 1.943642 1_555
Mn8 O8 1.965195 1_555
Mn9 O7 1.965867 1_555
Mn9 O0 1.983312 1_555
Mn9 O3 2.007651 1_555
Mn10 O4 1.921846 1_555
Mn10 O1 1.960404 1_555
Mn10 O8 1.971108 1_555
Mn11 O5 1.910056 1_555
Mn11 O2 1.934620 1_555
Mn11 O9 1.976168 1_555
Mn11 O6 2.055178 1_555
F0 Mn0 2.038042 1_655
F0 Mn8 2.138474 1_555
F0 Mn1 2.155315 1_565
F1 Mn3 2.091239 1_555
F1 Mn6 2.109179 1_555
F1 Mn4 2.134641 1_565
F2 Mn7 2.090440 1_555
F2 Mn2 2.093173 1_556
F2 Mn5 2.164100 1_565
F3 Mn6 2.041726 1_555
F3 Mn0 2.163189 1_655
F3 Mn10 2.297162 1_555
F4 Mn5 2.008689 1_555
F4 Mn7 2.030859 1_555
F4 Mn9 2.083788 1_556
F5 Mn9 2.038332 1_555
F5 Mn1 2.056605 1_455
F5 Mn8 2.226467 1_555
F6 Mn10 1.997181 1_555
F6 Mn4 2.130922 1_455
F6 Mn6 2.259665 1_555
F7 Mn11 2.003489 1_555
F7 Mn5 2.086924 1_455
F7 Mn7 2.204853 1_555
F8 Mn8 2.018491 1_555
F8 Mn1 2.064907 1_465
F8 Mn2 2.183657 1_455
F9 Mn6 1.991112 1_555
F9 Mn0 2.115100 1_555
F9 Mn4 2.159948 1_465
F10 Mn1 2.046060 1_455
F10 Mn0 2.153075 1_545
F10 Mn10 2.281095 1_555
F11 Mn5 2.191984 1_454
F11 Mn9 2.196685 1_555
F11 Mn2 2.345625 1_445
F12 Mn7 1.973612 1_555
F12 Mn5 2.049248 1_465
F12 Mn3 2.182791 1_455
F13 Mn4 2.076919 1_455
F13 Mn3 2.179087 1_445
F13 Mn11 2.464438 1_555
