# generated using pymatgen
data_Li3Co4(BO3)4
_symmetry_space_group_name_H-M   'P 1'
_cell_length_a   8.92680300
_cell_length_b   5.21697100
_cell_length_c   11.25478916
_cell_angle_alpha   64.10455576
_cell_angle_beta   90.00000000
_cell_angle_gamma   90.00000000
_symmetry_Int_Tables_number   1
_chemical_formula_structural   Li3Co4(BO3)4
_chemical_formula_sum   'Li6 Co8 B8 O24'
_cell_volume   471.51722922
_cell_formula_units_Z   2
loop_
 _symmetry_equiv_pos_site_id
 _symmetry_equiv_pos_as_xyz
  1  'x, y, z'
loop_
 _atom_site_type_symbol
 _atom_site_label
 _atom_site_symmetry_multiplicity
 _atom_site_fract_x
 _atom_site_fract_y
 _atom_site_fract_z
 _atom_site_occupancy
  Li  Li0  1  0.25457200  0.98914500  0.84886900  1
  Li  Li1  1  0.24544100  0.56060700  0.58957300  1
  Li  Li2  1  0.75455900  0.56060700  0.08957300  1
  Li  Li3  1  0.75310400  0.07304500  0.59308400  1
  Li  Li4  1  0.74542800  0.98914500  0.34886900  1
  Li  Li5  1  0.24689600  0.07304500  0.09308400  1
  Co  Co0  1  0.41303200  0.54218800  0.13244500  1
  Co  Co1  1  0.40652900  0.96865100  0.37188400  1
  Co  Co2  1  0.59347100  0.96865100  0.87188400  1
  Co  Co3  1  0.58696800  0.54218800  0.63244500  1
  Co  Co4  1  0.92349400  0.47770200  0.35904300  1
  Co  Co5  1  0.91638200  0.04760700  0.11226000  1
  Co  Co6  1  0.08361800  0.04760700  0.61226000  1
  Co  Co7  1  0.07650600  0.47770200  0.85904300  1
  B  B0  1  0.41957200  0.04293500  0.62703300  1
  B  B1  1  0.58275000  0.45669100  0.37444700  1
  B  B2  1  0.41725000  0.45669100  0.87444700  1
  B  B3  1  0.58042800  0.04293500  0.12703300  1
  B  B4  1  0.91943900  0.96577800  0.87490200  1
  B  B5  1  0.08343800  0.54646600  0.12020200  1
  B  B6  1  0.91656200  0.54646600  0.62020200  1
  B  B7  1  0.08056100  0.96577800  0.37490200  1
  O  O0  1  0.28921600  0.15713000  0.64714500  1
  O  O1  1  0.45736900  0.35551100  0.33283700  1
  O  O2  1  0.43032500  0.69457900  0.90067900  1
  O  O3  1  0.28269000  0.31983600  0.88885000  1
  O  O4  1  0.41882000  0.83726000  0.57667100  1
  O  O5  1  0.58118000  0.83726000  0.07667100  1
  O  O6  1  0.55765300  0.12376900  0.65973000  1
  O  O7  1  0.44234700  0.12376900  0.15973000  1
  O  O8  1  0.71731000  0.31983600  0.38885000  1
  O  O9  1  0.54263100  0.35551100  0.83283700  1
  O  O10  1  0.56967500  0.69457900  0.40067900  1
  O  O11  1  0.78179200  0.82848000  0.88198100  1
  O  O12  1  0.71078400  0.15713000  0.14714500  1
  O  O13  1  0.91616700  0.31101100  0.59447400  1
  O  O14  1  0.94519100  0.63097600  0.15507300  1
  O  O15  1  0.78884400  0.69885300  0.60948700  1
  O  O16  1  0.04700900  0.87235800  0.83780000  1
  O  O17  1  0.95299100  0.87235800  0.33780000  1
  O  O18  1  0.92237700  0.18188300  0.91313300  1
  O  O19  1  0.07762300  0.18188300  0.41313300  1
  O  O20  1  0.21115600  0.69885300  0.10948700  1
  O  O21  1  0.08383300  0.31101100  0.09447400  1
  O  O22  1  0.05480900  0.63097600  0.65507300  1
  O  O23  1  0.21820800  0.82848000  0.38198100  1
loop_
_geom_bond_atom_site_label_1
_geom_bond_atom_site_label_2
_geom_bond_distance
_geom_bond_site_symmetry_2
Li0 O16 1.971339 1_555
Li0 O3 1.979871 1_565
Li0 O0 2.068889 1_565
Li0 O2 2.092936 1_555
Li1 O22 1.952051 1_555
Li1 O0 1.952423 1_555
Li1 O4 2.077631 1_555
Li1 O23 2.149168 1_555
Li2 O14 1.952051 1_555
Li2 O12 1.952423 1_555
Li2 O5 2.077631 1_555
Li2 O11 2.149168 1_554
Li3 O15 1.905772 1_545
Li3 O13 1.917628 1_555
Li3 O6 1.962191 1_555
Li3 O8 2.111491 1_555
Li4 O17 1.971339 1_555
Li4 O8 1.979871 1_565
Li4 O12 2.068889 1_565
Li4 O10 2.092936 1_555
Li5 O20 1.905772 1_545
Li5 O21 1.917628 1_555
Li5 O7 1.962191 1_555
Li5 O3 2.111491 1_554
Co0 O20 1.948820 1_555
Co0 O5 2.042738 1_555
Co0 O1 2.067187 1_555
Co0 O7 2.083804 1_555
Co0 O2 2.376692 1_554
Co1 O23 1.816919 1_555
Co1 O1 1.922932 1_565
Co1 O10 1.966140 1_555
Co1 O4 2.100999 1_555
Co1 O7 2.184191 1_565
Co2 O11 1.816919 1_555
Co2 O9 1.922932 1_565
Co2 O2 1.966140 1_555
Co2 O5 2.100999 1_556
Co2 O6 2.184191 1_565
Co3 O15 1.948820 1_555
Co3 O4 2.042738 1_555
Co3 O9 2.067187 1_555
Co3 O6 2.083804 1_555
Co3 O10 2.376692 1_555
Co4 O19 1.955693 1_655
Co4 O17 1.983844 1_555
Co4 O8 1.984232 1_555
Co4 O14 2.084108 1_555
Co4 O13 2.401851 1_555
Co5 O21 1.980551 1_655
Co5 O12 2.011224 1_555
Co5 O14 2.026782 1_545
Co5 O18 2.035921 1_554
Co5 O17 2.314967 1_545
Co6 O13 1.980551 1_455
Co6 O0 2.011224 1_555
Co6 O22 2.026782 1_545
Co6 O19 2.035921 1_555
Co6 O16 2.314967 1_545
Co7 O18 1.955693 1_455
Co7 O16 1.983844 1_555
Co7 O3 1.984232 1_555
Co7 O22 2.084108 1_555
Co7 O21 2.401851 1_556
B0 O0 1.370422 1_555
B0 O6 1.402914 1_555
B0 O4 1.415586 1_545
B1 O8 1.370327 1_555
B1 O10 1.400373 1_555
B1 O1 1.402351 1_555
B2 O3 1.370327 1_555
B2 O2 1.400373 1_555
B2 O9 1.402351 1_555
B3 O12 1.370422 1_555
B3 O7 1.402914 1_555
B3 O5 1.415586 1_545
B4 O18 1.371354 1_565
B4 O16 1.373502 1_655
B4 O11 1.406904 1_555
B5 O20 1.364802 1_555
B5 O21 1.379642 1_555
B5 O14 1.422167 1_455
B6 O15 1.364802 1_555
B6 O13 1.379642 1_555
B6 O22 1.422167 1_655
B7 O19 1.371354 1_565
B7 O17 1.373502 1_455
B7 O23 1.406904 1_555
