# generated using pymatgen
data_Ta(PO4)2
_symmetry_space_group_name_H-M   'P 1'
_cell_length_a   5.29691900
_cell_length_b   8.04644900
_cell_length_c   15.95807300
_cell_angle_alpha   90.00000000
_cell_angle_beta   90.00000000
_cell_angle_gamma   90.00000000
_symmetry_Int_Tables_number   1
_chemical_formula_structural   Ta(PO4)2
_chemical_formula_sum   'Ta4 P8 O32'
_cell_volume   680.15523049
_cell_formula_units_Z   4
loop_
 _symmetry_equiv_pos_site_id
 _symmetry_equiv_pos_as_xyz
  1  'x, y, z'
loop_
 _atom_site_type_symbol
 _atom_site_label
 _atom_site_symmetry_multiplicity
 _atom_site_fract_x
 _atom_site_fract_y
 _atom_site_fract_z
 _atom_site_occupancy
  Ta  Ta0  1  0.25000000  0.47412500  0.64215200  1
  Ta  Ta1  1  0.25000000  0.02587500  0.14215200  1
  Ta  Ta2  1  0.75000000  0.52587500  0.35784800  1
  Ta  Ta3  1  0.75000000  0.97412500  0.85784800  1
  P  P0  1  0.75000000  0.28412100  0.54267400  1
  P  P1  1  0.75000000  0.21587900  0.04267400  1
  P  P2  1  0.25000000  0.71587900  0.45732600  1
  P  P3  1  0.25000000  0.78412100  0.95732600  1
  P  P4  1  0.25000000  0.24333600  0.82808100  1
  P  P5  1  0.25000000  0.25666400  0.32808100  1
  P  P6  1  0.75000000  0.75666400  0.17191900  1
  P  P7  1  0.75000000  0.74333600  0.67191900  1
  O  O0  1  0.98421600  0.32498200  0.59796400  1
  O  O1  1  0.51578400  0.17501800  0.09796400  1
  O  O2  1  0.48421600  0.67501800  0.40203600  1
  O  O3  1  0.01578400  0.82498200  0.90203600  1
  O  O4  1  0.01578400  0.67501800  0.40203600  1
  O  O5  1  0.48421600  0.82498200  0.90203600  1
  O  O6  1  0.51578400  0.32498200  0.59796400  1
  O  O7  1  0.98421600  0.17501800  0.09796400  1
  O  O8  1  0.25000000  0.59289200  0.53247700  1
  O  O9  1  0.25000000  0.90710800  0.03247700  1
  O  O10  1  0.75000000  0.40710800  0.46752300  1
  O  O11  1  0.75000000  0.09289200  0.96752300  1
  O  O12  1  0.75000000  0.10693700  0.50980100  1
  O  O13  1  0.75000000  0.39306300  0.00980100  1
  O  O14  1  0.25000000  0.89306300  0.49019900  1
  O  O15  1  0.25000000  0.60693700  0.99019900  1
  O  O16  1  0.25000000  0.35817300  0.74938800  1
  O  O17  1  0.25000000  0.14182700  0.24938800  1
  O  O18  1  0.75000000  0.64182700  0.25061200  1
  O  O19  1  0.75000000  0.85817300  0.75061200  1
  O  O20  1  0.98604300  0.62839900  0.68205300  1
  O  O21  1  0.51395700  0.87160100  0.18205300  1
  O  O22  1  0.48604300  0.37160100  0.31794700  1
  O  O23  1  0.01395700  0.12839900  0.81794700  1
  O  O24  1  0.01395700  0.37160100  0.31794700  1
  O  O25  1  0.48604300  0.12839900  0.81794700  1
  O  O26  1  0.51395700  0.62839900  0.68205300  1
  O  O27  1  0.98604300  0.87160100  0.18205300  1
  O  O28  1  0.25000000  0.33324800  0.91044100  1
  O  O29  1  0.25000000  0.16675200  0.41044100  1
  O  O30  1  0.75000000  0.66675200  0.08955900  1
  O  O31  1  0.75000000  0.83324800  0.58955900  1
loop_
_geom_bond_atom_site_label_1
_geom_bond_atom_site_label_2
_geom_bond_distance
_geom_bond_site_symmetry_2
O0 P0 1.557478 1_555
O0 Ta0 1.979752 1_655
O1 P1 1.557478 1_555
O1 Ta1 1.979752 1_555
O2 P2 1.557478 1_555
O2 Ta2 1.979752 1_555
O3 P3 1.557478 1_555
O3 Ta3 1.979752 1_455
O4 P2 1.557478 1_555
O4 Ta2 1.979752 1_455
O5 P3 1.557478 1_555
O5 Ta3 1.979752 1_555
O6 P0 1.557478 1_555
O6 Ta0 1.979752 1_555
O7 P1 1.557478 1_555
O7 Ta1 1.979752 1_655
O8 P2 1.554851 1_555
O8 Ta0 1.994111 1_555
O9 P3 1.554851 1_554
O9 Ta1 1.994111 1_565
O10 P0 1.554851 1_555
O10 Ta2 1.994111 1_555
O11 P1 1.554851 1_556
O11 Ta3 1.994111 1_545
O12 P0 1.519151 1_555
O13 P1 1.519151 1_555
O14 P2 1.519151 1_555
O15 P3 1.519151 1_555
O16 P4 1.559114 1_555
O16 Ta0 1.949095 1_555
O17 P5 1.559114 1_555
O17 Ta1 1.949095 1_555
O18 P6 1.559114 1_555
O18 Ta2 1.949095 1_555
O19 P7 1.559114 1_555
O19 Ta3 1.949095 1_555
O20 P7 1.563561 1_555
O20 Ta0 1.975161 1_655
O21 P6 1.563561 1_555
O21 Ta1 1.975161 1_565
O22 P5 1.563561 1_555
O22 Ta2 1.975161 1_555
O23 P4 1.563561 1_555
O23 Ta3 1.975161 1_445
O24 P5 1.563561 1_555
O24 Ta2 1.975161 1_455
O25 P4 1.563561 1_555
O25 Ta3 1.975161 1_545
O26 P7 1.563561 1_555
O26 Ta0 1.975161 1_555
O27 P6 1.563561 1_555
O27 Ta1 1.975161 1_665
O28 P4 1.500272 1_555
O29 P5 1.500272 1_555
O30 P6 1.500272 1_555
O31 P7 1.500272 1_555
