# generated using pymatgen
data_Er2(WO4)3
_symmetry_space_group_name_H-M   'P 1'
_cell_length_a   10.20388100
_cell_length_b   10.09129100
_cell_length_c   17.26663181
_cell_angle_alpha   54.52783852
_cell_angle_beta   90.00000000
_cell_angle_gamma   90.00000000
_symmetry_Int_Tables_number   1
_chemical_formula_structural   Er2(WO4)3
_chemical_formula_sum   'Er8 W12 O48'
_cell_volume   1447.95882750
_cell_formula_units_Z   4
loop_
 _symmetry_equiv_pos_site_id
 _symmetry_equiv_pos_as_xyz
  1  'x, y, z'
loop_
 _atom_site_type_symbol
 _atom_site_label
 _atom_site_symmetry_multiplicity
 _atom_site_fract_x
 _atom_site_fract_y
 _atom_site_fract_z
 _atom_site_occupancy
  Er  Er0  1  0.97064000  0.63424900  0.11821900  1
  Er  Er1  1  0.03357000  0.13768300  0.61807100  1
  Er  Er2  1  0.53357000  0.86231700  0.88192900  1
  Er  Er3  1  0.47064000  0.36575100  0.38178100  1
  Er  Er4  1  0.52936000  0.63424900  0.61821900  1
  Er  Er5  1  0.46643000  0.13768300  0.11807100  1
  Er  Er6  1  0.96643000  0.86231700  0.38192900  1
  Er  Er7  1  0.02936000  0.36575100  0.88178100  1
  W  W0  1  0.74866300  0.47421700  0.49983400  1
  W  W1  1  0.61942000  0.75281500  0.14357800  1
  W  W2  1  0.87990400  0.03561500  0.85708700  1
  W  W3  1  0.37990400  0.96438500  0.64291300  1
  W  W4  1  0.11942000  0.24718500  0.35642200  1
  W  W5  1  0.24866300  0.52578300  0.00016600  1
  W  W6  1  0.75133700  0.47421700  0.99983400  1
  W  W7  1  0.88058000  0.75281500  0.64357800  1
  W  W8  1  0.62009600  0.03561500  0.35708700  1
  W  W9  1  0.12009600  0.96438500  0.14291300  1
  W  W10  1  0.38058000  0.24718500  0.85642200  1
  W  W11  1  0.25133700  0.52578300  0.50016600  1
  O  O0  1  0.10001400  0.79746800  0.13166200  1
  O  O1  1  0.34438100  0.50349600  0.41867000  1
  O  O2  1  0.17529100  0.33299000  0.59038800  1
  O  O3  1  0.40974900  0.06315400  0.86303900  1
  O  O4  1  0.87400500  0.32053800  0.56621900  1
  O  O5  1  0.79262500  0.70163000  0.16622900  1
  O  O6  1  0.70863100  0.02458100  0.83286200  1
  O  O7  1  0.64159200  0.41159800  0.44291800  1
  O  O8  1  0.98287700  0.06818700  0.76172200  1
  O  O9  1  0.51919300  0.58653100  0.23671600  1
  O  O10  1  0.57781200  0.78843600  0.03080600  1
  O  O11  1  0.92775100  0.84699600  0.96721200  1
  O  O12  1  0.42775100  0.15300400  0.53278800  1
  O  O13  1  0.07781200  0.21156400  0.46919400  1
  O  O14  1  0.01919300  0.41346900  0.26328400  1
  O  O15  1  0.48287700  0.93181300  0.73827800  1
  O  O16  1  0.14159200  0.58840200  0.05708200  1
  O  O17  1  0.20863100  0.97541900  0.66713800  1
  O  O18  1  0.29262500  0.29837000  0.33377100  1
  O  O19  1  0.37400500  0.67946200  0.93378100  1
  O  O20  1  0.84438100  0.49650400  0.08133000  1
  O  O21  1  0.90974900  0.93684600  0.63696100  1
  O  O22  1  0.67529100  0.66701000  0.90961200  1
  O  O23  1  0.60001400  0.20253200  0.36833800  1
  O  O24  1  0.39998600  0.79746800  0.63166200  1
  O  O25  1  0.32470900  0.33299000  0.09038800  1
  O  O26  1  0.09025100  0.06315400  0.36303900  1
  O  O27  1  0.15561900  0.50349600  0.91867000  1
  O  O28  1  0.62599500  0.32053800  0.06621900  1
  O  O29  1  0.70737500  0.70163000  0.66622900  1
  O  O30  1  0.79136900  0.02458100  0.33286200  1
  O  O31  1  0.85840800  0.41159800  0.94291800  1
  O  O32  1  0.51712300  0.06818700  0.26172200  1
  O  O33  1  0.98080700  0.58653100  0.73671600  1
  O  O34  1  0.92218800  0.78843600  0.53080600  1
  O  O35  1  0.57224900  0.84699600  0.46721200  1
  O  O36  1  0.07224900  0.15300400  0.03278800  1
  O  O37  1  0.42218800  0.21156400  0.96919400  1
  O  O38  1  0.48080700  0.41346900  0.76328400  1
  O  O39  1  0.01712300  0.93181300  0.23827800  1
  O  O40  1  0.35840800  0.58840200  0.55708200  1
  O  O41  1  0.29136900  0.97541900  0.16713800  1
  O  O42  1  0.20737500  0.29837000  0.83377100  1
  O  O43  1  0.12599500  0.67946200  0.43378100  1
  O  O44  1  0.59025100  0.93684600  0.13696100  1
  O  O45  1  0.82470900  0.66701000  0.40961200  1
  O  O46  1  0.65561900  0.49650400  0.58133000  1
  O  O47  1  0.89998600  0.20253200  0.86833800  1
loop_
_geom_bond_atom_site_label_1
_geom_bond_atom_site_label_2
_geom_bond_distance
_geom_bond_site_symmetry_2
Er0 O16 2.222179 1_655
Er0 O0 2.225582 1_655
Er0 O14 2.237479 1_655
Er0 O20 2.241707 1_555
Er0 O11 2.258818 1_554
Er0 O5 2.259029 1_555
Er1 O8 2.211954 1_455
Er1 O4 2.222627 1_455
Er1 O17 2.231548 1_545
Er1 O21 2.245666 1_445
Er1 O2 2.260698 1_555
Er1 O13 2.267886 1_555
Er2 O15 2.211954 1_555
Er2 O19 2.222627 1_555
Er2 O6 2.231548 1_565
Er2 O3 2.245666 1_565
Er2 O22 2.260698 1_555
Er2 O10 2.267886 1_556
Er3 O7 2.222179 1_555
Er3 O23 2.225582 1_555
Er3 O9 2.237479 1_555
Er3 O1 2.241707 1_555
Er3 O12 2.258818 1_555
Er3 O18 2.259029 1_555
Er4 O40 2.222179 1_555
Er4 O24 2.225582 1_555
Er4 O38 2.237479 1_555
Er4 O46 2.241707 1_555
Er4 O35 2.258818 1_555
Er4 O29 2.259029 1_555
Er5 O32 2.211954 1_555
Er5 O28 2.222627 1_555
Er5 O41 2.231548 1_545
Er5 O44 2.245666 1_545
Er5 O25 2.260698 1_555
Er5 O37 2.267886 1_554
Er6 O39 2.211954 1_655
Er6 O43 2.222627 1_655
Er6 O30 2.231548 1_565
Er6 O26 2.245666 1_665
Er6 O45 2.260698 1_555
Er6 O34 2.267886 1_555
Er7 O31 2.222179 1_455
Er7 O47 2.225582 1_455
Er7 O33 2.237479 1_455
Er7 O27 2.241707 1_555
Er7 O36 2.258818 1_556
Er7 O42 2.259029 1_555
O0 W9 1.815693 1_555
O1 W11 1.816417 1_555
O2 W11 1.815612 1_555
O3 W10 1.817757 1_555
O4 W0 1.814267 1_555
O5 W1 1.819030 1_555
O6 W2 1.815404 1_555
O7 W0 1.810936 1_555
O8 W2 1.815294 1_555
O9 W1 1.820970 1_555
O10 W1 1.813467 1_555
O11 W2 1.810073 1_565
O12 W3 1.810073 1_545
O13 W4 1.813467 1_555
O14 W4 1.820970 1_555
O15 W3 1.815294 1_555
O16 W5 1.810936 1_555
O17 W3 1.815404 1_555
O18 W4 1.819030 1_555
O19 W5 1.814267 1_556
O20 W6 1.816417 1_554
O21 W7 1.817757 1_555
O22 W6 1.815612 1_555
O23 W8 1.815693 1_555
O24 W3 1.815693 1_555
O25 W5 1.815612 1_555
O26 W4 1.817757 1_555
O27 W5 1.816417 1_556
O28 W6 1.814267 1_554
O29 W7 1.819030 1_555
O30 W8 1.815404 1_555
O31 W6 1.810936 1_555
O32 W8 1.815294 1_555
O33 W7 1.820970 1_555
O34 W7 1.813467 1_555
O35 W8 1.810073 1_565
O36 W9 1.810073 1_545
O37 W10 1.813467 1_555
O38 W10 1.820970 1_555
O39 W9 1.815294 1_555
O40 W11 1.810936 1_555
O41 W9 1.815404 1_555
O42 W10 1.819030 1_555
O43 W11 1.814267 1_555
O44 W1 1.817757 1_555
O45 W0 1.815612 1_555
O46 W0 1.816417 1_555
O47 W2 1.815693 1_555
