# generated using pymatgen
data_Ho2TiO5
_symmetry_space_group_name_H-M   'P 1'
_cell_length_a   6.41906868
_cell_length_b   6.41906868
_cell_length_c   7.53864561
_cell_angle_alpha   68.57982457
_cell_angle_beta   68.57982457
_cell_angle_gamma   48.53733038
_symmetry_Int_Tables_number   1
_chemical_formula_structural   Ho2TiO5
_chemical_formula_sum   'Ho4 Ti2 O10'
_cell_volume   213.28370542
_cell_formula_units_Z   2
loop_
 _symmetry_equiv_pos_site_id
 _symmetry_equiv_pos_as_xyz
  1  'x, y, z'
loop_
 _atom_site_type_symbol
 _atom_site_label
 _atom_site_symmetry_multiplicity
 _atom_site_fract_x
 _atom_site_fract_y
 _atom_site_fract_z
 _atom_site_occupancy
  Ho  Ho0  1  0.64835300  0.62894100  0.74754200  1
  Ho  Ho1  1  0.62894100  0.64835300  0.24754200  1
  Ho  Ho2  1  0.37105900  0.35164700  0.75245800  1
  Ho  Ho3  1  0.35164700  0.37105900  0.25245800  1
  Ti  Ti0  1  0.00000000  0.00000000  0.50000000  1
  Ti  Ti1  1  0.00000000  0.00000000  0.00000000  1
  O  O0  1  0.97465100  0.68733800  0.63958700  1
  O  O1  1  0.68733800  0.97465100  0.13958700  1
  O  O2  1  0.38940200  0.75300800  0.54397100  1
  O  O3  1  0.83244200  0.16755800  0.75000000  1
  O  O4  1  0.24699200  0.61059800  0.95602900  1
  O  O5  1  0.75300800  0.38940200  0.04397100  1
  O  O6  1  0.16755800  0.83244200  0.25000000  1
  O  O7  1  0.61059800  0.24699200  0.45602900  1
  O  O8  1  0.31266200  0.02534900  0.86041300  1
  O  O9  1  0.02534900  0.31266200  0.36041300  1
loop_
_geom_bond_atom_site_label_1
_geom_bond_atom_site_label_2
_geom_bond_distance
_geom_bond_site_symmetry_2
Ho0 O0 2.182144 1_555
Ho0 O8 2.196197 1_565
Ho0 O2 2.229320 1_555
Ho0 O5 2.242365 1_556
Ho0 O3 2.347218 1_555
Ho0 O4 2.535881 1_555
Ho1 O1 2.182144 1_555
Ho1 O9 2.196197 1_655
Ho1 O5 2.229320 1_555
Ho1 O2 2.242365 1_555
Ho1 O6 2.347218 1_555
Ho1 O7 2.535881 1_555
Ho2 O8 2.182144 1_555
Ho2 O0 2.196197 1_455
Ho2 O4 2.229320 1_555
Ho2 O7 2.242365 1_555
Ho2 O3 2.347218 1_555
Ho2 O2 2.535881 1_555
Ho3 O9 2.182144 1_555
Ho3 O1 2.196197 1_545
Ho3 O7 2.229320 1_555
Ho3 O4 2.242365 1_554
Ho3 O6 2.347218 1_555
Ho3 O5 2.535881 1_555
O0 Ti0 1.981580 1_665
O1 Ti1 1.981580 1_665
O2 Ti0 1.960818 1_565
O3 Ti1 2.081747 1_656
O3 Ti0 2.081747 1_655
O4 Ti1 1.960818 1_566
O5 Ti1 1.960818 1_655
O6 Ti0 2.081747 1_565
O6 Ti1 2.081747 1_565
O7 Ti0 1.960818 1_655
O8 Ti1 1.981580 1_556
O9 Ti0 1.981580 1_555
