# generated using pymatgen
data_Li3V(SiO3)3
_symmetry_space_group_name_H-M   'P 1'
_cell_length_a   5.37557200
_cell_length_b   11.79932600
_cell_length_c   12.73911300
_cell_angle_alpha   90.00000000
_cell_angle_beta   90.00000000
_cell_angle_gamma   90.00000000
_symmetry_Int_Tables_number   1
_chemical_formula_structural   Li3V(SiO3)3
_chemical_formula_sum   'Li12 V4 Si12 O36'
_cell_volume   808.01807041
_cell_formula_units_Z   4
loop_
 _symmetry_equiv_pos_site_id
 _symmetry_equiv_pos_as_xyz
  1  'x, y, z'
loop_
 _atom_site_type_symbol
 _atom_site_label
 _atom_site_symmetry_multiplicity
 _atom_site_fract_x
 _atom_site_fract_y
 _atom_site_fract_z
 _atom_site_occupancy
  Li  Li0  1  0.82921800  0.93766700  0.00000000  1
  Li  Li1  1  0.18028700  0.60260000  0.00000000  1
  Li  Li2  1  0.84115900  0.14180600  0.00000000  1
  Li  Li3  1  0.32626300  0.40063000  0.00000000  1
  Li  Li4  1  0.32655900  0.83351300  0.75360300  1
  Li  Li5  1  0.67344100  0.33351300  0.74639700  1
  Li  Li6  1  0.17078200  0.43766700  0.50000000  1
  Li  Li7  1  0.67373700  0.90063000  0.50000000  1
  Li  Li8  1  0.15884100  0.64180600  0.50000000  1
  Li  Li9  1  0.81971300  0.10260000  0.50000000  1
  Li  Li10  1  0.67344100  0.33351300  0.25360300  1
  Li  Li11  1  0.32655900  0.83351300  0.24639700  1
  V  V0  1  0.87340400  0.04432100  0.77356600  1
  V  V1  1  0.12659600  0.54432100  0.72643400  1
  V  V2  1  0.12659600  0.54432100  0.27356600  1
  V  V3  1  0.87340400  0.04432100  0.22643400  1
  Si  Si0  1  0.35061600  0.16416400  0.88671100  1
  Si  Si1  1  0.63963100  0.53746300  0.88303400  1
  Si  Si2  1  0.83688300  0.76293900  0.81114700  1
  Si  Si3  1  0.16311700  0.26293900  0.68885300  1
  Si  Si4  1  0.36036900  0.03746300  0.61696600  1
  Si  Si5  1  0.64938400  0.66416400  0.61328900  1
  Si  Si6  1  0.64938400  0.66416400  0.38671100  1
  Si  Si7  1  0.36036900  0.03746300  0.38303400  1
  Si  Si8  1  0.16311700  0.26293900  0.31114700  1
  Si  Si9  1  0.83688300  0.76293900  0.18885300  1
  Si  Si10  1  0.63963100  0.53746300  0.11696600  1
  Si  Si11  1  0.35061600  0.16416400  0.11328900  1
  O  O0  1  0.72472400  0.48481600  0.00000000  1
  O  O1  1  0.36421000  0.23890100  0.00000000  1
  O  O2  1  0.08991800  0.09613800  0.89068300  1
  O  O3  1  0.60471800  0.09385600  0.87813000  1
  O  O4  1  0.69228800  0.67489300  0.89166600  1
  O  O5  1  0.34015100  0.51355600  0.87392000  1
  O  O6  1  0.81302400  0.47672800  0.79602400  1
  O  O7  1  0.34451500  0.26583700  0.79624700  1
  O  O8  1  0.83709800  0.89005600  0.85591400  1
  O  O9  1  0.10865500  0.70896500  0.78683900  1
  O  O10  1  0.89134500  0.20896500  0.71316100  1
  O  O11  1  0.16290200  0.39005600  0.64408600  1
  O  O12  1  0.65548500  0.76583700  0.70375300  1
  O  O13  1  0.18697600  0.97672800  0.70397600  1
  O  O14  1  0.65984900  0.01355600  0.62608000  1
  O  O15  1  0.30771200  0.17489300  0.60833400  1
  O  O16  1  0.39528200  0.59385600  0.62187000  1
  O  O17  1  0.91008200  0.59613800  0.60931700  1
  O  O18  1  0.63579000  0.73890100  0.50000000  1
  O  O19  1  0.27527600  0.98481600  0.50000000  1
  O  O20  1  0.91008200  0.59613800  0.39068300  1
  O  O21  1  0.39528200  0.59385600  0.37813000  1
  O  O22  1  0.30771200  0.17489300  0.39166600  1
  O  O23  1  0.65984900  0.01355600  0.37392000  1
  O  O24  1  0.18697600  0.97672800  0.29602400  1
  O  O25  1  0.65548500  0.76583700  0.29624700  1
  O  O26  1  0.16290200  0.39005600  0.35591400  1
  O  O27  1  0.89134500  0.20896500  0.28683900  1
  O  O28  1  0.10865500  0.70896500  0.21316100  1
  O  O29  1  0.83709800  0.89005600  0.14408600  1
  O  O30  1  0.34451500  0.26583700  0.20375300  1
  O  O31  1  0.81302400  0.47672800  0.20397600  1
  O  O32  1  0.34015100  0.51355600  0.12608000  1
  O  O33  1  0.69228800  0.67489300  0.10833400  1
  O  O34  1  0.60471800  0.09385600  0.12187000  1
  O  O35  1  0.08991800  0.09613800  0.10931700  1
loop_
_geom_bond_atom_site_label_1
_geom_bond_atom_site_label_2
_geom_bond_distance
_geom_bond_site_symmetry_2
Li0 O29 1.920039 1_555
Li0 O8 1.920039 1_554
Li1 O32 2.102878 1_555
Li1 O5 2.102878 1_554
Li2 O2 2.004461 1_654
Li2 O35 2.004461 1_655
Li2 O34 2.084674 1_555
Li2 O3 2.084674 1_554
Li3 O1 1.919165 1_555
Li3 O5 2.088231 1_554
Li3 O32 2.088231 1_555
Li3 O0 2.361079 1_555
Li4 O9 1.926400 1_555
Li4 O13 1.954034 1_555
Li4 O12 2.041407 1_555
Li5 O10 1.926400 1_555
Li5 O6 1.954034 1_555
Li5 O7 2.041407 1_555
Li6 O26 1.920039 1_555
Li6 O11 1.920039 1_555
Li7 O18 1.919165 1_555
Li7 O14 2.088231 1_565
Li7 O23 2.088231 1_565
Li7 O19 2.361079 1_555
Li8 O20 2.004461 1_455
Li8 O17 2.004461 1_455
Li8 O21 2.084674 1_555
Li8 O16 2.084674 1_555
Li9 O14 2.102878 1_555
Li9 O23 2.102878 1_555
Li10 O27 1.926400 1_555
Li10 O31 1.954034 1_555
Li10 O30 2.041407 1_555
Li11 O28 1.926400 1_555
Li11 O24 1.954034 1_555
Li11 O25 2.041407 1_555
O0 Si1 1.677901 1_554
O0 Si10 1.677901 1_555
O1 Si11 1.692874 1_555
O1 Si0 1.692874 1_554
O2 Si0 1.615781 1_555
O2 V0 1.988571 1_455
O3 Si0 1.601863 1_555
O3 V0 2.049903 1_555
O4 Si1 1.649770 1_555
O4 Si2 1.653961 1_555
O5 Si1 1.638522 1_555
O5 V1 2.231519 1_555
O6 Si1 1.615848 1_555
O6 V1 2.064786 1_655
O7 Si0 1.663847 1_555
O7 Si3 1.680397 1_555
O8 Si2 1.604655 1_555
O8 V0 2.109926 1_565
O9 Si2 1.623513 1_455
O9 V1 2.091764 1_555
O10 Si3 1.623513 1_655
O10 V0 2.091764 1_555
O11 Si3 1.604655 1_555
O11 V1 2.109926 1_555
O12 Si5 1.663847 1_555
O12 Si2 1.680397 1_555
O13 Si4 1.615848 1_565
O13 V0 2.064786 1_465
O14 Si4 1.638522 1_555
O14 V0 2.231519 1_555
O15 Si4 1.649770 1_555
O15 Si3 1.653961 1_555
O16 Si5 1.601863 1_555
O16 V1 2.049903 1_555
O17 Si5 1.615781 1_555
O17 V1 1.988571 1_655
O18 Si5 1.692874 1_555
O18 Si6 1.692874 1_555
O19 Si7 1.677901 1_565
O19 Si4 1.677901 1_565
O20 Si6 1.615781 1_555
O20 V2 1.988571 1_655
O21 Si6 1.601863 1_555
O21 V2 2.049903 1_555
O22 Si7 1.649770 1_555
O22 Si8 1.653961 1_555
O23 Si7 1.638522 1_555
O23 V3 2.231519 1_555
O24 Si7 1.615848 1_565
O24 V3 2.064786 1_465
O25 Si6 1.663847 1_555
O25 Si9 1.680397 1_555
O26 Si8 1.604655 1_555
O26 V2 2.109926 1_555
O27 Si8 1.623513 1_655
O27 V3 2.091764 1_555
O28 Si9 1.623513 1_455
O28 V2 2.091764 1_555
O29 Si9 1.604655 1_555
O29 V3 2.109926 1_565
O30 Si11 1.663847 1_555
O30 Si8 1.680397 1_555
O31 Si10 1.615848 1_555
O31 V2 2.064786 1_655
O32 Si10 1.638522 1_555
O32 V2 2.231519 1_555
O33 Si10 1.649770 1_555
O33 Si9 1.653961 1_555
O34 Si11 1.601863 1_555
O34 V3 2.049903 1_555
O35 Si11 1.615781 1_555
O35 V3 1.988571 1_455
