# generated using pymatgen
data_LiFePO4
_symmetry_space_group_name_H-M   'P 1'
_cell_length_a   10.33747900
_cell_length_b   5.84012600
_cell_length_c   10.08007302
_cell_angle_alpha   86.70015711
_cell_angle_beta   90.00000000
_cell_angle_gamma   90.00000000
_symmetry_Int_Tables_number   1
_chemical_formula_structural   LiFePO4
_chemical_formula_sum   'Li8 Fe8 P8 O32'
_cell_volume   607.54698014
_cell_formula_units_Z   8
loop_
 _symmetry_equiv_pos_site_id
 _symmetry_equiv_pos_as_xyz
  1  'x, y, z'
loop_
 _atom_site_type_symbol
 _atom_site_label
 _atom_site_symmetry_multiplicity
 _atom_site_fract_x
 _atom_site_fract_y
 _atom_site_fract_z
 _atom_site_occupancy
  Li  Li0  1  0.08391000  0.87723200  0.73108200  1
  Li  Li1  1  0.41609000  0.87723200  0.23108200  1
  Li  Li2  1  0.60538800  0.64024100  0.01647600  1
  Li  Li3  1  0.89461200  0.64024100  0.51647600  1
  Li  Li4  1  0.10538800  0.35975900  0.48352400  1
  Li  Li5  1  0.39461200  0.35975900  0.98352400  1
  Li  Li6  1  0.58391000  0.12276800  0.76891800  1
  Li  Li7  1  0.91609000  0.12276800  0.26891800  1
  Fe  Fe0  1  0.84573200  0.87128800  0.85047700  1
  Fe  Fe1  1  0.65426800  0.87128800  0.35047700  1
  Fe  Fe2  1  0.33274600  0.62207800  0.63841100  1
  Fe  Fe3  1  0.16725400  0.62207800  0.13841100  1
  Fe  Fe4  1  0.83274600  0.37792200  0.86158900  1
  Fe  Fe5  1  0.66725400  0.37792200  0.36158900  1
  Fe  Fe6  1  0.34573200  0.12871200  0.64952300  1
  Fe  Fe7  1  0.15426800  0.12871200  0.14952300  1
  P  P0  1  0.35080900  0.87328500  0.90529300  1
  P  P1  1  0.14919100  0.87328500  0.40529300  1
  P  P2  1  0.60415000  0.63130600  0.65103600  1
  P  P3  1  0.89585000  0.63130600  0.15103600  1
  P  P4  1  0.10415000  0.36869400  0.84896400  1
  P  P5  1  0.39585000  0.36869400  0.34896400  1
  P  P6  1  0.85080900  0.12671500  0.59470700  1
  P  P7  1  0.64919100  0.12671500  0.09470700  1
  O  O0  1  0.23298100  0.89814900  0.53187500  1
  O  O1  1  0.92018400  0.89670900  0.63512400  1
  O  O2  1  0.26701900  0.89814900  0.03187500  1
  O  O3  1  0.57981600  0.89670900  0.13512400  1
  O  O4  1  0.26154200  0.83839900  0.78172000  1
  O  O5  1  0.51435900  0.84693000  0.63906700  1
  O  O6  1  0.23845800  0.83839900  0.28172000  1
  O  O7  1  0.98564100  0.84693000  0.13906700  1
  O  O8  1  0.44084100  0.66832700  0.92376200  1
  O  O9  1  0.69806400  0.63834300  0.77180100  1
  O  O10  1  0.05915900  0.66832700  0.42376200  1
  O  O11  1  0.68587600  0.62164500  0.51904000  1
  O  O12  1  0.01280500  0.58159400  0.83450300  1
  O  O13  1  0.80193600  0.63834300  0.27180100  1
  O  O14  1  0.81412400  0.62164500  0.01904000  1
  O  O15  1  0.48719500  0.58159400  0.33450300  1
  O  O16  1  0.51280500  0.41840600  0.66549700  1
  O  O17  1  0.18587600  0.37835500  0.98096000  1
  O  O18  1  0.19806400  0.36165700  0.72819900  1
  O  O19  1  0.98719500  0.41840600  0.16549700  1
  O  O20  1  0.31412400  0.37835500  0.48096000  1
  O  O21  1  0.94084100  0.33167300  0.57623800  1
  O  O22  1  0.30193600  0.36165700  0.22819900  1
  O  O23  1  0.55915900  0.33167300  0.07623800  1
  O  O24  1  0.01435900  0.15307000  0.86093300  1
  O  O25  1  0.76154200  0.16160100  0.71828000  1
  O  O26  1  0.48564100  0.15307000  0.36093300  1
  O  O27  1  0.73845800  0.16160100  0.21828000  1
  O  O28  1  0.42018400  0.10329100  0.86487600  1
  O  O29  1  0.73298100  0.10185100  0.96812500  1
  O  O30  1  0.07981600  0.10329100  0.36487600  1
  O  O31  1  0.76701900  0.10185100  0.46812500  1
loop_
_geom_bond_atom_site_label_1
_geom_bond_atom_site_label_2
_geom_bond_distance
_geom_bond_site_symmetry_2
Li0 O4 1.915862 1_555
Li0 O1 1.949481 1_455
Li0 O12 2.097830 1_555
Li0 O24 2.251224 1_565
Li0 O0 2.528551 1_555
Li1 O6 1.915862 1_555
Li1 O3 1.949481 1_555
Li1 O15 2.097830 1_555
Li1 O26 2.251224 1_565
Li1 O2 2.528551 1_555
Li2 O23 1.927116 1_555
Li2 O8 1.943212 1_554
Li2 O3 1.987434 1_555
Li2 O14 2.160615 1_555
Li3 O21 1.927116 1_555
Li3 O10 1.943212 1_655
Li3 O1 1.987434 1_555
Li3 O11 2.160615 1_555
Li4 O10 1.927116 1_555
Li4 O21 1.943212 1_455
Li4 O30 1.987434 1_555
Li4 O20 2.160615 1_555
Li5 O8 1.927116 1_555
Li5 O23 1.943212 1_556
Li5 O28 1.987434 1_555
Li5 O17 2.160615 1_555
Li6 O25 1.915862 1_555
Li6 O28 1.949481 1_555
Li6 O16 2.097830 1_555
Li6 O5 2.251224 1_545
Li6 O29 2.528551 1_555
Li7 O27 1.915862 1_555
Li7 O30 1.949481 1_655
Li7 O19 2.097830 1_555
Li7 O7 2.251224 1_545
Li7 O31 2.528551 1_555
Fe0 O29 2.182162 1_565
Fe0 O14 2.198686 1_556
Fe0 O9 2.221297 1_555
Fe0 O25 2.268844 1_565
Fe0 O1 2.299903 1_555
Fe0 O24 2.403723 1_665
Fe0 O12 2.429519 1_655
Fe1 O31 2.182162 1_565
Fe1 O11 2.198686 1_555
Fe1 O13 2.221297 1_555
Fe1 O27 2.268844 1_565
Fe1 O3 2.299903 1_555
Fe1 O26 2.403723 1_565
Fe1 O15 2.429519 1_555
Fe2 O4 2.105872 1_555
Fe2 O0 2.148723 1_555
Fe2 O20 2.200468 1_555
Fe2 O18 2.216352 1_555
Fe2 O16 2.217351 1_555
Fe2 O5 2.291321 1_555
Fe3 O6 2.105872 1_555
Fe3 O2 2.148723 1_555
Fe3 O17 2.200468 1_554
Fe3 O22 2.216352 1_555
Fe3 O19 2.217351 1_455
Fe3 O7 2.291321 1_455
Fe4 O25 2.105872 1_555
Fe4 O29 2.148723 1_555
Fe4 O14 2.200468 1_556
Fe4 O9 2.216352 1_555
Fe4 O12 2.217351 1_655
Fe4 O24 2.291321 1_655
Fe5 O27 2.105872 1_555
Fe5 O31 2.148723 1_555
Fe5 O11 2.200468 1_555
Fe5 O13 2.216352 1_555
Fe5 O15 2.217351 1_555
Fe5 O26 2.291321 1_555
Fe6 O0 2.182162 1_545
Fe6 O20 2.198686 1_555
Fe6 O18 2.221297 1_555
Fe6 O4 2.268844 1_545
Fe6 O28 2.299903 1_555
Fe6 O5 2.403723 1_545
Fe6 O16 2.429519 1_555
Fe7 O2 2.182162 1_545
Fe7 O17 2.198686 1_554
Fe7 O22 2.221297 1_555
Fe7 O6 2.268844 1_545
Fe7 O30 2.299903 1_555
Fe7 O7 2.403723 1_445
Fe7 O19 2.429519 1_455
O0 P1 1.555873 1_555
O1 P6 1.556168 1_565
O2 P0 1.555873 1_554
O3 P7 1.556168 1_565
O4 P0 1.572851 1_555
O5 P2 1.563460 1_555
O6 P1 1.572851 1_555
O7 P3 1.563460 1_555
O8 P0 1.519203 1_555
O9 P2 1.559434 1_555
O10 P1 1.519203 1_555
O11 P2 1.579839 1_555
O12 P4 1.561408 1_555
O13 P3 1.559434 1_555
O14 P3 1.579839 1_555
O15 P5 1.561408 1_555
O16 P2 1.561408 1_555
O17 P4 1.579839 1_555
O18 P4 1.559434 1_555
O19 P3 1.561408 1_555
O20 P5 1.579839 1_555
O21 P6 1.519203 1_555
O22 P5 1.559434 1_555
O23 P7 1.519203 1_555
O24 P4 1.563460 1_555
O25 P6 1.572851 1_555
O26 P5 1.563460 1_555
O27 P7 1.572851 1_555
O28 P0 1.556168 1_545
O29 P7 1.555873 1_556
O30 P1 1.556168 1_545
O31 P6 1.555873 1_555
