# generated using pymatgen
data_Na5Fe2P2(CO7)2
_symmetry_space_group_name_H-M   'P 1'
_cell_length_a   9.01531225
_cell_length_b   10.50312000
_cell_length_c   6.59432200
_cell_angle_alpha   90.00000000
_cell_angle_beta   90.00000000
_cell_angle_gamma   89.52206519
_symmetry_Int_Tables_number   1
_chemical_formula_structural   Na5Fe2P2(CO7)2
_chemical_formula_sum   'Na10 Fe4 P4 C4 O28'
_cell_volume   624.38741517
_cell_formula_units_Z   2
loop_
 _symmetry_equiv_pos_site_id
 _symmetry_equiv_pos_as_xyz
  1  'x, y, z'
loop_
 _atom_site_type_symbol
 _atom_site_label
 _atom_site_symmetry_multiplicity
 _atom_site_fract_x
 _atom_site_fract_y
 _atom_site_fract_z
 _atom_site_occupancy
  Na  Na0  1  0.08687600  0.38397100  0.24859400  1
  Na  Na1  1  0.08687600  0.88397100  0.25140600  1
  Na  Na2  1  0.26693800  0.12604900  0.01972700  1
  Na  Na3  1  0.26693800  0.62604900  0.48027300  1
  Na  Na4  1  0.73838900  0.37511700  0.49657700  1
  Na  Na5  1  0.73867000  0.37246900  0.00305900  1
  Na  Na6  1  0.73867000  0.87246900  0.49694100  1
  Na  Na7  1  0.73838900  0.87511700  0.00342300  1
  Na  Na8  1  0.92659600  0.12116900  0.74094600  1
  Na  Na9  1  0.92659600  0.62116900  0.75905400  1
  Fe  Fe0  1  0.34589100  0.39305500  0.75322700  1
  Fe  Fe1  1  0.34589100  0.89305500  0.74677300  1
  Fe  Fe2  1  0.64778500  0.11155900  0.25203700  1
  Fe  Fe3  1  0.64778500  0.61155900  0.24796300  1
  P  P0  1  0.41775200  0.35029000  0.25036400  1
  P  P1  1  0.41775200  0.85029000  0.24963600  1
  P  P2  1  0.57888300  0.14344400  0.75135200  1
  P  P3  1  0.57888300  0.64344400  0.74864800  1
  C  C0  1  0.06361500  0.36584100  0.74838700  1
  C  C1  1  0.06361500  0.86584100  0.75161300  1
  C  C2  1  0.93812700  0.13646000  0.24540600  1
  C  C3  1  0.93812700  0.63646000  0.25459400  1
  O  O0  1  0.07792900  0.14750100  0.23221300  1
  O  O1  1  0.07792900  0.64750100  0.26778700  1
  O  O2  1  0.12706500  0.47679600  0.73419900  1
  O  O3  1  0.12706500  0.97679600  0.76580100  1
  O  O4  1  0.15123700  0.26748400  0.76160300  1
  O  O5  1  0.15123700  0.76748400  0.73839700  1
  O  O6  1  0.32164700  0.38320500  0.05797000  1
  O  O7  1  0.32300700  0.39284000  0.43869500  1
  O  O8  1  0.32300700  0.89284000  0.06130500  1
  O  O9  1  0.32164700  0.88320500  0.44203000  1
  O  O10  1  0.43418000  0.06544300  0.75825500  1
  O  O11  1  0.43418000  0.56544300  0.74174500  1
  O  O12  1  0.44546400  0.20556400  0.24980600  1
  O  O13  1  0.44546400  0.70556400  0.25019400  1
  O  O14  1  0.53586100  0.28907500  0.74966700  1
  O  O15  1  0.53586100  0.78907500  0.75033300  1
  O  O16  1  0.56630000  0.42255700  0.24812600  1
  O  O17  1  0.56630000  0.92255700  0.25187400  1
  O  O18  1  0.67724400  0.11210800  0.56540000  1
  O  O19  1  0.68054700  0.11633700  0.93684000  1
  O  O20  1  0.68054700  0.61633700  0.56316000  1
  O  O21  1  0.67724400  0.61210800  0.93460000  1
  O  O22  1  0.85077000  0.23737300  0.25321600  1
  O  O23  1  0.85077000  0.73737300  0.24678400  1
  O  O24  1  0.87477700  0.02408600  0.25228100  1
  O  O25  1  0.87477700  0.52408600  0.24771900  1
  O  O26  1  0.92097000  0.35541600  0.74947300  1
  O  O27  1  0.92097000  0.85541600  0.75052700  1
loop_
_geom_bond_atom_site_label_1
_geom_bond_atom_site_label_2
_geom_bond_distance
_geom_bond_site_symmetry_2
Na0 O25 2.403144 1_455
Na0 O6 2.461633 1_555
Na0 O7 2.472900 1_555
Na0 O0 2.488001 1_555
Na0 O22 2.637651 1_455
Na0 O1 2.771281 1_555
Na1 O24 2.403144 1_465
Na1 O9 2.461633 1_555
Na1 O8 2.472900 1_555
Na1 O1 2.488001 1_555
Na1 O23 2.637651 1_455
Na1 O0 2.771281 1_565
Na2 O0 2.216136 1_555
Na2 O12 2.369016 1_555
Na2 O10 2.373907 1_554
Na2 O4 2.483189 1_554
Na2 O8 2.511911 1_545
Na2 O3 2.623811 1_544
Na2 O6 2.761189 1_555
Na3 O1 2.216136 1_555
Na3 O13 2.369016 1_555
Na3 O11 2.373907 1_555
Na3 O5 2.483189 1_555
Na3 O7 2.511911 1_555
Na3 O2 2.623811 1_555
Na3 O9 2.761189 1_555
Na4 O16 2.307937 1_555
Na4 O26 2.351102 1_555
Na4 O22 2.381274 1_555
Na4 O25 2.585557 1_555
Na4 O20 2.619467 1_555
Na4 O14 2.638821 1_555
Na4 O18 2.857653 1_555
Na5 O16 2.299905 1_555
Na5 O26 2.350442 1_554
Na5 O22 2.394163 1_555
Na5 O25 2.584008 1_555
Na5 O21 2.611950 1_554
Na5 O14 2.632295 1_554
Na5 O19 2.779544 1_554
Na6 O17 2.299905 1_555
Na6 O27 2.350442 1_555
Na6 O23 2.394163 1_555
Na6 O24 2.584008 1_565
Na6 O18 2.611950 1_565
Na6 O15 2.632295 1_555
Na6 O20 2.779544 1_555
Na7 O17 2.307937 1_555
Na7 O27 2.351102 1_554
Na7 O23 2.381274 1_555
Na7 O24 2.585557 1_565
Na7 O19 2.619467 1_564
Na7 O15 2.638821 1_554
Na7 O21 2.857653 1_554
Na8 O3 2.355167 1_645
Na8 O26 2.461067 1_555
Na8 O18 2.531032 1_555
Na8 O4 2.556089 1_655
Na8 O19 2.567804 1_555
Na8 O27 2.792834 1_545
Na9 O2 2.355167 1_655
Na9 O27 2.461067 1_555
Na9 O21 2.531032 1_555
Na9 O5 2.556089 1_655
Na9 O20 2.567804 1_555
Na9 O26 2.792834 1_555
Fe0 O11 1.985354 1_555
Fe0 O14 2.023658 1_555
Fe0 O6 2.024163 1_556
Fe0 O7 2.084363 1_555
Fe0 O2 2.156912 1_555
Fe0 O4 2.204696 1_555
Fe1 O10 1.985354 1_565
Fe1 O15 2.023658 1_555
Fe1 O9 2.024163 1_555
Fe1 O8 2.084363 1_556
Fe1 O3 2.156912 1_555
Fe1 O5 2.204696 1_555
Fe2 O12 2.066870 1_555
Fe2 O18 2.083427 1_555
Fe2 O19 2.100050 1_554
Fe2 O17 2.122416 1_545
Fe2 O24 2.236177 1_555
Fe2 O22 2.266144 1_555
Fe3 O13 2.066870 1_555
Fe3 O21 2.083427 1_554
Fe3 O20 2.100050 1_555
Fe3 O16 2.122416 1_555
Fe3 O25 2.236177 1_555
Fe3 O23 2.266144 1_555
C0 O26 1.291572 1_455
C0 O4 1.298148 1_555
C0 O2 1.305825 1_555
C1 O27 1.291572 1_455
C1 O5 1.298148 1_555
C1 O3 1.305825 1_555
C2 O0 1.269629 1_655
C2 O22 1.316189 1_555
C2 O24 1.316258 1_555
C3 O1 1.269629 1_655
C3 O23 1.316189 1_555
C3 O25 1.316258 1_555
O6 P0 1.573155 1_555
O7 P0 1.570125 1_555
O8 P1 1.570125 1_555
O9 P1 1.573155 1_555
O10 P2 1.546904 1_555
O11 P3 1.546904 1_555
O12 P0 1.538415 1_555
O13 P1 1.538415 1_555
O14 P2 1.574888 1_555
O15 P3 1.574888 1_555
O16 P0 1.544919 1_555
O17 P1 1.544919 1_555
O18 P2 1.547069 1_555
O19 P2 1.553344 1_555
O20 P3 1.553344 1_555
O21 P3 1.547069 1_555
