# generated using pymatgen
data_ZrO2
_symmetry_space_group_name_H-M   'P 1'
_cell_length_a   5.42584038
_cell_length_b   7.66609213
_cell_length_c   3.44778885
_cell_angle_alpha   90.00000000
_cell_angle_beta   90.00000000
_cell_angle_gamma   90.00000000
_symmetry_Int_Tables_number   1
_chemical_formula_structural   ZrO2
_chemical_formula_sum   'Zr4 O8'
_cell_volume   143.41075045
_cell_formula_units_Z   4
loop_
 _symmetry_equiv_pos_site_id
 _symmetry_equiv_pos_as_xyz
  1  'x, y, z'
loop_
 _atom_site_type_symbol
 _atom_site_label
 _atom_site_symmetry_multiplicity
 _atom_site_fract_x
 _atom_site_fract_y
 _atom_site_fract_z
 _atom_site_occupancy
  Zr  Zr0  1  0.14395401  0.83043230  0.25000000  1
  Zr  Zr1  1  0.35604599  0.33043230  0.25000000  1
  Zr  Zr2  1  0.64395401  0.66956770  0.75000000  1
  Zr  Zr3  1  0.85604599  0.16956770  0.75000000  1
  O  O0  1  0.10844575  0.10998023  0.25000000  1
  O  O1  1  0.13094916  0.35663633  0.75000000  1
  O  O2  1  0.36905084  0.85663633  0.75000000  1
  O  O3  1  0.39155425  0.60998023  0.25000000  1
  O  O4  1  0.60844575  0.39001977  0.75000000  1
  O  O5  1  0.63094916  0.14336367  0.25000000  1
  O  O6  1  0.86905084  0.64336367  0.25000000  1
  O  O7  1  0.89155425  0.89001977  0.75000000  1
loop_
_geom_bond_atom_site_label_1
_geom_bond_atom_site_label_2
_geom_bond_distance
_geom_bond_site_symmetry_2
O0 Zr0 2.151683 1_545
O0 Zr1 2.158923 1_555
O0 Zr3 2.248546 1_454
O0 Zr3 2.248546 1_455
O1 Zr3 2.069158 1_455
O1 Zr1 2.122224 1_556
O1 Zr1 2.122224 1_555
O2 Zr2 2.069158 1_555
O2 Zr0 2.122224 1_556
O2 Zr0 2.122224 1_555
O3 Zr1 2.151683 1_555
O3 Zr0 2.158923 1_555
O3 Zr2 2.248546 1_554
O3 Zr2 2.248546 1_555
O4 Zr2 2.151683 1_555
O4 Zr3 2.158923 1_555
O4 Zr1 2.248546 1_556
O4 Zr1 2.248546 1_555
O5 Zr1 2.069158 1_555
O5 Zr3 2.122224 1_554
O5 Zr3 2.122224 1_555
O6 Zr0 2.069158 1_655
O6 Zr2 2.122224 1_554
O6 Zr2 2.122224 1_555
O7 Zr3 2.151683 1_565
O7 Zr2 2.158923 1_555
O7 Zr0 2.248546 1_656
O7 Zr0 2.248546 1_655
