# generated using pymatgen
data_Mn6O5F7
_symmetry_space_group_name_H-M   'P 1'
_cell_length_a   4.72850400
_cell_length_b   5.70740070
_cell_length_c   7.90600363
_cell_angle_alpha   86.19956774
_cell_angle_beta   88.85619760
_cell_angle_gamma   88.68518585
_symmetry_Int_Tables_number   1
_chemical_formula_structural   Mn6O5F7
_chemical_formula_sum   'Mn6 O5 F7'
_cell_volume   212.80139598
_cell_formula_units_Z   1
loop_
 _symmetry_equiv_pos_site_id
 _symmetry_equiv_pos_as_xyz
  1  'x, y, z'
loop_
 _atom_site_type_symbol
 _atom_site_label
 _atom_site_symmetry_multiplicity
 _atom_site_fract_x
 _atom_site_fract_y
 _atom_site_fract_z
 _atom_site_occupancy
  Mn  Mn0  1  0.52325900  0.50796500  0.00143000  1
  Mn  Mn1  1  0.52136500  0.84154700  0.67064200  1
  Mn  Mn2  1  0.46409300  0.18360100  0.34581700  1
  Mn  Mn3  1  0.99439500  0.32336700  0.67444700  1
  Mn  Mn4  1  0.00614900  0.65428200  0.31083300  1
  Mn  Mn5  1  0.97674600  0.99075000  0.99357900  1
  O  O0  1  0.80393400  0.04221800  0.78065400  1
  O  O1  1  0.81051800  0.70830100  0.09388300  1
  O  O2  1  0.69438700  0.53866100  0.76952200  1
  O  O3  1  0.30150100  0.12296300  0.57467200  1
  O  O4  1  0.31319800  0.47680100  0.22492700  1
  F  F0  1  0.80817500  0.36414900  0.43362700  1
  F  F1  1  0.69424300  0.19870100  0.12007100  1
  F  F2  1  0.70516600  0.86396700  0.42136500  1
  F  F3  1  0.30027200  0.79574500  0.89626100  1
  F  F4  1  0.19199400  0.62531800  0.55735400  1
  F  F5  1  0.18898400  0.97511100  0.21298000  1
  F  F6  1  0.20162000  0.28655200  0.91793700  1
loop_
_geom_bond_atom_site_label_1
_geom_bond_atom_site_label_2
_geom_bond_distance
_geom_bond_site_symmetry_2
Mn0 O1 1.976946 1_555
Mn0 O2 1.987902 1_554
Mn0 O4 2.009175 1_555
Mn1 O3 2.007375 1_565
Mn1 O2 2.012543 1_555
Mn1 O0 2.025370 1_565
Mn2 O3 1.964228 1_555
Mn2 O4 1.995815 1_555
Mn3 O0 1.987078 1_555
Mn3 O3 2.009199 1_655
Mn3 O2 2.021667 1_555
Mn4 O4 1.891998 1_555
Mn4 O1 1.967955 1_455
Mn5 O0 1.888425 1_565
Mn5 O1 1.925921 1_556
F0 Mn4 2.093458 1_655
F0 Mn2 2.099469 1_555
F0 Mn3 2.110269 1_555
F1 Mn5 2.055331 1_544
F1 Mn2 2.069649 1_555
F1 Mn0 2.096267 1_555
F2 Mn4 2.057227 1_655
F2 Mn1 2.135182 1_555
F2 Mn2 2.184366 1_565
F3 Mn5 2.039445 1_455
F3 Mn1 2.054094 1_555
F3 Mn0 2.067680 1_556
F4 Mn3 2.127869 1_455
F4 Mn4 2.148755 1_555
F4 Mn1 2.245269 1_555
F5 Mn5 2.017118 1_454
F5 Mn2 2.121874 1_565
F5 Mn4 2.134715 1_555
F6 Mn5 2.064379 1_445
F6 Mn0 2.141157 1_556
F6 Mn3 2.173079 1_455
