# generated using pymatgen
data_Na3V(BO3)2
_symmetry_space_group_name_H-M   'P 1'
_cell_length_a   9.55649700
_cell_length_b   5.54207200
_cell_length_c   11.73652430
_cell_angle_alpha   65.32979264
_cell_angle_beta   90.00000000
_cell_angle_gamma   90.00000000
_symmetry_Int_Tables_number   1
_chemical_formula_structural   Na3V(BO3)2
_chemical_formula_sum   'Na12 V4 B8 O24'
_cell_volume   564.86287342
_cell_formula_units_Z   4
loop_
 _symmetry_equiv_pos_site_id
 _symmetry_equiv_pos_as_xyz
  1  'x, y, z'
loop_
 _atom_site_type_symbol
 _atom_site_label
 _atom_site_symmetry_multiplicity
 _atom_site_fract_x
 _atom_site_fract_y
 _atom_site_fract_z
 _atom_site_occupancy
  Na  Na0  1  0.96312800  0.51269500  0.33970100  1
  Na  Na1  1  0.65852800  0.45605700  0.37652700  1
  Na  Na2  1  0.98164100  0.92390500  0.88631000  1
  Na  Na3  1  0.15852800  0.54394300  0.12347300  1
  Na  Na4  1  0.48164100  0.07609500  0.61369000  1
  Na  Na5  1  0.46312800  0.48730500  0.16029900  1
  Na  Na6  1  0.53687200  0.51269500  0.83970100  1
  Na  Na7  1  0.51835900  0.92390500  0.38631000  1
  Na  Na8  1  0.84147200  0.45605700  0.87652700  1
  Na  Na9  1  0.01835900  0.07609500  0.11369000  1
  Na  Na10  1  0.34147200  0.54394300  0.62347300  1
  Na  Na11  1  0.03687200  0.48730500  0.66029900  1
  V  V0  1  0.31689300  0.98645800  0.87712200  1
  V  V1  1  0.81689300  0.01354200  0.62287800  1
  V  V2  1  0.18310700  0.98645800  0.37712200  1
  V  V3  1  0.68310700  0.01354200  0.12287800  1
  B  B0  1  0.30944000  0.45192000  0.38172300  1
  B  B1  1  0.64906400  0.97895900  0.86536800  1
  B  B2  1  0.80944000  0.54808000  0.11827700  1
  B  B3  1  0.14906400  0.02104100  0.63463200  1
  B  B4  1  0.85093600  0.97895900  0.36536800  1
  B  B5  1  0.19056000  0.45192000  0.88172300  1
  B  B6  1  0.35093600  0.02104100  0.13463200  1
  B  B7  1  0.69056000  0.54808000  0.61827700  1
  O  O0  1  0.32724800  0.86979500  0.06771700  1
  O  O1  1  0.69649400  0.32487400  0.59188100  1
  O  O2  1  0.93172100  0.68440300  0.10947700  1
  O  O3  1  0.25699100  0.11754100  0.68171800  1
  O  O4  1  0.01013400  0.07442100  0.65935900  1
  O  O5  1  0.68676100  0.63291500  0.15554900  1
  O  O6  1  0.18676100  0.36708500  0.34445100  1
  O  O7  1  0.51013400  0.92557900  0.84064100  1
  O  O8  1  0.75699100  0.88245900  0.81828200  1
  O  O9  1  0.43172100  0.31559700  0.39052300  1
  O  O10  1  0.82724800  0.13020500  0.43228300  1
  O  O11  1  0.19649400  0.67512600  0.90811900  1
  O  O12  1  0.80350600  0.32487400  0.09188100  1
  O  O13  1  0.17275200  0.86979500  0.56771700  1
  O  O14  1  0.56827900  0.68440300  0.60947700  1
  O  O15  1  0.24300900  0.11754100  0.18171800  1
  O  O16  1  0.48986600  0.07442100  0.15935900  1
  O  O17  1  0.81323900  0.63291500  0.65554900  1
  O  O18  1  0.31323900  0.36708500  0.84445100  1
  O  O19  1  0.98986600  0.92557900  0.34064100  1
  O  O20  1  0.74300900  0.88245900  0.31828200  1
  O  O21  1  0.06827900  0.31559700  0.89052300  1
  O  O22  1  0.30350600  0.67512600  0.40811900  1
  O  O23  1  0.67275200  0.13020500  0.93228300  1
loop_
_geom_bond_atom_site_label_1
_geom_bond_atom_site_label_2
_geom_bond_distance
_geom_bond_site_symmetry_2
Na0 O6 2.276878 1_655
Na0 O19 2.307054 1_555
Na0 O10 2.331860 1_555
Na0 O2 2.479946 1_555
Na1 O9 2.285646 1_555
Na1 O10 2.302761 1_555
Na1 O20 2.314095 1_555
Na1 O1 2.348302 1_555
Na1 O5 2.374393 1_555
Na2 O8 2.335028 1_555
Na2 O21 2.343047 1_665
Na2 O11 2.426452 1_655
Na2 O2 2.438738 1_556
Na2 O4 2.451532 1_665
Na3 O2 2.285646 1_455
Na3 O0 2.302761 1_555
Na3 O15 2.314095 1_555
Na3 O11 2.348302 1_554
Na3 O6 2.374393 1_555
Na4 O3 2.335028 1_555
Na4 O14 2.343047 1_545
Na4 O1 2.426452 1_555
Na4 O9 2.438738 1_555
Na4 O7 2.451532 1_545
Na5 O5 2.276878 1_555
Na5 O16 2.307054 1_555
Na5 O0 2.331860 1_555
Na5 O9 2.479946 1_555
Na6 O18 2.276878 1_555
Na6 O7 2.307054 1_555
Na6 O23 2.331860 1_555
Na6 O14 2.479946 1_555
Na7 O20 2.335028 1_555
Na7 O9 2.343047 1_565
Na7 O22 2.426452 1_555
Na7 O14 2.438738 1_555
Na7 O16 2.451532 1_565
Na8 O21 2.285646 1_655
Na8 O23 2.302761 1_555
Na8 O8 2.314095 1_555
Na8 O12 2.348302 1_556
Na8 O17 2.374393 1_555
Na9 O15 2.335028 1_555
Na9 O2 2.343047 1_445
Na9 O12 2.426452 1_455
Na9 O21 2.438738 1_554
Na9 O19 2.451532 1_445
Na10 O14 2.285646 1_555
Na10 O13 2.302761 1_555
Na10 O3 2.314095 1_555
Na10 O22 2.348302 1_555
Na10 O18 2.374393 1_555
Na11 O17 2.276878 1_455
Na11 O4 2.307054 1_555
Na11 O13 2.331860 1_555
Na11 O21 2.479946 1_555
B0 O9 1.371824 1_555
B0 O22 1.396185 1_555
B0 O6 1.399492 1_555
B1 O8 1.379106 1_555
B1 O23 1.385699 1_565
B1 O7 1.416388 1_555
B2 O2 1.371824 1_555
B2 O12 1.396185 1_555
B2 O5 1.399492 1_555
B3 O3 1.379106 1_555
B3 O13 1.385699 1_545
B3 O4 1.416388 1_555
B4 O20 1.379106 1_555
B4 O10 1.385699 1_565
B4 O19 1.416388 1_555
B5 O21 1.371824 1_555
B5 O11 1.396185 1_555
B5 O18 1.399492 1_555
B6 O15 1.379106 1_555
B6 O0 1.385699 1_545
B6 O16 1.416388 1_555
B7 O14 1.371824 1_555
B7 O1 1.396185 1_555
B7 O17 1.399492 1_555
O0 V0 2.055310 1_554
O1 V1 1.977195 1_555
O3 V0 2.173515 1_545
O4 V1 1.956547 1_455
O5 V3 1.980619 1_565
O6 V2 1.980619 1_545
O7 V0 1.956547 1_555
O8 V1 2.173515 1_565
O10 V1 2.055310 1_555
O11 V0 1.977195 1_555
O12 V3 1.977195 1_555
O13 V2 2.055310 1_555
O15 V2 2.173515 1_545
O16 V3 1.956547 1_555
O17 V1 1.980619 1_565
O18 V0 1.980619 1_545
O19 V2 1.956547 1_655
O20 V3 2.173515 1_565
O22 V2 1.977195 1_555
O23 V3 2.055310 1_556
