# generated using pymatgen
data_Y2GeO5
_symmetry_space_group_name_H-M   'P 1'
_cell_length_a   6.92273925
_cell_length_b   6.76157492
_cell_length_c   9.31830165
_cell_angle_alpha   80.69413633
_cell_angle_beta   90.00000000
_cell_angle_gamma   90.00000000
_symmetry_Int_Tables_number   1
_chemical_formula_structural   Y2GeO5
_chemical_formula_sum   'Y8 Ge4 O20'
_cell_volume   430.43639374
_cell_formula_units_Z   4
loop_
 _symmetry_equiv_pos_site_id
 _symmetry_equiv_pos_as_xyz
  1  'x, y, z'
loop_
 _atom_site_type_symbol
 _atom_site_label
 _atom_site_symmetry_multiplicity
 _atom_site_fract_x
 _atom_site_fract_y
 _atom_site_fract_z
 _atom_site_occupancy
  Y  Y0  1  0.64219775  0.98782902  0.15055144  1
  Y  Y1  1  0.85780225  0.48782902  0.15055144  1
  Y  Y2  1  0.61950755  0.22991987  0.47032193  1
  Y  Y3  1  0.11950755  0.27008013  0.52967807  1
  Y  Y4  1  0.88049245  0.72991987  0.47032193  1
  Y  Y5  1  0.38049245  0.77008013  0.52967807  1
  Y  Y6  1  0.14219775  0.51217098  0.84944856  1
  Y  Y7  1  0.35780225  0.01217098  0.84944856  1
  Ge  Ge0  1  0.10096352  0.98913091  0.20011162  1
  Ge  Ge1  1  0.39903648  0.48913091  0.20011162  1
  Ge  Ge2  1  0.60096352  0.51086909  0.79988838  1
  Ge  Ge3  1  0.89903648  0.01086909  0.79988838  1
  O  O0  1  0.31034718  0.98971547  0.09854910  1
  O  O1  1  0.92793917  0.16966070  0.13635891  1
  O  O2  1  0.18965282  0.48971547  0.09854910  1
  O  O3  1  0.56739973  0.28516370  0.21882947  1
  O  O4  1  0.57206083  0.66966070  0.13635891  1
  O  O5  1  0.93260027  0.78516370  0.21882947  1
  O  O6  1  0.87951729  0.41657041  0.39522841  1
  O  O7  1  0.35400825  0.47487115  0.39066588  1
  O  O8  1  0.62048271  0.91657041  0.39522841  1
  O  O9  1  0.14599175  0.97487115  0.39066588  1
  O  O10  1  0.85400825  0.02512885  0.60933412  1
  O  O11  1  0.37951729  0.08342959  0.60477159  1
  O  O12  1  0.64599175  0.52512885  0.60933412  1
  O  O13  1  0.12048271  0.58342959  0.60477159  1
  O  O14  1  0.06739973  0.21483630  0.78117053  1
  O  O15  1  0.42793917  0.33033930  0.86364109  1
  O  O16  1  0.43260027  0.71483630  0.78117053  1
  O  O17  1  0.81034718  0.51028453  0.90145090  1
  O  O18  1  0.07206083  0.83033930  0.86364109  1
  O  O19  1  0.68965282  0.01028453  0.90145090  1
loop_
_geom_bond_atom_site_label_1
_geom_bond_atom_site_label_2
_geom_bond_distance
_geom_bond_site_symmetry_2
Ge0 O0 1.730761 1_555
Ge0 O1 1.744462 1_465
Ge0 O9 1.789972 1_555
Ge0 O5 1.792519 1_455
Ge1 O2 1.730761 1_555
Ge1 O4 1.744462 1_555
Ge1 O7 1.789972 1_555
Ge1 O3 1.792519 1_555
Ge2 O17 1.730761 1_555
Ge2 O15 1.744462 1_555
Ge2 O12 1.789972 1_555
Ge2 O16 1.792519 1_555
Ge3 O19 1.730761 1_555
Ge3 O18 1.744462 1_645
Ge3 O10 1.789972 1_555
Ge3 O14 1.792519 1_655
O0 Y7 2.324852 1_564
O0 Y0 2.347473 1_555
O1 Y1 2.230118 1_555
O1 Y0 2.321515 1_545
O2 Y6 2.324852 1_554
O2 Y1 2.347473 1_455
O3 Y0 2.264622 1_545
O3 Y2 2.340611 1_555
O3 Y1 2.458106 1_555
O4 Y0 2.230118 1_555
O4 Y1 2.321515 1_555
O5 Y1 2.264622 1_555
O5 Y4 2.340611 1_555
O5 Y0 2.458106 1_555
O6 Y3 2.215761 1_655
O6 Y2 2.244267 1_555
O6 Y1 2.257820 1_555
O6 Y4 2.336281 1_555
O7 Y3 2.377112 1_555
O7 Y2 2.504940 1_555
O7 Y5 2.555799 1_555
O8 Y5 2.215761 1_555
O8 Y4 2.244267 1_555
O8 Y0 2.257820 1_555
O8 Y2 2.336281 1_565
O9 Y5 2.377112 1_555
O9 Y4 2.504940 1_455
O9 Y3 2.555799 1_565
O10 Y2 2.377112 1_555
O10 Y3 2.504940 1_655
O10 Y4 2.555799 1_545
O11 Y2 2.215761 1_555
O11 Y3 2.244267 1_555
O11 Y7 2.257820 1_555
O11 Y5 2.336281 1_545
O12 Y4 2.377112 1_555
O12 Y5 2.504940 1_555
O12 Y2 2.555799 1_555
O13 Y4 2.215761 1_455
O13 Y5 2.244267 1_555
O13 Y6 2.257820 1_555
O13 Y3 2.336281 1_555
O14 Y6 2.264622 1_555
O14 Y3 2.340611 1_555
O14 Y7 2.458106 1_555
O15 Y7 2.230118 1_555
O15 Y6 2.321515 1_555
O16 Y7 2.264622 1_565
O16 Y5 2.340611 1_555
O16 Y6 2.458106 1_555
O17 Y1 2.324852 1_556
O17 Y6 2.347473 1_655
O18 Y6 2.230118 1_555
O18 Y7 2.321515 1_565
O19 Y0 2.324852 1_546
O19 Y7 2.347473 1_555
