# generated using pymatgen
data_Li4Mn3Fe(BO3)4
_symmetry_space_group_name_H-M   'P 1'
_cell_length_a   5.24280600
_cell_length_b   6.05305522
_cell_length_c   8.27949606
_cell_angle_alpha   103.43523325
_cell_angle_beta   90.79996666
_cell_angle_gamma   90.73438950
_symmetry_Int_Tables_number   1
_chemical_formula_structural   Li4Mn3Fe(BO3)4
_chemical_formula_sum   'Li4 Mn3 Fe1 B4 O12'
_cell_volume   255.49937802
_cell_formula_units_Z   1
loop_
 _symmetry_equiv_pos_site_id
 _symmetry_equiv_pos_as_xyz
  1  'x, y, z'
loop_
 _atom_site_type_symbol
 _atom_site_label
 _atom_site_symmetry_multiplicity
 _atom_site_fract_x
 _atom_site_fract_y
 _atom_site_fract_z
 _atom_site_occupancy
  Li  Li0  1  0.65063300  0.95287800  0.28357100  1
  Li  Li1  1  0.84787900  0.54687000  0.21940100  1
  Li  Li2  1  0.14980500  0.45435600  0.78135900  1
  Li  Li3  1  0.34957100  0.04675800  0.71750600  1
  Mn  Mn0  1  0.66766800  0.68651200  0.91799500  1
  Mn  Mn1  1  0.33268500  0.31400300  0.07946700  1
  Mn  Mn2  1  0.16579900  0.18678200  0.42014900  1
  Fe  Fe0  1  0.83948100  0.81627900  0.58186100  1
  B  B0  1  0.16916300  0.83319500  0.09633300  1
  B  B1  1  0.33017400  0.66546000  0.40608900  1
  B  B2  1  0.66970400  0.33470500  0.59520300  1
  B  B3  1  0.83118200  0.16531700  0.90156900  1
  O  O0  1  0.90953300  0.82527400  0.12296200  1
  O  O1  1  0.68211700  0.98478700  0.80682700  1
  O  O2  1  0.20745200  0.83731300  0.51935100  1
  O  O3  1  0.58927700  0.67775100  0.38287700  1
  O  O4  1  0.18190200  0.48571800  0.31094900  1
  O  O5  1  0.71389400  0.33841800  0.01551100  1
  O  O6  1  0.28659300  0.65908200  0.98326400  1
  O  O7  1  0.81972800  0.51629800  0.68642300  1
  O  O8  1  0.41032900  0.32612900  0.62311200  1
  O  O9  1  0.78577200  0.15898000  0.48323900  1
  O  O10  1  0.31900800  0.01386100  0.18899400  1
  O  O11  1  0.09065100  0.17327400  0.87598900  1
loop_
_geom_bond_atom_site_label_1
_geom_bond_atom_site_label_2
_geom_bond_distance
_geom_bond_site_symmetry_2
Li0 O9 1.943586 1_565
Li0 O0 1.951226 1_555
Li0 O10 1.971058 1_565
Li0 O3 2.045203 1_555
Li1 O3 1.969334 1_555
Li1 O4 1.971860 1_655
Li1 O5 1.972204 1_555
Li1 O0 2.049496 1_555
Li2 O8 1.946606 1_555
Li2 O6 1.955903 1_555
Li2 O7 1.966912 1_455
Li2 O11 2.053661 1_555
Li3 O11 1.939169 1_555
Li3 O2 1.956836 1_545
Li3 O1 1.958824 1_545
Li3 O8 2.044308 1_555
Mn0 O6 2.091541 1_555
Mn0 O0 2.107979 1_556
Mn0 O7 2.125775 1_555
Mn0 O1 2.209820 1_555
Mn0 O5 2.438922 1_556
Mn1 O5 2.086864 1_555
Mn1 O11 2.102321 1_554
Mn1 O4 2.125120 1_555
Mn1 O10 2.211835 1_555
Mn1 O6 2.415891 1_554
Mn2 O9 2.081388 1_455
Mn2 O8 2.105315 1_555
Mn2 O10 2.130068 1_555
Mn2 O4 2.203908 1_555
Mn2 O2 2.451780 1_545
Fe0 O2 2.014470 1_655
Fe0 O1 2.090930 1_555
Fe0 O3 2.099424 1_555
Fe0 O7 2.187579 1_555
Fe0 O9 2.417597 1_565
B0 O0 1.383967 1_455
B0 O6 1.392987 1_554
B0 O10 1.404619 1_565
B1 O3 1.378092 1_555
B1 O2 1.398624 1_555
B1 O4 1.404090 1_555
B2 O8 1.384857 1_555
B2 O9 1.391108 1_555
B2 O7 1.404552 1_555
B3 O11 1.381601 1_655
B3 O5 1.392602 1_556
B3 O1 1.408143 1_545
