# generated using pymatgen
data_MnV3(PO4)4
_symmetry_space_group_name_H-M   'P 1'
_cell_length_a   5.91865600
_cell_length_b   4.92036100
_cell_length_c   10.10035610
_cell_angle_alpha   89.31014378
_cell_angle_beta   90.00000000
_cell_angle_gamma   90.00000000
_symmetry_Int_Tables_number   1
_chemical_formula_structural   MnV3(PO4)4
_chemical_formula_sum   'Mn1 V3 P4 O16'
_cell_volume   294.12048412
_cell_formula_units_Z   1
loop_
 _symmetry_equiv_pos_site_id
 _symmetry_equiv_pos_as_xyz
  1  'x, y, z'
loop_
 _atom_site_type_symbol
 _atom_site_label
 _atom_site_symmetry_multiplicity
 _atom_site_fract_x
 _atom_site_fract_y
 _atom_site_fract_z
 _atom_site_occupancy
  Mn  Mn0  1  0.00000000  0.03531200  0.27665000  1
  V  V0  1  0.00000000  0.47979900  0.77152600  1
  V  V1  1  0.50000000  0.54224900  0.22069200  1
  V  V2  1  0.50000000  0.97954600  0.73204200  1
  P  P0  1  0.50000000  0.10469900  0.40028300  1
  P  P1  1  0.50000000  0.41054400  0.90484700  1
  P  P2  1  0.00000000  0.56093600  0.09201900  1
  P  P3  1  0.00000000  0.91557500  0.60131300  1
  O  O0  1  0.50000000  0.14097300  0.54992500  1
  O  O1  1  0.30281700  0.26442300  0.32840200  1
  O  O2  1  0.69718300  0.26442300  0.32840200  1
  O  O3  1  0.00000000  0.22004500  0.62768100  1
  O  O4  1  0.00000000  0.25687700  0.10556000  1
  O  O5  1  0.29817700  0.26650900  0.83068700  1
  O  O6  1  0.70182300  0.26650900  0.83068700  1
  O  O7  1  0.50000000  0.33555500  0.05357600  1
  O  O8  1  0.00000000  0.65324600  0.94771200  1
  O  O9  1  0.79113400  0.69905200  0.16758600  1
  O  O10  1  0.20886600  0.69905200  0.16758600  1
  O  O11  1  0.50000000  0.71694400  0.88270500  1
  O  O12  1  0.50000000  0.79912300  0.36864600  1
  O  O13  1  0.79675200  0.76865000  0.67737700  1
  O  O14  1  0.20324800  0.76865000  0.67737700  1
  O  O15  1  0.00000000  0.85131100  0.45671600  1
loop_
_geom_bond_atom_site_label_1
_geom_bond_atom_site_label_2
_geom_bond_distance
_geom_bond_site_symmetry_2
Mn0 O15 2.021829 1_545
Mn0 O4 2.032081 1_555
Mn0 O2 2.184142 1_455
Mn0 O1 2.184142 1_555
Mn0 O10 2.350111 1_545
Mn0 O9 2.350111 1_445
O0 P0 1.524072 1_555
O0 V2 1.994809 1_545
O1 P0 1.578935 1_555
O1 V1 2.092477 1_555
O2 P0 1.578935 1_555
O2 V1 2.092477 1_555
O3 P3 1.524745 1_545
O3 V0 1.946558 1_555
O4 P2 1.500678 1_555
O5 P1 1.582084 1_555
O5 V2 2.108816 1_545
O5 V0 2.134919 1_555
O6 P1 1.582084 1_555
O6 V2 2.108816 1_545
O6 V0 2.134919 1_655
O7 P1 1.542545 1_554
O7 V1 1.981100 1_555
O8 P2 1.521451 1_556
O8 V0 1.982843 1_555
O9 P2 1.607819 1_655
O9 V1 1.960141 1_555
O10 P2 1.607819 1_555
O10 V1 1.960141 1_555
O11 P1 1.521430 1_555
O11 V2 1.984412 1_555
O12 P0 1.540884 1_565
O12 V1 1.968795 1_555
O13 P3 1.595804 1_655
O13 V0 2.082977 1_655
O13 V2 2.116669 1_555
O14 P3 1.595804 1_555
O14 V0 2.082977 1_555
O14 V2 2.116669 1_555
O15 P3 1.498035 1_555
