# generated using pymatgen
data_LiNiPO4
_symmetry_space_group_name_H-M   'P 1'
_cell_length_a   9.79598200
_cell_length_b   4.70956400
_cell_length_c   6.69548992
_cell_angle_alpha   89.65423740
_cell_angle_beta   90.00000000
_cell_angle_gamma   90.00000000
_symmetry_Int_Tables_number   1
_chemical_formula_structural   LiNiPO4
_chemical_formula_sum   'Li4 Ni4 P4 O16'
_cell_volume   308.88949154
_cell_formula_units_Z   4
loop_
 _symmetry_equiv_pos_site_id
 _symmetry_equiv_pos_as_xyz
  1  'x, y, z'
loop_
 _atom_site_type_symbol
 _atom_site_label
 _atom_site_symmetry_multiplicity
 _atom_site_fract_x
 _atom_site_fract_y
 _atom_site_fract_z
 _atom_site_occupancy
  Li  Li0  1  0.30537000  0.75744100  0.73550100  1
  Li  Li1  1  0.74216800  0.29384400  0.72447900  1
  Li  Li2  1  0.24216800  0.70615600  0.27552100  1
  Li  Li3  1  0.80537000  0.24255900  0.26449900  1
  Ni  Ni0  1  0.01537400  0.78359600  0.96672200  1
  Ni  Ni1  1  0.08784600  0.24050100  0.53309300  1
  Ni  Ni2  1  0.58784600  0.75949900  0.46690700  1
  Ni  Ni3  1  0.51537400  0.21640400  0.03327800  1
  P  P0  1  0.19993900  0.20731900  0.97641000  1
  P  P1  1  0.90588600  0.72273800  0.52995600  1
  P  P2  1  0.40588600  0.27726200  0.47004400  1
  P  P3  1  0.69993900  0.79268100  0.02359000  1
  O  O0  1  0.34398800  0.09094900  0.92320500  1
  O  O1  1  0.19082400  0.53459800  0.97575300  1
  O  O2  1  0.63934300  0.93299100  0.83321300  1
  O  O3  1  0.10848300  0.07761700  0.80073300  1
  O  O4  1  0.90855800  0.60980200  0.74863400  1
  O  O5  1  0.27544300  0.41268100  0.56135300  1
  O  O6  1  0.89955400  0.05186500  0.51189700  1
  O  O7  1  0.53614400  0.38762700  0.57951600  1
  O  O8  1  0.03614400  0.61237300  0.42048400  1
  O  O9  1  0.39955400  0.94813500  0.48810300  1
  O  O10  1  0.77544300  0.58731900  0.43864700  1
  O  O11  1  0.40855800  0.39019800  0.25136600  1
  O  O12  1  0.60848300  0.92238300  0.19926700  1
  O  O13  1  0.13934300  0.06700900  0.16678700  1
  O  O14  1  0.69082400  0.46540200  0.02424700  1
  O  O15  1  0.84398800  0.90905100  0.07679500  1
loop_
_geom_bond_atom_site_label_1
_geom_bond_atom_site_label_2
_geom_bond_distance
_geom_bond_site_symmetry_2
Li0 O5 2.025998 1_555
Li0 O0 2.052665 1_565
Li0 O9 2.093721 1_555
Li0 O1 2.219855 1_555
Li0 O3 2.488439 1_565
Li1 O2 2.101869 1_545
Li1 O4 2.213600 1_555
Li1 O14 2.225708 1_556
Li1 O7 2.281475 1_555
Li1 O10 2.376386 1_555
Li1 O6 2.391902 1_555
Li2 O13 2.101869 1_565
Li2 O11 2.213600 1_555
Li2 O1 2.225708 1_554
Li2 O8 2.281475 1_555
Li2 O5 2.376386 1_555
Li2 O9 2.391902 1_555
Li3 O10 2.025998 1_555
Li3 O15 2.052665 1_545
Li3 O6 2.093721 1_555
Li3 O14 2.219855 1_555
Li3 O12 2.488439 1_545
Ni0 O15 1.927742 1_456
Ni0 O4 1.977737 1_455
Ni0 O3 1.991463 1_565
Ni0 O1 2.081323 1_555
Ni0 O13 2.252166 1_566
Ni1 O3 1.955488 1_555
Ni1 O8 1.968831 1_555
Ni1 O5 2.018002 1_555
Ni1 O6 2.052585 1_455
Ni2 O12 1.955488 1_555
Ni2 O7 1.968831 1_555
Ni2 O10 2.018002 1_555
Ni2 O9 2.052585 1_555
Ni3 O0 1.927742 1_554
Ni3 O11 1.977737 1_555
Ni3 O12 1.991463 1_545
Ni3 O14 2.081323 1_555
Ni3 O2 2.252166 1_544
O0 P0 1.555901 1_555
O1 P0 1.543905 1_555
O2 P3 1.550362 1_556
O3 P0 1.602493 1_555
O4 P1 1.554971 1_555
O5 P2 1.555000 1_555
O6 P1 1.555263 1_545
O7 P2 1.562111 1_555
O8 P1 1.562111 1_455
O9 P2 1.555263 1_565
O10 P1 1.555000 1_555
O11 P2 1.554971 1_555
O12 P3 1.602493 1_555
O13 P0 1.550362 1_554
O14 P3 1.543905 1_555
O15 P3 1.555901 1_555
