# generated using pymatgen
data_Nb3Cr(PO4)6
_symmetry_space_group_name_H-M   'P 1'
_cell_length_a   8.97174499
_cell_length_b   8.97174499
_cell_length_c   8.97174459
_cell_angle_alpha   58.53179536
_cell_angle_beta   58.53179536
_cell_angle_gamma   58.53179590
_symmetry_Int_Tables_number   1
_chemical_formula_structural   Nb3Cr(PO4)6
_chemical_formula_sum   'Nb3 Cr1 P6 O24'
_cell_volume   493.49352353
_cell_formula_units_Z   1
loop_
 _symmetry_equiv_pos_site_id
 _symmetry_equiv_pos_as_xyz
  1  'x, y, z'
loop_
 _atom_site_type_symbol
 _atom_site_label
 _atom_site_symmetry_multiplicity
 _atom_site_fract_x
 _atom_site_fract_y
 _atom_site_fract_z
 _atom_site_occupancy
  Nb  Nb0  1  0.14054600  0.14054600  0.14054600  1
  Nb  Nb1  1  0.35843800  0.35843800  0.35843800  1
  Nb  Nb2  1  0.63953000  0.63953000  0.63953000  1
  Cr  Cr0  1  0.85716200  0.85716200  0.85716200  1
  P  P0  1  0.03213000  0.47190800  0.75045000  1
  P  P1  1  0.47190800  0.75045000  0.03213000  1
  P  P2  1  0.75045000  0.03213000  0.47190800  1
  P  P3  1  0.24142100  0.96521400  0.54098800  1
  P  P4  1  0.54098800  0.24142100  0.96521400  1
  P  P5  1  0.96521400  0.54098800  0.24142100  1
  O  O0  1  0.13303600  0.50157000  0.28222600  1
  O  O1  1  0.28222600  0.13303600  0.50157000  1
  O  O2  1  0.06203600  0.28969200  0.91984600  1
  O  O3  1  0.50157000  0.28222600  0.13303600  1
  O  O4  1  0.21022600  0.43535900  0.58011500  1
  O  O5  1  0.00958000  0.63532700  0.77693900  1
  O  O6  1  0.28969200  0.91984600  0.06203600  1
  O  O7  1  0.43535900  0.58011500  0.21022600  1
  O  O8  1  0.58011500  0.21022600  0.43535900  1
  O  O9  1  0.21983000  0.99636700  0.36497100  1
  O  O10  1  0.07695100  0.94001600  0.71503000  1
  O  O11  1  0.36497100  0.21983000  0.99636700  1
  O  O12  1  0.63532700  0.77693900  0.00958000  1
  O  O13  1  0.91984600  0.06203600  0.28969200  1
  O  O14  1  0.77693900  0.00958000  0.63532700  1
  O  O15  1  0.42013600  0.79009700  0.56133900  1
  O  O16  1  0.56133900  0.42013600  0.79009700  1
  O  O17  1  0.71503000  0.07695100  0.94001600  1
  O  O18  1  0.99636700  0.36497100  0.21983000  1
  O  O19  1  0.79009700  0.56133900  0.42013600  1
  O  O20  1  0.49702100  0.71938200  0.86512000  1
  O  O21  1  0.94001600  0.71503000  0.07695100  1
  O  O22  1  0.71938200  0.86512000  0.49702100  1
  O  O23  1  0.86512000  0.49702100  0.71938200  1
loop_
_geom_bond_atom_site_label_1
_geom_bond_atom_site_label_2
_geom_bond_distance
_geom_bond_site_symmetry_2
Nb0 O2 1.978173 1_554
Nb0 O6 1.978173 1_545
Nb0 O13 1.978173 1_455
Nb0 O9 2.012150 1_545
Nb0 O18 2.012150 1_455
Nb0 O11 2.012150 1_554
Nb1 O4 1.978301 1_555
Nb1 O8 1.978301 1_555
Nb1 O7 1.978301 1_555
Nb1 O3 2.005418 1_555
Nb1 O0 2.005418 1_555
Nb1 O1 2.005418 1_555
Nb2 O19 1.966594 1_555
Nb2 O15 1.966595 1_555
Nb2 O16 1.966595 1_555
Nb2 O20 2.024866 1_555
Nb2 O23 2.024867 1_555
Nb2 O22 2.024867 1_555
Cr0 O14 1.993885 1_565
Cr0 O5 1.993885 1_655
Cr0 O12 1.993885 1_556
Cr0 O21 1.995603 1_556
Cr0 O17 1.995603 1_565
Cr0 O10 1.995603 1_655
O0 P5 1.552573 1_455
O1 P3 1.552573 1_545
O2 P0 1.558230 1_555
O3 P4 1.552572 1_554
O4 P0 1.556529 1_555
O5 P0 1.500304 1_555
O6 P1 1.558230 1_555
O7 P1 1.556529 1_555
O8 P2 1.556529 1_555
O9 P3 1.552895 1_555
O10 P3 1.496924 1_555
O11 P4 1.552895 1_555
O12 P1 1.500304 1_555
O13 P2 1.558230 1_555
O14 P2 1.500304 1_555
O15 P3 1.564817 1_555
O16 P4 1.564817 1_555
O17 P4 1.496924 1_555
O18 P5 1.552895 1_555
O19 P5 1.564817 1_555
O20 P1 1.546475 1_556
O21 P5 1.496924 1_555
O22 P2 1.546475 1_565
O23 P0 1.546475 1_655
