# generated using pymatgen
data_Na2Zr(SiO3)6
_symmetry_space_group_name_H-M   'P 1'
_cell_length_a   7.24657800
_cell_length_b   14.63597300
_cell_length_c   14.90679900
_cell_angle_alpha   90.00000000
_cell_angle_beta   90.00000000
_cell_angle_gamma   90.00000000
_symmetry_Int_Tables_number   1
_chemical_formula_structural   Na2Zr(SiO3)6
_chemical_formula_sum   'Na8 Zr4 Si24 O72'
_cell_volume   1581.02583410
_cell_formula_units_Z   4
loop_
 _symmetry_equiv_pos_site_id
 _symmetry_equiv_pos_as_xyz
  1  'x, y, z'
loop_
 _atom_site_type_symbol
 _atom_site_label
 _atom_site_symmetry_multiplicity
 _atom_site_fract_x
 _atom_site_fract_y
 _atom_site_fract_z
 _atom_site_occupancy
  Na  Na0  1  0.46331900  0.25000000  0.26620800  1
  Na  Na1  1  0.53668100  0.75000000  0.73379200  1
  Na  Na2  1  0.46331900  0.75000000  0.23379200  1
  Na  Na3  1  0.53668100  0.25000000  0.76620800  1
  Na  Na4  1  0.99272600  0.00000000  0.25000000  1
  Na  Na5  1  0.00727400  0.50000000  0.75000000  1
  Na  Na6  1  0.00727400  0.00000000  0.75000000  1
  Na  Na7  1  0.99272600  0.50000000  0.25000000  1
  Zr  Zr0  1  0.49398700  0.00000000  0.25000000  1
  Zr  Zr1  1  0.50601300  0.50000000  0.75000000  1
  Zr  Zr2  1  0.50601300  0.00000000  0.75000000  1
  Zr  Zr3  1  0.49398700  0.50000000  0.25000000  1
  Si  Si0  1  0.77256900  0.14418700  0.11213400  1
  Si  Si1  1  0.22743100  0.64418700  0.88786600  1
  Si  Si2  1  0.77256900  0.85581300  0.38786600  1
  Si  Si3  1  0.22743100  0.35581300  0.61213400  1
  Si  Si4  1  0.22743100  0.85581300  0.88786600  1
  Si  Si5  1  0.77256900  0.35581300  0.11213400  1
  Si  Si6  1  0.22743100  0.14418700  0.61213400  1
  Si  Si7  1  0.77256900  0.64418700  0.38786600  1
  Si  Si8  1  0.50849500  0.14045700  0.45296700  1
  Si  Si9  1  0.49150500  0.64045700  0.54703300  1
  Si  Si10  1  0.50849500  0.85954300  0.04703300  1
  Si  Si11  1  0.49150500  0.35954300  0.95296700  1
  Si  Si12  1  0.49150500  0.85954300  0.54703300  1
  Si  Si13  1  0.50849500  0.35954300  0.45296700  1
  Si  Si14  1  0.49150500  0.14045700  0.95296700  1
  Si  Si15  1  0.50849500  0.64045700  0.04703300  1
  Si  Si16  1  0.21509600  0.14214100  0.10580900  1
  Si  Si17  1  0.78490400  0.64214100  0.89419100  1
  Si  Si18  1  0.21509600  0.85785900  0.39419100  1
  Si  Si19  1  0.78490400  0.35785900  0.60580900  1
  Si  Si20  1  0.78490400  0.85785900  0.89419100  1
  Si  Si21  1  0.21509600  0.35785900  0.10580900  1
  Si  Si22  1  0.78490400  0.14214100  0.60580900  1
  Si  Si23  1  0.21509600  0.64214100  0.39419100  1
  O  O0  1  0.99300200  0.13314100  0.09524000  1
  O  O1  1  0.00699800  0.63314100  0.90476000  1
  O  O2  1  0.99300200  0.86685900  0.40476000  1
  O  O3  1  0.00699800  0.36685900  0.59524000  1
  O  O4  1  0.00699800  0.86685900  0.90476000  1
  O  O5  1  0.99300200  0.36685900  0.09524000  1
  O  O6  1  0.00699800  0.13314100  0.59524000  1
  O  O7  1  0.99300200  0.63314100  0.40476000  1
  O  O8  1  0.72555400  0.25000000  0.14486800  1
  O  O9  1  0.27444600  0.75000000  0.85513200  1
  O  O10  1  0.72555400  0.75000000  0.35513200  1
  O  O11  1  0.27444600  0.25000000  0.64486800  1
  O  O12  1  0.71049600  0.07629200  0.19149900  1
  O  O13  1  0.28950400  0.57629200  0.80850100  1
  O  O14  1  0.71049600  0.92370800  0.30850100  1
  O  O15  1  0.28950400  0.42370800  0.69149900  1
  O  O16  1  0.28950400  0.92370800  0.80850100  1
  O  O17  1  0.71049600  0.42370800  0.19149900  1
  O  O18  1  0.28950400  0.07629200  0.69149900  1
  O  O19  1  0.71049600  0.57629200  0.30850100  1
  O  O20  1  0.67189800  0.12416500  0.01663200  1
  O  O21  1  0.32810200  0.62416500  0.98336800  1
  O  O22  1  0.67189800  0.87583500  0.48336800  1
  O  O23  1  0.32810200  0.37583500  0.51663200  1
  O  O24  1  0.32810200  0.87583500  0.98336800  1
  O  O25  1  0.67189800  0.37583500  0.01663200  1
  O  O26  1  0.32810200  0.12416500  0.51663200  1
  O  O27  1  0.67189800  0.62416500  0.48336800  1
  O  O28  1  0.51902700  0.25000000  0.42648800  1
  O  O29  1  0.48097300  0.75000000  0.57351200  1
  O  O30  1  0.51902700  0.75000000  0.07351200  1
  O  O31  1  0.48097300  0.25000000  0.92648800  1
  O  O32  1  0.49113400  0.08842900  0.35878600  1
  O  O33  1  0.50886600  0.58842900  0.64121400  1
  O  O34  1  0.49113400  0.91157100  0.14121400  1
  O  O35  1  0.50886600  0.41157100  0.85878600  1
  O  O36  1  0.50886600  0.91157100  0.64121400  1
  O  O37  1  0.49113400  0.41157100  0.35878600  1
  O  O38  1  0.50886600  0.08842900  0.85878600  1
  O  O39  1  0.49113400  0.58842900  0.14121400  1
  O  O40  1  0.30715900  0.11242200  0.01013900  1
  O  O41  1  0.69284100  0.61242200  0.98986100  1
  O  O42  1  0.30715900  0.88757800  0.48986100  1
  O  O43  1  0.69284100  0.38757800  0.51013900  1
  O  O44  1  0.69284100  0.88757800  0.98986100  1
  O  O45  1  0.30715900  0.38757800  0.01013900  1
  O  O46  1  0.69284100  0.11242200  0.51013900  1
  O  O47  1  0.30715900  0.61242200  0.48986100  1
  O  O48  1  0.27116200  0.25000000  0.12908800  1
  O  O49  1  0.72883800  0.75000000  0.87091200  1
  O  O50  1  0.27116200  0.75000000  0.37091200  1
  O  O51  1  0.72883800  0.25000000  0.62908800  1
  O  O52  1  0.28364500  0.08121200  0.18951400  1
  O  O53  1  0.71635500  0.58121200  0.81048600  1
  O  O54  1  0.28364500  0.91878800  0.31048600  1
  O  O55  1  0.71635500  0.41878800  0.68951400  1
  O  O56  1  0.71635500  0.91878800  0.81048600  1
  O  O57  1  0.28364500  0.41878800  0.18951400  1
  O  O58  1  0.71635500  0.08121200  0.68951400  1
  O  O59  1  0.28364500  0.58121200  0.31048600  1
  O  O60  1  0.02217800  0.17419000  0.36999600  1
  O  O61  1  0.97782200  0.67419000  0.63000400  1
  O  O62  1  0.02217800  0.82581000  0.13000400  1
  O  O63  1  0.97782200  0.32581000  0.86999600  1
  O  O64  1  0.97782200  0.82581000  0.63000400  1
  O  O65  1  0.02217800  0.32581000  0.36999600  1
  O  O66  1  0.97782200  0.17419000  0.86999600  1
  O  O67  1  0.02217800  0.67419000  0.13000400  1
  O  O68  1  0.09689700  0.25000000  0.34372300  1
  O  O69  1  0.90310300  0.75000000  0.65627700  1
  O  O70  1  0.09689700  0.75000000  0.15627700  1
  O  O71  1  0.90310300  0.25000000  0.84372300  1
loop_
_geom_bond_atom_site_label_1
_geom_bond_atom_site_label_2
_geom_bond_distance
_geom_bond_site_symmetry_2
Na0 O28 2.423126 1_555
Na0 O48 2.473261 1_555
Na0 O8 2.623526 1_555
Na0 O37 2.745392 1_555
Na0 O32 2.745392 1_555
Na0 O68 2.895830 1_555
Na1 O29 2.423126 1_555
Na1 O49 2.473261 1_555
Na1 O9 2.623526 1_555
Na1 O36 2.745392 1_555
Na1 O33 2.745392 1_555
Na1 O69 2.895830 1_555
Na2 O30 2.423126 1_555
Na2 O50 2.473261 1_555
Na2 O10 2.623526 1_555
Na2 O34 2.745392 1_555
Na2 O39 2.745392 1_555
Na2 O70 2.895830 1_555
Na3 O31 2.423126 1_555
Na3 O51 2.473261 1_555
Na3 O11 2.623526 1_555
Na3 O35 2.745392 1_555
Na3 O38 2.745392 1_555
Na3 O71 2.895830 1_555
Na4 O14 2.488002 1_545
Na4 O12 2.488002 1_555
Na4 O52 2.582665 1_655
Na4 O54 2.582665 1_645
Na5 O13 2.488002 1_555
Na5 O15 2.488002 1_555
Na5 O53 2.582665 1_455
Na5 O55 2.582665 1_455
Na6 O16 2.488002 1_545
Na6 O18 2.488002 1_555
Na6 O58 2.582665 1_455
Na6 O56 2.582665 1_445
Na7 O19 2.488002 1_555
Na7 O17 2.488002 1_555
Na7 O59 2.582665 1_655
Na7 O57 2.582665 1_655
O0 Si16 1.622471 1_655
O0 Si0 1.625176 1_555
O1 Si17 1.622471 1_455
O1 Si1 1.625176 1_555
O2 Si18 1.622471 1_655
O2 Si2 1.625176 1_555
O3 Si19 1.622471 1_455
O3 Si3 1.625176 1_555
O4 Si20 1.622471 1_455
O4 Si4 1.625176 1_555
O5 Si21 1.622471 1_655
O5 Si5 1.625176 1_555
O6 Si22 1.622471 1_455
O6 Si6 1.625176 1_555
O7 Si23 1.622471 1_655
O7 Si7 1.625176 1_555
O8 Si5 1.659089 1_555
O8 Si0 1.659089 1_555
O9 Si4 1.659089 1_555
O9 Si1 1.659089 1_555
O10 Si2 1.659089 1_555
O10 Si7 1.659089 1_555
O11 Si3 1.659089 1_555
O11 Si6 1.659089 1_555
O12 Si0 1.609182 1_555
O12 Zr0 2.113979 1_555
O13 Si1 1.609182 1_555
O13 Zr1 2.113979 1_555
O14 Si2 1.609182 1_555
O14 Zr0 2.113979 1_565
O15 Si3 1.609182 1_555
O15 Zr1 2.113979 1_555
O16 Si4 1.609182 1_555
O16 Zr2 2.113979 1_565
O17 Si5 1.609182 1_555
O17 Zr3 2.113979 1_555
O18 Si6 1.609182 1_555
O18 Zr2 2.113979 1_555
O19 Si7 1.609182 1_555
O19 Zr3 2.113979 1_555
O20 Si0 1.626282 1_555
O20 Si14 1.632909 1_554
O21 Si1 1.626282 1_555
O21 Si15 1.632909 1_556
O22 Si2 1.626282 1_555
O22 Si12 1.632909 1_555
O23 Si3 1.626282 1_555
O23 Si13 1.632909 1_555
O24 Si4 1.626282 1_555
O24 Si10 1.632909 1_556
O25 Si5 1.626282 1_555
O25 Si11 1.632909 1_554
O26 Si6 1.626282 1_555
O26 Si8 1.632909 1_555
O27 Si7 1.626282 1_555
O27 Si9 1.632909 1_555
O28 Si13 1.652905 1_555
O28 Si8 1.652905 1_555
O29 Si12 1.652905 1_555
O29 Si9 1.652905 1_555
O30 Si10 1.652905 1_555
O30 Si15 1.652905 1_555
O31 Si11 1.652905 1_555
O31 Si14 1.652905 1_555
O32 Si8 1.602099 1_555
O32 Zr0 2.074909 1_555
O33 Si9 1.602099 1_555
O33 Zr1 2.074909 1_555
O34 Si10 1.602099 1_555
O34 Zr0 2.074909 1_565
O35 Si11 1.602099 1_555
O35 Zr1 2.074909 1_555
O36 Si12 1.602099 1_555
O36 Zr2 2.074909 1_565
O37 Si13 1.602099 1_555
O37 Zr3 2.074909 1_555
O38 Si14 1.602099 1_555
O38 Zr2 2.074909 1_555
O39 Si15 1.602099 1_555
O39 Zr3 2.074909 1_555
O40 Si16 1.633441 1_555
O40 Si14 1.636846 1_554
O41 Si17 1.633441 1_555
O41 Si15 1.636846 1_556
O42 Si18 1.633441 1_555
O42 Si12 1.636846 1_555
O43 Si19 1.633441 1_555
O43 Si13 1.636846 1_555
O44 Si20 1.633441 1_555
O44 Si10 1.636846 1_556
O45 Si21 1.633441 1_555
O45 Si11 1.636846 1_554
O46 Si22 1.633441 1_555
O46 Si8 1.636846 1_555
O47 Si23 1.633441 1_555
O47 Si9 1.636846 1_555
O48 Si21 1.666594 1_555
O48 Si16 1.666594 1_555
O49 Si20 1.666594 1_555
O49 Si17 1.666594 1_555
O50 Si18 1.666594 1_555
O50 Si23 1.666594 1_555
O51 Si19 1.666594 1_555
O51 Si22 1.666594 1_555
O52 Si16 1.612117 1_555
O52 Zr0 2.132875 1_555
O53 Si17 1.612117 1_555
O53 Zr1 2.132875 1_555
O54 Si18 1.612117 1_555
O54 Zr0 2.132875 1_565
O55 Si19 1.612117 1_555
O55 Zr1 2.132875 1_555
O56 Si20 1.612117 1_555
O56 Zr2 2.132875 1_565
O57 Si21 1.612117 1_555
O57 Zr3 2.132875 1_555
O58 Si22 1.612117 1_555
O58 Zr2 2.132875 1_555
O59 Si23 1.612117 1_555
O59 Zr3 2.132875 1_555
O60 O68 1.295249 1_555
O61 O69 1.295249 1_555
O62 O70 1.295249 1_555
O63 O71 1.295249 1_555
O64 O69 1.295249 1_555
O65 O68 1.295249 1_555
O66 O71 1.295249 1_555
O67 O70 1.295249 1_555
