# generated using pymatgen
data_Li4V3P8O29
_symmetry_space_group_name_H-M   'P 1'
_cell_length_a   9.74857700
_cell_length_b   9.78095912
_cell_length_c   14.25203878
_cell_angle_alpha   89.99042450
_cell_angle_beta   90.16006373
_cell_angle_gamma   119.83857333
_symmetry_Int_Tables_number   1
_chemical_formula_structural   Li4V3P8O29
_chemical_formula_sum   'Li8 V6 P16 O58'
_cell_volume   1178.77880018
_cell_formula_units_Z   2
loop_
 _symmetry_equiv_pos_site_id
 _symmetry_equiv_pos_as_xyz
  1  'x, y, z'
loop_
 _atom_site_type_symbol
 _atom_site_label
 _atom_site_symmetry_multiplicity
 _atom_site_fract_x
 _atom_site_fract_y
 _atom_site_fract_z
 _atom_site_occupancy
  Li  Li0  1  0.90428000  0.66502500  0.44286700  1
  Li  Li1  1  0.33009800  0.23804700  0.43962700  1
  Li  Li2  1  0.32796200  0.09470600  0.94062900  1
  Li  Li3  1  0.90219400  0.23101900  0.94107300  1
  Li  Li4  1  0.76547700  0.09427800  0.43836300  1
  Li  Li5  1  0.33593700  0.66735000  0.89693800  1
  Li  Li6  1  0.96829800  0.94217700  0.99615700  1
  Li  Li7  1  0.00055000  0.00419700  0.50235500  1
  V  V0  1  0.43331600  0.00209200  0.74815100  1
  V  V1  1  0.56454300  0.00057000  0.25234000  1
  V  V2  1  0.99918600  0.56360100  0.24796800  1
  V  V3  1  0.00141000  0.43425600  0.74812500  1
  V  V4  1  0.57073900  0.56776900  0.75074000  1
  V  V5  1  0.43818200  0.43805300  0.24609200  1
  P  P0  1  0.77796500  0.69588700  0.15763600  1
  P  P1  1  0.91744600  0.69183300  0.65888900  1
  P  P2  1  0.31057100  0.22859400  0.65608700  1
  P  P3  1  0.66642000  0.33177900  0.87017300  1
  P  P4  1  0.66862900  0.33715200  0.36940900  1
  P  P5  1  0.31207900  0.08654200  0.15537900  1
  P  P6  1  0.21931700  0.91657000  0.33681500  1
  P  P7  1  0.91131800  0.22498600  0.15673900  1
  P  P8  1  0.08836000  0.77947100  0.84183600  1
  P  P9  1  0.77491900  0.08566900  0.65608400  1
  P  P10  1  0.69272000  0.91206500  0.83683000  1
  P  P11  1  0.33514800  0.66650300  0.63348900  1
  P  P12  1  0.33399000  0.66765400  0.13382300  1
  P  P13  1  0.69350500  0.77688900  0.34203500  1
  P  P14  1  0.08703900  0.30640600  0.33695400  1
  P  P15  1  0.22190100  0.30963200  0.83831300  1
  O  O0  1  0.79354300  0.78472700  0.42363700  1
  O  O1  1  0.74496500  0.65922200  0.67167300  1
  O  O2  1  0.99897400  0.79000700  0.92197700  1
  O  O3  1  0.91281100  0.65500300  0.17106600  1
  O  O4  1  0.61800800  0.53757000  0.17069800  1
  O  O5  1  0.65820000  0.47419600  0.82292200  1
  O  O6  1  0.46688900  0.38482200  0.67363900  1
  O  O7  1  0.21549500  0.20646900  0.91626600  1
  O  O8  1  0.34263600  0.25856000  0.17272800  1
  O  O9  1  0.81685300  0.48867800  0.32756600  1
  O  O10  1  0.91592300  0.53346400  0.67596400  1
  O  O11  1  0.51756300  0.33082900  0.32398100  1
  O  O12  1  0.67188600  0.33514600  0.97418600  1
  O  O13  1  0.66786500  0.35008100  0.47370700  1
  O  O14  1  0.51636600  0.18231300  0.83250800  1
  O  O15  1  0.90815300  0.38160000  0.17578300  1
  O  O16  1  0.81722400  0.33542500  0.82703200  1
  O  O17  1  0.34111200  0.08936900  0.67218100  1
  O  O18  1  0.19265400  0.98356200  0.23844100  1
  O  O19  1  0.20521000  0.00872600  0.41603700  1
  O  O20  1  0.23219500  0.02404700  0.06369000  1
  O  O21  1  0.46788600  0.08892500  0.17108500  1
  O  O22  1  0.67558700  0.18927000  0.33558500  1
  O  O23  1  0.26240100  0.91754200  0.84131100  1
  O  O24  1  0.62162000  0.08807900  0.67100000  1
  O  O25  1  0.91750000  0.25658800  0.67422200  1
  O  O26  1  0.01548400  0.80368100  0.74392900  1
  O  O27  1  0.98328900  0.76762100  0.56707300  1
  O  O28  1  0.99487000  0.20070300  0.41592600  1
  O  O29  1  0.08413200  0.74092200  0.33885100  1
  O  O30  1  0.38037900  0.92277300  0.32871900  1
  O  O31  1  0.74343500  0.08680100  0.17431600  1
  O  O32  1  0.33317700  0.81031000  0.67631600  1
  O  O33  1  0.53066600  0.90511000  0.82981500  1
  O  O34  1  0.79783800  0.00495300  0.91602700  1
  O  O35  1  0.79537500  0.02629300  0.56383900  1
  O  O36  1  0.78786400  0.98132400  0.73914500  1
  O  O37  1  0.65721500  0.91357800  0.34297100  1
  O  O38  1  0.18186900  0.66159400  0.17836900  1
  O  O39  1  0.09576100  0.62412900  0.83096000  1
  O  O40  1  0.47744800  0.81108700  0.17611500  1
  O  O41  1  0.32563700  0.65965700  0.02952900  1
  O  O42  1  0.32977700  0.65352100  0.53029500  1
  O  O43  1  0.48030400  0.66283500  0.68101600  1
  O  O44  1  0.07925300  0.46072400  0.32746500  1
  O  O45  1  0.18531500  0.51922300  0.68231400  1
  O  O46  1  0.65595800  0.73751900  0.83701300  1
  O  O47  1  0.79483300  0.80207100  0.24738600  1
  O  O48  1  0.79348700  0.78456300  0.07122400  1
  O  O49  1  0.53820700  0.61711000  0.32729300  1
  O  O50  1  0.33295300  0.51847100  0.17809700  1
  O  O51  1  0.37471500  0.47338700  0.83025800  1
  O  O52  1  0.08091300  0.34345700  0.84259300  1
  O  O53  1  0.97653500  0.22109100  0.06383300  1
  O  O54  1  0.01924200  0.21393200  0.23839300  1
  O  O55  1  0.26223600  0.34592500  0.33920800  1
  O  O56  1  0.23201500  0.21328600  0.56380800  1
  O  O57  1  0.19477500  0.21757200  0.73947100  1
loop_
_geom_bond_atom_site_label_1
_geom_bond_atom_site_label_2
_geom_bond_distance
_geom_bond_site_symmetry_2
Li0 O0 1.966531 1_555
Li0 O27 1.989382 1_555
Li0 O29 2.131133 1_655
Li0 O9 2.220826 1_555
Li1 O56 1.970810 1_555
Li1 O19 1.976554 1_555
Li1 O55 2.070774 1_555
Li1 O11 2.290386 1_555
Li2 O7 1.925625 1_555
Li2 O20 1.947298 1_556
Li2 O23 2.075684 1_545
Li2 O14 2.220668 1_555
Li3 O53 1.912738 1_556
Li3 O34 1.952252 1_555
Li3 O52 2.078772 1_655
Li3 O16 2.281295 1_555
Li4 O28 1.968272 1_555
Li4 O35 1.978548 1_555
Li4 O37 2.054878 1_545
Li4 O22 2.139943 1_555
Li5 O41 1.892135 1_556
Li5 O51 2.315484 1_555
Li5 O33 2.354405 1_555
Li5 O39 2.355380 1_555
Li6 O48 1.954646 1_556
Li6 O2 1.966618 1_555
Li6 O34 2.333902 1_565
Li6 O20 2.474347 1_666
Li7 O35 2.292431 1_455
Li7 O28 2.306351 1_455
Li7 O19 2.328458 1_555
Li7 O56 2.332060 1_555
Li7 O0 2.369902 1_445
Li7 O27 2.417866 1_445
O0 P13 1.492916 1_555
O1 P1 1.558903 1_555
O1 V4 1.858283 1_555
O2 P8 1.472906 1_655
O3 P0 1.564057 1_555
O3 V2 1.858255 1_555
O4 P0 1.569311 1_555
O4 V5 1.867447 1_555
O5 P3 1.584539 1_555
O5 V4 1.842347 1_555
O6 P2 1.549368 1_555
O6 V4 1.904222 1_555
O7 P15 1.481098 1_555
O8 P5 1.575329 1_555
O8 V5 1.846868 1_555
O9 P4 1.585414 1_555
O9 V2 1.923070 1_555
O10 P1 1.560722 1_555
O10 V3 1.869059 1_655
O11 P4 1.579823 1_555
O11 V5 1.932208 1_555
O12 P3 1.482988 1_555
O13 P4 1.492203 1_555
O14 P3 1.559806 1_555
O14 V0 1.945055 1_555
O15 P7 1.571100 1_555
O15 V2 1.854269 1_555
O16 P3 1.579065 1_555
O16 V3 1.925315 1_655
O17 P2 1.548742 1_555
O17 V0 1.861931 1_555
O18 P5 1.616081 1_565
O18 P6 1.621647 1_555
O19 P6 1.493573 1_545
O20 P5 1.486133 1_555
O21 P5 1.523341 1_555
O21 V1 1.944140 1_555
O22 P4 1.557943 1_555
O22 V1 1.997811 1_555
O23 P8 1.556416 1_555
O23 V0 1.965633 1_565
O24 P9 1.521825 1_555
O24 V0 1.939272 1_555
O25 P9 1.574607 1_555
O25 V3 1.838361 1_655
O26 P1 1.591436 1_455
O26 P8 1.633898 1_555
O27 P1 1.484832 1_555
O28 P14 1.491259 1_655
O29 P6 1.560867 1_555
O29 V2 1.984199 1_455
O30 P6 1.545478 1_555
O30 V1 1.907457 1_565
O31 P7 1.539158 1_555
O31 V1 1.880444 1_555
O32 P11 1.542274 1_555
O32 V0 1.921621 1_565
O33 P10 1.550018 1_555
O33 V0 2.011055 1_565
O34 P10 1.488946 1_545
O35 P9 1.490769 1_555
O36 P9 1.608048 1_565
O36 P10 1.624527 1_555
O37 P13 1.543850 1_555
O37 V1 1.991636 1_565
O38 P12 1.588563 1_555
O38 V2 1.839874 1_455
O39 P8 1.564295 1_555
O39 V3 1.995884 1_555
O40 P12 1.526587 1_555
O40 V1 1.940495 1_565
O41 P12 1.488343 1_555
O42 P11 1.474758 1_555
O43 P11 1.583560 1_555
O43 V4 1.854681 1_555
O44 P14 1.554398 1_555
O44 V2 1.918770 1_455
O45 P11 1.613808 1_555
O45 V3 1.819628 1_555
O46 P10 1.560201 1_555
O46 V4 1.892363 1_555
O47 P0 1.603484 1_555
O47 P13 1.619039 1_555
O48 P0 1.470360 1_555
O49 P13 1.556401 1_555
O49 V5 1.911103 1_555
O50 P12 1.585065 1_555
O50 V5 1.845872 1_555
O51 P15 1.557022 1_555
O51 V4 2.011114 1_555
O52 P15 1.566912 1_555
O52 V3 1.969981 1_555
O53 P7 1.479095 1_555
O54 P7 1.605992 1_455
O54 P14 1.621247 1_555
O55 P14 1.552478 1_555
O55 V5 1.997355 1_555
O56 P2 1.489589 1_555
O57 P2 1.607651 1_555
O57 P15 1.620661 1_555
