# generated using pymatgen
data_Na2TeH5SO10
_symmetry_space_group_name_H-M   'P 1'
_cell_length_a   5.87668627
_cell_length_b   5.87668627
_cell_length_c   15.36236320
_cell_angle_alpha   88.11483433
_cell_angle_beta   88.11483433
_cell_angle_gamma   124.42492908
_symmetry_Int_Tables_number   1
_chemical_formula_structural   Na2TeH5SO10
_chemical_formula_sum   'Na4 Te2 H10 S2 O20'
_cell_volume   436.53931158
_cell_formula_units_Z   2
loop_
 _symmetry_equiv_pos_site_id
 _symmetry_equiv_pos_as_xyz
  1  'x, y, z'
loop_
 _atom_site_type_symbol
 _atom_site_label
 _atom_site_symmetry_multiplicity
 _atom_site_fract_x
 _atom_site_fract_y
 _atom_site_fract_z
 _atom_site_occupancy
  Na  Na0  1  0.90340300  0.41746300  0.61929700  1
  Na  Na1  1  0.61280400  0.46466300  0.81072100  1
  Na  Na2  1  0.41746300  0.90340300  0.11929700  1
  Na  Na3  1  0.46466300  0.61280400  0.31072100  1
  Te  Te0  1  0.99332600  0.01517100  0.00219700  1
  Te  Te1  1  0.01517100  0.99332600  0.50219700  1
  H  H0  1  0.93396700  0.70062500  0.37638700  1
  H  H1  1  0.93793200  0.40774400  0.00847000  1
  H  H2  1  0.69281800  0.62195500  0.11419400  1
  H  H3  1  0.84392800  0.25659700  0.43201700  1
  H  H4  1  0.45670400  0.44023000  0.48608300  1
  H  H5  1  0.70062500  0.93396700  0.87638700  1
  H  H6  1  0.40774400  0.93793200  0.50847000  1
  H  H7  1  0.62195500  0.69281800  0.61419400  1
  H  H8  1  0.25659700  0.84392800  0.93201700  1
  H  H9  1  0.44023000  0.45670400  0.98608300  1
  S  S0  1  0.85869900  0.36591200  0.24838600  1
  S  S1  1  0.36591200  0.85869900  0.74838600  1
  O  O0  1  0.88541200  0.83435100  0.39106200  1
  O  O1  1  0.68963600  0.65038900  0.56059700  1
  O  O2  1  0.94918300  0.44596200  0.33996200  1
  O  O3  1  0.72858000  0.50713300  0.21811300  1
  O  O4  1  0.78425900  0.14140900  0.48908200  1
  O  O5  1  0.83435100  0.88541200  0.89106200  1
  O  O6  1  0.80788100  0.20379100  0.01981400  1
  O  O7  1  0.46610200  0.11744700  0.69339600  1
  O  O8  1  0.33995400  0.31595400  0.43963600  1
  O  O9  1  0.66236900  0.06427600  0.24627400  1
  O  O10  1  0.44596200  0.94918300  0.83996200  1
  O  O11  1  0.50713300  0.72858000  0.71811300  1
  O  O12  1  0.14140900  0.78425900  0.98908200  1
  O  O13  1  0.65038900  0.68963600  0.06059700  1
  O  O14  1  0.17107500  0.10611800  0.10981300  1
  O  O15  1  0.20379100  0.80788100  0.51981400  1
  O  O16  1  0.31595400  0.33995400  0.93963600  1
  O  O17  1  0.06427600  0.66236900  0.74627400  1
  O  O18  1  0.11744700  0.46610200  0.19339600  1
  O  O19  1  0.10611800  0.17107500  0.60981300  1
loop_
_geom_bond_atom_site_label_1
_geom_bond_atom_site_label_2
_geom_bond_distance
_geom_bond_site_symmetry_2
Na0 O19 2.343011 1_655
Na0 O17 2.353274 1_655
Na0 O7 2.358213 1_555
Na0 O15 2.393417 1_655
Na0 O4 2.478924 1_555
Na0 O1 2.490504 1_555
Na1 O17 2.373929 1_655
Na1 O16 2.394613 1_555
Na1 O11 2.411855 1_555
Na1 O5 2.449262 1_555
Na1 O7 2.551596 1_555
Na1 O10 2.619757 1_545
Na2 O14 2.343011 1_565
Na2 O9 2.353274 1_565
Na2 O18 2.358213 1_555
Na2 O6 2.393417 1_565
Na2 O12 2.478924 1_554
Na2 O13 2.490504 1_555
Na3 O9 2.373929 1_565
Na3 O8 2.394613 1_555
Na3 O3 2.411855 1_555
Na3 O0 2.449262 1_555
Na3 O18 2.551596 1_555
Na3 O2 2.619757 1_455
H0 O0 1.005382 1_555
H0 O2 1.662518 1_555
H1 O6 0.996407 1_555
H2 O13 1.001204 1_555
H3 O4 1.010969 1_555
H3 O2 1.637544 1_555
H4 O8 1.006578 1_555
H5 O5 1.005382 1_555
H5 O10 1.662518 1_555
H6 O15 0.996407 1_555
H7 O1 1.001204 1_555
H8 O12 1.010969 1_555
H8 O10 1.637544 1_555
H9 O16 1.006578 1_555
O0 Te1 1.937594 1_655
O1 Te1 1.983739 1_655
O2 S0 1.514312 1_555
O3 S0 1.485019 1_555
O4 Te1 1.995244 1_645
O5 Te0 1.937594 1_566
O6 Te0 1.963609 1_555
O7 S1 1.497656 1_545
O8 Te1 1.956843 1_545
O9 S0 1.472502 1_555
O10 S1 1.514312 1_555
O11 S1 1.485019 1_555
O12 Te0 1.995244 1_466
O13 Te0 1.983739 1_565
O14 Te0 1.910629 1_455
O15 Te1 1.963609 1_555
O16 Te0 1.956843 1_456
O17 S1 1.472502 1_555
O18 S0 1.497656 1_455
O19 Te1 1.910629 1_545
