# generated using pymatgen
data_Li2Mn3VO8
_symmetry_space_group_name_H-M   'P 1'
_cell_length_a   5.83848087
_cell_length_b   5.83848087
_cell_length_c   9.61435400
_cell_angle_alpha   90.00000000
_cell_angle_beta   90.00000000
_cell_angle_gamma   117.93612713
_symmetry_Int_Tables_number   1
_chemical_formula_structural   Li2Mn3VO8
_chemical_formula_sum   'Li4 Mn6 V2 O16'
_cell_volume   289.54217946
_cell_formula_units_Z   2
loop_
 _symmetry_equiv_pos_site_id
 _symmetry_equiv_pos_as_xyz
  1  'x, y, z'
loop_
 _atom_site_type_symbol
 _atom_site_label
 _atom_site_symmetry_multiplicity
 _atom_site_fract_x
 _atom_site_fract_y
 _atom_site_fract_z
 _atom_site_occupancy
  Li  Li0  1  0.17004600  0.82995400  0.10400600  1
  Li  Li1  1  0.50538500  0.49461500  0.00621400  1
  Li  Li2  1  0.49461500  0.50538500  0.50621400  1
  Li  Li3  1  0.82995400  0.17004600  0.60400600  1
  Mn  Mn0  1  0.83895400  0.67274200  0.78647000  1
  Mn  Mn1  1  0.32725800  0.16104600  0.78647000  1
  Mn  Mn2  1  0.33088900  0.66911100  0.78548400  1
  Mn  Mn3  1  0.66911100  0.33088900  0.28548400  1
  Mn  Mn4  1  0.67274200  0.83895400  0.28647000  1
  Mn  Mn5  1  0.16104600  0.32725800  0.28647000  1
  V  V0  1  0.16335100  0.83664900  0.51222600  1
  V  V1  1  0.83664900  0.16335100  0.01222600  1
  O  O0  1  0.81851800  0.65673700  0.39988100  1
  O  O1  1  0.01896900  0.98103100  0.63490700  1
  O  O2  1  0.16669700  0.83330300  0.88970800  1
  O  O3  1  0.50288500  0.49711500  0.69332400  1
  O  O4  1  0.49711500  0.50288500  0.19332400  1
  O  O5  1  0.34326300  0.18148200  0.39988100  1
  O  O6  1  0.02633900  0.54067000  0.66564100  1
  O  O7  1  0.45933000  0.97366100  0.66564100  1
  O  O8  1  0.67987200  0.32012800  0.91800100  1
  O  O9  1  0.32012800  0.67987200  0.41800100  1
  O  O10  1  0.54067000  0.02633900  0.16564100  1
  O  O11  1  0.97366100  0.45933000  0.16564100  1
  O  O12  1  0.83330300  0.16669700  0.38970800  1
  O  O13  1  0.65673700  0.81851800  0.89988100  1
  O  O14  1  0.98103100  0.01896900  0.13490700  1
  O  O15  1  0.18148200  0.34326300  0.89988100  1
loop_
_geom_bond_atom_site_label_1
_geom_bond_atom_site_label_2
_geom_bond_distance
_geom_bond_site_symmetry_2
Li0 O14 1.914431 1_465
Li0 O11 2.005864 1_455
Li0 O10 2.005864 1_565
Li0 O2 2.060609 1_554
Li1 O4 1.800844 1_555
Li1 O8 1.940971 1_554
Li1 O15 1.958697 1_554
Li1 O13 1.958697 1_554
Li2 O3 1.800844 1_555
Li2 O9 1.940971 1_555
Li2 O5 1.958697 1_555
Li2 O0 1.958697 1_555
Li3 O1 1.914431 1_645
Li3 O7 2.005864 1_545
Li3 O6 2.005864 1_655
Li3 O12 2.060609 1_555
Mn0 O3 1.954030 1_555
Mn0 O2 1.960814 1_655
Mn0 O13 1.973202 1_555
Mn0 O6 1.982802 1_655
Mn0 O1 2.166854 1_655
Mn0 O8 2.215532 1_555
Mn1 O3 1.954030 1_555
Mn1 O2 1.960814 1_545
Mn1 O15 1.973202 1_555
Mn1 O7 1.982802 1_545
Mn1 O1 2.166854 1_545
Mn1 O8 2.215532 1_555
Mn2 O2 1.924345 1_555
Mn2 O3 1.935657 1_555
Mn2 O7 1.949937 1_555
Mn2 O6 1.949937 1_555
Mn2 O13 2.008733 1_555
Mn2 O15 2.008733 1_555
Mn3 O12 1.924345 1_555
Mn3 O4 1.935657 1_555
Mn3 O11 1.949937 1_555
Mn3 O10 1.949937 1_555
Mn3 O0 2.008733 1_555
Mn3 O5 2.008733 1_555
Mn4 O4 1.954030 1_555
Mn4 O12 1.960814 1_565
Mn4 O0 1.973202 1_555
Mn4 O10 1.982802 1_565
Mn4 O14 2.166854 1_565
Mn4 O9 2.215532 1_555
Mn5 O4 1.954030 1_555
Mn5 O12 1.960814 1_455
Mn5 O5 1.973202 1_555
Mn5 O11 1.982802 1_455
Mn5 O14 2.166854 1_455
Mn5 O9 2.215532 1_555
O0 V0 2.083724 1_655
O1 V0 1.865002 1_555
O5 V0 2.083724 1_545
O6 V0 2.122847 1_555
O7 V0 2.122847 1_555
O8 V1 1.811466 1_556
O9 V0 1.811466 1_555
O10 V1 2.122847 1_555
O11 V1 2.122847 1_555
O13 V1 2.083724 1_566
O14 V1 1.865002 1_555
O15 V1 2.083724 1_456
