# generated using pymatgen
data_Cs2Se3
_symmetry_space_group_name_H-M   'P 1'
_cell_length_a   7.07241643
_cell_length_b   7.07241689
_cell_length_c   8.38335134
_cell_angle_alpha   90.00000000
_cell_angle_beta   90.00000000
_cell_angle_gamma   110.90208010
_symmetry_Int_Tables_number   1
_chemical_formula_structural   Cs2Se3
_chemical_formula_sum   'Cs4 Se6'
_cell_volume   391.73219549
_cell_formula_units_Z   2
loop_
 _symmetry_equiv_pos_site_id
 _symmetry_equiv_pos_as_xyz
  1  'x, y, z'
loop_
 _atom_site_type_symbol
 _atom_site_label
 _atom_site_symmetry_multiplicity
 _atom_site_fract_x
 _atom_site_fract_y
 _atom_site_fract_z
 _atom_site_occupancy
  Cs  Cs0  1  0.41952972  0.58047028  0.82004247  1
  Cs  Cs1  1  0.58047028  0.41952972  0.32004247  1
  Cs  Cs2  1  0.90233300  0.09766700  0.54279882  1
  Cs  Cs3  1  0.09766700  0.90233300  0.04279882  1
  Se  Se0  1  0.39937873  0.07184293  0.66653718  1
  Se  Se1  1  0.60062127  0.92815707  0.16653718  1
  Se  Se2  1  0.92815707  0.60062127  0.66653718  1
  Se  Se3  1  0.07184293  0.39937873  0.16653718  1
  Se  Se4  1  0.79219351  0.20780649  0.00508435  1
  Se  Se5  1  0.20780649  0.79219351  0.50508435  1
loop_
_geom_bond_atom_site_label_1
_geom_bond_atom_site_label_2
_geom_bond_distance
_geom_bond_site_symmetry_2
Cs0 Se5 3.613312 1_555
Cs0 Se3 3.725255 1_556
Cs0 Se1 3.725255 1_556
Cs0 Se2 3.755895 1_455
Cs0 Se0 3.755896 1_565
Cs0 Se2 3.774998 1_555
Cs0 Se0 3.774998 1_555
Cs1 Se4 3.613312 1_555
Cs1 Se2 3.725255 1_555
Cs1 Se0 3.725255 1_555
Cs1 Se3 3.755895 1_655
Cs1 Se1 3.755896 1_545
Cs1 Se3 3.774998 1_555
Cs1 Se1 3.774998 1_555
Cs2 Se5 3.572868 1_645
Cs2 Se0 3.646758 1_555
Cs2 Se2 3.646759 1_555
Cs2 Se0 3.731620 1_655
Cs2 Se2 3.731620 1_545
Cs2 Se1 3.756986 1_545
Cs2 Se3 3.756986 1_655
Cs2 Se4 4.082402 1_556
Cs3 Se4 3.572868 1_465
Cs3 Se1 3.646758 1_555
Cs3 Se3 3.646759 1_555
Cs3 Se1 3.731620 1_455
Cs3 Se3 3.731620 1_565
Cs3 Se0 3.756986 1_564
Cs3 Se2 3.756986 1_454
Cs3 Se5 4.082402 1_555
Se0 Se5 2.380613 1_545
Se1 Se4 2.380613 1_565
Se2 Se5 2.380613 1_655
Se3 Se4 2.380613 1_455
