# generated using pymatgen
data_Li3TiNi3O8
_symmetry_space_group_name_H-M   'P 1'
_cell_length_a   5.74583230
_cell_length_b   5.85356261
_cell_length_c   8.49742653
_cell_angle_alpha   89.25749157
_cell_angle_beta   89.99230442
_cell_angle_gamma   89.98913646
_symmetry_Int_Tables_number   1
_chemical_formula_structural   Li3TiNi3O8
_chemical_formula_sum   'Li6 Ti2 Ni6 O16'
_cell_volume   285.77494647
_cell_formula_units_Z   2
loop_
 _symmetry_equiv_pos_site_id
 _symmetry_equiv_pos_as_xyz
  1  'x, y, z'
loop_
 _atom_site_type_symbol
 _atom_site_label
 _atom_site_symmetry_multiplicity
 _atom_site_fract_x
 _atom_site_fract_y
 _atom_site_fract_z
 _atom_site_occupancy
  Li  Li0  1  0.99998000  0.99995400  0.50002400  1
  Li  Li1  1  0.50000700  0.49998900  0.99999200  1
  Li  Li2  1  0.75001900  0.25008500  0.25000500  1
  Li  Li3  1  0.25000700  0.74995600  0.75001300  1
  Li  Li4  1  0.24999100  0.25005700  0.25000600  1
  Li  Li5  1  0.75000400  0.74993400  0.75000600  1
  Ti  Ti0  1  0.00007500  0.99995500  0.00001000  1
  Ti  Ti1  1  0.50011700  0.50010600  0.50000100  1
  Ni  Ni0  1  0.99986700  0.50006700  0.49994800  1
  Ni  Ni1  1  0.49999200  0.99998300  0.00000600  1
  Ni  Ni2  1  0.74996500  0.75011500  0.25013400  1
  Ni  Ni3  1  0.25001100  0.24985800  0.74989100  1
  Ni  Ni4  1  0.24994700  0.75007900  0.24999800  1
  Ni  Ni5  1  0.74997400  0.24992200  0.75001900  1
  O  O0  1  0.00032800  0.98907900  0.23558300  1
  O  O1  1  0.50070000  0.48885400  0.73555900  1
  O  O2  1  0.99924800  0.01092100  0.76439900  1
  O  O3  1  0.49961600  0.51119000  0.26444700  1
  O  O4  1  0.49954900  0.98454100  0.22127200  1
  O  O5  1  0.99922900  0.48424300  0.72127700  1
  O  O6  1  0.50071700  0.01558500  0.77869400  1
  O  O7  1  0.00037100  0.51573200  0.27873200  1
  O  O8  1  0.24020000  0.72224300  0.50051100  1
  O  O9  1  0.74027700  0.22234400  0.00043300  1
  O  O10  1  0.75990600  0.72228900  0.50026600  1
  O  O11  1  0.25992500  0.22232500  0.00018500  1
  O  O12  1  0.24011400  0.27760800  0.49969600  1
  O  O13  1  0.74018500  0.77770300  0.99981600  1
  O  O14  1  0.75978900  0.27759300  0.49956800  1
  O  O15  1  0.25988900  0.77769300  0.99950700  1
loop_
_geom_bond_atom_site_label_1
_geom_bond_atom_site_label_2
_geom_bond_distance
_geom_bond_site_symmetry_2
Li0 O14 2.131871 1_565
Li0 O10 2.131965 1_555
Li0 O12 2.132133 1_665
Li0 O8 2.132298 1_655
Li0 O2 2.248259 1_565
Li0 O0 2.248795 1_655
Li1 O15 2.131887 1_555
Li1 O11 2.131994 1_556
Li1 O9 2.132192 1_556
Li1 O13 2.132576 1_555
Li1 O1 2.248792 1_555
Li1 O3 2.248993 1_556
Li2 O0 2.102790 1_645
Li2 O3 2.103592 1_555
Li2 O14 2.129576 1_555
Li2 O9 2.129769 1_555
Li2 O7 2.134845 1_655
Li2 O4 2.134868 1_545
Li3 O2 2.104364 1_465
Li3 O1 2.104726 1_555
Li3 O15 2.129127 1_555
Li3 O8 2.129171 1_555
Li3 O6 2.136106 1_565
Li3 O5 2.136786 1_455
Li4 O0 2.100553 1_545
Li4 O3 2.101075 1_555
Li4 O12 2.130673 1_555
Li4 O4 2.130779 1_545
Li4 O7 2.131690 1_555
Li4 O11 2.131885 1_555
Li5 O2 2.098930 1_565
Li5 O1 2.099593 1_555
Li5 O5 2.130236 1_555
Li5 O6 2.130261 1_565
Li5 O10 2.131149 1_555
Li5 O13 2.131794 1_555
Ni0 O7 1.880816 1_655
Ni0 O5 1.881810 1_555
Ni0 O10 1.895388 1_555
Ni0 O8 1.897141 1_655
Ni0 O14 1.897254 1_555
Ni0 O12 1.897529 1_655
Ni1 O4 1.881194 1_555
Ni1 O6 1.881620 1_564
Ni1 O11 1.896301 1_565
Ni1 O13 1.896580 1_554
Ni1 O15 1.896631 1_554
Ni1 O9 1.897670 1_565
Ni2 O7 2.000548 1_655
Ni2 O4 2.001016 1_555
Ni2 O3 2.009043 1_555
Ni2 O0 2.009364 1_655
Ni2 O10 2.130377 1_555
Ni2 O13 2.131840 1_554
Ni3 O6 2.001545 1_555
Ni3 O5 2.002126 1_455
Ni3 O1 2.010740 1_555
Ni3 O2 2.010882 1_455
Ni3 O12 2.130876 1_555
Ni3 O11 2.131637 1_556
Ni4 O7 1.997435 1_555
Ni4 O4 1.997996 1_555
Ni4 O3 2.005804 1_555
Ni4 O0 2.006036 1_555
Ni4 O15 2.133326 1_554
Ni4 O8 2.133565 1_555
Ni5 O5 1.996014 1_555
Ni5 O6 1.996022 1_555
Ni5 O1 2.004362 1_555
Ni5 O2 2.004608 1_555
Ni5 O9 2.132623 1_556
Ni5 O14 2.132989 1_555
O0 Ti0 2.001952 1_555
O1 Ti1 2.001870 1_555
O2 Ti0 2.002291 1_646
O3 Ti1 2.001816 1_555
O8 Ti1 1.980038 1_555
O9 Ti0 1.980484 1_645
O10 Ti1 1.980011 1_555
O11 Ti0 1.980988 1_545
O12 Ti1 1.982153 1_555
O13 Ti0 1.980709 1_656
O14 Ti1 1.980416 1_555
O15 Ti0 1.980072 1_556
