# generated using pymatgen
data_Li3Ti3Fe(PO4)6
_symmetry_space_group_name_H-M   'P 1'
_cell_length_a   8.66970267
_cell_length_b   8.73841003
_cell_length_c   8.71480708
_cell_angle_alpha   60.02468568
_cell_angle_beta   60.07109626
_cell_angle_gamma   60.44016181
_symmetry_Int_Tables_number   1
_chemical_formula_structural   Li3Ti3Fe(PO4)6
_chemical_formula_sum   'Li3 Ti3 Fe1 P6 O24'
_cell_volume   468.72622759
_cell_formula_units_Z   1
loop_
 _symmetry_equiv_pos_site_id
 _symmetry_equiv_pos_as_xyz
  1  'x, y, z'
loop_
 _atom_site_type_symbol
 _atom_site_label
 _atom_site_symmetry_multiplicity
 _atom_site_fract_x
 _atom_site_fract_y
 _atom_site_fract_z
 _atom_site_occupancy
  Li  Li0  1  0.26927000  0.87358800  0.66357800  1
  Li  Li1  1  0.78705500  0.20055700  0.93496600  1
  Li  Li2  1  0.94352300  0.78011200  0.19901100  1
  Ti  Ti0  1  0.13969000  0.14551500  0.13925900  1
  Ti  Ti1  1  0.36289400  0.36748100  0.36851400  1
  Ti  Ti2  1  0.85215800  0.85629500  0.85612100  1
  Fe  Fe0  1  0.64118300  0.63544700  0.64143700  1
  P  P0  1  0.04170200  0.75163600  0.46335400  1
  P  P1  1  0.45495500  0.03833700  0.75122400  1
  P  P2  1  0.74587800  0.46190400  0.04389800  1
  P  P3  1  0.24306800  0.54157200  0.97285500  1
  P  P4  1  0.53334300  0.97831100  0.24857700  1
  P  P5  1  0.96689100  0.25025500  0.53561200  1
  O  O0  1  0.14128000  0.28334000  0.50364500  1
  O  O1  1  0.28140900  0.51321400  0.14075200  1
  O  O2  1  0.07041100  0.91372300  0.27474600  1
  O  O3  1  0.50989800  0.15045700  0.27587300  1
  O  O4  1  0.00854500  0.79923700  0.62943500  1
  O  O5  1  0.21976500  0.57999400  0.45095800  1
  O  O6  1  0.27490600  0.07504000  0.91785000  1
  O  O7  1  0.44707100  0.21987600  0.58092500  1
  O  O8  1  0.18996200  0.37900300  0.01115600  1
  O  O9  1  0.57769600  0.45215200  0.22701500  1
  O  O10  1  0.07204200  0.72961500  0.95146100  1
  O  O11  1  0.37400000  0.01690600  0.19036700  1
  O  O12  1  0.63194500  0.98700900  0.79615800  1
  O  O13  1  0.90908700  0.27469200  0.07002700  1
  O  O14  1  0.40041400  0.57582300  0.78210100  1
  O  O15  1  0.80016300  0.62917700  0.99563700  1
  O  O16  1  0.53920100  0.80196200  0.42321300  1
  O  O17  1  0.72918100  0.94667600  0.08468600  1
  O  O18  1  0.78568400  0.41572400  0.56003800  1
  O  O19  1  0.00241300  0.19429300  0.37688100  1
  O  O20  1  0.46990800  0.87808800  0.71295900  1
  O  O21  1  0.94333900  0.08144100  0.72740100  1
  O  O22  1  0.70238800  0.48121500  0.88234400  1
  O  O23  1  0.87268200  0.71533400  0.48696600  1
loop_
_geom_bond_atom_site_label_1
_geom_bond_atom_site_label_2
_geom_bond_distance
_geom_bond_site_symmetry_2
Li0 O20 2.010938 1_555
Li0 O14 2.167321 1_555
Li0 O16 2.286832 1_555
Li0 O10 2.342808 1_555
Li0 O21 2.443418 1_465
Li1 O22 2.049321 1_555
Li1 O21 2.058064 1_555
Li1 O17 2.104408 1_546
Li1 O13 2.367526 1_556
Li2 O10 2.039095 1_654
Li2 O17 2.072218 1_555
Li2 O23 2.093018 1_555
Li2 O2 2.402243 1_655
Fe0 O18 1.964717 1_555
Fe0 O14 2.003225 1_555
Fe0 O23 2.018667 1_555
Fe0 O22 2.020967 1_555
Fe0 O16 2.039379 1_555
Fe0 O20 2.092772 1_555
O0 P5 1.541929 1_455
O0 Ti1 1.972253 1_555
O1 P3 1.534459 1_554
O1 Ti1 2.011562 1_555
O2 P0 1.543710 1_555
O2 Ti0 1.990079 1_565
O3 P4 1.538962 1_545
O3 Ti1 1.997768 1_555
O4 P0 1.555302 1_555
O4 Ti2 1.906334 1_455
O5 P0 1.534735 1_555
O5 Ti1 1.916909 1_555
O6 P1 1.535484 1_555
O6 Ti0 1.922136 1_556
O7 P1 1.538011 1_555
O7 Ti1 1.912152 1_555
O8 P3 1.536116 1_554
O8 Ti0 1.927421 1_555
O9 P2 1.531275 1_555
O9 Ti1 1.921565 1_555
O10 P3 1.580872 1_555
O10 Ti2 2.032030 1_455
O11 P4 1.532365 1_545
O11 Ti0 1.933417 1_555
O12 P1 1.566548 1_565
O12 Ti2 1.862841 1_555
O13 P2 1.547779 1_555
O13 Ti0 1.982847 1_655
O14 P3 1.535186 1_555
O15 P2 1.549801 1_556
O15 Ti2 1.882792 1_555
O16 P4 1.532937 1_555
O17 P4 1.584538 1_555
O17 Ti2 2.085711 1_554
O18 P5 1.528625 1_555
O19 P5 1.532906 1_455
O19 Ti0 1.951580 1_555
O20 P1 1.527507 1_565
O21 P5 1.582494 1_555
O21 Ti2 2.048983 1_545
O22 P2 1.543496 1_556
O23 P0 1.543621 1_655
