# generated using pymatgen
data_Cs3HoO3
_symmetry_space_group_name_H-M   'P 1'
_cell_length_a   7.53400234
_cell_length_b   8.21160707
_cell_length_c   12.09431605
_cell_angle_alpha   84.80416554
_cell_angle_beta   90.00000000
_cell_angle_gamma   90.00000000
_symmetry_Int_Tables_number   1
_chemical_formula_structural   Cs3HoO3
_chemical_formula_sum   'Cs12 Ho4 O12'
_cell_volume   745.15569564
_cell_formula_units_Z   4
loop_
 _symmetry_equiv_pos_site_id
 _symmetry_equiv_pos_as_xyz
  1  'x, y, z'
loop_
 _atom_site_type_symbol
 _atom_site_label
 _atom_site_symmetry_multiplicity
 _atom_site_fract_x
 _atom_site_fract_y
 _atom_site_fract_z
 _atom_site_occupancy
  Cs  Cs0  1  0.33947449  0.35128944  0.07715676  1
  Cs  Cs1  1  0.62129414  0.93987220  0.15589571  1
  Cs  Cs2  1  0.81737688  0.37869925  0.19052443  1
  Cs  Cs3  1  0.31737688  0.62130075  0.30947557  1
  Cs  Cs4  1  0.12129414  0.06012780  0.34410429  1
  Cs  Cs5  1  0.83947449  0.64871056  0.42284324  1
  Cs  Cs6  1  0.16052551  0.35128944  0.57715676  1
  Cs  Cs7  1  0.87870586  0.93987220  0.65589571  1
  Cs  Cs8  1  0.68262312  0.37869925  0.69052443  1
  Cs  Cs9  1  0.18262312  0.62130075  0.80947557  1
  Cs  Cs10  1  0.37870586  0.06012780  0.84410429  1
  Cs  Cs11  1  0.66052551  0.64871056  0.92284324  1
  Ho  Ho0  1  0.08686655  0.84345951  0.06847552  1
  Ho  Ho1  1  0.58686655  0.15654049  0.43152448  1
  Ho  Ho2  1  0.41313345  0.84345951  0.56847552  1
  Ho  Ho3  1  0.91313345  0.15654049  0.93152448  1
  O  O0  1  0.34508815  0.75280487  0.04715454  1
  O  O1  1  0.05407134  0.10416103  0.08763334  1
  O  O2  1  0.94545034  0.70312388  0.19167457  1
  O  O3  1  0.44545034  0.29687612  0.30832543  1
  O  O4  1  0.55407134  0.89583897  0.41236666  1
  O  O5  1  0.84508815  0.24719513  0.45284546  1
  O  O6  1  0.15491185  0.75280487  0.54715454  1
  O  O7  1  0.44592866  0.10416103  0.58763334  1
  O  O8  1  0.55454966  0.70312388  0.69167457  1
  O  O9  1  0.05454966  0.29687612  0.80832543  1
  O  O10  1  0.94592866  0.89583897  0.91236666  1
  O  O11  1  0.65491185  0.24719513  0.95284546  1
loop_
_geom_bond_atom_site_label_1
_geom_bond_atom_site_label_2
_geom_bond_distance
_geom_bond_site_symmetry_2
Cs0 O3 2.903018 1_555
Cs0 O1 2.951459 1_555
Cs0 O11 2.978521 1_554
Cs0 O0 3.284440 1_555
Cs1 O0 2.964034 1_555
Cs1 O2 3.127084 1_555
Cs1 O4 3.131376 1_555
Cs1 O11 3.367646 1_564
Cs1 O1 3.595973 1_665
Cs2 O2 2.834625 1_555
Cs2 O3 3.187419 1_555
Cs2 O1 3.212313 1_655
Cs2 O5 3.264127 1_555
Cs2 O11 3.389638 1_554
Cs3 O3 2.834625 1_555
Cs3 O2 3.187419 1_455
Cs3 O4 3.212313 1_555
Cs3 O0 3.264127 1_555
Cs3 O6 3.389638 1_555
Cs4 O5 2.964034 1_455
Cs4 O3 3.127084 1_555
Cs4 O1 3.131376 1_555
Cs4 O6 3.367646 1_545
Cs4 O4 3.595973 1_545
Cs5 O2 2.903018 1_555
Cs5 O4 2.951459 1_555
Cs5 O6 2.978521 1_655
Cs5 O5 3.284440 1_555
Cs6 O9 2.903018 1_555
Cs6 O7 2.951459 1_555
Cs6 O5 2.978521 1_455
Cs6 O6 3.284440 1_555
Cs7 O6 2.964034 1_655
Cs7 O8 3.127084 1_555
Cs7 O10 3.131376 1_555
Cs7 O5 3.367646 1_565
Cs7 O7 3.595973 1_565
Cs8 O8 2.834625 1_555
Cs8 O9 3.187419 1_655
Cs8 O7 3.212313 1_555
Cs8 O11 3.264127 1_555
Cs8 O5 3.389638 1_555
Cs9 O9 2.834625 1_555
Cs9 O8 3.187419 1_555
Cs9 O10 3.212313 1_455
Cs9 O6 3.264127 1_555
Cs9 O0 3.389638 1_556
Cs10 O11 2.964034 1_555
Cs10 O9 3.127084 1_555
Cs10 O7 3.131376 1_555
Cs10 O0 3.367646 1_546
Cs10 O10 3.595973 1_445
Cs11 O8 2.903018 1_555
Cs11 O10 2.951459 1_555
Cs11 O0 2.978521 1_556
Cs11 O11 3.284440 1_555
Ho0 O2 2.090994 1_455
Ho0 O0 2.107170 1_555
Ho0 O10 2.174868 1_454
Ho0 O1 2.188037 1_565
Ho1 O3 2.090994 1_555
Ho1 O5 2.107170 1_555
Ho1 O7 2.174868 1_555
Ho1 O4 2.188037 1_545
Ho2 O8 2.090994 1_555
Ho2 O6 2.107170 1_555
Ho2 O4 2.174868 1_555
Ho2 O7 2.188037 1_565
Ho3 O9 2.090994 1_655
Ho3 O11 2.107170 1_555
Ho3 O1 2.174868 1_656
Ho3 O10 2.188037 1_545
