# generated using pymatgen
data_BiRu2O7
_symmetry_space_group_name_H-M   'P 1'
_cell_length_a   7.22373116
_cell_length_b   7.22373116
_cell_length_c   7.22373116
_cell_angle_alpha   120.01742960
_cell_angle_beta   119.56923320
_cell_angle_gamma   90.35877032
_symmetry_Int_Tables_number   1
_chemical_formula_structural   BiRu2O7
_chemical_formula_sum   'Bi2 Ru4 O14'
_cell_volume   267.36638102
_cell_formula_units_Z   2
loop_
 _symmetry_equiv_pos_site_id
 _symmetry_equiv_pos_as_xyz
  1  'x, y, z'
loop_
 _atom_site_type_symbol
 _atom_site_label
 _atom_site_symmetry_multiplicity
 _atom_site_fract_x
 _atom_site_fract_y
 _atom_site_fract_z
 _atom_site_occupancy
  Bi  Bi0  1  0.23053900  0.75000000  0.98053900  1
  Bi  Bi1  1  0.26946100  0.25000000  0.51946100  1
  Ru  Ru0  1  0.75000000  0.75513900  0.00513900  1
  Ru  Ru1  1  0.25000000  0.74486100  0.49486100  1
  Ru  Ru2  1  0.74838000  0.75000000  0.49838000  1
  Ru  Ru3  1  0.75162000  0.25000000  0.00162000  1
  O  O0  1  0.42418300  0.67418300  0.75000000  1
  O  O1  1  0.69952900  0.44952900  0.25000000  1
  O  O2  1  0.42189100  0.07194100  0.73449100  1
  O  O3  1  0.83745000  0.68740000  0.76550900  1
  O  O4  1  0.83208000  0.06670600  0.13980900  1
  O  O5  1  0.42689700  0.69227100  0.36019100  1
  O  O6  1  0.13703800  0.38703800  0.75000000  1
  O  O7  1  0.07310300  0.43329400  0.26537400  1
  O  O8  1  0.07810900  0.81260000  0.65005000  1
  O  O9  1  0.66792000  0.80772900  0.23462600  1
  O  O10  1  0.36296200  0.11296200  0.25000000  1
  O  O11  1  0.66255000  0.42805900  0.84995000  1
  O  O12  1  0.80047100  0.05047100  0.75000000  1
  O  O13  1  0.07581700  0.82581700  0.25000000  1
loop_
_geom_bond_atom_site_label_1
_geom_bond_atom_site_label_2
_geom_bond_distance
_geom_bond_site_symmetry_2
Bi0 O10 2.145482 1_566
Bi0 O6 2.145482 1_555
Bi0 O8 2.368201 1_555
Bi0 O3 2.368201 1_455
Bi0 O0 2.535007 1_555
Bi0 O13 2.535007 1_556
Bi0 O9 2.649449 1_556
Bi0 O5 2.649449 1_556
Bi1 O10 2.145482 1_555
Bi1 O6 2.145482 1_555
Bi1 O11 2.368201 1_555
Bi1 O2 2.368201 1_555
Bi1 O0 2.535007 1_555
Bi1 O13 2.535007 1_545
Bi1 O7 2.649449 1_555
Bi1 O4 2.649449 1_455
O0 Ru0 1.975218 1_556
O0 Ru1 1.975218 1_555
O1 Ru3 1.877232 1_555
O1 Ru2 1.877232 1_555
O2 Ru1 1.967378 1_545
O2 Ru3 1.998356 1_556
O3 Ru0 1.967378 1_556
O3 Ru2 1.998356 1_555
O4 Ru0 1.893893 1_545
O4 Ru3 1.961351 1_555
O5 Ru1 1.893893 1_555
O5 Ru2 1.961351 1_555
O7 Ru1 1.893893 1_555
O7 Ru3 1.961351 1_455
O8 Ru1 1.967378 1_555
O8 Ru2 1.998356 1_455
O9 Ru0 1.893893 1_555
O9 Ru2 1.961351 1_555
O11 Ru0 1.967378 1_556
O11 Ru3 1.998356 1_556
O12 Ru3 1.877232 1_556
O12 Ru2 1.877232 1_545
O13 Ru1 1.975218 1_555
O13 Ru0 1.975218 1_455
