# generated using pymatgen
data_Li2VF4
_symmetry_space_group_name_H-M   'P 1'
_cell_length_a   6.19203700
_cell_length_b   5.38217700
_cell_length_c   11.04075237
_cell_angle_alpha   65.80322422
_cell_angle_beta   90.00000000
_cell_angle_gamma   90.00000000
_symmetry_Int_Tables_number   1
_chemical_formula_structural   Li2VF4
_chemical_formula_sum   'Li8 V4 F16'
_cell_volume   335.62415098
_cell_formula_units_Z   4
loop_
 _symmetry_equiv_pos_site_id
 _symmetry_equiv_pos_as_xyz
  1  'x, y, z'
loop_
 _atom_site_type_symbol
 _atom_site_label
 _atom_site_symmetry_multiplicity
 _atom_site_fract_x
 _atom_site_fract_y
 _atom_site_fract_z
 _atom_site_occupancy
  Li  Li0  1  0.56611700  0.59099900  0.72410900  1
  Li  Li1  1  0.11306000  0.20129000  0.05173900  1
  Li  Li2  1  0.06611700  0.40900100  0.77589100  1
  Li  Li3  1  0.61306000  0.79871000  0.44826100  1
  Li  Li4  1  0.38694000  0.20129000  0.55173900  1
  Li  Li5  1  0.93388300  0.59099900  0.22410900  1
  Li  Li6  1  0.88694000  0.79871000  0.94826100  1
  Li  Li7  1  0.43388300  0.40900100  0.27589100  1
  V  V0  1  0.63403600  0.23326900  0.01233600  1
  V  V1  1  0.13403600  0.76673100  0.48766400  1
  V  V2  1  0.86596400  0.23326900  0.51233600  1
  V  V3  1  0.36596400  0.76673100  0.98766400  1
  F  F0  1  0.39353500  0.50925800  0.88355500  1
  F  F1  1  0.87812400  0.49699000  0.89263100  1
  F  F2  1  0.37702200  0.04393200  0.38588800  1
  F  F3  1  0.87098000  0.01722100  0.39079400  1
  F  F4  1  0.37812400  0.50301000  0.60736900  1
  F  F5  1  0.89353500  0.49074200  0.61644500  1
  F  F6  1  0.37098000  0.98277900  0.10920600  1
  F  F7  1  0.87702200  0.95606800  0.11411200  1
  F  F8  1  0.12297800  0.04393200  0.88588800  1
  F  F9  1  0.62902000  0.01722100  0.89079400  1
  F  F10  1  0.10646500  0.50925800  0.38355500  1
  F  F11  1  0.62187600  0.49699000  0.39263100  1
  F  F12  1  0.12902000  0.98277900  0.60920600  1
  F  F13  1  0.62297800  0.95606800  0.61411200  1
  F  F14  1  0.12187600  0.50301000  0.10736900  1
  F  F15  1  0.60646500  0.49074200  0.11644500  1
loop_
_geom_bond_atom_site_label_1
_geom_bond_atom_site_label_2
_geom_bond_distance
_geom_bond_site_symmetry_2
F0 Li0 1.949276 1_555
F0 V3 2.139262 1_555
F0 V0 2.171283 1_556
F1 Li2 1.934146 1_655
F1 Li6 1.958294 1_555
F1 V0 2.123195 1_556
F1 Li1 2.333075 1_656
F2 Li7 1.871751 1_555
F2 Li3 1.899280 1_545
F2 V1 2.092377 1_545
F2 Li4 2.311999 1_555
F3 Li3 1.929917 1_545
F3 V1 2.105381 1_645
F3 V2 2.105456 1_555
F4 Li0 1.934146 1_555
F4 Li4 1.958294 1_555
F4 V1 2.123195 1_555
F4 Li3 2.333075 1_555
F5 Li2 1.949276 1_655
F5 V2 2.139262 1_555
F5 V1 2.171283 1_655
F6 Li1 1.929917 1_565
F6 V0 2.105381 1_565
F6 V3 2.105456 1_554
F7 Li5 1.871751 1_555
F7 Li1 1.899280 1_665
F7 V0 2.092377 1_565
F7 Li6 2.311999 1_554
F8 Li2 1.871751 1_555
F8 Li6 1.899280 1_445
F8 V3 2.092377 1_545
F8 Li1 2.311999 1_556
F9 Li6 1.929917 1_545
F9 V3 2.105381 1_545
F9 V0 2.105456 1_556
F10 Li5 1.949276 1_455
F10 V1 2.139262 1_555
F10 V2 2.171283 1_455
F11 Li7 1.934146 1_555
F11 Li3 1.958294 1_555
F11 V2 2.123195 1_555
F11 Li4 2.333075 1_555
F12 Li4 1.929917 1_565
F12 V2 2.105381 1_465
F12 V1 2.105456 1_555
F13 Li0 1.871751 1_555
F13 Li4 1.899280 1_565
F13 V2 2.092377 1_565
F13 Li3 2.311999 1_555
F14 Li5 1.934146 1_455
F14 Li1 1.958294 1_555
F14 V3 2.123195 1_554
F14 Li6 2.333075 1_454
F15 Li7 1.949276 1_555
F15 V0 2.139262 1_555
F15 V3 2.171283 1_554
