# generated using pymatgen
data_BaTl2O4
_symmetry_space_group_name_H-M   'P 1'
_cell_length_a   3.48897024
_cell_length_b   10.39790207
_cell_length_c   12.05973150
_cell_angle_alpha   90.00000000
_cell_angle_beta   90.00000000
_cell_angle_gamma   90.00000000
_symmetry_Int_Tables_number   1
_chemical_formula_structural   BaTl2O4
_chemical_formula_sum   'Ba4 Tl8 O16'
_cell_volume   437.50258819
_cell_formula_units_Z   4
loop_
 _symmetry_equiv_pos_site_id
 _symmetry_equiv_pos_as_xyz
  1  'x, y, z'
loop_
 _atom_site_type_symbol
 _atom_site_label
 _atom_site_symmetry_multiplicity
 _atom_site_fract_x
 _atom_site_fract_y
 _atom_site_fract_z
 _atom_site_occupancy
  Ba  Ba0  1  0.75000000  0.24543354  0.65105367  1
  Ba  Ba1  1  0.25000000  0.25456646  0.15105367  1
  Ba  Ba2  1  0.75000000  0.74543354  0.84894633  1
  Ba  Ba3  1  0.25000000  0.75456646  0.34894633  1
  Tl  Tl0  1  0.75000000  0.07835986  0.39203228  1
  Tl  Tl1  1  0.75000000  0.07420932  0.89172122  1
  Tl  Tl2  1  0.25000000  0.42579068  0.39172122  1
  Tl  Tl3  1  0.25000000  0.42164014  0.89203228  1
  Tl  Tl4  1  0.75000000  0.57835986  0.10796772  1
  Tl  Tl5  1  0.75000000  0.57420932  0.60827878  1
  Tl  Tl6  1  0.25000000  0.92579068  0.10827878  1
  Tl  Tl7  1  0.25000000  0.92164014  0.60796772  1
  O  O0  1  0.25000000  0.02080086  0.28085694  1
  O  O1  1  0.75000000  0.07678339  0.07490011  1
  O  O2  1  0.25000000  0.11914511  0.51652870  1
  O  O3  1  0.25000000  0.20758237  0.83613223  1
  O  O4  1  0.75000000  0.29241763  0.33613223  1
  O  O5  1  0.75000000  0.38085489  0.01652870  1
  O  O6  1  0.25000000  0.42321661  0.57490011  1
  O  O7  1  0.75000000  0.47919914  0.78085694  1
  O  O8  1  0.25000000  0.52080086  0.21914306  1
  O  O9  1  0.75000000  0.57678339  0.42509989  1
  O  O10  1  0.25000000  0.61914511  0.98347130  1
  O  O11  1  0.25000000  0.70758237  0.66386777  1
  O  O12  1  0.75000000  0.79241763  0.16386777  1
  O  O13  1  0.75000000  0.88085489  0.48347130  1
  O  O14  1  0.25000000  0.92321661  0.92509989  1
  O  O15  1  0.75000000  0.97919914  0.71914306  1
loop_
_geom_bond_atom_site_label_1
_geom_bond_atom_site_label_2
_geom_bond_distance
_geom_bond_site_symmetry_2
Ba0 O6 2.702570 1_555
Ba0 O6 2.702570 1_655
Ba0 O2 2.720206 1_655
Ba0 O2 2.720206 1_555
Ba0 O3 2.860060 1_555
Ba0 O3 2.860060 1_655
Ba0 O15 2.887497 1_545
Ba0 O7 2.891128 1_555
Ba1 O1 2.702570 1_555
Ba1 O1 2.702570 1_455
Ba1 O5 2.720206 1_555
Ba1 O5 2.720206 1_455
Ba1 O4 2.860060 1_455
Ba1 O4 2.860060 1_555
Ba1 O8 2.887497 1_555
Ba1 O0 2.891128 1_555
Ba2 O14 2.702570 1_655
Ba2 O14 2.702570 1_555
Ba2 O10 2.720206 1_655
Ba2 O10 2.720206 1_555
Ba2 O11 2.860060 1_655
Ba2 O11 2.860060 1_555
Ba2 O7 2.887497 1_555
Ba2 O15 2.891128 1_555
Ba3 O9 2.702570 1_455
Ba3 O9 2.702570 1_555
Ba3 O13 2.720206 1_455
Ba3 O13 2.720206 1_555
Ba3 O12 2.860060 1_455
Ba3 O12 2.860060 1_555
Ba3 O0 2.887497 1_565
Ba3 O8 2.891128 1_555
O0 Tl0 2.280136 1_455
O0 Tl0 2.280136 1_555
O0 Tl6 2.303811 1_545
O1 Tl1 2.209250 1_554
O1 Tl6 2.381216 1_645
O1 Tl6 2.381216 1_545
O2 Tl7 2.330974 1_545
O2 Tl0 2.340354 1_455
O2 Tl0 2.340354 1_555
O3 Tl3 2.325604 1_555
O3 Tl1 2.327201 1_555
O3 Tl1 2.327201 1_455
O4 Tl0 2.325604 1_555
O4 Tl2 2.327201 1_555
O4 Tl2 2.327201 1_655
O5 Tl4 2.330974 1_555
O5 Tl3 2.340354 1_554
O5 Tl3 2.340354 1_654
O6 Tl2 2.209250 1_555
O6 Tl5 2.381216 1_455
O6 Tl5 2.381216 1_555
O7 Tl3 2.280136 1_555
O7 Tl3 2.280136 1_655
O7 Tl5 2.303811 1_555
O8 Tl4 2.280136 1_455
O8 Tl4 2.280136 1_555
O8 Tl2 2.303811 1_555
O9 Tl5 2.209250 1_555
O9 Tl2 2.381216 1_555
O9 Tl2 2.381216 1_655
O10 Tl3 2.330974 1_555
O10 Tl4 2.340354 1_456
O10 Tl4 2.340354 1_556
O11 Tl7 2.325604 1_555
O11 Tl5 2.327201 1_455
O11 Tl5 2.327201 1_555
O12 Tl4 2.325604 1_555
O12 Tl6 2.327201 1_655
O12 Tl6 2.327201 1_555
O13 Tl0 2.330974 1_565
O13 Tl7 2.340354 1_555
O13 Tl7 2.340354 1_655
O14 Tl6 2.209250 1_556
O14 Tl1 2.381216 1_565
O14 Tl1 2.381216 1_465
O15 Tl7 2.280136 1_555
O15 Tl7 2.280136 1_655
O15 Tl1 2.303811 1_565
