# generated using pymatgen
data_LiMnPO4
_symmetry_space_group_name_H-M   'P 1'
_cell_length_a   5.01338900
_cell_length_b   5.51733961
_cell_length_c   6.71567767
_cell_angle_alpha   102.72458241
_cell_angle_beta   90.07620468
_cell_angle_gamma   116.84986988
_symmetry_Int_Tables_number   1
_chemical_formula_structural   LiMnPO4
_chemical_formula_sum   'Li2 Mn2 P2 O8'
_cell_volume   160.57458094
_cell_formula_units_Z   2
loop_
 _symmetry_equiv_pos_site_id
 _symmetry_equiv_pos_as_xyz
  1  'x, y, z'
loop_
 _atom_site_type_symbol
 _atom_site_label
 _atom_site_symmetry_multiplicity
 _atom_site_fract_x
 _atom_site_fract_y
 _atom_site_fract_z
 _atom_site_occupancy
  Li  Li0  1  0.06359300  0.00297800  0.49794200  1
  Li  Li1  1  0.03310500  0.00016700  0.00461700  1
  Mn  Mn0  1  0.35512100  0.71431100  0.27095500  1
  Mn  Mn1  1  0.64026400  0.28664500  0.72562300  1
  P  P0  1  0.31387600  0.64664200  0.76785500  1
  P  P1  1  0.67142200  0.35642200  0.22825900  1
  O  O0  1  0.75334900  0.67257300  0.31984200  1
  O  O1  1  0.30331800  0.83194900  0.62236300  1
  O  O2  1  0.21423500  0.73173100  0.97808700  1
  O  O3  1  0.63867500  0.68395800  0.78761800  1
  O  O4  1  0.95760900  0.31646100  0.20952000  1
  O  O5  1  0.48496800  0.27013700  0.01837100  1
  O  O6  1  0.47497500  0.17296800  0.37373700  1
  O  O7  1  0.07898800  0.33220900  0.67386100  1
loop_
_geom_bond_atom_site_label_1
_geom_bond_atom_site_label_2
_geom_bond_distance
_geom_bond_site_symmetry_2
Li0 O7 1.905001 1_555
Li0 O0 1.909512 1_445
Li0 O1 2.098121 1_545
Li0 O6 2.104966 1_555
Li1 O2 2.036888 1_544
Li1 O5 2.061521 1_555
Li1 O4 2.149961 1_455
Li1 O3 2.198564 1_444
Mn0 O2 2.125406 1_554
Mn0 O0 2.143263 1_555
Mn0 O4 2.146499 1_455
Mn0 O6 2.257686 1_565
Mn0 O1 2.353120 1_555
Mn1 O5 2.120969 1_556
Mn1 O7 2.136087 1_655
Mn1 O3 2.143007 1_555
Mn1 O1 2.242878 1_545
Mn1 O6 2.353066 1_555
O0 P1 1.571353 1_555
O1 P0 1.578483 1_555
O2 P0 1.544340 1_555
O3 P0 1.547921 1_555
O4 P1 1.548228 1_555
O5 P1 1.544712 1_555
O6 P1 1.576921 1_555
O7 P0 1.570043 1_555
