# generated using pymatgen
data_Mn2OF3
_symmetry_space_group_name_H-M   'P 1'
_cell_length_a   5.81349296
_cell_length_b   5.81349296
_cell_length_c   10.70986632
_cell_angle_alpha   69.36388344
_cell_angle_beta   69.36388344
_cell_angle_gamma   65.88759264
_symmetry_Int_Tables_number   1
_chemical_formula_structural   Mn2OF3
_chemical_formula_sum   'Mn8 O4 F12'
_cell_volume   299.83019323
_cell_formula_units_Z   4
loop_
 _symmetry_equiv_pos_site_id
 _symmetry_equiv_pos_as_xyz
  1  'x, y, z'
loop_
 _atom_site_type_symbol
 _atom_site_label
 _atom_site_symmetry_multiplicity
 _atom_site_fract_x
 _atom_site_fract_y
 _atom_site_fract_z
 _atom_site_occupancy
  Mn  Mn0  1  0.26565900  0.26565900  0.01718700  1
  Mn  Mn1  1  0.88146900  0.37082700  0.74988200  1
  Mn  Mn2  1  0.11853100  0.62917300  0.25011800  1
  Mn  Mn3  1  0.73434100  0.73434100  0.98281300  1
  Mn  Mn4  1  0.00000000  0.00000000  0.50000000  1
  Mn  Mn5  1  0.50000000  0.50000000  0.50000000  1
  Mn  Mn6  1  0.37082700  0.88146900  0.74988200  1
  Mn  Mn7  1  0.62917300  0.11853100  0.25011800  1
  O  O0  1  0.08446100  0.08446100  0.66150200  1
  O  O1  1  0.91553900  0.91553900  0.33849800  1
  O  O2  1  0.66467000  0.66467000  0.83492900  1
  O  O3  1  0.33533000  0.33533000  0.16507100  1
  F  F0  1  0.10015800  0.60163800  0.60206100  1
  F  F1  1  0.18526900  0.18526900  0.85795400  1
  F  F2  1  0.57836200  0.57836200  0.64749000  1
  F  F3  1  0.81473100  0.81473100  0.14204600  1
  F  F4  1  0.89984200  0.39836200  0.39793900  1
  F  F5  1  0.15052800  0.65843500  0.89886300  1
  F  F6  1  0.65843500  0.15052800  0.89886300  1
  F  F7  1  0.60163800  0.10015800  0.60206100  1
  F  F8  1  0.84947200  0.34156500  0.10113700  1
  F  F9  1  0.34156500  0.84947200  0.10113700  1
  F  F10  1  0.42163800  0.42163800  0.35251000  1
  F  F11  1  0.39836200  0.89984200  0.39793900  1
loop_
_geom_bond_atom_site_label_1
_geom_bond_atom_site_label_2
_geom_bond_distance
_geom_bond_site_symmetry_2
Mn0 O3 1.968490 1_555
Mn1 O0 1.943773 1_655
Mn1 O2 1.965883 1_555
Mn2 O1 1.943773 1_455
Mn2 O3 1.965883 1_555
Mn3 O2 1.968490 1_555
Mn4 O1 2.206395 1_445
Mn4 O0 2.206395 1_555
Mn6 O0 1.943773 1_565
Mn6 O2 1.965883 1_555
Mn7 O1 1.943773 1_545
Mn7 O3 1.965883 1_555
F0 Mn1 2.097842 1_455
F0 Mn4 2.111789 1_565
F0 Mn5 2.118782 1_555
F1 Mn6 2.150984 1_545
F1 Mn1 2.150984 1_455
F1 Mn0 2.155712 1_556
F2 Mn5 2.023412 1_555
F2 Mn6 2.110836 1_555
F2 Mn1 2.110836 1_555
F3 Mn7 2.150984 1_565
F3 Mn2 2.150984 1_655
F3 Mn3 2.155712 1_554
F4 Mn2 2.097842 1_655
F4 Mn4 2.111789 1_655
F4 Mn5 2.118782 1_555
F5 Mn6 2.079765 1_555
F5 Mn0 2.139467 1_556
F5 Mn3 2.175098 1_455
F6 Mn1 2.079765 1_555
F6 Mn0 2.139467 1_556
F6 Mn3 2.175098 1_545
F7 Mn6 2.097842 1_545
F7 Mn4 2.111789 1_655
F7 Mn5 2.118782 1_555
F8 Mn7 2.079765 1_555
F8 Mn3 2.139467 1_554
F8 Mn0 2.175098 1_655
F9 Mn2 2.079765 1_555
F9 Mn3 2.139467 1_554
F9 Mn0 2.175098 1_565
F10 Mn5 2.023412 1_555
F10 Mn2 2.110836 1_555
F10 Mn7 2.110836 1_555
F11 Mn7 2.097842 1_565
F11 Mn4 2.111789 1_565
F11 Mn5 2.118782 1_555
