# generated using pymatgen
data_Li8MnCr3O12
_symmetry_space_group_name_H-M   'P 1'
_cell_length_a   4.97838539
_cell_length_b   4.96357536
_cell_length_c   8.40762247
_cell_angle_alpha   89.68953422
_cell_angle_beta   89.67797362
_cell_angle_gamma   89.99879446
_symmetry_Int_Tables_number   1
_chemical_formula_structural   Li8MnCr3O12
_chemical_formula_sum   'Li8 Mn1 Cr3 O12'
_cell_volume   207.75098935
_cell_formula_units_Z   1
loop_
 _symmetry_equiv_pos_site_id
 _symmetry_equiv_pos_as_xyz
  1  'x, y, z'
loop_
 _atom_site_type_symbol
 _atom_site_label
 _atom_site_symmetry_multiplicity
 _atom_site_fract_x
 _atom_site_fract_y
 _atom_site_fract_z
 _atom_site_occupancy
  Li  Li0  1  0.00489500  0.49787900  0.23053400  1
  Li  Li1  1  0.00011100  0.49941100  0.92032100  1
  Li  Li2  1  0.00212400  0.99985700  0.25444900  1
  Li  Li3  1  0.00003700  0.00211500  0.56650000  1
  Li  Li4  1  0.50056800  0.50058200  0.75442800  1
  Li  Li5  1  0.49834600  0.49907200  0.06402500  1
  Li  Li6  1  0.50189600  0.99983900  0.73119300  1
  Li  Li7  1  0.49518500  0.99967000  0.42072200  1
  Mn  Mn0  1  0.99924200  0.99937700  0.90621100  1
  Cr  Cr0  1  0.50972500  0.50028300  0.40604600  1
  Cr  Cr1  1  0.00275000  0.50548300  0.58512700  1
  Cr  Cr2  1  0.49806300  0.00122800  0.08382100  1
  O  O0  1  0.14416200  0.75086700  0.74371100  1
  O  O1  1  0.16659500  0.77863400  0.06732400  1
  O  O2  1  0.16952700  0.71506400  0.41923000  1
  O  O3  1  0.32931900  0.28298900  0.56371400  1
  O  O4  1  0.32722700  0.21353100  0.91844000  1
  O  O5  1  0.35526300  0.24426700  0.24018800  1
  O  O6  1  0.63397900  0.74802300  0.24157100  1
  O  O7  1  0.67289300  0.78644700  0.91836900  1
  O  O8  1  0.67350100  0.72091600  0.56785700  1
  O  O9  1  0.82697200  0.28396900  0.42082700  1
  O  O10  1  0.83112800  0.21882100  0.06673200  1
  O  O11  1  0.85655900  0.25166400  0.74200900  1
loop_
_geom_bond_atom_site_label_1
_geom_bond_atom_site_label_2
_geom_bond_distance
_geom_bond_site_symmetry_2
Li0 O2 2.093796 1_555
Li0 O9 2.106498 1_455
Li0 O1 2.107100 1_555
Li0 O10 2.144222 1_455
Li0 O5 2.152691 1_555
Li0 O6 2.226931 1_455
Li1 O10 2.032863 1_456
Li1 O1 2.040950 1_556
Li1 O0 2.060320 1_555
Li1 O11 2.074253 1_455
Li1 O4 2.160017 1_555
Li1 O7 2.164199 1_455
Li2 O1 2.086999 1_555
Li2 O10 2.096014 1_465
Li2 O5 2.138464 1_565
Li2 O2 2.145664 1_555
Li2 O9 2.171040 1_465
Li2 O6 2.221947 1_455
Li3 O9 2.047639 1_455
Li3 O11 2.056656 1_455
Li3 O0 2.069242 1_545
Li3 O2 2.069413 1_545
Li3 O8 2.142572 1_445
Li3 O3 2.151921 1_555
Li4 O8 2.089039 1_555
Li4 O3 2.120977 1_555
Li4 O4 2.154446 1_555
Li4 O11 2.162765 1_555
Li4 O7 2.164187 1_555
Li4 O0 2.167989 1_555
Li5 O6 2.059730 1_555
Li5 O7 2.063635 1_554
Li5 O4 2.064772 1_554
Li5 O5 2.066047 1_555
Li5 O1 2.157270 1_555
Li5 O10 2.163383 1_555
Li6 O7 2.078479 1_555
Li6 O4 2.088608 1_565
Li6 O8 2.130681 1_555
Li6 O3 2.165236 1_565
Li6 O11 2.165940 1_565
Li6 O0 2.169464 1_555
Li7 O3 2.027787 1_565
Li7 O8 2.055846 1_555
Li7 O5 2.062764 1_565
Li7 O6 2.077260 1_555
Li7 O2 2.150522 1_555
Li7 O9 2.172502 1_565
Mn0 O10 1.926524 1_566
Mn0 O1 1.930306 1_656
Mn0 O7 1.940137 1_555
Mn0 O4 1.951864 1_665
Mn0 O0 1.978835 1_655
Mn0 O11 1.992700 1_565
Cr0 O9 1.913996 1_555
Cr0 O3 1.923105 1_555
Cr0 O8 1.934826 1_555
Cr0 O6 1.943964 1_555
Cr0 O2 2.004075 1_555
Cr0 O5 2.044990 1_555
Cr1 O2 1.920492 1_555
Cr1 O0 1.945511 1_555
Cr1 O11 1.956507 1_455
Cr1 O8 1.962698 1_455
Cr1 O3 1.973323 1_555
Cr1 O9 1.978122 1_455
Cr2 O5 1.922414 1_555
Cr2 O4 1.940243 1_554
Cr2 O6 1.946397 1_545
Cr2 O7 1.957432 1_544
Cr2 O10 1.982984 1_555
Cr2 O1 1.991820 1_545
