# generated using pymatgen
data_Dy2TiO5
_symmetry_space_group_name_H-M   'P 1'
_cell_length_a   3.63551300
_cell_length_b   7.45812200
_cell_length_c   15.56606500
_cell_angle_alpha   90.00000000
_cell_angle_beta   90.00000000
_cell_angle_gamma   90.00000000
_symmetry_Int_Tables_number   1
_chemical_formula_structural   Dy2TiO5
_chemical_formula_sum   'Dy8 Ti4 O20'
_cell_volume   422.05983502
_cell_formula_units_Z   4
loop_
 _symmetry_equiv_pos_site_id
 _symmetry_equiv_pos_as_xyz
  1  'x, y, z'
loop_
 _atom_site_type_symbol
 _atom_site_label
 _atom_site_symmetry_multiplicity
 _atom_site_fract_x
 _atom_site_fract_y
 _atom_site_fract_z
 _atom_site_occupancy
  Dy  Dy0  1  0.25000000  0.10792800  0.08343800  1
  Dy  Dy1  1  0.25000000  0.14907200  0.73815400  1
  Dy  Dy2  1  0.75000000  0.35092800  0.23815400  1
  Dy  Dy3  1  0.75000000  0.39207200  0.58343800  1
  Dy  Dy4  1  0.25000000  0.60792800  0.41656200  1
  Dy  Dy5  1  0.25000000  0.64907200  0.76184600  1
  Dy  Dy6  1  0.75000000  0.85092800  0.26184600  1
  Dy  Dy7  1  0.75000000  0.89207200  0.91656200  1
  Ti  Ti0  1  0.25000000  0.11993300  0.42355100  1
  Ti  Ti1  1  0.75000000  0.38006700  0.92355100  1
  Ti  Ti2  1  0.25000000  0.61993300  0.07644900  1
  Ti  Ti3  1  0.75000000  0.88006700  0.57644900  1
  O  O0  1  0.75000000  0.08316100  0.17401000  1
  O  O1  1  0.75000000  0.07908900  0.45357500  1
  O  O2  1  0.75000000  0.10968100  0.64917000  1
  O  O3  1  0.75000000  0.15556600  0.99512000  1
  O  O4  1  0.25000000  0.26035600  0.32491300  1
  O  O5  1  0.75000000  0.23964400  0.82491300  1
  O  O6  1  0.25000000  0.34443400  0.49512000  1
  O  O7  1  0.25000000  0.39031900  0.14917000  1
  O  O8  1  0.25000000  0.42091100  0.95357500  1
  O  O9  1  0.25000000  0.41683900  0.67401000  1
  O  O10  1  0.75000000  0.58316100  0.32599000  1
  O  O11  1  0.75000000  0.57908900  0.04642500  1
  O  O12  1  0.75000000  0.60968100  0.85083000  1
  O  O13  1  0.75000000  0.65556600  0.50488000  1
  O  O14  1  0.25000000  0.76035600  0.17508700  1
  O  O15  1  0.75000000  0.73964400  0.67508700  1
  O  O16  1  0.25000000  0.84443400  0.00488000  1
  O  O17  1  0.25000000  0.89031900  0.35083000  1
  O  O18  1  0.25000000  0.92091100  0.54642500  1
  O  O19  1  0.25000000  0.91683900  0.82599000  1
loop_
_geom_bond_atom_site_label_1
_geom_bond_atom_site_label_2
_geom_bond_distance
_geom_bond_site_symmetry_2
Dy0 O3 2.306609 1_454
Dy0 O3 2.306609 1_554
Dy0 O0 2.307820 1_455
Dy0 O0 2.307820 1_555
Dy0 O16 2.314569 1_545
Dy0 O7 2.341495 1_555
Dy1 O19 2.206650 1_545
Dy1 O9 2.232735 1_555
Dy1 O2 2.304156 1_455
Dy1 O2 2.304156 1_555
Dy1 O5 2.363128 1_555
Dy1 O5 2.363128 1_455
Dy2 O10 2.206650 1_555
Dy2 O0 2.232735 1_555
Dy2 O7 2.304156 1_655
Dy2 O7 2.304156 1_555
Dy2 O4 2.363128 1_655
Dy2 O4 2.363128 1_555
Dy3 O6 2.306609 1_655
Dy3 O6 2.306609 1_555
Dy3 O9 2.307820 1_555
Dy3 O9 2.307820 1_655
Dy3 O13 2.314569 1_555
Dy3 O2 2.341495 1_555
Dy4 O13 2.306609 1_455
Dy4 O13 2.306609 1_555
Dy4 O10 2.307820 1_455
Dy4 O10 2.307820 1_555
Dy4 O6 2.314569 1_555
Dy4 O17 2.341495 1_555
Dy5 O9 2.206650 1_555
Dy5 O19 2.232735 1_555
Dy5 O12 2.304156 1_555
Dy5 O12 2.304156 1_455
Dy5 O15 2.363128 1_555
Dy5 O15 2.363128 1_455
Dy6 O0 2.206650 1_565
Dy6 O10 2.232735 1_555
Dy6 O17 2.304156 1_655
Dy6 O17 2.304156 1_555
Dy6 O14 2.363128 1_655
Dy6 O14 2.363128 1_555
Dy7 O16 2.306609 1_556
Dy7 O16 2.306609 1_656
Dy7 O19 2.307820 1_555
Dy7 O19 2.307820 1_655
Dy7 O3 2.314569 1_565
Dy7 O12 2.341495 1_555
O1 Ti0 1.901434 1_655
O1 Ti0 1.901434 1_555
O1 Ti3 2.421058 1_545
O2 Ti3 2.052802 1_545
O3 Ti1 2.011112 1_555
O4 Ti0 1.858572 1_555
O5 Ti1 1.858572 1_555
O6 Ti0 2.011112 1_555
O7 Ti2 2.052802 1_555
O8 Ti1 1.901434 1_555
O8 Ti1 1.901434 1_455
O8 Ti2 2.421058 1_556
O11 Ti2 1.901434 1_555
O11 Ti2 1.901434 1_655
O11 Ti1 2.421058 1_554
O12 Ti1 2.052802 1_555
O13 Ti3 2.011112 1_555
O14 Ti2 1.858572 1_555
O15 Ti3 1.858572 1_555
O16 Ti2 2.011112 1_555
O17 Ti0 2.052802 1_565
O18 Ti3 1.901434 1_555
O18 Ti3 1.901434 1_455
O18 Ti0 2.421058 1_565
