# generated using pymatgen
data_FeH6SO6
_symmetry_space_group_name_H-M   'P 1'
_cell_length_a   8.03466600
_cell_length_b   7.42264800
_cell_length_c   9.32049006
_cell_angle_alpha   75.74425571
_cell_angle_beta   90.00000000
_cell_angle_gamma   90.00000000
_symmetry_Int_Tables_number   1
_chemical_formula_structural   FeH6SO6
_chemical_formula_sum   'Fe4 H24 S4 O24'
_cell_volume   538.74299562
_cell_formula_units_Z   4
loop_
 _symmetry_equiv_pos_site_id
 _symmetry_equiv_pos_as_xyz
  1  'x, y, z'
loop_
 _atom_site_type_symbol
 _atom_site_label
 _atom_site_symmetry_multiplicity
 _atom_site_fract_x
 _atom_site_fract_y
 _atom_site_fract_z
 _atom_site_occupancy
  Fe  Fe0  1  0.64228200  0.15685000  0.52198800  1
  Fe  Fe1  1  0.14228200  0.84315000  0.97801200  1
  Fe  Fe2  1  0.35771800  0.84315000  0.47801200  1
  Fe  Fe3  1  0.85771800  0.15685000  0.02198800  1
  H  H0  1  0.73105400  0.51677400  0.51995400  1
  H  H1  1  0.23105400  0.48322600  0.98004600  1
  H  H2  1  0.26894600  0.48322600  0.48004600  1
  H  H3  1  0.76894600  0.51677400  0.01995400  1
  H  H4  1  0.57736600  0.48048200  0.63117000  1
  H  H5  1  0.07736600  0.51951800  0.86883000  1
  H  H6  1  0.42263400  0.51951800  0.36883000  1
  H  H7  1  0.92263400  0.48048200  0.13117000  1
  H  H8  1  0.51524700  0.68168900  0.75314900  1
  H  H9  1  0.01524700  0.31831100  0.74685100  1
  H  H10  1  0.48475300  0.31831100  0.24685100  1
  H  H11  1  0.98475300  0.68168900  0.25314900  1
  H  H12  1  0.32836500  0.61876000  0.75200200  1
  H  H13  1  0.82836500  0.38124000  0.74799800  1
  H  H14  1  0.67163500  0.38124000  0.24799800  1
  H  H15  1  0.17163500  0.61876000  0.25200200  1
  H  H16  1  0.57761800  0.15000800  0.87718200  1
  H  H17  1  0.07761800  0.84999200  0.62281800  1
  H  H18  1  0.42238200  0.84999200  0.12281800  1
  H  H19  1  0.92238200  0.15000800  0.37718200  1
  H  H20  1  0.50501300  0.23565400  0.00825900  1
  H  H21  1  0.00501300  0.76434600  0.49174100  1
  H  H22  1  0.49498700  0.76434600  0.99174100  1
  H  H23  1  0.99498700  0.23565400  0.50825900  1
  S  S0  1  0.29114600  0.15231700  0.68812300  1
  S  S1  1  0.79114600  0.84768300  0.81187700  1
  S  S2  1  0.70885400  0.84768300  0.31187700  1
  S  S3  1  0.20885400  0.15231700  0.18812300  1
  O  O0  1  0.38034900  0.09874000  0.55449600  1
  O  O1  1  0.88034900  0.90126000  0.94550400  1
  O  O2  1  0.61965100  0.90126000  0.44550400  1
  O  O3  1  0.11965100  0.09874000  0.05449600  1
  O  O4  1  0.68549900  0.01975700  0.74256500  1
  O  O5  1  0.18549900  0.98024300  0.75743500  1
  O  O6  1  0.31450100  0.98024300  0.25743500  1
  O  O7  1  0.81450100  0.01975700  0.24256500  1
  O  O8  1  0.66275900  0.69820600  0.88679700  1
  O  O9  1  0.16275900  0.30179400  0.61320300  1
  O  O10  1  0.33724100  0.30179400  0.11320300  1
  O  O11  1  0.83724100  0.69820600  0.38679700  1
  O  O12  1  0.67564400  0.41961200  0.59922800  1
  O  O13  1  0.17564400  0.58038800  0.90077200  1
  O  O14  1  0.32435600  0.58038800  0.40077200  1
  O  O15  1  0.82435600  0.41961200  0.09922800  1
  O  O16  1  0.42777300  0.64853200  0.68708500  1
  O  O17  1  0.92777300  0.35146800  0.81291500  1
  O  O18  1  0.57222700  0.35146800  0.31291500  1
  O  O19  1  0.07222700  0.64853200  0.18708500  1
  O  O20  1  0.60688300  0.21549900  0.95367800  1
  O  O21  1  0.10688300  0.78450100  0.54632200  1
  O  O22  1  0.39311700  0.78450100  0.04632200  1
  O  O23  1  0.89311700  0.21549900  0.45367800  1
loop_
_geom_bond_atom_site_label_1
_geom_bond_atom_site_label_2
_geom_bond_distance
_geom_bond_site_symmetry_2
Fe0 O4 2.086239 1_555
Fe0 O23 2.126055 1_555
Fe0 O0 2.154667 1_555
Fe0 O2 2.192375 1_545
Fe0 O18 2.194204 1_555
Fe0 O12 2.255145 1_555
Fe1 O5 2.086239 1_555
Fe1 O22 2.126055 1_556
Fe1 O1 2.154667 1_455
Fe1 O3 2.192375 1_566
Fe1 O19 2.194204 1_556
Fe1 O13 2.255145 1_555
Fe2 O6 2.086239 1_555
Fe2 O21 2.126055 1_555
Fe2 O2 2.154667 1_555
Fe2 O0 2.192375 1_565
Fe2 O16 2.194204 1_555
Fe2 O14 2.255145 1_555
Fe3 O7 2.086239 1_555
Fe3 O20 2.126055 1_554
Fe3 O3 2.154667 1_655
Fe3 O1 2.192375 1_544
Fe3 O17 2.194204 1_554
Fe3 O15 2.255145 1_555
H0 O12 1.000911 1_555
H1 O13 1.000911 1_555
H2 O14 1.000911 1_555
H3 O15 1.000911 1_555
H4 O12 0.991230 1_555
H5 O13 0.991230 1_555
H6 O14 0.991230 1_555
H7 O15 0.991230 1_555
H8 O16 1.004149 1_555
H9 O17 1.004149 1_455
H10 O18 1.004149 1_555
H11 O19 1.004149 1_655
H12 O16 0.993487 1_555
H13 O17 0.993487 1_555
H14 O18 0.993487 1_555
H15 O19 0.993487 1_555
H16 O20 0.985208 1_555
H17 O21 0.985208 1_555
H18 O22 0.985208 1_555
H19 O23 0.985208 1_555
H20 O20 0.994278 1_554
H21 O21 0.994278 1_555
H22 O22 0.994278 1_556
H23 O23 0.994278 1_555
O0 S0 1.570657 1_555
O1 S1 1.570657 1_555
O2 S2 1.570657 1_555
O3 S3 1.570657 1_555
O4 S1 1.537156 1_545
O5 S0 1.537156 1_565
O6 S3 1.537156 1_565
O7 S2 1.537156 1_545
O8 S1 1.549565 1_555
O9 S0 1.549565 1_555
O10 S3 1.549565 1_555
O11 S2 1.549565 1_555
