# generated using pymatgen
data_Li2Mn3(BO3)3
_symmetry_space_group_name_H-M   'P 1'
_cell_length_a   6.30606600
_cell_length_b   8.28207009
_cell_length_c   8.71972517
_cell_angle_alpha   117.36793488
_cell_angle_beta   110.20622865
_cell_angle_gamma   91.06178783
_symmetry_Int_Tables_number   1
_chemical_formula_structural   Li2Mn3(BO3)3
_chemical_formula_sum   'Li4 Mn6 B6 O18'
_cell_volume   370.85497977
_cell_formula_units_Z   2
loop_
 _symmetry_equiv_pos_site_id
 _symmetry_equiv_pos_as_xyz
  1  'x, y, z'
loop_
 _atom_site_type_symbol
 _atom_site_label
 _atom_site_symmetry_multiplicity
 _atom_site_fract_x
 _atom_site_fract_y
 _atom_site_fract_z
 _atom_site_occupancy
  Li  Li0  1  0.40640500  0.29712500  0.28092600  1
  Li  Li1  1  0.10890600  0.97450300  0.68933400  1
  Li  Li2  1  0.58718200  0.98857300  0.69466000  1
  Li  Li3  1  0.28287000  0.72091100  0.02057900  1
  Mn  Mn0  1  0.15678400  0.00317800  0.33099400  1
  Mn  Mn1  1  0.68811900  0.01194500  0.37035800  1
  Mn  Mn2  1  0.99661600  0.35286800  0.00597100  1
  Mn  Mn3  1  0.50183800  0.37666000  0.99714400  1
  Mn  Mn4  1  0.30382400  0.60393900  0.62250700  1
  Mn  Mn5  1  0.84431500  0.65865100  0.69988700  1
  B  B0  1  0.00538700  0.00075700  0.98798200  1
  B  B1  1  0.48969000  0.99896100  0.98742200  1
  B  B2  1  0.10835100  0.32819700  0.67526100  1
  B  B3  1  0.57199800  0.33220100  0.65898100  1
  B  B4  1  0.91505500  0.66722100  0.35081800  1
  B  B5  1  0.40235300  0.67206000  0.33471200  1
  O  O0  1  0.18354400  0.25694100  0.79922100  1
  O  O1  1  0.64776100  0.26756400  0.78615800  1
  O  O2  1  0.99762300  0.21233900  0.48767700  1
  O  O3  1  0.48473200  0.21496200  0.46787200  1
  O  O4  1  0.08211000  0.18481600  0.12198400  1
  O  O5  1  0.52979100  0.19271000  0.08224000  1
  O  O6  1  0.15314600  0.52307400  0.75328400  1
  O  O7  1  0.58472000  0.52437800  0.73171400  1
  O  O8  1  0.43737100  0.58352700  0.44131000  1
  O  O9  1  0.98788300  0.61643500  0.48973700  1
  O  O10  1  0.81151900  0.53175400  0.16168300  1
  O  O11  1  0.32304500  0.55955800  0.13947900  1
  O  O12  1  0.39925000  0.89895700  0.79099200  1
  O  O13  1  0.89260900  0.94386100  0.79611400  1
  O  O14  1  0.44369000  0.86193800  0.41384600  1
  O  O15  1  0.95071000  0.85255700  0.40404100  1
  O  O16  1  0.03918600  0.86125700  0.03550300  1
  O  O17  1  0.53164000  0.90924000  0.08965700  1
loop_
_geom_bond_atom_site_label_1
_geom_bond_atom_site_label_2
_geom_bond_distance
_geom_bond_site_symmetry_2
Li0 O4 1.937648 1_555
Li0 O3 1.959697 1_555
Li0 O5 1.983290 1_555
Li0 O8 2.089167 1_555
Li1 O13 1.968126 1_455
Li1 O12 1.990162 1_555
Li1 O15 2.035212 1_455
Li1 O0 2.048977 1_565
Li2 O13 1.944213 1_555
Li2 O12 1.972110 1_555
Li2 O14 1.996900 1_555
Li2 O1 2.045305 1_565
Li3 O17 1.910348 1_555
Li3 O16 1.947995 1_555
Li3 O6 1.976942 1_554
Li3 O11 2.007437 1_555
Mn0 O16 2.105627 1_545
Mn0 O2 2.170373 1_455
Mn0 O15 2.211974 1_445
Mn0 O3 2.239121 1_555
Mn0 O14 2.261885 1_545
Mn1 O17 2.018519 1_545
Mn1 O2 2.133087 1_555
Mn1 O15 2.161571 1_545
Mn1 O3 2.171158 1_555
Mn1 O14 2.197518 1_545
Mn2 O4 2.048587 1_655
Mn2 O10 2.170337 1_555
Mn2 O1 2.190219 1_554
Mn2 O11 2.214656 1_655
Mn2 O0 2.335958 1_654
Mn3 O10 1.949161 1_556
Mn3 O5 1.965097 1_556
Mn3 O0 1.987556 1_555
Mn3 O11 2.099428 1_556
Mn3 O1 2.172505 1_555
Mn4 O9 1.960836 1_455
Mn4 O8 1.978142 1_555
Mn4 O7 1.983327 1_555
Mn4 O6 2.019617 1_555
Mn4 O12 2.127194 1_555
Mn5 O13 2.085905 1_555
Mn5 O7 2.126889 1_555
Mn5 O9 2.206467 1_555
Mn5 O6 2.281603 1_655
Mn5 O16 2.411327 1_656
Mn5 O8 2.590432 1_555
B0 O4 1.366620 1_556
B0 O16 1.392923 1_546
B0 O13 1.402745 1_445
B1 O17 1.367573 1_556
B1 O5 1.393973 1_566
B1 O12 1.395843 1_555
B2 O2 1.351634 1_455
B2 O0 1.408632 1_555
B2 O6 1.410102 1_555
B3 O3 1.371729 1_555
B3 O1 1.390644 1_555
B3 O7 1.404982 1_555
B4 O15 1.371944 1_555
B4 O10 1.390233 1_555
B4 O9 1.395157 1_555
B5 O14 1.371126 1_555
B5 O8 1.393272 1_555
B5 O11 1.397356 1_555
