# generated using pymatgen
data_Ce2TiO5
_symmetry_space_group_name_H-M   'P 1'
_cell_length_a   3.87397687
_cell_length_b   10.82381768
_cell_length_c   11.44536998
_cell_angle_alpha   90.02188381
_cell_angle_beta   90.00000000
_cell_angle_gamma   90.00000000
_symmetry_Int_Tables_number   1
_chemical_formula_structural   Ce2TiO5
_chemical_formula_sum   'Ce8 Ti4 O20'
_cell_volume   479.91828375
_cell_formula_units_Z   4
loop_
 _symmetry_equiv_pos_site_id
 _symmetry_equiv_pos_as_xyz
  1  'x, y, z'
loop_
 _atom_site_type_symbol
 _atom_site_label
 _atom_site_symmetry_multiplicity
 _atom_site_fract_x
 _atom_site_fract_y
 _atom_site_fract_z
 _atom_site_occupancy
  Ce  Ce0  1  0.25000000  0.10215051  0.28061832  1
  Ce  Ce1  1  0.25000000  0.13698924  0.94048798  1
  Ce  Ce2  1  0.75000000  0.36260397  0.44065487  1
  Ce  Ce3  1  0.75000000  0.39773749  0.78137394  1
  Ce  Ce4  1  0.25000000  0.60226251  0.21862606  1
  Ce  Ce5  1  0.25000000  0.63739603  0.55934513  1
  Ce  Ce6  1  0.75000000  0.86301076  0.05951202  1
  Ce  Ce7  1  0.75000000  0.89784949  0.71938168  1
  Ti  Ti0  1  0.25000000  0.18644858  0.62473675  1
  Ti  Ti1  1  0.75000000  0.31334513  0.12415723  1
  Ti  Ti2  1  0.25000000  0.68665487  0.87584277  1
  Ti  Ti3  1  0.75000000  0.81355142  0.37526325  1
  O  O0  1  0.75000000  0.00699241  0.89678840  1
  O  O1  1  0.25000000  0.02665222  0.66419996  1
  O  O2  1  0.25000000  0.22539444  0.46220995  1
  O  O3  1  0.75000000  0.23378146  0.62079365  1
  O  O4  1  0.75000000  0.22847117  0.27004095  1
  O  O5  1  0.25000000  0.27145552  0.77064259  1
  O  O6  1  0.25000000  0.26569784  0.12009466  1
  O  O7  1  0.75000000  0.27390737  0.96185549  1
  O  O8  1  0.75000000  0.47337154  0.16267006  1
  O  O9  1  0.25000000  0.49305272  0.39630654  1
  O  O10  1  0.75000000  0.50694728  0.60369346  1
  O  O11  1  0.25000000  0.52662846  0.83732994  1
  O  O12  1  0.25000000  0.72609263  0.03814451  1
  O  O13  1  0.75000000  0.73430216  0.87990534  1
  O  O14  1  0.75000000  0.72854448  0.22935741  1
  O  O15  1  0.25000000  0.77152883  0.72995905  1
  O  O16  1  0.25000000  0.76621854  0.37920635  1
  O  O17  1  0.75000000  0.77460556  0.53779005  1
  O  O18  1  0.75000000  0.97334778  0.33580004  1
  O  O19  1  0.25000000  0.99300759  0.10321160  1
loop_
_geom_bond_atom_site_label_1
_geom_bond_atom_site_label_2
_geom_bond_distance
_geom_bond_site_symmetry_2
Ce0 O19 2.348747 1_545
Ce0 O4 2.374055 1_555
Ce0 O4 2.374055 1_455
Ce0 O18 2.468826 1_445
Ce0 O18 2.468826 1_545
Ce0 O2 2.469218 1_555
Ce0 O6 2.551786 1_555
Ce1 O5 2.428864 1_555
Ce1 O19 2.428905 1_546
Ce1 O0 2.445684 1_555
Ce1 O0 2.445684 1_455
Ce1 O7 2.451063 1_555
Ce1 O7 2.451063 1_455
Ce1 O6 2.482811 1_556
Ce2 O4 2.432865 1_555
Ce2 O10 2.433268 1_555
Ce2 O9 2.450250 1_555
Ce2 O9 2.450250 1_655
Ce2 O2 2.453300 1_555
Ce2 O2 2.453300 1_655
Ce2 O3 2.489427 1_555
Ce3 O10 2.352599 1_555
Ce3 O5 2.373851 1_655
Ce3 O5 2.373851 1_555
Ce3 O7 2.462841 1_555
Ce3 O11 2.471373 1_655
Ce3 O11 2.471373 1_555
Ce3 O3 2.554349 1_555
Ce4 O9 2.352599 1_555
Ce4 O14 2.373851 1_555
Ce4 O14 2.373851 1_455
Ce4 O12 2.462841 1_555
Ce4 O8 2.471373 1_455
Ce4 O8 2.471373 1_555
Ce4 O16 2.554349 1_555
Ce5 O15 2.432865 1_555
Ce5 O9 2.433268 1_555
Ce5 O10 2.450250 1_455
Ce5 O10 2.450250 1_555
Ce5 O17 2.453300 1_555
Ce5 O17 2.453300 1_455
Ce5 O16 2.489427 1_555
Ce6 O14 2.428864 1_555
Ce6 O0 2.428905 1_564
Ce6 O19 2.445684 1_655
Ce6 O19 2.445684 1_555
Ce6 O12 2.451063 1_555
Ce6 O12 2.451063 1_655
Ce6 O13 2.482811 1_554
Ce7 O0 2.348747 1_565
Ce7 O15 2.374055 1_555
Ce7 O15 2.374055 1_655
Ce7 O1 2.468826 1_565
Ce7 O1 2.468826 1_665
Ce7 O17 2.469218 1_555
Ce7 O13 2.551786 1_555
O1 Ti0 1.787776 1_555
O2 Ti0 1.907502 1_555
O3 Ti0 2.004109 1_655
O3 Ti0 2.004109 1_555
O4 Ti1 1.906039 1_555
O5 Ti0 1.906340 1_555
O6 Ti1 2.005004 1_455
O6 Ti1 2.005004 1_555
O7 Ti1 1.905860 1_556
O8 Ti1 1.787141 1_555
O11 Ti2 1.787141 1_555
O12 Ti2 1.905860 1_554
O13 Ti2 2.005004 1_655
O13 Ti2 2.005004 1_555
O14 Ti3 1.906340 1_555
O15 Ti2 1.906039 1_555
O16 Ti3 2.004109 1_555
O16 Ti3 2.004109 1_455
O17 Ti3 1.907502 1_555
O18 Ti3 1.787776 1_555
