# generated using pymatgen
data_AsC6NF4
_symmetry_space_group_name_H-M   'P 1'
_cell_length_a   7.54884900
_cell_length_b   10.52741500
_cell_length_c   11.77591170
_cell_angle_alpha   84.73816101
_cell_angle_beta   90.00000000
_cell_angle_gamma   90.00000000
_symmetry_Int_Tables_number   1
_chemical_formula_structural   AsC6NF4
_chemical_formula_sum   'As4 C24 N4 F16'
_cell_volume   931.88653833
_cell_formula_units_Z   4
loop_
 _symmetry_equiv_pos_site_id
 _symmetry_equiv_pos_as_xyz
  1  'x, y, z'
loop_
 _atom_site_type_symbol
 _atom_site_label
 _atom_site_symmetry_multiplicity
 _atom_site_fract_x
 _atom_site_fract_y
 _atom_site_fract_z
 _atom_site_occupancy
  As  As0  1  0.58312900  0.00871100  0.16186600  1
  As  As1  1  0.08312900  0.49128900  0.83813400  1
  As  As2  1  0.41687100  0.99128900  0.83813400  1
  As  As3  1  0.91687100  0.50871100  0.16186600  1
  C  C0  1  0.76990800  0.92430700  0.27228400  1
  C  C1  1  0.26990800  0.57569300  0.72771600  1
  C  C2  1  0.23009200  0.07569300  0.72771600  1
  C  C3  1  0.73009200  0.42430700  0.27228400  1
  C  C4  1  0.46098300  0.07296800  0.28158300  1
  C  C5  1  0.96098300  0.42703200  0.71841700  1
  C  C6  1  0.53901700  0.92703200  0.71841700  1
  C  C7  1  0.03901700  0.57296800  0.28158300  1
  C  C8  1  0.26445300  0.22938700  0.34129400  1
  C  C9  1  0.76445300  0.27061300  0.65870600  1
  C  C10  1  0.73554700  0.77061300  0.65870600  1
  C  C11  1  0.23554700  0.72938700  0.34129400  1
  C  C12  1  0.25588500  0.31634500  0.40977600  1
  C  C13  1  0.75588500  0.18365500  0.59022400  1
  C  C14  1  0.74411500  0.68365500  0.59022400  1
  C  C15  1  0.24411500  0.81634500  0.40977600  1
  C  C16  1  0.23135400  0.15836800  0.15915600  1
  C  C17  1  0.73135400  0.34163200  0.84084400  1
  C  C18  1  0.76864600  0.84163200  0.84084400  1
  C  C19  1  0.26864600  0.65836800  0.15915600  1
  C  C20  1  0.14087200  0.15786000  0.06809800  1
  C  C21  1  0.64087200  0.34214000  0.93190200  1
  C  C22  1  0.85912800  0.84214000  0.93190200  1
  C  C23  1  0.35912800  0.65786000  0.06809800  1
  N  N0  1  0.31268600  0.15492600  0.26061200  1
  N  N1  1  0.81268600  0.34507400  0.73938800  1
  N  N2  1  0.68731400  0.84507400  0.73938800  1
  N  N3  1  0.18731400  0.65492600  0.26061200  1
  F  F0  1  0.85471900  0.00944600  0.33266800  1
  F  F1  1  0.35471900  0.49055400  0.66733200  1
  F  F2  1  0.14528100  0.99055400  0.66733200  1
  F  F3  1  0.64528100  0.50944600  0.33266800  1
  F  F4  1  0.89370400  0.86768800  0.20943300  1
  F  F5  1  0.39370400  0.63231200  0.79056700  1
  F  F6  1  0.10629600  0.13231200  0.79056700  1
  F  F7  1  0.60629600  0.36768800  0.20943300  1
  F  F8  1  0.69639900  0.83237800  0.34571000  1
  F  F9  1  0.19639900  0.66762200  0.65429000  1
  F  F10  1  0.30360100  0.16762200  0.65429000  1
  F  F11  1  0.80360100  0.33237800  0.34571000  1
  F  F12  1  0.50789400  0.06250800  0.38973000  1
  F  F13  1  0.00789400  0.43749200  0.61027000  1
  F  F14  1  0.49210600  0.93749200  0.61027000  1
  F  F15  1  0.99210600  0.56250800  0.38973000  1
loop_
_geom_bond_atom_site_label_1
_geom_bond_atom_site_label_2
_geom_bond_distance
_geom_bond_site_symmetry_2
As0 C4 1.862842 1_555
As0 C0 2.063089 1_545
As1 C5 1.862842 1_455
As1 C1 2.063089 1_555
As2 C6 1.862842 1_555
As2 C2 2.063089 1_565
As3 C7 1.862842 1_655
As3 C3 2.063089 1_555
C0 F0 1.354901 1_565
C0 F8 1.355974 1_555
C0 F4 1.362829 1_555
C1 F1 1.354901 1_555
C1 F9 1.355974 1_555
C1 F5 1.362829 1_555
C2 F2 1.354901 1_545
C2 F10 1.355974 1_555
C2 F6 1.362829 1_555
C3 F3 1.354901 1_555
C3 F11 1.355974 1_555
C3 F7 1.362829 1_555
C4 F12 1.316695 1_555
C4 N0 1.421111 1_555
C5 F13 1.316695 1_655
C5 N1 1.421111 1_555
C6 F14 1.316695 1_555
C6 N2 1.421111 1_555
C7 F15 1.316695 1_455
C7 N3 1.421111 1_555
C8 N0 1.336541 1_555
C9 N1 1.336541 1_555
C10 C14 1.275918 1_555
C10 N2 1.336541 1_555
C11 C15 1.275918 1_555
C11 N3 1.336541 1_555
C12 C8 1.275918 1_555
C13 C9 1.275918 1_555
C16 C20 1.271780 1_555
C16 N0 1.340791 1_555
C17 C21 1.271780 1_555
C17 N1 1.340791 1_555
C18 C22 1.271780 1_555
C18 N2 1.340791 1_555
C19 C23 1.271780 1_555
C19 N3 1.340791 1_555
