# generated using pymatgen
data_RbLiF2
_symmetry_space_group_name_H-M   'P 1'
_cell_length_a   6.24092878
_cell_length_b   6.24092878
_cell_length_c   7.78676897
_cell_angle_alpha   87.14777965
_cell_angle_beta   87.14777965
_cell_angle_gamma   124.97890620
_symmetry_Int_Tables_number   1
_chemical_formula_structural   RbLiF2
_chemical_formula_sum   'Rb4 Li4 F8'
_cell_volume   247.05716347
_cell_formula_units_Z   4
loop_
 _symmetry_equiv_pos_site_id
 _symmetry_equiv_pos_as_xyz
  1  'x, y, z'
loop_
 _atom_site_type_symbol
 _atom_site_label
 _atom_site_symmetry_multiplicity
 _atom_site_fract_x
 _atom_site_fract_y
 _atom_site_fract_z
 _atom_site_occupancy
  Rb  Rb0  1  0.14108323  0.32301687  0.56822507  1
  Rb  Rb1  1  0.67698313  0.85891677  0.93177493  1
  Rb  Rb2  1  0.85891677  0.67698313  0.43177493  1
  Rb  Rb3  1  0.32301687  0.14108323  0.06822507  1
  Li  Li0  1  0.04352676  0.44126861  0.13945163  1
  Li  Li1  1  0.95647324  0.55873139  0.86054837  1
  Li  Li2  1  0.44126861  0.04352676  0.63945163  1
  Li  Li3  1  0.55873139  0.95647324  0.36054837  1
  F  F0  1  0.88574395  0.11425605  0.25000000  1
  F  F1  1  0.68781699  0.31218301  0.75000000  1
  F  F2  1  0.11425605  0.88574395  0.75000000  1
  F  F3  1  0.31218301  0.68781699  0.25000000  1
  F  F4  1  0.43095950  0.15240514  0.41653433  1
  F  F5  1  0.84759486  0.56904050  0.08346567  1
  F  F6  1  0.56904050  0.84759486  0.58346567  1
  F  F7  1  0.15240514  0.43095950  0.91653433  1
loop_
_geom_bond_atom_site_label_1
_geom_bond_atom_site_label_2
_geom_bond_distance
_geom_bond_site_symmetry_2
F0 Li3 1.820001 1_545
F0 Li0 1.820001 1_655
F0 Rb2 2.923528 1_545
F0 Rb3 2.923528 1_655
F0 Rb0 2.951424 1_655
F0 Rb1 2.951424 1_544
F1 Li2 1.799245 1_555
F1 Li1 1.799245 1_555
F1 Rb2 2.975168 1_555
F1 Rb3 2.975168 1_556
F1 Rb0 3.063146 1_655
F1 Rb1 3.063146 1_545
F2 Li1 1.820001 1_455
F2 Li2 1.820001 1_565
F2 Rb1 2.923528 1_455
F2 Rb0 2.923528 1_565
F2 Rb2 2.951424 1_455
F2 Rb3 2.951424 1_566
F3 Li0 1.799245 1_555
F3 Li3 1.799245 1_555
F3 Rb0 2.975168 1_555
F3 Rb1 2.975168 1_554
F3 Rb2 3.063146 1_455
F3 Rb3 3.063146 1_565
F4 Li2 1.850065 1_555
F4 Li3 1.859458 1_545
F4 Rb2 2.812553 1_555
F4 Rb0 2.814756 1_555
F4 Rb3 2.821559 1_555
F4 Rb2 3.056276 1_445
F5 Li1 1.850065 1_554
F5 Li0 1.859458 1_655
F5 Rb3 2.812553 1_555
F5 Rb1 2.814756 1_554
F5 Rb2 2.821559 1_555
F5 Rb3 3.056276 1_665
F6 Li3 1.850065 1_555
F6 Li2 1.859458 1_565
F6 Rb0 2.812553 1_555
F6 Rb2 2.814756 1_555
F6 Rb1 2.821559 1_555
F6 Rb0 3.056276 1_665
F7 Li0 1.850065 1_556
F7 Li1 1.859458 1_455
F7 Rb1 2.812553 1_555
F7 Rb3 2.814756 1_556
F7 Rb0 2.821559 1_555
F7 Rb1 3.056276 1_445
