# generated using pymatgen
data_Li2Co2Si2O7
_symmetry_space_group_name_H-M   'P 1'
_cell_length_a   4.88123333
_cell_length_b   13.20079840
_cell_length_c   4.87907357
_cell_angle_alpha   90.01087035
_cell_angle_beta   62.71038109
_cell_angle_gamma   89.98180387
_symmetry_Int_Tables_number   1
_chemical_formula_structural   Li2Co2Si2O7
_chemical_formula_sum   'Li4 Co4 Si4 O14'
_cell_volume   279.39743609
_cell_formula_units_Z   2
loop_
 _symmetry_equiv_pos_site_id
 _symmetry_equiv_pos_as_xyz
  1  'x, y, z'
loop_
 _atom_site_type_symbol
 _atom_site_label
 _atom_site_symmetry_multiplicity
 _atom_site_fract_x
 _atom_site_fract_y
 _atom_site_fract_z
 _atom_site_occupancy
  Li  Li0  1  0.25196200  0.58376400  0.34436900  1
  Li  Li1  1  0.25210200  0.91625500  0.34425200  1
  Li  Li2  1  0.65579400  0.08375700  0.74777100  1
  Li  Li3  1  0.65564300  0.41620300  0.74805300  1
  Co  Co0  1  0.97229300  0.00006100  0.02754900  1
  Co  Co1  1  0.97203200  0.49992700  0.02794500  1
  Co  Co2  1  0.99062100  0.75001200  0.00770400  1
  Co  Co3  1  0.99295700  0.24995700  0.00946800  1
  Si  Si0  1  0.30241900  0.13699300  0.39673300  1
  Si  Si1  1  0.30228800  0.36302400  0.39703800  1
  Si  Si2  1  0.60298000  0.63685800  0.69761900  1
  Si  Si3  1  0.60310200  0.86311600  0.69751500  1
  O  O0  1  0.14721500  0.25002000  0.37083500  1
  O  O1  1  0.62934400  0.75001200  0.85267600  1
  O  O2  1  0.66262900  0.13603100  0.13420100  1
  O  O3  1  0.66256800  0.36402400  0.13462300  1
  O  O4  1  0.86587500  0.86405600  0.33671300  1
  O  O5  1  0.86573700  0.63589400  0.33677500  1
  O  O6  1  0.25264400  0.87036400  0.72816300  1
  O  O7  1  0.25257600  0.62965800  0.72819400  1
  O  O8  1  0.27197600  0.37026600  0.74745000  1
  O  O9  1  0.27215700  0.12968700  0.74709700  1
  O  O10  1  0.07633200  0.05256300  0.36888500  1
  O  O11  1  0.07622000  0.44748800  0.36927200  1
  O  O12  1  0.63106200  0.55252200  0.92371500  1
  O  O13  1  0.63126400  0.94748700  0.92359300  1
loop_
_geom_bond_atom_site_label_1
_geom_bond_atom_site_label_2
_geom_bond_distance
_geom_bond_site_symmetry_2
Li0 O7 1.969469 1_555
Li0 O11 1.972907 1_555
Li0 O5 2.022957 1_455
Li0 O12 2.079253 1_554
Li1 O6 1.969921 1_555
Li1 O10 1.972991 1_565
Li1 O4 2.023560 1_455
Li1 O13 2.079761 1_554
Li2 O9 1.969585 1_555
Li2 O13 1.972997 1_545
Li2 O2 2.022203 1_556
Li2 O10 2.078507 1_655
Li3 O8 1.969967 1_555
Li3 O12 1.972869 1_555
Li3 O3 2.022850 1_556
Li3 O11 2.079029 1_655
Co0 O13 2.069971 1_544
Co0 O10 2.070540 1_655
Co0 O4 2.247596 1_545
Co0 O2 2.248093 1_555
Co0 O6 2.258822 1_644
Co0 O9 2.260266 1_654
Co1 O12 2.070331 1_554
Co1 O11 2.070772 1_655
Co1 O5 2.245600 1_555
Co1 O3 2.247748 1_555
Co1 O8 2.259728 1_654
Co1 O7 2.261190 1_654
Co2 O4 2.077563 1_555
Co2 O5 2.079144 1_555
Co2 O7 2.101872 1_654
Co2 O6 2.103016 1_654
Co2 O1 2.214751 1_554
Co3 O2 2.081841 1_555
Co3 O3 2.082342 1_555
Co3 O9 2.101145 1_654
Co3 O8 2.101692 1_654
Co3 O0 2.212008 1_655
O0 Si0 1.703890 1_555
O0 Si1 1.704111 1_555
O1 Si3 1.705282 1_555
O1 Si2 1.705603 1_555
O2 Si0 1.633151 1_555
O3 Si1 1.633247 1_555
O4 Si3 1.635181 1_555
O5 Si2 1.635296 1_555
O6 Si3 1.650219 1_555
O7 Si2 1.650123 1_555
O8 Si1 1.649856 1_555
O9 Si0 1.649809 1_555
O10 Si0 1.617648 1_555
O11 Si1 1.617284 1_555
O12 Si2 1.616841 1_555
O13 Si3 1.617023 1_555
