# generated using pymatgen
data_Li6CoNiP2(CO7)2
_symmetry_space_group_name_H-M   'P 1'
_cell_length_a   8.14477746
_cell_length_b   8.14479721
_cell_length_c   9.35014783
_cell_angle_alpha   74.23523466
_cell_angle_beta   105.76437253
_cell_angle_gamma   75.61643510
_symmetry_Int_Tables_number   1
_chemical_formula_structural   Li6CoNiP2(CO7)2
_chemical_formula_sum   'Li12 Co2 Ni2 P4 C4 O28'
_cell_volume   538.59443666
_cell_formula_units_Z   2
loop_
 _symmetry_equiv_pos_site_id
 _symmetry_equiv_pos_as_xyz
  1  'x, y, z'
loop_
 _atom_site_type_symbol
 _atom_site_label
 _atom_site_symmetry_multiplicity
 _atom_site_fract_x
 _atom_site_fract_y
 _atom_site_fract_z
 _atom_site_occupancy
  Li  Li0  1  0.57152900  0.67848100  0.10409900  1
  Li  Li1  1  0.07140400  0.17858600  0.10398400  1
  Li  Li2  1  0.92865200  0.82128700  0.89559000  1
  Li  Li3  1  0.42871700  0.32134000  0.89558600  1
  Li  Li4  1  0.27799300  0.73933800  0.27441200  1
  Li  Li5  1  0.77797400  0.23932300  0.27447400  1
  Li  Li6  1  0.51066300  0.97200200  0.27441600  1
  Li  Li7  1  0.01067600  0.47203300  0.27447600  1
  Li  Li8  1  0.98794500  0.52708900  0.72651300  1
  Li  Li9  1  0.48782800  0.02707200  0.72647700  1
  Li  Li10  1  0.22292600  0.76215000  0.72646900  1
  Li  Li11  1  0.72292500  0.26205400  0.72652100  1
  Co  Co0  1  0.06444500  0.18555000  0.66707300  1
  Co  Co1  1  0.56449600  0.68550200  0.66699100  1
  Ni  Ni0  1  0.93734300  0.81273800  0.33195700  1
  Ni  Ni1  1  0.43727000  0.31266800  0.33193000  1
  P  P0  1  0.69546100  0.55454200  0.41155500  1
  P  P1  1  0.19544600  0.05455600  0.41152500  1
  P  P2  1  0.80234800  0.94767100  0.58623400  1
  P  P3  1  0.30232800  0.44765200  0.58622900  1
  C  C0  1  0.73851400  0.01144400  0.04180300  1
  C  C1  1  0.23855700  0.51148900  0.04180000  1
  C  C2  1  0.76331200  0.48668400  0.96037900  1
  C  C3  1  0.26333400  0.98666500  0.96032800  1
  O  O0  1  0.87800300  0.87193400  0.07110500  1
  O  O1  1  0.37806500  0.37199600  0.07109900  1
  O  O2  1  0.37011800  0.87988000  0.10436200  1
  O  O3  1  0.87007300  0.37993000  0.10441900  1
  O  O4  1  0.70872300  0.04126300  0.16469900  1
  O  O5  1  0.20874700  0.54127800  0.16469900  1
  O  O6  1  0.66656000  0.08343800  0.42109100  1
  O  O7  1  0.16656000  0.58344600  0.42109200  1
  O  O8  1  0.54877600  0.70122400  0.43306700  1
  O  O9  1  0.04878300  0.20121400  0.43308500  1
  O  O10  1  0.94788100  0.80219900  0.56266900  1
  O  O11  1  0.44780100  0.30212600  0.56266100  1
  O  O12  1  0.83022600  0.41977500  0.57773400  1
  O  O13  1  0.33023500  0.91975800  0.57764900  1
  O  O14  1  0.79400000  0.45598700  0.83783500  1
  O  O15  1  0.29395700  0.95606800  0.83773400  1
  O  O16  1  0.13149900  0.61856300  0.89771900  1
  O  O17  1  0.63144100  0.11849900  0.89772000  1
  O  O18  1  0.62394100  0.62606200  0.93058900  1
  O  O19  1  0.12395000  0.12602000  0.93059400  1
  O  O20  1  0.60183000  0.46047900  0.30640100  1
  O  O21  1  0.10178400  0.96054900  0.30630200  1
  O  O22  1  0.78952100  0.64817900  0.30640300  1
  O  O23  1  0.28945700  0.14821500  0.30630400  1
  O  O24  1  0.89757600  0.03959900  0.69303900  1
  O  O25  1  0.39757500  0.53956200  0.69303900  1
  O  O26  1  0.71043700  0.85242100  0.69303800  1
  O  O27  1  0.21040100  0.35241900  0.69303500  1
loop_
_geom_bond_atom_site_label_1
_geom_bond_atom_site_label_2
_geom_bond_distance
_geom_bond_site_symmetry_2
Li0 O18 1.912757 1_554
Li0 O2 2.012289 1_555
Li0 O22 2.120162 1_555
Li0 O20 2.120193 1_555
Li1 O19 1.912581 1_554
Li1 O3 2.012330 1_455
Li1 O21 2.120234 1_545
Li1 O23 2.120350 1_555
Li2 O0 1.919551 1_556
Li2 O16 2.016241 1_655
Li2 O26 2.120404 1_555
Li2 O24 2.120995 1_565
Li3 O1 1.919571 1_556
Li3 O17 2.016190 1_555
Li3 O25 2.120378 1_555
Li3 O27 2.121012 1_555
Li4 O2 2.118347 1_555
Li4 O7 2.149304 1_555
Li4 O21 2.152814 1_555
Li4 O8 2.189286 1_555
Li4 O5 2.238201 1_555
Li5 O3 2.118458 1_555
Li5 O6 2.148811 1_555
Li5 O20 2.152423 1_555
Li5 O9 2.189314 1_655
Li5 O4 2.238553 1_555
Li6 O2 2.118376 1_555
Li6 O6 2.149325 1_565
Li6 O23 2.152789 1_565
Li6 O8 2.189238 1_555
Li6 O4 2.238251 1_565
Li7 O3 2.118489 1_455
Li7 O7 2.148804 1_555
Li7 O22 2.152423 1_455
Li7 O9 2.189372 1_555
Li7 O5 2.238621 1_555
Li8 O16 2.132734 1_655
Li8 O12 2.144023 1_555
Li8 O27 2.162003 1_655
Li8 O14 2.221353 1_555
Li8 O10 2.230261 1_555
Li9 O17 2.132919 1_555
Li9 O13 2.143759 1_545
Li9 O26 2.162616 1_545
Li9 O15 2.220202 1_545
Li9 O11 2.229893 1_555
Li10 O16 2.132863 1_555
Li10 O13 2.143739 1_555
Li10 O25 2.162441 1_555
Li10 O15 2.220670 1_555
Li10 O10 2.229732 1_455
Li11 O17 2.132739 1_555
Li11 O12 2.143989 1_555
Li11 O24 2.161944 1_555
Li11 O14 2.221162 1_555
Li11 O11 2.230391 1_555
Co0 O24 2.035777 1_455
Co0 O27 2.035804 1_555
Co0 O12 2.106293 1_455
Co0 O9 2.123138 1_555
Co0 O15 2.134675 1_545
Co0 O19 2.264134 1_555
Co1 O26 2.036173 1_555
Co1 O25 2.036180 1_555
Co1 O13 2.106631 1_555
Co1 O8 2.122319 1_555
Co1 O14 2.135233 1_555
Co1 O18 2.264999 1_555
Ni0 O21 2.029643 1_655
Ni0 O22 2.030388 1_555
Ni0 O7 2.060171 1_655
Ni0 O10 2.112659 1_555
Ni0 O4 2.119318 1_565
Ni0 O0 2.240430 1_555
Ni1 O23 2.029702 1_555
Ni1 O20 2.030296 1_555
Ni1 O6 2.060201 1_555
Ni1 O11 2.112845 1_555
Ni1 O5 2.119207 1_555
Ni1 O1 2.240242 1_555
C0 O0 1.295096 1_545
C0 O17 1.296646 1_554
C0 O4 1.308491 1_555
C1 O1 1.295114 1_555
C1 O16 1.296641 1_554
C1 O5 1.308485 1_555
C2 O18 1.292669 1_555
C2 O3 1.295264 1_556
C2 O14 1.310756 1_555
C3 O19 1.292757 1_565
C3 O2 1.295324 1_556
C3 O15 1.310702 1_555
O6 P2 1.538473 1_545
O7 P3 1.538453 1_555
O8 P0 1.564328 1_555
O9 P1 1.564344 1_555
O10 P2 1.563145 1_555
O11 P3 1.563131 1_555
O12 P0 1.540094 1_555
O13 P1 1.539891 1_565
O20 P0 1.558000 1_555
O21 P1 1.558161 1_565
O22 P0 1.557983 1_555
O23 P1 1.558157 1_555
O24 P2 1.559939 1_545
O25 P3 1.559923 1_555
O26 P2 1.559897 1_555
O27 P3 1.559949 1_555
