# generated using pymatgen
data_Mn4O7F
_symmetry_space_group_name_H-M   'P 1'
_cell_length_a   7.39932284
_cell_length_b   7.39932284
_cell_length_c   4.46117907
_cell_angle_alpha   89.89017573
_cell_angle_beta   89.89017573
_cell_angle_gamma   95.33595091
_symmetry_Int_Tables_number   1
_chemical_formula_structural   Mn4O7F
_chemical_formula_sum   'Mn8 O14 F2'
_cell_volume   243.19002856
_cell_formula_units_Z   2
loop_
 _symmetry_equiv_pos_site_id
 _symmetry_equiv_pos_as_xyz
  1  'x, y, z'
loop_
 _atom_site_type_symbol
 _atom_site_label
 _atom_site_symmetry_multiplicity
 _atom_site_fract_x
 _atom_site_fract_y
 _atom_site_fract_z
 _atom_site_occupancy
  Mn  Mn0  1  0.94954800  0.56295800  0.52305800  1
  Mn  Mn1  1  0.05044300  0.94955700  0.50000000  1
  Mn  Mn2  1  0.43704200  0.05045200  0.47694200  1
  Mn  Mn3  1  0.55407900  0.44592100  0.50000000  1
  Mn  Mn4  1  0.21044300  0.30057600  0.98574600  1
  Mn  Mn5  1  0.30260000  0.69740000  0.00000000  1
  Mn  Mn6  1  0.69942400  0.78955700  0.01425400  1
  Mn  Mn7  1  0.80095200  0.19904800  0.00000000  1
  O  O0  1  0.01945200  0.15799800  0.76858700  1
  O  O1  1  0.15397900  0.51912000  0.77528200  1
  O  O2  1  0.51760500  0.65281300  0.76834900  1
  O  O3  1  0.26492900  0.90645500  0.72817900  1
  O  O4  1  0.40761100  0.26254200  0.72446800  1
  O  O5  1  0.90545700  0.77041800  0.74069200  1
  O  O6  1  0.76730900  0.40784700  0.73472300  1
  O  O7  1  0.22958200  0.09454300  0.25930800  1
  O  O8  1  0.73745800  0.59238900  0.27553200  1
  O  O9  1  0.09354500  0.73507100  0.27182100  1
  O  O10  1  0.59215300  0.23269100  0.26527700  1
  O  O11  1  0.48088000  0.84602100  0.22471800  1
  O  O12  1  0.84200200  0.98054800  0.23141300  1
  O  O13  1  0.34718700  0.48239500  0.23165100  1
  F  F0  1  0.64231500  0.00599900  0.74017200  1
  F  F1  1  0.99400100  0.35768500  0.25982800  1
loop_
_geom_bond_atom_site_label_1
_geom_bond_atom_site_label_2
_geom_bond_distance
_geom_bond_site_symmetry_2
Mn0 O5 1.871671 1_555
Mn0 O6 1.931407 1_555
Mn0 O9 1.936724 1_655
Mn0 O1 1.937995 1_655
Mn0 O8 1.949068 1_555
Mn1 O3 1.937976 1_555
Mn1 O9 1.937976 1_555
Mn1 O7 1.945892 1_565
Mn1 O5 1.945892 1_455
Mn1 O0 1.984659 1_565
Mn1 O12 1.984659 1_455
Mn2 O7 1.871671 1_555
Mn2 O10 1.931407 1_555
Mn2 O3 1.936724 1_545
Mn2 O11 1.937995 1_545
Mn2 O4 1.949068 1_555
Mn3 O4 1.932765 1_555
Mn3 O8 1.932765 1_555
Mn3 O10 1.937283 1_555
Mn3 O6 1.937283 1_555
Mn3 O13 1.982972 1_555
Mn3 O2 1.982972 1_555
Mn4 O4 1.907187 1_555
Mn4 O0 1.944363 1_555
Mn4 O1 1.947408 1_555
Mn4 O13 1.947794 1_556
Mn4 O7 1.966533 1_556
Mn5 O11 1.921977 1_555
Mn5 O1 1.921977 1_554
Mn5 O2 1.949460 1_554
Mn5 O13 1.949460 1_555
Mn5 O3 2.003818 1_554
Mn5 O9 2.003818 1_555
Mn6 O8 1.907187 1_555
Mn6 O12 1.944363 1_555
Mn6 O11 1.947408 1_555
Mn6 O2 1.947794 1_554
Mn6 O5 1.966533 1_554
Mn7 O12 1.964200 1_545
Mn7 O0 1.964200 1_654
Mn7 O6 1.978663 1_554
Mn7 O10 1.978663 1_555
F0 Mn2 1.972938 1_555
F0 Mn6 2.087787 1_546
F0 Mn7 2.112239 1_556
F1 Mn0 1.972938 1_555
F1 Mn4 2.087787 1_654
F1 Mn7 2.112239 1_555
