# generated using pymatgen
data_Li3Sn2(PO4)3
_symmetry_space_group_name_H-M   'P 1'
_cell_length_a   9.01282100
_cell_length_b   9.35433674
_cell_length_c   16.29933993
_cell_angle_alpha   86.99900412
_cell_angle_beta   106.01228033
_cell_angle_gamma   118.76806865
_symmetry_Int_Tables_number   1
_chemical_formula_structural   Li3Sn2(PO4)3
_chemical_formula_sum   'Li12 Sn8 P12 O48'
_cell_volume   1152.55451135
_cell_formula_units_Z   4
loop_
 _symmetry_equiv_pos_site_id
 _symmetry_equiv_pos_as_xyz
  1  'x, y, z'
loop_
 _atom_site_type_symbol
 _atom_site_label
 _atom_site_symmetry_multiplicity
 _atom_site_fract_x
 _atom_site_fract_y
 _atom_site_fract_z
 _atom_site_occupancy
  Li  Li0  1  0.32286800  0.44702900  0.34187500  1
  Li  Li1  1  0.76511000  0.66705200  0.96488000  1
  Li  Li2  1  0.57156200  0.75388300  0.24991900  1
  Li  Li3  1  0.13399500  0.83436700  0.53401900  1
  Li  Li4  1  0.52199800  0.05293600  0.15582200  1
  Li  Li5  1  0.50809100  0.00538000  0.49953200  1
  Li  Li6  1  0.47477800  0.94730700  0.84416900  1
  Li  Li7  1  0.86889900  0.16871800  0.46399500  1
  Li  Li8  1  0.43103500  0.24884100  0.74968600  1
  Li  Li9  1  0.23530900  0.33391500  0.03385100  1
  Li  Li10  1  0.68381300  0.55114700  0.65608600  1
  Li  Li11  1  0.99727900  0.49528300  0.00398600  1
  Sn  Sn0  1  0.28385000  0.54775500  0.52932500  1
  Sn  Sn1  1  0.22421200  0.51619900  0.83589100  1
  Sn  Sn2  1  0.87207000  0.98443200  0.66340900  1
  Sn  Sn3  1  0.20786200  0.95290600  0.96949000  1
  Sn  Sn4  1  0.79315100  0.04641400  0.02969600  1
  Sn  Sn5  1  0.12740700  0.01543500  0.33619500  1
  Sn  Sn6  1  0.77579700  0.48403400  0.16317300  1
  Sn  Sn7  1  0.71531700  0.45372400  0.47039200  1
  P  P0  1  0.04703600  0.63918400  0.38138900  1
  P  P1  1  0.44575700  0.76353000  0.67667500  1
  P  P2  1  0.41222300  0.74172200  0.04796200  1
  P  P3  1  0.62161600  0.75905200  0.45103300  1
  P  P4  1  0.00603700  0.73666800  0.82249800  1
  P  P5  1  0.02737700  0.86034300  0.11794100  1
  P  P6  1  0.97365100  0.13971300  0.88187300  1
  P  P7  1  0.99456600  0.26337200  0.17634700  1
  P  P8  1  0.37806400  0.24211700  0.54847200  1
  P  P9  1  0.58881700  0.25852400  0.95160100  1
  P  P10  1  0.55355700  0.23749400  0.32310800  1
  P  P11  1  0.95061300  0.36043800  0.61790600  1
  O  O0  1  0.12129100  0.27062100  0.26165200  1
  O  O1  1  0.05417500  0.23779900  0.09675800  1
  O  O2  1  0.02319700  0.31954200  0.89735600  1
  O  O3  1  0.04963300  0.37141800  0.54888500  1
  O  O4  1  0.31678500  0.36079200  0.49166100  1
  O  O5  1  0.08107500  0.40895400  0.70626000  1
  O  O6  1  0.13107000  0.52406000  0.40374400  1
  O  O7  1  0.45830000  0.60519900  0.65522900  1
  O  O8  1  0.36982300  0.56548700  0.03348900  1
  O  O9  1  0.02448600  0.58111300  0.82939400  1
  O  O10  1  0.49267900  0.81496800  0.14168900  1
  O  O11  1  0.40981200  0.76991800  0.76162200  1
  O  O12  1  0.47869600  0.75392200  0.49101500  1
  O  O13  1  0.28209200  0.73932300  0.59692400  1
  O  O14  1  0.23469800  0.74697500  0.00733100  1
  O  O15  1  0.19268100  0.81981600  0.39650200  1
  O  O16  1  0.53762300  0.68597200  0.35730600  1
  O  O17  1  0.86960200  0.86985800  0.04891200  1
  O  O18  1  0.61302000  0.91826600  0.66950600  1
  O  O19  1  0.53616800  0.85991100  0.99130000  1
  O  O20  1  0.03367900  0.91015900  0.20629500  1
  O  O21  1  0.76884500  0.93638200  0.46522400  1
  O  O22  1  0.20423600  0.97572700  0.09552600  1
  O  O23  1  0.19851000  0.89430000  0.84364500  1
  O  O24  1  0.80241800  0.10558700  0.15545800  1
  O  O25  1  0.79645500  0.02360800  0.90386600  1
  O  O26  1  0.22901400  0.06603300  0.53447200  1
  O  O27  1  0.96692300  0.08996100  0.79322600  1
  O  O28  1  0.46504200  0.14064300  0.00840200  1
  O  O29  1  0.38719300  0.08178100  0.33050600  1
  O  O30  1  0.13109900  0.12918100  0.95058100  1
  O  O31  1  0.46519800  0.31507900  0.64206900  1
  O  O32  1  0.80396400  0.18040600  0.60217200  1
  O  O33  1  0.76605400  0.25224100  0.99187300  1
  O  O34  1  0.71771100  0.26245400  0.40269800  1
  O  O35  1  0.51952400  0.24607000  0.50745300  1
  O  O36  1  0.58904800  0.23172100  0.23786000  1
  O  O37  1  0.50682400  0.18521900  0.85791700  1
  O  O38  1  0.97567400  0.41878000  0.16771700  1
  O  O39  1  0.63398500  0.43538100  0.96622400  1
  O  O40  1  0.53979400  0.39497100  0.34446000  1
  O  O41  1  0.86687200  0.47644500  0.59610600  1
  O  O42  1  0.91646900  0.59003300  0.29291200  1
  O  O43  1  0.68454100  0.64178600  0.50827500  1
  O  O44  1  0.94856000  0.62922100  0.45047100  1
  O  O45  1  0.97834900  0.68007400  0.10314700  1
  O  O46  1  0.94689400  0.76181800  0.90224800  1
  O  O47  1  0.87896000  0.73058500  0.73741300  1
loop_
_geom_bond_atom_site_label_1
_geom_bond_atom_site_label_2
_geom_bond_distance
_geom_bond_site_symmetry_2
Li0 O0 1.939902 1_555
Li0 O16 2.105152 1_555
Li0 O40 2.220405 1_555
Li0 O4 2.537579 1_555
Li0 O6 2.600206 1_555
Li1 O39 1.907287 1_555
Li1 O46 1.985525 1_555
Li1 O17 2.050051 1_556
Li1 O45 2.490254 1_556
Li2 O10 1.880825 1_555
Li2 O16 1.884865 1_555
Li3 O26 1.908287 1_565
Li3 O13 1.978664 1_555
Li3 O44 2.064271 1_455
Li3 O15 2.465284 1_555
Li4 O36 1.940552 1_555
Li4 O10 2.128859 1_545
Li4 O24 2.332396 1_555
Li4 O22 2.494031 1_545
Li4 O28 2.495755 1_555
Li5 O35 2.212760 1_555
Li5 O12 2.244211 1_545
Li5 O32 2.492719 1_555
Li5 O15 2.614631 1_545
Li6 O11 1.941784 1_555
Li6 O37 2.117625 1_565
Li6 O23 2.290447 1_555
Li6 O19 2.494723 1_555
Li6 O25 2.527114 1_565
Li7 O21 1.912072 1_545
Li7 O34 1.982687 1_555
Li7 O3 2.054638 1_655
Li7 O32 2.498278 1_555
Li8 O37 1.883982 1_555
Li8 O31 1.885755 1_555
Li9 O8 1.907112 1_555
Li9 O1 1.984689 1_555
Li9 O30 2.056600 1_554
Li9 O2 2.461690 1_554
Li10 O47 1.942470 1_555
Li10 O31 2.104123 1_555
Li10 O7 2.315104 1_555
Li10 O41 2.497454 1_555
Li10 O43 2.512519 1_555
Li11 O33 2.193256 1_554
Li11 O14 2.285800 1_655
Li11 O45 2.521505 1_555
Li11 O2 2.582734 1_654
O0 P7 1.517093 1_455
O0 Sn5 2.638847 1_555
O1 P7 1.602935 1_455
O1 Sn4 2.160265 1_455
O2 P6 1.533648 1_455
O2 Sn1 2.295761 1_555
O3 P11 1.589402 1_455
O3 Sn0 2.059932 1_555
O4 P8 1.610970 1_555
O4 Sn0 2.058235 1_555
O5 P11 1.510985 1_455
O5 Sn1 2.146508 1_555
O6 P0 1.567758 1_555
O6 Sn0 2.081764 1_555
O7 P1 1.601793 1_555
O7 Sn0 2.119989 1_555
O8 P2 1.517907 1_555
O9 P4 1.537234 1_555
O9 Sn1 2.135531 1_555
O10 P2 1.532754 1_555
O11 P1 1.516689 1_555
O11 Sn1 2.625154 1_555
O12 P3 1.576882 1_555
O12 Sn0 2.100518 1_555
O13 P1 1.602606 1_555
O13 Sn0 2.160831 1_555
O14 P2 1.577561 1_555
O14 Sn3 2.095590 1_554
O15 P0 1.539200 1_555
O15 Sn5 2.278075 1_565
O16 P3 1.532139 1_555
O17 P5 1.588896 1_655
O17 Sn4 2.054913 1_565
O18 P1 1.536406 1_555
O18 Sn2 2.138866 1_555
O19 P2 1.611415 1_556
O19 Sn4 2.055512 1_566
O20 P5 1.514584 1_555
O20 Sn5 2.144099 1_565
O21 P3 1.522531 1_555
O22 P5 1.569484 1_555
O22 Sn3 2.087217 1_554
O23 P4 1.601130 1_555
O23 Sn3 2.119650 1_555
O24 P7 1.600173 1_555
O24 Sn4 2.120154 1_555
O25 P6 1.569762 1_555
O25 Sn4 2.082882 1_556
O26 P8 1.519942 1_555
O27 P6 1.517525 1_555
O27 Sn2 2.142651 1_545
O28 P9 1.611341 1_554
O28 Sn3 2.060720 1_544
O29 P10 1.537397 1_555
O29 Sn5 2.142666 1_555
O30 P6 1.588665 1_455
O30 Sn3 2.054230 1_545
O31 P8 1.530383 1_555
O32 P11 1.537719 1_555
O32 Sn2 2.299390 1_545
O33 P9 1.579204 1_555
O33 Sn4 2.095716 1_556
O34 P10 1.602085 1_555
O34 Sn7 2.162437 1_555
O35 P8 1.579929 1_555
O35 Sn7 2.101890 1_555
O36 P10 1.518418 1_555
O36 Sn6 2.625137 1_555
O37 P9 1.532107 1_555
O38 P7 1.538104 1_555
O38 Sn6 2.145555 1_555
O39 P9 1.516250 1_555
O40 P10 1.599965 1_555
O40 Sn7 2.123135 1_555
O41 P11 1.572734 1_555
O41 Sn7 2.081260 1_555
O42 P0 1.512714 1_655
O42 Sn6 2.143084 1_555
O43 P3 1.610947 1_555
O43 Sn7 2.056910 1_555
O44 P0 1.589029 1_655
O44 Sn7 2.053930 1_555
O45 P5 1.537391 1_655
O45 Sn6 2.286485 1_555
O46 P4 1.601293 1_655
O46 Sn3 2.159802 1_655
O47 P4 1.519062 1_655
O47 Sn2 2.626424 1_555
