# generated using pymatgen
data_Na5LiMn2P2(CO7)2
_symmetry_space_group_name_H-M   'P 1'
_cell_length_a   6.76685100
_cell_length_b   8.98345600
_cell_length_c   10.36674061
_cell_angle_alpha   89.93058231
_cell_angle_beta   90.00000000
_cell_angle_gamma   90.00000000
_symmetry_Int_Tables_number   1
_chemical_formula_structural   Na5LiMn2P2(CO7)2
_chemical_formula_sum   'Na10 Li2 Mn4 P4 C4 O28'
_cell_volume   630.19067423
_cell_formula_units_Z   2
loop_
 _symmetry_equiv_pos_site_id
 _symmetry_equiv_pos_as_xyz
  1  'x, y, z'
loop_
 _atom_site_type_symbol
 _atom_site_label
 _atom_site_symmetry_multiplicity
 _atom_site_fract_x
 _atom_site_fract_y
 _atom_site_fract_z
 _atom_site_occupancy
  Na  Na0  1  0.24975900  0.58343300  0.88059600  1
  Na  Na1  1  0.25263500  0.58283700  0.37929200  1
  Na  Na2  1  0.00137400  0.75856800  0.62356500  1
  Na  Na3  1  0.49890900  0.75851000  0.62322800  1
  Na  Na4  1  0.00186000  0.75803600  0.12416200  1
  Na  Na5  1  0.50186000  0.24196400  0.87583800  1
  Na  Na6  1  0.50137400  0.24143200  0.37643500  1
  Na  Na7  1  0.99890900  0.24149000  0.37677200  1
  Na  Na8  1  0.75263500  0.41716300  0.62070800  1
  Na  Na9  1  0.74975900  0.41656700  0.11940400  1
  Li  Li0  1  0.49092900  0.76870800  0.12035100  1
  Li  Li1  1  0.99092900  0.23129200  0.87964900  1
  Mn  Mn0  1  0.74732300  0.86142800  0.89024800  1
  Mn  Mn1  1  0.74938900  0.86173300  0.38843000  1
  Mn  Mn2  1  0.24938900  0.13826700  0.61157000  1
  Mn  Mn3  1  0.24732300  0.13857200  0.10975200  1
  P  P0  1  0.24558300  0.91388100  0.85216300  1
  P  P1  1  0.25317600  0.90987400  0.34949000  1
  P  P2  1  0.75317600  0.09012600  0.65051000  1
  P  P3  1  0.74558300  0.08611900  0.14783700  1
  C  C0  1  0.75490200  0.55649000  0.86887600  1
  C  C1  1  0.74861500  0.56069900  0.36673800  1
  C  C2  1  0.24861500  0.43930100  0.63326200  1
  C  C3  1  0.25490200  0.44351000  0.13112400  1
  O  O0  1  0.24987200  0.58320500  0.64408800  1
  O  O1  1  0.26782400  0.58789200  0.14078900  1
  O  O2  1  0.74822300  0.62018900  0.98141300  1
  O  O3  1  0.75049900  0.62235700  0.48042000  1
  O  O4  1  0.74782200  0.63959100  0.76559700  1
  O  O5  1  0.74592500  0.64495800  0.26420600  1
  O  O6  1  0.06322400  0.81918500  0.89259900  1
  O  O7  1  0.43058400  0.82572400  0.89921100  1
  O  O8  1  0.06672600  0.81884200  0.38868400  1
  O  O9  1  0.43482100  0.81820500  0.39527700  1
  O  O10  1  0.25155300  0.92720200  0.70195200  1
  O  O11  1  0.75059000  0.93191100  0.59101300  1
  O  O12  1  0.26177100  0.92391900  0.19860600  1
  O  O13  1  0.73611000  0.92562500  0.09161600  1
  O  O14  1  0.23611000  0.07437500  0.90838400  1
  O  O15  1  0.76177100  0.07608100  0.80139400  1
  O  O16  1  0.25059000  0.06808900  0.40898700  1
  O  O17  1  0.75155300  0.07279800  0.29804800  1
  O  O18  1  0.56672600  0.18115800  0.61131600  1
  O  O19  1  0.93482100  0.18179500  0.60472300  1
  O  O20  1  0.56322400  0.18081500  0.10740100  1
  O  O21  1  0.93058400  0.17427600  0.10078900  1
  O  O22  1  0.24592500  0.35504200  0.73579400  1
  O  O23  1  0.24782200  0.36040900  0.23440300  1
  O  O24  1  0.25049900  0.37764300  0.51958000  1
  O  O25  1  0.24822300  0.37981100  0.01858700  1
  O  O26  1  0.76782400  0.41210800  0.85921100  1
  O  O27  1  0.74987200  0.41679500  0.35591200  1
loop_
_geom_bond_atom_site_label_1
_geom_bond_atom_site_label_2
_geom_bond_distance
_geom_bond_site_symmetry_2
Na0 O25 2.320824 1_556
Na0 O0 2.451821 1_555
Na0 O6 2.468759 1_555
Na0 O7 2.504621 1_555
Na0 O22 2.543846 1_555
Na0 O1 2.700468 1_556
Na1 O24 2.346642 1_555
Na1 O9 2.453351 1_555
Na1 O8 2.467303 1_555
Na1 O1 2.474996 1_555
Na1 O23 2.501421 1_555
Na1 O0 2.745141 1_555
Na2 O0 2.313836 1_555
Na2 O11 2.327532 1_455
Na2 O10 2.413357 1_555
Na2 O4 2.500071 1_455
Na2 O8 2.532695 1_555
Na2 O3 2.566275 1_455
Na2 O6 2.872966 1_555
Na3 O0 2.316454 1_555
Na3 O11 2.331809 1_555
Na3 O10 2.401512 1_555
Na3 O9 2.461071 1_555
Na3 O4 2.480484 1_555
Na3 O3 2.567211 1_555
Na4 O1 2.367359 1_555
Na4 O13 2.369192 1_455
Na4 O12 2.431538 1_555
Na4 O5 2.476984 1_455
Na4 O6 2.496728 1_554
Na4 O2 2.583337 1_454
Na4 O8 2.830992 1_555
Na5 O26 2.367359 1_555
Na5 O14 2.369192 1_555
Na5 O15 2.431538 1_555
Na5 O22 2.476984 1_555
Na5 O20 2.496728 1_556
Na5 O25 2.583337 1_556
Na5 O18 2.830992 1_555
Na6 O27 2.313836 1_555
Na6 O16 2.327532 1_555
Na6 O17 2.413357 1_555
Na6 O23 2.500071 1_555
Na6 O18 2.532695 1_555
Na6 O24 2.566275 1_555
Na6 O20 2.872966 1_555
Na7 O27 2.316454 1_555
Na7 O16 2.331809 1_655
Na7 O17 2.401512 1_555
Na7 O19 2.461071 1_555
Na7 O23 2.480484 1_655
Na7 O24 2.567211 1_655
Na8 O3 2.346642 1_555
Na8 O19 2.453351 1_555
Na8 O18 2.467303 1_555
Na8 O26 2.474996 1_555
Na8 O4 2.501421 1_555
Na8 O27 2.745141 1_555
Na9 O2 2.320824 1_554
Na9 O27 2.451821 1_555
Na9 O20 2.468759 1_555
Na9 O21 2.504621 1_555
Na9 O5 2.543846 1_555
Na9 O26 2.700468 1_554
Li0 O13 2.197152 1_555
Li0 O1 2.227516 1_555
Li0 O12 2.238220 1_555
Li0 O7 2.383655 1_554
Li0 O5 2.536392 1_555
Li0 O2 2.625009 1_554
Li1 O14 2.197152 1_655
Li1 O26 2.227516 1_555
Li1 O15 2.238220 1_555
Li1 O21 2.383655 1_556
Li1 O22 2.536392 1_655
Li1 O25 2.625009 1_656
Mn0 O15 2.138263 1_565
Mn0 O13 2.167729 1_556
Mn0 O7 2.169167 1_555
Mn0 O6 2.171210 1_655
Mn0 O2 2.363227 1_555
Mn0 O4 2.376468 1_555
Mn1 O17 2.113998 1_565
Mn1 O9 2.165401 1_555
Mn1 O8 2.181668 1_655
Mn1 O11 2.193458 1_555
Mn1 O5 2.336102 1_555
Mn1 O3 2.351347 1_555
Mn2 O10 2.113998 1_545
Mn2 O19 2.165401 1_455
Mn2 O18 2.181668 1_555
Mn2 O16 2.193458 1_555
Mn2 O22 2.336102 1_555
Mn2 O24 2.351347 1_555
Mn3 O12 2.138263 1_545
Mn3 O14 2.167729 1_554
Mn3 O21 2.169167 1_455
Mn3 O20 2.171210 1_555
Mn3 O25 2.363227 1_555
Mn3 O23 2.376468 1_555
C0 O2 1.300834 1_555
C0 O26 1.303970 1_555
C0 O4 1.305373 1_555
C1 O27 1.297781 1_555
C1 O3 1.302859 1_555
C1 O5 1.304278 1_555
C2 O0 1.297781 1_555
C2 O24 1.302859 1_555
C2 O22 1.304278 1_555
C3 O25 1.300834 1_555
C3 O1 1.303970 1_555
C3 O23 1.305373 1_555
O6 P0 1.556049 1_555
O7 P0 1.559272 1_555
O8 P1 1.557205 1_555
O9 P1 1.553500 1_555
O10 P0 1.562168 1_555
O11 P2 1.550162 1_565
O12 P1 1.570181 1_555
O13 P3 1.557111 1_565
O14 P0 1.557111 1_545
O15 P2 1.570181 1_555
O16 P1 1.550162 1_545
O17 P3 1.562168 1_555
O18 P2 1.557205 1_555
O19 P2 1.553500 1_555
O20 P3 1.556049 1_555
O21 P3 1.559272 1_555
