# generated using pymatgen
data_Li2MnF4
_symmetry_space_group_name_H-M   'P 1'
_cell_length_a   7.33047200
_cell_length_b   8.85617800
_cell_length_c   17.76028430
_cell_angle_alpha   61.13215202
_cell_angle_beta   90.00000000
_cell_angle_gamma   90.00000000
_symmetry_Int_Tables_number   1
_chemical_formula_structural   Li2MnF4
_chemical_formula_sum   'Li24 Mn12 F48'
_cell_volume   1009.72053335
_cell_formula_units_Z   12
loop_
 _symmetry_equiv_pos_site_id
 _symmetry_equiv_pos_as_xyz
  1  'x, y, z'
loop_
 _atom_site_type_symbol
 _atom_site_label
 _atom_site_symmetry_multiplicity
 _atom_site_fract_x
 _atom_site_fract_y
 _atom_site_fract_z
 _atom_site_occupancy
  Li  Li0  1  0.65270400  0.15792000  0.90880000  1
  Li  Li1  1  0.25091900  0.15617600  0.90888200  1
  Li  Li2  1  0.80683300  0.82297600  0.25376500  1
  Li  Li3  1  0.25246700  0.81241100  0.26466000  1
  Li  Li4  1  0.67614300  0.51813000  0.57914400  1
  Li  Li5  1  0.25733400  0.53396700  0.57977600  1
  Li  Li6  1  0.75733400  0.46603300  0.92022400  1
  Li  Li7  1  0.17614300  0.48187000  0.92085600  1
  Li  Li8  1  0.75246700  0.18758900  0.23534000  1
  Li  Li9  1  0.30683300  0.17702400  0.24623500  1
  Li  Li10  1  0.75091900  0.84382400  0.59111800  1
  Li  Li11  1  0.15270400  0.84208000  0.59120000  1
  Li  Li12  1  0.84729600  0.15792000  0.40880000  1
  Li  Li13  1  0.24908100  0.15617600  0.40888200  1
  Li  Li14  1  0.69316700  0.82297600  0.75376500  1
  Li  Li15  1  0.24753300  0.81241100  0.76466000  1
  Li  Li16  1  0.82385700  0.51813000  0.07914400  1
  Li  Li17  1  0.24266600  0.53396700  0.07977600  1
  Li  Li18  1  0.74266600  0.46603300  0.42022400  1
  Li  Li19  1  0.32385700  0.48187000  0.42085600  1
  Li  Li20  1  0.74753300  0.18758900  0.73534000  1
  Li  Li21  1  0.19316700  0.17702400  0.74623500  1
  Li  Li22  1  0.74908100  0.84382400  0.09111800  1
  Li  Li23  1  0.34729600  0.84208000  0.09120000  1
  Mn  Mn0  1  0.96191000  0.82120100  0.41249700  1
  Mn  Mn1  1  0.97414000  0.49380500  0.74543100  1
  Mn  Mn2  1  0.03693800  0.15826800  0.07958100  1
  Mn  Mn3  1  0.47414000  0.50619500  0.75456900  1
  Mn  Mn4  1  0.53693800  0.84173200  0.42041900  1
  Mn  Mn5  1  0.46191000  0.17879900  0.08750300  1
  Mn  Mn6  1  0.53809000  0.82120100  0.91249700  1
  Mn  Mn7  1  0.46306200  0.15826800  0.57958100  1
  Mn  Mn8  1  0.52586000  0.49380500  0.24543100  1
  Mn  Mn9  1  0.96306200  0.84173200  0.92041900  1
  Mn  Mn10  1  0.02586000  0.50619500  0.25456900  1
  Mn  Mn11  1  0.03809000  0.17879900  0.58750300  1
  F  F0  1  0.55372500  0.92874200  0.12956300  1
  F  F1  1  0.92592200  0.90923000  0.14586700  1
  F  F2  1  0.75662000  0.62288600  0.46344400  1
  F  F3  1  0.02876200  0.72908700  0.32495300  1
  F  F4  1  0.38988900  0.71740900  0.36754400  1
  F  F5  1  0.70542700  0.32426200  0.79118800  1
  F  F6  1  0.24690700  0.06403900  0.02858700  1
  F  F7  1  0.28446100  0.40250200  0.70241800  1
  F  F8  1  0.46990100  0.67008300  0.55065500  1
  F  F9  1  0.59916900  0.27462000  0.97168700  1
  F  F10  1  0.78944900  0.60333600  0.64591700  1
  F  F11  1  0.24071100  0.05366900  0.18875400  1
  F  F12  1  0.28944900  0.39666400  0.85408300  1
  F  F13  1  0.74071100  0.94633100  0.31124600  1
  F  F14  1  0.09916900  0.72538000  0.52831300  1
  F  F15  1  0.96990100  0.32991700  0.94934500  1
  F  F16  1  0.78446100  0.59749800  0.79758200  1
  F  F17  1  0.20542700  0.67573800  0.70881200  1
  F  F18  1  0.74690700  0.93596100  0.47141300  1
  F  F19  1  0.88988900  0.28259100  0.13245600  1
  F  F20  1  0.52876200  0.27091300  0.17504700  1
  F  F21  1  0.25662000  0.37711400  0.03655600  1
  F  F22  1  0.42592200  0.09077000  0.35413300  1
  F  F23  1  0.05372500  0.07125800  0.37043700  1
  F  F24  1  0.94627500  0.92874200  0.62956300  1
  F  F25  1  0.57407800  0.90923000  0.64586700  1
  F  F26  1  0.74338000  0.62288600  0.96344400  1
  F  F27  1  0.47123800  0.72908700  0.82495300  1
  F  F28  1  0.11011100  0.71740900  0.86754400  1
  F  F29  1  0.25309300  0.06403900  0.52858700  1
  F  F30  1  0.79457300  0.32426200  0.29118800  1
  F  F31  1  0.21553900  0.40250200  0.20241800  1
  F  F32  1  0.03009900  0.67008300  0.05065500  1
  F  F33  1  0.90083100  0.27462000  0.47168700  1
  F  F34  1  0.25928900  0.05366900  0.68875400  1
  F  F35  1  0.71055100  0.60333600  0.14591700  1
  F  F36  1  0.75928900  0.94633100  0.81124600  1
  F  F37  1  0.21055100  0.39666400  0.35408300  1
  F  F38  1  0.40083100  0.72538000  0.02831300  1
  F  F39  1  0.53009900  0.32991700  0.44934500  1
  F  F40  1  0.71553900  0.59749800  0.29758200  1
  F  F41  1  0.75309300  0.93596100  0.97141300  1
  F  F42  1  0.29457300  0.67573800  0.20881200  1
  F  F43  1  0.61011100  0.28259100  0.63245600  1
  F  F44  1  0.97123800  0.27091300  0.67504700  1
  F  F45  1  0.24338000  0.37711400  0.53655600  1
  F  F46  1  0.07407800  0.09077000  0.85413300  1
  F  F47  1  0.44627500  0.07125800  0.87043700  1
loop_
_geom_bond_atom_site_label_1
_geom_bond_atom_site_label_2
_geom_bond_distance
_geom_bond_site_symmetry_2
F0 Li22 1.891660 1_555
F0 Li23 1.961641 1_555
F0 Mn5 2.077956 1_565
F1 Li22 1.872251 1_555
F1 Li2 1.898517 1_555
F1 Mn2 2.098914 1_665
F2 Li18 1.886507 1_555
F2 Li4 1.894842 1_555
F2 Mn0 2.152563 1_555
F2 Mn4 2.345966 1_555
F3 Li3 1.901935 1_555
F3 Li2 1.980257 1_455
F3 Mn0 2.132556 1_455
F4 Li19 1.890765 1_555
F4 Li3 1.891311 1_555
F4 Mn4 2.062628 1_555
F5 Li20 1.924423 1_555
F5 Li0 1.926521 1_555
F5 Mn3 2.209467 1_555
F5 Mn1 2.369978 1_555
F6 Li1 1.873894 1_554
F6 Li23 1.879222 1_545
F6 Mn2 2.148363 1_555
F6 Mn5 2.374590 1_555
F7 Li21 1.881617 1_555
F7 Li5 1.921134 1_555
F7 Mn3 2.110877 1_555
F7 Mn1 2.647369 1_455
F8 Li5 1.883262 1_555
F8 Li4 1.922293 1_555
F8 Mn4 2.123044 1_555
F9 Li6 1.886066 1_555
F9 Li0 1.893199 1_555
F9 Mn5 2.068336 1_556
F10 Li4 1.878764 1_555
F10 Li10 1.887212 1_555
F10 Mn1 2.059660 1_555
F11 Li9 1.883472 1_555
F11 Li3 1.899664 1_545
F11 Mn2 2.261548 1_555
F11 Mn5 2.273059 1_555
F12 Li7 1.878764 1_555
F12 Li1 1.887212 1_555
F12 Mn3 2.059660 1_555
F13 Li2 1.883472 1_555
F13 Li8 1.899664 1_565
F13 Mn4 2.261548 1_555
F13 Mn0 2.273059 1_555
F14 Li5 1.886066 1_555
F14 Li11 1.893199 1_555
F14 Mn0 2.068336 1_455
F15 Li6 1.883262 1_555
F15 Li7 1.922293 1_655
F15 Mn2 2.123044 1_656
F16 Li14 1.881617 1_555
F16 Li6 1.921134 1_555
F16 Mn1 2.110877 1_555
F16 Mn3 2.647369 1_555
F17 Li15 1.924423 1_555
F17 Li11 1.926521 1_555
F17 Mn1 2.209467 1_455
F17 Mn3 2.369978 1_555
F18 Li10 1.873894 1_555
F18 Li12 1.879222 1_565
F18 Mn4 2.148363 1_555
F18 Mn0 2.374590 1_555
F19 Li16 1.890765 1_555
F19 Li8 1.891311 1_555
F19 Mn2 2.062628 1_655
F20 Li8 1.901935 1_555
F20 Li9 1.980257 1_555
F20 Mn5 2.132556 1_555
F21 Li17 1.886507 1_555
F21 Li7 1.894842 1_554
F21 Mn5 2.152563 1_555
F21 Mn2 2.345966 1_555
F22 Li13 1.872251 1_555
F22 Li9 1.898517 1_555
F22 Mn4 2.098914 1_545
F23 Li13 1.891660 1_555
F23 Li12 1.961641 1_455
F23 Mn0 2.077956 1_445
F24 Li10 1.891660 1_555
F24 Li11 1.961641 1_655
F24 Mn11 2.077956 1_665
F25 Li10 1.872251 1_555
F25 Li14 1.898517 1_555
F25 Mn7 2.098914 1_565
F26 Li6 1.886507 1_555
F26 Li16 1.894842 1_556
F26 Mn6 2.152563 1_555
F26 Mn9 2.345966 1_555
F27 Li15 1.901935 1_555
F27 Li14 1.980257 1_555
F27 Mn6 2.132556 1_555
F28 Li7 1.890765 1_555
F28 Li15 1.891311 1_555
F28 Mn9 2.062628 1_455
F29 Li13 1.873894 1_555
F29 Li11 1.879222 1_545
F29 Mn7 2.148363 1_555
F29 Mn11 2.374590 1_555
F30 Li8 1.924423 1_555
F30 Li12 1.926521 1_555
F30 Mn10 2.209467 1_655
F30 Mn8 2.369978 1_555
F31 Li9 1.881617 1_555
F31 Li17 1.921134 1_555
F31 Mn10 2.110877 1_555
F31 Mn8 2.647369 1_555
F32 Li17 1.883262 1_555
F32 Li16 1.922293 1_455
F32 Mn9 2.123044 1_454
F33 Li18 1.886066 1_555
F33 Li12 1.893199 1_555
F33 Mn11 2.068336 1_655
F34 Li21 1.883472 1_555
F34 Li15 1.899664 1_545
F34 Mn7 2.261548 1_555
F34 Mn11 2.273059 1_555
F35 Li16 1.878764 1_555
F35 Li22 1.887212 1_555
F35 Mn8 2.059660 1_555
F36 Li14 1.883472 1_555
F36 Li20 1.899664 1_565
F36 Mn9 2.261548 1_555
F36 Mn6 2.273059 1_555
F37 Li19 1.878764 1_555
F37 Li13 1.887212 1_555
F37 Mn10 2.059660 1_555
F38 Li17 1.886066 1_555
F38 Li23 1.893199 1_555
F38 Mn6 2.068336 1_554
F39 Li18 1.883262 1_555
F39 Li19 1.922293 1_555
F39 Mn7 2.123044 1_555
F40 Li2 1.881617 1_555
F40 Li18 1.921134 1_555
F40 Mn8 2.110877 1_555
F40 Mn10 2.647369 1_655
F41 Li22 1.873894 1_556
F41 Li0 1.879222 1_565
F41 Mn9 2.148363 1_555
F41 Mn6 2.374590 1_555
F42 Li3 1.924423 1_555
F42 Li23 1.926521 1_555
F42 Mn8 2.209467 1_555
F42 Mn10 2.369978 1_555
F43 Li4 1.890765 1_555
F43 Li20 1.891311 1_555
F43 Mn7 2.062628 1_555
F44 Li20 1.901935 1_555
F44 Li21 1.980257 1_655
F44 Mn11 2.132556 1_655
F45 Li5 1.886507 1_555
F45 Li19 1.894842 1_555
F45 Mn11 2.152563 1_555
F45 Mn7 2.345966 1_555
F46 Li1 1.872251 1_555
F46 Li21 1.898517 1_555
F46 Mn9 2.098914 1_445
F47 Li1 1.891660 1_555
F47 Li0 1.961641 1_555
F47 Mn6 2.077956 1_545
