# generated using pymatgen
data_Li4TiS4
_symmetry_space_group_name_H-M   'P 1'
_cell_length_a   6.69784109
_cell_length_b   6.69784109
_cell_length_c   7.82441100
_cell_angle_alpha   90.00000000
_cell_angle_beta   90.00000000
_cell_angle_gamma   92.52625266
_symmetry_Int_Tables_number   1
_chemical_formula_structural   Li4TiS4
_chemical_formula_sum   'Li8 Ti2 S8'
_cell_volume   350.67035356
_cell_formula_units_Z   2
loop_
 _symmetry_equiv_pos_site_id
 _symmetry_equiv_pos_as_xyz
  1  'x, y, z'
loop_
 _atom_site_type_symbol
 _atom_site_label
 _atom_site_symmetry_multiplicity
 _atom_site_fract_x
 _atom_site_fract_y
 _atom_site_fract_z
 _atom_site_occupancy
  Li  Li0  1  0.83906200  0.16093800  0.50000000  1
  Li  Li1  1  0.83906200  0.16093800  0.00000000  1
  Li  Li2  1  0.41570400  0.10854300  0.75000000  1
  Li  Li3  1  0.89145700  0.58429600  0.25000000  1
  Li  Li4  1  0.10854300  0.41570400  0.75000000  1
  Li  Li5  1  0.58429600  0.89145700  0.25000000  1
  Li  Li6  1  0.16093800  0.83906200  0.00000000  1
  Li  Li7  1  0.16093800  0.83906200  0.50000000  1
  Ti  Ti0  1  0.33822900  0.33822900  0.25000000  1
  Ti  Ti1  1  0.66177100  0.66177100  0.75000000  1
  S  S0  1  0.66837600  0.27366700  0.25000000  1
  S  S1  1  0.72633300  0.33162400  0.75000000  1
  S  S2  1  0.20455100  0.20455100  0.00368400  1
  S  S3  1  0.20455100  0.20455100  0.49631600  1
  S  S4  1  0.79544900  0.79544900  0.99631600  1
  S  S5  1  0.79544900  0.79544900  0.50368400  1
  S  S6  1  0.33162400  0.72633300  0.75000000  1
  S  S7  1  0.27366700  0.66837600  0.25000000  1
loop_
_geom_bond_atom_site_label_1
_geom_bond_atom_site_label_2
_geom_bond_distance
_geom_bond_site_symmetry_2
Li0 S1 2.404057 1_555
Li0 S0 2.404057 1_555
Li0 S3 2.452705 1_655
Li0 S5 2.452705 1_545
Li1 S1 2.404057 1_554
Li1 S0 2.404057 1_555
Li1 S2 2.452705 1_655
Li1 S4 2.452705 1_544
Li2 S1 2.507416 1_555
Li2 S2 2.536489 1_556
Li2 S3 2.536489 1_555
Li2 S6 2.596837 1_545
Li3 S0 2.507416 1_555
Li3 S5 2.536489 1_555
Li3 S4 2.536489 1_554
Li3 S7 2.596837 1_655
Li4 S6 2.507416 1_555
Li4 S2 2.536489 1_556
Li4 S3 2.536489 1_555
Li4 S1 2.596837 1_455
Li5 S7 2.507416 1_555
Li5 S4 2.536489 1_554
Li5 S5 2.536489 1_555
Li5 S0 2.596837 1_565
Li6 S7 2.404057 1_555
Li6 S6 2.404057 1_554
Li6 S2 2.452705 1_565
Li6 S4 2.452705 1_454
Li7 S7 2.404057 1_555
Li7 S6 2.404057 1_555
Li7 S3 2.452705 1_565
Li7 S5 2.452705 1_455
S0 Ti0 2.271786 1_555
S1 Ti1 2.271786 1_555
S2 Ti0 2.290643 1_555
S3 Ti0 2.290643 1_555
S4 Ti1 2.290643 1_555
S5 Ti1 2.290643 1_555
S6 Ti1 2.271786 1_555
S7 Ti0 2.271786 1_555
