# generated using pymatgen
data_Mg11Mn2O13
_symmetry_space_group_name_H-M   'P 1'
_cell_length_a   5.26696711
_cell_length_b   19.97259062
_cell_length_c   5.26696711
_cell_angle_alpha   97.57678959
_cell_angle_beta   70.46645065
_cell_angle_gamma   92.52680621
_symmetry_Int_Tables_number   1
_chemical_formula_structural   Mg11Mn2O13
_chemical_formula_sum   'Mg22 Mn4 O26'
_cell_volume   517.61108533
_cell_formula_units_Z   2
loop_
 _symmetry_equiv_pos_site_id
 _symmetry_equiv_pos_as_xyz
  1  'x, y, z'
loop_
 _atom_site_type_symbol
 _atom_site_label
 _atom_site_symmetry_multiplicity
 _atom_site_fract_x
 _atom_site_fract_y
 _atom_site_fract_z
 _atom_site_occupancy
  Mg  Mg0  1  0.50000000  0.30769200  0.65384600  1
  Mg  Mg1  1  0.00000000  0.30769200  0.15384600  1
  Mg  Mg2  1  0.50000000  0.15603900  0.57801900  1
  Mg  Mg3  1  0.00000000  0.15603900  0.07801900  1
  Mg  Mg4  1  0.50000000  0.45934600  0.72967300  1
  Mg  Mg5  1  0.00000000  0.45934600  0.22967300  1
  Mg  Mg6  1  0.50000000  0.77063500  0.88531800  1
  Mg  Mg7  1  0.00000000  0.77063500  0.38531800  1
  Mg  Mg8  1  0.50000000  0.84475000  0.42237500  1
  Mg  Mg9  1  0.00000000  0.84475000  0.92237500  1
  Mg  Mg10  1  0.50000000  0.92174400  0.96087100  1
  Mg  Mg11  1  0.00000000  0.92174400  0.46087100  1
  Mg  Mg12  1  0.50000000  0.69364100  0.34682100  1
  Mg  Mg13  1  0.00000000  0.69364100  0.84682100  1
  Mg  Mg14  1  0.50000000  0.23150800  0.11575400  1
  Mg  Mg15  1  0.00000000  0.23150800  0.61575400  1
  Mg  Mg16  1  0.50000000  0.38387700  0.19193800  1
  Mg  Mg17  1  0.00000000  0.38387700  0.69193800  1
  Mg  Mg18  1  0.50000000  0.07915600  0.03957800  1
  Mg  Mg19  1  0.00000000  0.07915600  0.53957800  1
  Mg  Mg20  1  0.50000000  0.53622900  0.26811400  1
  Mg  Mg21  1  0.00000000  0.53622900  0.76811400  1
  Mn  Mn0  1  0.00000000  0.61521800  0.30760900  1
  Mn  Mn1  1  0.50000000  0.00016600  0.50008300  1
  Mn  Mn2  1  0.50000000  0.61521800  0.80760900  1
  Mn  Mn3  1  0.00000000  0.00016600  0.00008300  1
  O  O0  1  0.75000000  0.30769200  0.90384600  1
  O  O1  1  0.25000000  0.30769200  0.40384600  1
  O  O2  1  0.25000000  0.08222800  0.79111400  1
  O  O3  1  0.75000000  0.08222800  0.29111400  1
  O  O4  1  0.25000000  0.53315700  0.01657800  1
  O  O5  1  0.75000000  0.53315700  0.51657800  1
  O  O6  1  0.25000000  0.38348200  0.94174000  1
  O  O7  1  0.75000000  0.38348200  0.44174000  1
  O  O8  1  0.25000000  0.23190300  0.86595200  1
  O  O9  1  0.75000000  0.23190300  0.36595200  1
  O  O10  1  0.25000000  0.69716900  0.09858400  1
  O  O11  1  0.75000000  0.69716900  0.59858400  1
  O  O12  1  0.75000000  0.91821600  0.20910900  1
  O  O13  1  0.25000000  0.91821600  0.70910900  1
  O  O14  1  0.25000000  0.84650100  0.17325100  1
  O  O15  1  0.75000000  0.84650100  0.67325100  1
  O  O16  1  0.75000000  0.76888300  0.13444200  1
  O  O17  1  0.25000000  0.76888300  0.63444200  1
  O  O18  1  0.75000000  0.46039300  0.98019700  1
  O  O19  1  0.25000000  0.46039300  0.48019700  1
  O  O20  1  0.75000000  0.15499200  0.82749500  1
  O  O21  1  0.25000000  0.15499200  0.32749500  1
  O  O22  1  0.75000000  0.61502500  0.05751300  1
  O  O23  1  0.25000000  0.61502500  0.55751300  1
  O  O24  1  0.75000000  0.00036000  0.75017900  1
  O  O25  1  0.25000000  0.00036000  0.25017900  1
loop_
_geom_bond_atom_site_label_1
_geom_bond_atom_site_label_2
_geom_bond_distance
_geom_bond_site_symmetry_2
Mg0 O9 2.135332 1_555
Mg0 O8 2.135335 1_555
Mg0 O6 2.135345 1_555
Mg0 O7 2.135350 1_555
Mg0 O0 2.151057 1_555
Mg0 O1 2.151057 1_555
Mg1 O8 2.135332 1_554
Mg1 O9 2.135335 1_455
Mg1 O7 2.135345 1_455
Mg1 O6 2.135350 1_554
Mg1 O0 2.151057 1_454
Mg1 O1 2.151057 1_555
Mg2 O3 2.107998 1_555
Mg2 O2 2.108001 1_555
Mg2 O9 2.136375 1_555
Mg2 O8 2.136379 1_555
Mg2 O20 2.151155 1_555
Mg2 O21 2.151159 1_555
Mg3 O2 2.107998 1_554
Mg3 O3 2.108001 1_455
Mg3 O8 2.136375 1_554
Mg3 O9 2.136379 1_455
Mg3 O21 2.151155 1_555
Mg3 O20 2.151159 1_454
Mg4 O4 2.107998 1_556
Mg4 O5 2.108001 1_555
Mg4 O6 2.136375 1_555
Mg4 O7 2.136379 1_555
Mg4 O19 2.151155 1_555
Mg4 O18 2.151159 1_555
Mg5 O5 2.107998 1_455
Mg5 O4 2.108001 1_555
Mg5 O7 2.136375 1_455
Mg5 O6 2.136379 1_554
Mg5 O18 2.151155 1_454
Mg5 O19 2.151159 1_555
Mg6 O10 2.103268 1_556
Mg6 O11 2.103273 1_555
Mg6 O14 2.136405 1_556
Mg6 O15 2.136405 1_555
Mg6 O16 2.151337 1_556
Mg6 O17 2.151337 1_555
Mg7 O11 2.103268 1_455
Mg7 O10 2.103273 1_555
Mg7 O14 2.136405 1_555
Mg7 O15 2.136405 1_455
Mg7 O17 2.151337 1_555
Mg7 O16 2.151337 1_455
Mg8 O12 2.103268 1_555
Mg8 O13 2.103273 1_555
Mg8 O16 2.136418 1_555
Mg8 O17 2.136420 1_555
Mg8 O14 2.151334 1_555
Mg8 O15 2.151338 1_555
Mg9 O13 2.103268 1_555
Mg9 O12 2.103273 1_456
Mg9 O17 2.136418 1_555
Mg9 O16 2.136420 1_456
Mg9 O15 2.151334 1_455
Mg9 O14 2.151338 1_556
Mg10 O15 2.127748 1_555
Mg10 O14 2.127755 1_556
Mg10 O13 2.152182 1_555
Mg10 O12 2.152199 1_556
Mg10 O25 2.175028 1_566
Mg10 O24 2.175028 1_565
Mg11 O14 2.127748 1_555
Mg11 O15 2.127755 1_455
Mg11 O12 2.152182 1_455
Mg11 O13 2.152199 1_555
Mg11 O24 2.175028 1_465
Mg11 O25 2.175028 1_565
Mg12 O16 2.127738 1_555
Mg12 O17 2.127738 1_555
Mg12 O11 2.152186 1_555
Mg12 O10 2.152195 1_555
Mg12 O22 2.175028 1_555
Mg12 O23 2.175028 1_555
Mg13 O16 2.127738 1_456
Mg13 O17 2.127738 1_555
Mg13 O10 2.152186 1_556
Mg13 O11 2.152195 1_455
Mg13 O22 2.175028 1_456
Mg13 O23 2.175028 1_555
Mg14 O0 2.140836 1_554
Mg14 O1 2.140836 1_555
Mg14 O21 2.145470 1_555
Mg14 O20 2.145474 1_554
Mg14 O8 2.151069 1_554
Mg14 O9 2.151073 1_555
Mg15 O0 2.140836 1_455
Mg15 O1 2.140836 1_555
Mg15 O20 2.145470 1_455
Mg15 O21 2.145474 1_555
Mg15 O9 2.151069 1_455
Mg15 O8 2.151073 1_555
Mg16 O0 2.140849 1_554
Mg16 O1 2.140851 1_555
Mg16 O18 2.145470 1_554
Mg16 O19 2.145474 1_555
Mg16 O7 2.151069 1_555
Mg16 O6 2.151073 1_554
Mg17 O1 2.140849 1_555
Mg17 O0 2.140851 1_455
Mg17 O19 2.145470 1_555
Mg17 O18 2.145474 1_455
Mg17 O6 2.151069 1_555
Mg17 O7 2.151073 1_455
Mg18 O21 2.135985 1_555
Mg18 O20 2.135990 1_554
Mg18 O2 2.151917 1_554
Mg18 O3 2.151917 1_555
Mg18 O25 2.177577 1_555
Mg18 O24 2.177581 1_554
Mg19 O20 2.135985 1_455
Mg19 O21 2.135990 1_555
Mg19 O3 2.151917 1_455
Mg19 O2 2.151917 1_555
Mg19 O24 2.177577 1_455
Mg19 O25 2.177581 1_555
Mg20 O18 2.135985 1_554
Mg20 O19 2.135990 1_555
Mg20 O5 2.151917 1_555
Mg20 O4 2.151917 1_555
Mg20 O22 2.177577 1_555
Mg20 O23 2.177581 1_555
Mg21 O19 2.135985 1_555
Mg21 O18 2.135990 1_455
Mg21 O4 2.151917 1_556
Mg21 O5 2.151917 1_455
Mg21 O23 2.177577 1_555
Mg21 O22 2.177581 1_456
Mn0 O22 2.151058 1_455
Mn0 O23 2.151063 1_555
Mn0 O11 2.222754 1_455
Mn0 O10 2.222756 1_555
Mn0 O5 2.224344 1_455
Mn0 O4 2.224346 1_555
Mn1 O24 2.151056 1_555
Mn1 O25 2.151065 1_555
Mn1 O12 2.222739 1_545
Mn1 O13 2.222743 1_545
Mn1 O2 2.224360 1_555
Mn1 O3 2.224360 1_555
Mn2 O23 2.151058 1_555
Mn2 O22 2.151063 1_556
Mn2 O10 2.222754 1_556
Mn2 O11 2.222756 1_555
Mn2 O4 2.224344 1_556
Mn2 O5 2.224346 1_555
Mn3 O25 2.151056 1_555
Mn3 O24 2.151065 1_454
Mn3 O13 2.222739 1_544
Mn3 O12 2.222743 1_445
Mn3 O3 2.224360 1_455
Mn3 O2 2.224360 1_554
