# generated using pymatgen
data_Li2CrFeO4
_symmetry_space_group_name_H-M   'P 1'
_cell_length_a   5.16426700
_cell_length_b   5.95235355
_cell_length_c   7.87088476
_cell_angle_alpha   79.12413097
_cell_angle_beta   77.32721358
_cell_angle_gamma   73.34248911
_symmetry_Int_Tables_number   1
_chemical_formula_structural   Li2CrFeO4
_chemical_formula_sum   'Li6 Cr3 Fe3 O12'
_cell_volume   224.08992231
_cell_formula_units_Z   3
loop_
 _symmetry_equiv_pos_site_id
 _symmetry_equiv_pos_as_xyz
  1  'x, y, z'
loop_
 _atom_site_type_symbol
 _atom_site_label
 _atom_site_symmetry_multiplicity
 _atom_site_fract_x
 _atom_site_fract_y
 _atom_site_fract_z
 _atom_site_occupancy
  Li  Li0  1  0.00000000  0.00000000  0.00000000  1
  Li  Li1  1  0.00183100  0.16463100  0.33345100  1
  Li  Li2  1  0.00000000  0.50000000  0.00000000  1
  Li  Li3  1  0.00192700  0.33076200  0.66767300  1
  Li  Li4  1  0.99807300  0.66923800  0.33232700  1
  Li  Li5  1  0.99816900  0.83536900  0.66654900  1
  Cr  Cr0  1  0.50000000  0.00000000  0.50000000  1
  Cr  Cr1  1  0.49923700  0.16537000  0.83317400  1
  Cr  Cr2  1  0.50076300  0.83463000  0.16682600  1
  Fe  Fe0  1  0.49954400  0.33471500  0.16644300  1
  Fe  Fe1  1  0.50000000  0.50000000  0.50000000  1
  Fe  Fe2  1  0.50045600  0.66528500  0.83355700  1
  O  O0  1  0.72558000  0.00613900  0.25343400  1
  O  O1  1  0.27335700  0.16037100  0.08019700  1
  O  O2  1  0.27086200  0.32719900  0.41501100  1
  O  O3  1  0.72501500  0.17177300  0.58611400  1
  O  O4  1  0.27250700  0.66349800  0.08225900  1
  O  O5  1  0.72951100  0.50658500  0.25059500  1
  O  O6  1  0.27048900  0.49341500  0.74940500  1
  O  O7  1  0.72749300  0.33650200  0.91774100  1
  O  O8  1  0.27498500  0.82822700  0.41388600  1
  O  O9  1  0.72913800  0.67280100  0.58498900  1
  O  O10  1  0.72664300  0.83962900  0.91980300  1
  O  O11  1  0.27442000  0.99386100  0.74656600  1
loop_
_geom_bond_atom_site_label_1
_geom_bond_atom_site_label_2
_geom_bond_distance
_geom_bond_site_symmetry_2
Li0 O10 2.166440 1_444
Li0 O1 2.166440 1_555
Li0 O4 2.169332 1_545
Li0 O7 2.169332 1_454
Li0 O0 2.178582 1_455
Li0 O11 2.178582 1_544
Li1 O2 2.162235 1_555
Li1 O8 2.166653 1_545
Li1 O0 2.170711 1_455
Li1 O1 2.170844 1_555
Li1 O3 2.179441 1_455
Li1 O5 2.192368 1_455
Li2 O6 2.152226 1_554
Li2 O5 2.152226 1_455
Li2 O10 2.179784 1_454
Li2 O1 2.179784 1_555
Li2 O7 2.183927 1_454
Li2 O4 2.183927 1_555
Li3 O7 2.158118 1_455
Li3 O6 2.161266 1_555
Li3 O2 2.161331 1_555
Li3 O11 2.164017 1_545
Li3 O3 2.181887 1_455
Li3 O9 2.193429 1_455
Li4 O4 2.158118 1_655
Li4 O5 2.161266 1_555
Li4 O9 2.161331 1_555
Li4 O0 2.164017 1_565
Li4 O8 2.181887 1_655
Li4 O2 2.193429 1_655
Li5 O9 2.162235 1_555
Li5 O3 2.166653 1_565
Li5 O11 2.170711 1_655
Li5 O10 2.170844 1_555
Li5 O8 2.179441 1_655
Li5 O6 2.192368 1_655
Cr0 O11 2.032343 1_545
Cr0 O0 2.032343 1_555
Cr0 O8 2.035534 1_545
Cr0 O3 2.035534 1_555
Cr0 O2 2.043361 1_555
Cr0 O9 2.043361 1_545
Cr1 O11 2.035738 1_545
Cr1 O1 2.035882 1_556
Cr1 O3 2.035935 1_555
Cr1 O10 2.037289 1_545
Cr1 O7 2.039287 1_555
Cr1 O6 2.043654 1_555
Cr2 O0 2.035738 1_565
Cr2 O10 2.035882 1_554
Cr2 O8 2.035935 1_555
Cr2 O1 2.037289 1_565
Cr2 O4 2.039287 1_555
Cr2 O5 2.043654 1_555
Fe0 O4 2.044450 1_555
Fe0 O0 2.047697 1_555
Fe0 O5 2.047707 1_555
Fe0 O7 2.050844 1_554
Fe0 O2 2.051313 1_555
Fe0 O1 2.052046 1_555
Fe1 O3 2.042321 1_555
Fe1 O8 2.042321 1_555
Fe1 O9 2.051940 1_555
Fe1 O2 2.051940 1_555
Fe1 O6 2.058302 1_555
Fe1 O5 2.058302 1_555
Fe2 O7 2.044450 1_555
Fe2 O11 2.047697 1_555
Fe2 O6 2.047707 1_555
Fe2 O4 2.050844 1_556
Fe2 O9 2.051313 1_555
Fe2 O10 2.052046 1_555
