# generated using pymatgen
data_LiAg2F5
_symmetry_space_group_name_H-M   'P 1'
_cell_length_a   8.10225100
_cell_length_b   10.70927296
_cell_length_c   11.71823506
_cell_angle_alpha   90.21272076
_cell_angle_beta   91.07981687
_cell_angle_gamma   108.90147570
_symmetry_Int_Tables_number   1
_chemical_formula_structural   LiAg2F5
_chemical_formula_sum   'Li8 Ag16 F40'
_cell_volume   961.73152848
_cell_formula_units_Z   8
loop_
 _symmetry_equiv_pos_site_id
 _symmetry_equiv_pos_as_xyz
  1  'x, y, z'
loop_
 _atom_site_type_symbol
 _atom_site_label
 _atom_site_symmetry_multiplicity
 _atom_site_fract_x
 _atom_site_fract_y
 _atom_site_fract_z
 _atom_site_occupancy
  Li  Li0  1  0.29701500  0.71968400  0.94512700  1
  Li  Li1  1  0.19933100  0.39951600  0.78404600  1
  Li  Li2  1  0.38104400  0.66910100  0.44894400  1
  Li  Li3  1  0.30150000  0.09799700  0.22131300  1
  Li  Li4  1  0.69850000  0.90200300  0.77868700  1
  Li  Li5  1  0.61895600  0.33089900  0.55105600  1
  Li  Li6  1  0.80066900  0.60048400  0.21595400  1
  Li  Li7  1  0.70298500  0.28031600  0.05487300  1
  Ag  Ag0  1  0.12389900  0.90753600  0.76597100  1
  Ag  Ag1  1  0.00000000  0.50000000  0.00000000  1
  Ag  Ag2  1  0.12506600  0.82704400  0.25152300  1
  Ag  Ag3  1  0.50000000  0.00000000  0.50000000  1
  Ag  Ag4  1  0.39697800  0.66520300  0.73105200  1
  Ag  Ag5  1  0.21606000  0.23143600  0.49848300  1
  Ag  Ag6  1  0.25121300  0.25200600  0.99987600  1
  Ag  Ag7  1  0.37657700  0.57837400  0.22575600  1
  Ag  Ag8  1  0.62342300  0.42162600  0.77424400  1
  Ag  Ag9  1  0.74878700  0.74799400  0.00012400  1
  Ag  Ag10  1  0.78394000  0.76856400  0.50151700  1
  Ag  Ag11  1  0.60302200  0.33479700  0.26894800  1
  Ag  Ag12  1  0.50000000  0.00000000  0.00000000  1
  Ag  Ag13  1  0.00000000  0.50000000  0.50000000  1
  Ag  Ag14  1  0.87493400  0.17295600  0.74847700  1
  Ag  Ag15  1  0.87610100  0.09246400  0.23402900  1
  F  F0  1  0.02152500  0.94349600  0.61898700  1
  F  F1  1  0.23877600  0.87593000  0.91494200  1
  F  F2  1  0.28049200  0.93826800  0.39289400  1
  F  F3  1  0.16213400  0.57302700  0.84272300  1
  F  F4  1  0.05373000  0.27920400  0.89341900  1
  F  F5  1  0.07132000  0.35186400  0.42954000  1
  F  F6  1  0.30648500  0.85239700  0.68806600  1
  F  F7  1  0.20737500  0.64045000  0.32844900  1
  F  F8  1  0.34891200  0.94641500  0.15744200  1
  F  F9  1  0.11568100  0.27289400  0.66215400  1
  F  F10  1  0.24736100  0.58268300  0.57312800  1
  F  F11  1  0.24894200  0.62004200  0.07771700  1
  F  F12  1  0.16827200  0.33505900  0.12937600  1
  F  F13  1  0.06656200  0.04169200  0.15663200  1
  F  F14  1  0.54151500  0.77748300  0.89560400  1
  F  F15  1  0.42464700  0.47428900  0.85097300  1
  F  F16  1  0.56584600  0.83663500  0.44051500  1
  F  F17  1  0.33928800  0.17192400  0.86903300  1
  F  F18  1  0.49708600  0.56156800  0.38004700  1
  F  F19  1  0.35108400  0.22730600  0.33960300  1
  F  F20  1  0.64891600  0.77269400  0.66039700  1
  F  F21  1  0.50291400  0.43843200  0.61995300  1
  F  F22  1  0.66071200  0.82807600  0.13096700  1
  F  F23  1  0.57535300  0.52571100  0.14902700  1
  F  F24  1  0.43415400  0.16336500  0.55948500  1
  F  F25  1  0.45848500  0.22251700  0.10439600  1
  F  F26  1  0.93343800  0.95830800  0.84336800  1
  F  F27  1  0.83172800  0.66494100  0.87062400  1
  F  F28  1  0.75105800  0.37995800  0.92228300  1
  F  F29  1  0.75263900  0.41731700  0.42687200  1
  F  F30  1  0.88431900  0.72710600  0.33784600  1
  F  F31  1  0.65108800  0.05358500  0.84255800  1
  F  F32  1  0.79262500  0.35955000  0.67155100  1
  F  F33  1  0.69351500  0.14760300  0.31193400  1
  F  F34  1  0.92868000  0.64813600  0.57046000  1
  F  F35  1  0.94627000  0.72079600  0.10658100  1
  F  F36  1  0.83786600  0.42697300  0.15727700  1
  F  F37  1  0.71950800  0.06173200  0.60710600  1
  F  F38  1  0.76122400  0.12407000  0.08505800  1
  F  F39  1  0.97847500  0.05650400  0.38101300  1
loop_
_geom_bond_atom_site_label_1
_geom_bond_atom_site_label_2
_geom_bond_distance
_geom_bond_site_symmetry_2
Ag0 F0 1.990221 1_555
Ag0 F6 1.995859 1_555
Ag0 F26 2.022936 1_455
Ag0 F1 2.043412 1_555
Ag1 F11 2.189164 1_555
Ag1 F28 2.189164 1_454
Ag1 F3 2.273836 1_554
Ag1 F36 2.273836 1_455
Ag2 F2 2.164234 1_555
Ag2 F30 2.168725 1_455
Ag2 F8 2.173179 1_555
Ag2 F35 2.258989 1_455
Ag2 F7 2.470746 1_555
Ag3 F37 2.079267 1_555
Ag3 F2 2.079267 1_545
Ag3 F24 2.107371 1_555
Ag3 F16 2.107371 1_545
Ag4 F20 2.173889 1_555
Ag4 F10 2.210070 1_555
Ag4 F3 2.279009 1_555
Ag4 F14 2.349641 1_555
Ag4 F6 2.399177 1_555
Ag4 F15 2.551788 1_555
Ag5 F5 2.154808 1_555
Ag5 F19 2.184621 1_555
Ag5 F9 2.196238 1_555
Ag5 F24 2.226148 1_555
Ag5 F39 2.579642 1_455
Ag6 F12 1.990275 1_556
Ag6 F17 2.005886 1_555
Ag6 F4 2.104913 1_555
Ag6 F25 2.165429 1_556
Ag7 F18 2.074705 1_555
Ag7 F23 2.087970 1_555
Ag7 F7 2.101472 1_555
Ag7 F11 2.124862 1_555
Ag8 F21 2.074705 1_555
Ag8 F15 2.087970 1_555
Ag8 F32 2.101472 1_555
Ag8 F28 2.124862 1_555
Ag9 F27 1.990275 1_554
Ag9 F22 2.005886 1_555
Ag9 F35 2.104913 1_555
Ag9 F14 2.165429 1_554
Ag10 F34 2.154808 1_555
Ag10 F20 2.184621 1_555
Ag10 F30 2.196238 1_555
Ag10 F16 2.226148 1_555
Ag10 F0 2.579642 1_655
Ag11 F19 2.173889 1_555
Ag11 F29 2.210070 1_555
Ag11 F36 2.279009 1_555
Ag11 F25 2.349641 1_555
Ag11 F33 2.399177 1_555
Ag11 F23 2.551788 1_555
Ag12 F8 2.206701 1_545
Ag12 F31 2.206701 1_554
Ag12 F38 2.308067 1_555
Ag12 F1 2.308067 1_544
Ag13 F34 2.033367 1_455
Ag13 F5 2.033367 1_555
Ag13 F10 2.077259 1_555
Ag13 F29 2.077259 1_455
Ag14 F37 2.164234 1_555
Ag14 F9 2.168725 1_655
Ag14 F31 2.173179 1_555
Ag14 F4 2.258989 1_655
Ag14 F32 2.470746 1_555
Ag15 F39 1.990221 1_555
Ag15 F33 1.995859 1_555
Ag15 F13 2.022936 1_655
Ag15 F38 2.043412 1_555
F1 Li0 1.912405 1_555
F3 Li0 1.981309 1_555
F3 Li1 2.092267 1_555
F4 Li1 1.943945 1_555
F7 Li2 1.926134 1_555
F8 Li3 1.936180 1_565
F9 Li1 1.921475 1_555
F10 Li2 1.888729 1_555
F11 Li0 1.862870 1_554
F13 Li3 1.939092 1_555
F14 Li0 1.973787 1_555
F14 Li4 2.062399 1_555
F15 Li1 1.892949 1_555
F16 Li2 1.933167 1_555
F18 Li2 1.893455 1_555
F19 Li3 1.898634 1_555
F20 Li4 1.898634 1_555
F21 Li5 1.893455 1_555
F23 Li6 1.892949 1_555
F24 Li5 1.933167 1_555
F25 Li7 1.973787 1_555
F25 Li3 2.062399 1_555
F26 Li4 1.939092 1_555
F28 Li7 1.862870 1_556
F29 Li5 1.888729 1_555
F30 Li6 1.921475 1_555
F31 Li4 1.936180 1_545
F32 Li5 1.926134 1_555
F35 Li6 1.943945 1_555
F36 Li7 1.981309 1_555
F36 Li6 2.092267 1_555
F38 Li7 1.912405 1_555
