# generated using pymatgen
data_Mn(CO3)2
_symmetry_space_group_name_H-M   'P 1'
_cell_length_a   4.66888862
_cell_length_b   11.27689333
_cell_length_c   4.66897339
_cell_angle_alpha   78.05049791
_cell_angle_beta   120.00223890
_cell_angle_gamma   90.00444884
_symmetry_Int_Tables_number   1
_chemical_formula_structural   Mn(CO3)2
_chemical_formula_sum   'Mn2 C4 O12'
_cell_volume   206.71343880
_cell_formula_units_Z   2
loop_
 _symmetry_equiv_pos_site_id
 _symmetry_equiv_pos_as_xyz
  1  'x, y, z'
loop_
 _atom_site_type_symbol
 _atom_site_label
 _atom_site_symmetry_multiplicity
 _atom_site_fract_x
 _atom_site_fract_y
 _atom_site_fract_z
 _atom_site_occupancy
  Mn  Mn0  1  0.74999000  0.74998900  0.50005700  1
  Mn  Mn1  1  0.25001900  0.25001000  0.50000500  1
  C  C0  1  0.88325100  0.35015600  0.76645400  1
  C  C1  1  0.38324400  0.85015100  0.76646800  1
  C  C2  1  0.61677400  0.14985400  0.23351600  1
  C  C3  1  0.11675500  0.64983700  0.23356000  1
  O  O0  1  0.90952200  0.14765400  0.26830300  1
  O  O1  1  0.40968400  0.64764400  0.26834300  1
  O  O2  1  0.14125100  0.35235900  0.05703000  1
  O  O3  1  0.64138000  0.85232000  0.05724000  1
  O  O4  1  0.91579700  0.35236100  0.50624800  1
  O  O5  1  0.41583000  0.85234600  0.50613900  1
  O  O6  1  0.58417100  0.14765600  0.49366000  1
  O  O7  1  0.08413500  0.64764900  0.49385300  1
  O  O8  1  0.35880000  0.14765500  0.94296100  1
  O  O9  1  0.85861800  0.64764800  0.94282900  1
  O  O10  1  0.59047800  0.35236900  0.73168500  1
  O  O11  1  0.09030200  0.85234000  0.73165000  1
loop_
_geom_bond_atom_site_label_1
_geom_bond_atom_site_label_2
_geom_bond_distance
_geom_bond_site_symmetry_2
Mn0 O11 1.955578 1_655
Mn0 O1 1.955667 1_555
Mn0 O5 1.955860 1_555
Mn0 O7 1.955995 1_655
Mn0 O9 1.956121 1_555
Mn0 O3 1.956271 1_555
Mn1 O10 1.956118 1_555
Mn1 O0 1.956217 1_455
Mn1 O4 1.956456 1_455
Mn1 O6 1.956468 1_555
Mn1 O8 1.956679 1_555
Mn1 O2 1.956742 1_555
C0 O4 1.292976 1_555
C0 O2 1.292994 1_656
C0 O10 1.293008 1_555
C1 O5 1.293677 1_555
C1 O3 1.293699 1_556
C1 O11 1.293702 1_555
C2 O6 1.292859 1_555
C2 O0 1.292859 1_555
C2 O8 1.292876 1_554
C3 O7 1.293617 1_555
C3 O9 1.293642 1_454
C3 O1 1.293707 1_555
