# generated using pymatgen
data_LiVF6
_symmetry_space_group_name_H-M   'P 1'
_cell_length_a   10.45250400
_cell_length_b   5.33509800
_cell_length_c   10.36803642
_cell_angle_alpha   79.43880884
_cell_angle_beta   90.00000000
_cell_angle_gamma   90.00000000
_symmetry_Int_Tables_number   1
_chemical_formula_structural   LiVF6
_chemical_formula_sum   'Li4 V4 F24'
_cell_volume   568.38048771
_cell_formula_units_Z   4
loop_
 _symmetry_equiv_pos_site_id
 _symmetry_equiv_pos_as_xyz
  1  'x, y, z'
loop_
 _atom_site_type_symbol
 _atom_site_label
 _atom_site_symmetry_multiplicity
 _atom_site_fract_x
 _atom_site_fract_y
 _atom_site_fract_z
 _atom_site_occupancy
  Li  Li0  1  0.32357700  0.38978500  0.12005800  1
  Li  Li1  1  0.17642300  0.38978500  0.62005800  1
  Li  Li2  1  0.82357700  0.61021500  0.37994200  1
  Li  Li3  1  0.67642300  0.61021500  0.87994200  1
  V  V0  1  0.64718600  0.25286700  0.19828600  1
  V  V1  1  0.85281400  0.25286700  0.69828600  1
  V  V2  1  0.14718600  0.74713300  0.30171400  1
  V  V3  1  0.35281400  0.74713300  0.80171400  1
  F  F0  1  0.08777200  0.00275700  0.37249100  1
  F  F1  1  0.79171100  0.08340000  0.25345000  1
  F  F2  1  0.57391400  0.14945900  0.35309500  1
  F  F3  1  0.41222800  0.00275700  0.87249100  1
  F  F4  1  0.70828900  0.08340000  0.75345000  1
  F  F5  1  0.72095500  0.39142500  0.03837900  1
  F  F6  1  0.92608600  0.14945900  0.85309500  1
  F  F7  1  0.49943000  0.43371400  0.14360500  1
  F  F8  1  0.20834100  0.45975200  0.24541100  1
  F  F9  1  0.77904500  0.39142500  0.53837900  1
  F  F10  1  0.70834100  0.54024800  0.25458900  1
  F  F11  1  0.00057000  0.43371400  0.64360500  1
  F  F12  1  0.99943000  0.56628600  0.35639500  1
  F  F13  1  0.29165900  0.45975200  0.74541100  1
  F  F14  1  0.22095500  0.60857500  0.46162100  1
  F  F15  1  0.79165900  0.54024800  0.75458900  1
  F  F16  1  0.50057000  0.56628600  0.85639500  1
  F  F17  1  0.07391400  0.85054100  0.14690500  1
  F  F18  1  0.27904500  0.60857500  0.96162100  1
  F  F19  1  0.29171100  0.91660000  0.24655000  1
  F  F20  1  0.58777200  0.99724300  0.12750900  1
  F  F21  1  0.42608600  0.85054100  0.64690500  1
  F  F22  1  0.20828900  0.91660000  0.74655000  1
  F  F23  1  0.91222800  0.99724300  0.62750900  1
loop_
_geom_bond_atom_site_label_1
_geom_bond_atom_site_label_2
_geom_bond_distance
_geom_bond_site_symmetry_2
F0 V2 1.775079 1_545
F1 V0 1.799183 1_555
F2 V0 1.772728 1_555
F3 V3 1.775079 1_545
F4 V1 1.799183 1_555
F5 V0 1.854843 1_555
F5 Li3 1.890686 1_554
F6 V1 1.772728 1_555
F7 V0 1.853927 1_555
F7 Li0 1.874602 1_555
F8 V2 1.851534 1_555
F8 Li0 1.859338 1_555
F9 V1 1.854843 1_555
F9 Li2 1.890686 1_555
F10 V0 1.851534 1_555
F10 Li2 1.859338 1_555
F11 V1 1.853927 1_455
F11 Li1 1.874602 1_555
F12 V2 1.853927 1_655
F12 Li2 1.874602 1_555
F13 V3 1.851534 1_555
F13 Li1 1.859338 1_555
F14 V2 1.854843 1_555
F14 Li1 1.890686 1_555
F15 V1 1.851534 1_555
F15 Li3 1.859338 1_555
F16 V3 1.853927 1_555
F16 Li3 1.874602 1_555
F17 V2 1.772728 1_555
F18 V3 1.854843 1_555
F18 Li0 1.890686 1_556
F19 V2 1.799183 1_555
F20 V0 1.775079 1_565
F21 V3 1.772728 1_555
F22 V3 1.799183 1_555
F23 V1 1.775079 1_565
