# generated using pymatgen
data_LiV18O44
_symmetry_space_group_name_H-M   'P 1'
_cell_length_a   3.66644100
_cell_length_b   10.27967900
_cell_length_c   21.91847379
_cell_angle_alpha   76.85794995
_cell_angle_beta   90.00000000
_cell_angle_gamma   90.00000000
_symmetry_Int_Tables_number   1
_chemical_formula_structural   LiV18O44
_chemical_formula_sum   'Li1 V18 O44'
_cell_volume   804.46751266
_cell_formula_units_Z   1
loop_
 _symmetry_equiv_pos_site_id
 _symmetry_equiv_pos_as_xyz
  1  'x, y, z'
loop_
 _atom_site_type_symbol
 _atom_site_label
 _atom_site_symmetry_multiplicity
 _atom_site_fract_x
 _atom_site_fract_y
 _atom_site_fract_z
 _atom_site_occupancy
  Li  Li0  1  0.00000000  0.46582700  0.51036700  1
  V  V0  1  0.50000000  0.59455400  0.02611500  1
  V  V1  1  0.00000000  0.13561100  0.09325200  1
  V  V2  1  0.50000000  0.90887000  0.05913100  1
  V  V3  1  0.50000000  0.15277600  0.28666000  1
  V  V4  1  0.00000000  0.92965000  0.25163900  1
  V  V5  1  0.50000000  0.47409900  0.31190100  1
  V  V6  1  0.00000000  0.66744600  0.36264900  1
  V  V7  1  0.50000000  0.21370800  0.43162100  1
  V  V8  1  0.00000000  0.98185400  0.40716200  1
  V  V9  1  0.50000000  0.01711300  0.59284600  1
  V  V10  1  0.00000000  0.78450500  0.56815600  1
  V  V11  1  0.50000000  0.33373400  0.63608700  1
  V  V12  1  0.00000000  0.52707800  0.68792200  1
  V  V13  1  0.50000000  0.07047200  0.74880100  1
  V  V14  1  0.00000000  0.84835700  0.71328200  1
  V  V15  1  0.00000000  0.09054700  0.94080100  1
  V  V16  1  0.50000000  0.86397800  0.90692500  1
  V  V17  1  0.00000000  0.40517500  0.97392900  1
  O  O0  1  0.00000000  0.57609400  0.00318200  1
  O  O1  1  0.50000000  0.78163100  0.00687600  1
  O  O2  1  0.50000000  0.09149400  0.08089300  1
  O  O3  1  0.00000000  0.28704200  0.10259600  1
  O  O4  1  0.00000000  0.95579300  0.04442100  1
  O  O5  1  0.50000000  0.55561000  0.10056200  1
  O  O6  1  0.00000000  0.03015300  0.17257800  1
  O  O7  1  0.50000000  0.81134200  0.12718300  1
  O  O8  1  0.50000000  0.24404000  0.21714500  1
  O  O9  1  0.50000000  0.50874700  0.23736700  1
  O  O10  1  0.00000000  0.10514200  0.30309100  1
  O  O11  1  0.00000000  0.77572800  0.24439300  1
  O  O12  1  0.50000000  0.28657800  0.33368200  1
  O  O13  1  0.50000000  0.97036600  0.26563900  1
  O  O14  1  0.00000000  0.49429700  0.33304200  1
  O  O15  1  0.50000000  0.02402200  0.39055700  1
  O  O16  1  0.50000000  0.64522700  0.34034700  1
  O  O17  1  0.00000000  0.84570100  0.35227000  1
  O  O18  1  0.00000000  0.16058800  0.42661100  1
  O  O19  1  0.50000000  0.36942800  0.44006400  1
  O  O20  1  0.00000000  0.61429300  0.43828600  1
  O  O21  1  0.50000000  0.12139000  0.52058100  1
  O  O22  1  0.00000000  0.87842400  0.47935800  1
  O  O23  1  0.50000000  0.39045000  0.55960800  1
  O  O24  1  0.00000000  0.62759900  0.56068800  1
  O  O25  1  0.50000000  0.83909700  0.57336200  1
  O  O26  1  0.50000000  0.15678900  0.64607700  1
  O  O27  1  0.00000000  0.35541800  0.65779500  1
  O  O28  1  0.00000000  0.97532200  0.60939300  1
  O  O29  1  0.50000000  0.50439500  0.66718000  1
  O  O30  1  0.00000000  0.02975400  0.73409600  1
  O  O31  1  0.00000000  0.71324900  0.66644200  1
  O  O32  1  0.50000000  0.22464400  0.75534100  1
  O  O33  1  0.50000000  0.89542100  0.69671700  1
  O  O34  1  0.00000000  0.49145900  0.76252200  1
  O  O35  1  0.00000000  0.75613000  0.78284200  1
  O  O36  1  0.00000000  0.18882000  0.87273500  1
  O  O37  1  0.50000000  0.97040900  0.82730200  1
  O  O38  1  0.00000000  0.44445500  0.89927100  1
  O  O39  1  0.50000000  0.04434200  0.95571200  1
  O  O40  1  0.50000000  0.71290300  0.89739400  1
  O  O41  1  0.00000000  0.90898400  0.91886500  1
  O  O42  1  0.00000000  0.21834700  0.99329300  1
  O  O43  1  0.50000000  0.42402600  0.99686600  1
loop_
_geom_bond_atom_site_label_1
_geom_bond_atom_site_label_2
_geom_bond_distance
_geom_bond_site_symmetry_2
Li0 O20 1.931029 1_555
Li0 O23 2.178455 1_455
Li0 O23 2.178455 1_555
Li0 O24 2.194546 1_555
O0 V0 1.921652 1_455
O0 V0 1.921652 1_555
O0 V17 2.002602 1_554
O1 V0 1.872789 1_555
O1 V2 1.924541 1_555
O1 V16 2.161656 1_554
O2 V1 1.922398 1_655
O2 V1 1.922398 1_555
O2 V2 2.039370 1_545
O3 V1 1.615586 1_555
O4 V2 1.904363 1_455
O4 V2 1.904363 1_555
O4 V1 2.337101 1_565
O4 V15 2.376243 1_564
O5 V0 1.589298 1_555
O6 V4 1.804491 1_545
O6 V1 1.827893 1_555
O7 V2 1.596862 1_555
O8 V3 1.597400 1_555
O9 V5 1.590958 1_555
O10 V3 1.910492 1_555
O10 V3 1.910492 1_455
O10 V4 2.334818 1_545
O10 V8 2.344123 1_545
O11 V4 1.625753 1_555
O12 V5 1.877577 1_555
O12 V3 1.897026 1_555
O12 V7 2.106681 1_555
O13 V4 1.920532 1_655
O13 V4 1.920532 1_555
O13 V3 2.030078 1_565
O14 V5 1.913708 1_455
O14 V5 1.913708 1_555
O14 V6 2.028415 1_555
O15 V8 1.899821 1_645
O15 V8 1.899821 1_545
O15 V7 2.326012 1_555
O15 V3 2.359474 1_555
O16 V6 1.924211 1_555
O16 V6 1.924211 1_655
O16 V5 1.995514 1_555
O17 V6 1.794408 1_555
O17 V8 2.042600 1_555
O17 V4 2.178114 1_555
O18 V7 1.923071 1_555
O18 V7 1.923071 1_455
O18 V8 1.978298 1_545
O19 V7 1.652682 1_555
O20 V6 1.623297 1_555
O21 V9 1.698771 1_555
O21 V7 1.964977 1_555
O22 V8 1.693944 1_555
O22 V10 1.966158 1_555
O23 V11 1.644836 1_555
O24 V10 1.657841 1_555
O25 V10 1.928152 1_655
O25 V10 1.928152 1_555
O25 V9 1.971410 1_565
O26 V11 1.781956 1_555
O26 V9 2.045645 1_555
O26 V13 2.224486 1_555
O27 V11 1.919636 1_555
O27 V11 1.919636 1_455
O27 V12 2.019843 1_555
O28 V9 1.898932 1_465
O28 V9 1.898932 1_565
O28 V10 2.338972 1_555
O28 V14 2.353110 1_555
O29 V12 1.915715 1_555
O29 V12 1.915715 1_655
O29 V11 2.021348 1_555
O30 V13 1.923832 1_455
O30 V13 1.923832 1_555
O30 V14 2.017941 1_545
O31 V12 1.863997 1_555
O31 V14 1.905619 1_555
O31 V10 2.111847 1_555
O32 V13 1.623443 1_555
O33 V14 1.909636 1_555
O33 V14 1.909636 1_655
O33 V9 2.335193 1_565
O33 V13 2.339975 1_565
O34 V12 1.592303 1_555
O35 V14 1.601899 1_555
O36 V15 1.600301 1_555
O37 V13 1.792702 1_565
O37 V16 1.836985 1_555
O38 V17 1.593847 1_555
O39 V15 1.903292 1_555
O39 V15 1.903292 1_655
O39 V16 2.341512 1_545
O39 V2 2.375333 1_546
O40 V16 1.613377 1_555
O41 V16 1.923093 1_555
O41 V16 1.923093 1_455
O41 V15 2.030449 1_565
O42 V17 1.870272 1_555
O42 V15 1.933135 1_555
O42 V1 2.162466 1_556
O43 V17 1.922317 1_555
O43 V17 1.922317 1_655
O43 V0 1.998738 1_556
