# generated using pymatgen
data_MgIn2O4
_symmetry_space_group_name_H-M   'P 1'
_cell_length_a   6.40616258
_cell_length_b   6.40616258
_cell_length_c   6.40616258
_cell_angle_alpha   60.00000000
_cell_angle_beta   60.00000000
_cell_angle_gamma   60.00000000
_symmetry_Int_Tables_number   1
_chemical_formula_structural   MgIn2O4
_chemical_formula_sum   'Mg2 In4 O8'
_cell_volume   185.89977775
_cell_formula_units_Z   2
loop_
 _symmetry_equiv_pos_site_id
 _symmetry_equiv_pos_as_xyz
  1  'x, y, z'
loop_
 _atom_site_type_symbol
 _atom_site_label
 _atom_site_symmetry_multiplicity
 _atom_site_fract_x
 _atom_site_fract_y
 _atom_site_fract_z
 _atom_site_occupancy
  Mg  Mg0  1  0.25000000  0.25000000  0.25000000  1
  Mg  Mg1  1  0.00000000  0.00000000  0.00000000  1
  In  In0  1  0.12500000  0.62500000  0.62500000  1
  In  In1  1  0.62500000  0.62500000  0.62500000  1
  In  In2  1  0.62500000  0.12500000  0.62500000  1
  In  In3  1  0.62500000  0.62500000  0.12500000  1
  O  O0  1  0.86912200  0.86912200  0.86912200  1
  O  O1  1  0.85736700  0.38087800  0.38087800  1
  O  O2  1  0.38087800  0.38087800  0.85736700  1
  O  O3  1  0.38087800  0.85736700  0.38087800  1
  O  O4  1  0.86912200  0.86912200  0.39263300  1
  O  O5  1  0.86912200  0.39263300  0.86912200  1
  O  O6  1  0.38087800  0.38087800  0.38087800  1
  O  O7  1  0.39263300  0.86912200  0.86912200  1
loop_
_geom_bond_atom_site_label_1
_geom_bond_atom_site_label_2
_geom_bond_distance
_geom_bond_site_symmetry_2
Mg0 O3 2.053710 1_545
Mg0 O1 2.053710 1_455
Mg0 O2 2.053710 1_554
Mg0 O6 2.053715 1_555
Mg1 O4 2.053710 1_445
Mg1 O7 2.053710 1_544
Mg1 O5 2.053710 1_454
Mg1 O0 2.053715 1_444
In0 O0 2.212950 1_455
In0 O6 2.212950 1_555
In0 O2 2.212954 1_555
In0 O3 2.212954 1_555
In0 O4 2.212954 1_455
In0 O5 2.212954 1_455
In1 O7 2.212949 1_555
In1 O4 2.212949 1_555
In1 O5 2.212949 1_555
In1 O1 2.212949 1_555
In1 O2 2.212949 1_555
In1 O3 2.212949 1_555
In2 O0 2.212950 1_545
In2 O6 2.212950 1_555
In2 O2 2.212954 1_555
In2 O1 2.212954 1_555
In2 O4 2.212954 1_545
In2 O7 2.212954 1_545
In3 O0 2.212950 1_554
In3 O6 2.212950 1_555
In3 O3 2.212954 1_555
In3 O1 2.212954 1_555
In3 O7 2.212954 1_554
In3 O5 2.212954 1_554
