# generated using pymatgen
data_Li8TiFe7(PO4)12
_symmetry_space_group_name_H-M   'P 1'
_cell_length_a   8.67242200
_cell_length_b   8.78938242
_cell_length_c   12.22126899
_cell_angle_alpha   90.04147969
_cell_angle_beta   90.05067947
_cell_angle_gamma   90.01762018
_symmetry_Int_Tables_number   1
_chemical_formula_structural   Li8TiFe7(PO4)12
_chemical_formula_sum   'Li8 Ti1 Fe7 P12 O48'
_cell_volume   931.56842845
_cell_formula_units_Z   1
loop_
 _symmetry_equiv_pos_site_id
 _symmetry_equiv_pos_as_xyz
  1  'x, y, z'
loop_
 _atom_site_type_symbol
 _atom_site_label
 _atom_site_symmetry_multiplicity
 _atom_site_fract_x
 _atom_site_fract_y
 _atom_site_fract_z
 _atom_site_occupancy
  Li  Li0  1  0.21670600  0.72267500  0.18219400  1
  Li  Li1  1  0.21696100  0.77711600  0.81758900  1
  Li  Li2  1  0.28334900  0.22279600  0.31851500  1
  Li  Li3  1  0.28303200  0.27757600  0.68227300  1
  Li  Li4  1  0.71672600  0.72366200  0.31727400  1
  Li  Li5  1  0.71583200  0.77981700  0.68165800  1
  Li  Li6  1  0.78328600  0.22243300  0.18259200  1
  Li  Li7  1  0.78367000  0.27772900  0.81924000  1
  Ti  Ti0  1  0.75321100  0.46003400  0.61091200  1
  Fe  Fe0  1  0.24835800  0.95955400  0.61299100  1
  Fe  Fe1  1  0.24902900  0.54106200  0.38767100  1
  Fe  Fe2  1  0.25113100  0.04070800  0.11285500  1
  Fe  Fe3  1  0.25107700  0.45948100  0.88707600  1
  Fe  Fe4  1  0.74914400  0.54080100  0.11228100  1
  Fe  Fe5  1  0.74878800  0.95971500  0.88760000  1
  Fe  Fe6  1  0.75147500  0.03919900  0.38767500  1
  P  P0  1  0.03982300  0.24914800  0.49889500  1
  P  P1  1  0.46077700  0.74987100  0.00004000  1
  P  P2  1  0.53943100  0.25017700  0.00034300  1
  P  P3  1  0.96053400  0.74958700  0.49951300  1
  P  P4  1  0.10569100  0.39281600  0.14688200  1
  P  P5  1  0.10560000  0.10732100  0.85331700  1
  P  P6  1  0.39457600  0.60611200  0.64703800  1
  P  P7  1  0.39427400  0.89269500  0.35332400  1
  P  P8  1  0.60516400  0.10745700  0.64620400  1
  P  P9  1  0.60508100  0.39261400  0.35344800  1
  P  P10  1  0.89470400  0.60737200  0.85212500  1
  P  P11  1  0.89443100  0.89267900  0.14689400  1
  O  O0  1  0.05600800  0.64184200  0.42908200  1
  O  O1  1  0.05516800  0.85600300  0.57240400  1
  O  O2  1  0.07311700  0.89541500  0.15583200  1
  O  O3  1  0.07292400  0.60417100  0.84331300  1
  O  O4  1  0.14487300  0.16459100  0.58147900  1
  O  O5  1  0.14657300  0.33819800  0.42071000  1
  O  O6  1  0.15604500  0.43443500  0.03072700  1
  O  O7  1  0.15569800  0.06606900  0.96953000  1
  O  O8  1  0.16223400  0.23238000  0.17966600  1
  O  O9  1  0.16176500  0.26792500  0.82060300  1
  O  O10  1  0.17381800  0.51403900  0.22589300  1
  O  O11  1  0.17399300  0.98596500  0.77433400  1
  O  O12  1  0.32627100  0.01393600  0.27405100  1
  O  O13  1  0.32687800  0.48544200  0.72603500  1
  O  O14  1  0.34098800  0.76761800  0.68016300  1
  O  O15  1  0.33785300  0.73234000  0.32057200  1
  O  O16  1  0.34506900  0.56582100  0.53057500  1
  O  O17  1  0.34387500  0.93507700  0.46962300  1
  O  O18  1  0.35253200  0.83730300  0.07955200  1
  O  O19  1  0.35272200  0.66249600  0.92038100  1
  O  O20  1  0.42721500  0.10778400  0.65631000  1
  O  O21  1  0.42750900  0.39528600  0.34669000  1
  O  O22  1  0.44357400  0.14264600  0.07111900  1
  O  O23  1  0.44385200  0.35750900  0.92890300  1
  O  O24  1  0.55639500  0.64276400  0.07148900  1
  O  O25  1  0.55660000  0.85702100  0.92874900  1
  O  O26  1  0.57476700  0.60038200  0.65467200  1
  O  O27  1  0.57295500  0.89578600  0.34378200  1
  O  O28  1  0.64691300  0.33774600  0.08036500  1
  O  O29  1  0.64744100  0.16323900  0.92034600  1
  O  O30  1  0.65557600  0.06610900  0.53045200  1
  O  O31  1  0.65839900  0.43103600  0.47324700  1
  O  O32  1  0.66286500  0.23275400  0.32182800  1
  O  O33  1  0.66466700  0.27077000  0.67666100  1
  O  O34  1  0.67551300  0.51473000  0.27744400  1
  O  O35  1  0.67496300  0.98912100  0.72607300  1
  O  O36  1  0.82618800  0.01370800  0.22609200  1
  O  O37  1  0.82651000  0.48706700  0.77040100  1
  O  O38  1  0.83796100  0.73200000  0.17914300  1
  O  O39  1  0.83718800  0.76751900  0.81933400  1
  O  O40  1  0.84210500  0.56358600  0.96728400  1
  O  O41  1  0.84409200  0.93403800  0.03060800  1
  O  O42  1  0.85121100  0.65728300  0.57826100  1
  O  O43  1  0.85070500  0.83602400  0.42127800  1
  O  O44  1  0.92679200  0.10488500  0.84431500  1
  O  O45  1  0.92681700  0.39545200  0.15527500  1
  O  O46  1  0.94379400  0.14181900  0.42891300  1
  O  O47  1  0.93717100  0.35866300  0.56802600  1
loop_
_geom_bond_atom_site_label_1
_geom_bond_atom_site_label_2
_geom_bond_distance
_geom_bond_site_symmetry_2
Li0 O10 1.946192 1_555
Li0 O2 1.990179 1_555
Li0 O15 1.991897 1_555
Li0 O18 1.994966 1_555
Li1 O11 1.946641 1_555
Li1 O3 1.992504 1_555
Li1 O19 1.994807 1_555
Li1 O14 1.996936 1_555
Li2 O12 1.950170 1_555
Li2 O21 1.994348 1_555
Li2 O8 1.996739 1_555
Li2 O5 1.999315 1_555
Li3 O13 1.940724 1_555
Li3 O20 1.972953 1_555
Li3 O4 1.983456 1_555
Li3 O9 1.993625 1_555
Li4 O34 1.932613 1_555
Li4 O43 1.983901 1_555
Li4 O27 1.987332 1_555
Li4 O38 1.990952 1_555
Li5 O35 1.950354 1_555
Li5 O39 1.986856 1_555
Li5 O26 2.022395 1_555
Li5 O42 2.033857 1_555
Li6 O36 1.946321 1_555
Li6 O45 1.993442 1_555
Li6 O28 1.996698 1_555
Li6 O32 1.999359 1_555
Li7 O37 1.970095 1_555
Li7 O29 1.984663 1_555
Li7 O44 1.985857 1_555
Li7 O33 2.025284 1_555
Fe0 O17 1.950537 1_555
Fe0 O1 1.969365 1_555
Fe0 O14 2.041297 1_555
Fe0 O4 2.050094 1_565
Fe0 O11 2.087954 1_555
Fe0 O20 2.092842 1_565
Fe1 O16 1.946277 1_555
Fe1 O0 1.960782 1_555
Fe1 O15 2.023525 1_555
Fe1 O5 2.032858 1_555
Fe1 O21 2.071240 1_555
Fe1 O10 2.094721 1_555
Fe2 O7 1.949598 1_554
Fe2 O22 1.962031 1_555
Fe2 O8 2.024630 1_555
Fe2 O18 2.033660 1_545
Fe2 O2 2.071531 1_545
Fe2 O12 2.087938 1_555
Fe3 O6 1.952646 1_556
Fe3 O23 1.964607 1_555
Fe3 O9 2.022550 1_555
Fe3 O19 2.030782 1_555
Fe3 O3 2.071516 1_555
Fe3 O13 2.088199 1_555
Fe4 O40 1.957844 1_554
Fe4 O24 1.961131 1_555
Fe4 O38 2.020215 1_555
Fe4 O28 2.029987 1_555
Fe4 O45 2.069578 1_555
Fe4 O34 2.130135 1_555
Fe5 O41 1.945967 1_556
Fe5 O25 1.961336 1_555
Fe5 O29 2.033028 1_565
Fe5 O39 2.034050 1_555
Fe5 O44 2.071762 1_565
Fe5 O35 2.090992 1_555
Fe6 O30 1.947935 1_555
Fe6 O46 1.961190 1_555
Fe6 O43 2.024753 1_545
Fe6 O32 2.033225 1_555
Fe6 O27 2.066379 1_545
Fe6 O36 2.090783 1_555
O0 P3 1.524423 1_455
O1 P3 1.529376 1_455
O2 P11 1.553567 1_455
O3 P10 1.549704 1_455
O4 P0 1.549473 1_555
O5 P0 1.544313 1_555
O6 P4 1.530169 1_555
O7 P5 1.528773 1_555
O8 P4 1.546079 1_555
O9 P5 1.546118 1_555
O10 P4 1.553653 1_555
O11 P5 1.556020 1_565
O12 P7 1.556553 1_545
O13 P6 1.550413 1_555
O14 P6 1.547534 1_555
O15 P7 1.544189 1_555
O16 P6 1.527645 1_555
O17 P7 1.533099 1_555
O18 P1 1.554685 1_555
O19 P1 1.553243 1_556
O20 P8 1.548295 1_555
O21 P9 1.542306 1_555
O22 P2 1.527908 1_555
O23 P2 1.529615 1_556
O24 P1 1.528641 1_555
O25 P1 1.529260 1_556
O26 P6 1.566220 1_555
O26 Ti0 2.050435 1_555
O27 P7 1.554312 1_555
O28 P2 1.553882 1_555
O29 P2 1.555033 1_556
O30 P8 1.524749 1_555
O31 P9 1.571440 1_555
O31 Ti0 1.889038 1_555
O32 P9 1.540998 1_555
O33 P8 1.569619 1_555
O33 Ti0 2.001211 1_555
O34 P9 1.545948 1_555
O35 P8 1.549778 1_565
O36 P11 1.555189 1_545
O37 P10 1.569221 1_555
O37 Ti0 2.063203 1_555
O38 P11 1.546091 1_555
O39 P10 1.546485 1_555
O40 P10 1.529297 1_555
O41 P11 1.530419 1_555
O42 P3 1.576569 1_555
O42 Ti0 1.971790 1_555
O43 P3 1.548704 1_555
O44 P5 1.554639 1_655
O45 P4 1.554927 1_655
O46 P0 1.520545 1_655
O47 P0 1.559985 1_655
O47 Ti0 1.901440 1_555
