# generated using pymatgen
data_Li3MnPCO7
_symmetry_space_group_name_H-M   'P 1'
_cell_length_a   5.07680600
_cell_length_b   6.80162173
_cell_length_c   8.79294904
_cell_angle_alpha   95.28375065
_cell_angle_beta   92.38941845
_cell_angle_gamma   95.29358908
_symmetry_Int_Tables_number   1
_chemical_formula_structural   Li3MnPCO7
_chemical_formula_sum   'Li6 Mn2 P2 C2 O14'
_cell_volume   300.65955191
_cell_formula_units_Z   2
loop_
 _symmetry_equiv_pos_site_id
 _symmetry_equiv_pos_as_xyz
  1  'x, y, z'
loop_
 _atom_site_type_symbol
 _atom_site_label
 _atom_site_symmetry_multiplicity
 _atom_site_fract_x
 _atom_site_fract_y
 _atom_site_fract_z
 _atom_site_occupancy
  Li  Li0  1  0.13525700  0.58999800  0.26592300  1
  Li  Li1  1  0.23773200  0.95100000  0.30111600  1
  Li  Li2  1  0.46097400  0.28546800  0.24797200  1
  Li  Li3  1  0.53902600  0.71453200  0.75202800  1
  Li  Li4  1  0.76226800  0.04900000  0.69888400  1
  Li  Li5  1  0.86474300  0.41000200  0.73407700  1
  Mn  Mn0  1  0.68176300  0.76743000  0.13141700  1
  Mn  Mn1  1  0.31823700  0.23257000  0.86858300  1
  P  P0  1  0.84645300  0.26010300  0.08111400  1
  P  P1  1  0.15354700  0.73989700  0.91888600  1
  C  C0  1  0.71819300  0.77888400  0.43951700  1
  C  C1  1  0.28180700  0.22111600  0.56048300  1
  O  O0  1  0.26087100  0.21460100  0.41428900  1
  O  O1  1  0.48884000  0.75378200  0.36412900  1
  O  O2  1  0.92704200  0.79627500  0.35846100  1
  O  O3  1  0.76230700  0.45270600  0.16901200  1
  O  O4  1  0.70259100  0.08666100  0.15712100  1
  O  O5  1  0.15416900  0.26432300  0.09228300  1
  O  O6  1  0.24709700  0.75235100  0.09168300  1
  O  O7  1  0.75290300  0.24764900  0.90831700  1
  O  O8  1  0.84583100  0.73567700  0.90771700  1
  O  O9  1  0.23769300  0.54729400  0.83098800  1
  O  O10  1  0.29740900  0.91333900  0.84287900  1
  O  O11  1  0.07295800  0.20372500  0.64153900  1
  O  O12  1  0.51116000  0.24621800  0.63587100  1
  O  O13  1  0.73912900  0.78539900  0.58571100  1
loop_
_geom_bond_atom_site_label_1
_geom_bond_atom_site_label_2
_geom_bond_distance
_geom_bond_site_symmetry_2
Li0 O2 1.970545 1_455
Li0 O6 2.038995 1_555
Li0 O1 2.129211 1_555
Li0 O3 2.139100 1_455
Li1 O2 1.925469 1_455
Li1 O0 1.959949 1_565
Li1 O1 2.031025 1_555
Li1 O6 2.186314 1_555
Li2 O0 1.888483 1_555
Li2 O3 2.007279 1_555
Li2 O5 2.016295 1_555
Li2 O4 2.039631 1_555
Li3 O13 1.888483 1_555
Li3 O9 2.007279 1_555
Li3 O8 2.016295 1_555
Li3 O10 2.039631 1_555
Li4 O11 1.925469 1_655
Li4 O13 1.959949 1_545
Li4 O12 2.031025 1_555
Li4 O7 2.186314 1_555
Li5 O11 1.970545 1_655
Li5 O7 2.038995 1_555
Li5 O12 2.129211 1_555
Li5 O9 2.139100 1_655
Mn0 O4 2.154534 1_565
Mn0 O8 2.168184 1_554
Mn0 O6 2.211228 1_555
Mn0 O3 2.267017 1_555
Mn0 O2 2.291322 1_555
Mn0 O1 2.310900 1_555
Mn1 O10 2.154534 1_545
Mn1 O5 2.168184 1_556
Mn1 O7 2.211228 1_555
Mn1 O9 2.267017 1_555
Mn1 O11 2.291322 1_555
Mn1 O12 2.310900 1_555
C0 O13 1.281779 1_555
C0 O2 1.304441 1_555
C0 O1 1.304784 1_555
C1 O0 1.281779 1_555
C1 O11 1.304441 1_555
C1 O12 1.304784 1_555
O3 P0 1.562143 1_555
O4 P0 1.548765 1_555
O5 P0 1.558652 1_455
O6 P1 1.565249 1_554
O7 P0 1.565249 1_556
O8 P1 1.558652 1_655
O9 P1 1.562143 1_555
O10 P1 1.548765 1_555
