# generated using pymatgen
data_Mn2Cu(PO4)3
_symmetry_space_group_name_H-M   'P 1'
_cell_length_a   8.55713375
_cell_length_b   8.55713375
_cell_length_c   8.55713315
_cell_angle_alpha   59.81676821
_cell_angle_beta   59.81676821
_cell_angle_gamma   59.81677257
_symmetry_Int_Tables_number   1
_chemical_formula_structural   Mn2Cu(PO4)3
_chemical_formula_sum   'Mn4 Cu2 P6 O24'
_cell_volume   441.22479725
_cell_formula_units_Z   2
loop_
 _symmetry_equiv_pos_site_id
 _symmetry_equiv_pos_as_xyz
  1  'x, y, z'
loop_
 _atom_site_type_symbol
 _atom_site_label
 _atom_site_symmetry_multiplicity
 _atom_site_fract_x
 _atom_site_fract_y
 _atom_site_fract_z
 _atom_site_occupancy
  Mn  Mn0  1  0.14243900  0.14243900  0.14243900  1
  Mn  Mn1  1  0.35756100  0.35756100  0.35756100  1
  Mn  Mn2  1  0.64243900  0.64243900  0.64243900  1
  Mn  Mn3  1  0.85756100  0.85756100  0.85756100  1
  Cu  Cu0  1  0.00000000  0.00000000  0.00000000  1
  Cu  Cu1  1  0.50000000  0.50000000  0.50000000  1
  P  P0  1  0.03907200  0.46092800  0.75000000  1
  P  P1  1  0.46092800  0.75000000  0.03907200  1
  P  P2  1  0.75000000  0.03907200  0.46092800  1
  P  P3  1  0.25000000  0.96092800  0.53907200  1
  P  P4  1  0.53907200  0.25000000  0.96092800  1
  P  P5  1  0.96092800  0.53907200  0.25000000  1
  O  O0  1  0.12126400  0.51048100  0.30233000  1
  O  O1  1  0.30233000  0.12126400  0.51048100  1
  O  O2  1  0.05465600  0.26344900  0.91800400  1
  O  O3  1  0.51048100  0.30233000  0.12126400  1
  O  O4  1  0.01048100  0.62126400  0.80233000  1
  O  O5  1  0.23655100  0.44534400  0.58199600  1
  O  O6  1  0.26344900  0.91800400  0.05465600  1
  O  O7  1  0.44534400  0.58199600  0.23655100  1
  O  O8  1  0.19767000  0.98951900  0.37873600  1
  O  O9  1  0.58199600  0.23655100  0.44534400  1
  O  O10  1  0.08199600  0.94534400  0.73655100  1
  O  O11  1  0.37873600  0.19767000  0.98951900  1
  O  O12  1  0.62126400  0.80233000  0.01048100  1
  O  O13  1  0.91800400  0.05465600  0.26344900  1
  O  O14  1  0.41800400  0.76344900  0.55465600  1
  O  O15  1  0.80233000  0.01048100  0.62126400  1
  O  O16  1  0.55465600  0.41800400  0.76344900  1
  O  O17  1  0.73655100  0.08199600  0.94534400  1
  O  O18  1  0.76344900  0.55465600  0.41800400  1
  O  O19  1  0.98951900  0.37873600  0.19767000  1
  O  O20  1  0.48951900  0.69767000  0.87873600  1
  O  O21  1  0.94534400  0.73655100  0.08199600  1
  O  O22  1  0.69767000  0.87873600  0.48951900  1
  O  O23  1  0.87873600  0.48951900  0.69767000  1
loop_
_geom_bond_atom_site_label_1
_geom_bond_atom_site_label_2
_geom_bond_distance
_geom_bond_site_symmetry_2
Mn0 O8 1.924256 1_545
Mn0 O11 1.924256 1_554
Mn0 O19 1.924256 1_455
Mn0 O2 1.998423 1_554
Mn0 O13 1.998423 1_455
Mn0 O6 1.998423 1_545
Mn1 O3 1.924256 1_555
Mn1 O1 1.924256 1_555
Mn1 O0 1.924256 1_555
Mn1 O5 1.998423 1_555
Mn1 O7 1.998423 1_555
Mn1 O9 1.998423 1_555
Mn2 O20 1.924256 1_555
Mn2 O22 1.924256 1_555
Mn2 O23 1.924256 1_555
Mn2 O18 1.998423 1_555
Mn2 O16 1.998423 1_555
Mn2 O14 1.998423 1_555
Mn3 O15 1.924256 1_565
Mn3 O12 1.924256 1_556
Mn3 O4 1.924256 1_655
Mn3 O21 1.998423 1_556
Mn3 O10 1.998423 1_655
Mn3 O17 1.998423 1_565
Cu0 O13 2.221018 1_455
Cu0 O10 2.221018 1_544
Cu0 O2 2.221018 1_554
Cu0 O21 2.221018 1_445
Cu0 O6 2.221018 1_545
Cu0 O17 2.221018 1_454
Cu1 O16 2.221018 1_555
Cu1 O7 2.221018 1_555
Cu1 O18 2.221018 1_555
Cu1 O5 2.221018 1_555
Cu1 O14 2.221018 1_555
Cu1 O9 2.221018 1_555
O0 P5 1.520821 1_455
O1 P3 1.520821 1_545
O2 P0 1.569562 1_555
O3 P4 1.520820 1_554
O4 P0 1.520821 1_555
O5 P0 1.569562 1_555
O6 P1 1.569562 1_555
O7 P1 1.569562 1_555
O8 P3 1.520820 1_555
O9 P2 1.569562 1_555
O10 P3 1.569562 1_555
O11 P4 1.520821 1_555
O12 P1 1.520821 1_555
O13 P2 1.569562 1_555
O14 P3 1.569562 1_555
O15 P2 1.520820 1_555
O16 P4 1.569562 1_555
O17 P4 1.569562 1_555
O18 P5 1.569562 1_555
O19 P5 1.520821 1_555
O20 P1 1.520820 1_556
O21 P5 1.569562 1_555
O22 P2 1.520821 1_565
O23 P0 1.520821 1_655
