# generated using pymatgen
data_Cr3O
_symmetry_space_group_name_H-M   'P 1'
_cell_length_a   5.66676647
_cell_length_b   5.66676647
_cell_length_c   5.66676699
_cell_angle_alpha   57.98425882
_cell_angle_beta   57.98425882
_cell_angle_gamma   57.98425780
_symmetry_Int_Tables_number   1
_chemical_formula_structural   Cr3O
_chemical_formula_sum   'Cr6 O2'
_cell_volume   122.72381634
_cell_formula_units_Z   2
loop_
 _symmetry_equiv_pos_site_id
 _symmetry_equiv_pos_as_xyz
  1  'x, y, z'
loop_
 _atom_site_type_symbol
 _atom_site_label
 _atom_site_symmetry_multiplicity
 _atom_site_fract_x
 _atom_site_fract_y
 _atom_site_fract_z
 _atom_site_occupancy
  Cr  Cr0  1  0.40994400  0.75000000  0.09005600  1
  Cr  Cr1  1  0.09005600  0.40994400  0.75000000  1
  Cr  Cr2  1  0.75000000  0.09005600  0.40994400  1
  Cr  Cr3  1  0.59005600  0.25000000  0.90994400  1
  Cr  Cr4  1  0.90994400  0.59005600  0.25000000  1
  Cr  Cr5  1  0.25000000  0.90994400  0.59005600  1
  O  O0  1  0.50000000  0.50000000  0.50000000  1
  O  O1  1  0.00000000  0.00000000  0.00000000  1
loop_
_geom_bond_atom_site_label_1
_geom_bond_atom_site_label_2
_geom_bond_distance
_geom_bond_site_symmetry_2
Cr0 O1 2.159851 1_565
Cr0 O0 2.159851 1_555
Cr1 O0 2.159851 1_555
Cr1 O1 2.159851 1_556
Cr2 O0 2.159851 1_555
Cr2 O1 2.159851 1_655
Cr3 O1 2.159851 1_656
Cr3 O0 2.159851 1_555
Cr4 O0 2.159851 1_555
Cr4 O1 2.159851 1_665
Cr5 O0 2.159851 1_555
Cr5 O1 2.159851 1_566
