# generated using pymatgen
data_Fe3(O2F)2
_symmetry_space_group_name_H-M   'P 1'
_cell_length_a   4.66430400
_cell_length_b   5.51529800
_cell_length_c   7.71112473
_cell_angle_alpha   86.21555079
_cell_angle_beta   90.00000000
_cell_angle_gamma   90.00000000
_symmetry_Int_Tables_number   1
_chemical_formula_structural   Fe3(O2F)2
_chemical_formula_sum   'Fe6 O8 F4'
_cell_volume   197.93632882
_cell_formula_units_Z   2
loop_
 _symmetry_equiv_pos_site_id
 _symmetry_equiv_pos_as_xyz
  1  'x, y, z'
loop_
 _atom_site_type_symbol
 _atom_site_label
 _atom_site_symmetry_multiplicity
 _atom_site_fract_x
 _atom_site_fract_y
 _atom_site_fract_z
 _atom_site_occupancy
  Fe  Fe0  1  0.53280600  0.33212000  0.16296700  1
  Fe  Fe1  1  0.46719400  0.66788000  0.83703300  1
  Fe  Fe2  1  0.50000000  0.00000000  0.50000000  1
  Fe  Fe3  1  0.96719400  0.83212000  0.16296700  1
  Fe  Fe4  1  0.00000000  0.50000000  0.50000000  1
  Fe  Fe5  1  0.03280600  0.16788000  0.83703300  1
  O  O0  1  0.80793100  0.79087900  0.39567000  1
  O  O1  1  0.81369000  0.13446600  0.05988900  1
  O  O2  1  0.68631000  0.63446600  0.05988900  1
  O  O3  1  0.69206900  0.29087900  0.39567000  1
  O  O4  1  0.30793100  0.70912100  0.60433000  1
  O  O5  1  0.31369000  0.36553400  0.94011100  1
  O  O6  1  0.19206900  0.20912100  0.60433000  1
  O  O7  1  0.18631000  0.86553400  0.94011100  1
  F  F0  1  0.79622000  0.46544500  0.74288500  1
  F  F1  1  0.70378000  0.96544500  0.74288500  1
  F  F2  1  0.29622000  0.03455500  0.25711500  1
  F  F3  1  0.20378000  0.53455500  0.25711500  1
loop_
_geom_bond_atom_site_label_1
_geom_bond_atom_site_label_2
_geom_bond_distance
_geom_bond_site_symmetry_2
Fe0 O1 1.910749 1_555
Fe0 O2 1.936520 1_555
Fe0 O3 1.941537 1_555
Fe0 O5 1.997456 1_554
Fe1 O7 1.910749 1_555
Fe1 O5 1.936520 1_555
Fe1 O4 1.941537 1_555
Fe1 O2 1.997456 1_556
Fe2 O4 1.962946 1_545
Fe2 O3 1.962946 1_555
Fe2 O0 2.040311 1_545
Fe2 O6 2.040311 1_555
Fe3 O2 1.910749 1_555
Fe3 O1 1.936520 1_565
Fe3 O0 1.941537 1_555
Fe3 O7 1.997456 1_654
Fe4 O0 1.962946 1_455
Fe4 O6 1.962946 1_555
Fe4 O3 2.040311 1_455
Fe4 O4 2.040311 1_555
Fe5 O5 1.910749 1_555
Fe5 O7 1.936520 1_545
Fe5 O6 1.941537 1_555
Fe5 O1 1.997456 1_456
F0 Fe1 2.058115 1_555
F0 Fe5 2.069037 1_655
F0 Fe4 2.097726 1_655
F1 Fe5 2.058115 1_665
F1 Fe1 2.069037 1_555
F1 Fe2 2.097726 1_565
F2 Fe3 2.058115 1_445
F2 Fe0 2.069037 1_555
F2 Fe2 2.097726 1_555
F3 Fe0 2.058115 1_555
F3 Fe3 2.069037 1_455
F3 Fe4 2.097726 1_555
