# generated using pymatgen
data_K7H12Pt4C16(N8O3)2
_symmetry_space_group_name_H-M   'P 1'
_cell_length_a   9.81393500
_cell_length_b   10.29231571
_cell_length_c   11.05580885
_cell_angle_alpha   101.99523184
_cell_angle_beta   109.14680145
_cell_angle_gamma   106.39582533
_symmetry_Int_Tables_number   1
_chemical_formula_structural   K7H12Pt4C16(N8O3)2
_chemical_formula_sum   'K7 H12 Pt4 C16 N16 O6'
_cell_volume   954.83008021
_cell_formula_units_Z   1
loop_
 _symmetry_equiv_pos_site_id
 _symmetry_equiv_pos_as_xyz
  1  'x, y, z'
loop_
 _atom_site_type_symbol
 _atom_site_label
 _atom_site_symmetry_multiplicity
 _atom_site_fract_x
 _atom_site_fract_y
 _atom_site_fract_z
 _atom_site_occupancy
  K  K0  1  0.01127900  0.65439500  0.39715600  1
  K  K1  1  0.36695900  0.76687400  0.86289600  1
  K  K2  1  0.27542500  0.06954300  0.67509000  1
  K  K3  1  0.72458500  0.93033800  0.32537400  1
  K  K4  1  0.98852100  0.49974200  0.99571100  1
  K  K5  1  0.63099900  0.23063100  0.13882100  1
  K  K6  1  0.99021000  0.34593100  0.60319000  1
  H  H0  1  0.25240500  0.90314700  0.36551800  1
  H  H1  1  0.27193500  0.33924400  0.87712400  1
  H  H2  1  0.37495500  0.87585700  0.47680000  1
  H  H3  1  0.38348500  0.42490800  0.82579500  1
  H  H4  1  0.34976600  0.71710800  0.15515200  1
  H  H5  1  0.34427000  0.58007400  0.06277000  1
  H  H6  1  0.63946000  0.41236700  0.93438200  1
  H  H7  1  0.63789500  0.27755800  0.84156500  1
  H  H8  1  0.61684700  0.57501500  0.17408900  1
  H  H9  1  0.62562700  0.12360700  0.52319700  1
  H  H10  1  0.72670600  0.66180600  0.12205300  1
  H  H11  1  0.74725600  0.09605300  0.63503500  1
  Pt  Pt0  1  0.00045500  0.00049200  0.00013900  1
  Pt  Pt1  1  0.23643200  0.24440500  0.25796400  1
  Pt  Pt2  1  0.50010800  0.50008800  0.49977100  1
  Pt  Pt3  1  0.76393100  0.75665800  0.74155900  1
  C  C0  1  0.18015400  0.00029000  0.95105400  1
  C  C1  1  0.04134100  0.78394300  0.16177300  1
  C  C2  1  0.08857000  0.34646200  0.23474300  1
  C  C3  1  0.06366500  0.13077500  0.43205200  1
  C  C4  1  0.33632700  0.53637800  0.55687500  1
  C  C5  1  0.62101200  0.86528700  0.72357900  1
  C  C6  1  0.46400300  0.72981000  0.35416000  1
  C  C7  1  0.40724000  0.41078500  0.10661400  1
  C  C8  1  0.59438200  0.58935900  0.89321800  1
  C  C9  1  0.53624700  0.27013900  0.64504100  1
  C  C10  1  0.37873000  0.13511500  0.27706000  1
  C  C11  1  0.66398600  0.46390100  0.44273300  1
  C  C12  1  0.93617200  0.86978300  0.56723100  1
  C  C13  1  0.91246400  0.65546000  0.76271300  1
  C  C14  1  0.96378300  0.22052900  0.84189700  1
  C  C15  1  0.82047300  0.00007800  0.04917900  1
  N  N0  1  0.00601600  0.60349300  0.77276300  1
  N  N1  1  0.02876400  0.86354300  0.09992500  1
  N  N2  1  0.24020300  0.56394200  0.58525300  1
  N  N3  1  0.13645200  0.16255700  0.36905600  1
  N  N4  1  0.28668300  0.00677200  0.92339200  1
  N  N5  1  0.53542100  0.92561600  0.72075900  1
  N  N6  1  0.66418800  0.65985600  0.84565900  1
  N  N7  1  0.48226700  0.64441600  0.40728700  1
  N  N8  1  0.51804000  0.35568100  0.59229800  1
  N  N9  1  0.33726100  0.34040500  0.15414400  1
  N  N10  1  0.46405200  0.07441900  0.28041000  1
  N  N11  1  0.71380500  0.99258700  0.07691300  1
  N  N12  1  0.86309900  0.83896800  0.63022800  1
  N  N13  1  0.76031800  0.43644100  0.41464900  1
  N  N14  1  0.97334100  0.13838400  0.90117500  1
  N  N15  1  0.99534000  0.39895100  0.22293400  1
  O  O0  1  0.28073700  0.89730600  0.45713900  1
  O  O1  1  0.28076800  0.34722500  0.79332600  1
  O  O2  1  0.30569100  0.65808500  0.05853300  1
  O  O3  1  0.67813800  0.33434800  0.93847900  1
  O  O4  1  0.71977600  0.65283500  0.20632000  1
  O  O5  1  0.72117800  0.10423400  0.54438300  1
loop_
_geom_bond_atom_site_label_1
_geom_bond_atom_site_label_2
_geom_bond_distance
_geom_bond_site_symmetry_2
K0 O0 2.848065 1_555
K0 N15 2.848164 1_455
K0 N13 2.917063 1_455
K0 O4 2.938783 1_455
K0 N2 3.026458 1_555
K1 O2 2.788042 1_556
K1 N4 2.814581 1_565
K1 N2 2.948831 1_555
K1 N5 3.019708 1_555
K1 N0 3.161265 1_555
K1 N11 3.248037 1_556
K2 O0 2.703809 1_545
K2 O1 2.863069 1_555
K2 N4 2.923036 1_555
K2 N5 3.249540 1_545
K3 O5 2.711611 1_565
K3 O4 2.865803 1_555
K3 N11 2.923440 1_555
K3 N10 3.255284 1_565
K4 O3 2.817334 1_555
K4 O2 2.841604 1_656
K4 N15 2.898891 1_556
K4 N0 2.917791 1_655
K5 O3 2.763275 1_554
K5 N11 2.814843 1_545
K5 N13 2.942056 1_555
K5 N10 2.993523 1_555
K5 N15 3.209860 1_555
K5 N4 3.231697 1_554
K6 O5 2.841784 1_555
K6 N0 2.842087 1_655
K6 N2 2.913700 1_655
K6 O1 2.930024 1_655
K6 N13 3.035075 1_555
H0 O0 0.978251 1_555
H1 O1 0.976153 1_555
H2 O0 0.976882 1_555
H3 O1 0.986213 1_555
H4 O2 0.987939 1_555
H5 O2 0.982766 1_555
H6 O3 0.983287 1_555
H7 O3 0.988649 1_555
H8 O4 0.988619 1_555
H9 O5 0.977163 1_555
H10 O4 0.977178 1_555
H11 O5 0.977774 1_555
C0 N4 1.170396 1_555
C0 Pt0 2.008487 1_556
C1 N1 1.178375 1_555
C1 K4 2.912562 1_454
C1 K0 3.218838 1_555
C2 N15 1.173048 1_455
C2 Pt1 2.000796 1_555
C3 N3 1.179608 1_555
C3 K6 3.009613 1_455
C3 K3 3.042866 1_445
C3 K2 3.117079 1_555
C4 N2 1.173489 1_555
C4 Pt2 2.007035 1_555
C5 N5 1.173631 1_555
C5 Pt3 2.012858 1_555
C6 N7 1.176453 1_555
C6 K3 2.954340 1_555
C7 N9 1.177542 1_555
C7 K5 3.232222 1_555
C8 N6 1.177500 1_555
C8 K1 3.240026 1_555
C9 N8 1.175143 1_555
C9 K2 2.963850 1_555
C10 N10 1.173606 1_555
C10 Pt1 2.013007 1_555
C11 N13 1.173447 1_555
C11 Pt2 2.007185 1_555
C12 N12 1.179413 1_555
C12 K0 3.015345 1_655
C12 K2 3.040749 1_665
C12 K3 3.103424 1_555
C13 N0 1.173185 1_655
C13 Pt3 1.999792 1_555
C14 N14 1.178078 1_555
C14 K4 2.917740 1_555
C14 K6 3.220839 1_555
C15 N11 1.170743 1_545
C15 Pt0 2.009682 1_655
N1 Pt0 1.986805 1_565
N3 Pt1 1.983649 1_555
N6 Pt3 1.985068 1_555
N7 Pt2 1.985820 1_555
N8 Pt2 1.986957 1_555
N9 Pt1 1.984292 1_555
N12 Pt3 1.983336 1_555
N14 Pt0 1.987408 1_656
