# generated using pymatgen
data_Cs2ZnH12(SO7)2
_symmetry_space_group_name_H-M   'P 1'
_cell_length_a   12.74632254
_cell_length_b   6.33550645
_cell_length_c   9.23591418
_cell_angle_alpha   72.93820023
_cell_angle_beta   90.00000000
_cell_angle_gamma   90.00000000
_symmetry_Int_Tables_number   1
_chemical_formula_structural   Cs2ZnH12(SO7)2
_chemical_formula_sum   'Cs4 Zn2 H24 S4 O28'
_cell_volume   713.01547277
_cell_formula_units_Z   2
loop_
 _symmetry_equiv_pos_site_id
 _symmetry_equiv_pos_as_xyz
  1  'x, y, z'
loop_
 _atom_site_type_symbol
 _atom_site_label
 _atom_site_symmetry_multiplicity
 _atom_site_fract_x
 _atom_site_fract_y
 _atom_site_fract_z
 _atom_site_occupancy
  Cs  Cs0  1  0.35546854  0.64304168  0.13026929  1
  Cs  Cs1  1  0.85546854  0.35695832  0.36973071  1
  Cs  Cs2  1  0.14453146  0.64304168  0.63026929  1
  Cs  Cs3  1  0.64453146  0.35695832  0.86973071  1
  Zn  Zn0  1  -0.00000000  0.00000000  0.00000000  1
  Zn  Zn1  1  0.50000000  0.00000000  0.50000000  1
  H  H0  1  0.05944214  0.33744905  0.09566707  1
  H  H1  1  0.86021507  0.68905291  0.02468091  1
  H  H2  1  0.40406099  0.07398127  0.22093435  1
  H  H3  1  0.63067885  0.08621792  0.26379618  1
  H  H4  1  0.10011945  0.68105226  0.20936167  1
  H  H5  1  0.31689802  0.01522585  0.34704039  1
  H  H6  1  0.81689802  0.98477415  0.15295961  1
  H  H7  1  0.60011945  0.31894774  0.29063833  1
  H  H8  1  0.13067885  0.91378208  0.23620382  1
  H  H9  1  0.90406099  0.92601873  0.27906565  1
  H  H10  1  0.36021507  0.31094709  0.47531909  1
  H  H11  1  0.55944214  0.66255095  0.40433293  1
  H  H12  1  0.44055786  0.33744905  0.59566707  1
  H  H13  1  0.63978493  0.68905291  0.52468091  1
  H  H14  1  0.09593901  0.07398127  0.72093435  1
  H  H15  1  0.86932115  0.08621792  0.76379618  1
  H  H16  1  0.39988055  0.68105226  0.70936167  1
  H  H17  1  0.18310198  0.01522585  0.84704039  1
  H  H18  1  0.68310198  0.98477415  0.65295961  1
  H  H19  1  0.89988055  0.31894774  0.79063833  1
  H  H20  1  0.36932115  0.91378208  0.73620382  1
  H  H21  1  0.59593901  0.92601873  0.77906565  1
  H  H22  1  0.13978493  0.31094709  0.97531909  1
  H  H23  1  0.94055786  0.66255095  0.90433293  1
  S  S0  1  0.64576846  0.74195688  0.10501733  1
  S  S1  1  0.14576846  0.25804312  0.39498267  1
  S  S2  1  0.85423154  0.74195688  0.60501733  1
  S  S3  1  0.35423154  0.25804312  0.89498267  1
  O  O0  1  0.06438713  0.29772023  0.00070016  1
  O  O1  1  0.42155031  0.19732445  0.03043179  1
  O  O2  1  0.89100674  0.01081725  0.17280807  1
  O  O3  1  0.73734364  0.61452643  0.08010181  1
  O  O4  1  0.68229988  0.94265055  0.14207372  1
  O  O5  1  0.11381900  0.83897306  0.15981194  1
  O  O6  1  0.08423545  0.39822437  0.26575841  1
  O  O7  1  0.58423545  0.60177563  0.23424159  1
  O  O8  1  0.61381900  0.16102694  0.34018806  1
  O  O9  1  0.18229988  0.05734945  0.35792628  1
  O  O10  1  0.23734364  0.38547357  0.41989819  1
  O  O11  1  0.39100674  0.98918275  0.32719193  1
  O  O12  1  0.43561287  0.29772023  0.50070016  1
  O  O13  1  0.07844969  0.19732445  0.53043179  1
  O  O14  1  0.92155031  0.80267555  0.46956821  1
  O  O15  1  0.56438713  0.70227977  0.49929984  1
  O  O16  1  0.60899326  0.01081725  0.67280807  1
  O  O17  1  0.76265636  0.61452643  0.58010181  1
  O  O18  1  0.81770012  0.94265055  0.64207372  1
  O  O19  1  0.38618100  0.83897306  0.65981194  1
  O  O20  1  0.41576455  0.39822437  0.76575841  1
  O  O21  1  0.91576455  0.60177563  0.73424159  1
  O  O22  1  0.88618100  0.16102694  0.84018806  1
  O  O23  1  0.31770012  0.05734945  0.85792628  1
  O  O24  1  0.26265636  0.38547357  0.91989819  1
  O  O25  1  0.10899326  0.98918275  0.82719193  1
  O  O26  1  0.57844969  0.80267555  0.96956821  1
  O  O27  1  0.93561287  0.70227977  0.99929984  1
loop_
_geom_bond_atom_site_label_1
_geom_bond_atom_site_label_2
_geom_bond_distance
_geom_bond_site_symmetry_2
Cs0 O7 3.057099 1_555
Cs0 O10 3.086089 1_555
Cs0 O23 3.094219 1_564
Cs0 O24 3.114165 1_554
Cs0 O26 3.228461 1_554
Cs1 O6 3.057099 1_655
Cs1 O3 3.086089 1_555
Cs1 O18 3.094219 1_545
Cs1 O17 3.114165 1_555
Cs1 O13 3.228461 1_655
Cs2 O21 3.057099 1_455
Cs2 O24 3.086089 1_555
Cs2 O9 3.094219 1_565
Cs2 O10 3.114165 1_555
Cs2 O14 3.228461 1_455
Cs3 O20 3.057099 1_555
Cs3 O17 3.086089 1_555
Cs3 O4 3.094219 1_546
Cs3 O3 3.114165 1_556
Cs3 O1 3.228461 1_556
H0 O0 0.982950 1_555
H1 O27 0.986941 1_554
H2 O11 0.984909 1_545
H3 O8 0.982262 1_555
H4 O5 0.986032 1_555
H5 O11 0.985329 1_545
H6 O2 0.985329 1_565
H7 O8 0.986032 1_555
H8 O5 0.982262 1_555
H9 O2 0.984909 1_565
H10 O12 0.986941 1_555
H11 O15 0.982950 1_555
H12 O12 0.982950 1_555
H13 O15 0.986941 1_555
H14 O25 0.984909 1_545
H15 O22 0.982262 1_555
H16 O19 0.986032 1_555
H17 O25 0.985329 1_545
H18 O16 0.985329 1_565
H19 O22 0.986032 1_555
H20 O19 0.982262 1_555
H21 O16 0.984909 1_565
H22 O0 0.986941 1_556
H23 O27 0.982950 1_555
O0 Zn0 2.058769 1_555
O1 S3 1.472025 1_554
O2 Zn0 2.132201 1_655
O3 S0 1.475205 1_555
O4 S0 1.485267 1_555
O5 Zn0 2.107253 1_565
O6 S1 1.485384 1_555
O7 S0 1.485384 1_555
O8 Zn1 2.107253 1_555
O9 S1 1.485267 1_555
O10 S1 1.475205 1_555
O11 Zn1 2.132201 1_565
O12 Zn1 2.058769 1_555
O13 S1 1.472025 1_555
O14 S2 1.472025 1_555
O15 Zn1 2.058769 1_565
O16 Zn1 2.132201 1_555
O17 S2 1.475205 1_555
O18 S2 1.485267 1_555
O19 Zn1 2.107253 1_565
O20 S3 1.485384 1_555
O21 S2 1.485384 1_555
O22 Zn0 2.107253 1_656
O23 S3 1.485267 1_555
O24 S3 1.475205 1_555
O25 Zn0 2.132201 1_566
O26 S0 1.472025 1_556
O27 Zn0 2.058769 1_666
