# generated using pymatgen
data_HoTiO3
_symmetry_space_group_name_H-M   'P 1'
_cell_length_a   5.32805500
_cell_length_b   5.69245100
_cell_length_c   7.67449500
_cell_angle_alpha   90.00000000
_cell_angle_beta   90.00000000
_cell_angle_gamma   90.00000000
_symmetry_Int_Tables_number   1
_chemical_formula_structural   HoTiO3
_chemical_formula_sum   'Ho4 Ti4 O12'
_cell_volume   232.76506970
_cell_formula_units_Z   4
loop_
 _symmetry_equiv_pos_site_id
 _symmetry_equiv_pos_as_xyz
  1  'x, y, z'
loop_
 _atom_site_type_symbol
 _atom_site_label
 _atom_site_symmetry_multiplicity
 _atom_site_fract_x
 _atom_site_fract_y
 _atom_site_fract_z
 _atom_site_occupancy
  Ho  Ho0  1  0.48082700  0.42808900  0.75000000  1
  Ho  Ho1  1  0.01917300  0.92808900  0.75000000  1
  Ho  Ho2  1  0.98082700  0.07191100  0.25000000  1
  Ho  Ho3  1  0.51917300  0.57191100  0.25000000  1
  Ti  Ti0  1  0.50000000  0.00000000  0.00000000  1
  Ti  Ti1  1  0.00000000  0.50000000  0.00000000  1
  Ti  Ti2  1  0.00000000  0.50000000  0.50000000  1
  Ti  Ti3  1  0.50000000  0.00000000  0.50000000  1
  O  O0  1  0.37870300  0.95374400  0.25000000  1
  O  O1  1  0.31321700  0.69533300  0.94062900  1
  O  O2  1  0.31321700  0.69533300  0.55937100  1
  O  O3  1  0.18678300  0.19533300  0.94062900  1
  O  O4  1  0.18678300  0.19533300  0.55937100  1
  O  O5  1  0.12129700  0.45374400  0.25000000  1
  O  O6  1  0.87870300  0.54625600  0.75000000  1
  O  O7  1  0.81321700  0.80466700  0.44062900  1
  O  O8  1  0.81321700  0.80466700  0.05937100  1
  O  O9  1  0.68678300  0.30466700  0.44062900  1
  O  O10  1  0.68678300  0.30466700  0.05937100  1
  O  O11  1  0.62129700  0.04625600  0.75000000  1
loop_
_geom_bond_atom_site_label_1
_geom_bond_atom_site_label_2
_geom_bond_distance
_geom_bond_site_symmetry_2
Ho0 O6 2.224066 1_555
Ho0 O1 2.291746 1_555
Ho0 O2 2.291746 1_555
Ho0 O11 2.298812 1_555
Ho0 O3 2.519982 1_555
Ho0 O4 2.519982 1_555
Ho0 O9 2.708305 1_555
Ho0 O10 2.708305 1_556
Ho1 O11 2.224066 1_465
Ho1 O3 2.291746 1_565
Ho1 O4 2.291746 1_565
Ho1 O6 2.298812 1_455
Ho1 O1 2.519982 1_555
Ho1 O2 2.519982 1_555
Ho1 O7 2.708305 1_455
Ho1 O8 2.708305 1_456
Ho2 O0 2.224066 1_645
Ho2 O7 2.291746 1_545
Ho2 O8 2.291746 1_545
Ho2 O5 2.298812 1_655
Ho2 O10 2.519982 1_555
Ho2 O9 2.519982 1_555
Ho2 O4 2.708305 1_655
Ho2 O3 2.708305 1_654
Ho3 O5 2.224066 1_555
Ho3 O9 2.291746 1_555
Ho3 O10 2.291746 1_555
Ho3 O0 2.298812 1_555
Ho3 O8 2.519982 1_555
Ho3 O7 2.519982 1_555
Ho3 O2 2.708305 1_555
Ho3 O1 2.708305 1_554
O0 Ti3 2.041598 1_565
O0 Ti0 2.041598 1_565
O1 Ti0 2.050809 1_566
O1 Ti1 2.056454 1_556
O2 Ti3 2.050809 1_565
O2 Ti2 2.056454 1_555
O3 Ti1 2.050809 1_556
O3 Ti0 2.056454 1_556
O4 Ti2 2.050809 1_555
O4 Ti3 2.056454 1_555
O5 Ti2 2.041598 1_555
O5 Ti1 2.041598 1_555
O6 Ti1 2.041598 1_656
O6 Ti2 2.041598 1_655
O7 Ti2 2.050809 1_655
O7 Ti3 2.056454 1_565
O8 Ti1 2.050809 1_655
O8 Ti0 2.056454 1_565
O9 Ti3 2.050809 1_555
O9 Ti2 2.056454 1_655
O10 Ti0 2.050809 1_555
O10 Ti1 2.056454 1_655
O11 Ti3 2.041598 1_555
O11 Ti0 2.041598 1_556
