# generated using pymatgen
data_Rb2FeOF5
_symmetry_space_group_name_H-M   'P 1'
_cell_length_a   6.23804221
_cell_length_b   6.23804221
_cell_length_c   8.62011700
_cell_angle_alpha   90.00000000
_cell_angle_beta   90.00000000
_cell_angle_gamma   98.51195121
_symmetry_Int_Tables_number   1
_chemical_formula_structural   Rb2FeOF5
_chemical_formula_sum   'Rb4 Fe2 O2 F10'
_cell_volume   331.74125823
_cell_formula_units_Z   2
loop_
 _symmetry_equiv_pos_site_id
 _symmetry_equiv_pos_as_xyz
  1  'x, y, z'
loop_
 _atom_site_type_symbol
 _atom_site_label
 _atom_site_symmetry_multiplicity
 _atom_site_fract_x
 _atom_site_fract_y
 _atom_site_fract_z
 _atom_site_occupancy
  Rb  Rb0  1  0.72018100  0.27981900  0.00000000  1
  Rb  Rb1  1  0.72018100  0.27981900  0.50000000  1
  Rb  Rb2  1  0.27981900  0.72018100  0.00000000  1
  Rb  Rb3  1  0.27981900  0.72018100  0.50000000  1
  Fe  Fe0  1  0.22242500  0.22242500  0.75000000  1
  Fe  Fe1  1  0.77757500  0.77757500  0.25000000  1
  O  O0  1  0.99678500  0.99678500  0.75000000  1
  O  O1  1  0.00321500  0.00321500  0.25000000  1
  F  F0  1  0.45233800  0.45233800  0.75000000  1
  F  F1  1  0.54766200  0.54766200  0.25000000  1
  F  F2  1  0.56883700  0.97638000  0.25000000  1
  F  F3  1  0.02362000  0.43116300  0.75000000  1
  F  F4  1  0.43116300  0.02362000  0.75000000  1
  F  F5  1  0.97638000  0.56883700  0.25000000  1
  F  F6  1  0.21060700  0.21060700  0.97161900  1
  F  F7  1  0.78939300  0.78939300  0.02838100  1
  F  F8  1  0.21060700  0.21060700  0.52838100  1
  F  F9  1  0.78939300  0.78939300  0.47161900  1
loop_
_geom_bond_atom_site_label_1
_geom_bond_atom_site_label_2
_geom_bond_distance
_geom_bond_site_symmetry_2
Fe0 O0 1.837364 1_445
Fe1 O1 1.837364 1_665
O0 Rb1 3.411818 1_565
O0 Rb0 3.411818 1_566
O0 Rb2 3.411818 1_656
O0 Rb3 3.411818 1_655
O1 Rb3 3.411818 1_545
O1 Rb0 3.411818 1_455
O1 Rb2 3.411818 1_545
O1 Rb1 3.411818 1_455
F0 Fe0 1.872159 1_555
F0 Rb0 3.020966 1_556
F0 Rb1 3.020966 1_555
F0 Rb3 3.020966 1_555
F0 Rb2 3.020966 1_556
F1 Fe1 1.872159 1_555
F1 Rb0 3.020966 1_555
F1 Rb2 3.020966 1_555
F1 Rb1 3.020966 1_555
F1 Rb3 3.020966 1_555
F2 Fe1 1.926533 1_555
F2 Rb0 2.930764 1_565
F2 Rb1 2.930764 1_565
F2 Rb3 3.097713 1_555
F2 Rb2 3.097713 1_555
F3 Fe0 1.926533 1_555
F3 Rb0 2.930764 1_456
F3 Rb1 2.930764 1_455
F3 Rb2 3.097713 1_556
F3 Rb3 3.097713 1_555
F4 Fe0 1.926533 1_555
F4 Rb3 2.930764 1_545
F4 Rb2 2.930764 1_546
F4 Rb0 3.097713 1_556
F4 Rb1 3.097713 1_555
F5 Fe1 1.926533 1_555
F5 Rb3 2.930764 1_655
F5 Rb2 2.930764 1_655
F5 Rb1 3.097713 1_555
F5 Rb0 3.097713 1_555
F6 Fe0 1.912804 1_555
F6 Rb2 3.153473 1_556
F6 Rb0 3.153473 1_556
F6 Rb2 3.161736 1_546
F6 Rb0 3.161736 1_456
F7 Fe1 1.912804 1_555
F7 Rb0 3.153473 1_555
F7 Rb2 3.153473 1_555
F7 Rb2 3.161736 1_655
F7 Rb0 3.161736 1_565
F8 Fe0 1.912804 1_555
F8 Rb1 3.153473 1_555
F8 Rb3 3.153473 1_555
F8 Rb1 3.161736 1_455
F8 Rb3 3.161736 1_545
F9 Fe1 1.912804 1_555
F9 Rb1 3.153473 1_555
F9 Rb3 3.153473 1_555
F9 Rb3 3.161736 1_655
F9 Rb1 3.161736 1_565
