# generated using pymatgen
data_ThZn2
_symmetry_space_group_name_H-M   'P 1'
_cell_length_a   4.51927872
_cell_length_b   4.51927830
_cell_length_c   3.63772655
_cell_angle_alpha   90.00000000
_cell_angle_beta   90.00000000
_cell_angle_gamma   120.00001053
_symmetry_Int_Tables_number   1
_chemical_formula_structural   ThZn2
_chemical_formula_sum   'Th1 Zn2'
_cell_volume   64.34263589
_cell_formula_units_Z   1
loop_
 _symmetry_equiv_pos_site_id
 _symmetry_equiv_pos_as_xyz
  1  'x, y, z'
loop_
 _atom_site_type_symbol
 _atom_site_label
 _atom_site_symmetry_multiplicity
 _atom_site_fract_x
 _atom_site_fract_y
 _atom_site_fract_z
 _atom_site_occupancy
  Th  Th0  1  0.00000000  0.00000000  0.00000000  1
  Zn  Zn0  1  0.66666700  0.33333300  0.50000000  1
  Zn  Zn1  1  0.33333300  0.66666700  0.50000000  1
loop_
_geom_bond_atom_site_label_1
_geom_bond_atom_site_label_2
_geom_bond_distance
_geom_bond_site_symmetry_2
Th0 Zn0 3.180599 1_455
Th0 Zn0 3.180599 1_454
Th0 Zn1 3.180599 1_544
Th0 Zn1 3.180599 1_545
Th0 Zn0 3.180602 1_445
Th0 Zn0 3.180602 1_444
Th0 Zn1 3.180602 1_555
Th0 Zn1 3.180602 1_554
Th0 Zn0 3.180602 1_554
Th0 Zn1 3.180602 1_445
Th0 Zn0 3.180602 1_555
Th0 Zn1 3.180602 1_444
Zn0 Zn1 2.609204 1_545
Zn0 Zn1 2.609204 1_655
Zn0 Zn1 2.609212 1_555
