# generated using pymatgen
data_AlSn
_symmetry_space_group_name_H-M   'P 1'
_cell_length_a   8.39621123
_cell_length_b   8.39621123
_cell_length_c   6.61369400
_cell_angle_alpha   90.00000000
_cell_angle_beta   90.00000000
_cell_angle_gamma   119.99999394
_symmetry_Int_Tables_number   1
_chemical_formula_structural   AlSn
_chemical_formula_sum   'Al8 Sn8'
_cell_volume   403.77689819
_cell_formula_units_Z   8
loop_
 _symmetry_equiv_pos_site_id
 _symmetry_equiv_pos_as_xyz
  1  'x, y, z'
loop_
 _atom_site_type_symbol
 _atom_site_label
 _atom_site_symmetry_multiplicity
 _atom_site_fract_x
 _atom_site_fract_y
 _atom_site_fract_z
 _atom_site_occupancy
  Al  Al0_0  1  0.00000000  0.00000000  0.00000000  1
  Al  Al0_1  1  0.00000000  0.00000000  0.50000000  1
  Al  Al0_2  1  0.00000000  0.50000000  0.00000000  1
  Al  Al0_3  1  0.00000000  0.50000000  0.50000000  1
  Al  Al0_4  1  0.50000000  0.00000000  0.00000000  1
  Al  Al0_5  1  0.50000000  0.00000000  0.50000000  1
  Al  Al0_6  1  0.50000000  0.50000000  0.00000000  1
  Al  Al0_7  1  0.50000000  0.50000000  0.50000000  1
  Sn  Sn0_0  1  0.16666650  0.33333350  0.25000000  1
  Sn  Sn0_1  1  0.16666650  0.33333350  0.75000000  1
  Sn  Sn0_2  1  0.16666650  0.83333350  0.25000000  1
  Sn  Sn0_3  1  0.16666650  0.83333350  0.75000000  1
  Sn  Sn0_4  1  0.66666650  0.33333350  0.25000000  1
  Sn  Sn0_5  1  0.66666650  0.33333350  0.75000000  1
  Sn  Sn0_6  1  0.66666650  0.83333350  0.25000000  1
  Sn  Sn0_7  1  0.66666650  0.83333350  0.75000000  1
loop_
_geom_bond_atom_site_label_1
_geom_bond_atom_site_label_2
_geom_bond_distance
_geom_bond_site_symmetry_2
Al0_0 Sn0_3 2.934024 1_544
Al0_0 Sn0_2 2.934024 1_545
Al0_0 Sn0_6 2.934027 1_445
Al0_0 Sn0_7 2.934027 1_444
Al0_0 Sn0_1 2.934027 1_554
Al0_0 Sn0_0 2.934027 1_555
Al0_1 Sn0_2 2.934024 1_545
Al0_1 Sn0_3 2.934024 1_545
Al0_1 Sn0_6 2.934027 1_445
Al0_1 Sn0_7 2.934027 1_445
Al0_1 Sn0_0 2.934027 1_555
Al0_1 Sn0_1 2.934027 1_555
Al0_2 Sn0_1 2.934024 1_554
Al0_2 Sn0_0 2.934024 1_555
Al0_2 Sn0_5 2.934027 1_454
Al0_2 Sn0_3 2.934027 1_554
Al0_2 Sn0_4 2.934027 1_455
Al0_2 Sn0_2 2.934027 1_555
Al0_3 Sn0_0 2.934024 1_555
Al0_3 Sn0_1 2.934024 1_555
Al0_3 Sn0_4 2.934027 1_455
Al0_3 Sn0_2 2.934027 1_555
Al0_3 Sn0_5 2.934027 1_455
Al0_3 Sn0_3 2.934027 1_555
Al0_4 Sn0_7 2.934024 1_544
Al0_4 Sn0_6 2.934024 1_545
Al0_4 Sn0_5 2.934027 1_554
Al0_4 Sn0_4 2.934027 1_555
Al0_4 Sn0_3 2.934027 1_544
Al0_4 Sn0_2 2.934027 1_545
Al0_5 Sn0_6 2.934024 1_545
Al0_5 Sn0_7 2.934024 1_545
Al0_5 Sn0_4 2.934027 1_555
Al0_5 Sn0_5 2.934027 1_555
Al0_5 Sn0_2 2.934027 1_545
Al0_5 Sn0_3 2.934027 1_545
Al0_6 Sn0_5 2.934024 1_554
Al0_6 Sn0_4 2.934024 1_555
Al0_6 Sn0_6 2.934027 1_555
Al0_6 Sn0_0 2.934027 1_555
Al0_6 Sn0_7 2.934027 1_554
Al0_6 Sn0_1 2.934027 1_554
Al0_7 Sn0_4 2.934024 1_555
Al0_7 Sn0_5 2.934024 1_555
Al0_7 Sn0_6 2.934027 1_555
Al0_7 Sn0_0 2.934027 1_555
Al0_7 Sn0_7 2.934027 1_555
Al0_7 Sn0_1 2.934027 1_555
Sn0_0 Sn0_1 3.306847 1_554
Sn0_0 Sn0_1 3.306847 1_555
Sn0_2 Sn0_3 3.306847 1_554
Sn0_2 Sn0_3 3.306847 1_555
Sn0_4 Sn0_5 3.306847 1_554
Sn0_4 Sn0_5 3.306847 1_555
Sn0_6 Sn0_7 3.306847 1_554
Sn0_6 Sn0_7 3.306847 1_555
