# generated using pymatgen
data_LiMn3O5F
_symmetry_space_group_name_H-M   'P 1'
_cell_length_a   5.09242128
_cell_length_b   5.48022604
_cell_length_c   4.95328696
_cell_angle_alpha   115.24364780
_cell_angle_beta   62.80848256
_cell_angle_gamma   118.91200810
_symmetry_Int_Tables_number   1
_chemical_formula_structural   LiMn3O5F
_chemical_formula_sum   'Li1 Mn3 O5 F1'
_cell_volume   103.81439845
_cell_formula_units_Z   1
loop_
 _symmetry_equiv_pos_site_id
 _symmetry_equiv_pos_as_xyz
  1  'x, y, z'
loop_
 _atom_site_type_symbol
 _atom_site_label
 _atom_site_symmetry_multiplicity
 _atom_site_fract_x
 _atom_site_fract_y
 _atom_site_fract_z
 _atom_site_occupancy
  Li  Li0  1  0.84934100  0.60237500  0.89950300  1
  Mn  Mn0  1  0.16606300  0.43412700  0.12536000  1
  Mn  Mn1  1  0.65413700  0.98178600  0.65845700  1
  Mn  Mn2  1  0.35563600  0.03920100  0.33314300  1
  O  O0  1  0.06072100  0.21531400  0.41318800  1
  O  O1  1  0.52162600  0.75390100  0.28944500  1
  O  O2  1  0.27016500  0.75816800  0.95037900  1
  O  O3  1  0.77047900  0.24079200  0.03271100  1
  O  O4  1  0.45191700  0.22781100  0.72428500  1
  F  F0  1  0.89991400  0.74652300  0.57352700  1
loop_
_geom_bond_atom_site_label_1
_geom_bond_atom_site_label_2
_geom_bond_distance
_geom_bond_site_symmetry_2
Li0 O2 1.981374 1_655
Li0 O1 2.057018 1_556
Li0 O3 2.150986 1_556
Li0 O4 2.265304 1_555
Mn0 O3 1.938480 1_455
Mn0 O0 1.973711 1_555
Mn0 O1 2.017952 1_555
Mn0 O2 2.041660 1_554
Mn0 O4 2.092059 1_554
Mn1 O4 1.909266 1_565
Mn1 O1 1.929079 1_555
Mn1 O3 1.936125 1_566
Mn1 O0 1.966167 1_665
Mn1 O2 2.006589 1_555
Mn2 O4 1.931971 1_555
Mn2 O2 1.942027 1_544
Mn2 O0 1.968538 1_555
Mn2 O1 2.006982 1_545
Mn2 O3 2.042130 1_555
F0 Li0 1.951574 1_555
F0 Mn1 2.005554 1_555
F0 Mn2 2.209169 1_665
F0 Mn0 2.438881 1_655
