# generated using pymatgen
data_Li3V3P8O29
_symmetry_space_group_name_H-M   'P 1'
_cell_length_a   9.75493300
_cell_length_b   9.75792625
_cell_length_c   14.15807621
_cell_angle_alpha   90.30278624
_cell_angle_beta   89.98551628
_cell_angle_gamma   119.91857672
_symmetry_Int_Tables_number   1
_chemical_formula_structural   Li3V3P8O29
_chemical_formula_sum   'Li6 V6 P16 O58'
_cell_volume   1168.05888462
_cell_formula_units_Z   2
loop_
 _symmetry_equiv_pos_site_id
 _symmetry_equiv_pos_as_xyz
  1  'x, y, z'
loop_
 _atom_site_type_symbol
 _atom_site_label
 _atom_site_symmetry_multiplicity
 _atom_site_fract_x
 _atom_site_fract_y
 _atom_site_fract_z
 _atom_site_occupancy
  Li  Li0  1  0.67611600  0.90723800  0.54973100  1
  Li  Li1  1  0.09385800  0.32079900  0.06440900  1
  Li  Li2  1  0.23403300  0.32737100  0.55414300  1
  Li  Li3  1  0.91373300  0.69129700  0.94558000  1
  Li  Li4  1  0.77666800  0.08339900  0.94658600  1
  Li  Li5  1  0.01526200  0.97228300  0.48488100  1
  V  V0  1  0.56783400  0.56663500  0.24824500  1
  V  V1  1  0.43561400  0.43365500  0.75487200  1
  V  V2  1  0.00387400  0.56969300  0.74224700  1
  V  V3  1  0.99418400  0.43437000  0.25838800  1
  V  V4  1  0.43193200  0.00101200  0.24834800  1
  V  V5  1  0.55800800  0.99899600  0.74911000  1
  P  P0  1  0.22484200  0.91539800  0.84358300  1
  P  P1  1  0.08713100  0.78205200  0.33976800  1
  P  P2  1  0.68686400  0.91259400  0.33960200  1
  P  P3  1  0.32970500  0.66256200  0.13149500  1
  P  P4  1  0.33611600  0.66433300  0.63031600  1
  P  P5  1  0.68528200  0.77318700  0.84308900  1
  P  P6  1  0.77119300  0.68992600  0.65826300  1
  P  P7  1  0.08667600  0.32092700  0.84260700  1
  P  P8  1  0.91231100  0.68185100  0.15816600  1
  P  P9  1  0.22809100  0.31364500  0.34238500  1
  P  P10  1  0.31282200  0.22572400  0.15970500  1
  P  P11  1  0.66116700  0.33228900  0.36994000  1
  P  P12  1  0.67347700  0.33672500  0.86812300  1
  P  P13  1  0.30468200  0.08497600  0.65785900  1
  P  P14  1  0.91317800  0.22209200  0.66012400  1
  P  P15  1  0.77255200  0.08972000  0.15943100  1
  O  O0  1  0.21645100  0.00600700  0.57110900  1
  O  O1  1  0.26111000  0.91631300  0.33217600  1
  O  O2  1  0.99013400  0.74844400  0.06666200  1
  O  O3  1  0.08102100  0.74407500  0.83482200  1
  O  O4  1  0.37974300  0.90630200  0.81928600  1
  O  O5  1  0.33971700  0.81553900  0.17633100  1
  O  O6  1  0.53096900  0.91480200  0.32720700  1
  O  O7  1  0.76750500  0.00966300  0.06870600  1
  O  O8  1  0.65915300  0.91780300  0.83936300  1
  O  O9  1  0.18893000  0.67078100  0.67403800  1
  O  O10  1  0.08243000  0.61982200  0.33127800  1
  O  O11  1  0.48895600  0.81434500  0.67210900  1
  O  O12  1  0.33254300  0.66027500  0.02635100  1
  O  O13  1  0.33766800  0.66394400  0.52557100  1
  O  O14  1  0.47463700  0.65629200  0.17725600  1
  O  O15  1  0.09526900  0.48005400  0.81990100  1
  O  O16  1  0.17810600  0.51678400  0.17260200  1
  O  O17  1  0.65502400  0.74079100  0.33036800  1
  O  O18  1  0.79215000  0.79481700  0.75141100  1
  O  O19  1  0.78030500  0.78428100  0.57423800  1
  O  O20  1  0.76570500  0.76263100  0.92876500  1
  O  O21  1  0.52310000  0.61924000  0.82334900  1
  O  O22  1  0.32808200  0.51201000  0.67207400  1
  O  O23  1  0.74238800  0.65549600  0.16709100  1
  O  O24  1  0.38440700  0.46939800  0.32963500  1
  O  O25  1  0.08857000  0.34757200  0.33096000  1
  O  O26  1  0.00689500  0.79892400  0.24405300  1
  O  O27  1  0.00528700  0.79829300  0.42331600  1
  O  O28  1  0.00819700  0.21891400  0.57930700  1
  O  O29  1  0.91040400  0.65498200  0.66577000  1
  O  O30  1  0.61431900  0.53204400  0.67307700  1
  O  O31  1  0.25534800  0.34393300  0.83343800  1
  O  O32  1  0.66534600  0.48012500  0.32481200  1
  O  O33  1  0.47307700  0.37968200  0.17625600  1
  O  O34  1  0.22511300  0.23226300  0.07611500  1
  O  O35  1  0.21174200  0.22938800  0.43338100  1
  O  O36  1  0.20904500  0.20076000  0.25506600  1
  O  O37  1  0.34188900  0.25995700  0.66550500  1
  O  O38  1  0.82022000  0.48447100  0.82493000  1
  O  O39  1  0.90443100  0.52263500  0.18149900  1
  O  O40  1  0.52482000  0.33875500  0.82278600  1
  O  O41  1  0.67384600  0.33585700  0.97259700  1
  O  O42  1  0.66489500  0.33119900  0.47471000  1
  O  O43  1  0.51609400  0.18442800  0.32416800  1
  O  O44  1  0.91296300  0.38172000  0.67218100  1
  O  O45  1  0.81290900  0.33082800  0.32689800  1
  O  O46  1  0.34232700  0.08378600  0.16369100  1
  O  O47  1  0.20511500  0.00199900  0.75162000  1
  O  O48  1  0.23854000  0.99979900  0.93231500  1
  O  O49  1  0.46527700  0.08494500  0.67438800  1
  O  O50  1  0.66847800  0.18363300  0.82448200  1
  O  O51  1  0.61948800  0.09620000  0.17787700  1
  O  O52  1  0.91834900  0.25952700  0.16470500  1
  O  O53  1  0.00472700  0.25109600  0.93354500  1
  O  O54  1  0.98642500  0.20099800  0.75835200  1
  O  O55  1  0.74040000  0.08192000  0.66059800  1
  O  O56  1  0.77362300  0.98664200  0.42962200  1
  O  O57  1  0.79531500  0.00166600  0.24917700  1
loop_
_geom_bond_atom_site_label_1
_geom_bond_atom_site_label_2
_geom_bond_distance
_geom_bond_site_symmetry_2
Li0 O56 1.916965 1_555
Li0 O19 1.952923 1_555
Li0 O55 2.160666 1_565
Li0 O11 2.349707 1_555
Li1 O34 1.875707 1_555
Li1 O53 2.012204 1_554
Li1 O52 2.071645 1_455
Li1 O16 2.254108 1_555
Li2 O35 1.913170 1_555
Li2 O28 1.943729 1_555
Li2 O37 2.174351 1_555
Li2 O22 2.279412 1_555
Li3 O2 1.838793 1_556
Li3 O20 1.905497 1_555
Li3 O3 2.134516 1_655
Li3 O38 2.439457 1_555
Li4 O7 1.861179 1_556
Li4 O53 2.008136 1_655
Li4 O8 2.087311 1_545
Li4 O50 2.471351 1_555
Li5 O27 1.863141 1_555
Li5 O0 2.191610 1_565
Li5 O35 2.391920 1_565
Li5 O19 2.459252 1_455
Li5 O56 2.553338 1_455
O0 P13 1.473776 1_555
O1 P1 1.546507 1_555
O1 V4 1.871887 1_565
O2 P8 1.480964 1_555
O3 P0 1.561001 1_555
O3 V2 1.969574 1_555
O4 P0 1.594580 1_555
O4 V5 1.808003 1_555
O5 P3 1.576500 1_555
O5 V4 1.865810 1_565
O6 P2 1.541683 1_555
O6 V4 1.925813 1_565
O7 P15 1.487838 1_555
O8 P5 1.555215 1_555
O8 V5 2.006270 1_555
O9 P4 1.593076 1_555
O9 V2 1.843169 1_555
O10 P1 1.564643 1_555
O10 V3 1.872840 1_455
O11 P4 1.590589 1_555
O11 V5 1.912502 1_555
O12 P3 1.489143 1_555
O13 P4 1.483065 1_555
O14 P3 1.584142 1_555
O14 V0 1.845328 1_555
O15 P7 1.548169 1_555
O15 V2 1.886073 1_555
O16 P3 1.568127 1_555
O16 V3 1.977572 1_455
O17 P2 1.549937 1_555
O17 V0 1.871104 1_555
O18 P5 1.612085 1_555
O18 P6 1.614234 1_555
O19 P6 1.483481 1_555
O20 P5 1.476442 1_555
O21 P5 1.569307 1_555
O21 V1 1.840624 1_555
O22 P4 1.567799 1_555
O22 V1 1.967042 1_555
O23 P8 1.550711 1_555
O23 V0 1.873003 1_555
O24 P9 1.535770 1_555
O24 V0 1.935647 1_555
O25 P9 1.561498 1_555
O25 V3 1.846184 1_455
O26 P8 1.602948 1_455
O26 P1 1.614794 1_555
O27 P1 1.478340 1_555
O28 P14 1.482261 1_455
O29 P6 1.560153 1_555
O29 V2 1.861014 1_655
O30 P6 1.552652 1_555
O30 V1 1.908659 1_555
O31 P7 1.551217 1_555
O31 V1 1.889342 1_555
O32 P11 1.562680 1_555
O32 V0 1.898361 1_555
O33 P10 1.552225 1_555
O33 V0 1.876147 1_555
O34 P10 1.480707 1_555
O35 P9 1.497159 1_555
O36 P9 1.599314 1_555
O36 P10 1.632116 1_555
O37 P13 1.561638 1_555
O37 V1 1.934345 1_555
O38 P12 1.565813 1_555
O38 V2 1.947970 1_655
O39 P8 1.554043 1_555
O39 V3 1.859042 1_555
O40 P12 1.595171 1_555
O40 V1 1.831118 1_555
O41 P12 1.479235 1_555
O42 P11 1.484021 1_555
O43 P11 1.567857 1_555
O43 V4 1.882545 1_555
O44 P14 1.567109 1_555
O44 V2 1.869088 1_655
O45 P11 1.607219 1_555
O45 V3 1.820958 1_555
O46 P10 1.550095 1_555
O46 V4 1.888926 1_555
O47 P13 1.608529 1_555
O47 P0 1.618753 1_545
O48 P0 1.467561 1_555
O49 P13 1.584184 1_555
O49 V5 1.845945 1_545
O50 P12 1.591652 1_555
O50 V5 1.894616 1_545
O51 P15 1.547723 1_555
O51 V4 1.875978 1_555
O52 P15 1.556220 1_555
O52 V3 1.983652 1_555
O53 P7 1.492117 1_555
O54 P7 1.610300 1_655
O54 P14 1.623959 1_555
O55 P14 1.553073 1_555
O55 V5 1.991039 1_545
O56 P2 1.497843 1_555
O57 P15 1.613716 1_555
O57 P2 1.614779 1_545
