# generated using pymatgen
data_Cr8Bi4O29
_symmetry_space_group_name_H-M   'P 1'
_cell_length_a   5.06886800
_cell_length_b   13.36490292
_cell_length_c   18.75398074
_cell_angle_alpha   95.55340809
_cell_angle_beta   93.40194775
_cell_angle_gamma   90.91947514
_symmetry_Int_Tables_number   1
_chemical_formula_structural   Cr8Bi4O29
_chemical_formula_sum   'Cr16 Bi8 O58'
_cell_volume   1261.99202762
_cell_formula_units_Z   2
loop_
 _symmetry_equiv_pos_site_id
 _symmetry_equiv_pos_as_xyz
  1  'x, y, z'
loop_
 _atom_site_type_symbol
 _atom_site_label
 _atom_site_symmetry_multiplicity
 _atom_site_fract_x
 _atom_site_fract_y
 _atom_site_fract_z
 _atom_site_occupancy
  Cr  Cr0  1  0.21604500  0.11071800  0.45837000  1
  Cr  Cr1  1  0.78395500  0.88928200  0.54163000  1
  Cr  Cr2  1  0.26343400  0.88754600  0.04799400  1
  Cr  Cr3  1  0.73656600  0.11245400  0.95200600  1
  Cr  Cr4  1  0.20096400  0.60862500  0.95660200  1
  Cr  Cr5  1  0.79903600  0.39137500  0.04339800  1
  Cr  Cr6  1  0.27502800  0.38890200  0.54582100  1
  Cr  Cr7  1  0.72497200  0.61109800  0.45417900  1
  Cr  Cr8  1  0.29900300  0.61774500  0.24439300  1
  Cr  Cr9  1  0.70099700  0.38225500  0.75560700  1
  Cr  Cr10  1  0.32143300  0.12049800  0.74308500  1
  Cr  Cr11  1  0.67856700  0.87950200  0.25691500  1
  Cr  Cr12  1  0.16991900  0.87817300  0.76676200  1
  Cr  Cr13  1  0.83008100  0.12182700  0.23323800  1
  Cr  Cr14  1  0.29455400  0.37873700  0.26810900  1
  Cr  Cr15  1  0.70544600  0.62126300  0.73189100  1
  Bi  Bi0  1  0.22445800  0.80681600  0.40310500  1
  Bi  Bi1  1  0.77554200  0.19318400  0.59689500  1
  Bi  Bi2  1  0.23698600  0.30539700  0.90189900  1
  Bi  Bi3  1  0.76301400  0.69460300  0.09810100  1
  Bi  Bi4  1  0.73047100  0.30195500  0.40884200  1
  Bi  Bi5  1  0.26952900  0.69804500  0.59115800  1
  Bi  Bi6  1  0.68703700  0.79612400  0.91013000  1
  Bi  Bi7  1  0.31296300  0.20387600  0.08987000  1
  O  O0  1  0.44731400  0.68149600  0.47652700  1
  O  O1  1  0.55268600  0.31850400  0.52347300  1
  O  O2  1  0.36705700  0.50134800  0.58205200  1
  O  O3  1  0.63294300  0.49865200  0.41794800  1
  O  O4  1  0.09694000  0.32909300  0.60044900  1
  O  O5  1  0.90306000  0.67090700  0.39955100  1
  O  O6  1  0.09010300  0.82258100  0.10112000  1
  O  O7  1  0.90989700  0.17741900  0.89888000  1
  O  O8  1  0.08221800  0.32171800  0.02912000  1
  O  O9  1  0.91778200  0.67828200  0.97088000  1
  O  O10  1  0.37919100  0.11055700  0.53757100  1
  O  O11  1  0.62080900  0.88944300  0.46242900  1
  O  O12  1  0.06427800  0.81568900  0.52701800  1
  O  O13  1  0.93572200  0.18431100  0.47298200  1
  O  O14  1  0.36464900  0.60896300  0.03547000  1
  O  O15  1  0.63535100  0.39103700  0.96453000  1
  O  O16  1  0.54618200  0.81831700  0.02382900  1
  O  O17  1  0.45381800  0.18168300  0.97617100  1
  O  O18  1  0.39007500  0.66296700  0.90157000  1
  O  O19  1  0.60992500  0.33703300  0.09843000  1
  O  O20  1  0.34891800  0.99939500  0.08678600  1
  O  O21  1  0.65108200  0.00060500  0.91321400  1
  O  O22  1  0.08194100  0.89756600  0.97398900  1
  O  O23  1  0.91805900  0.10243400  0.02601100  1
  O  O24  1  0.08905000  0.39809500  0.47113200  1
  O  O25  1  0.91095000  0.60190500  0.52886800  1
  O  O26  1  0.40332300  0.16319400  0.40292100  1
  O  O27  1  0.59667700  0.83680600  0.59707900  1
  O  O28  1  0.40101000  0.69120200  0.31796300  1
  O  O29  1  0.59899000  0.30879800  0.68203700  1
  O  O30  1  0.41292800  0.19538300  0.81747800  1
  O  O31  1  0.58707200  0.80461700  0.18252200  1
  O  O32  1  0.12998900  0.99552600  0.42612600  1
  O  O33  1  0.87001100  0.00447400  0.57387400  1
  O  O34  1  0.12459500  0.49354800  0.92208400  1
  O  O35  1  0.87540500  0.50645200  0.07791600  1
  O  O36  1  0.17591100  0.31107300  0.19347800  1
  O  O37  1  0.82408900  0.68892700  0.80652200  1
  O  O38  1  0.16981700  0.82234700  0.68324100  1
  O  O39  1  0.83018300  0.17765300  0.31675900  1
  O  O40  1  0.54183100  0.59724200  0.19222300  1
  O  O41  1  0.45816900  0.40275800  0.80777700  1
  O  O42  1  0.17959000  0.50388800  0.27074700  1
  O  O43  1  0.82041000  0.49611200  0.72925300  1
  O  O44  1  0.57875500  0.09343000  0.69684200  1
  O  O45  1  0.42124500  0.90657000  0.30315800  1
  O  O46  1  0.05887400  0.67068700  0.20042200  1
  O  O47  1  0.94112600  0.32931300  0.79957800  1
  O  O48  1  0.10000000  0.17228300  0.69123000  1
  O  O49  1  0.90000000  0.82771700  0.30877000  1
  O  O50  1  0.17534200  0.01563000  0.77177400  1
  O  O51  1  0.82465800  0.98437000  0.22822600  1
  O  O52  1  0.19663400  0.32948900  0.33918300  1
  O  O53  1  0.80336600  0.67051100  0.66081700  1
  O  O54  1  0.26866600  0.83472100  0.84483500  1
  O  O55  1  0.73133400  0.16527900  0.15516500  1
  O  O56  1  0.38568600  0.62317200  0.72681000  1
  O  O57  1  0.61431400  0.37682800  0.27319000  1
loop_
_geom_bond_atom_site_label_1
_geom_bond_atom_site_label_2
_geom_bond_distance
_geom_bond_site_symmetry_2
Cr0 O32 1.641052 1_545
Cr0 O26 1.646613 1_555
Cr0 O10 1.656802 1_555
Cr0 O13 1.760797 1_455
Cr1 O33 1.641052 1_565
Cr1 O27 1.646613 1_555
Cr1 O11 1.656802 1_555
Cr1 O12 1.760797 1_655
Cr2 O22 1.636733 1_554
Cr2 O20 1.637960 1_555
Cr2 O6 1.662913 1_555
Cr2 O16 1.775960 1_555
Cr3 O23 1.636733 1_556
Cr3 O21 1.637960 1_555
Cr3 O7 1.662913 1_555
Cr3 O17 1.775960 1_555
Cr4 O34 1.640971 1_555
Cr4 O14 1.651988 1_556
Cr4 O18 1.658813 1_555
Cr4 O9 1.743287 1_455
Cr5 O35 1.640971 1_555
Cr5 O15 1.651988 1_554
Cr5 O19 1.658813 1_555
Cr5 O8 1.743287 1_655
Cr6 O2 1.637082 1_555
Cr6 O24 1.657134 1_555
Cr6 O4 1.657862 1_555
Cr6 O1 1.754386 1_555
Cr7 O3 1.637082 1_555
Cr7 O25 1.657134 1_555
Cr7 O5 1.657862 1_555
Cr7 O0 1.754386 1_555
Cr8 O40 1.627645 1_555
Cr8 O46 1.638184 1_555
Cr8 O28 1.664844 1_555
Cr8 O42 1.754335 1_555
Cr9 O41 1.627645 1_555
Cr9 O47 1.638184 1_555
Cr9 O29 1.664844 1_555
Cr9 O43 1.754335 1_555
Cr10 O44 1.634909 1_555
Cr10 O48 1.646271 1_555
Cr10 O30 1.673706 1_555
Cr10 O50 1.721079 1_555
Cr11 O45 1.634909 1_555
Cr11 O49 1.646271 1_555
Cr11 O31 1.673706 1_555
Cr11 O51 1.721079 1_555
Cr12 O38 1.668483 1_555
Cr12 O54 1.678848 1_555
Cr12 O50 1.830076 1_565
Cr13 O39 1.668483 1_555
Cr13 O55 1.678848 1_555
Cr13 O51 1.830076 1_545
Cr14 O57 1.618722 1_555
Cr14 O52 1.641368 1_555
Cr14 O36 1.666163 1_555
Cr14 O42 1.777192 1_555
Cr15 O56 1.618722 1_555
Cr15 O53 1.641368 1_555
Cr15 O37 1.666163 1_555
Cr15 O43 1.777192 1_555
Bi0 O28 2.339762 1_555
Bi0 O49 2.382824 1_455
Bi0 O5 2.413823 1_455
Bi0 O11 2.432959 1_555
Bi0 O12 2.499462 1_555
Bi0 O0 2.509942 1_555
Bi0 O32 2.574720 1_555
Bi0 O45 2.636035 1_555
Bi1 O29 2.339762 1_555
Bi1 O48 2.382824 1_655
Bi1 O4 2.413823 1_655
Bi1 O10 2.432959 1_555
Bi1 O13 2.499462 1_555
Bi1 O1 2.509942 1_555
Bi1 O33 2.574720 1_555
Bi1 O44 2.636035 1_555
Bi2 O30 2.285375 1_555
Bi2 O7 2.357263 1_455
Bi2 O47 2.413718 1_455
Bi2 O15 2.480167 1_555
Bi2 O17 2.490856 1_555
Bi2 O8 2.546064 1_556
Bi2 O34 2.584279 1_555
Bi2 O41 2.588154 1_555
Bi3 O31 2.285375 1_555
Bi3 O6 2.357263 1_655
Bi3 O46 2.413718 1_655
Bi3 O14 2.480167 1_555
Bi3 O16 2.490856 1_555
Bi3 O9 2.546064 1_554
Bi3 O35 2.584279 1_555
Bi3 O40 2.588154 1_555
Bi4 O13 2.295973 1_555
Bi4 O39 2.360689 1_555
Bi4 O1 2.372109 1_555
Bi4 O24 2.387844 1_655
Bi4 O26 2.457855 1_555
Bi4 O3 2.673793 1_555
Bi5 O12 2.295973 1_555
Bi5 O38 2.360689 1_555
Bi5 O0 2.372109 1_555
Bi5 O25 2.387844 1_455
Bi5 O27 2.457855 1_555
Bi5 O2 2.673793 1_555
Bi6 O16 2.282443 1_556
Bi6 O18 2.299721 1_555
Bi6 O9 2.322657 1_555
Bi6 O37 2.442133 1_555
Bi6 O54 2.472246 1_555
Bi6 O22 2.567755 1_655
Bi6 O21 2.737111 1_565
Bi7 O17 2.282443 1_554
Bi7 O19 2.299721 1_555
Bi7 O8 2.322657 1_555
Bi7 O36 2.442133 1_555
Bi7 O55 2.472246 1_555
Bi7 O23 2.567755 1_455
Bi7 O20 2.737111 1_545
