# generated using pymatgen
data_Li4FeSb(TeO6)2
_symmetry_space_group_name_H-M   'P 1'
_cell_length_a   5.17755300
_cell_length_b   5.42808505
_cell_length_c   7.51297813
_cell_angle_alpha   86.32404654
_cell_angle_beta   89.93991284
_cell_angle_gamma   89.86506980
_symmetry_Int_Tables_number   1
_chemical_formula_structural   Li4FeSb(TeO6)2
_chemical_formula_sum   'Li4 Fe1 Sb1 Te2 O12'
_cell_volume   210.71114642
_cell_formula_units_Z   1
loop_
 _symmetry_equiv_pos_site_id
 _symmetry_equiv_pos_as_xyz
  1  'x, y, z'
loop_
 _atom_site_type_symbol
 _atom_site_label
 _atom_site_symmetry_multiplicity
 _atom_site_fract_x
 _atom_site_fract_y
 _atom_site_fract_z
 _atom_site_occupancy
  Li  Li0  1  0.00356900  0.55709100  0.30130400  1
  Li  Li1  1  0.49675900  0.07679400  0.76471200  1
  Li  Li2  1  0.99615600  0.52957500  0.75246500  1
  Li  Li3  1  0.50307800  0.09205700  0.30646700  1
  Fe  Fe0  1  0.50108500  0.51663800  0.50239400  1
  Sb  Sb0  1  0.99963500  0.99956700  0.00317000  1
  Te  Te0  1  0.00040100  0.00179700  0.50078700  1
  Te  Te1  1  0.50031200  0.50224800  0.00106100  1
  O  O0  1  0.70490600  0.81278100  0.43062700  1
  O  O1  1  0.86761800  0.98218500  0.75130000  1
  O  O2  1  0.67384100  0.17827500  0.06449900  1
  O  O3  1  0.80763600  0.29707700  0.43805600  1
  O  O4  1  0.19564500  0.30622000  0.92109900  1
  O  O5  1  0.62172500  0.47566300  0.76148000  1
  O  O6  1  0.37428800  0.48604600  0.23868500  1
  O  O7  1  0.82130200  0.67220900  0.06446100  1
  O  O8  1  0.17243000  0.68625600  0.54792600  1
  O  O9  1  0.31350500  0.80647700  0.92228700  1
  O  O10  1  0.13714700  0.98622200  0.24959300  1
  O  O11  1  0.30896400  0.17721500  0.54882300  1
loop_
_geom_bond_atom_site_label_1
_geom_bond_atom_site_label_2
_geom_bond_distance
_geom_bond_site_symmetry_2
Li0 O3 1.973653 1_455
Li0 O6 2.017942 1_555
Li0 O7 2.074957 1_455
Li0 O8 2.204976 1_555
Li0 O0 2.328331 1_455
Li0 O10 2.438474 1_555
Li1 O11 1.939267 1_555
Li1 O1 1.990581 1_545
Li1 O9 2.058202 1_545
Li1 O5 2.259797 1_555
Li1 O4 2.352991 1_555
Li1 O2 2.526395 1_556
Li2 O8 1.936710 1_655
Li2 O5 1.961732 1_555
Li2 O4 1.985379 1_655
Li2 O1 2.543311 1_555
Li3 O0 2.018273 1_545
Li3 O10 2.034827 1_545
Li3 O2 2.048161 1_555
Li3 O11 2.154306 1_555
Li3 O3 2.203399 1_555
Li3 O6 2.265382 1_555
Fe0 O0 1.970798 1_555
Fe0 O8 1.972824 1_555
Fe0 O5 2.043255 1_555
Fe0 O3 2.058283 1_555
Fe0 O6 2.104591 1_555
Fe0 O11 2.105026 1_555
O0 Te0 1.936404 1_665
O1 Te0 1.999553 1_665
O1 Sb0 2.020593 1_556
O2 Te1 2.003215 1_555
O2 Sb0 2.011618 1_545
O3 Te0 1.919323 1_655
O4 Sb0 2.013913 1_446
O4 Te1 2.018233 1_556
O5 Te1 1.919994 1_556
O6 Te1 1.896931 1_555
O7 Te1 1.976180 1_555
O7 Sb0 2.030754 1_555
O8 Te0 1.941153 1_565
O9 Te1 1.970065 1_556
O9 Sb0 2.044567 1_456
O10 Sb0 1.981175 1_455
O10 Te0 2.021727 1_565
O11 Te0 1.908315 1_555
