# generated using pymatgen
data_LiTi(PO3)4
_symmetry_space_group_name_H-M   'P 1'
_cell_length_a   8.64588172
_cell_length_b   8.64588172
_cell_length_c   9.19473647
_cell_angle_alpha   63.43211877
_cell_angle_beta   63.43211877
_cell_angle_gamma   54.13425647
_symmetry_Int_Tables_number   1
_chemical_formula_structural   LiTi(PO3)4
_chemical_formula_sum   'Li2 Ti2 P8 O24'
_cell_volume   481.64178879
_cell_formula_units_Z   2
loop_
 _symmetry_equiv_pos_site_id
 _symmetry_equiv_pos_as_xyz
  1  'x, y, z'
loop_
 _atom_site_type_symbol
 _atom_site_label
 _atom_site_symmetry_multiplicity
 _atom_site_fract_x
 _atom_site_fract_y
 _atom_site_fract_z
 _atom_site_occupancy
  Li  Li0  1  0.00000000  0.00000000  0.50000000  1
  Li  Li1  1  0.00000000  0.00000000  0.00000000  1
  Ti  Ti0  1  0.31665800  0.68334200  0.75000000  1
  Ti  Ti1  1  0.68334200  0.31665800  0.25000000  1
  P  P0  1  0.30100200  0.42205200  0.14297800  1
  P  P1  1  0.65981700  0.04452500  0.10085400  1
  P  P2  1  0.95547500  0.34018300  0.39914600  1
  P  P3  1  0.57794800  0.69899800  0.35702200  1
  P  P4  1  0.42205200  0.30100200  0.64297800  1
  P  P5  1  0.04452500  0.65981700  0.60085400  1
  P  P6  1  0.34018300  0.95547500  0.89914600  1
  P  P7  1  0.69899800  0.57794800  0.85702200  1
  O  O0  1  0.72889700  0.07380800  0.20930500  1
  O  O1  1  0.20211800  0.58729100  0.00591400  1
  O  O2  1  0.13904000  0.38165100  0.30295800  1
  O  O3  1  0.43972800  0.21969700  0.08469900  1
  O  O4  1  0.58240100  0.55135200  0.79775700  1
  O  O5  1  0.78030300  0.56027200  0.41530100  1
  O  O6  1  0.61834900  0.86096000  0.19704200  1
  O  O7  1  0.98231700  0.19787800  0.56560400  1
  O  O8  1  0.41270900  0.79788200  0.49408600  1
  O  O9  1  0.80212200  0.01768300  0.93439600  1
  O  O10  1  0.92619200  0.27110300  0.29069500  1
  O  O11  1  0.44864800  0.41759900  0.70224300  1
  O  O12  1  0.55135200  0.58240100  0.29775700  1
  O  O13  1  0.07380800  0.72889700  0.70930500  1
  O  O14  1  0.19787800  0.98231700  0.06560400  1
  O  O15  1  0.58729100  0.20211800  0.50591400  1
  O  O16  1  0.01768300  0.80212200  0.43439600  1
  O  O17  1  0.38165100  0.13904000  0.80295800  1
  O  O18  1  0.21969700  0.43972800  0.58469900  1
  O  O19  1  0.41759900  0.44864800  0.20224300  1
  O  O20  1  0.56027200  0.78030300  0.91530100  1
  O  O21  1  0.86096000  0.61834900  0.69704200  1
  O  O22  1  0.79788200  0.41270900  0.99408600  1
  O  O23  1  0.27110300  0.92619200  0.79069500  1
loop_
_geom_bond_atom_site_label_1
_geom_bond_atom_site_label_2
_geom_bond_distance
_geom_bond_site_symmetry_2
Li0 O7 1.961715 1_455
Li0 O16 1.961715 1_545
Li0 O13 2.217144 1_545
Li0 O10 2.217144 1_455
Li1 O9 1.961715 1_454
Li1 O14 1.961715 1_545
Li1 O0 2.217144 1_455
Li1 O23 2.217144 1_544
O0 P1 1.533280 1_555
O0 Ti1 2.074992 1_555
O1 P0 1.510711 1_555
O1 Ti0 2.082905 1_554
O2 P0 1.586704 1_555
O2 P2 1.599093 1_455
O3 P0 1.609794 1_555
O3 P1 1.615968 1_555
O4 P7 1.497046 1_555
O4 Ti0 2.038600 1_555
O5 P3 1.609794 1_555
O5 P2 1.615968 1_555
O6 P3 1.586704 1_555
O6 P1 1.599093 1_565
O7 P2 1.486222 1_555
O8 P3 1.510711 1_555
O8 Ti0 2.082905 1_555
O9 P1 1.486222 1_556
O10 P2 1.533280 1_555
O10 Ti1 2.074992 1_555
O11 P4 1.497046 1_555
O11 Ti0 2.038600 1_555
O12 P3 1.497046 1_555
O12 Ti1 2.038600 1_555
O13 P5 1.533280 1_555
O13 Ti0 2.074992 1_555
O14 P6 1.486222 1_554
O15 P4 1.510711 1_555
O15 Ti1 2.082905 1_555
O16 P5 1.486222 1_555
O17 P4 1.586704 1_555
O17 P6 1.599093 1_545
O18 P4 1.609794 1_555
O18 P5 1.615968 1_555
O19 P0 1.497046 1_555
O19 Ti1 2.038600 1_555
O20 P7 1.609794 1_555
O20 P6 1.615968 1_555
O21 P7 1.586704 1_555
O21 P5 1.599093 1_655
O22 P7 1.510711 1_555
O22 Ti1 2.082905 1_556
O23 P6 1.533280 1_555
O23 Ti0 2.074992 1_555
