# generated using pymatgen
data_LiV2O3F
_symmetry_space_group_name_H-M   'P 1'
_cell_length_a   4.95049100
_cell_length_b   5.92856200
_cell_length_c   10.22748300
_cell_angle_alpha   90.00000000
_cell_angle_beta   90.00000000
_cell_angle_gamma   90.00000000
_symmetry_Int_Tables_number   1
_chemical_formula_structural   LiV2O3F
_chemical_formula_sum   'Li4 V8 O12 F4'
_cell_volume   300.16939342
_cell_formula_units_Z   4
loop_
 _symmetry_equiv_pos_site_id
 _symmetry_equiv_pos_as_xyz
  1  'x, y, z'
loop_
 _atom_site_type_symbol
 _atom_site_label
 _atom_site_symmetry_multiplicity
 _atom_site_fract_x
 _atom_site_fract_y
 _atom_site_fract_z
 _atom_site_occupancy
  Li  Li0  1  0.95750600  0.25404200  0.59044000  1
  Li  Li1  1  0.45750600  0.75404200  0.90956000  1
  Li  Li2  1  0.54249400  0.25404200  0.09044000  1
  Li  Li3  1  0.04249400  0.75404200  0.40956000  1
  V  V0  1  0.51563300  0.51009200  0.51476600  1
  V  V1  1  0.48436700  0.01009200  0.48523400  1
  V  V2  1  0.01254600  0.73785400  0.72732400  1
  V  V3  1  0.51254600  0.23785400  0.77267600  1
  V  V4  1  0.98436700  0.51009200  0.01476600  1
  V  V5  1  0.01563300  0.01009200  0.98523400  1
  V  V6  1  0.48745400  0.73785400  0.22732400  1
  V  V7  1  0.98745400  0.23785400  0.27267600  1
  O  O0  1  0.25343200  0.75224200  0.57353700  1
  O  O1  1  0.32687100  0.25083500  0.59609000  1
  O  O2  1  0.75436800  0.49515600  0.67298600  1
  O  O3  1  0.25436800  0.99515600  0.82701400  1
  O  O4  1  0.82687100  0.75083500  0.90391000  1
  O  O5  1  0.75343200  0.25224200  0.92646300  1
  O  O6  1  0.24656800  0.75224200  0.07353700  1
  O  O7  1  0.17312900  0.25083500  0.09609000  1
  O  O8  1  0.74563200  0.49515600  0.17298600  1
  O  O9  1  0.24563200  0.99515600  0.32701400  1
  O  O10  1  0.67312900  0.75083500  0.40391000  1
  O  O11  1  0.74656800  0.25224200  0.42646300  1
  F  F0  1  0.75744100  0.99950300  0.66153700  1
  F  F1  1  0.25744100  0.49950300  0.83846300  1
  F  F2  1  0.74255900  0.99950300  0.16153700  1
  F  F3  1  0.24255900  0.49950300  0.33846300  1
loop_
_geom_bond_atom_site_label_1
_geom_bond_atom_site_label_2
_geom_bond_distance
_geom_bond_site_symmetry_2
Li0 O1 1.829550 1_655
Li0 O2 1.940976 1_555
Li0 O11 1.975635 1_555
Li1 O4 1.829550 1_555
Li1 O3 1.940976 1_555
Li1 O6 1.975635 1_556
Li2 O7 1.829550 1_555
Li2 O8 1.940976 1_555
Li2 O5 1.975635 1_554
Li3 O10 1.829550 1_455
Li3 O9 1.940976 1_555
Li3 O0 1.975635 1_555
O0 V2 1.975655 1_555
O0 V0 2.026601 1_555
O0 V1 2.111749 1_565
O1 V0 1.981779 1_555
O1 V1 1.982531 1_555
O1 V3 2.027946 1_555
O2 V2 2.003172 1_655
O2 V0 2.005784 1_555
O2 V3 2.190803 1_555
O3 V3 2.003172 1_565
O3 V5 2.005784 1_565
O3 V2 2.190803 1_555
O4 V5 1.981779 1_665
O4 V4 1.982531 1_556
O4 V2 2.027946 1_655
O5 V3 1.975655 1_555
O5 V5 2.026601 1_655
O5 V4 2.111749 1_556
O6 V6 1.975655 1_555
O6 V4 2.026601 1_455
O6 V5 2.111749 1_564
O7 V4 1.981779 1_455
O7 V5 1.982531 1_554
O7 V7 2.027946 1_455
O8 V6 2.003172 1_555
O8 V4 2.005784 1_555
O8 V7 2.190803 1_555
O9 V7 2.003172 1_465
O9 V1 2.005784 1_565
O9 V6 2.190803 1_555
O10 V1 1.981779 1_565
O10 V0 1.982531 1_555
O10 V6 2.027946 1_555
O11 V7 1.975655 1_555
O11 V1 2.026601 1_555
O11 V0 2.111749 1_555
F0 Li0 1.945996 1_565
F0 V2 2.110412 1_655
F0 V3 2.181424 1_565
F0 V1 2.254493 1_565
F1 Li1 1.945996 1_555
F1 V3 2.110412 1_555
F1 V2 2.181424 1_555
F1 V4 2.254493 1_456
F2 Li2 1.945996 1_565
F2 V6 2.110412 1_555
F2 V7 2.181424 1_565
F2 V5 2.254493 1_664
F3 Li3 1.945996 1_555
F3 V7 2.110412 1_455
F3 V6 2.181424 1_555
F3 V0 2.254493 1_555
