# generated using pymatgen
data_LiVCo3(PO4)6
_symmetry_space_group_name_H-M   'P 1'
_cell_length_a   8.64964967
_cell_length_b   8.64964967
_cell_length_c   8.64964953
_cell_angle_alpha   59.26091598
_cell_angle_beta   59.26091598
_cell_angle_gamma   59.26092343
_symmetry_Int_Tables_number   1
_chemical_formula_structural   LiVCo3(PO4)6
_chemical_formula_sum   'Li1 V1 Co3 P6 O24'
_cell_volume   449.89161316
_cell_formula_units_Z   1
loop_
 _symmetry_equiv_pos_site_id
 _symmetry_equiv_pos_as_xyz
  1  'x, y, z'
loop_
 _atom_site_type_symbol
 _atom_site_label
 _atom_site_symmetry_multiplicity
 _atom_site_fract_x
 _atom_site_fract_y
 _atom_site_fract_z
 _atom_site_occupancy
  Li  Li0  1  0.98819200  0.98819200  0.98819200  1
  V  V0  1  0.14301300  0.14301300  0.14301300  1
  Co  Co0  1  0.85611400  0.85611400  0.85611400  1
  Co  Co1  1  0.63745800  0.63745800  0.63745800  1
  Co  Co2  1  0.36331600  0.36331600  0.36331600  1
  P  P0  1  0.96630800  0.24453300  0.54161200  1
  P  P1  1  0.54161200  0.96630800  0.24453300  1
  P  P2  1  0.24453300  0.54161200  0.96630800  1
  P  P3  1  0.75537300  0.46567200  0.02942500  1
  P  P4  1  0.46567200  0.02942500  0.75537300  1
  P  P5  1  0.02942500  0.75537300  0.46567200  1
  O  O0  1  0.85712500  0.72894700  0.48537200  1
  O  O1  1  0.72894700  0.48537200  0.85712500  1
  O  O2  1  0.93569600  0.07703800  0.73450200  1
  O  O3  1  0.48537200  0.85712500  0.72894700  1
  O  O4  1  0.78296600  0.42148200  0.54649200  1
  O  O5  1  0.00865900  0.19237200  0.37228700  1
  O  O6  1  0.73450200  0.93569600  0.07703800  1
  O  O7  1  0.54649200  0.78296600  0.42148200  1
  O  O8  1  0.42148200  0.54649200  0.78296600  1
  O  O9  1  0.79607600  0.63058900  0.00672300  1
  O  O10  1  0.92411600  0.27159300  0.06623400  1
  O  O11  1  0.63058900  0.00672300  0.79607600  1
  O  O12  1  0.37228700  0.00865900  0.19237200  1
  O  O13  1  0.07703800  0.73450200  0.93569600  1
  O  O14  1  0.19237200  0.37228700  0.00865900  1
  O  O15  1  0.58443300  0.44144800  0.21527300  1
  O  O16  1  0.44144800  0.21527300  0.58443300  1
  O  O17  1  0.27159300  0.06623400  0.92411600  1
  O  O18  1  0.00672300  0.79607600  0.63058900  1
  O  O19  1  0.21527300  0.58443300  0.44144800  1
  O  O20  1  0.51384300  0.13421800  0.28150100  1
  O  O21  1  0.06623400  0.92411600  0.27159300  1
  O  O22  1  0.28150100  0.51384300  0.13421800  1
  O  O23  1  0.13421800  0.28150100  0.51384300  1
loop_
_geom_bond_atom_site_label_1
_geom_bond_atom_site_label_2
_geom_bond_distance
_geom_bond_site_symmetry_2
Li0 O6 2.133034 1_556
Li0 O2 2.133034 1_565
Li0 O13 2.133034 1_655
Li0 O17 2.586904 1_665
Li0 O21 2.586904 1_656
Li0 O10 2.586904 1_566
Co0 O9 1.875697 1_556
Co0 O18 1.875697 1_655
Co0 O11 1.875697 1_565
Co0 O2 1.944624 1_565
Co0 O6 1.944624 1_556
Co0 O13 1.944624 1_655
Co1 O8 1.944155 1_555
Co1 O7 1.944155 1_555
Co1 O4 1.944155 1_555
Co1 O0 1.970955 1_555
Co1 O1 1.970956 1_555
Co1 O3 1.970956 1_555
Co2 O15 1.920283 1_555
Co2 O16 1.920283 1_555
Co2 O19 1.920283 1_555
Co2 O23 1.994233 1_555
Co2 O22 1.994233 1_555
Co2 O20 1.994233 1_555
O0 P5 1.533362 1_655
O1 P3 1.533362 1_556
O2 P0 1.556367 1_555
O3 P4 1.533362 1_565
O4 P0 1.541310 1_555
O5 P0 1.562337 1_455
O5 V0 1.862263 1_555
O6 P1 1.556367 1_555
O7 P1 1.541310 1_555
O8 P2 1.541310 1_555
O9 P3 1.534182 1_555
O10 P3 1.572809 1_555
O10 V0 1.908033 1_655
O11 P4 1.534182 1_555
O12 P1 1.562337 1_545
O12 V0 1.862264 1_555
O13 P2 1.556367 1_555
O14 P2 1.562337 1_554
O14 V0 1.862263 1_555
O15 P3 1.535200 1_555
O16 P4 1.535200 1_555
O17 P4 1.572809 1_555
O17 V0 1.908032 1_556
O18 P5 1.534182 1_555
O19 P5 1.535200 1_555
O20 P1 1.519512 1_545
O21 P5 1.572809 1_555
O21 V0 1.908032 1_565
O22 P2 1.519512 1_554
O23 P0 1.519512 1_455
