# generated using pymatgen
data_LaTiNO2
_symmetry_space_group_name_H-M   'P 1'
_cell_length_a   5.59311600
_cell_length_b   5.59367663
_cell_length_c   8.00479965
_cell_angle_alpha   90.03583169
_cell_angle_beta   90.04114950
_cell_angle_gamma   90.38705349
_symmetry_Int_Tables_number   1
_chemical_formula_structural   LaTiNO2
_chemical_formula_sum   'La4 Ti4 N4 O8'
_cell_volume   250.43299190
_cell_formula_units_Z   4
loop_
 _symmetry_equiv_pos_site_id
 _symmetry_equiv_pos_as_xyz
  1  'x, y, z'
loop_
 _atom_site_type_symbol
 _atom_site_label
 _atom_site_symmetry_multiplicity
 _atom_site_fract_x
 _atom_site_fract_y
 _atom_site_fract_z
 _atom_site_occupancy
  La  La0  1  0.50097500  0.99566000  0.76460800  1
  La  La1  1  0.50079600  0.99944500  0.23642200  1
  La  La2  1  0.00458900  0.49632500  0.24145500  1
  La  La3  1  0.00168200  0.49330900  0.76717400  1
  Ti  Ti0  1  0.51202000  0.49980000  0.00038700  1
  Ti  Ti1  1  0.50039500  0.49632100  0.51318000  1
  Ti  Ti2  1  0.99783300  0.98582200  0.00323800  1
  Ti  Ti3  1  0.00262400  0.99889300  0.50003300  1
  N  N0  1  0.29493500  0.80662400  0.99868600  1
  N  N1  1  0.49457800  0.49758000  0.74424700  1
  N  N2  1  0.69766300  0.20272100  0.99784000  1
  N  N3  1  0.79678800  0.70573800  0.00289900  1
  O  O0  1  0.19710700  0.70380100  0.49572000  1
  O  O1  1  0.18808300  0.30954800  0.00272200  1
  O  O2  1  0.29836000  0.19738300  0.49514700  1
  O  O3  1  0.48843900  0.49303400  0.25153700  1
  O  O4  1  0.70684000  0.80016800  0.49286000  1
  O  O5  1  0.80356800  0.29846400  0.49519000  1
  O  O6  1  0.00628700  0.01011300  0.74287600  1
  O  O7  1  0.00655600  0.00925000  0.25377800  1
loop_
_geom_bond_atom_site_label_1
_geom_bond_atom_site_label_2
_geom_bond_distance
_geom_bond_site_symmetry_2
La0 N0 2.438482 1_555
La0 N2 2.452437 1_565
La0 O2 2.688282 1_565
La0 O4 2.696494 1_555
La0 O6 2.773913 1_565
La0 N1 2.790746 1_555
La0 N1 2.812874 1_565
La0 O6 2.832354 1_665
La0 N3 3.006903 1_556
La0 O1 3.133784 1_566
La0 O0 3.184253 1_555
La0 O5 3.217985 1_565
La1 N0 2.467405 1_554
La1 N2 2.478203 1_564
La1 O4 2.607905 1_555
La1 O2 2.610466 1_565
La1 O3 2.764884 1_565
La1 O7 2.768842 1_565
La1 O7 2.832244 1_665
La1 O3 2.835736 1_555
La1 N3 2.995249 1_555
La1 O1 3.099675 1_565
La1 O0 3.146366 1_555
La1 O5 3.147758 1_565
La2 O1 2.410728 1_555
La2 N3 2.527358 1_455
La2 O5 2.569768 1_455
La2 O0 2.574093 1_555
La2 O3 2.707562 1_555
La2 O7 2.726483 1_555
La2 O7 2.870717 1_565
La2 O3 2.888007 1_455
La2 N0 3.065457 1_554
La2 N2 3.065965 1_454
La2 O2 3.107491 1_555
La2 O4 3.122616 1_455
La3 O1 2.390138 1_556
La3 N3 2.510872 1_456
La3 O5 2.670779 1_455
La3 O0 2.700356 1_555
La3 O6 2.710007 1_555
La3 N1 2.763001 1_555
La3 N1 2.842354 1_455
La3 O6 2.897434 1_565
La3 N2 2.985591 1_455
La3 N0 3.024716 1_555
La3 O2 3.205139 1_555
La3 O4 3.244252 1_455
N0 Ti2 1.946783 1_456
N0 Ti0 2.109071 1_556
N1 Ti1 1.849964 1_555
N1 Ti0 2.052625 1_556
N2 Ti0 1.965525 1_556
N2 Ti2 2.078464 1_546
N3 Ti2 1.922283 1_555
N3 Ti0 1.959427 1_555
O0 Ti3 1.983258 1_555
O0 Ti1 2.066507 1_555
O1 Ti2 2.094123 1_445
O1 Ti0 2.095136 1_555
O2 Ti3 1.986355 1_545
O2 Ti1 2.016882 1_555
O3 Ti0 2.015184 1_555
O3 Ti1 2.095484 1_555
O4 Ti3 1.987658 1_655
O4 Ti1 2.054881 1_555
O5 Ti3 2.018475 1_645
O5 Ti1 2.036289 1_555
O6 Ti3 1.944972 1_545
O6 Ti2 2.089203 1_446
O7 Ti3 1.972243 1_545
O7 Ti2 2.010253 1_445
