# generated using pymatgen
data_Mn2F7
_symmetry_space_group_name_H-M   'P 1'
_cell_length_a   5.00013574
_cell_length_b   7.18642650
_cell_length_c   12.86286958
_cell_angle_alpha   82.48288121
_cell_angle_beta   90.00043822
_cell_angle_gamma   89.99722230
_symmetry_Int_Tables_number   1
_chemical_formula_structural   Mn2F7
_chemical_formula_sum   'Mn8 F28'
_cell_volume   458.23062576
_cell_formula_units_Z   4
loop_
 _symmetry_equiv_pos_site_id
 _symmetry_equiv_pos_as_xyz
  1  'x, y, z'
loop_
 _atom_site_type_symbol
 _atom_site_label
 _atom_site_symmetry_multiplicity
 _atom_site_fract_x
 _atom_site_fract_y
 _atom_site_fract_z
 _atom_site_occupancy
  Mn  Mn0  1  0.75427927  0.97159060  0.10941591  1
  Mn  Mn1  1  0.27173155  0.91910010  0.32164723  1
  Mn  Mn2  1  0.77203502  0.58026260  0.67923331  1
  Mn  Mn3  1  0.25276129  0.52571464  0.89045498  1
  Mn  Mn4  1  0.75276758  0.47424530  0.10955090  1
  Mn  Mn5  1  0.27198897  0.41977989  0.32074836  1
  Mn  Mn6  1  0.77182042  0.08091348  0.67836790  1
  Mn  Mn7  1  0.25434716  0.02836106  0.89059651  1
  F  F0  1  0.95759571  0.99177334  0.80835198  1
  F  F1  1  0.56032293  0.95462978  0.38894794  1
  F  F2  1  0.65855349  0.83003741  0.67983238  1
  F  F3  1  0.36891171  0.77747171  0.88712969  1
  F  F4  1  0.08393793  0.84455272  0.42947899  1
  F  F5  1  0.02796872  0.94131967  0.01945892  1
  F  F6  1  0.98060358  0.88795924  0.23365977  1
  F  F7  1  0.94722461  0.60072938  0.81275999  1
  F  F8  1  0.06978757  0.64799229  0.61930748  1
  F  F9  1  0.62901393  0.72486384  0.10120209  1
  F  F10  1  0.38186093  0.67358766  0.30477814  1
  F  F11  1  0.59919761  0.56105362  0.56667249  1
  F  F12  1  0.47341020  0.50602469  0.76268798  1
  F  F13  1  0.53174996  0.45213768  0.97759876  1
  F  F14  1  0.03168756  0.54780124  0.02239297  1
  F  F15  1  0.97336577  0.49399344  0.23731398  1
  F  F16  1  0.09923554  0.43898255  0.43332673  1
  F  F17  1  0.88186036  0.32642956  0.69526036  1
  F  F18  1  0.12903427  0.27516611  0.89874186  1
  F  F19  1  0.56976153  0.35197347  0.38065338  1
  F  F20  1  0.44719439  0.39936080  0.18722381  1
  F  F21  1  0.48066394  0.11203701  0.76635870  1
  F  F22  1  0.52807550  0.05866125  0.98054329  1
  F  F23  1  0.58392139  0.15548703  0.57056556  1
  F  F24  1  0.86885940  0.22241834  0.11286216  1
  F  F25  1  0.15847529  0.16999217  0.32018255  1
  F  F26  1  0.06039955  0.04539477  0.61104056  1
  F  F27  1  0.45754536  0.00820059  0.19164936  1
loop_
_geom_bond_atom_site_label_1
_geom_bond_atom_site_label_2
_geom_bond_distance
_geom_bond_site_symmetry_2
F0 Mn7 1.860843 1_665
F0 Mn6 1.946377 1_565
F1 Mn1 1.718919 1_555
F2 Mn2 1.883489 1_555
F2 Mn6 1.887532 1_565
F3 Mn3 1.895337 1_555
F3 Mn7 1.897859 1_565
F4 Mn1 1.702411 1_555
F5 Mn0 1.823409 1_455
F5 Mn7 2.036855 1_564
F6 Mn1 1.875171 1_655
F6 Mn0 1.986071 1_555
F7 Mn3 1.866080 1_655
F7 Mn2 1.950635 1_555
F8 Mn2 1.717419 1_455
F9 Mn4 1.894070 1_555
F9 Mn0 1.896422 1_555
F10 Mn1 1.887682 1_555
F10 Mn5 1.890224 1_555
F11 Mn2 1.707187 1_555
F12 Mn2 1.875302 1_555
F12 Mn3 1.999756 1_555
F13 Mn3 1.823964 1_555
F13 Mn4 2.048863 1_556
F14 Mn4 1.823827 1_455
F14 Mn3 2.048839 1_554
F15 Mn5 1.875065 1_655
F15 Mn4 1.999642 1_555
F16 Mn5 1.707164 1_555
F17 Mn6 1.887696 1_555
F17 Mn2 1.890264 1_555
F18 Mn3 1.893663 1_555
F18 Mn7 1.896818 1_555
F19 Mn5 1.717469 1_555
F20 Mn4 1.865939 1_555
F20 Mn5 1.950586 1_555
F21 Mn6 1.875280 1_555
F21 Mn7 1.986100 1_555
F22 Mn7 1.823515 1_555
F22 Mn0 2.036466 1_546
F23 Mn6 1.702408 1_555
F24 Mn4 1.895690 1_555
F24 Mn0 1.897474 1_545
F25 Mn5 1.883623 1_555
F25 Mn1 1.887573 1_545
F26 Mn6 1.719020 1_455
F27 Mn0 1.860716 1_545
F27 Mn1 1.946594 1_545
