# generated using pymatgen
data_Li4Mn3Fe(BO3)4
_symmetry_space_group_name_H-M   'P 1'
_cell_length_a   5.24963500
_cell_length_b   5.25489037
_cell_length_c   21.00431306
_cell_angle_alpha   91.16627264
_cell_angle_beta   90.60907148
_cell_angle_gamma   119.82121568
_symmetry_Int_Tables_number   1
_chemical_formula_structural   Li4Mn3Fe(BO3)4
_chemical_formula_sum   'Li8 Mn6 Fe2 B8 O24'
_cell_volume   502.45499350
_cell_formula_units_Z   2
loop_
 _symmetry_equiv_pos_site_id
 _symmetry_equiv_pos_as_xyz
  1  'x, y, z'
loop_
 _atom_site_type_symbol
 _atom_site_label
 _atom_site_symmetry_multiplicity
 _atom_site_fract_x
 _atom_site_fract_y
 _atom_site_fract_z
 _atom_site_occupancy
  Li  Li0  1  0.34757900  0.32303700  0.66612200  1
  Li  Li1  1  0.32192300  0.34743600  0.91608000  1
  Li  Li2  1  0.34928300  0.32120700  0.16609300  1
  Li  Li3  1  0.32169700  0.34929100  0.41616500  1
  Li  Li4  1  0.66463400  0.65250700  0.79097800  1
  Li  Li5  1  0.65149000  0.66223700  0.54188500  1
  Li  Li6  1  0.66225000  0.65169800  0.29124300  1
  Li  Li7  1  0.65181200  0.66199000  0.04109900  1
  Mn  Mn0  1  0.99325500  0.32568000  0.55923000  1
  Mn  Mn1  1  0.99631200  0.32936400  0.05819000  1
  Mn  Mn2  1  0.99976500  0.67871900  0.93254400  1
  Mn  Mn3  1  0.99745500  0.67638800  0.43376000  1
  Mn  Mn4  1  0.67698100  0.99693100  0.18337600  1
  Mn  Mn5  1  0.32905900  0.99601700  0.30839500  1
  Fe  Fe0  1  0.67579600  0.99364500  0.68472400  1
  Fe  Fe1  1  0.33582300  0.00320700  0.80708300  1
  B  B0  1  0.65886400  0.00348900  0.93653400  1
  B  B1  1  0.65834100  0.00260400  0.43720700  1
  B  B2  1  0.99545800  0.33272200  0.81118100  1
  B  B3  1  0.99477300  0.33389100  0.31204000  1
  B  B4  1  0.00290300  0.66245500  0.68744700  1
  B  B5  1  0.00292700  0.65831400  0.18713200  1
  B  B6  1  0.33367900  0.99363300  0.56302800  1
  B  B7  1  0.33401000  0.99509000  0.06203800  1
  O  O0  1  0.74734500  0.06978900  0.79192300  1
  O  O1  1  0.75351100  0.07068300  0.29092800  1
  O  O2  1  0.92924100  0.25420800  0.95169700  1
  O  O3  1  0.42154800  0.03346000  0.91580100  1
  O  O4  1  0.92873600  0.25297600  0.45238900  1
  O  O5  1  0.42092900  0.03268100  0.41643500  1
  O  O6  1  0.97442900  0.58263000  0.82530300  1
  O  O7  1  0.35751200  0.26786700  0.56997700  1
  O  O8  1  0.96217600  0.57766800  0.32733400  1
  O  O9  1  0.35859300  0.26893000  0.06921600  1
  O  O10  1  0.26551300  0.34573100  0.81808600  1
  O  O11  1  0.26912500  0.35834200  0.31955800  1
  O  O12  1  0.72930800  0.64292100  0.69375200  1
  O  O13  1  0.72730400  0.62903900  0.19430000  1
  O  O14  1  0.62996700  0.72845700  0.94373600  1
  O  O15  1  0.01973900  0.41585800  0.66873100  1
  O  O16  1  0.62914000  0.72787800  0.44467500  1
  O  O17  1  0.03336400  0.42070100  0.16647900  1
  O  O18  1  0.57712800  0.96189900  0.57877400  1
  O  O19  1  0.57762900  0.96236700  0.07739600  1
  O  O20  1  0.07117500  0.75123200  0.54168000  1
  O  O21  1  0.07068000  0.75279000  0.04092700  1
  O  O22  1  0.25589600  0.93006500  0.70131300  1
  O  O23  1  0.25274400  0.92907200  0.20221400  1
loop_
_geom_bond_atom_site_label_1
_geom_bond_atom_site_label_2
_geom_bond_distance
_geom_bond_site_symmetry_2
Li0 O12 1.939958 1_555
Li0 O15 2.009660 1_555
Li0 O22 2.030644 1_545
Li0 O7 2.039222 1_555
Li1 O14 1.916710 1_555
Li1 O3 1.963073 1_555
Li1 O2 2.022984 1_455
Li1 O10 2.075575 1_555
Li2 O13 1.910257 1_555
Li2 O17 1.971401 1_555
Li2 O23 2.027756 1_545
Li2 O9 2.052101 1_555
Li3 O16 1.912793 1_555
Li3 O5 1.975298 1_555
Li3 O4 2.025152 1_455
Li3 O11 2.049637 1_555
Li4 O6 1.969598 1_555
Li4 O10 2.004078 1_555
Li4 O0 2.012029 1_565
Li4 O12 2.077453 1_555
Li5 O18 1.949501 1_555
Li5 O7 1.978076 1_555
Li5 O20 2.012038 1_655
Li5 O16 2.089412 1_555
Li6 O8 1.949586 1_555
Li6 O11 1.971913 1_555
Li6 O1 2.007160 1_565
Li6 O13 2.079029 1_555
Li7 O19 1.947589 1_555
Li7 O9 1.972621 1_555
Li7 O21 2.004889 1_655
Li7 O14 2.093149 1_554
Mn0 O7 2.090748 1_655
Mn0 O20 2.104972 1_655
Mn0 O18 2.119568 1_545
Mn0 O4 2.262079 1_555
Mn0 O15 2.327480 1_655
Mn1 O9 2.089458 1_655
Mn1 O21 2.099202 1_655
Mn1 O19 2.132497 1_545
Mn1 O2 2.256605 1_554
Mn1 O17 2.301090 1_655
Mn2 O14 2.098592 1_555
Mn2 O3 2.106979 1_665
Mn2 O2 2.119782 1_555
Mn2 O6 2.286274 1_555
Mn2 O21 2.296603 1_656
Mn3 O16 2.095590 1_555
Mn3 O4 2.115165 1_555
Mn3 O5 2.117823 1_665
Mn3 O8 2.269116 1_555
Mn3 O20 2.288328 1_655
Mn4 O13 2.093931 1_555
Mn4 O23 2.116190 1_555
Mn4 O17 2.118422 1_665
Mn4 O19 2.263823 1_555
Mn4 O1 2.281479 1_565
Mn5 O11 2.087656 1_565
Mn5 O1 2.099335 1_565
Mn5 O8 2.131034 1_455
Mn5 O23 2.251045 1_555
Mn5 O5 2.299127 1_565
Fe0 O12 2.009879 1_555
Fe0 O15 2.086721 1_665
Fe0 O22 2.093000 1_555
Fe0 O18 2.263404 1_555
Fe0 O0 2.273090 1_565
Fe1 O10 2.018669 1_555
Fe1 O0 2.039183 1_555
Fe1 O6 2.123643 1_445
Fe1 O22 2.245981 1_545
Fe1 O3 2.309675 1_555
B0 O14 1.387808 1_545
B0 O3 1.397472 1_555
B0 O2 1.401882 1_555
B1 O16 1.386314 1_545
B1 O5 1.398511 1_555
B1 O4 1.401226 1_555
B2 O10 1.390823 1_655
B2 O0 1.394748 1_555
B2 O6 1.397783 1_555
B3 O11 1.387820 1_655
B3 O1 1.390895 1_555
B3 O8 1.405680 1_555
B4 O15 1.391210 1_555
B4 O22 1.394210 1_555
B4 O12 1.396037 1_455
B5 O13 1.387119 1_455
B5 O17 1.396656 1_555
B5 O23 1.400571 1_555
B6 O7 1.387575 1_565
B6 O20 1.392978 1_555
B6 O18 1.405614 1_555
B7 O9 1.384254 1_565
B7 O21 1.393619 1_555
B7 O19 1.407642 1_555
