# generated using pymatgen
data_SmYO2
_symmetry_space_group_name_H-M   'P 1'
_cell_length_a   6.85622182
_cell_length_b   6.85622182
_cell_length_c   6.85622157
_cell_angle_alpha   31.46639806
_cell_angle_beta   31.46639806
_cell_angle_gamma   31.46640025
_symmetry_Int_Tables_number   1
_chemical_formula_structural   SmYO2
_chemical_formula_sum   'Sm1 Y1 O2'
_cell_volume   77.96243830
_cell_formula_units_Z   1
loop_
 _symmetry_equiv_pos_site_id
 _symmetry_equiv_pos_as_xyz
  1  'x, y, z'
loop_
 _atom_site_type_symbol
 _atom_site_label
 _atom_site_symmetry_multiplicity
 _atom_site_fract_x
 _atom_site_fract_y
 _atom_site_fract_z
 _atom_site_occupancy
  Sm  Sm0  1  0.50000000  0.50000000  0.50000000  1
  Y  Y0  1  0.00000000  0.00000000  0.00000000  1
  O  O0  1  0.11229400  0.11229400  0.11229400  1
  O  O1  1  0.88770600  0.88770600  0.88770600  1
loop_
_geom_bond_atom_site_label_1
_geom_bond_atom_site_label_2
_geom_bond_distance
_geom_bond_site_symmetry_2
O0 Y0 2.193599 1_555
O0 Sm0 2.395116 1_554
O0 Sm0 2.395116 1_545
O0 Sm0 2.395116 1_455
O1 Y0 2.193599 1_666
O1 Sm0 2.395116 1_556
O1 Sm0 2.395116 1_655
O1 Sm0 2.395116 1_565
