# generated using pymatgen
data_Li5Cr3NiO8
_symmetry_space_group_name_H-M   'P 1'
_cell_length_a   8.48384300
_cell_length_b   8.48384300
_cell_length_c   8.48384300
_cell_angle_alpha   90.00000000
_cell_angle_beta   90.00000000
_cell_angle_gamma   90.00000000
_symmetry_Int_Tables_number   1
_chemical_formula_structural   Li5Cr3NiO8
_chemical_formula_sum   'Li20 Cr12 Ni4 O32'
_cell_volume   610.62962277
_cell_formula_units_Z   4
loop_
 _symmetry_equiv_pos_site_id
 _symmetry_equiv_pos_as_xyz
  1  'x, y, z'
loop_
 _atom_site_type_symbol
 _atom_site_label
 _atom_site_symmetry_multiplicity
 _atom_site_fract_x
 _atom_site_fract_y
 _atom_site_fract_z
 _atom_site_occupancy
  Li  Li0  1  0.63857900  0.87500000  0.88857900  1
  Li  Li1  1  0.62500000  0.11142100  0.13857900  1
  Li  Li2  1  0.61142100  0.36142100  0.37500000  1
  Li  Li3  1  0.80676300  0.30676300  0.19323700  1
  Li  Li4  1  0.69323700  0.69323700  0.69323700  1
  Li  Li5  1  0.88857900  0.63857900  0.87500000  1
  Li  Li6  1  0.87500000  0.88857900  0.63857900  1
  Li  Li7  1  0.86142100  0.12500000  0.38857900  1
  Li  Li8  1  0.05676300  0.94323700  0.44323700  1
  Li  Li9  1  0.94323700  0.44323700  0.05676300  1
  Li  Li10  1  0.13857900  0.62500000  0.11142100  1
  Li  Li11  1  0.12500000  0.38857900  0.86142100  1
  Li  Li12  1  0.11142100  0.13857900  0.62500000  1
  Li  Li13  1  0.30676300  0.19323700  0.80676300  1
  Li  Li14  1  0.19323700  0.80676300  0.30676300  1
  Li  Li15  1  0.38857900  0.86142100  0.12500000  1
  Li  Li16  1  0.37500000  0.61142100  0.36142100  1
  Li  Li17  1  0.36142100  0.37500000  0.61142100  1
  Li  Li18  1  0.55676300  0.55676300  0.55676300  1
  Li  Li19  1  0.44323700  0.05676300  0.94323700  1
  Cr  Cr0  1  0.62500000  0.87272300  0.37727700  1
  Cr  Cr1  1  0.62727700  0.62272300  0.12500000  1
  Cr  Cr2  1  0.62272300  0.12500000  0.62727700  1
  Cr  Cr3  1  0.87727700  0.87500000  0.12727700  1
  Cr  Cr4  1  0.87500000  0.12727700  0.87727700  1
  Cr  Cr5  1  0.87272300  0.37727700  0.62500000  1
  Cr  Cr6  1  0.12727700  0.87727700  0.87500000  1
  Cr  Cr7  1  0.12500000  0.62727700  0.62272300  1
  Cr  Cr8  1  0.12272300  0.37500000  0.37272300  1
  Cr  Cr9  1  0.37272300  0.12272300  0.37500000  1
  Cr  Cr10  1  0.37727700  0.62500000  0.87272300  1
  Cr  Cr11  1  0.37500000  0.37272300  0.12272300  1
  Ni  Ni0  1  0.62500000  0.37500000  0.87500000  1
  Ni  Ni1  1  0.87500000  0.62500000  0.37500000  1
  Ni  Ni2  1  0.12500000  0.12500000  0.12500000  1
  Ni  Ni3  1  0.37500000  0.87500000  0.62500000  1
  O  O0  1  0.61664200  0.62588800  0.88557700  1
  O  O1  1  0.61442300  0.38335800  0.12588800  1
  O  O2  1  0.61637100  0.11637100  0.38362900  1
  O  O3  1  0.62588800  0.88557700  0.61664200  1
  O  O4  1  0.62411200  0.63335800  0.36442300  1
  O  O5  1  0.63335800  0.36442300  0.62411200  1
  O  O6  1  0.63362900  0.86637100  0.13362900  1
  O  O7  1  0.63557700  0.12411200  0.86664200  1
  O  O8  1  0.86664200  0.63557700  0.12411200  1
  O  O9  1  0.86442300  0.87588800  0.36664200  1
  O  O10  1  0.86637100  0.13362900  0.63362900  1
  O  O11  1  0.87588800  0.36664200  0.86442300  1
  O  O12  1  0.87411200  0.11442300  0.11664200  1
  O  O13  1  0.88362900  0.88362900  0.88362900  1
  O  O14  1  0.88335800  0.37411200  0.38557700  1
  O  O15  1  0.88557700  0.61664200  0.62588800  1
  O  O16  1  0.11664200  0.87411200  0.11442300  1
  O  O17  1  0.11442300  0.11664200  0.87411200  1
  O  O18  1  0.11637100  0.38362900  0.61637100  1
  O  O19  1  0.12588800  0.61442300  0.38335800  1
  O  O20  1  0.12411200  0.86664200  0.63557700  1
  O  O21  1  0.13335800  0.13557700  0.37588800  1
  O  O22  1  0.13362900  0.63362900  0.86637100  1
  O  O23  1  0.13557700  0.37588800  0.13335800  1
  O  O24  1  0.36664200  0.86442300  0.87588800  1
  O  O25  1  0.36442300  0.62411200  0.63335800  1
  O  O26  1  0.36637100  0.36637100  0.36637100  1
  O  O27  1  0.37588800  0.13335800  0.13557700  1
  O  O28  1  0.37411200  0.38557700  0.88335800  1
  O  O29  1  0.38335800  0.12588800  0.61442300  1
  O  O30  1  0.38362900  0.61637100  0.11637100  1
  O  O31  1  0.38557700  0.88335800  0.37411200  1
loop_
_geom_bond_atom_site_label_1
_geom_bond_atom_site_label_2
_geom_bond_distance
_geom_bond_site_symmetry_2
Li0 O6 2.080678 1_556
Li0 O13 2.080678 1_555
Li0 O0 2.121759 1_555
Li0 O7 2.121759 1_565
Li0 O3 2.311324 1_555
Li0 O24 2.311324 1_555
Li1 O6 2.080678 1_545
Li1 O2 2.080678 1_555
Li1 O12 2.121759 1_555
Li1 O27 2.121759 1_555
Li1 O7 2.311324 1_554
Li1 O1 2.311324 1_555
Li2 O26 2.080678 1_555
Li2 O2 2.080678 1_555
Li2 O5 2.121759 1_555
Li2 O1 2.121759 1_555
Li2 O4 2.311324 1_555
Li2 O14 2.311324 1_555
Li3 O12 1.847012 1_555
Li3 O14 1.847012 1_555
Li3 O1 1.847012 1_555
Li4 O15 1.847012 1_555
Li4 O0 1.847012 1_555
Li4 O3 1.847012 1_555
Li5 O13 2.080678 1_555
Li5 O22 2.080678 1_655
Li5 O15 2.121759 1_555
Li5 O8 2.121759 1_556
Li5 O0 2.311324 1_555
Li5 O11 2.311324 1_555
Li6 O13 2.080678 1_555
Li6 O10 2.080678 1_565
Li6 O3 2.121759 1_555
Li6 O20 2.121759 1_655
Li6 O15 2.311324 1_555
Li6 O9 2.311324 1_555
Li7 O2 2.080678 1_555
Li7 O10 2.080678 1_555
Li7 O14 2.121759 1_555
Li7 O9 2.121759 1_545
Li7 O12 2.311324 1_555
Li7 O21 2.311324 1_655
Li8 O9 1.847012 1_455
Li8 O21 1.847012 1_565
Li8 O20 1.847012 1_555
Li9 O11 1.847012 1_554
Li9 O23 1.847012 1_655
Li9 O8 1.847012 1_555
Li10 O22 2.080678 1_554
Li10 O30 2.080678 1_555
Li10 O16 2.121759 1_555
Li10 O23 2.121759 1_555
Li10 O8 2.311324 1_455
Li10 O19 2.311324 1_555
Li11 O18 2.080678 1_555
Li11 O22 2.080678 1_555
Li11 O28 2.121759 1_555
Li11 O11 2.121759 1_455
Li11 O17 2.311324 1_555
Li11 O23 2.311324 1_556
Li12 O10 2.080678 1_455
Li12 O18 2.080678 1_555
Li12 O17 2.121759 1_555
Li12 O21 2.121759 1_555
Li12 O20 2.311324 1_545
Li12 O29 2.311324 1_555
Li13 O28 1.847012 1_555
Li13 O17 1.847012 1_555
Li13 O29 1.847012 1_555
Li14 O31 1.847012 1_555
Li14 O16 1.847012 1_555
Li14 O19 1.847012 1_555
Li15 O6 2.080678 1_555
Li15 O30 2.080678 1_555
Li15 O31 2.121759 1_555
Li15 O24 2.121759 1_554
Li15 O16 2.311324 1_555
Li15 O27 2.311324 1_565
Li16 O26 2.080678 1_555
Li16 O30 2.080678 1_555
Li16 O4 2.121759 1_555
Li16 O19 2.121759 1_555
Li16 O31 2.311324 1_555
Li16 O25 2.311324 1_555
Li17 O26 2.080678 1_555
Li17 O18 2.080678 1_555
Li17 O25 2.121759 1_555
Li17 O29 2.121759 1_555
Li17 O28 2.311324 1_555
Li17 O5 2.311324 1_555
Li18 O25 1.847012 1_555
Li18 O5 1.847012 1_555
Li18 O4 1.847012 1_555
Li19 O24 1.847012 1_545
Li19 O27 1.847012 1_556
Li19 O7 1.847012 1_555
Cr0 O9 2.033407 1_555
Cr0 O31 2.033407 1_555
Cr0 O4 2.033675 1_555
Cr0 O3 2.033675 1_555
Cr0 O6 2.069069 1_555
Cr0 O2 2.069069 1_565
Cr1 O4 2.033407 1_555
Cr1 O0 2.033407 1_554
Cr1 O8 2.033675 1_555
Cr1 O1 2.033675 1_555
Cr1 O30 2.069069 1_555
Cr1 O6 2.069069 1_555
Cr2 O5 2.033407 1_555
Cr2 O3 2.033407 1_545
Cr2 O7 2.033675 1_555
Cr2 O29 2.033675 1_555
Cr2 O2 2.069069 1_555
Cr2 O10 2.069069 1_555
Cr3 O12 2.033407 1_565
Cr3 O8 2.033407 1_555
Cr3 O9 2.033675 1_555
Cr3 O16 2.033675 1_655
Cr3 O6 2.069069 1_555
Cr3 O13 2.069069 1_554
Cr4 O17 2.033407 1_655
Cr4 O7 2.033407 1_555
Cr4 O11 2.033675 1_555
Cr4 O12 2.033675 1_556
Cr4 O10 2.069069 1_555
Cr4 O13 2.069069 1_545
Cr5 O11 2.033407 1_555
Cr5 O14 2.033407 1_555
Cr5 O5 2.033675 1_555
Cr5 O15 2.033675 1_555
Cr5 O10 2.069069 1_555
Cr5 O18 2.069069 1_655
Cr6 O16 2.033407 1_556
Cr6 O20 2.033407 1_555
Cr6 O24 2.033675 1_555
Cr6 O17 2.033675 1_565
Cr6 O22 2.069069 1_555
Cr6 O13 2.069069 1_455
Cr7 O25 2.033407 1_555
Cr7 O15 2.033407 1_455
Cr7 O20 2.033675 1_555
Cr7 O19 2.033675 1_555
Cr7 O22 2.069069 1_555
Cr7 O18 2.069069 1_555
Cr8 O19 2.033407 1_555
Cr8 O21 2.033407 1_555
Cr8 O23 2.033675 1_555
Cr8 O14 2.033675 1_455
Cr8 O26 2.069069 1_555
Cr8 O18 2.069069 1_555
Cr9 O29 2.033407 1_555
Cr9 O27 2.033407 1_555
Cr9 O21 2.033675 1_555
Cr9 O31 2.033675 1_545
Cr9 O26 2.069069 1_555
Cr9 O2 2.069069 1_555
Cr10 O24 2.033407 1_555
Cr10 O28 2.033407 1_555
Cr10 O25 2.033675 1_555
Cr10 O0 2.033675 1_555
Cr10 O22 2.069069 1_555
Cr10 O30 2.069069 1_556
Cr11 O1 2.033407 1_555
Cr11 O23 2.033407 1_555
Cr11 O27 2.033675 1_555
Cr11 O28 2.033675 1_554
Cr11 O26 2.069069 1_555
Cr11 O30 2.069069 1_555
Ni0 O5 2.131565 1_555
Ni0 O28 2.131565 1_555
Ni0 O0 2.131565 1_555
Ni0 O7 2.131565 1_555
Ni0 O1 2.131565 1_556
Ni0 O11 2.131565 1_555
Ni1 O4 2.131565 1_555
Ni1 O14 2.131565 1_555
Ni1 O15 2.131565 1_555
Ni1 O8 2.131565 1_555
Ni1 O19 2.131565 1_655
Ni1 O9 2.131565 1_555
Ni2 O17 2.131565 1_554
Ni2 O12 2.131565 1_455
Ni2 O21 2.131565 1_555
Ni2 O27 2.131565 1_555
Ni2 O16 2.131565 1_545
Ni2 O23 2.131565 1_555
Ni3 O31 2.131565 1_555
Ni3 O25 2.131565 1_555
Ni3 O3 2.131565 1_555
Ni3 O20 2.131565 1_555
Ni3 O29 2.131565 1_565
Ni3 O24 2.131565 1_555
