# generated using pymatgen
data_YbTiO3
_symmetry_space_group_name_H-M   'P 1'
_cell_length_a   5.33387900
_cell_length_b   5.49145400
_cell_length_c   7.61434800
_cell_angle_alpha   90.00000000
_cell_angle_beta   90.00000000
_cell_angle_gamma   90.00000000
_symmetry_Int_Tables_number   1
_chemical_formula_structural   YbTiO3
_chemical_formula_sum   'Yb4 Ti4 O12'
_cell_volume   223.02997259
_cell_formula_units_Z   4
loop_
 _symmetry_equiv_pos_site_id
 _symmetry_equiv_pos_as_xyz
  1  'x, y, z'
loop_
 _atom_site_type_symbol
 _atom_site_label
 _atom_site_symmetry_multiplicity
 _atom_site_fract_x
 _atom_site_fract_y
 _atom_site_fract_z
 _atom_site_occupancy
  Yb  Yb0  1  0.98784100  0.44641500  0.75000000  1
  Yb  Yb1  1  0.51215900  0.94641500  0.75000000  1
  Yb  Yb2  1  0.48784100  0.05358500  0.25000000  1
  Yb  Yb3  1  0.01215900  0.55358500  0.25000000  1
  Ti  Ti0  1  0.00000000  0.00000000  0.00000000  1
  Ti  Ti1  1  0.00000000  0.00000000  0.50000000  1
  Ti  Ti2  1  0.50000000  0.50000000  0.00000000  1
  Ti  Ti3  1  0.50000000  0.50000000  0.50000000  1
  O  O0  1  0.08655300  0.02452500  0.75000000  1
  O  O1  1  0.20457900  0.29414900  0.04574300  1
  O  O2  1  0.20457900  0.29414900  0.45425700  1
  O  O3  1  0.29542100  0.79414900  0.45425700  1
  O  O4  1  0.29542100  0.79414900  0.04574300  1
  O  O5  1  0.41344700  0.52452500  0.75000000  1
  O  O6  1  0.58655300  0.47547500  0.25000000  1
  O  O7  1  0.70457900  0.20585100  0.95425700  1
  O  O8  1  0.70457900  0.20585100  0.54574300  1
  O  O9  1  0.79542100  0.70585100  0.54574300  1
  O  O10  1  0.79542100  0.70585100  0.95425700  1
  O  O11  1  0.91344700  0.97547500  0.25000000  1
loop_
_geom_bond_atom_site_label_1
_geom_bond_atom_site_label_2
_geom_bond_distance
_geom_bond_site_symmetry_2
O0 Ti0 1.963394 1_556
O0 Ti1 1.963394 1_555
O0 Yb1 2.310299 1_545
O0 Yb0 2.375865 1_455
O1 Ti2 1.970311 1_555
O1 Ti0 1.980213 1_555
O1 Yb3 2.345636 1_555
O1 Yb2 2.539064 1_555
O1 Yb0 2.665828 1_454
O2 Ti3 1.970311 1_555
O2 Ti1 1.980213 1_555
O2 Yb3 2.345636 1_555
O2 Yb2 2.539064 1_555
O2 Yb0 2.665828 1_455
O3 Ti1 1.970311 1_565
O3 Ti3 1.980213 1_555
O3 Yb2 2.345636 1_565
O3 Yb3 2.539064 1_555
O3 Yb1 2.665828 1_555
O4 Ti0 1.970311 1_565
O4 Ti2 1.980213 1_555
O4 Yb2 2.345636 1_565
O4 Yb3 2.539064 1_555
O4 Yb1 2.665828 1_554
O5 Ti2 1.963394 1_556
O5 Ti3 1.963394 1_555
O5 Yb0 2.310299 1_455
O5 Yb1 2.375865 1_555
O6 Ti2 1.963394 1_555
O6 Ti3 1.963394 1_555
O6 Yb3 2.310299 1_655
O6 Yb2 2.375865 1_555
O7 Ti0 1.970311 1_656
O7 Ti2 1.980213 1_556
O7 Yb1 2.345636 1_545
O7 Yb0 2.539064 1_555
O7 Yb2 2.665828 1_556
O8 Ti1 1.970311 1_655
O8 Ti3 1.980213 1_555
O8 Yb1 2.345636 1_545
O8 Yb0 2.539064 1_555
O8 Yb2 2.665828 1_555
O9 Ti3 1.970311 1_555
O9 Ti1 1.980213 1_665
O9 Yb0 2.345636 1_555
O9 Yb1 2.539064 1_555
O9 Yb3 2.665828 1_655
O10 Ti2 1.970311 1_556
O10 Ti0 1.980213 1_666
O10 Yb0 2.345636 1_555
O10 Yb1 2.539064 1_555
O10 Yb3 2.665828 1_656
O11 Ti1 1.963394 1_665
O11 Ti0 1.963394 1_665
O11 Yb2 2.310299 1_565
O11 Yb3 2.375865 1_655
