# generated using pymatgen
data_LiVF6
_symmetry_space_group_name_H-M   'P 1'
_cell_length_a   9.38823000
_cell_length_b   9.21163500
_cell_length_c   15.62011393
_cell_angle_alpha   54.25570068
_cell_angle_beta   90.00000000
_cell_angle_gamma   90.00000000
_symmetry_Int_Tables_number   1
_chemical_formula_structural   LiVF6
_chemical_formula_sum   'Li8 V8 F48'
_cell_volume   1096.38695253
_cell_formula_units_Z   8
loop_
 _symmetry_equiv_pos_site_id
 _symmetry_equiv_pos_as_xyz
  1  'x, y, z'
loop_
 _atom_site_type_symbol
 _atom_site_label
 _atom_site_symmetry_multiplicity
 _atom_site_fract_x
 _atom_site_fract_y
 _atom_site_fract_z
 _atom_site_occupancy
  Li  Li0  1  0.13009800  0.25313500  0.85395900  1
  Li  Li1  1  0.86958800  0.96280900  0.14095900  1
  Li  Li2  1  0.62675600  0.74984500  0.64633400  1
  Li  Li3  1  0.50139800  0.46481900  0.00720800  1
  Li  Li4  1  0.13041200  0.96280900  0.64095900  1
  Li  Li5  1  0.86990200  0.25313500  0.35395900  1
  Li  Li6  1  0.37324400  0.74984500  0.14633400  1
  Li  Li7  1  0.49860200  0.46481900  0.50720800  1
  V  V0  1  0.28009200  0.62932700  0.61357900  1
  V  V1  1  0.78339900  0.37280000  0.88222000  1
  V  V2  1  0.71903400  0.87001700  0.38119800  1
  V  V3  1  0.21845600  0.13264100  0.12121300  1
  V  V4  1  0.28096600  0.87001700  0.88119800  1
  V  V5  1  0.78154400  0.13264100  0.62121300  1
  V  V6  1  0.71990800  0.62932700  0.11357900  1
  V  V7  1  0.21660100  0.37280000  0.38222000  1
  F  F0  1  0.40667000  0.47785500  0.61227300  1
  F  F1  1  0.66624500  0.22122000  0.88192100  1
  F  F2  1  0.61696400  0.66788700  0.42462800  1
  F  F3  1  0.32201100  0.93182300  0.16069400  1
  F  F4  1  0.13866000  0.54657600  0.57912400  1
  F  F5  1  0.93089600  0.29831400  0.83978900  1
  F  F6  1  0.18285900  0.16550500  0.99368700  1
  F  F7  1  0.75321400  0.90602000  0.25462800  1
  F  F8  1  0.05789500  0.99275500  0.17275200  1
  F  F9  1  0.87763200  0.74015300  0.43466600  1
  F  F10  1  0.24111100  0.45516200  0.75414900  1
  F  F11  1  0.82293600  0.19623300  0.02149000  1
  F  F12  1  0.32307700  0.80031900  0.48083300  1
  F  F13  1  0.74006400  0.54725500  0.74413000  1
  F  F14  1  0.38231200  0.26328400  0.06355100  1
  F  F15  1  0.56297800  0.00329600  0.32755900  1
  F  F16  1  0.25306200  0.09280700  0.24410000  1
  F  F17  1  0.68281900  0.83240700  0.50817000  1
  F  F18  1  0.42897000  0.69895600  0.66032700  1
  F  F19  1  0.63700900  0.45373200  0.92213600  1
  F  F20  1  0.16278300  0.78372400  0.61853400  1
  F  F21  1  0.90295700  0.51873300  0.88648600  1
  F  F22  1  0.82325000  0.07043100  0.33817600  1
  F  F23  1  0.11943200  0.32848100  0.07592500  1
  F  F24  1  0.38303600  0.66788700  0.92462800  1
  F  F25  1  0.67798900  0.93182300  0.66069400  1
  F  F26  1  0.59333000  0.47785500  0.11227300  1
  F  F27  1  0.33375500  0.22122000  0.38192100  1
  F  F28  1  0.86134000  0.54657600  0.07912400  1
  F  F29  1  0.06910400  0.29831400  0.33978900  1
  F  F30  1  0.81714100  0.16550500  0.49368700  1
  F  F31  1  0.24678600  0.90602000  0.75462800  1
  F  F32  1  0.94210500  0.99275500  0.67275200  1
  F  F33  1  0.12236800  0.74015300  0.93466600  1
  F  F34  1  0.75888900  0.45516200  0.25414900  1
  F  F35  1  0.17706400  0.19623300  0.52149000  1
  F  F36  1  0.67692300  0.80031900  0.98083300  1
  F  F37  1  0.25993600  0.54725500  0.24413000  1
  F  F38  1  0.61768800  0.26328400  0.56355100  1
  F  F39  1  0.43702200  0.00329600  0.82755900  1
  F  F40  1  0.74693800  0.09280700  0.74410000  1
  F  F41  1  0.31718100  0.83240700  0.00817000  1
  F  F42  1  0.57103000  0.69895600  0.16032700  1
  F  F43  1  0.36299100  0.45373200  0.42213600  1
  F  F44  1  0.17675000  0.07043100  0.83817600  1
  F  F45  1  0.88056800  0.32848100  0.57592500  1
  F  F46  1  0.83721700  0.78372400  0.11853400  1
  F  F47  1  0.09704300  0.51873300  0.38648600  1
loop_
_geom_bond_atom_site_label_1
_geom_bond_atom_site_label_2
_geom_bond_distance
_geom_bond_site_symmetry_2
F0 V0 1.841930 1_555
F0 Li7 1.919080 1_555
F1 V1 1.779608 1_555
F2 V2 1.835638 1_555
F2 Li7 1.891741 1_555
F3 V3 1.847871 1_565
F3 Li6 1.879094 1_555
F4 V0 1.764386 1_555
F5 V1 1.832720 1_555
F5 Li0 1.900538 1_655
F6 V3 1.861917 1_556
F6 Li0 1.897939 1_555
F7 V2 1.831826 1_555
F7 Li1 1.880060 1_555
F8 V3 1.835415 1_565
F8 Li1 1.899508 1_455
F9 V2 1.782770 1_555
F10 V0 1.847523 1_555
F10 Li0 1.894824 1_555
F11 V1 1.838951 1_554
F11 Li1 1.899903 1_545
F12 V0 1.768466 1_555
F13 V1 1.830512 1_555
F13 Li2 1.901869 1_555
F14 V3 1.832903 1_555
F14 Li3 1.887345 1_555
F15 V2 1.775941 1_545
F16 V3 1.761194 1_555
F17 V2 1.834771 1_555
F17 Li2 1.896144 1_555
F18 V0 1.856168 1_555
F18 Li2 1.896244 1_555
F19 V1 1.837506 1_555
F19 Li3 1.885655 1_556
F20 V0 1.835839 1_555
F20 Li4 1.900414 1_555
F21 V1 1.782149 1_555
F22 V2 1.835113 1_545
F22 Li5 1.889408 1_555
F23 V3 1.768655 1_555
F24 V4 1.835638 1_555
F24 Li3 1.891741 1_556
F25 V5 1.847871 1_565
F25 Li2 1.879094 1_555
F26 V6 1.841930 1_555
F26 Li3 1.919080 1_555
F27 V7 1.779608 1_555
F28 V6 1.764386 1_555
F29 V7 1.832720 1_555
F29 Li5 1.900538 1_455
F30 V5 1.861917 1_555
F30 Li5 1.897939 1_555
F31 V4 1.831826 1_555
F31 Li4 1.880060 1_555
F32 V5 1.835415 1_565
F32 Li4 1.899508 1_655
F33 V4 1.782770 1_555
F34 V6 1.847523 1_555
F34 Li5 1.894824 1_555
F35 V7 1.838951 1_555
F35 Li4 1.899903 1_545
F36 V6 1.768466 1_556
F37 V7 1.830512 1_555
F37 Li6 1.901869 1_555
F38 V5 1.832903 1_555
F38 Li7 1.887345 1_555
F39 V4 1.775941 1_545
F40 V5 1.761194 1_555
F41 V4 1.834771 1_554
F41 Li6 1.896144 1_555
F42 V6 1.856168 1_555
F42 Li6 1.896244 1_555
F43 V7 1.837506 1_555
F43 Li7 1.885655 1_555
F44 V4 1.835113 1_545
F44 Li0 1.889408 1_555
F45 V5 1.768655 1_555
F46 V6 1.835839 1_555
F46 Li1 1.900414 1_555
F47 V7 1.782149 1_555
