# generated using pymatgen
data_DyTmO3
_symmetry_space_group_name_H-M   'P 1'
_cell_length_a   5.63790600
_cell_length_b   5.90736300
_cell_length_c   8.32893800
_cell_angle_alpha   90.00000000
_cell_angle_beta   90.00000000
_cell_angle_gamma   90.00000000
_symmetry_Int_Tables_number   1
_chemical_formula_structural   DyTmO3
_chemical_formula_sum   'Dy4 Tm4 O12'
_cell_volume   277.39659025
_cell_formula_units_Z   4
loop_
 _symmetry_equiv_pos_site_id
 _symmetry_equiv_pos_as_xyz
  1  'x, y, z'
loop_
 _atom_site_type_symbol
 _atom_site_label
 _atom_site_symmetry_multiplicity
 _atom_site_fract_x
 _atom_site_fract_y
 _atom_site_fract_z
 _atom_site_occupancy
  Dy  Dy0  1  0.98374800  0.05351200  0.25000000  1
  Dy  Dy1  1  0.48374800  0.44648800  0.75000000  1
  Dy  Dy2  1  0.51625200  0.55351200  0.25000000  1
  Dy  Dy3  1  0.01625200  0.94648800  0.75000000  1
  Tm  Tm0  1  0.50000000  0.00000000  0.00000000  1
  Tm  Tm1  1  0.50000000  0.00000000  0.50000000  1
  Tm  Tm2  1  0.00000000  0.50000000  0.00000000  1
  Tm  Tm3  1  0.00000000  0.50000000  0.50000000  1
  O  O0  1  0.64562300  0.07623700  0.75000000  1
  O  O1  1  0.18136400  0.18504700  0.57611300  1
  O  O2  1  0.18136400  0.18504700  0.92388700  1
  O  O3  1  0.68136400  0.31495300  0.07611300  1
  O  O4  1  0.68136400  0.31495300  0.42388700  1
  O  O5  1  0.14562300  0.42376300  0.25000000  1
  O  O6  1  0.85437700  0.57623700  0.75000000  1
  O  O7  1  0.31863600  0.68504700  0.92388700  1
  O  O8  1  0.31863600  0.68504700  0.57611300  1
  O  O9  1  0.81863600  0.81495300  0.07611300  1
  O  O10  1  0.81863600  0.81495300  0.42388700  1
  O  O11  1  0.35437700  0.92376300  0.25000000  1
loop_
_geom_bond_atom_site_label_1
_geom_bond_atom_site_label_2
_geom_bond_distance
_geom_bond_site_symmetry_2
Dy0 O10 2.224883 1_545
Dy0 O9 2.224883 1_545
Dy0 O11 2.225712 1_645
Dy0 O5 2.369975 1_655
Dy0 O4 2.718308 1_555
Dy0 O3 2.718308 1_555
Dy0 O1 3.036887 1_655
Dy0 O2 3.036887 1_654
Dy1 O7 2.224883 1_555
Dy1 O8 2.224883 1_555
Dy1 O6 2.225712 1_555
Dy1 O0 2.369975 1_555
Dy1 O2 2.718308 1_555
Dy1 O1 2.718308 1_555
Dy1 O3 3.036887 1_556
Dy1 O4 3.036887 1_555
Dy2 O4 2.224883 1_555
Dy2 O3 2.224883 1_555
Dy2 O5 2.225712 1_555
Dy2 O11 2.369975 1_555
Dy2 O10 2.718308 1_555
Dy2 O9 2.718308 1_555
Dy2 O8 3.036887 1_555
Dy2 O7 3.036887 1_554
Dy3 O2 2.224883 1_565
Dy3 O1 2.224883 1_565
Dy3 O0 2.225712 1_465
Dy3 O6 2.369975 1_455
Dy3 O7 2.718308 1_555
Dy3 O8 2.718308 1_555
Dy3 O9 3.036887 1_456
Dy3 O10 3.036887 1_455
O0 Tm1 2.283107 1_555
O0 Tm0 2.283107 1_556
O1 Tm1 2.196368 1_555
O1 Tm3 2.215633 1_555
O2 Tm0 2.196368 1_556
O2 Tm2 2.215633 1_556
O3 Tm2 2.196368 1_655
O3 Tm0 2.215633 1_555
O4 Tm3 2.196368 1_655
O4 Tm1 2.215633 1_555
O5 Tm3 2.283107 1_555
O5 Tm2 2.283107 1_555
O6 Tm3 2.283107 1_655
O6 Tm2 2.283107 1_656
O7 Tm2 2.196368 1_556
O7 Tm0 2.215633 1_566
O8 Tm3 2.196368 1_555
O8 Tm1 2.215633 1_565
O9 Tm0 2.196368 1_565
O9 Tm2 2.215633 1_655
O10 Tm1 2.196368 1_565
O10 Tm3 2.215633 1_655
O11 Tm1 2.283107 1_565
O11 Tm0 2.283107 1_565
