# generated using pymatgen
data_V2O3F
_symmetry_space_group_name_H-M   'P 1'
_cell_length_a   4.68938300
_cell_length_b   6.05450963
_cell_length_c   9.85106740
_cell_angle_alpha   107.64977974
_cell_angle_beta   92.10196927
_cell_angle_gamma   89.81774556
_symmetry_Int_Tables_number   1
_chemical_formula_structural   V2O3F
_chemical_formula_sum   'V8 O12 F4'
_cell_volume   266.33636036
_cell_formula_units_Z   4
loop_
 _symmetry_equiv_pos_site_id
 _symmetry_equiv_pos_as_xyz
  1  'x, y, z'
loop_
 _atom_site_type_symbol
 _atom_site_label
 _atom_site_symmetry_multiplicity
 _atom_site_fract_x
 _atom_site_fract_y
 _atom_site_fract_z
 _atom_site_occupancy
  V  V0  1  0.55294200  0.86033100  0.22818700  1
  V  V1  1  0.50086000  0.12707000  0.74276200  1
  V  V2  1  0.45445200  0.39365600  0.27608500  1
  V  V3  1  0.46348800  0.61167400  0.75369000  1
  V  V4  1  0.98253300  0.24485000  0.49929600  1
  V  V5  1  0.01314300  0.49924800  0.99476600  1
  V  V6  1  0.05707000  0.00256600  0.00237900  1
  V  V7  1  0.98924300  0.75997300  0.50608100  1
  O  O0  1  0.18565100  0.45522800  0.40116700  1
  O  O1  1  0.20164300  0.70945500  0.90482900  1
  O  O2  1  0.19582500  0.18901000  0.89830900  1
  O  O3  1  0.31334300  0.81043000  0.65625800  1
  O  O4  1  0.30488500  0.07735200  0.15408800  1
  O  O5  1  0.31628500  0.57473600  0.15184900  1
  O  O6  1  0.28468100  0.33302300  0.64808300  1
  O  O7  1  0.68486300  0.17269100  0.34358400  1
  O  O8  1  0.68927300  0.44150700  0.84749300  1
  O  O9  1  0.69251600  0.67163300  0.34527100  1
  O  O10  1  0.81316800  0.80731500  0.09727700  1
  O  O11  1  0.79936200  0.04775700  0.59879700  1
  F  F0  1  0.19757400  0.94892500  0.39744600  1
  F  F1  1  0.71002500  0.92126000  0.85496400  1
  F  F2  1  0.78361500  0.54945800  0.60240100  1
  F  F3  1  0.81355900  0.29085200  0.09493800  1
loop_
_geom_bond_atom_site_label_1
_geom_bond_atom_site_label_2
_geom_bond_distance
_geom_bond_site_symmetry_2
O0 V2 1.754581 1_555
O0 V7 2.055103 1_455
O0 V4 2.070272 1_455
O1 V6 1.881078 1_566
O1 V3 1.915711 1_555
O1 V5 1.983545 1_555
O2 V6 1.871908 1_556
O2 V5 2.032756 1_555
O2 V1 2.084137 1_555
O3 V3 1.873633 1_555
O3 V1 2.034646 1_565
O3 V7 2.038578 1_455
O4 V6 1.804055 1_555
O4 V0 2.030278 1_545
O4 V2 2.038334 1_555
O5 V2 1.967376 1_555
O5 V0 1.987338 1_555
O5 V5 2.009513 1_554
O6 V3 1.874130 1_555
O6 V4 1.954190 1_455
O6 V1 2.019977 1_555
O7 V2 1.968992 1_555
O7 V0 1.975790 1_545
O7 V4 1.983115 1_555
O8 V3 1.880160 1_555
O8 V5 2.016883 1_655
O8 V1 2.054793 1_555
O9 V0 1.950104 1_555
O9 V2 1.950361 1_555
O9 V7 2.015198 1_555
O10 V0 1.765552 1_555
O10 V5 2.072266 1_654
O10 V6 2.082489 1_665
O11 V7 1.935912 1_545
O11 V4 1.974871 1_555
O11 V1 1.982347 1_555
F0 V4 2.050932 1_465
F0 V7 2.057828 1_455
F0 V0 2.345369 1_555
F1 V6 2.097130 1_666
F1 V1 2.117636 1_565
F1 V3 2.154173 1_555
F2 V4 2.055646 1_555
F2 V7 2.064692 1_555
F2 V3 2.106359 1_555
F3 V5 2.066878 1_654
F3 V6 2.068940 1_655
F3 V2 2.438829 1_555
