# generated using pymatgen
data_VOF
_symmetry_space_group_name_H-M   'P 1'
_cell_length_a   4.72628717
_cell_length_b   4.72628717
_cell_length_c   12.51029897
_cell_angle_alpha   89.96047843
_cell_angle_beta   89.96047843
_cell_angle_gamma   90.17075641
_symmetry_Int_Tables_number   1
_chemical_formula_structural   VOF
_chemical_formula_sum   'V8 O8 F8'
_cell_volume   279.45106245
_cell_formula_units_Z   8
loop_
 _symmetry_equiv_pos_site_id
 _symmetry_equiv_pos_as_xyz
  1  'x, y, z'
loop_
 _atom_site_type_symbol
 _atom_site_label
 _atom_site_symmetry_multiplicity
 _atom_site_fract_x
 _atom_site_fract_y
 _atom_site_fract_z
 _atom_site_occupancy
  V  V0  1  0.03158400  0.02711100  0.37507200  1
  V  V1  1  0.97288900  0.96841600  0.62492800  1
  V  V2  1  0.04716800  0.01290300  0.87494000  1
  V  V3  1  0.98709700  0.95283200  0.12506000  1
  V  V4  1  0.53121300  0.46878700  0.50000000  1
  V  V5  1  0.48131200  0.51868800  0.00000000  1
  V  V6  1  0.47661800  0.52424000  0.25061600  1
  V  V7  1  0.47576000  0.52338200  0.74938400  1
  O  O0  1  0.18878400  0.81134400  0.25174800  1
  O  O1  1  0.18865600  0.81121600  0.74825200  1
  O  O2  1  0.19652100  0.80347900  0.00000000  1
  O  O3  1  0.68480500  0.67838700  0.62457400  1
  O  O4  1  0.68442300  0.68302600  0.12540600  1
  O  O5  1  0.32161300  0.31519500  0.37542600  1
  O  O6  1  0.31697400  0.31557700  0.87459400  1
  O  O7  1  0.82019500  0.17980500  0.50000000  1
  F  F0  1  0.21008900  0.78991100  0.50000000  1
  F  F1  1  0.71186400  0.70652700  0.37509400  1
  F  F2  1  0.70239500  0.71886800  0.87483300  1
  F  F3  1  0.29347300  0.28813600  0.62490600  1
  F  F4  1  0.28113200  0.29760500  0.12516700  1
  F  F5  1  0.79526600  0.20228200  0.75087500  1
  F  F6  1  0.80262800  0.19737200  0.00000000  1
  F  F7  1  0.79771800  0.20473400  0.24912500  1
loop_
_geom_bond_atom_site_label_1
_geom_bond_atom_site_label_2
_geom_bond_distance
_geom_bond_site_symmetry_2
O0 V6 1.924352 1_555
O0 V3 1.967783 1_455
O0 V0 1.994330 1_565
O1 V7 1.924352 1_555
O1 V2 1.967783 1_565
O1 V1 1.994330 1_455
O2 V5 1.906372 1_555
O2 V3 1.982247 1_455
O2 V2 1.982247 1_564
O3 V1 1.929187 1_555
O3 V4 1.984062 1_555
O3 V7 1.985658 1_555
O4 V3 1.913535 1_555
O4 V6 1.993322 1_555
O4 V5 1.996361 1_555
O5 V0 1.929187 1_555
O5 V4 1.984062 1_555
O5 V6 1.985658 1_555
O6 V2 1.913535 1_555
O6 V7 1.993322 1_555
O6 V5 1.996361 1_556
O7 V4 1.934426 1_555
O7 V1 1.991306 1_545
O7 V0 1.991306 1_655
F0 V1 2.101484 1_455
F0 V0 2.101484 1_565
F0 V4 2.149582 1_555
F1 V6 2.098099 1_555
F1 V4 2.103165 1_555
F1 V0 2.136700 1_665
F2 V5 2.104452 1_556
F2 V7 2.112446 1_555
F2 V2 2.138461 1_665
F3 V7 2.098099 1_555
F3 V4 2.103165 1_555
F3 V1 2.136700 1_445
F4 V5 2.104452 1_555
F4 V6 2.112446 1_555
F4 V3 2.138461 1_445
F5 V1 2.101242 1_545
F5 V7 2.144174 1_555
F5 V2 2.152797 1_655
F6 V2 2.132861 1_654
F6 V3 2.132861 1_545
F6 V5 2.150867 1_555
F7 V0 2.101242 1_655
F7 V6 2.144174 1_555
F7 V3 2.152797 1_545
