# generated using pymatgen
data_Sb4H8C2S7N
_symmetry_space_group_name_H-M   'P 1'
_cell_length_a   7.78900800
_cell_length_b   7.78900800
_cell_length_c   26.34878300
_cell_angle_alpha   90.00000000
_cell_angle_beta   90.00000000
_cell_angle_gamma   99.05857226
_symmetry_Int_Tables_number   1
_chemical_formula_structural   Sb4H8C2S7N
_chemical_formula_sum   'Sb16 H32 C8 S28 N4'
_cell_volume   1578.60777185
_cell_formula_units_Z   4
loop_
 _symmetry_equiv_pos_site_id
 _symmetry_equiv_pos_as_xyz
  1  'x, y, z'
loop_
 _atom_site_type_symbol
 _atom_site_label
 _atom_site_symmetry_multiplicity
 _atom_site_fract_x
 _atom_site_fract_y
 _atom_site_fract_z
 _atom_site_occupancy
  Sb  Sb0  1  0.29586900  0.09695600  0.81990400  1
  Sb  Sb1  1  0.09695600  0.29586900  0.18009600  1
  Sb  Sb2  1  0.59695600  0.79586900  0.31990400  1
  Sb  Sb3  1  0.79586900  0.59695600  0.68009600  1
  Sb  Sb4  1  0.70413100  0.90304400  0.18009600  1
  Sb  Sb5  1  0.90304400  0.70413100  0.81990400  1
  Sb  Sb6  1  0.40304400  0.20413100  0.68009600  1
  Sb  Sb7  1  0.20413100  0.40304400  0.31990400  1
  Sb  Sb8  1  0.46570700  0.53429300  0.88873600  1
  Sb  Sb9  1  0.53429300  0.46570700  0.11126400  1
  Sb  Sb10  1  0.03429300  0.96570700  0.38873600  1
  Sb  Sb11  1  0.96570700  0.03429300  0.61126400  1
  Sb  Sb12  1  0.86383000  0.13617000  0.75611600  1
  Sb  Sb13  1  0.13617000  0.86383000  0.24388400  1
  Sb  Sb14  1  0.63617000  0.36383000  0.25611600  1
  Sb  Sb15  1  0.36383000  0.63617000  0.74388400  1
  H  H0  1  0.75215500  0.24784500  0.92368300  1
  H  H1  1  0.24784500  0.75215500  0.07631700  1
  H  H2  1  0.74784500  0.25215500  0.42368300  1
  H  H3  1  0.25215500  0.74784500  0.57631700  1
  H  H4  1  0.88021500  0.11978500  0.89907900  1
  H  H5  1  0.11978500  0.88021500  0.10092100  1
  H  H6  1  0.61978500  0.38021500  0.39907900  1
  H  H7  1  0.38021500  0.61978500  0.60092100  1
  H  H8  1  0.01810300  0.39121200  0.94602000  1
  H  H9  1  0.39121200  0.01810300  0.05398000  1
  H  H10  1  0.89121200  0.51810300  0.44602000  1
  H  H11  1  0.51810300  0.89121200  0.55398000  1
  H  H12  1  0.98189700  0.60878800  0.05398000  1
  H  H13  1  0.60878800  0.98189700  0.94602000  1
  H  H14  1  0.10878800  0.48189700  0.55398000  1
  H  H15  1  0.48189700  0.10878800  0.44602000  1
  H  H16  1  0.10144400  0.19306100  0.95683500  1
  H  H17  1  0.19306100  0.10144400  0.04316500  1
  H  H18  1  0.69306100  0.60144400  0.45683500  1
  H  H19  1  0.60144400  0.69306100  0.54316500  1
  H  H20  1  0.89855600  0.80693900  0.04316500  1
  H  H21  1  0.80693900  0.89855600  0.95683500  1
  H  H22  1  0.30693900  0.39855600  0.54316500  1
  H  H23  1  0.39855600  0.30693900  0.45683500  1
  H  H24  1  0.95379300  0.26623000  0.00181100  1
  H  H25  1  0.26623000  0.95379300  0.99818900  1
  H  H26  1  0.76623000  0.45379300  0.50181100  1
  H  H27  1  0.45379300  0.76623000  0.49818900  1
  H  H28  1  0.04620700  0.73377000  0.99818900  1
  H  H29  1  0.73377000  0.04620700  0.00181100  1
  H  H30  1  0.23377000  0.54620700  0.49818900  1
  H  H31  1  0.54620700  0.23377000  0.50181100  1
  C  C0  1  0.98875400  0.25984800  0.96160800  1
  C  C1  1  0.25984800  0.98875400  0.03839200  1
  C  C2  1  0.75984800  0.48875400  0.46160800  1
  C  C3  1  0.48875400  0.75984800  0.53839200  1
  C  C4  1  0.01124600  0.74015200  0.03839200  1
  C  C5  1  0.74015200  0.01124600  0.96160800  1
  C  C6  1  0.24015200  0.51124600  0.53839200  1
  C  C7  1  0.51124600  0.24015200  0.46160800  1
  S  S0  1  0.42040200  0.57959800  0.98297400  1
  S  S1  1  0.57959800  0.42040200  0.01702600  1
  S  S2  1  0.07959800  0.92040200  0.48297400  1
  S  S3  1  0.92040200  0.07959800  0.51702600  1
  S  S4  1  0.13651200  0.86348800  0.87574600  1
  S  S5  1  0.86348800  0.13651200  0.12425400  1
  S  S6  1  0.36348800  0.63651200  0.37574600  1
  S  S7  1  0.63651200  0.36348800  0.62425400  1
  S  S8  1  0.42016200  0.21714300  0.90251800  1
  S  S9  1  0.21714300  0.42016200  0.09748200  1
  S  S10  1  0.71714300  0.92016200  0.40251800  1
  S  S11  1  0.92016200  0.71714300  0.59748200  1
  S  S12  1  0.57983800  0.78285700  0.09748200  1
  S  S13  1  0.78285700  0.57983800  0.90251800  1
  S  S14  1  0.28285700  0.07983800  0.59748200  1
  S  S15  1  0.07983800  0.28285700  0.40251800  1
  S  S16  1  0.05723800  0.94276200  0.72548000  1
  S  S17  1  0.94276200  0.05723800  0.27452000  1
  S  S18  1  0.44276200  0.55723800  0.22548000  1
  S  S19  1  0.55723800  0.44276200  0.77452000  1
  S  S20  1  0.07054200  0.29537400  0.81990000  1
  S  S21  1  0.29537400  0.07054200  0.18010000  1
  S  S22  1  0.79537400  0.57054200  0.31990000  1
  S  S23  1  0.57054200  0.79537400  0.68010000  1
  S  S24  1  0.92945800  0.70462600  0.18010000  1
  S  S25  1  0.70462600  0.92945800  0.81990000  1
  S  S26  1  0.20462600  0.42945800  0.68010000  1
  S  S27  1  0.42945800  0.20462600  0.31990000  1
  N  N0  1  0.83745100  0.16254900  0.93348600  1
  N  N1  1  0.16254900  0.83745100  0.06651400  1
  N  N2  1  0.66254900  0.33745100  0.43348600  1
  N  N3  1  0.33745100  0.66254900  0.56651400  1
loop_
_geom_bond_atom_site_label_1
_geom_bond_atom_site_label_2
_geom_bond_distance
_geom_bond_site_symmetry_2
H0 N0 1.043304 1_555
H1 N1 1.043304 1_555
H2 N2 1.043304 1_555
H3 N3 1.043304 1_555
H4 N0 1.038617 1_555
H5 N1 1.038617 1_555
H6 N2 1.038617 1_555
H7 N3 1.038617 1_555
C0 H8 1.092807 1_655
C0 H16 1.095738 1_655
C0 H24 1.096815 1_556
C0 N0 1.493664 1_555
C1 H9 1.092807 1_565
C1 H17 1.095738 1_565
C1 H25 1.096815 1_554
C1 N1 1.493664 1_555
C2 H10 1.092807 1_555
C2 H18 1.095738 1_555
C2 H26 1.096815 1_555
C2 N2 1.493664 1_555
C3 H11 1.092807 1_555
C3 H19 1.095738 1_555
C3 H27 1.096815 1_555
C3 N3 1.493664 1_555
C4 H12 1.092807 1_455
C4 H20 1.095738 1_455
C4 H28 1.096815 1_554
C4 N1 1.493664 1_555
C5 H13 1.092807 1_545
C5 H21 1.095738 1_545
C5 H29 1.096815 1_556
C5 N0 1.493664 1_555
C6 H14 1.092807 1_555
C6 H22 1.095738 1_555
C6 H30 1.096815 1_555
C6 N3 1.493664 1_555
C7 H15 1.092807 1_555
C7 H23 1.095738 1_555
C7 H31 1.096815 1_555
C7 N2 1.493664 1_555
S0 S1 2.089084 1_556
S0 Sb8 2.540439 1_555
S1 Sb9 2.540439 1_555
S2 S3 2.089084 1_465
S2 Sb10 2.540439 1_555
S3 Sb11 2.540439 1_555
S4 Sb5 2.510322 1_455
S4 Sb0 2.510322 1_565
S5 Sb4 2.510322 1_545
S5 Sb1 2.510322 1_655
S6 Sb2 2.510322 1_555
S6 Sb7 2.510322 1_555
S7 Sb3 2.510322 1_555
S7 Sb6 2.510322 1_555
S8 Sb8 2.466591 1_555
S8 Sb0 2.503316 1_555
S9 Sb9 2.466591 1_555
S9 Sb1 2.503316 1_555
S10 Sb10 2.466591 1_655
S10 Sb2 2.503316 1_555
S11 Sb11 2.466591 1_565
S11 Sb3 2.503316 1_555
S12 Sb9 2.466591 1_555
S12 Sb4 2.503316 1_555
S13 Sb8 2.466591 1_555
S13 Sb5 2.503316 1_555
S14 Sb11 2.466591 1_455
S14 Sb6 2.503316 1_555
S15 Sb10 2.466591 1_545
S15 Sb7 2.503316 1_555
S16 Sb12 2.430029 1_465
S17 Sb13 2.430029 1_645
S18 Sb14 2.430029 1_555
S19 Sb15 2.430029 1_555
S20 Sb0 2.514538 1_555
S20 Sb12 2.515132 1_455
S21 Sb1 2.514538 1_555
S21 Sb13 2.515132 1_545
S22 Sb2 2.514538 1_555
S22 Sb14 2.515132 1_555
S23 Sb3 2.514538 1_555
S23 Sb15 2.515132 1_555
S24 Sb4 2.514538 1_555
S24 Sb13 2.515132 1_655
S25 Sb5 2.514538 1_555
S25 Sb12 2.515132 1_565
S26 Sb6 2.514538 1_555
S26 Sb15 2.515132 1_555
S27 Sb7 2.514538 1_555
S27 Sb14 2.515132 1_555
