# generated using pymatgen
data_Li2Fe2C2O7
_symmetry_space_group_name_H-M   'P 1'
_cell_length_a   6.60875700
_cell_length_b   9.11094600
_cell_length_c   10.70430407
_cell_angle_alpha   78.30365066
_cell_angle_beta   90.00000000
_cell_angle_gamma   90.00000000
_symmetry_Int_Tables_number   1
_chemical_formula_structural   Li2Fe2C2O7
_chemical_formula_sum   'Li8 Fe8 C8 O28'
_cell_volume   631.14470696
_cell_formula_units_Z   4
loop_
 _symmetry_equiv_pos_site_id
 _symmetry_equiv_pos_as_xyz
  1  'x, y, z'
loop_
 _atom_site_type_symbol
 _atom_site_label
 _atom_site_symmetry_multiplicity
 _atom_site_fract_x
 _atom_site_fract_y
 _atom_site_fract_z
 _atom_site_occupancy
  Li  Li0  1  0.20611300  0.95171900  0.51544900  1
  Li  Li1  1  0.29388700  0.95171900  0.01544900  1
  Li  Li2  1  0.18760300  0.37511300  0.57858000  1
  Li  Li3  1  0.68760300  0.62488700  0.92142000  1
  Li  Li4  1  0.31239700  0.37511300  0.07858000  1
  Li  Li5  1  0.81239700  0.62488700  0.42142000  1
  Li  Li6  1  0.70611300  0.04828100  0.98455100  1
  Li  Li7  1  0.79388700  0.04828100  0.48455100  1
  Fe  Fe0  1  0.10284500  0.97866500  0.75974900  1
  Fe  Fe1  1  0.42055300  0.71633600  0.67502100  1
  Fe  Fe2  1  0.39715500  0.97866500  0.25974900  1
  Fe  Fe3  1  0.07944700  0.71633600  0.17502100  1
  Fe  Fe4  1  0.92055300  0.28366400  0.82497900  1
  Fe  Fe5  1  0.60284500  0.02133500  0.74025100  1
  Fe  Fe6  1  0.57944700  0.28366400  0.32497900  1
  Fe  Fe7  1  0.89715500  0.02133500  0.24025100  1
  C  C0  1  0.80494900  0.78187600  0.64338600  1
  C  C1  1  0.75430900  0.32742900  0.55164000  1
  C  C2  1  0.25430900  0.67257100  0.94836000  1
  C  C3  1  0.69505100  0.78187600  0.14338600  1
  C  C4  1  0.30494900  0.21812400  0.85661400  1
  C  C5  1  0.74569100  0.32742900  0.05164000  1
  C  C6  1  0.24569100  0.67257100  0.44836000  1
  C  C7  1  0.19505100  0.21812400  0.35661400  1
  O  O0  1  0.35870200  0.93743200  0.67131300  1
  O  O1  1  0.95716900  0.86998800  0.60406600  1
  O  O2  1  0.71484800  0.70639200  0.57073100  1
  O  O3  1  0.27510300  0.58872800  0.56196000  1
  O  O4  1  0.72970400  0.77969600  0.75716700  1
  O  O5  1  0.17438100  0.80540100  0.92489300  1
  O  O6  1  0.36564600  0.62134900  0.86740100  1
  O  O7  1  0.86564600  0.37865100  0.63259900  1
  O  O8  1  0.14129800  0.93743200  0.17131300  1
  O  O9  1  0.54283100  0.86998800  0.10406600  1
  O  O10  1  0.67438100  0.19459900  0.57510700  1
  O  O11  1  0.78515200  0.70639200  0.07073100  1
  O  O12  1  0.22489700  0.58872800  0.06196000  1
  O  O13  1  0.77029600  0.77969600  0.25716700  1
  O  O14  1  0.22970400  0.22030400  0.74283300  1
  O  O15  1  0.77510300  0.41127200  0.93804000  1
  O  O16  1  0.21484800  0.29360800  0.92926900  1
  O  O17  1  0.32561900  0.80540100  0.42489300  1
  O  O18  1  0.45716900  0.13001200  0.89593400  1
  O  O19  1  0.85870200  0.06256800  0.82868700  1
  O  O20  1  0.13435400  0.62134900  0.36740100  1
  O  O21  1  0.63435400  0.37865100  0.13259900  1
  O  O22  1  0.82561900  0.19459900  0.07510700  1
  O  O23  1  0.27029600  0.22030400  0.24283300  1
  O  O24  1  0.72489700  0.41127200  0.43804000  1
  O  O25  1  0.28515200  0.29360800  0.42926900  1
  O  O26  1  0.04283100  0.13001200  0.39593400  1
  O  O27  1  0.64129800  0.06256800  0.32868700  1
loop_
_geom_bond_atom_site_label_1
_geom_bond_atom_site_label_2
_geom_bond_distance
_geom_bond_site_symmetry_2
Li0 O0 1.931170 1_555
Li0 O17 1.965822 1_555
Li0 O1 1.968409 1_455
Li0 O26 2.144121 1_565
Li1 O8 1.931170 1_555
Li1 O5 1.965822 1_554
Li1 O9 1.968409 1_555
Li1 O18 2.144121 1_564
Li2 O25 2.000681 1_555
Li2 O3 2.003369 1_555
Li2 O14 2.037805 1_555
Li2 O7 2.206856 1_455
Li3 O11 2.000681 1_556
Li3 O15 2.003369 1_555
Li3 O4 2.037805 1_555
Li3 O6 2.206856 1_555
Li4 O16 2.000681 1_554
Li4 O12 2.003369 1_555
Li4 O23 2.037805 1_555
Li4 O21 2.206856 1_555
Li5 O2 2.000681 1_555
Li5 O24 2.003369 1_555
Li5 O13 2.037805 1_555
Li5 O20 2.206856 1_655
Li6 O19 1.931170 1_555
Li6 O22 1.965822 1_556
Li6 O18 1.968409 1_555
Li6 O9 2.144121 1_546
Li7 O27 1.931170 1_555
Li7 O10 1.965822 1_555
Li7 O26 1.968409 1_655
Li7 O1 2.144121 1_545
Fe0 O19 1.990213 1_465
Fe0 O0 2.010122 1_555
Fe0 O5 2.170021 1_555
Fe0 O1 2.313748 1_455
Fe0 O14 2.328284 1_565
Fe1 O0 2.047931 1_555
Fe1 O3 2.076263 1_555
Fe1 O6 2.097318 1_555
Fe1 O2 2.253483 1_555
Fe1 O4 2.342331 1_555
Fe2 O27 1.990213 1_565
Fe2 O8 2.010122 1_555
Fe2 O17 2.170021 1_555
Fe2 O9 2.313748 1_555
Fe2 O23 2.328284 1_565
Fe3 O8 2.047931 1_555
Fe3 O12 2.076263 1_555
Fe3 O20 2.097318 1_555
Fe3 O11 2.253483 1_455
Fe3 O13 2.342331 1_455
Fe4 O19 2.047931 1_555
Fe4 O15 2.076263 1_555
Fe4 O7 2.097318 1_555
Fe4 O16 2.253483 1_655
Fe4 O14 2.342331 1_655
Fe5 O0 1.990213 1_545
Fe5 O19 2.010122 1_555
Fe5 O10 2.170021 1_555
Fe5 O18 2.313748 1_555
Fe5 O4 2.328284 1_545
Fe6 O27 2.047931 1_555
Fe6 O24 2.076263 1_555
Fe6 O21 2.097318 1_555
Fe6 O25 2.253483 1_555
Fe6 O23 2.342331 1_555
Fe7 O8 1.990213 1_645
Fe7 O27 2.010122 1_555
Fe7 O22 2.170021 1_555
Fe7 O26 2.313748 1_655
Fe7 O13 2.328284 1_545
C0 O2 1.284232 1_555
C0 O1 1.302545 1_555
C0 O4 1.311969 1_555
C1 O7 1.293901 1_555
C1 O10 1.297484 1_555
C1 O24 1.312770 1_555
C2 O6 1.293901 1_555
C2 O5 1.297484 1_555
C2 O12 1.312770 1_556
C3 O11 1.284232 1_555
C3 O9 1.302545 1_555
C3 O13 1.311969 1_555
C4 O16 1.284232 1_555
C4 O18 1.302545 1_555
C4 O14 1.311969 1_555
C5 O21 1.293901 1_555
C5 O22 1.297484 1_555
C5 O15 1.312770 1_554
C6 O20 1.293901 1_555
C6 O17 1.297484 1_555
C6 O3 1.312770 1_555
C7 O25 1.284232 1_555
C7 O26 1.302545 1_555
C7 O23 1.311969 1_555
