# generated using pymatgen
data_ThMg2
_symmetry_space_group_name_H-M   'P 1'
_cell_length_a   6.04789768
_cell_length_b   6.04789721
_cell_length_c   6.04789669
_cell_angle_alpha   59.99999150
_cell_angle_beta   59.99999413
_cell_angle_gamma   59.99999674
_symmetry_Int_Tables_number   1
_chemical_formula_structural   ThMg2
_chemical_formula_sum   'Th2 Mg4'
_cell_volume   156.42211180
_cell_formula_units_Z   2
loop_
 _symmetry_equiv_pos_site_id
 _symmetry_equiv_pos_as_xyz
  1  'x, y, z'
loop_
 _atom_site_type_symbol
 _atom_site_label
 _atom_site_symmetry_multiplicity
 _atom_site_fract_x
 _atom_site_fract_y
 _atom_site_fract_z
 _atom_site_occupancy
  Th  Th0  1  0.87500000  0.87500000  0.87500000  1
  Th  Th1  1  0.12500000  0.12500000  0.12500000  1
  Mg  Mg0  1  0.50000000  0.50000000  0.50000000  1
  Mg  Mg1  1  0.50000000  0.50000000  -0.00000000  1
  Mg  Mg2  1  -0.00000000  0.50000000  0.50000000  1
  Mg  Mg3  1  0.50000000  0.00000000  0.50000000  1
loop_
_geom_bond_atom_site_label_1
_geom_bond_atom_site_label_2
_geom_bond_distance
_geom_bond_site_symmetry_2
Th0 Th1 3.703565 1_665
Th0 Th1 3.703565 1_656
Th0 Th1 3.703566 1_566
Th0 Th1 3.703566 1_666
Mg0 Mg1 3.023948 1_556
Mg0 Mg1 3.023948 1_555
Mg0 Mg3 3.023949 1_555
Mg0 Mg3 3.023949 1_565
Mg0 Mg2 3.023949 1_555
Mg0 Mg2 3.023949 1_655
Mg0 Th0 3.545894 1_554
Mg0 Th1 3.545894 1_556
Mg0 Th0 3.545894 1_545
Mg0 Th1 3.545894 1_565
Mg0 Th0 3.545894 1_455
Mg0 Th1 3.545894 1_655
Mg1 Mg3 3.023948 1_564
Mg1 Mg3 3.023948 1_555
Mg1 Mg2 3.023948 1_654
Mg1 Mg2 3.023948 1_555
Mg1 Th0 3.545894 1_544
Mg1 Th1 3.545894 1_565
Mg1 Th0 3.545894 1_454
Mg1 Th1 3.545894 1_655
Mg1 Th1 3.545894 1_555
Mg1 Th0 3.545894 1_554
Mg2 Mg3 3.023949 1_465
Mg2 Mg3 3.023949 1_555
Mg2 Th0 3.545894 1_454
Mg2 Th1 3.545894 1_556
Mg2 Th0 3.545894 1_445
Mg2 Th1 3.545894 1_565
Mg2 Th0 3.545894 1_455
Mg2 Th1 3.545894 1_555
Mg3 Th1 3.545894 1_556
Mg3 Th0 3.545894 1_544
Mg3 Th0 3.545894 1_445
Mg3 Th1 3.545894 1_655
Mg3 Th0 3.545894 1_545
Mg3 Th1 3.545894 1_555
