# generated using pymatgen
data_KBaCr2(PO4)3
_symmetry_space_group_name_H-M   'P 1'
_cell_length_a   9.94478900
_cell_length_b   9.94202100
_cell_length_c   19.88968914
_cell_angle_alpha   89.92930240
_cell_angle_beta   90.00000000
_cell_angle_gamma   90.00000000
_symmetry_Int_Tables_number   1
_chemical_formula_structural   KBaCr2(PO4)3
_chemical_formula_sum   'K8 Ba8 Cr16 P24 O96'
_cell_volume   1966.51794641
_cell_formula_units_Z   8
loop_
 _symmetry_equiv_pos_site_id
 _symmetry_equiv_pos_as_xyz
  1  'x, y, z'
loop_
 _atom_site_type_symbol
 _atom_site_label
 _atom_site_symmetry_multiplicity
 _atom_site_fract_x
 _atom_site_fract_y
 _atom_site_fract_z
 _atom_site_occupancy
  K  K0  1  0.93321500  0.06690300  0.40834500  1
  K  K1  1  0.70375900  0.29857600  0.02324700  1
  K  K2  1  0.06588800  0.43368800  0.15773200  1
  K  K3  1  0.06710500  0.43364800  0.65847400  1
  K  K4  1  0.56710500  0.56635200  0.34152600  1
  K  K5  1  0.56588800  0.56631200  0.84226800  1
  K  K6  1  0.20375900  0.70142400  0.97675300  1
  K  K7  1  0.43321500  0.93309700  0.59165500  1
  Ba  Ba0  1  0.93143100  0.06920500  0.90971700  1
  Ba  Ba1  1  0.29440300  0.20662000  0.27266700  1
  Ba  Ba2  1  0.29650900  0.20712000  0.77258700  1
  Ba  Ba3  1  0.70528600  0.29486300  0.52231900  1
  Ba  Ba4  1  0.20528600  0.70513700  0.47768100  1
  Ba  Ba5  1  0.79650900  0.79288000  0.22741300  1
  Ba  Ba6  1  0.79440300  0.79338000  0.72733300  1
  Ba  Ba7  1  0.43143100  0.93079500  0.09028300  1
  Cr  Cr0  1  0.08632000  0.08853200  0.08214000  1
  Cr  Cr1  1  0.08709700  0.08652100  0.58136400  1
  Cr  Cr2  1  0.64842600  0.14976100  0.19830400  1
  Cr  Cr3  1  0.64650800  0.14717400  0.69869600  1
  Cr  Cr4  1  0.35310700  0.35517500  0.94901600  1
  Cr  Cr5  1  0.35302800  0.35309400  0.44851400  1
  Cr  Cr6  1  0.91290000  0.41354700  0.33136700  1
  Cr  Cr7  1  0.91390600  0.41489900  0.83190400  1
  Cr  Cr8  1  0.41390600  0.58510100  0.16809600  1
  Cr  Cr9  1  0.41290000  0.58645300  0.66863300  1
  Cr  Cr10  1  0.85310700  0.64482500  0.05098400  1
  Cr  Cr11  1  0.85302800  0.64690600  0.55148600  1
  Cr  Cr12  1  0.14650800  0.85282600  0.30130400  1
  Cr  Cr13  1  0.14842600  0.85023900  0.80169600  1
  Cr  Cr14  1  0.58632000  0.91146800  0.91786000  1
  Cr  Cr15  1  0.58709700  0.91347900  0.41863600  1
  P  P0  1  0.27444500  0.03995400  0.93846400  1
  P  P1  1  0.27436900  0.04024000  0.43871000  1
  P  P2  1  0.95965300  0.12764500  0.23795500  1
  P  P3  1  0.95978100  0.12773400  0.73732700  1
  P  P4  1  0.62752800  0.22571500  0.35486600  1
  P  P5  1  0.62678200  0.22671800  0.85539500  1
  P  P6  1  0.37311400  0.27527700  0.10422900  1
  P  P7  1  0.37238900  0.27436900  0.60482300  1
  P  P8  1  0.04027100  0.37247000  0.48775900  1
  P  P9  1  0.04062900  0.37417100  0.98832600  1
  P  P10  1  0.72593000  0.45922400  0.18837200  1
  P  P11  1  0.72558700  0.45969600  0.68879100  1
  P  P12  1  0.22593000  0.54077600  0.81162800  1
  P  P13  1  0.22558700  0.54030400  0.31120900  1
  P  P14  1  0.54062900  0.62582900  0.01167400  1
  P  P15  1  0.54027100  0.62753000  0.51224100  1
  P  P16  1  0.87311400  0.72472300  0.89577100  1
  P  P17  1  0.87238900  0.72563100  0.39517700  1
  P  P18  1  0.12678200  0.77328200  0.14460500  1
  P  P19  1  0.12752800  0.77428500  0.64513400  1
  P  P20  1  0.45978100  0.87226600  0.26267300  1
  P  P21  1  0.45965300  0.87235500  0.76204500  1
  P  P22  1  0.77444500  0.96004600  0.06153600  1
  P  P23  1  0.77436900  0.95976000  0.56129000  1
  O  O0  1  0.42246500  0.00499700  0.95185400  1
  O  O1  1  0.42223000  0.00545300  0.45111300  1
  O  O2  1  0.19875200  0.01482700  0.00548400  1
  O  O3  1  0.19792100  0.01315800  0.50513400  1
  O  O4  1  0.05257900  0.02336400  0.27259700  1
  O  O5  1  0.05143100  0.02338100  0.77338200  1
  O  O6  1  0.70283500  0.04940300  0.11389600  1
  O  O7  1  0.70504300  0.05241800  0.61339800  1
  O  O8  1  0.65214000  0.07770800  0.37224000  1
  O  O9  1  0.65405400  0.07742100  0.87229600  1
  O  O10  1  0.81217800  0.07626800  0.24509600  1
  O  O11  1  0.81242200  0.07612600  0.74545800  1
  O  O12  1  0.99448900  0.15209000  0.16398100  1
  O  O13  1  0.99463100  0.15229500  0.66371100  1
  O  O14  1  0.25946900  0.18745200  0.91301300  1
  O  O15  1  0.25979500  0.18796100  0.41312700  1
  O  O16  1  0.24088100  0.19633900  0.11876900  1
  O  O17  1  0.23962400  0.19776400  0.61830900  1
  O  O18  1  0.47519600  0.20232200  0.15142400  1
  O  O19  1  0.47661000  0.20479500  0.65119800  1
  O  O20  1  0.01331300  0.23962900  0.52610100  1
  O  O21  1  0.01421600  0.23764400  0.02457100  1
  O  O22  1  0.57647400  0.23952400  0.78106900  1
  O  O23  1  0.57599600  0.24016900  0.28112600  1
  O  O24  1  0.42199500  0.25809700  0.03099500  1
  O  O25  1  0.42378900  0.25972100  0.53106000  1
  O  O26  1  0.98687700  0.26030200  0.27611300  1
  O  O27  1  0.98647800  0.25926000  0.77678200  1
  O  O28  1  0.52130300  0.29464700  0.89992300  1
  O  O29  1  0.52332600  0.29508200  0.40123300  1
  O  O30  1  0.76031700  0.30203400  0.36838000  1
  O  O31  1  0.76223000  0.29939700  0.86742900  1
  O  O32  1  0.74092200  0.31193000  0.16403300  1
  O  O33  1  0.74026300  0.31205900  0.66317600  1
  O  O34  1  0.00537900  0.34789500  0.41387600  1
  O  O35  1  0.00511900  0.34570900  0.91385200  1
  O  O36  1  0.18824400  0.42174600  0.99520700  1
  O  O37  1  0.18789100  0.42376100  0.49511100  1
  O  O38  1  0.34756900  0.42203100  0.12261300  1
  O  O39  1  0.34779700  0.42218000  0.62219000  1
  O  O40  1  0.29516100  0.44755700  0.36338300  1
  O  O41  1  0.29538900  0.44625600  0.86277200  1
  O  O42  1  0.94873000  0.47698000  0.02275600  1
  O  O43  1  0.94761300  0.47662100  0.52257500  1
  O  O44  1  0.80169300  0.48722300  0.25528600  1
  O  O45  1  0.80220000  0.48687900  0.75508100  1
  O  O46  1  0.57782200  0.49464900  0.20124900  1
  O  O47  1  0.57778400  0.49442500  0.70107000  1
  O  O48  1  0.07778400  0.50557500  0.29893000  1
  O  O49  1  0.07782200  0.50535100  0.79875100  1
  O  O50  1  0.30220000  0.51312100  0.24491900  1
  O  O51  1  0.30169300  0.51277700  0.74471400  1
  O  O52  1  0.44873000  0.52302000  0.97724400  1
  O  O53  1  0.44761300  0.52337900  0.47742500  1
  O  O54  1  0.79538900  0.55374400  0.13722800  1
  O  O55  1  0.79516100  0.55244300  0.63661700  1
  O  O56  1  0.84756900  0.57796900  0.87738700  1
  O  O57  1  0.84779700  0.57782000  0.37781000  1
  O  O58  1  0.68824400  0.57825400  0.00479300  1
  O  O59  1  0.68789100  0.57623900  0.50488900  1
  O  O60  1  0.50511900  0.65429100  0.08614800  1
  O  O61  1  0.50537900  0.65210500  0.58612400  1
  O  O62  1  0.24026300  0.68794100  0.33682400  1
  O  O63  1  0.24092200  0.68807000  0.83596700  1
  O  O64  1  0.26223000  0.70060300  0.13257100  1
  O  O65  1  0.26031700  0.69796600  0.63162000  1
  O  O66  1  0.02130300  0.70535300  0.10007700  1
  O  O67  1  0.02332600  0.70491800  0.59876700  1
  O  O68  1  0.48647800  0.74074000  0.22321800  1
  O  O69  1  0.48687700  0.73969800  0.72388700  1
  O  O70  1  0.92199500  0.74190300  0.96900500  1
  O  O71  1  0.92378900  0.74027900  0.46894000  1
  O  O72  1  0.07647400  0.76047600  0.21893100  1
  O  O73  1  0.07599600  0.75983100  0.71887400  1
  O  O74  1  0.51421600  0.76235600  0.97542900  1
  O  O75  1  0.51331300  0.76037100  0.47389900  1
  O  O76  1  0.97661000  0.79520500  0.34880200  1
  O  O77  1  0.97519600  0.79767800  0.84857600  1
  O  O78  1  0.74088100  0.80366100  0.88123100  1
  O  O79  1  0.73962400  0.80223600  0.38169100  1
  O  O80  1  0.75946900  0.81254800  0.08698700  1
  O  O81  1  0.75979500  0.81203900  0.58687300  1
  O  O82  1  0.49463100  0.84770500  0.33628900  1
  O  O83  1  0.49448900  0.84791000  0.83601900  1
  O  O84  1  0.31242200  0.92387400  0.25454200  1
  O  O85  1  0.31217800  0.92373200  0.75490400  1
  O  O86  1  0.15405400  0.92257900  0.12770400  1
  O  O87  1  0.15214000  0.92229200  0.62776000  1
  O  O88  1  0.20283500  0.95059700  0.88610400  1
  O  O89  1  0.20504300  0.94758200  0.38660200  1
  O  O90  1  0.55143100  0.97661900  0.22661800  1
  O  O91  1  0.55257900  0.97663600  0.72740300  1
  O  O92  1  0.69875200  0.98517300  0.99451600  1
  O  O93  1  0.69792100  0.98684200  0.49486600  1
  O  O94  1  0.92246500  0.99500300  0.04814600  1
  O  O95  1  0.92223000  0.99454700  0.54888700  1
loop_
_geom_bond_atom_site_label_1
_geom_bond_atom_site_label_2
_geom_bond_distance
_geom_bond_site_symmetry_2
K0 O34 2.886564 1_655
K0 O95 2.887623 1_545
K0 O8 2.887968 1_555
K0 O4 2.981487 1_655
K0 O76 2.982165 1_545
K0 O89 2.983833 1_645
K0 O30 3.008065 1_555
K0 O93 3.011139 1_545
K0 O20 3.013127 1_655
K1 O58 2.808478 1_555
K1 O32 2.827754 1_555
K1 O24 2.835001 1_555
K1 O42 3.013478 1_555
K1 O28 3.051348 1_554
K1 O6 3.062145 1_555
K1 O21 3.146403 1_655
K1 O31 3.153251 1_554
K1 O92 3.168913 1_544
K2 O38 2.889392 1_555
K2 O12 2.890816 1_455
K2 O48 2.901167 1_555
K2 O42 2.957554 1_455
K2 O66 2.966280 1_555
K2 O54 2.970891 1_455
K2 O26 3.020406 1_455
K2 O50 3.026065 1_555
K2 O16 3.033469 1_555
K3 O49 2.882520 1_555
K3 O39 2.885492 1_555
K3 O13 2.890332 1_455
K3 O67 2.977514 1_555
K3 O55 2.982708 1_455
K3 O43 2.982942 1_455
K3 O51 3.001165 1_555
K3 O17 3.014318 1_555
K3 O27 3.029179 1_455
K4 O46 2.882520 1_555
K4 O57 2.885492 1_555
K4 O82 2.890332 1_555
K4 O29 2.977514 1_555
K4 O40 2.982708 1_555
K4 O53 2.982942 1_555
K4 O44 3.001165 1_555
K4 O79 3.014318 1_555
K4 O68 3.029179 1_555
K5 O56 2.889392 1_555
K5 O83 2.890816 1_555
K5 O47 2.901167 1_555
K5 O52 2.957554 1_555
K5 O28 2.966280 1_555
K5 O41 2.970891 1_555
K5 O69 3.020406 1_555
K5 O45 3.026065 1_555
K5 O78 3.033469 1_555
K6 O36 2.808478 1_555
K6 O63 2.827754 1_555
K6 O70 2.835001 1_455
K6 O52 3.013478 1_555
K6 O66 3.051348 1_556
K6 O88 3.062145 1_555
K6 O74 3.146403 1_555
K6 O64 3.153251 1_556
K6 O2 3.168913 1_566
K7 O61 2.886564 1_555
K7 O1 2.887623 1_565
K7 O87 2.887968 1_555
K7 O91 2.981487 1_555
K7 O19 2.982165 1_565
K7 O7 2.983833 1_565
K7 O65 3.008065 1_555
K7 O3 3.011139 1_565
K7 O75 3.013127 1_555
Ba0 O35 2.846293 1_655
Ba0 O94 2.850944 1_546
Ba0 O9 2.858246 1_555
Ba0 O21 2.951292 1_656
Ba0 O31 2.961694 1_555
Ba0 O92 2.982203 1_545
Ba0 O88 2.982845 1_645
Ba0 O77 2.993963 1_545
Ba0 O5 2.997975 1_655
Ba1 O15 2.820705 1_555
Ba1 O23 2.825215 1_555
Ba1 O84 2.840188 1_545
Ba1 O40 3.000702 1_555
Ba1 O18 3.008315 1_555
Ba1 O4 3.017109 1_555
Ba1 O50 3.097115 1_555
Ba1 O26 3.105272 1_455
Ba1 O16 3.108721 1_555
Ba2 O22 2.807866 1_555
Ba2 O14 2.823754 1_555
Ba2 O85 2.844020 1_545
Ba2 O41 2.980046 1_555
Ba2 O19 3.006305 1_555
Ba2 O5 3.045871 1_555
Ba2 O51 3.088761 1_555
Ba2 O17 3.121751 1_555
Ba2 O27 3.127597 1_455
Ba3 O59 2.823725 1_555
Ba3 O25 2.826472 1_555
Ba3 O33 2.828494 1_555
Ba3 O43 3.012146 1_555
Ba3 O29 3.012422 1_555
Ba3 O7 3.013449 1_555
Ba3 O30 3.111055 1_555
Ba3 O93 3.112176 1_545
Ba3 O20 3.112988 1_655
Ba4 O37 2.823725 1_555
Ba4 O71 2.826472 1_455
Ba4 O62 2.828494 1_555
Ba4 O53 3.012146 1_555
Ba4 O67 3.012422 1_555
Ba4 O89 3.013449 1_555
Ba4 O65 3.111055 1_555
Ba4 O3 3.112176 1_565
Ba4 O75 3.112988 1_555
Ba5 O72 2.807866 1_655
Ba5 O80 2.823754 1_555
Ba5 O10 2.844020 1_565
Ba5 O54 2.980046 1_555
Ba5 O76 3.006305 1_555
Ba5 O90 3.045871 1_555
Ba5 O44 3.088761 1_555
Ba5 O79 3.121751 1_555
Ba5 O68 3.127597 1_555
Ba6 O81 2.820705 1_555
Ba6 O73 2.825215 1_655
Ba6 O11 2.840188 1_565
Ba6 O55 3.000702 1_555
Ba6 O77 3.008315 1_555
Ba6 O91 3.017109 1_555
Ba6 O45 3.097115 1_555
Ba6 O69 3.105272 1_555
Ba6 O78 3.108721 1_555
Ba7 O60 2.846293 1_555
Ba7 O0 2.850944 1_564
Ba7 O86 2.858246 1_555
Ba7 O74 2.951292 1_554
Ba7 O64 2.961694 1_555
Ba7 O2 2.982203 1_565
Ba7 O6 2.982845 1_565
Ba7 O18 2.993963 1_565
Ba7 O90 2.997975 1_555
Cr0 O12 1.971178 1_455
Cr0 O94 1.994652 1_445
Cr0 O86 1.998384 1_545
Cr0 O21 2.004697 1_555
Cr0 O16 2.010994 1_555
Cr0 O2 2.028422 1_555
Cr1 O87 1.982972 1_545
Cr1 O95 1.985709 1_445
Cr1 O13 1.989577 1_455
Cr1 O3 2.012020 1_555
Cr1 O20 2.014832 1_555
Cr1 O17 2.016431 1_555
Cr2 O32 1.976745 1_555
Cr2 O23 2.010972 1_555
Cr2 O10 2.012537 1_555
Cr2 O18 2.027094 1_555
Cr2 O6 2.027553 1_555
Cr2 O90 2.051426 1_545
Cr3 O22 2.004008 1_555
Cr3 O33 2.013169 1_555
Cr3 O91 2.017639 1_545
Cr3 O19 2.018437 1_555
Cr3 O11 2.021091 1_555
Cr3 O7 2.026963 1_555
Cr4 O36 1.992901 1_555
Cr4 O52 2.001615 1_555
Cr4 O24 2.013856 1_556
Cr4 O41 2.021905 1_555
Cr4 O28 2.028512 1_555
Cr4 O14 2.040455 1_555
Cr5 O25 2.012154 1_555
Cr5 O37 2.012751 1_555
Cr5 O15 2.013273 1_555
Cr5 O40 2.018980 1_555
Cr5 O53 2.020895 1_555
Cr5 O29 2.021522 1_555
Cr6 O48 1.985104 1_655
Cr6 O57 1.985836 1_555
Cr6 O34 1.990565 1_655
Cr6 O44 2.011652 1_555
Cr6 O30 2.017821 1_555
Cr6 O26 2.018510 1_555
Cr7 O56 1.971205 1_555
Cr7 O49 1.974666 1_655
Cr7 O35 1.987431 1_655
Cr7 O45 2.019467 1_555
Cr7 O31 2.022654 1_555
Cr7 O27 2.030124 1_555
Cr8 O38 1.971205 1_555
Cr8 O46 1.974666 1_555
Cr8 O60 1.987431 1_555
Cr8 O50 2.019467 1_555
Cr8 O64 2.022654 1_555
Cr8 O68 2.030124 1_555
Cr9 O47 1.985104 1_555
Cr9 O39 1.985836 1_555
Cr9 O61 1.990565 1_555
Cr9 O51 2.011652 1_555
Cr9 O65 2.017821 1_555
Cr9 O69 2.018510 1_555
Cr10 O58 1.992901 1_555
Cr10 O42 2.001615 1_555
Cr10 O70 2.013856 1_554
Cr10 O54 2.021905 1_555
Cr10 O66 2.028512 1_655
Cr10 O80 2.040455 1_555
Cr11 O71 2.012154 1_555
Cr11 O59 2.012751 1_555
Cr11 O81 2.013273 1_555
Cr11 O55 2.018980 1_555
Cr11 O43 2.020895 1_555
Cr11 O67 2.021522 1_655
Cr12 O72 2.004008 1_555
Cr12 O62 2.013169 1_555
Cr12 O4 2.017639 1_565
Cr12 O76 2.018437 1_455
Cr12 O84 2.021091 1_555
Cr12 O89 2.026963 1_555
Cr13 O63 1.976745 1_555
Cr13 O73 2.010972 1_555
Cr13 O85 2.012537 1_555
Cr13 O77 2.027094 1_455
Cr13 O88 2.027553 1_555
Cr13 O5 2.051426 1_565
Cr14 O83 1.971178 1_555
Cr14 O0 1.994652 1_565
Cr14 O9 1.998384 1_565
Cr14 O74 2.004697 1_555
Cr14 O78 2.010994 1_555
Cr14 O92 2.028422 1_555
Cr15 O8 1.982972 1_565
Cr15 O1 1.985709 1_565
Cr15 O82 1.989577 1_555
Cr15 O93 2.012020 1_555
Cr15 O75 2.014832 1_555
Cr15 O79 2.016431 1_555
O0 P0 1.535692 1_555
O1 P1 1.530514 1_555
O2 P0 1.550847 1_554
O3 P1 1.547597 1_555
O4 P2 1.549799 1_455
O5 P3 1.555479 1_455
O6 P22 1.543773 1_545
O7 P23 1.549337 1_545
O8 P4 1.530799 1_555
O9 P5 1.545482 1_555
O10 P2 1.559436 1_555
O11 P3 1.561014 1_555
O12 P2 1.530681 1_555
O13 P3 1.524053 1_555
O14 P0 1.557887 1_555
O15 P1 1.560448 1_555
O16 P6 1.558298 1_555
O17 P7 1.547494 1_555
O18 P6 1.560818 1_555
O19 P7 1.549812 1_555
O20 P8 1.547654 1_555
O21 P9 1.558426 1_554
O22 P5 1.565721 1_555
O23 P4 1.560086 1_555
O24 P6 1.545244 1_555
O25 P7 1.560600 1_555
O26 P2 1.546356 1_555
O27 P3 1.548792 1_555
O28 P5 1.530451 1_555
O29 P4 1.549688 1_555
O30 P4 1.546722 1_555
O31 P5 1.547335 1_555
O32 P10 1.550095 1_555
O33 P11 1.561146 1_555
O34 P8 1.529851 1_555
O35 P9 1.549180 1_555
O36 P9 1.548430 1_555
O37 P8 1.561016 1_555
O38 P6 1.525886 1_555
O39 P7 1.529683 1_555
O40 P13 1.550319 1_555
O41 P12 1.546813 1_555
O42 P9 1.533190 1_654
O43 P8 1.550031 1_655
O44 P10 1.554791 1_555
O45 P11 1.546873 1_555
O46 P10 1.536003 1_555
O47 P11 1.529571 1_555
O48 P13 1.529571 1_555
O49 P12 1.536003 1_555
O50 P13 1.546873 1_555
O51 P12 1.554791 1_555
O52 P14 1.533190 1_556
O53 P15 1.550031 1_555
O54 P10 1.546813 1_555
O55 P11 1.550319 1_555
O56 P16 1.525886 1_555
O57 P17 1.529683 1_555
O58 P14 1.548430 1_555
O59 P15 1.561016 1_555
O60 P14 1.549180 1_555
O61 P15 1.529851 1_555
O62 P13 1.561146 1_555
O63 P12 1.550095 1_555
O64 P18 1.547335 1_555
O65 P19 1.546722 1_555
O66 P18 1.530451 1_555
O67 P19 1.549688 1_555
O68 P20 1.548792 1_555
O69 P21 1.546356 1_555
O70 P16 1.545244 1_555
O71 P17 1.560600 1_555
O72 P18 1.565721 1_555
O73 P19 1.560086 1_555
O74 P14 1.558426 1_556
O75 P15 1.547654 1_555
O76 P17 1.549812 1_555
O77 P16 1.560818 1_555
O78 P16 1.558298 1_555
O79 P17 1.547494 1_555
O80 P22 1.557887 1_555
O81 P23 1.560448 1_555
O82 P20 1.524053 1_555
O83 P21 1.530681 1_555
O84 P20 1.561014 1_555
O85 P21 1.559436 1_555
O86 P18 1.545482 1_555
O87 P19 1.530799 1_555
O88 P0 1.543773 1_565
O89 P1 1.549337 1_565
O90 P20 1.555479 1_555
O91 P21 1.549799 1_555
O92 P22 1.550847 1_556
O93 P23 1.547597 1_555
O94 P22 1.535692 1_555
O95 P23 1.530514 1_555
