# generated using pymatgen
data_Li7V6(OF)12
_symmetry_space_group_name_H-M   'P 1'
_cell_length_a   4.94772061
_cell_length_b   7.54699175
_cell_length_c   22.18021280
_cell_angle_alpha   84.15610301
_cell_angle_beta   90.28301003
_cell_angle_gamma   90.38902860
_symmetry_Int_Tables_number   1
_chemical_formula_structural   Li7V6(OF)12
_chemical_formula_sum   'Li14 V12 O24 F24'
_cell_volume   823.88740519
_cell_formula_units_Z   2
loop_
 _symmetry_equiv_pos_site_id
 _symmetry_equiv_pos_as_xyz
  1  'x, y, z'
loop_
 _atom_site_type_symbol
 _atom_site_label
 _atom_site_symmetry_multiplicity
 _atom_site_fract_x
 _atom_site_fract_y
 _atom_site_fract_z
 _atom_site_occupancy
  Li  Li0  1  0.74401000  0.52195000  0.12280300  1
  Li  Li1  1  0.76031100  0.02901100  0.12381500  1
  Li  Li2  1  0.25389500  0.64050900  0.21203300  1
  Li  Li3  1  0.25950900  0.12820200  0.20200700  1
  Li  Li4  1  0.23621900  0.23207200  0.30640700  1
  Li  Li5  1  0.75556300  0.67956200  0.45861700  1
  Li  Li6  1  0.74248300  0.20682100  0.45595800  1
  Li  Li7  1  0.26593500  0.78980500  0.53658100  1
  Li  Li8  1  0.25768800  0.31213600  0.54446000  1
  Li  Li9  1  0.23450600  0.89538100  0.64032600  1
  Li  Li10  1  0.74630400  0.87055100  0.78331900  1
  Li  Li11  1  0.75992900  0.35795500  0.78944700  1
  Li  Li12  1  0.25278600  0.98127000  0.87276300  1
  Li  Li13  1  0.22427100  0.54135500  0.95243600  1
  V  V0  1  0.23021500  0.78413400  0.05573500  1
  V  V1  1  0.27097100  0.27938200  0.05283000  1
  V  V2  1  0.76265500  0.88388700  0.27964100  1
  V  V3  1  0.73076400  0.39015200  0.27881900  1
  V  V4  1  0.26085400  0.93801300  0.38743100  1
  V  V5  1  0.22296400  0.46047000  0.38880000  1
  V  V6  1  0.76759800  0.55048500  0.61396400  1
  V  V7  1  0.73189900  0.05790700  0.61199500  1
  V  V8  1  0.26533000  0.60378300  0.72301700  1
  V  V9  1  0.22265400  0.12700900  0.72202800  1
  V  V10  1  0.72888200  0.72939700  0.94724100  1
  V  V11  1  0.76162400  0.21252500  0.94531900  1
  O  O0  1  0.95113400  0.68855700  0.01391800  1
  O  O1  1  0.11466800  0.98765700  0.06153200  1
  O  O2  1  0.56096000  0.19029700  0.01350000  1
  O  O3  1  0.38479400  0.48508600  0.05902900  1
  O  O4  1  0.88192600  0.68061500  0.27208900  1
  O  O5  1  0.06112600  0.98391300  0.31912500  1
  O  O6  1  0.59477300  0.18528800  0.27048900  1
  O  O7  1  0.43172400  0.47792100  0.32375200  1
  O  O8  1  0.55842400  0.85192700  0.34394800  1
  O  O9  1  0.94944800  0.35608900  0.35124400  1
  O  O10  1  0.10865700  0.66659800  0.39519700  1
  O  O11  1  0.38715800  0.14131500  0.39263400  1
  O  O12  1  0.59491300  0.85335800  0.60445700  1
  O  O13  1  0.88210300  0.34603800  0.60583000  1
  O  O14  1  0.06312200  0.64789200  0.65336400  1
  O  O15  1  0.43298500  0.14637200  0.65790700  1
  O  O16  1  0.55902100  0.51951500  0.67767000  1
  O  O17  1  0.38726300  0.80935800  0.72692700  1
  O  O18  1  0.94920400  0.02094100  0.68514700  1
  O  O19  1  0.10573800  0.33217500  0.72919300  1
  O  O20  1  0.62031300  0.52282100  0.94229300  1
  O  O21  1  0.44220600  0.81071100  0.98888000  1
  O  O22  1  0.88732000  0.01108300  0.94273400  1
  O  O23  1  0.06083700  0.31448900  0.98759100  1
  F  F0  1  0.54923400  0.79238300  0.10371900  1
  F  F1  1  0.96272700  0.28608200  0.10523000  1
  F  F2  1  0.07739400  0.66971500  0.13020100  1
  F  F3  1  0.43730200  0.16808500  0.12757100  1
  F  F4  1  0.57980800  0.50376300  0.20144800  1
  F  F5  1  0.45126500  0.87557400  0.22785500  1
  F  F6  1  0.92492900  0.99552200  0.20344000  1
  F  F7  1  0.07220900  0.35463300  0.23475000  1
  F  F8  1  0.95857400  0.95894700  0.43738800  1
  F  F9  1  0.54407500  0.45956900  0.43904100  1
  F  F10  1  0.43955600  0.83318100  0.46062700  1
  F  F11  1  0.08015300  0.33962900  0.46481700  1
  F  F12  1  0.92741400  0.66256100  0.53731000  1
  F  F13  1  0.57944200  0.17065700  0.53489000  1
  F  F14  1  0.45473700  0.54488100  0.56140800  1
  F  F15  1  0.07236400  0.01956700  0.56866300  1
  F  F16  1  0.95343900  0.62873100  0.77049800  1
  F  F17  1  0.07128200  0.00533100  0.79846200  1
  F  F18  1  0.53879900  0.12152100  0.77459800  1
  F  F19  1  0.43893000  0.50027700  0.79303000  1
  F  F20  1  0.58148700  0.83381000  0.87243900  1
  F  F21  1  0.90336400  0.32535800  0.87392600  1
  F  F22  1  0.05181300  0.71936800  0.90077900  1
  F  F23  1  0.44726000  0.18833400  0.90083800  1
loop_
_geom_bond_atom_site_label_1
_geom_bond_atom_site_label_2
_geom_bond_distance
_geom_bond_site_symmetry_2
Li0 O3 2.299056 1_555
Li1 O1 2.280106 1_645
Li2 O4 2.316665 1_455
Li3 O6 2.311507 1_555
Li4 O6 1.996562 1_555
Li4 O9 2.024777 1_455
Li4 O5 2.051938 1_545
Li4 O11 2.100172 1_555
Li4 O7 2.154896 1_555
Li5 O10 2.257202 1_655
Li6 O11 2.326602 1_555
Li7 O12 2.293078 1_555
Li8 O13 2.339644 1_455
Li9 O12 1.996594 1_555
Li9 O18 2.025518 1_465
Li9 O14 2.040160 1_555
Li9 O17 2.102540 1_555
Li9 O15 2.196791 1_565
Li10 O17 2.240091 1_555
Li10 O18 2.557393 1_565
Li11 O19 2.198047 1_655
Li12 O22 2.415216 1_465
Li13 O23 1.977099 1_555
Li13 O20 1.980991 1_555
Li13 O0 2.295037 1_456
Li13 O3 2.486445 1_556
Li13 O21 2.498945 1_555
O0 V10 1.840407 1_554
O0 V0 1.843173 1_655
O1 V0 1.659967 1_555
O1 V1 2.318271 1_565
O2 V11 1.806023 1_554
O2 V1 1.848381 1_555
O3 V1 1.666427 1_555
O3 V0 2.381857 1_555
O4 V2 1.671926 1_555
O4 V3 2.302010 1_555
O5 V4 1.809660 1_555
O5 V2 1.903769 1_455
O6 V3 1.708836 1_555
O6 V2 2.415626 1_545
O7 V5 1.772001 1_555
O7 V3 1.945108 1_555
O8 V2 1.747732 1_555
O8 V4 1.916911 1_555
O9 V5 1.803841 1_655
O9 V3 1.928684 1_555
O10 V5 1.678604 1_555
O10 V4 2.168182 1_555
O11 V4 1.667422 1_545
O11 V5 2.540280 1_555
O12 V7 1.705185 1_565
O12 V6 2.434304 1_555
O13 V6 1.674457 1_555
O13 V7 2.284305 1_555
O14 V8 1.839307 1_555
O14 V6 1.882993 1_455
O15 V9 1.759904 1_555
O15 V7 1.958768 1_555
O16 V6 1.749313 1_555
O16 V8 1.919597 1_555
O17 V8 1.671144 1_555
O18 V9 1.802263 1_655
O18 V7 1.939347 1_555
O19 V9 1.679453 1_555
O19 V8 2.183104 1_555
O20 V10 1.659533 1_555
O21 V0 1.814159 1_556
O21 V10 1.838907 1_555
O22 V11 1.652953 1_555
O22 V10 2.253607 1_545
O23 V1 1.776458 1_556
O23 V11 1.944390 1_455
F0 V0 1.903566 1_555
F0 Li1 2.147255 1_565
F0 Li0 2.262773 1_555
F1 V1 1.926094 1_655
F1 Li0 2.159473 1_555
F1 Li1 2.179861 1_555
F2 V0 1.938667 1_555
F2 Li0 2.000246 1_455
F2 Li2 2.002772 1_555
F3 Li3 1.870774 1_555
F3 Li1 1.924731 1_555
F3 V1 1.960446 1_555
F4 Li0 1.919741 1_555
F4 Li2 1.948360 1_555
F4 V3 1.983539 1_555
F5 V2 1.921671 1_555
F5 Li2 2.079383 1_555
F5 Li3 2.158814 1_565
F6 Li3 1.927586 1_665
F6 Li1 1.934957 1_565
F6 V2 1.981241 1_555
F7 Li4 1.933450 1_555
F7 V3 1.989244 1_455
F7 Li3 2.141810 1_555
F7 Li2 2.339562 1_555
F8 V4 1.882761 1_655
F8 Li6 2.236223 1_565
F8 Li5 2.334565 1_555
F9 V5 1.935751 1_555
F9 Li5 2.039293 1_555
F9 Li6 2.149188 1_555
F10 Li7 1.892459 1_555
F10 V4 1.943505 1_555
F10 Li5 1.956147 1_555
F11 Li8 1.961543 1_555
F11 Li6 1.961777 1_455
F11 V5 1.965635 1_555
F12 Li7 1.924327 1_655
F12 Li5 1.930584 1_555
F12 V6 1.985629 1_555
F13 Li6 1.924561 1_555
F13 Li8 1.947306 1_555
F13 V7 1.979266 1_555
F14 V6 1.936007 1_555
F14 Li8 2.069973 1_555
F14 Li7 2.098492 1_555
F15 Li9 1.934617 1_545
F15 V7 1.980993 1_455
F15 Li7 2.170475 1_545
F15 Li8 2.395887 1_555
F16 V8 1.893737 1_655
F16 Li10 2.143785 1_555
F16 Li11 2.252089 1_555
F17 Li12 1.866020 1_545
F17 Li10 1.942896 1_445
F17 V9 1.991104 1_555
F18 V9 1.944491 1_555
F18 Li11 2.139876 1_555
F18 Li10 2.151468 1_545
F19 V8 1.873067 1_555
F19 Li11 1.929826 1_555
F20 V10 1.906592 1_555
F20 Li12 1.977320 1_555
F20 Li10 2.133180 1_555
F21 V11 1.858151 1_555
F21 Li11 1.992614 1_555
F22 Li13 1.881009 1_555
F22 V10 1.911650 1_455
F22 Li12 2.238532 1_555
F23 V11 1.855692 1_555
F23 Li12 1.981789 1_545
