# generated using pymatgen
data_Li4Mn5CuO12
_symmetry_space_group_name_H-M   'P 1'
_cell_length_a   5.09610643
_cell_length_b   5.16016435
_cell_length_c   10.26539430
_cell_angle_alpha   90.66709919
_cell_angle_beta   91.83302732
_cell_angle_gamma   60.24282629
_symmetry_Int_Tables_number   1
_chemical_formula_structural   Li4Mn5CuO12
_chemical_formula_sum   'Li4 Mn5 Cu1 O12'
_cell_volume   234.22772783
_cell_formula_units_Z   1
loop_
 _symmetry_equiv_pos_site_id
 _symmetry_equiv_pos_as_xyz
  1  'x, y, z'
loop_
 _atom_site_type_symbol
 _atom_site_label
 _atom_site_symmetry_multiplicity
 _atom_site_fract_x
 _atom_site_fract_y
 _atom_site_fract_z
 _atom_site_occupancy
  Li  Li0  1  0.16293800  0.50021300  0.75027000  1
  Li  Li1  1  0.33668900  0.49391500  0.25000200  1
  Li  Li2  1  0.66390700  0.49213100  0.75053100  1
  Li  Li3  1  0.83387900  0.50294300  0.25039200  1
  Mn  Mn0  1  0.16470000  0.66477300  0.50002700  1
  Mn  Mn1  1  0.66524700  0.66940000  0.99939800  1
  Mn  Mn2  1  0.33640100  0.32725700  0.99979100  1
  Mn  Mn3  1  0.83561000  0.32117600  0.49987500  1
  Mn  Mn4  1  0.49675100  0.00021700  0.50021300  1
  Cu  Cu0  1  0.00117400  0.99799300  0.00055100  1
  O  O0  1  0.01136900  0.62245200  0.10704300  1
  O  O1  1  0.36367500  0.62530700  0.89335400  1
  O  O2  1  0.16353600  0.36497600  0.38869500  1
  O  O3  1  0.49514500  0.64047500  0.39607900  1
  O  O4  1  0.46592500  0.36596600  0.61249000  1
  O  O5  1  0.17791200  0.99221100  0.59276800  1
  O  O6  1  0.85609800  0.64216600  0.60303900  1
  O  O7  1  0.63801000  0.37180800  0.10747500  1
  O  O8  1  0.34245600  0.99716100  0.09196600  1
  O  O9  1  0.98978100  0.37382200  0.89247500  1
  O  O10  1  0.66054400  0.99944900  0.90840800  1
  O  O11  1  0.82177500  0.99342700  0.40663800  1
loop_
_geom_bond_atom_site_label_1
_geom_bond_atom_site_label_2
_geom_bond_distance
_geom_bond_site_symmetry_2
Li0 O4 1.979786 1_555
Li0 O6 2.000891 1_455
Li0 O9 2.002721 1_455
Li0 O1 2.039082 1_555
Li1 O2 1.983325 1_555
Li1 O3 1.993733 1_555
Li1 O7 2.014311 1_555
Li1 O0 2.029182 1_555
Li2 O4 1.997221 1_555
Li2 O1 2.009747 1_555
Li2 O9 2.028123 1_555
Li2 O6 2.173919 1_555
Li3 O0 2.005948 1_655
Li3 O2 2.007113 1_655
Li3 O7 2.039679 1_555
Li3 O3 2.155109 1_555
Mn0 O4 1.909255 1_555
Mn0 O2 1.914915 1_555
Mn0 O5 1.958855 1_555
Mn0 O11 1.959063 1_455
Mn0 O3 1.972917 1_555
Mn0 O6 1.973953 1_455
Mn1 O10 1.941310 1_555
Mn1 O8 1.941724 1_556
Mn1 O1 1.957799 1_555
Mn1 O9 1.959462 1_555
Mn1 O0 1.961728 1_656
Mn1 O7 1.967078 1_556
Mn2 O10 1.938684 1_545
Mn2 O8 1.944520 1_546
Mn2 O1 1.959484 1_555
Mn2 O0 1.961930 1_556
Mn2 O9 1.962630 1_455
Mn2 O7 1.968097 1_556
Mn3 O5 1.955943 1_645
Mn3 O11 1.964098 1_545
Mn3 O3 1.986275 1_555
Mn3 O6 1.999926 1_555
Mn3 O4 2.154067 1_555
Mn3 O2 2.156234 1_655
Mn4 O5 1.926351 1_545
Mn4 O11 1.926360 1_545
Mn4 O6 2.108205 1_545
Mn4 O2 2.118940 1_555
Mn4 O3 2.134724 1_545
Mn4 O4 2.140493 1_555
Cu0 O10 1.946852 1_454
Cu0 O8 1.947756 1_555
Cu0 O1 2.208215 1_554
Cu0 O7 2.210819 1_465
Cu0 O0 2.213318 1_555
Cu0 O9 2.220244 1_464
