# generated using pymatgen
data_Na2ZnPO5
_symmetry_space_group_name_H-M   'P 1'
_cell_length_a   9.90677800
_cell_length_b   5.84788300
_cell_length_c   8.65109842
_cell_angle_alpha   75.49977464
_cell_angle_beta   90.00000000
_cell_angle_gamma   90.00000000
_symmetry_Int_Tables_number   1
_chemical_formula_structural   Na2ZnPO5
_chemical_formula_sum   'Na8 Zn4 P4 O20'
_cell_volume   485.22537942
_cell_formula_units_Z   4
loop_
 _symmetry_equiv_pos_site_id
 _symmetry_equiv_pos_as_xyz
  1  'x, y, z'
loop_
 _atom_site_type_symbol
 _atom_site_label
 _atom_site_symmetry_multiplicity
 _atom_site_fract_x
 _atom_site_fract_y
 _atom_site_fract_z
 _atom_site_occupancy
  Na  Na0  1  0.64202500  0.81711000  0.29782600  1
  Na  Na1  1  0.14202500  0.68289000  0.70217400  1
  Na  Na2  1  0.35797500  0.18289000  0.70217400  1
  Na  Na3  1  0.85797500  0.31711000  0.29782600  1
  Na  Na4  1  0.33071600  0.85660900  0.37981600  1
  Na  Na5  1  0.83071600  0.64339100  0.62018400  1
  Na  Na6  1  0.66928400  0.14339100  0.62018400  1
  Na  Na7  1  0.16928400  0.35660900  0.37981600  1
  Zn  Zn0  1  0.35771300  0.72974600  0.01460400  1
  Zn  Zn1  1  0.85771300  0.77025400  0.98539600  1
  Zn  Zn2  1  0.64228700  0.27025400  0.98539600  1
  Zn  Zn3  1  0.14228700  0.22974600  0.01460400  1
  P  P0  1  0.00678700  0.86023800  0.29534900  1
  P  P1  1  0.50678700  0.63976200  0.70465100  1
  P  P2  1  0.99321300  0.13976200  0.70465100  1
  P  P3  1  0.49321300  0.36023800  0.29534900  1
  O  O0  1  0.86543600  0.88220700  0.36353100  1
  O  O1  1  0.36543600  0.61779300  0.63646900  1
  O  O2  1  0.13456400  0.11779300  0.63646900  1
  O  O3  1  0.63456400  0.38220700  0.36353100  1
  O  O4  1  0.99566800  0.73115200  0.15625500  1
  O  O5  1  0.49566800  0.76884800  0.84374500  1
  O  O6  1  0.00433200  0.26884800  0.84374500  1
  O  O7  1  0.50433200  0.23115200  0.15625500  1
  O  O8  1  0.10676100  0.71849900  0.41922100  1
  O  O9  1  0.60676100  0.78150100  0.58077900  1
  O  O10  1  0.89323900  0.28150100  0.58077900  1
  O  O11  1  0.39323900  0.21849900  0.41922100  1
  O  O12  1  0.20323500  0.55334400  0.97799800  1
  O  O13  1  0.70323500  0.94665600  0.02200200  1
  O  O14  1  0.79676500  0.44665600  0.02200200  1
  O  O15  1  0.29676500  0.05334400  0.97799800  1
  O  O16  1  0.43649000  0.61968000  0.22925100  1
  O  O17  1  0.93649000  0.88032000  0.77074900  1
  O  O18  1  0.56351000  0.38032000  0.77074900  1
  O  O19  1  0.06351000  0.11968000  0.22925100  1
loop_
_geom_bond_atom_site_label_1
_geom_bond_atom_site_label_2
_geom_bond_distance
_geom_bond_site_symmetry_2
Na0 O0 2.339872 1_555
Na0 O13 2.393793 1_555
Na0 O9 2.429432 1_555
Na0 O3 2.464308 1_555
Na0 O16 2.484751 1_555
Na0 O7 2.781780 1_565
Na1 O1 2.339872 1_555
Na1 O12 2.393793 1_555
Na1 O8 2.429432 1_555
Na1 O2 2.464308 1_565
Na1 O17 2.484751 1_455
Na1 O6 2.781780 1_555
Na2 O2 2.339872 1_555
Na2 O15 2.393793 1_555
Na2 O11 2.429432 1_555
Na2 O1 2.464308 1_555
Na2 O18 2.484751 1_555
Na2 O5 2.781780 1_545
Na3 O3 2.339872 1_555
Na3 O14 2.393793 1_555
Na3 O10 2.429432 1_555
Na3 O0 2.464308 1_545
Na3 O19 2.484751 1_655
Na3 O4 2.781780 1_555
Na4 O11 2.310806 1_565
Na4 O1 2.333619 1_555
Na4 O8 2.356511 1_555
Na4 O16 2.370263 1_555
Na5 O10 2.310806 1_555
Na5 O0 2.333619 1_555
Na5 O9 2.356511 1_555
Na5 O17 2.370263 1_555
Na6 O9 2.310806 1_545
Na6 O3 2.333619 1_555
Na6 O10 2.356511 1_555
Na6 O18 2.370263 1_555
Na7 O8 2.310806 1_555
Na7 O2 2.333619 1_555
Na7 O11 2.356511 1_555
Na7 O19 2.370263 1_555
O0 P0 1.537305 1_655
O1 P1 1.537305 1_555
O2 P2 1.537305 1_455
O3 P3 1.537305 1_555
O4 P0 1.576332 1_655
O4 Zn1 1.983861 1_554
O5 P1 1.576332 1_555
O5 Zn0 1.983861 1_556
O6 P2 1.576332 1_455
O6 Zn3 1.983861 1_556
O7 P3 1.576332 1_555
O7 Zn2 1.983861 1_554
O8 P0 1.539983 1_555
O9 P1 1.539983 1_555
O10 P2 1.539983 1_555
O11 P3 1.539983 1_555
O12 Zn0 1.915749 1_556
O12 Zn3 1.935407 1_556
O13 Zn1 1.915749 1_554
O13 Zn2 1.935407 1_564
O14 Zn2 1.915749 1_554
O14 Zn1 1.935407 1_554
O15 Zn3 1.915749 1_556
O15 Zn0 1.935407 1_546
O16 P3 1.584351 1_555
O16 Zn0 1.968000 1_555
O17 P2 1.584351 1_565
O17 Zn1 1.968000 1_555
O18 P1 1.584351 1_555
O18 Zn2 1.968000 1_555
O19 P0 1.584351 1_545
O19 Zn3 1.968000 1_555
