# generated using pymatgen
data_Li2CoNi(PO4)2
_symmetry_space_group_name_H-M   'P 1'
_cell_length_a   4.74121505
_cell_length_b   10.20443101
_cell_length_c   5.96596903
_cell_angle_alpha   89.99938986
_cell_angle_beta   90.00962958
_cell_angle_gamma   90.01026270
_symmetry_Int_Tables_number   1
_chemical_formula_structural   Li2CoNi(PO4)2
_chemical_formula_sum   'Li4 Co2 Ni2 P4 O16'
_cell_volume   288.64193670
_cell_formula_units_Z   2
loop_
 _symmetry_equiv_pos_site_id
 _symmetry_equiv_pos_as_xyz
  1  'x, y, z'
loop_
 _atom_site_type_symbol
 _atom_site_label
 _atom_site_symmetry_multiplicity
 _atom_site_fract_x
 _atom_site_fract_y
 _atom_site_fract_z
 _atom_site_occupancy
  Li  Li0  1  0.00009400  0.99976000  0.00004600  1
  Li  Li1  1  0.99995300  0.00032100  0.49970300  1
  Li  Li2  1  0.49913200  0.50017900  0.99994000  1
  Li  Li3  1  0.50037100  0.50030100  0.50033700  1
  Co  Co0  1  0.01746700  0.72394600  0.74961600  1
  Co  Co1  1  0.98119300  0.27606100  0.24975500  1
  Ni  Ni0  1  0.51596800  0.77666100  0.25007200  1
  Ni  Ni1  1  0.48416900  0.22318200  0.74994200  1
  P  P0  1  0.41907800  0.09285200  0.24973300  1
  P  P1  1  0.58046000  0.90709800  0.74984100  1
  P  P2  1  0.91812600  0.40472900  0.75019400  1
  P  P3  1  0.08270700  0.59523800  0.25025800  1
  O  O0  1  0.70173700  0.04881600  0.74892000  1
  O  O1  1  0.29798000  0.95113600  0.24857300  1
  O  O2  1  0.74312800  0.09700000  0.25111200  1
  O  O3  1  0.25632400  0.90290500  0.75101600  1
  O  O4  1  0.24205200  0.39944200  0.75016300  1
  O  O5  1  0.75883900  0.60088400  0.25026000  1
  O  O6  1  0.20162200  0.45323300  0.25085800  1
  O  O7  1  0.79867300  0.54668200  0.75057500  1
  O  O8  1  0.28383100  0.16525900  0.04291000  1
  O  O9  1  0.27893900  0.16323000  0.45657000  1
  O  O10  1  0.71589500  0.83487500  0.54294300  1
  O  O11  1  0.72044100  0.83657900  0.95655600  1
  O  O12  1  0.77757900  0.33399700  0.54420900  1
  O  O13  1  0.77750400  0.33312500  0.95589400  1
  O  O14  1  0.22315500  0.66572000  0.04399800  1
  O  O15  1  0.22358100  0.66678800  0.45600300  1
loop_
_geom_bond_atom_site_label_1
_geom_bond_atom_site_label_2
_geom_bond_distance
_geom_bond_site_symmetry_2
Li0 O1 2.106857 1_555
Li0 O0 2.120323 1_464
Li0 O11 2.144110 1_454
Li0 O3 2.158950 1_554
Li0 O2 2.171080 1_465
Li0 O8 2.174010 1_565
Li1 O0 2.110836 1_555
Li1 O1 2.119951 1_645
Li1 O9 2.139792 1_655
Li1 O2 2.157621 1_555
Li1 O3 2.171040 1_645
Li1 O10 2.174846 1_545
Li2 O7 2.110885 1_555
Li2 O6 2.111999 1_556
Li2 O14 2.153059 1_556
Li2 O13 2.172069 1_555
Li2 O4 2.182181 1_555
Li2 O5 2.191213 1_556
Li3 O6 2.109816 1_555
Li3 O7 2.110010 1_555
Li3 O12 2.162524 1_555
Li3 O15 2.163122 1_555
Li3 O4 2.186517 1_555
Li3 O5 2.186611 1_555
Co0 O7 2.085065 1_455
Co0 O15 2.089111 1_555
Co0 O14 2.094797 1_556
Co0 O3 2.148659 1_555
Co0 O11 2.197647 1_455
Co0 O10 2.201360 1_455
Co1 O13 2.084447 1_554
Co1 O6 2.088120 1_655
Co1 O12 2.090043 1_555
Co1 O2 2.147568 1_555
Co1 O9 2.200195 1_655
Co1 O8 2.204839 1_655
Ni0 O1 2.058836 1_555
Ni0 O10 2.074505 1_555
Ni0 O11 2.092939 1_554
Ni0 O5 2.131684 1_555
Ni0 O15 2.165226 1_555
Ni0 O14 2.172411 1_555
Ni1 O0 2.056865 1_555
Ni1 O8 2.075294 1_556
Ni1 O9 2.093724 1_555
Ni1 O4 2.133908 1_555
Ni1 O13 2.168296 1_555
Ni1 O12 2.172652 1_555
O0 P1 1.556185 1_545
O1 P0 1.555858 1_565
O2 P0 1.536987 1_555
O3 P1 1.537403 1_555
O4 P2 1.536760 1_455
O5 P3 1.536619 1_655
O6 P3 1.554995 1_555
O7 P2 1.555426 1_555
O8 P0 1.574645 1_555
O9 P0 1.574932 1_555
O10 P1 1.574660 1_555
O11 P1 1.574516 1_555
O12 P2 1.573141 1_555
O13 P2 1.576231 1_555
O14 P3 1.573220 1_555
O15 P3 1.576528 1_555
