# generated using pymatgen
data_BaNb3NO7
_symmetry_space_group_name_H-M   'P 1'
_cell_length_a   10.77794918
_cell_length_b   10.77794918
_cell_length_c   9.13810439
_cell_angle_alpha   89.74522730
_cell_angle_beta   89.74522730
_cell_angle_gamma   20.81108890
_symmetry_Int_Tables_number   1
_chemical_formula_structural   BaNb3NO7
_chemical_formula_sum   'Ba2 Nb6 N2 O14'
_cell_volume   377.14150670
_cell_formula_units_Z   2
loop_
 _symmetry_equiv_pos_site_id
 _symmetry_equiv_pos_as_xyz
  1  'x, y, z'
loop_
 _atom_site_type_symbol
 _atom_site_label
 _atom_site_symmetry_multiplicity
 _atom_site_fract_x
 _atom_site_fract_y
 _atom_site_fract_z
 _atom_site_occupancy
  Ba  Ba0  1  0.98076000  0.98076000  0.75592600  1
  Ba  Ba1  1  0.01035400  0.01035400  0.24590900  1
  Nb  Nb0  1  0.62309600  0.62309600  0.94841800  1
  Nb  Nb1  1  0.22759500  0.22759500  0.77300300  1
  Nb  Nb2  1  0.62595900  0.62595900  0.56006600  1
  Nb  Nb3  1  0.35631300  0.35631300  0.45757300  1
  Nb  Nb4  1  0.75386000  0.75386000  0.25263600  1
  Nb  Nb5  1  0.36350400  0.36350400  0.06461400  1
  N  N0  1  0.15198700  0.15198700  0.90247900  1
  N  N1  1  0.55612700  0.55612700  0.06903800  1
  O  O0  1  0.42717000  0.42717000  0.93002900  1
  O  O1  1  0.29049800  0.29049800  0.91182200  1
  O  O2  1  0.71179900  0.71179900  0.72929100  1
  O  O3  1  0.57457700  0.57457700  0.74261300  1
  O  O4  1  0.29053300  0.29053300  0.59205000  1
  O  O5  1  0.14581800  0.14581800  0.58656900  1
  O  O6  1  0.42708600  0.42708600  0.57362100  1
  O  O7  1  0.56105300  0.56105300  0.43068900  1
  O  O8  1  0.84230600  0.84230600  0.40465800  1
  O  O9  1  0.69913700  0.69913700  0.40865300  1
  O  O10  1  0.28221800  0.28221800  0.25338500  1
  O  O11  1  0.41150400  0.41150400  0.24562800  1
  O  O12  1  0.69806700  0.69806700  0.10277600  1
  O  O13  1  0.84039100  0.84039100  0.09080600  1
loop_
_geom_bond_atom_site_label_1
_geom_bond_atom_site_label_2
_geom_bond_distance
_geom_bond_site_symmetry_2
Ba0 O0 2.755941 1_565
Ba0 O0 2.755941 1_655
Ba0 O3 2.785389 1_655
Ba0 O3 2.785389 1_565
Ba0 O6 2.806573 1_655
Ba0 O6 2.806573 1_565
Ba1 N1 2.707279 1_455
Ba1 N1 2.707279 1_545
Ba1 O7 2.795070 1_545
Ba1 O7 2.795070 1_455
Ba1 O11 2.860369 1_455
Ba1 O11 2.860369 1_545
Nb0 O12 2.129876 1_556
Nb0 O3 2.147688 1_555
Nb0 O2 2.740864 1_555
Nb1 O1 1.844741 1_555
Nb1 O2 2.015534 1_455
Nb1 O2 2.015534 1_545
Nb1 O4 2.120115 1_555
Nb1 O5 2.436218 1_555
Nb2 O7 1.818267 1_555
Nb2 O3 1.988206 1_555
Nb2 O5 2.006565 1_655
Nb2 O5 2.006565 1_565
Nb2 O9 2.074148 1_555
Nb2 O2 2.393517 1_555
Nb3 O6 1.841309 1_555
Nb3 O4 1.854615 1_555
Nb3 O8 2.027993 1_455
Nb3 O8 2.027993 1_545
Nb3 O11 2.258274 1_555
Nb3 O10 2.444552 1_555
Nb4 O12 1.813623 1_555
Nb4 O9 1.834049 1_555
Nb4 O10 2.037404 1_565
Nb4 O10 2.037404 1_655
Nb4 O8 2.338740 1_555
Nb4 O13 2.351181 1_555
Nb5 O0 1.821951 1_554
Nb5 O11 1.946020 1_555
Nb5 O13 2.021338 1_545
Nb5 O13 2.021338 1_455
Nb5 O1 2.089203 1_554
Nb5 O10 2.432859 1_555
N0 Nb1 1.988045 1_555
N0 Nb0 2.082918 1_455
N0 Nb0 2.082918 1_545
N1 Nb0 1.793520 1_554
