# generated using pymatgen
data_LiSn10(PO4)7
_symmetry_space_group_name_H-M   'P 1'
_cell_length_a   15.26107133
_cell_length_b   15.26107133
_cell_length_c   15.26107146
_cell_angle_alpha   41.72884402
_cell_angle_beta   41.72884402
_cell_angle_gamma   41.72884322
_symmetry_Int_Tables_number   1
_chemical_formula_structural   LiSn10(PO4)7
_chemical_formula_sum   'Li2 Sn20 P14 O56'
_cell_volume   1423.62929069
_cell_formula_units_Z   2
loop_
 _symmetry_equiv_pos_site_id
 _symmetry_equiv_pos_as_xyz
  1  'x, y, z'
loop_
 _atom_site_type_symbol
 _atom_site_label
 _atom_site_symmetry_multiplicity
 _atom_site_fract_x
 _atom_site_fract_y
 _atom_site_fract_z
 _atom_site_occupancy
  Li  Li0  1  0.82866900  0.82866900  0.82866900  1
  Li  Li1  1  0.32866900  0.32866900  0.32866900  1
  Sn  Sn0  1  0.92343300  0.93242800  0.35088300  1
  Sn  Sn1  1  0.93332300  0.50161200  0.56523700  1
  Sn  Sn2  1  0.56523700  0.93332300  0.50161200  1
  Sn  Sn3  1  0.99874100  0.99874100  0.99874100  1
  Sn  Sn4  1  0.93242800  0.35088300  0.92343300  1
  Sn  Sn5  1  0.50161200  0.56523700  0.93332300  1
  Sn  Sn6  1  0.58035000  0.55049700  0.14937400  1
  Sn  Sn7  1  0.35088300  0.92343300  0.93242800  1
  Sn  Sn8  1  0.85088300  0.43242800  0.42343300  1
  Sn  Sn9  1  0.42343300  0.85088300  0.43242800  1
  Sn  Sn10  1  0.49874100  0.49874100  0.49874100  1
  Sn  Sn11  1  0.55049700  0.14937400  0.58035000  1
  Sn  Sn12  1  0.14937400  0.58035000  0.55049700  1
  Sn  Sn13  1  0.43242800  0.42343300  0.85088300  1
  Sn  Sn14  1  0.64937400  0.05049700  0.08035000  1
  Sn  Sn15  1  0.43332300  0.06523700  0.00161200  1
  Sn  Sn16  1  0.08035000  0.64937400  0.05049700  1
  Sn  Sn17  1  0.00161200  0.43332300  0.06523700  1
  Sn  Sn18  1  0.06523700  0.00161200  0.43332300  1
  Sn  Sn19  1  0.05049700  0.08035000  0.64937400  1
  P  P0  1  0.73023900  0.73023900  0.73023900  1
  P  P1  1  0.74431900  0.70157600  0.15454400  1
  P  P2  1  0.80606700  0.77130200  0.31243000  1
  P  P3  1  0.81243000  0.27130200  0.30606700  1
  P  P4  1  0.65454400  0.20157600  0.24431900  1
  P  P5  1  0.30606700  0.81243000  0.27130200  1
  P  P6  1  0.24431900  0.65454400  0.20157600  1
  P  P7  1  0.70157600  0.15454400  0.74431900  1
  P  P8  1  0.77130200  0.31243000  0.80606700  1
  P  P9  1  0.31243000  0.80606700  0.77130200  1
  P  P10  1  0.20157600  0.24431900  0.65454400  1
  P  P11  1  0.15454400  0.74431900  0.70157600  1
  P  P12  1  0.27130200  0.30606700  0.81243000  1
  P  P13  1  0.23023900  0.23023900  0.23023900  1
  O  O0  1  0.81685600  0.81275000  0.37037100  1
  O  O1  1  0.86269200  0.77180500  0.59567500  1
  O  O2  1  0.69314400  0.69314400  0.69314400  1
  O  O3  1  0.81275000  0.37037100  0.81685600  1
  O  O4  1  0.59567500  0.86269200  0.77180500  1
  O  O5  1  0.77180500  0.59567500  0.86269200  1
  O  O6  1  0.89346600  0.60153700  0.16763500  1
  O  O7  1  0.87089900  0.84730700  0.14188800  1
  O  O8  1  0.87785900  0.33008300  0.13795100  1
  O  O9  1  0.81210000  0.14142600  0.13541100  1
  O  O10  1  0.77864800  0.68209200  0.04398100  1
  O  O11  1  0.37037100  0.81685600  0.81275000  1
  O  O12  1  0.88874600  0.60344400  0.36284000  1
  O  O13  1  0.69020500  0.86347700  0.10016700  1
  O  O14  1  0.87037100  0.31275000  0.31685600  1
  O  O15  1  0.60016700  0.36347700  0.19020500  1
  O  O16  1  0.86284000  0.10344400  0.38874600  1
  O  O17  1  0.38874600  0.86284000  0.10344400  1
  O  O18  1  0.39346600  0.66763500  0.10153700  1
  O  O19  1  0.63541100  0.64142600  0.31210000  1
  O  O20  1  0.63795100  0.83008300  0.37785900  1
  O  O21  1  0.64188800  0.34730700  0.37089900  1
  O  O22  1  0.66763500  0.10153700  0.39346600  1
  O  O23  1  0.86347700  0.10016700  0.69020500  1
  O  O24  1  0.83008300  0.37785900  0.63795100  1
  O  O25  1  0.31685600  0.87037100  0.31275000  1
  O  O26  1  0.37089900  0.64188800  0.34730700  1
  O  O27  1  0.13541100  0.81210000  0.14142600  1
  O  O28  1  0.64142600  0.31210000  0.63541100  1
  O  O29  1  0.84730700  0.14188800  0.87089900  1
  O  O30  1  0.68209200  0.04398100  0.77864800  1
  O  O31  1  0.13795100  0.87785900  0.33008300  1
  O  O32  1  0.19020500  0.60016700  0.36347700  1
  O  O33  1  0.36284000  0.88874600  0.60344400  1
  O  O34  1  0.36347700  0.19020500  0.60016700  1
  O  O35  1  0.34730700  0.37089900  0.64188800  1
  O  O36  1  0.31210000  0.63541100  0.64142600  1
  O  O37  1  0.60153700  0.16763500  0.89346600  1
  O  O38  1  0.60344400  0.36284000  0.88874600  1
  O  O39  1  0.16763500  0.89346600  0.60153700  1
  O  O40  1  0.37785900  0.63795100  0.83008300  1
  O  O41  1  0.04398100  0.77864800  0.68209200  1
  O  O42  1  0.33008300  0.13795100  0.87785900  1
  O  O43  1  0.10153700  0.39346600  0.66763500  1
  O  O44  1  0.31275000  0.31685600  0.87037100  1
  O  O45  1  0.54398100  0.18209200  0.27864800  1
  O  O46  1  0.14142600  0.13541100  0.81210000  1
  O  O47  1  0.14188800  0.87089900  0.84730700  1
  O  O48  1  0.10016700  0.69020500  0.86347700  1
  O  O49  1  0.10344400  0.38874600  0.86284000  1
  O  O50  1  0.36269200  0.09567500  0.27180500  1
  O  O51  1  0.27180500  0.36269200  0.09567500  1
  O  O52  1  0.27864800  0.54398100  0.18209200  1
  O  O53  1  0.19314400  0.19314400  0.19314400  1
  O  O54  1  0.09567500  0.27180500  0.36269200  1
  O  O55  1  0.18209200  0.27864800  0.54398100  1
loop_
_geom_bond_atom_site_label_1
_geom_bond_atom_site_label_2
_geom_bond_distance
_geom_bond_site_symmetry_2
Li0 O30 2.053619 1_565
Li0 O41 2.053619 1_655
Li0 O10 2.053619 1_556
Li1 O45 2.053619 1_555
Li1 O52 2.053619 1_555
Li1 O55 2.053619 1_555
O0 P2 1.554577 1_555
O0 Sn2 2.370140 1_555
O1 P0 1.574533 1_555
O1 Sn0 2.319143 1_555
O1 Sn12 2.752792 1_655
O2 P0 1.548060 1_555
O2 Sn1 2.763072 1_555
O2 Sn2 2.763072 1_555
O2 Sn5 2.763072 1_555
O3 P8 1.554577 1_555
O3 Sn1 2.370140 1_555
O4 P0 1.574533 1_555
O4 Sn7 2.319143 1_555
O4 Sn11 2.752793 1_565
O5 P0 1.574533 1_555
O5 Sn4 2.319143 1_555
O5 Sn6 2.752793 1_556
O6 P1 1.608802 1_555
O6 Sn16 2.326517 1_655
O6 Sn8 2.449726 1_555
O6 Sn17 2.751425 1_655
O7 P2 1.568930 1_555
O7 Sn16 2.551337 1_655
O7 Sn14 2.582949 1_565
O7 Sn3 2.598530 1_554
O8 P3 1.569113 1_555
O8 Sn17 2.446262 1_655
O8 Sn4 2.507189 1_554
O9 P4 1.550591 1_555
O9 Sn3 2.420522 1_544
O10 P1 1.551392 1_555
O10 Sn17 2.573759 1_655
O11 P9 1.554577 1_555
O11 Sn5 2.370140 1_555
O12 P2 1.558524 1_555
O12 Sn8 2.419020 1_555
O12 Sn1 2.610011 1_555
O13 P1 1.546712 1_555
O13 Sn14 2.228032 1_565
O14 P3 1.554577 1_555
O14 Sn17 2.370140 1_655
O15 P4 1.546712 1_555
O15 Sn6 2.228032 1_555
O16 P3 1.558524 1_555
O16 Sn0 2.419020 1_545
O16 Sn18 2.610011 1_655
O17 P5 1.558524 1_555
O17 Sn7 2.419020 1_554
O17 Sn15 2.610011 1_565
O18 P6 1.608802 1_555
O18 Sn6 2.326517 1_555
O18 Sn7 2.449726 1_554
O18 Sn5 2.751425 1_554
O19 P1 1.550591 1_555
O19 Sn10 2.420522 1_555
O20 P2 1.569113 1_555
O20 Sn2 2.446262 1_555
O20 Sn9 2.507189 1_555
O21 P3 1.568930 1_555
O21 Sn11 2.551337 1_555
O21 Sn6 2.582949 1_555
O21 Sn10 2.598530 1_555
O22 P4 1.608802 1_555
O22 Sn11 2.326517 1_555
O22 Sn0 2.449726 1_545
O22 Sn2 2.751425 1_545
O23 P7 1.546712 1_555
O23 Sn19 2.228032 1_655
O24 P8 1.569113 1_555
O24 Sn1 2.446262 1_555
O24 Sn8 2.507189 1_555
O25 P5 1.554577 1_555
O25 Sn18 2.370140 1_565
O26 P5 1.568930 1_555
O26 Sn6 2.551337 1_555
O26 Sn12 2.582949 1_555
O26 Sn10 2.598530 1_555
O27 P6 1.550591 1_555
O27 Sn3 2.420522 1_454
O28 P7 1.550591 1_555
O28 Sn10 2.420522 1_555
O29 P8 1.568930 1_555
O29 Sn14 2.551337 1_556
O29 Sn19 2.582949 1_655
O29 Sn3 2.598530 1_545
O30 P7 1.551392 1_555
O30 Sn15 2.573759 1_556
O31 P5 1.569113 1_555
O31 Sn18 2.446262 1_565
O31 Sn0 2.507189 1_455
O32 P6 1.546713 1_555
O32 Sn12 2.228032 1_555
O33 P9 1.558524 1_555
O33 Sn9 2.419020 1_555
O33 Sn2 2.610011 1_555
O34 P10 1.546712 1_555
O34 Sn11 2.228032 1_555
O35 P12 1.568930 1_555
O35 Sn12 2.551337 1_555
O35 Sn11 2.582949 1_555
O35 Sn10 2.598530 1_555
O36 P11 1.550591 1_555
O36 Sn10 2.420522 1_555
O37 P7 1.608802 1_555
O37 Sn14 2.326517 1_556
O37 Sn13 2.449726 1_555
O37 Sn15 2.751425 1_556
O38 P8 1.558524 1_555
O38 Sn13 2.419020 1_555
O38 Sn5 2.610011 1_555
O39 P11 1.608802 1_555
O39 Sn19 2.326517 1_565
O39 Sn9 2.449726 1_555
O39 Sn18 2.751425 1_565
O40 P9 1.569113 1_555
O40 Sn5 2.446262 1_555
O40 Sn13 2.507189 1_555
O41 P11 1.551392 1_555
O41 Sn18 2.573759 1_565
O42 P12 1.569113 1_555
O42 Sn15 2.446262 1_556
O42 Sn7 2.507189 1_545
O43 P10 1.608802 1_555
O43 Sn12 2.326517 1_555
O43 Sn4 2.449726 1_455
O43 Sn1 2.751425 1_455
O44 P12 1.554577 1_555
O44 Sn15 2.370140 1_556
O45 P4 1.551392 1_555
O45 Sn2 2.573759 1_545
O46 P10 1.550591 1_555
O46 Sn3 2.420522 1_445
O47 P9 1.568930 1_555
O47 Sn19 2.551337 1_565
O47 Sn16 2.582949 1_556
O47 Sn3 2.598530 1_455
O48 P11 1.546713 1_555
O48 Sn16 2.228032 1_556
O49 P12 1.558524 1_555
O49 Sn4 2.419020 1_455
O49 Sn17 2.610011 1_556
O50 P13 1.574533 1_555
O50 Sn9 2.319143 1_545
O50 Sn14 2.752793 1_555
O51 P13 1.574533 1_555
O51 Sn13 2.319143 1_554
O51 Sn16 2.752792 1_555
O52 P6 1.551392 1_555
O52 Sn5 2.573759 1_554
O53 P13 1.548060 1_555
O53 Sn17 2.763072 1_555
O53 Sn15 2.763072 1_555
O53 Sn18 2.763072 1_555
O54 P13 1.574533 1_555
O54 Sn8 2.319143 1_455
O54 Sn19 2.752793 1_555
O55 P10 1.551392 1_555
O55 Sn1 2.573759 1_455
