# generated using pymatgen
data_Li4MnOF5
_symmetry_space_group_name_H-M   'P 1'
_cell_length_a   5.38035919
_cell_length_b   7.46069787
_cell_length_c   6.72938552
_cell_angle_alpha   64.18669595
_cell_angle_beta   75.17774938
_cell_angle_gamma   97.87891392
_symmetry_Int_Tables_number   1
_chemical_formula_structural   Li4MnOF5
_chemical_formula_sum   'Li8 Mn2 O2 F10'
_cell_volume   225.29474280
_cell_formula_units_Z   2
loop_
 _symmetry_equiv_pos_site_id
 _symmetry_equiv_pos_as_xyz
  1  'x, y, z'
loop_
 _atom_site_type_symbol
 _atom_site_label
 _atom_site_symmetry_multiplicity
 _atom_site_fract_x
 _atom_site_fract_y
 _atom_site_fract_z
 _atom_site_occupancy
  Li  Li0  1  0.66400300  0.67790400  0.01921300  1
  Li  Li1  1  0.16399800  0.17788800  0.51922800  1
  Li  Li2  1  0.83376200  0.82213600  0.47732800  1
  Li  Li3  1  0.33374300  0.32213100  0.97731700  1
  Li  Li4  1  0.97311700  0.38232900  0.73643900  1
  Li  Li5  1  0.47312200  0.88233800  0.23643200  1
  Li  Li6  1  0.52410700  0.11806500  0.75854200  1
  Li  Li7  1  0.02412300  0.61807000  0.25855900  1
  Mn  Mn0  1  0.74925500  0.24962700  0.24760100  1
  Mn  Mn1  1  0.24927900  0.74961200  0.74758200  1
  O  O0  1  0.99869700  0.49984300  0.99739900  1
  O  O1  1  0.49874100  0.99992200  0.49732600  1
  F  F0  1  0.24933400  0.25052100  0.74717800  1
  F  F1  1  0.74935800  0.75051900  0.24717200  1
  F  F2  1  0.12891600  0.68146900  0.49030700  1
  F  F3  1  0.62854900  0.18142700  0.99041200  1
  F  F4  1  0.36984500  0.81776800  0.00513500  1
  F  F5  1  0.86998000  0.31792500  0.50500000  1
  F  F6  1  0.96423400  0.88527900  0.73468000  1
  F  F7  1  0.46417600  0.38532500  0.23479400  1
  F  F8  1  0.53453800  0.61385200  0.76029500  1
  F  F9  1  0.03443600  0.11384200  0.26030700  1
loop_
_geom_bond_atom_site_label_1
_geom_bond_atom_site_label_2
_geom_bond_distance
_geom_bond_site_symmetry_2
Li0 O0 2.391565 1_554
Li1 O1 2.391359 1_545
Li2 O1 2.390277 1_555
Li3 O0 2.390069 1_455
Li4 O0 2.302806 1_555
Li5 O1 2.302797 1_555
Li6 O1 2.307507 1_545
Li7 O0 2.307659 1_454
Mn0 O1 1.880863 1_545
Mn0 O0 1.881661 1_554
Mn1 O0 1.881405 1_455
Mn1 O1 1.882154 1_555
F0 Li6 1.886950 1_555
F0 Li4 1.890667 1_455
F0 Li1 1.968134 1_555
F0 Li3 1.975867 1_555
F1 Li7 1.886883 1_655
F1 Li5 1.890806 1_555
F1 Li0 1.968154 1_555
F1 Li2 1.975997 1_555
F2 Li4 1.996103 1_455
F2 Li5 1.996225 1_555
F2 Li7 1.998228 1_555
F2 Li2 2.019636 1_455
F2 Mn1 2.219273 1_555
F3 Li5 1.995551 1_546
F3 Li4 1.997660 1_555
F3 Li6 1.998016 1_555
F3 Li3 2.018193 1_555
F3 Mn0 2.219795 1_556
F4 Li5 1.996400 1_555
F4 Li7 1.998130 1_555
F4 Li6 2.002449 1_564
F4 Li0 2.011490 1_555
F4 Mn1 2.221612 1_554
F5 Li4 1.996307 1_555
F5 Li6 1.999154 1_555
F5 Li7 2.001382 1_655
F5 Li1 2.011640 1_655
F5 Mn0 2.221577 1_555
F6 Mn1 1.949684 1_655
F6 Li0 1.954916 1_556
F6 Li1 1.956026 1_665
F6 Li2 2.226155 1_555
F7 Mn0 1.949971 1_555
F7 Li1 1.954617 1_555
F7 Li0 1.956035 1_555
F7 Li3 2.227046 1_554
F8 Li2 1.949680 1_555
F8 Mn1 1.951082 1_555
F8 Li3 1.953685 1_555
F8 Li0 2.237009 1_556
F9 Li3 1.949963 1_554
F9 Mn0 1.950830 1_455
F9 Li2 1.953469 1_445
F9 Li1 2.237256 1_555
