# generated using pymatgen
data_Li2NbFe3O8
_symmetry_space_group_name_H-M   'P 1'
_cell_length_a   8.60551100
_cell_length_b   8.60551100
_cell_length_c   8.60551100
_cell_angle_alpha   90.00000000
_cell_angle_beta   90.00000000
_cell_angle_gamma   90.00000000
_symmetry_Int_Tables_number   1
_chemical_formula_structural   Li2NbFe3O8
_chemical_formula_sum   'Li8 Nb4 Fe12 O32'
_cell_volume   637.27956442
_cell_formula_units_Z   4
loop_
 _symmetry_equiv_pos_site_id
 _symmetry_equiv_pos_as_xyz
  1  'x, y, z'
loop_
 _atom_site_type_symbol
 _atom_site_label
 _atom_site_symmetry_multiplicity
 _atom_site_fract_x
 _atom_site_fract_y
 _atom_site_fract_z
 _atom_site_occupancy
  Li  Li0  1  0.99951600  0.99951600  0.99951600  1
  Li  Li1  1  0.25048400  0.25048400  0.25048400  1
  Li  Li2  1  0.24951600  0.74951600  0.75048400  1
  Li  Li3  1  0.50048400  0.00048400  0.49951600  1
  Li  Li4  1  0.49951600  0.50048400  0.00048400  1
  Li  Li5  1  0.75048400  0.24951600  0.74951600  1
  Li  Li6  1  0.74951600  0.75048400  0.24951600  1
  Li  Li7  1  0.00048400  0.49951600  0.50048400  1
  Nb  Nb0  1  0.12500000  0.87500000  0.37500000  1
  Nb  Nb1  1  0.37500000  0.12500000  0.87500000  1
  Nb  Nb2  1  0.62500000  0.62500000  0.62500000  1
  Nb  Nb3  1  0.87500000  0.37500000  0.12500000  1
  Fe  Fe0  1  0.11791900  0.13208100  0.62500000  1
  Fe  Fe1  1  0.12500000  0.38208100  0.86791900  1
  Fe  Fe2  1  0.13208100  0.62500000  0.11791900  1
  Fe  Fe3  1  0.36791900  0.37500000  0.61791900  1
  Fe  Fe4  1  0.37500000  0.61791900  0.36791900  1
  Fe  Fe5  1  0.38208100  0.86791900  0.12500000  1
  Fe  Fe6  1  0.61791900  0.36791900  0.37500000  1
  Fe  Fe7  1  0.62500000  0.11791900  0.13208100  1
  Fe  Fe8  1  0.63208100  0.87500000  0.88208100  1
  Fe  Fe9  1  0.86791900  0.12500000  0.38208100  1
  Fe  Fe10  1  0.87500000  0.88208100  0.63208100  1
  Fe  Fe11  1  0.88208100  0.63208100  0.87500000  1
  O  O0  1  0.11210500  0.11067700  0.38425500  1
  O  O1  1  0.11574500  0.88789500  0.61067700  1
  O  O2  1  0.11471200  0.61471200  0.88528800  1
  O  O3  1  0.13932300  0.13789500  0.86574500  1
  O  O4  1  0.11067700  0.38425500  0.11210500  1
  O  O5  1  0.13528800  0.36471200  0.63528800  1
  O  O6  1  0.13425500  0.63932300  0.36210500  1
  O  O7  1  0.13789500  0.86574500  0.13932300  1
  O  O8  1  0.36210500  0.13425500  0.63932300  1
  O  O9  1  0.36574500  0.36067700  0.86210500  1
  O  O10  1  0.36471200  0.63528800  0.13528800  1
  O  O11  1  0.38932300  0.61574500  0.61210500  1
  O  O12  1  0.36067700  0.86210500  0.36574500  1
  O  O13  1  0.38528800  0.38528800  0.38528800  1
  O  O14  1  0.38425500  0.11210500  0.11067700  1
  O  O15  1  0.38789500  0.88932300  0.88425500  1
  O  O16  1  0.61210500  0.38932300  0.61574500  1
  O  O17  1  0.61574500  0.61210500  0.38932300  1
  O  O18  1  0.61471200  0.88528800  0.11471200  1
  O  O19  1  0.63932300  0.36210500  0.13425500  1
  O  O20  1  0.61067700  0.11574500  0.88789500  1
  O  O21  1  0.63528800  0.13528800  0.36471200  1
  O  O22  1  0.63425500  0.86067700  0.63789500  1
  O  O23  1  0.63789500  0.63425500  0.86067700  1
  O  O24  1  0.86210500  0.36574500  0.36067700  1
  O  O25  1  0.86574500  0.13932300  0.13789500  1
  O  O26  1  0.86471200  0.86471200  0.86471200  1
  O  O27  1  0.88932300  0.88425500  0.38789500  1
  O  O28  1  0.86067700  0.63789500  0.63425500  1
  O  O29  1  0.88528800  0.11471200  0.61471200  1
  O  O30  1  0.88425500  0.38789500  0.88932300  1
  O  O31  1  0.88789500  0.61067700  0.11574500  1
loop_
_geom_bond_atom_site_label_1
_geom_bond_atom_site_label_2
_geom_bond_distance
_geom_bond_site_symmetry_2
Li0 O26 2.009278 1_555
Li0 O7 2.047125 1_656
Li0 O25 2.047125 1_566
Li0 O3 2.047125 1_665
Li1 O13 2.009278 1_555
Li1 O0 2.047125 1_555
Li1 O14 2.047125 1_555
Li1 O4 2.047125 1_555
Li2 O2 2.009278 1_555
Li2 O11 2.047125 1_555
Li2 O1 2.047125 1_555
Li2 O15 2.047125 1_555
Li3 O21 2.009278 1_555
Li3 O12 2.047125 1_545
Li3 O8 2.047125 1_555
Li3 O22 2.047125 1_545
Li4 O10 2.009278 1_555
Li4 O19 2.047125 1_555
Li4 O9 2.047125 1_554
Li4 O23 2.047125 1_554
Li5 O29 2.009278 1_555
Li5 O20 2.047125 1_555
Li5 O16 2.047125 1_555
Li5 O30 2.047125 1_555
Li6 O18 2.009278 1_555
Li6 O17 2.047125 1_555
Li6 O31 2.047125 1_555
Li6 O27 2.047125 1_555
Li7 O5 2.009278 1_555
Li7 O6 2.047125 1_555
Li7 O24 2.047125 1_455
Li7 O28 2.047125 1_455
Nb0 O12 2.032715 1_555
Nb0 O0 2.032715 1_565
Nb0 O7 2.032715 1_555
Nb0 O6 2.032715 1_555
Nb0 O27 2.032715 1_455
Nb0 O1 2.032715 1_555
Nb1 O9 2.032715 1_555
Nb1 O14 2.032715 1_556
Nb1 O8 2.032715 1_555
Nb1 O3 2.032715 1_555
Nb1 O20 2.032715 1_555
Nb1 O15 2.032715 1_545
Nb2 O22 2.032715 1_555
Nb2 O28 2.032715 1_555
Nb2 O23 2.032715 1_555
Nb2 O16 2.032715 1_555
Nb2 O17 2.032715 1_555
Nb2 O11 2.032715 1_555
Nb3 O24 2.032715 1_555
Nb3 O4 2.032715 1_655
Nb3 O19 2.032715 1_555
Nb3 O25 2.032715 1_555
Nb3 O31 2.032715 1_555
Nb3 O30 2.032715 1_554
Fe0 O5 2.009432 1_555
Fe0 O29 2.009432 1_455
Fe0 O3 2.080507 1_555
Fe0 O0 2.080507 1_555
Fe0 O8 2.105040 1_555
Fe0 O1 2.105040 1_545
Fe1 O2 2.009432 1_555
Fe1 O5 2.009432 1_555
Fe1 O30 2.080507 1_455
Fe1 O9 2.080507 1_555
Fe1 O4 2.105040 1_556
Fe1 O3 2.105040 1_555
Fe2 O10 2.009432 1_555
Fe2 O2 2.009432 1_554
Fe2 O7 2.080507 1_555
Fe2 O4 2.080507 1_555
Fe2 O6 2.105040 1_555
Fe2 O31 2.105040 1_455
Fe3 O5 2.009432 1_555
Fe3 O13 2.009432 1_555
Fe3 O11 2.080507 1_555
Fe3 O8 2.080507 1_555
Fe3 O16 2.105040 1_555
Fe3 O9 2.105040 1_555
Fe4 O10 2.009432 1_555
Fe4 O13 2.009432 1_555
Fe4 O17 2.080507 1_555
Fe4 O6 2.080507 1_555
Fe4 O11 2.105040 1_555
Fe4 O12 2.105040 1_555
Fe5 O18 2.009432 1_555
Fe5 O10 2.009432 1_555
Fe5 O15 2.080507 1_554
Fe5 O12 2.080507 1_555
Fe5 O14 2.105040 1_565
Fe5 O7 2.105040 1_555
Fe6 O21 2.009432 1_555
Fe6 O13 2.009432 1_555
Fe6 O16 2.080507 1_555
Fe6 O19 2.080507 1_555
Fe6 O17 2.105040 1_555
Fe6 O24 2.105040 1_555
Fe7 O21 2.009432 1_555
Fe7 O18 2.009432 1_545
Fe7 O25 2.080507 1_555
Fe7 O14 2.080507 1_555
Fe7 O19 2.105040 1_555
Fe7 O20 2.105040 1_554
Fe8 O26 2.009432 1_555
Fe8 O18 2.009432 1_556
Fe8 O20 2.080507 1_565
Fe8 O23 2.080507 1_555
Fe8 O15 2.105040 1_555
Fe8 O22 2.105040 1_555
Fe9 O29 2.009432 1_555
Fe9 O21 2.009432 1_555
Fe9 O27 2.080507 1_545
Fe9 O24 2.080507 1_555
Fe9 O0 2.105040 1_655
Fe9 O25 2.105040 1_555
Fe10 O26 2.009432 1_555
Fe10 O29 2.009432 1_565
Fe10 O1 2.080507 1_655
Fe10 O22 2.080507 1_555
Fe10 O27 2.105040 1_555
Fe10 O28 2.105040 1_555
Fe11 O26 2.009432 1_555
Fe11 O2 2.009432 1_655
Fe11 O31 2.080507 1_556
Fe11 O28 2.080507 1_555
Fe11 O30 2.105040 1_555
Fe11 O23 2.105040 1_555
