# generated using pymatgen
data_BaZnC4S4N4O7
_symmetry_space_group_name_H-M   'P 1'
_cell_length_a   13.58142767
_cell_length_b   13.58142767
_cell_length_c   13.58142767
_cell_angle_alpha   99.62202408
_cell_angle_beta   99.62202408
_cell_angle_gamma   131.73639634
_symmetry_Int_Tables_number   1
_chemical_formula_structural   BaZnC4S4N4O7
_chemical_formula_sum   'Ba4 Zn4 C16 S16 N16 O28'
_cell_volume   1706.02148817
_cell_formula_units_Z   4
loop_
 _symmetry_equiv_pos_site_id
 _symmetry_equiv_pos_as_xyz
  1  'x, y, z'
loop_
 _atom_site_type_symbol
 _atom_site_label
 _atom_site_symmetry_multiplicity
 _atom_site_fract_x
 _atom_site_fract_y
 _atom_site_fract_z
 _atom_site_occupancy
  Ba  Ba0  1  0.70086600  0.70042300  0.46307400  1
  Ba  Ba1  1  0.23734900  0.23779200  0.53692600  1
  Ba  Ba2  1  0.76220800  0.29913400  0.99955700  1
  Ba  Ba3  1  0.29957700  0.76265100  0.00044300  1
  Zn  Zn0  1  0.26137500  0.26137500  0.00000000  1
  Zn  Zn1  1  0.73862500  0.73862500  0.00000000  1
  Zn  Zn2  1  0.49604500  0.99604500  0.50000000  1
  Zn  Zn3  1  0.00395500  0.50395500  0.50000000  1
  C  C0  1  0.56699900  0.47504400  0.16427400  1
  C  C1  1  0.31077000  0.40272500  0.83572600  1
  C  C2  1  0.59727500  0.43300100  0.90804500  1
  C  C3  1  0.52495600  0.68923000  0.09195500  1
  C  C4  1  0.31742700  0.70391900  0.65407400  1
  C  C5  1  0.04984500  0.66335300  0.34592600  1
  C  C6  1  0.33664700  0.68257300  0.38649200  1
  C  C7  1  0.29608100  0.95015500  0.61350800  1
  C  C8  1  0.81326000  0.90787500  0.84461600  1
  C  C9  1  0.06325900  0.96864400  0.15538400  1
  C  C10  1  0.03135600  0.18674000  0.09461500  1
  C  C11  1  0.09212500  0.93674100  0.90538500  1
  C  C12  1  0.82130700  0.17093000  0.61054100  1
  C  C13  1  0.56038900  0.21076600  0.38945900  1
  C  C14  1  0.78923400  0.17869300  0.34962300  1
  C  C15  1  0.82907000  0.43961100  0.65037700  1
  S  S0  1  0.50261300  0.26547800  0.87374700  1
  S  S1  1  0.39173100  0.62886600  0.12625300  1
  S  S2  1  0.37113400  0.49738700  0.76286500  1
  S  S3  1  0.73452200  0.60826900  0.23713500  1
  S  S4  1  0.27032300  0.47266900  0.35249000  1
  S  S5  1  0.12017900  0.91783300  0.64751000  1
  S  S6  1  0.08216700  0.72967700  0.20234600  1
  S  S7  1  0.52733100  0.87982100  0.79765400  1
  S  S8  1  0.02810100  0.77621800  0.89840600  1
  S  S9  1  0.87781200  0.12969500  0.10159400  1
  S  S10  1  0.87030500  0.97189900  0.74811700  1
  S  S11  1  0.22378200  0.12218800  0.25188300  1
  S  S12  1  0.60639400  0.33868000  0.34024900  1
  S  S13  1  0.99843100  0.26614500  0.65975100  1
  S  S14  1  0.73385500  0.39360600  0.73228600  1
  S  S15  1  0.66132000  0.00156900  0.26771400  1
  N  N0  1  0.44408900  0.37473100  0.11050600  1
  N  N1  1  0.26422400  0.33358300  0.88949400  1
  N  N2  1  0.66641700  0.55591100  0.93064200  1
  N  N3  1  0.62526900  0.73577600  0.06935800  1
  N  N4  1  0.02026600  0.60140100  0.40371300  1
  N  N5  1  0.19768900  0.61655400  0.59628700  1
  N  N6  1  0.38344600  0.97973400  0.58113500  1
  N  N7  1  0.39859900  0.80231100  0.41886500  1
  N  N8  1  0.94384600  0.87009000  0.09720700  1
  N  N9  1  0.77288400  0.84663900  0.90279300  1
  N  N10  1  0.15336100  0.05615400  0.92624400  1
  N  N11  1  0.12991000  0.22711600  0.07375600  1
  N  N12  1  0.70174700  0.11128400  0.58177900  1
  N  N13  1  0.52950500  0.11996900  0.41822100  1
  N  N14  1  0.88003100  0.29825300  0.40953600  1
  N  N15  1  0.88871600  0.47049500  0.59046400  1
  O  O0  1  0.38303600  0.19879100  0.51800200  1
  O  O1  1  0.68078900  0.86503400  0.48199800  1
  O  O2  1  0.13496600  0.61696400  0.81575500  1
  O  O3  1  0.80120900  0.31921100  0.18424500  1
  O  O4  1  0.16813400  0.04935000  0.63889000  1
  O  O5  1  0.41046000  0.52924400  0.36111000  1
  O  O6  1  0.47075600  0.83186600  0.88121600  1
  O  O7  1  0.95065000  0.58954000  0.11878400  1
  O  O8  1  0.57780600  0.54337000  0.66485100  1
  O  O9  1  0.87851900  0.91295500  0.33514900  1
  O  O10  1  0.08704500  0.42219400  0.96556400  1
  O  O11  1  0.45663000  0.12148100  0.03443600  1
  O  O12  1  0.01236200  0.17714700  0.59243500  1
  O  O13  1  0.58471200  0.41992700  0.40756500  1
  O  O14  1  0.58007300  0.98763800  0.16478500  1
  O  O15  1  0.82285300  0.41528800  0.83521500  1
  O  O16  1  0.86142300  0.86088700  0.68249700  1
  O  O17  1  0.17839000  0.17892600  0.31750300  1
  O  O18  1  0.82107400  0.13857700  0.99946400  1
  O  O19  1  0.13911300  0.82161000  0.00053600  1
  O  O20  1  0.99234200  0.78778400  0.55457100  1
  O  O21  1  0.23321400  0.43777200  0.44542900  1
  O  O22  1  0.56222800  0.00765800  0.79544200  1
  O  O23  1  0.21221600  0.76678600  0.20455800  1
  O  O24  1  0.97063600  0.94012700  0.40968900  1
  O  O25  1  0.53043900  0.56094800  0.59031100  1
  O  O26  1  0.43905200  0.02936400  0.96949100  1
  O  O27  1  0.05987300  0.46956100  0.03050900  1
loop_
_geom_bond_atom_site_label_1
_geom_bond_atom_site_label_2
_geom_bond_distance
_geom_bond_site_symmetry_2
Ba0 O1 2.404480 1_555
Ba0 O16 2.777534 1_555
Ba0 O5 2.787162 1_555
Ba0 O13 2.865402 1_555
Ba0 O25 2.919896 1_555
Ba0 O20 3.198762 1_555
Ba0 O24 3.216264 1_555
Ba0 O9 3.313186 1_555
Ba0 S3 3.337401 1_555
Ba1 O0 2.404480 1_555
Ba1 O17 2.777534 1_555
Ba1 O4 2.787162 1_555
Ba1 O12 2.865402 1_555
Ba1 O24 2.919906 1_445
Ba1 O21 3.198767 1_555
Ba1 O25 3.216275 1_555
Ba1 O8 3.313186 1_555
Ba1 S2 3.337401 1_555
Ba2 O3 2.404480 1_556
Ba2 O18 2.777534 1_555
Ba2 O7 2.787162 1_556
Ba2 O15 2.865402 1_555
Ba2 O27 2.919908 1_656
Ba2 O22 3.198760 1_555
Ba2 O26 3.216272 1_555
Ba2 O11 3.313186 1_556
Ba2 S0 3.337401 1_555
Ba3 O2 2.404480 1_554
Ba3 O19 2.777534 1_555
Ba3 O6 2.787162 1_554
Ba3 O14 2.865402 1_555
Ba3 O26 2.919908 1_564
Ba3 O23 3.198760 1_555
Ba3 O27 3.216272 1_555
Ba3 O10 3.313186 1_554
Ba3 S1 3.337401 1_555
C0 N0 1.186546 1_555
C0 S3 1.611647 1_555
C1 N1 1.186547 1_555
C1 S2 1.611647 1_555
C2 N2 1.186546 1_555
C2 S0 1.611647 1_555
C3 N3 1.186543 1_555
C3 S1 1.611647 1_555
C4 N5 1.166787 1_555
C5 N4 1.166795 1_555
C6 N7 1.166784 1_555
C7 N6 1.166784 1_555
C8 N9 1.172177 1_555
C8 S10 1.702193 1_555
C9 N8 1.172178 1_455
C9 S11 1.702193 1_565
C10 N11 1.172181 1_555
C10 S9 1.702193 1_455
C11 N10 1.172178 1_565
C11 S8 1.702193 1_555
C12 N12 1.173185 1_555
C12 S13 1.713965 1_555
C13 N13 1.173174 1_555
C13 S12 1.713965 1_555
C14 N14 1.173181 1_555
C14 S15 1.713965 1_555
C15 N15 1.173174 1_555
C15 S14 1.713965 1_555
N0 Zn0 1.917458 1_555
N1 Zn0 1.917461 1_556
N2 Zn1 1.917458 1_556
N3 Zn1 1.917464 1_555
N4 Zn3 1.948280 1_555
N5 Zn3 1.948286 1_555
N6 Zn2 1.948291 1_555
N7 Zn2 1.948291 1_555
N8 Zn1 2.013829 1_555
N9 Zn1 2.013827 1_556
N10 Zn0 2.013829 1_556
N11 Zn0 2.013826 1_555
N12 Zn2 2.011988 1_545
N13 Zn2 2.011999 1_545
N14 Zn3 2.011989 1_655
N15 Zn3 2.011999 1_655
O4 S5 1.474747 1_545
O5 S4 1.474747 1_555
O6 S7 1.474747 1_555
O7 S6 1.474747 1_655
O10 O27 1.250299 1_556
O11 O26 1.250299 1_554
O12 S13 1.524972 1_455
O13 S12 1.524972 1_555
O14 S15 1.524972 1_565
O15 S14 1.524972 1_555
O16 S10 1.534503 1_555
O17 S11 1.534503 1_555
O18 S9 1.534503 1_556
O19 S8 1.534503 1_554
O20 S5 1.471919 1_655
O21 S4 1.471912 1_555
O22 S7 1.471925 1_545
O23 S6 1.471925 1_555
O24 O9 1.250307 1_555
O25 O8 1.250310 1_555
