# generated using pymatgen
data_LiNiO2
_symmetry_space_group_name_H-M   'P 1'
_cell_length_a   5.70241441
_cell_length_b   5.70241441
_cell_length_c   5.78667195
_cell_angle_alpha   59.77487557
_cell_angle_beta   59.77487557
_cell_angle_gamma   60.38805555
_symmetry_Int_Tables_number   1
_chemical_formula_structural   LiNiO2
_chemical_formula_sum   'Li4 Ni4 O8'
_cell_volume   132.98231577
_cell_formula_units_Z   4
loop_
 _symmetry_equiv_pos_site_id
 _symmetry_equiv_pos_as_xyz
  1  'x, y, z'
loop_
 _atom_site_type_symbol
 _atom_site_label
 _atom_site_symmetry_multiplicity
 _atom_site_fract_x
 _atom_site_fract_y
 _atom_site_fract_z
 _atom_site_occupancy
  Li  Li0  1  0.50000000  0.50000000  -0.00000000  1
  Li  Li1  1  0.50000000  0.50000000  0.50000000  1
  Li  Li2  1  0.50000000  0.00000000  -0.00000000  1
  Li  Li3  1  0.00000000  0.50000000  -0.00000000  1
  Ni  Ni0  1  0.00000000  0.00000000  -0.00000000  1
  Ni  Ni1  1  0.50000000  0.00000000  0.50000000  1
  Ni  Ni2  1  0.00000000  0.50000000  0.50000000  1
  Ni  Ni3  1  0.00000000  0.00000000  0.50000000  1
  O  O0  1  0.76397703  0.76397703  0.74597940  1
  O  O1  1  0.78134307  0.24313062  0.72177224  1
  O  O2  1  0.75033110  0.75033110  0.28843123  1
  O  O3  1  0.75686938  0.21865693  0.27822776  1
  O  O4  1  0.24313062  0.78134307  0.72177224  1
  O  O5  1  0.24966890  0.24966890  0.71156877  1
  O  O6  1  0.21865693  0.75686938  0.27822776  1
  O  O7  1  0.23602297  0.23602297  0.25402060  1
loop_
_geom_bond_atom_site_label_1
_geom_bond_atom_site_label_2
_geom_bond_distance
_geom_bond_site_symmetry_2
Li0 O0 2.115757 1_554
Li0 O7 2.115757 1_555
Li0 O3 2.182432 1_555
Li0 O6 2.182432 1_555
Li0 O4 2.182432 1_554
Li0 O1 2.182432 1_554
Li1 O2 2.017188 1_555
Li1 O5 2.017188 1_555
Li1 O3 2.055316 1_555
Li1 O6 2.055316 1_555
Li1 O4 2.055316 1_555
Li1 O1 2.055316 1_555
Li2 O7 2.000003 1_555
Li2 O0 2.000003 1_544
Li2 O1 2.106769 1_554
Li2 O6 2.106769 1_545
Li2 O2 2.201895 1_545
Li2 O5 2.201895 1_554
Li3 O0 2.000003 1_454
Li3 O7 2.000003 1_555
Li3 O3 2.106769 1_455
Li3 O4 2.106769 1_554
Li3 O2 2.201895 1_455
Li3 O5 2.201895 1_554
Ni0 O5 2.014446 1_554
Ni0 O2 2.014446 1_445
Ni0 O1 2.033327 1_454
Ni0 O6 2.033327 1_545
Ni0 O4 2.033327 1_544
Ni0 O3 2.033327 1_455
Ni1 O5 1.884263 1_555
Ni1 O2 1.884263 1_545
Ni1 O3 1.910110 1_555
Ni1 O4 1.910110 1_545
Ni1 O7 2.080800 1_555
Ni1 O0 2.080800 1_545
Ni2 O5 1.884263 1_555
Ni2 O2 1.884263 1_455
Ni2 O6 1.910110 1_555
Ni2 O1 1.910110 1_455
Ni2 O7 2.080800 1_555
Ni2 O0 2.080800 1_455
Ni3 O0 1.892503 1_445
Ni3 O7 1.892503 1_555
Ni3 O6 1.896242 1_545
Ni3 O3 1.896242 1_455
Ni3 O4 1.896242 1_545
Ni3 O1 1.896242 1_455
