# generated using pymatgen
data_CuCO3
_symmetry_space_group_name_H-M   'P 1'
_cell_length_a   3.38051200
_cell_length_b   13.83440844
_cell_length_c   13.84116736
_cell_angle_alpha   60.19424392
_cell_angle_beta   88.81725120
_cell_angle_gamma   88.79106882
_symmetry_Int_Tables_number   1
_chemical_formula_structural   CuCO3
_chemical_formula_sum   'Cu9 C9 O27'
_cell_volume   561.52193704
_cell_formula_units_Z   9
loop_
 _symmetry_equiv_pos_site_id
 _symmetry_equiv_pos_as_xyz
  1  'x, y, z'
loop_
 _atom_site_type_symbol
 _atom_site_label
 _atom_site_symmetry_multiplicity
 _atom_site_fract_x
 _atom_site_fract_y
 _atom_site_fract_z
 _atom_site_occupancy
  Cu  Cu0  1  0.07449300  0.78215500  0.75874100  1
  Cu  Cu1  1  0.00171400  0.45639700  0.78713800  1
  Cu  Cu2  1  0.02119000  0.09395600  0.78652300  1
  Cu  Cu3  1  0.94114100  0.75936400  0.45779000  1
  Cu  Cu4  1  0.93712700  0.46161900  0.42654600  1
  Cu  Cu5  1  0.08045800  0.11309800  0.46102600  1
  Cu  Cu6  1  0.95204600  0.78787000  0.11916000  1
  Cu  Cu7  1  0.95003800  0.42544000  0.11220600  1
  Cu  Cu8  1  0.03304200  0.11797800  0.09405500  1
  C  C0  1  0.00303300  0.66870200  0.99606900  1
  C  C1  1  0.00060400  0.66706200  0.66654600  1
  C  C2  1  0.00630200  0.99568100  0.33556800  1
  C  C3  1  0.99103600  0.33549100  0.66983100  1
  C  C4  1  0.52225700  0.99761300  0.67265400  1
  C  C5  1  0.47527000  0.67263200  0.32983500  1
  C  C6  1  0.99858900  0.33297900  0.33414200  1
  C  C7  1  0.00384500  0.99986900  0.00027300  1
  C  C8  1  0.50723100  0.32876600  0.99924100  1
  O  O0  1  0.01413300  0.92298900  0.97323300  1
  O  O1  1  0.06551900  0.76053000  0.90433800  1
  O  O2  1  0.98937900  0.57572900  0.99512000  1
  O  O3  1  0.54735700  0.89357600  0.70083000  1
  O  O4  1  0.51760200  0.40561200  0.89544800  1
  O  O5  1  0.02130700  0.60527400  0.77357400  1
  O  O6  1  0.05701200  0.77319100  0.62126100  1
  O  O7  1  0.01794600  0.10351100  0.92451800  1
  O  O8  1  0.02805600  0.99470700  0.42919800  1
  O  O9  1  0.03697700  0.33487700  0.76229500  1
  O  O10  1  0.92430600  0.62385400  0.60536700  1
  O  O11  1  0.97068400  0.42934100  0.57693600  1
  O  O12  1  0.93370200  0.90482500  0.33497000  1
  O  O13  1  0.96706600  0.24331800  0.66868000  1
  O  O14  1  0.52147000  0.02959100  0.74706200  1
  O  O15  1  0.44859400  0.70116700  0.40551200  1
  O  O16  1  0.50605100  0.07384600  0.56722700  1
  O  O17  1  0.48878100  0.56650200  0.35967100  1
  O  O18  1  0.48194600  0.74684600  0.22428400  1
  O  O19  1  0.97889600  0.97268500  0.10419600  1
  O  O20  1  0.01975400  0.31977200  0.43339500  1
  O  O21  1  0.99326200  0.43211400  0.24862200  1
  O  O22  1  0.98178300  0.24693200  0.32129400  1
  O  O23  1  0.95459100  0.66800700  0.08894300  1
  O  O24  1  0.05588300  0.08789000  0.24353200  1
  O  O25  1  0.50087700  0.35845600  0.07605000  1
  O  O26  1  0.49961200  0.22370700  0.02947300  1
loop_
_geom_bond_atom_site_label_1
_geom_bond_atom_site_label_2
_geom_bond_distance
_geom_bond_site_symmetry_2
Cu0 O1 1.884169 1_555
Cu0 O6 1.969615 1_555
Cu0 O3 2.096807 1_555
Cu0 O3 2.215580 1_455
Cu0 O5 2.362224 1_555
Cu1 O9 1.877037 1_555
Cu1 O5 1.975482 1_555
Cu1 O4 2.078335 1_455
Cu1 O4 2.188973 1_555
Cu1 O10 2.443889 1_455
Cu2 O13 1.899859 1_455
Cu2 O7 1.978840 1_555
Cu2 O14 2.081635 1_555
Cu2 O14 2.128391 1_455
Cu2 O0 2.489325 1_545
Cu3 O12 1.881204 1_555
Cu3 O10 1.970530 1_555
Cu3 O15 2.141075 1_655
Cu3 O15 2.151671 1_555
Cu3 O6 2.404066 1_655
Cu4 O11 1.904934 1_555
Cu4 O20 1.931561 1_655
Cu4 O17 1.972122 1_555
Cu4 O17 2.268844 1_655
Cu5 O8 1.908097 1_545
Cu5 O22 1.928894 1_455
Cu5 O16 1.945855 1_555
Cu5 O16 2.315016 1_455
Cu6 O23 1.900907 1_555
Cu6 O0 1.965591 1_654
Cu6 O18 2.021482 1_555
Cu6 O18 2.211759 1_655
Cu6 O19 2.463932 1_555
Cu7 O2 1.902638 1_554
Cu7 O21 1.944294 1_555
Cu7 O25 1.991601 1_555
Cu7 O25 2.219551 1_655
Cu8 O24 1.899692 1_555
Cu8 O19 1.956391 1_445
Cu8 O26 2.040972 1_555
Cu8 O26 2.201303 1_455
Cu8 O7 2.453857 1_554
C0 O23 1.287816 1_456
C0 O1 1.291246 1_555
C0 O2 1.294607 1_455
C1 O10 1.288259 1_455
C1 O5 1.293449 1_555
C1 O6 1.294970 1_555
C2 O24 1.289533 1_565
C2 O12 1.289822 1_455
C2 O8 1.292906 1_555
C3 O13 1.287423 1_555
C3 O9 1.288195 1_655
C3 O11 1.297684 1_555
C4 O3 1.291918 1_555
C4 O14 1.307357 1_565
C4 O16 1.309797 1_565
C5 O15 1.291049 1_555
C5 O18 1.302872 1_555
C5 O17 1.312841 1_555
C6 O22 1.290599 1_555
C6 O21 1.291655 1_555
C6 O20 1.296049 1_655
C7 O7 1.289882 1_564
C7 O0 1.290788 1_554
C7 O19 1.294659 1_455
C8 O4 1.294795 1_555
C8 O26 1.297977 1_556
C8 O25 1.316131 1_556
