# generated using pymatgen
data_LiMn2(PO4)2
_symmetry_space_group_name_H-M   'P 1'
_cell_length_a   5.14974500
_cell_length_b   10.19644900
_cell_length_c   14.19844100
_cell_angle_alpha   90.00000000
_cell_angle_beta   90.00000000
_cell_angle_gamma   90.00000000
_symmetry_Int_Tables_number   1
_chemical_formula_structural   LiMn2(PO4)2
_chemical_formula_sum   'Li4 Mn8 P8 O32'
_cell_volume   745.54753232
_cell_formula_units_Z   4
loop_
 _symmetry_equiv_pos_site_id
 _symmetry_equiv_pos_as_xyz
  1  'x, y, z'
loop_
 _atom_site_type_symbol
 _atom_site_label
 _atom_site_symmetry_multiplicity
 _atom_site_fract_x
 _atom_site_fract_y
 _atom_site_fract_z
 _atom_site_occupancy
  Li  Li0  1  0.55239100  0.22230500  0.25006500  1
  Li  Li1  1  0.55239100  0.27769500  0.75006500  1
  Li  Li2  1  0.44760900  0.72230500  0.25006500  1
  Li  Li3  1  0.44760900  0.77769500  0.75006500  1
  Mn  Mn0  1  0.05850600  0.03330800  0.24711000  1
  Mn  Mn1  1  0.55541900  0.22211000  0.99867300  1
  Mn  Mn2  1  0.55541900  0.27789000  0.49867300  1
  Mn  Mn3  1  0.05850600  0.46669200  0.74711000  1
  Mn  Mn4  1  0.94149400  0.53330800  0.24711000  1
  Mn  Mn5  1  0.44458100  0.72211000  0.99867300  1
  Mn  Mn6  1  0.44458100  0.77789000  0.49867300  1
  Mn  Mn7  1  0.94149400  0.96669200  0.74711000  1
  P  P0  1  0.43341700  0.02978200  0.62368100  1
  P  P1  1  0.05266900  0.21395400  0.87209600  1
  P  P2  1  0.05266900  0.28604600  0.37209600  1
  P  P3  1  0.43341700  0.47021800  0.12368100  1
  P  P4  1  0.56658300  0.52978200  0.62368100  1
  P  P5  1  0.94733100  0.71395400  0.87209600  1
  P  P6  1  0.94733100  0.78604600  0.37209600  1
  P  P7  1  0.56658300  0.97021800  0.12368100  1
  O  O0  1  0.13703100  0.00595500  0.63141400  1
  O  O1  1  0.46418700  0.03385700  0.03283400  1
  O  O2  1  0.44012700  0.03534500  0.21267700  1
  O  O3  1  0.99701600  0.06530900  0.86312800  1
  O  O4  1  0.49508200  0.17914100  0.62443700  1
  O  O5  1  0.92646600  0.23532400  0.46305800  1
  O  O6  1  0.93477400  0.21761100  0.28309200  1
  O  O7  1  0.35048500  0.24227600  0.87286900  1
  O  O8  1  0.35048500  0.25772400  0.37286900  1
  O  O9  1  0.93477400  0.28238900  0.78309200  1
  O  O10  1  0.92646600  0.26467600  0.96305800  1
  O  O11  1  0.49508200  0.32085900  0.12443700  1
  O  O12  1  0.99701600  0.43469100  0.36312800  1
  O  O13  1  0.44012700  0.46465500  0.71267700  1
  O  O14  1  0.46418700  0.46614300  0.53283400  1
  O  O15  1  0.13703100  0.49404500  0.13141400  1
  O  O16  1  0.86296900  0.50595500  0.63141400  1
  O  O17  1  0.53581300  0.53385700  0.03283400  1
  O  O18  1  0.55987300  0.53534500  0.21267700  1
  O  O19  1  0.00298400  0.56530900  0.86312800  1
  O  O20  1  0.50491800  0.67914100  0.62443700  1
  O  O21  1  0.07353400  0.73532400  0.46305800  1
  O  O22  1  0.06522600  0.71761100  0.28309200  1
  O  O23  1  0.64951500  0.74227600  0.87286900  1
  O  O24  1  0.64951500  0.75772400  0.37286900  1
  O  O25  1  0.06522600  0.78238900  0.78309200  1
  O  O26  1  0.07353400  0.76467600  0.96305800  1
  O  O27  1  0.50491800  0.82085900  0.12443700  1
  O  O28  1  0.00298400  0.93469100  0.36312800  1
  O  O29  1  0.55987300  0.96465500  0.71267700  1
  O  O30  1  0.53581300  0.96614300  0.53283400  1
  O  O31  1  0.86296900  0.99404500  0.13141400  1
loop_
_geom_bond_atom_site_label_1
_geom_bond_atom_site_label_2
_geom_bond_distance
_geom_bond_site_symmetry_2
Li0 O6 2.024806 1_555
Li0 O2 2.061583 1_555
Li0 O8 2.061981 1_555
Li0 O11 2.068475 1_555
Li1 O9 2.024806 1_555
Li1 O13 2.061583 1_555
Li1 O7 2.061981 1_555
Li1 O4 2.068475 1_555
Li2 O22 2.024806 1_555
Li2 O18 2.061583 1_555
Li2 O24 2.061981 1_555
Li2 O27 2.068475 1_555
Li3 O25 2.024806 1_555
Li3 O29 2.061583 1_555
Li3 O23 2.061981 1_555
Li3 O20 2.068475 1_555
Mn0 O28 1.950996 1_545
Mn0 O31 1.967925 1_445
Mn0 O2 2.025256 1_555
Mn0 O6 2.049035 1_455
Mn1 O10 2.023668 1_555
Mn1 O1 2.034826 1_556
Mn1 O11 2.073386 1_556
Mn1 O7 2.084861 1_555
Mn2 O5 2.023668 1_555
Mn2 O14 2.034826 1_555
Mn2 O4 2.073386 1_555
Mn2 O8 2.084861 1_555
Mn3 O19 1.950996 1_555
Mn3 O16 1.967925 1_455
Mn3 O13 2.025256 1_555
Mn3 O9 2.049035 1_455
Mn4 O12 1.950996 1_555
Mn4 O15 1.967925 1_655
Mn4 O18 2.025256 1_555
Mn4 O22 2.049035 1_655
Mn5 O26 2.023668 1_555
Mn5 O17 2.034826 1_556
Mn5 O27 2.073386 1_556
Mn5 O23 2.084861 1_555
Mn6 O21 2.023668 1_555
Mn6 O30 2.034826 1_555
Mn6 O20 2.073386 1_555
Mn6 O24 2.084861 1_555
Mn7 O3 1.950996 1_565
Mn7 O0 1.967925 1_665
Mn7 O29 2.025256 1_555
Mn7 O25 2.049035 1_655
O0 P0 1.549422 1_555
O1 P7 1.537181 1_545
O2 P7 1.569000 1_545
O3 P1 1.547757 1_655
O4 P0 1.555725 1_555
O5 P2 1.535541 1_655
O6 P2 1.566048 1_655
O7 P1 1.560667 1_555
O8 P2 1.560667 1_555
O9 P1 1.566048 1_655
O10 P1 1.535541 1_655
O11 P3 1.555725 1_555
O12 P2 1.547757 1_655
O13 P4 1.569000 1_555
O14 P4 1.537181 1_555
O15 P3 1.549422 1_555
O16 P4 1.549422 1_555
O17 P3 1.537181 1_555
O18 P3 1.569000 1_555
O19 P5 1.547757 1_455
O20 P4 1.555725 1_555
O21 P6 1.535541 1_455
O22 P6 1.566048 1_455
O23 P5 1.560667 1_555
O24 P6 1.560667 1_555
O25 P5 1.566048 1_455
O26 P5 1.535541 1_455
O27 P7 1.555725 1_555
O28 P6 1.547757 1_455
O29 P0 1.569000 1_565
O30 P0 1.537181 1_565
O31 P7 1.549422 1_555
