# generated using pymatgen
data_Na6H2Pd(S2O7)2
_symmetry_space_group_name_H-M   'P 1'
_cell_length_a   13.02670518
_cell_length_b   13.02670518
_cell_length_c   13.02670518
_cell_angle_alpha   100.03213413
_cell_angle_beta   100.03213413
_cell_angle_gamma   130.66227198
_symmetry_Int_Tables_number   1
_chemical_formula_structural   Na6H2Pd(S2O7)2
_chemical_formula_sum   'Na24 H8 Pd4 S16 O56'
_cell_volume   1523.81781020
_cell_formula_units_Z   4
loop_
 _symmetry_equiv_pos_site_id
 _symmetry_equiv_pos_as_xyz
  1  'x, y, z'
loop_
 _atom_site_type_symbol
 _atom_site_label
 _atom_site_symmetry_multiplicity
 _atom_site_fract_x
 _atom_site_fract_y
 _atom_site_fract_z
 _atom_site_occupancy
  Na  Na0  1  0.10284600  0.68560100  0.53963500  1
  Na  Na1  1  0.14596700  0.06321100  0.96036500  1
  Na  Na2  1  0.56321100  0.60284600  0.41724400  1
  Na  Na3  1  0.18560100  0.64596700  0.08275600  1
  Na  Na4  1  0.89715400  0.31439900  0.46036500  1
  Na  Na5  1  0.85403300  0.93678900  0.03963500  1
  Na  Na6  1  0.43678900  0.39715400  0.58275600  1
  Na  Na7  1  0.81439900  0.35403300  0.91724400  1
  Na  Na8  1  0.95759400  0.83151900  0.47318700  1
  Na  Na9  1  0.35833200  0.98440700  0.02681300  1
  Na  Na10  1  0.48440700  0.45759400  0.12607500  1
  Na  Na11  1  0.33151900  0.85833200  0.37392500  1
  Na  Na12  1  0.04240600  0.16848100  0.52681300  1
  Na  Na13  1  0.64166800  0.01559300  0.97318700  1
  Na  Na14  1  0.51559300  0.54240600  0.87392500  1
  Na  Na15  1  0.66848100  0.14166800  0.62607500  1
  Na  Na16  1  0.26128800  0.68484100  0.81905100  1
  Na  Na17  1  0.86579000  0.94223700  0.68094900  1
  Na  Na18  1  0.44223700  0.76128800  0.57644700  1
  Na  Na19  1  0.18484100  0.36579000  0.92355300  1
  Na  Na20  1  0.73871200  0.31515900  0.18094900  1
  Na  Na21  1  0.13421000  0.05776300  0.31905100  1
  Na  Na22  1  0.55776300  0.23871200  0.42355300  1
  Na  Na23  1  0.81515900  0.63421000  0.07644700  1
  H  H0  1  0.20456800  0.45581400  0.73034100  1
  H  H1  1  0.72547300  0.97422700  0.76965900  1
  H  H2  1  0.47422700  0.70456800  0.74875400  1
  H  H3  1  0.95581400  0.22547300  0.75124600  1
  H  H4  1  0.79543200  0.54418600  0.26965900  1
  H  H5  1  0.27452700  0.02577300  0.23034100  1
  H  H6  1  0.52577300  0.29543200  0.25124600  1
  H  H7  1  0.04418600  0.77452700  0.24875400  1
  Pd  Pd0  1  0.12500000  0.37500000  0.25000000  1
  Pd  Pd1  1  0.87500000  0.62500000  0.75000000  1
  Pd  Pd2  1  0.62500000  0.87500000  0.25000000  1
  Pd  Pd3  1  0.37500000  0.12500000  0.75000000  1
  S  S0  1  0.22132800  0.40012600  0.43419900  1
  S  S1  1  0.96592800  0.28712900  0.06580100  1
  S  S2  1  0.78712900  0.72132800  0.82120200  1
  S  S3  1  0.90012600  0.46592800  0.67879800  1
  S  S4  1  0.77867200  0.59987400  0.56580100  1
  S  S5  1  0.03407200  0.71287100  0.93419900  1
  S  S6  1  0.21287100  0.27867200  0.17879800  1
  S  S7  1  0.09987400  0.53407200  0.32120200  1
  S  S8  1  0.68236200  0.95081800  0.44913700  1
  S  S9  1  0.50168100  0.73322500  0.05086300  1
  S  S10  1  0.23322500  0.18236200  0.73154400  1
  S  S11  1  0.45081800  0.00168100  0.76845600  1
  S  S12  1  0.31763800  0.04918200  0.55086300  1
  S  S13  1  0.49831900  0.26677500  0.94913700  1
  S  S14  1  0.76677500  0.81763800  0.26845600  1
  S  S15  1  0.54918200  0.99831900  0.23154400  1
  O  O0  1  0.38073800  0.54225100  0.49328500  1
  O  O1  1  0.04896600  0.38745400  0.00671500  1
  O  O2  1  0.88745400  0.88073800  0.83848700  1
  O  O3  1  0.04225100  0.54896600  0.66151300  1
  O  O4  1  0.61926200  0.45774900  0.50671500  1
  O  O5  1  0.95103400  0.61254600  0.99328500  1
  O  O6  1  0.11254600  0.11926200  0.16151300  1
  O  O7  1  0.95774900  0.45103400  0.33848700  1
  O  O8  1  0.20927500  0.27706500  0.43137100  1
  O  O9  1  0.84569400  0.27790300  0.06862900  1
  O  O10  1  0.77790300  0.70927500  0.93220900  1
  O  O11  1  0.77706500  0.34569400  0.56779100  1
  O  O12  1  0.79072500  0.72293500  0.56862900  1
  O  O13  1  0.15430600  0.72209700  0.93137100  1
  O  O14  1  0.22209700  0.29072500  0.06779100  1
  O  O15  1  0.22293500  0.65430600  0.43220900  1
  O  O16  1  0.13013700  0.39253800  0.49439700  1
  O  O17  1  0.89814000  0.13574000  0.00560300  1
  O  O18  1  0.63574000  0.63013700  0.73759900  1
  O  O19  1  0.89253800  0.39814000  0.76240100  1
  O  O20  1  0.86986300  0.60746200  0.50560300  1
  O  O21  1  0.10186000  0.86426000  0.99439700  1
  O  O22  1  0.36426000  0.36986300  0.26240100  1
  O  O23  1  0.10746200  0.60186000  0.23759900  1
  O  O24  1  0.82392000  0.10997700  0.50738600  1
  O  O25  1  0.60259100  0.81653400  0.99261400  1
  O  O26  1  0.31653400  0.32392000  0.71394300  1
  O  O27  1  0.60997700  0.10259100  0.78605700  1
  O  O28  1  0.17608000  0.89002300  0.49261400  1
  O  O29  1  0.39740900  0.18346600  0.00738600  1
  O  O30  1  0.68346600  0.67608000  0.28605700  1
  O  O31  1  0.39002300  0.89740900  0.21394300  1
  O  O32  1  0.69628800  0.86002700  0.49238700  1
  O  O33  1  0.36764000  0.70390100  0.00761300  1
  O  O34  1  0.20390100  0.19628800  0.83626100  1
  O  O35  1  0.36002700  0.86764000  0.66373900  1
  O  O36  1  0.30371200  0.13997300  0.50761300  1
  O  O37  1  0.63236000  0.29609900  0.99238700  1
  O  O38  1  0.79609900  0.80371200  0.16373900  1
  O  O39  1  0.63997300  0.13236000  0.33626100  1
  O  O40  1  0.56127600  0.92901100  0.47191100  1
  O  O41  1  0.45710000  0.58936500  0.02808900  1
  O  O42  1  0.08936500  0.06127600  0.63226500  1
  O  O43  1  0.42901100  0.95710000  0.86773500  1
  O  O44  1  0.43872400  0.07098900  0.52808900  1
  O  O45  1  0.54290000  0.41063500  0.97191100  1
  O  O46  1  0.91063500  0.93872400  0.36773500  1
  O  O47  1  0.57098900  0.04290000  0.13226500  1
  O  O48  1  0.12617700  0.38823100  0.75572100  1
  O  O49  1  0.63251000  0.87045600  0.74427900  1
  O  O50  1  0.37045600  0.62617700  0.73794600  1
  O  O51  1  0.88823100  0.13251000  0.76205400  1
  O  O52  1  0.87382300  0.61176900  0.24427900  1
  O  O53  1  0.36749000  0.12954400  0.25572100  1
  O  O54  1  0.62954400  0.37382300  0.26205400  1
  O  O55  1  0.11176900  0.86749000  0.23794600  1
loop_
_geom_bond_atom_site_label_1
_geom_bond_atom_site_label_2
_geom_bond_distance
_geom_bond_site_symmetry_2
Na0 O20 2.406638 1_455
Na0 O28 2.416145 1_555
Na0 O35 2.425883 1_555
Na0 O3 2.429412 1_555
Na0 O15 2.442709 1_555
Na0 O7 2.780953 1_455
Na1 O21 2.406638 1_545
Na1 O29 2.416133 1_556
Na1 O34 2.425883 1_555
Na1 O2 2.429412 1_445
Na1 O14 2.442705 1_556
Na1 O6 2.780966 1_556
Na2 O22 2.406632 1_555
Na2 O30 2.416133 1_555
Na2 O32 2.425883 1_555
Na2 O0 2.429420 1_555
Na2 O12 2.442707 1_555
Na2 O4 2.780960 1_555
Na3 O23 2.406625 1_555
Na3 O31 2.416134 1_555
Na3 O33 2.425894 1_555
Na3 O1 2.429413 1_555
Na3 O13 2.442712 1_554
Na3 O5 2.780940 1_454
Na4 O16 2.406638 1_655
Na4 O24 2.416145 1_555
Na4 O39 2.425883 1_555
Na4 O7 2.429412 1_555
Na4 O11 2.442709 1_555
Na4 O3 2.780953 1_655
Na5 O17 2.406638 1_565
Na5 O25 2.416133 1_554
Na5 O38 2.425883 1_555
Na5 O6 2.429412 1_665
Na5 O10 2.442705 1_554
Na5 O2 2.780966 1_554
Na6 O18 2.406632 1_555
Na6 O26 2.416133 1_555
Na6 O36 2.425883 1_555
Na6 O4 2.429420 1_555
Na6 O8 2.442707 1_555
Na6 O0 2.780960 1_555
Na7 O19 2.406625 1_555
Na7 O27 2.416134 1_555
Na7 O37 2.425894 1_555
Na7 O5 2.429413 1_555
Na7 O9 2.442712 1_556
Na7 O1 2.780940 1_656
Na8 O28 2.366548 1_655
Na8 O46 2.387558 1_555
Na8 O12 2.412272 1_555
Na8 O42 2.470477 1_665
Na8 O20 2.500778 1_555
Na9 O29 2.366548 1_565
Na9 O47 2.387558 1_565
Na9 O13 2.412265 1_554
Na9 O43 2.470477 1_554
Na9 O21 2.500766 1_554
Na10 O30 2.366548 1_555
Na10 O45 2.387558 1_554
Na10 O14 2.412264 1_555
Na10 O41 2.470477 1_555
Na10 O22 2.500778 1_555
Na11 O31 2.366548 1_555
Na11 O44 2.387558 1_565
Na11 O15 2.412265 1_555
Na11 O40 2.470477 1_555
Na11 O23 2.500772 1_555
Na12 O24 2.366548 1_455
Na12 O42 2.387558 1_555
Na12 O8 2.412272 1_555
Na12 O46 2.470477 1_445
Na12 O16 2.500778 1_555
Na13 O25 2.366548 1_545
Na13 O43 2.387558 1_545
Na13 O9 2.412265 1_556
Na13 O47 2.470477 1_556
Na13 O17 2.500766 1_556
Na14 O26 2.366548 1_555
Na14 O41 2.387558 1_556
Na14 O10 2.412264 1_555
Na14 O45 2.470477 1_555
Na14 O18 2.500778 1_555
Na15 O27 2.366548 1_555
Na15 O40 2.387558 1_545
Na15 O11 2.412265 1_555
Na15 O44 2.470477 1_555
Na15 O19 2.500772 1_555
Na16 O50 2.319713 1_555
Na16 O3 2.366142 1_555
Na16 O13 2.379707 1_555
Na16 O33 2.483596 1_556
Na16 O43 2.527784 1_555
Na17 O51 2.319713 1_565
Na17 O2 2.366144 1_555
Na17 O12 2.379701 1_555
Na17 O32 2.483596 1_555
Na17 O42 2.527784 1_665
Na18 O49 2.319713 1_555
Na18 O0 2.366142 1_555
Na18 O15 2.379707 1_555
Na18 O35 2.483596 1_555
Na18 O40 2.527784 1_555
Na19 O48 2.319713 1_555
Na19 O1 2.366148 1_556
Na19 O14 2.379716 1_556
Na19 O34 2.483596 1_555
Na19 O41 2.527784 1_556
Na20 O54 2.319713 1_555
Na20 O7 2.366142 1_555
Na20 O9 2.379707 1_555
Na20 O37 2.483596 1_554
Na20 O47 2.527784 1_555
Na21 O55 2.319713 1_545
Na21 O6 2.366144 1_555
Na21 O8 2.379701 1_555
Na21 O36 2.483596 1_555
Na21 O46 2.527784 1_445
Na22 O53 2.319713 1_555
Na22 O4 2.366142 1_555
Na22 O11 2.379707 1_555
Na22 O39 2.483596 1_555
Na22 O44 2.527784 1_555
Na23 O52 2.319713 1_555
Na23 O5 2.366148 1_554
Na23 O10 2.379716 1_554
Na23 O38 2.483596 1_555
Na23 O45 2.527784 1_554
H0 O48 0.987224 1_555
H1 O49 0.987224 1_555
H2 O50 0.987224 1_555
H3 O51 0.987224 1_555
H4 O52 0.987224 1_555
H5 O53 0.987224 1_555
H6 O54 0.987224 1_555
H7 O55 0.987224 1_555
Pd0 S7 2.362501 1_555
Pd0 S1 2.362508 1_455
Pd0 S0 2.362513 1_555
Pd0 S6 2.362513 1_555
Pd1 S3 2.362501 1_555
Pd1 S5 2.362508 1_655
Pd1 S2 2.362513 1_555
Pd1 S4 2.362513 1_555
Pd2 S14 2.394457 1_555
Pd2 S8 2.394457 1_555
Pd2 S15 2.394457 1_555
Pd2 S9 2.394457 1_555
Pd3 S11 2.394457 1_555
Pd3 S12 2.394457 1_555
Pd3 S10 2.394457 1_555
Pd3 S13 2.394457 1_555
O0 S0 1.506232 1_555
O1 S1 1.506236 1_455
O2 S2 1.506232 1_555
O3 S3 1.506233 1_455
O4 S4 1.506232 1_555
O5 S5 1.506236 1_655
O6 S6 1.506232 1_555
O7 S7 1.506233 1_655
O8 S0 1.498421 1_555
O9 S1 1.498426 1_555
O10 S2 1.498411 1_555
O11 S3 1.498416 1_555
O12 S4 1.498421 1_555
O13 S5 1.498426 1_555
O14 S6 1.498411 1_555
O15 S7 1.498416 1_555
O16 S0 1.494789 1_555
O17 S1 1.494780 1_555
O18 S2 1.494789 1_555
O19 S3 1.494807 1_555
O20 S4 1.494789 1_555
O21 S5 1.494780 1_555
O22 S6 1.494789 1_555
O23 S7 1.494807 1_555
O24 S8 1.502262 1_545
O25 S9 1.502262 1_556
O26 S10 1.502262 1_555
O27 S11 1.502262 1_555
O28 S12 1.502262 1_565
O29 S13 1.502262 1_554
O30 S14 1.502262 1_555
O31 S15 1.502262 1_555
O32 S8 1.491739 1_555
O33 S9 1.491739 1_555
O34 S10 1.491739 1_555
O35 S11 1.491739 1_565
O36 S12 1.491739 1_555
O37 S13 1.491739 1_555
O38 S14 1.491739 1_555
O39 S15 1.491739 1_545
O40 S8 1.505060 1_555
O41 S9 1.505060 1_555
O42 S10 1.505060 1_555
O43 S11 1.505060 1_565
O44 S12 1.505060 1_555
O45 S13 1.505060 1_555
O46 S14 1.505060 1_555
O47 S15 1.505060 1_545
