# generated using pymatgen
data_Ca5BC4Cl3
_symmetry_space_group_name_H-M   'P 1'
_cell_length_a   7.29327352
_cell_length_b   7.29327352
_cell_length_c   18.68898400
_cell_angle_alpha   90.00000000
_cell_angle_beta   90.00000000
_cell_angle_gamma   149.10149521
_symmetry_Int_Tables_number   1
_chemical_formula_structural   Ca5BC4Cl3
_chemical_formula_sum   'Ca10 B2 C8 Cl6'
_cell_volume   510.48982779
_cell_formula_units_Z   2
loop_
 _symmetry_equiv_pos_site_id
 _symmetry_equiv_pos_as_xyz
  1  'x, y, z'
loop_
 _atom_site_type_symbol
 _atom_site_label
 _atom_site_symmetry_multiplicity
 _atom_site_fract_x
 _atom_site_fract_y
 _atom_site_fract_z
 _atom_site_occupancy
  Ca  Ca0  1  0.84404500  0.15595500  0.25000000  1
  Ca  Ca1  1  0.63706600  0.36293400  0.56262700  1
  Ca  Ca2  1  0.94520100  0.05479900  0.64111100  1
  Ca  Ca3  1  0.63706600  0.36293400  0.93737300  1
  Ca  Ca4  1  0.94520100  0.05479900  0.85888900  1
  Ca  Ca5  1  0.36293400  0.63706600  0.06262700  1
  Ca  Ca6  1  0.05479900  0.94520100  0.35888900  1
  Ca  Ca7  1  0.36293400  0.63706600  0.43737300  1
  Ca  Ca8  1  0.15595500  0.84404500  0.75000000  1
  Ca  Ca9  1  0.05479900  0.94520100  0.14111100  1
  B  B0  1  0.53444300  0.46555700  0.75000000  1
  B  B1  1  0.46555700  0.53444300  0.25000000  1
  C  C0  1  0.95815900  0.04184100  0.01171300  1
  C  C1  1  0.95815900  0.04184100  0.48828700  1
  C  C2  1  0.04184100  0.95815900  0.51171300  1
  C  C3  1  0.04184100  0.95815900  0.98828700  1
  C  C4  1  0.54960000  0.45040000  0.67316800  1
  C  C5  1  0.54960000  0.45040000  0.82683200  1
  C  C6  1  0.45040000  0.54960000  0.17316800  1
  C  C7  1  0.45040000  0.54960000  0.32683200  1
  Cl  Cl0  1  0.71580600  0.28419400  0.08539700  1
  Cl  Cl1  1  0.71580600  0.28419400  0.41460300  1
  Cl  Cl2  1  0.80619400  0.19380600  0.75000000  1
  Cl  Cl3  1  0.28419400  0.71580600  0.58539700  1
  Cl  Cl4  1  0.19380600  0.80619400  0.25000000  1
  Cl  Cl5  1  0.28419400  0.71580600  0.91460300  1
loop_
_geom_bond_atom_site_label_1
_geom_bond_atom_site_label_2
_geom_bond_distance
_geom_bond_site_symmetry_2
Ca0 Cl4 2.869892 1_545
Ca0 Cl4 2.869892 1_655
Ca1 Cl3 2.869583 1_655
Ca1 Cl3 2.869583 1_545
Ca1 Cl1 2.979701 1_555
Ca2 Cl2 2.821503 1_555
Ca2 Cl3 3.159580 1_655
Ca2 Cl3 3.159580 1_545
Ca3 Cl5 2.869583 1_655
Ca3 Cl5 2.869583 1_545
Ca3 Cl0 2.979701 1_556
Ca4 Cl2 2.821503 1_555
Ca4 Cl5 3.159580 1_655
Ca4 Cl5 3.159580 1_545
Ca5 Cl0 2.869583 1_565
Ca5 Cl0 2.869583 1_455
Ca5 Cl5 2.979701 1_554
Ca6 Cl4 2.821503 1_555
Ca6 Cl1 3.159580 1_565
Ca6 Cl1 3.159580 1_455
Ca7 Cl1 2.869583 1_565
Ca7 Cl1 2.869583 1_455
Ca7 Cl3 2.979701 1_555
Ca8 Cl2 2.869892 1_455
Ca8 Cl2 2.869892 1_565
Ca9 Cl4 2.821503 1_555
Ca9 Cl0 3.159580 1_565
Ca9 Cl0 3.159580 1_455
B0 C4 1.451639 1_555
B0 C5 1.451639 1_555
B0 Ca8 2.587114 1_655
B0 Ca8 2.587114 1_545
B1 C7 1.451639 1_555
B1 C6 1.451639 1_555
B1 Ca0 2.587114 1_565
B1 Ca0 2.587114 1_455
C0 C3 1.255344 1_644
C0 Ca5 2.544086 1_545
C0 Ca5 2.544086 1_655
C0 Ca9 2.773869 1_645
C0 Ca4 2.861930 1_554
C1 C2 1.255344 1_645
C1 Ca7 2.544086 1_545
C1 Ca7 2.544086 1_655
C1 Ca6 2.773869 1_645
C1 Ca2 2.861930 1_555
C2 Ca1 2.544086 1_455
C2 Ca1 2.544086 1_565
C2 Ca2 2.773869 1_465
C2 Ca6 2.861930 1_555
C3 Ca3 2.544086 1_455
C3 Ca3 2.544086 1_565
C3 Ca4 2.773869 1_465
C3 Ca9 2.861930 1_556
C4 Ca1 2.404198 1_555
C4 Ca2 2.507569 1_455
C4 Ca2 2.507569 1_565
C4 Ca8 2.841178 1_655
C4 Ca8 2.841178 1_545
C5 Ca3 2.404198 1_555
C5 Ca4 2.507569 1_455
C5 Ca4 2.507569 1_565
C5 Ca8 2.841178 1_655
C5 Ca8 2.841178 1_545
C6 Ca5 2.404198 1_555
C6 Ca9 2.507569 1_545
C6 Ca9 2.507569 1_655
C6 Ca0 2.841178 1_565
C6 Ca0 2.841178 1_455
C7 Ca7 2.404198 1_555
C7 Ca6 2.507569 1_545
C7 Ca6 2.507569 1_655
C7 Ca0 2.841178 1_565
C7 Ca0 2.841178 1_455
