# generated using pymatgen
data_Cu2OF2
_symmetry_space_group_name_H-M   'P 1'
_cell_length_a   8.44075627
_cell_length_b   8.44355770
_cell_length_c   8.39366468
_cell_angle_alpha   108.67234938
_cell_angle_beta   108.71162027
_cell_angle_gamma   109.91915556
_symmetry_Int_Tables_number   1
_chemical_formula_structural   Cu2OF2
_chemical_formula_sum   'Cu16 O8 F16'
_cell_volume   466.65812975
_cell_formula_units_Z   8
loop_
 _symmetry_equiv_pos_site_id
 _symmetry_equiv_pos_as_xyz
  1  'x, y, z'
loop_
 _atom_site_type_symbol
 _atom_site_label
 _atom_site_symmetry_multiplicity
 _atom_site_fract_x
 _atom_site_fract_y
 _atom_site_fract_z
 _atom_site_occupancy
  Cu  Cu0  1  0.82076600  0.32313500  0.05200400  1
  Cu  Cu1  1  0.03583800  0.02570300  0.03575300  1
  Cu  Cu2  1  0.51858300  0.00516600  0.49624100  1
  Cu  Cu3  1  0.47421000  0.51313700  0.98785300  1
  Cu  Cu4  1  0.51918000  0.27665700  0.24886400  1
  Cu  Cu5  1  0.93977000  0.18757400  0.75058000  1
  Cu  Cu6  1  0.73028400  0.45293200  0.66618000  1
  Cu  Cu7  1  0.75982000  0.96901000  0.24407000  1
  Cu  Cu8  1  0.29661900  0.24982800  0.49446000  1
  Cu  Cu9  1  0.72627600  0.74564200  0.47676900  1
  Cu  Cu10  1  0.27035100  0.04143100  0.80775600  1
  Cu  Cu11  1  0.21997300  0.52237500  0.25920700  1
  Cu  Cu12  1  0.04442700  0.79479500  0.27259700  1
  Cu  Cu13  1  0.98141600  0.50004900  0.48079500  1
  Cu  Cu14  1  0.47266900  0.74452100  0.78111200  1
  Cu  Cu15  1  0.20904200  0.72001800  0.95401300  1
  O  O0  1  0.74279300  0.98968600  0.47934000  1
  O  O1  1  0.27836600  0.06499000  0.04544800  1
  O  O2  1  0.01422800  0.56537100  0.28985800  1
  O  O3  1  0.50384500  0.21618100  0.44495600  1
  O  O4  1  0.02440900  0.27962700  0.02662900  1
  O  O5  1  0.44726800  0.72970200  0.99362300  1
  O  O6  1  0.75002400  0.52176700  0.46446800  1
  O  O7  1  0.07619900  0.03146200  0.27535400  1
  F  F0  1  0.75634700  0.19580900  0.25014900  1
  F  F1  1  0.78106700  0.73216700  0.22125800  1
  F  F2  1  0.44413800  0.53579900  0.23116200  1
  F  F3  1  0.71729000  0.25781200  0.77851400  1
  F  F4  1  0.93605400  0.91930000  0.74522700  1
  F  F5  1  0.19827600  0.43591500  0.49096000  1
  F  F6  1  0.57828500  0.33053000  0.04158000  1
  F  F7  1  0.27048500  0.79349000  0.22999400  1
  F  F8  1  0.94726200  0.68015600  0.90987200  1
  F  F9  1  0.51337300  0.47542000  0.74834100  1
  F  F10  1  0.48196300  0.77061400  0.56105400  1
  F  F11  1  0.21428800  0.24612700  0.78710200  1
  F  F12  1  0.75689600  0.92798700  0.97342600  1
  F  F13  1  0.01020900  0.43550100  0.69430300  1
  F  F14  1  0.30973500  0.01207100  0.58330100  1
  F  F15  1  0.22798000  0.78054300  0.72582600  1
loop_
_geom_bond_atom_site_label_1
_geom_bond_atom_site_label_2
_geom_bond_distance
_geom_bond_site_symmetry_2
Cu0 O4 1.936493 1_655
Cu0 O2 1.963062 1_655
Cu0 F3 1.977717 1_554
Cu0 F6 2.043602 1_555
Cu0 F0 2.354653 1_555
Cu1 O7 1.910384 1_555
Cu1 O1 1.928854 1_555
Cu1 F12 2.026734 1_444
Cu1 F4 2.055959 1_444
Cu1 O4 2.203028 1_555
Cu1 F8 2.494170 1_444
Cu2 O0 1.986883 1_545
Cu2 O3 1.995762 1_555
Cu2 F7 2.112707 1_545
Cu2 F14 2.124678 1_555
Cu2 F10 2.166643 1_545
Cu2 F3 2.180240 1_555
Cu3 O5 1.905642 1_555
Cu3 F9 2.083388 1_555
Cu3 F2 2.094593 1_556
Cu3 F6 2.113376 1_556
Cu3 F11 2.135596 1_555
Cu3 F1 2.264380 1_556
Cu4 O1 1.893425 1_555
Cu4 O3 1.901685 1_555
Cu4 O6 1.986580 1_555
Cu4 F6 2.095714 1_555
Cu4 F0 2.322848 1_555
Cu4 F2 2.510607 1_555
Cu5 O4 1.972226 1_656
Cu5 O0 1.995522 1_545
Cu5 F11 2.091448 1_655
Cu5 F3 2.210324 1_555
Cu5 F13 2.219051 1_655
Cu5 F4 2.240444 1_545
Cu6 O3 1.959558 1_555
Cu6 F8 1.976977 1_555
Cu6 O6 1.994313 1_555
Cu6 F3 2.133837 1_555
Cu6 F9 2.197038 1_555
Cu6 F13 2.358273 1_655
Cu7 F0 1.909789 1_565
Cu7 O0 1.982253 1_555
Cu7 F1 2.022187 1_555
Cu7 F12 2.176131 1_554
Cu7 O5 2.356168 1_554
Cu7 O7 2.445478 1_665
Cu8 O7 1.881304 1_555
Cu8 F9 2.010347 1_555
Cu8 O3 2.010526 1_555
Cu8 F5 2.015271 1_555
Cu8 F14 2.378122 1_555
Cu9 O6 1.941797 1_555
Cu9 F4 1.979434 1_555
Cu9 O0 2.009930 1_555
Cu9 F2 2.167186 1_555
Cu9 F1 2.311375 1_555
Cu9 F10 2.436060 1_555
Cu10 O1 1.916953 1_556
Cu10 F15 1.946447 1_545
Cu10 F14 1.969863 1_555
Cu10 F11 1.984375 1_555
Cu10 F6 2.429506 1_556
Cu10 F4 2.453875 1_445
Cu11 O4 1.949843 1_555
Cu11 F2 1.950670 1_555
Cu11 O2 1.967327 1_555
Cu11 F7 2.289909 1_555
Cu11 F5 2.323206 1_555
Cu11 F10 2.355677 1_555
Cu12 O7 1.914929 1_565
Cu12 O2 1.924963 1_555
Cu12 F1 1.960961 1_455
Cu12 F7 2.053883 1_555
Cu12 F14 2.360482 1_565
Cu13 O2 1.922536 1_655
Cu13 O6 1.988844 1_555
Cu13 F13 2.000999 1_655
Cu13 F5 2.062985 1_655
Cu13 F15 2.224107 1_655
Cu13 F0 2.255352 1_555
Cu14 O5 1.900891 1_555
Cu14 F10 1.951464 1_555
Cu14 F12 2.035394 1_555
Cu14 F15 2.115902 1_555
Cu14 F9 2.355595 1_555
Cu14 F5 2.508108 1_555
Cu15 O5 1.897944 1_555
Cu15 F8 2.005271 1_455
Cu15 F7 2.027248 1_556
Cu15 F15 2.173181 1_555
Cu15 F13 2.211808 1_555
Cu15 O1 2.556335 1_566
