# generated using pymatgen
data_Li3Ti(PO4)2
_symmetry_space_group_name_H-M   'P 1'
_cell_length_a   4.98165847
_cell_length_b   4.98165847
_cell_length_c   6.25105805
_cell_angle_alpha   89.60363661
_cell_angle_beta   89.60363661
_cell_angle_gamma   66.97717335
_symmetry_Int_Tables_number   1
_chemical_formula_structural   Li3Ti(PO4)2
_chemical_formula_sum   'Li3 Ti1 P2 O8'
_cell_volume   142.77070022
_cell_formula_units_Z   1
loop_
 _symmetry_equiv_pos_site_id
 _symmetry_equiv_pos_as_xyz
  1  'x, y, z'
loop_
 _atom_site_type_symbol
 _atom_site_label
 _atom_site_symmetry_multiplicity
 _atom_site_fract_x
 _atom_site_fract_y
 _atom_site_fract_z
 _atom_site_occupancy
  Li  Li0  1  0.67042500  0.67042500  0.77808700  1
  Li  Li1  1  0.00000000  0.00000000  0.00000000  1
  Li  Li2  1  0.32957500  0.32957500  0.22191300  1
  Ti  Ti0  1  0.00000000  0.00000000  0.50000000  1
  P  P0  1  0.65010900  0.65010900  0.26748500  1
  P  P1  1  0.34989100  0.34989100  0.73251500  1
  O  O0  1  0.24284500  0.24284500  0.93330400  1
  O  O1  1  0.24432200  0.24432200  0.52860700  1
  O  O2  1  0.75636500  0.31084000  0.27171200  1
  O  O3  1  0.31084000  0.75636500  0.27171200  1
  O  O4  1  0.68916000  0.24363500  0.72828800  1
  O  O5  1  0.24363500  0.68916000  0.72828800  1
  O  O6  1  0.75567800  0.75567800  0.47139300  1
  O  O7  1  0.75715500  0.75715500  0.06669600  1
loop_
_geom_bond_atom_site_label_1
_geom_bond_atom_site_label_2
_geom_bond_distance
_geom_bond_site_symmetry_2
Li0 O7 1.948270 1_556
Li0 O6 2.038335 1_555
Li0 O4 2.116495 1_555
Li0 O5 2.116495 1_555
Li1 O0 2.057118 1_554
Li1 O7 2.057118 1_445
Li1 O2 2.300779 1_455
Li1 O3 2.300779 1_545
Li1 O4 2.300779 1_454
Li1 O5 2.300779 1_544
Li2 O0 1.948270 1_554
Li2 O1 2.038335 1_555
Li2 O3 2.116495 1_555
Li2 O2 2.116495 1_555
O0 P1 1.532334 1_555
O1 P1 1.553305 1_555
O1 Ti0 2.039498 1_555
O2 P0 1.561153 1_555
O2 Ti0 2.104921 1_655
O3 P0 1.561153 1_555
O3 Ti0 2.104921 1_565
O4 P1 1.561153 1_555
O4 Ti0 2.104921 1_655
O5 P1 1.561153 1_555
O5 Ti0 2.104921 1_565
O6 P0 1.553305 1_555
O6 Ti0 2.039498 1_665
O7 P0 1.532334 1_555
