# generated using pymatgen
data_Li4Nb2V3Sn3O16
_symmetry_space_group_name_H-M   'P 1'
_cell_length_a   6.24789093
_cell_length_b   6.24789093
_cell_length_c   9.86189150
_cell_angle_alpha   89.34242524
_cell_angle_beta   89.34242524
_cell_angle_gamma   59.59693320
_symmetry_Int_Tables_number   1
_chemical_formula_structural   Li4Nb2V3Sn3O16
_chemical_formula_sum   'Li4 Nb2 V3 Sn3 O16'
_cell_volume   332.00258234
_cell_formula_units_Z   1
loop_
 _symmetry_equiv_pos_site_id
 _symmetry_equiv_pos_as_xyz
  1  'x, y, z'
loop_
 _atom_site_type_symbol
 _atom_site_label
 _atom_site_symmetry_multiplicity
 _atom_site_fract_x
 _atom_site_fract_y
 _atom_site_fract_z
 _atom_site_occupancy
  Li  Li0  1  0.67196100  0.67196100  0.89896600  1
  Li  Li1  1  0.98961200  0.98961200  0.98671800  1
  Li  Li2  1  0.99938700  0.99938700  0.49754500  1
  Li  Li3  1  0.33017000  0.33017000  0.40351600  1
  Nb  Nb0  1  0.67729500  0.67729500  0.49851400  1
  Nb  Nb1  1  0.34894600  0.34894600  0.97914800  1
  V  V0  1  0.82967200  0.82967200  0.21345700  1
  V  V1  1  0.66037400  0.17129300  0.71085100  1
  V  V2  1  0.17129300  0.66037400  0.71085100  1
  Sn  Sn0  1  0.83081700  0.33768200  0.21431900  1
  Sn  Sn1  1  0.33768200  0.83081700  0.21431900  1
  Sn  Sn2  1  0.17076600  0.17076600  0.71675100  1
  O  O0  1  0.82923800  0.34460300  0.59007600  1
  O  O1  1  0.51412000  0.51412000  0.34157500  1
  O  O2  1  0.66347000  0.66347000  0.10107800  1
  O  O3  1  0.99975100  0.99975100  0.31274900  1
  O  O4  1  0.00366600  0.00366600  0.80507200  1
  O  O5  1  0.34460300  0.82923800  0.59007600  1
  O  O6  1  0.95407000  0.51303100  0.34654300  1
  O  O7  1  0.51303100  0.95407000  0.34654300  1
  O  O8  1  0.16227600  0.16227600  0.09628100  1
  O  O9  1  0.83034400  0.83034400  0.58897800  1
  O  O10  1  0.47729700  0.04171800  0.85220400  1
  O  O11  1  0.04171800  0.47729700  0.85220400  1
  O  O12  1  0.32634200  0.32634200  0.60337500  1
  O  O13  1  0.66308200  0.17250900  0.09279100  1
  O  O14  1  0.48332100  0.48332100  0.85089800  1
  O  O15  1  0.17250900  0.66308200  0.09279100  1
loop_
_geom_bond_atom_site_label_1
_geom_bond_atom_site_label_2
_geom_bond_distance
_geom_bond_site_symmetry_2
Li0 O2 1.994115 1_556
Li0 O11 2.042899 1_655
Li0 O10 2.042899 1_565
Li0 O14 2.105840 1_555
Li1 O4 1.795834 1_665
Li1 O13 2.044752 1_566
Li1 O15 2.044752 1_656
Li1 O8 2.174046 1_666
Li2 O3 1.822390 1_555
Li2 O9 2.032080 1_555
Li2 O5 2.077751 1_655
Li2 O0 2.077751 1_565
Li3 O12 1.970876 1_555
Li3 O1 2.078376 1_555
Li3 O7 2.107355 1_545
Li3 O6 2.107355 1_455
Nb0 O9 1.894559 1_555
Nb0 O5 2.004137 1_555
Nb0 O0 2.004137 1_555
Nb0 O6 2.114071 1_555
Nb0 O7 2.114071 1_555
Nb0 O1 2.366144 1_555
Nb1 O14 1.916793 1_555
Nb1 O13 2.038534 1_556
Nb1 O15 2.038534 1_556
Nb1 O10 2.090221 1_555
Nb1 O11 2.090221 1_555
Nb1 O8 2.317282 1_556
O0 V1 2.191378 1_555
O0 Sn2 2.231096 1_655
O1 Sn0 2.114805 1_555
O1 Sn1 2.114805 1_555
O2 Sn1 2.074634 1_555
O2 Sn0 2.074634 1_555
O2 V0 2.128169 1_555
O3 Sn1 2.057915 1_655
O3 Sn0 2.057915 1_565
O3 V0 2.099506 1_555
O4 Sn2 2.000030 1_555
O4 V2 2.076155 1_545
O4 V1 2.076155 1_455
O5 V2 2.191378 1_555
O5 Sn2 2.231096 1_565
O6 Sn0 2.098424 1_555
O6 V0 2.155924 1_555
O7 Sn1 2.098424 1_555
O7 V0 2.155924 1_555
O8 Sn1 2.126409 1_545
O8 Sn0 2.126409 1_455
O9 V2 2.202245 1_655
O9 V1 2.202245 1_565
O10 Sn2 2.138563 1_555
O10 V1 2.186738 1_555
O11 Sn2 2.138563 1_555
O11 V2 2.186738 1_555
O12 Sn2 2.011524 1_555
O12 V1 2.097212 1_555
O12 V2 2.097212 1_555
O13 Sn0 2.179803 1_555
O13 V0 2.191109 1_545
O14 V2 2.185353 1_555
O14 V1 2.185353 1_555
O15 Sn1 2.179803 1_555
O15 V0 2.191109 1_455
