# generated using pymatgen
data_Li2Cr2H4O9
_symmetry_space_group_name_H-M   'P 1'
_cell_length_a   7.84509147
_cell_length_b   7.84509147
_cell_length_c   8.95558674
_cell_angle_alpha   87.55490383
_cell_angle_beta   87.55490383
_cell_angle_gamma   59.32488798
_symmetry_Int_Tables_number   1
_chemical_formula_structural   Li2Cr2H4O9
_chemical_formula_sum   'Li4 Cr4 H8 O18'
_cell_volume   473.48020229
_cell_formula_units_Z   2
loop_
 _symmetry_equiv_pos_site_id
 _symmetry_equiv_pos_as_xyz
  1  'x, y, z'
loop_
 _atom_site_type_symbol
 _atom_site_label
 _atom_site_symmetry_multiplicity
 _atom_site_fract_x
 _atom_site_fract_y
 _atom_site_fract_z
 _atom_site_occupancy
  Li  Li0  1  0.67351800  0.55757600  0.01689800  1
  Li  Li1  1  0.55757600  0.67351800  0.51689800  1
  Li  Li2  1  0.53649000  0.36044200  0.26775800  1
  Li  Li3  1  0.36044200  0.53649000  0.76775800  1
  Cr  Cr0  1  0.29648200  0.96804800  0.11706800  1
  Cr  Cr1  1  0.96804800  0.29648200  0.61706800  1
  Cr  Cr2  1  0.18338900  0.68200300  0.30069200  1
  Cr  Cr3  1  0.68200300  0.18338900  0.80069200  1
  H  H0  1  0.81193300  0.39040800  0.29316700  1
  H  H1  1  0.39040800  0.81193300  0.79316700  1
  H  H2  1  0.90540700  0.27341400  0.14487000  1
  H  H3  1  0.27341400  0.90540700  0.64487000  1
  H  H4  1  0.75811600  0.83831100  0.47198000  1
  H  H5  1  0.83831100  0.75811600  0.97198000  1
  H  H6  1  0.00513500  0.55070200  0.04423600  1
  H  H7  1  0.55070200  0.00513500  0.54423600  1
  O  O0  1  0.12777400  0.91545300  0.22563200  1
  O  O1  1  0.91545300  0.12777400  0.72563200  1
  O  O2  1  0.41340600  0.79730200  0.98771100  1
  O  O3  1  0.79730200  0.41340600  0.48771100  1
  O  O4  1  0.15567400  0.18814600  0.04424400  1
  O  O5  1  0.18814600  0.15567400  0.54424400  1
  O  O6  1  0.45769800  0.96412000  0.22541000  1
  O  O7  1  0.96412000  0.45769800  0.72541000  1
  O  O8  1  0.38233600  0.59231400  0.40636400  1
  O  O9  1  0.59231400  0.38233600  0.90636400  1
  O  O10  1  0.99296300  0.70419100  0.39419800  1
  O  O11  1  0.70419100  0.99296300  0.89419800  1
  O  O12  1  0.25260400  0.52168800  0.16610800  1
  O  O13  1  0.52168800  0.25260400  0.66610800  1
  O  O14  1  0.77665900  0.35906300  0.19618600  1
  O  O15  1  0.35906300  0.77665900  0.69618600  1
  O  O16  1  0.86587400  0.63136100  0.02047700  1
  O  O17  1  0.63136100  0.86587400  0.52047700  1
loop_
_geom_bond_atom_site_label_1
_geom_bond_atom_site_label_2
_geom_bond_distance
_geom_bond_site_symmetry_2
Li0 O16 1.873584 1_555
Li0 O2 1.963955 1_554
Li0 O14 2.066362 1_555
Li0 O9 2.083092 1_554
Li1 O17 1.873584 1_555
Li1 O3 1.963955 1_555
Li1 O15 2.066362 1_555
Li1 O8 2.083092 1_555
Li2 O14 1.959010 1_555
Li2 O8 2.032800 1_555
Li2 O12 2.142217 1_555
Li3 O15 1.959010 1_555
Li3 O9 2.032800 1_555
Li3 O13 2.142217 1_555
Cr0 O6 1.613802 1_555
Cr0 O4 1.626731 1_565
Cr0 O2 1.663067 1_554
Cr0 O0 1.811200 1_555
Cr1 O7 1.613802 1_555
Cr1 O5 1.626731 1_655
Cr1 O3 1.663067 1_555
Cr1 O1 1.811200 1_555
Cr2 O10 1.613590 1_455
Cr2 O12 1.644994 1_555
Cr2 O8 1.665932 1_555
Cr2 O0 1.760979 1_555
Cr3 O11 1.613590 1_545
Cr3 O13 1.644994 1_555
Cr3 O9 1.665932 1_555
Cr3 O1 1.760979 1_555
H0 O14 0.999770 1_555
H1 O15 0.999770 1_555
H2 O14 0.988499 1_555
H3 O15 0.988499 1_555
H4 O17 0.987925 1_555
H5 O16 0.987925 1_556
H6 O16 0.970689 1_455
H7 O17 0.970689 1_545
