# generated using pymatgen
data_Si2As2O7
_symmetry_space_group_name_H-M   'P 1'
_cell_length_a   7.17574800
_cell_length_b   7.35409301
_cell_length_c   12.98680347
_cell_angle_alpha   93.80889646
_cell_angle_beta   96.51133249
_cell_angle_gamma   93.56451025
_symmetry_Int_Tables_number   1
_chemical_formula_structural   Si2As2O7
_chemical_formula_sum   'Si8 As8 O28'
_cell_volume   677.72183517
_cell_formula_units_Z   4
loop_
 _symmetry_equiv_pos_site_id
 _symmetry_equiv_pos_as_xyz
  1  'x, y, z'
loop_
 _atom_site_type_symbol
 _atom_site_label
 _atom_site_symmetry_multiplicity
 _atom_site_fract_x
 _atom_site_fract_y
 _atom_site_fract_z
 _atom_site_occupancy
  Si  Si0  1  0.18739800  0.36568700  0.61414100  1
  Si  Si1  1  0.02248600  0.81596900  0.12918100  1
  Si  Si2  1  0.33869200  0.24086900  0.40335600  1
  Si  Si3  1  0.41936600  0.31318000  0.19233900  1
  Si  Si4  1  0.58063400  0.68682000  0.80766100  1
  Si  Si5  1  0.66130800  0.75913100  0.59664400  1
  Si  Si6  1  0.97751400  0.18403100  0.87081900  1
  Si  Si7  1  0.81260200  0.63431300  0.38585900  1
  As  As0  1  0.99718300  0.75433500  0.88127000  1
  As  As1  1  0.25905800  0.81713500  0.65590400  1
  As  As2  1  0.38588600  0.27890000  0.83629800  1
  As  As3  1  0.24716300  0.80518300  0.35634900  1
  As  As4  1  0.75283700  0.19481700  0.64365100  1
  As  As5  1  0.61411400  0.72110000  0.16370200  1
  As  As6  1  0.74094200  0.18286500  0.34409600  1
  As  As7  1  0.00281700  0.24566500  0.11873000  1
  O  O0  1  0.94287500  0.01705800  0.15420300  1
  O  O1  1  0.15144300  0.33716500  0.86200900  1
  O  O2  1  0.02153000  0.74001200  0.39733300  1
  O  O3  1  0.17451600  0.57992000  0.65344600  1
  O  O4  1  0.20979100  0.04889100  0.37582200  1
  O  O5  1  0.09672700  0.79047100  0.01528200  1
  O  O6  1  0.33643600  0.26294000  0.69379800  1
  O  O7  1  0.26323500  0.35566900  0.49973900  1
  O  O8  1  0.25311700  0.21641400  0.10447300  1
  O  O9  1  0.20147700  0.78142900  0.21480100  1
  O  O10  1  0.48682600  0.51001800  0.85643100  1
  O  O11  1  0.41868700  0.83108500  0.77715500  1
  O  O12  1  0.32433000  0.36408300  0.30082100  1
  O  O13  1  0.43733700  0.79552800  0.56630700  1
  O  O14  1  0.56266300  0.20447200  0.43369300  1
  O  O15  1  0.67567000  0.63591700  0.69917900  1
  O  O16  1  0.58131300  0.16891500  0.22284500  1
  O  O17  1  0.51317400  0.48998200  0.14356900  1
  O  O18  1  0.79852300  0.21857100  0.78519900  1
  O  O19  1  0.74688300  0.78358600  0.89552700  1
  O  O20  1  0.73676500  0.64433100  0.50026100  1
  O  O21  1  0.66356400  0.73706000  0.30620200  1
  O  O22  1  0.90327300  0.20952900  0.98471800  1
  O  O23  1  0.79020900  0.95110900  0.62417800  1
  O  O24  1  0.82548400  0.42008000  0.34655400  1
  O  O25  1  0.97847000  0.25998800  0.60266700  1
  O  O26  1  0.84855700  0.66283500  0.13799100  1
  O  O27  1  0.05712500  0.98294200  0.84579700  1
loop_
_geom_bond_atom_site_label_1
_geom_bond_atom_site_label_2
_geom_bond_distance
_geom_bond_site_symmetry_2
As0 O5 1.800777 1_656
As0 O27 1.811514 1_655
As0 O19 1.850586 1_555
As1 O3 1.808022 1_555
As1 O13 1.831406 1_555
As1 O11 1.832213 1_555
As2 O10 1.796325 1_555
As2 O1 1.822982 1_555
As2 O6 1.838888 1_555
As3 O2 1.807562 1_555
As3 O9 1.825024 1_555
As3 O4 1.833838 1_565
As4 O25 1.807562 1_555
As4 O18 1.825024 1_555
As4 O23 1.833838 1_545
As5 O17 1.796325 1_555
As5 O26 1.822982 1_555
As5 O21 1.838888 1_555
As6 O24 1.808022 1_555
As6 O14 1.831406 1_555
As6 O16 1.832213 1_555
As7 O22 1.800777 1_454
As7 O0 1.811514 1_455
As7 O8 1.850586 1_555
O0 Si1 1.643830 1_645
O1 Si6 1.647345 1_455
O2 Si7 1.631905 1_455
O3 Si0 1.635002 1_555
O4 Si2 1.634686 1_555
O5 Si1 1.631332 1_555
O6 Si0 1.654773 1_555
O7 Si2 1.625689 1_555
O7 Si0 1.637905 1_555
O8 Si3 1.646052 1_555
O9 Si1 1.644617 1_555
O10 Si4 1.625459 1_555
O11 Si4 1.654609 1_555
O12 Si2 1.656999 1_555
O12 Si3 1.664207 1_555
O13 Si5 1.653397 1_555
O14 Si2 1.653397 1_555
O15 Si5 1.656999 1_555
O15 Si4 1.664207 1_555
O16 Si3 1.654609 1_555
O17 Si3 1.625459 1_555
O18 Si6 1.644617 1_555
O19 Si4 1.646052 1_555
O20 Si5 1.625689 1_555
O20 Si7 1.637905 1_555
O21 Si7 1.654773 1_555
O22 Si6 1.631332 1_555
O23 Si5 1.634686 1_555
O24 Si7 1.635002 1_555
O25 Si0 1.631905 1_655
O26 Si1 1.647345 1_655
O27 Si6 1.643830 1_465
