# generated using pymatgen
data_K4Mo3H4O17
_symmetry_space_group_name_H-M   'P 1'
_cell_length_a   8.61007700
_cell_length_b   8.65902870
_cell_length_c   12.47728139
_cell_angle_alpha   103.22016719
_cell_angle_beta   104.41400664
_cell_angle_gamma   103.78991577
_symmetry_Int_Tables_number   1
_chemical_formula_structural   K4Mo3H4O17
_chemical_formula_sum   'K8 Mo6 H8 O34'
_cell_volume   832.95886548
_cell_formula_units_Z   2
loop_
 _symmetry_equiv_pos_site_id
 _symmetry_equiv_pos_as_xyz
  1  'x, y, z'
loop_
 _atom_site_type_symbol
 _atom_site_label
 _atom_site_symmetry_multiplicity
 _atom_site_fract_x
 _atom_site_fract_y
 _atom_site_fract_z
 _atom_site_occupancy
  K  K0  1  0.43404600  0.69618300  0.57569000  1
  K  K1  1  0.56595400  0.30381700  0.42431000  1
  K  K2  1  0.76543100  0.44272800  0.03875200  1
  K  K3  1  0.23456900  0.55727200  0.96124800  1
  K  K4  1  0.15793600  0.02531100  0.91617200  1
  K  K5  1  0.84206400  0.97468900  0.08382800  1
  K  K6  1  0.92652700  0.76499900  0.52128800  1
  K  K7  1  0.07347300  0.23500100  0.47871200  1
  Mo  Mo0  1  0.77125700  0.58451100  0.77433400  1
  Mo  Mo1  1  0.22874300  0.41548900  0.22566600  1
  Mo  Mo2  1  0.79937800  0.14196700  0.73856300  1
  Mo  Mo3  1  0.20062200  0.85803300  0.26143700  1
  Mo  Mo4  1  0.41344100  0.18954300  0.72791700  1
  Mo  Mo5  1  0.58655900  0.81045700  0.27208300  1
  H  H0  1  0.20266300  0.67358000  0.70588200  1
  H  H1  1  0.79733700  0.32642000  0.29411800  1
  H  H2  1  0.03975300  0.52480800  0.64595500  1
  H  H3  1  0.96024700  0.47519200  0.35404500  1
  H  H4  1  0.50198400  0.76695100  0.83393300  1
  H  H5  1  0.49801600  0.23304900  0.16606700  1
  H  H6  1  0.41162900  0.84464400  0.91436400  1
  H  H7  1  0.58837100  0.15535600  0.08563600  1
  O  O0  1  0.82527700  0.15686200  0.90678500  1
  O  O1  1  0.17472300  0.84313800  0.09321500  1
  O  O2  1  0.97968900  0.25510800  0.89235300  1
  O  O3  1  0.02031100  0.74489200  0.10764700  1
  O  O4  1  0.93549500  0.28865800  0.67074800  1
  O  O5  1  0.06450500  0.71134200  0.32925200  1
  O  O6  1  0.76445000  0.19414500  0.58851700  1
  O  O7  1  0.23555000  0.80585500  0.41148300  1
  O  O8  1  0.46950200  0.19221600  0.89725500  1
  O  O9  1  0.53049800  0.80778400  0.10274500  1
  O  O10  1  0.40391800  0.32908700  0.87494400  1
  O  O11  1  0.59608200  0.67091300  0.12505600  1
  O  O12  1  0.37432000  0.36923800  0.66098200  1
  O  O13  1  0.62568000  0.63076200  0.33901800  1
  O  O14  1  0.41600300  0.24284100  0.58142900  1
  O  O15  1  0.58399700  0.75715900  0.41857100  1
  O  O16  1  0.70275100  0.37338300  0.79303000  1
  O  O17  1  0.29724900  0.62661700  0.20697000  1
  O  O18  1  0.55357900  0.04683000  0.69922800  1
  O  O19  1  0.44642100  0.95317000  0.30077200  1
  O  O20  1  0.85124100  0.95940700  0.70127000  1
  O  O21  1  0.14875900  0.04059300  0.29873000  1
  O  O22  1  0.21251300  0.04425400  0.67564800  1
  O  O23  1  0.78748700  0.95574600  0.32435200  1
  O  O24  1  0.67900900  0.71924100  0.85136400  1
  O  O25  1  0.32099100  0.28075900  0.14863600  1
  O  O26  1  0.99473400  0.66996700  0.83422600  1
  O  O27  1  0.00526600  0.33003300  0.16577400  1
  O  O28  1  0.71165500  0.57298700  0.62490700  1
  O  O29  1  0.28834500  0.42701300  0.37509300  1
  O  O30  1  0.12673600  0.60067400  0.62792900  1
  O  O31  1  0.87326400  0.39932600  0.37207100  1
  O  O32  1  0.39202100  0.78963000  0.83297500  1
  O  O33  1  0.60797900  0.21037000  0.16702500  1
loop_
_geom_bond_atom_site_label_1
_geom_bond_atom_site_label_2
_geom_bond_distance
_geom_bond_site_symmetry_2
K0 O15 2.682814 1_555
K0 O29 2.765023 1_555
K0 O7 2.817967 1_555
K0 O28 2.830676 1_555
K0 O30 2.858653 1_555
K0 O18 2.869484 1_565
K0 O12 3.219961 1_555
K1 O14 2.682814 1_555
K1 O28 2.765023 1_555
K1 O6 2.817967 1_555
K1 O29 2.830676 1_555
K1 O31 2.858653 1_555
K1 O19 2.869484 1_545
K1 O13 3.219961 1_555
K2 O8 2.772803 1_554
K2 O3 2.774078 1_655
K2 O27 2.786932 1_655
K2 O16 2.869063 1_554
K2 O0 2.875797 1_554
K2 O11 2.893383 1_555
K2 O10 3.047457 1_554
K3 O9 2.772803 1_556
K3 O2 2.774078 1_455
K3 O26 2.786932 1_455
K3 O17 2.869063 1_556
K3 O1 2.875797 1_556
K3 O10 2.893383 1_555
K3 O11 3.047457 1_556
K4 O2 2.811104 1_455
K4 O8 2.822019 1_555
K4 O26 2.876116 1_445
K4 O25 2.972279 1_556
K4 O1 2.988729 1_546
K4 O20 3.089537 1_445
K4 O22 3.185081 1_555
K5 O3 2.811104 1_655
K5 O9 2.822019 1_555
K5 O27 2.876116 1_665
K5 O24 2.972279 1_554
K5 O0 2.988729 1_564
K5 O21 3.089537 1_665
K5 O23 3.185081 1_555
K6 O13 2.766886 1_555
K6 O30 2.767670 1_655
K6 O20 2.795159 1_555
K6 O22 2.879246 1_665
K6 O15 2.885827 1_555
K6 O5 2.922253 1_655
K6 O28 2.926819 1_555
K7 O12 2.766886 1_555
K7 O31 2.767670 1_455
K7 O21 2.795159 1_555
K7 O23 2.879246 1_445
K7 O14 2.885827 1_555
K7 O4 2.922253 1_455
K7 O29 2.926819 1_555
Mo0 O26 1.777867 1_555
Mo0 O28 1.778653 1_555
Mo0 O24 1.795711 1_555
Mo0 O16 1.869227 1_555
Mo1 O27 1.777867 1_555
Mo1 O29 1.778653 1_555
Mo1 O25 1.795711 1_555
Mo1 O17 1.869227 1_555
Mo2 O20 1.737340 1_545
Mo2 O18 1.966027 1_555
Mo2 O6 1.992722 1_555
Mo2 O4 1.994624 1_555
Mo2 O2 1.996014 1_555
Mo2 O0 2.025194 1_555
Mo2 O16 2.371237 1_555
Mo3 O21 1.737340 1_565
Mo3 O19 1.966027 1_555
Mo3 O7 1.992722 1_555
Mo3 O5 1.994624 1_555
Mo3 O3 1.996014 1_555
Mo3 O1 2.025194 1_555
Mo3 O17 2.371237 1_555
Mo4 O22 1.739659 1_555
Mo4 O18 1.958224 1_555
Mo4 O12 1.983993 1_555
Mo4 O10 1.985039 1_555
Mo4 O14 1.988786 1_555
Mo4 O8 2.040182 1_555
Mo4 O16 2.430980 1_555
Mo5 O23 1.739659 1_555
Mo5 O19 1.958224 1_555
Mo5 O13 1.983993 1_555
Mo5 O11 1.985039 1_555
Mo5 O15 1.988786 1_555
Mo5 O9 2.040182 1_555
Mo5 O17 2.430980 1_555
H0 O30 0.988830 1_555
H0 K0 2.866496 1_555
H1 O31 0.988830 1_555
H1 K1 2.866496 1_555
H2 O30 0.979761 1_555
H3 O31 0.979761 1_555
H4 O32 1.009552 1_555
H4 O24 1.648453 1_555
H4 K0 3.014582 1_555
H5 O33 1.009552 1_555
H5 O25 1.648453 1_555
H5 K1 3.014582 1_555
H6 O32 0.970431 1_555
H6 K3 2.856498 1_555
H6 K4 2.975992 1_565
H7 O33 0.970431 1_555
H7 K2 2.856498 1_555
H7 K5 2.975992 1_545
O0 O2 1.474374 1_555
O1 O3 1.474374 1_555
O4 O6 1.476634 1_555
O5 O7 1.476634 1_555
O10 O8 1.480770 1_555
O11 O9 1.480770 1_555
O12 O14 1.476368 1_555
O13 O15 1.476368 1_555
