# generated using pymatgen
data_Li2Mn3F8
_symmetry_space_group_name_H-M   'P 1'
_cell_length_a   9.45813033
_cell_length_b   9.45813033
_cell_length_c   5.67482089
_cell_angle_alpha   86.96482189
_cell_angle_beta   86.96482189
_cell_angle_gamma   38.10747326
_symmetry_Int_Tables_number   1
_chemical_formula_structural   Li2Mn3F8
_chemical_formula_sum   'Li4 Mn6 F16'
_cell_volume   312.79723779
_cell_formula_units_Z   2
loop_
 _symmetry_equiv_pos_site_id
 _symmetry_equiv_pos_as_xyz
  1  'x, y, z'
loop_
 _atom_site_type_symbol
 _atom_site_label
 _atom_site_symmetry_multiplicity
 _atom_site_fract_x
 _atom_site_fract_y
 _atom_site_fract_z
 _atom_site_occupancy
  Li  Li0  1  0.76115900  0.03383300  0.78445100  1
  Li  Li1  1  0.03383300  0.76115900  0.28445100  1
  Li  Li2  1  0.96616700  0.23884100  0.71554900  1
  Li  Li3  1  0.23884100  0.96616700  0.21554900  1
  Mn  Mn0  1  0.13158000  0.45373700  0.73432800  1
  Mn  Mn1  1  0.45373700  0.13158000  0.23432800  1
  Mn  Mn2  1  0.54626300  0.86842000  0.76567200  1
  Mn  Mn3  1  0.86842000  0.54626300  0.26567200  1
  Mn  Mn4  1  0.36101200  0.63898800  0.75000000  1
  Mn  Mn5  1  0.63898800  0.36101200  0.25000000  1
  F  F0  1  0.56749500  0.31182600  0.58548600  1
  F  F1  1  0.31182600  0.56749500  0.08548600  1
  F  F2  1  0.06000400  0.77462800  0.62929200  1
  F  F3  1  0.77462800  0.06000400  0.12929200  1
  F  F4  1  0.86855900  0.71666200  0.95533500  1
  F  F5  1  0.71666200  0.86855900  0.45533500  1
  F  F6  1  0.46839400  0.15923300  0.86319800  1
  F  F7  1  0.15923300  0.46839400  0.36319800  1
  F  F8  1  0.84076700  0.53160600  0.63680200  1
  F  F9  1  0.53160600  0.84076700  0.13680200  1
  F  F10  1  0.28333800  0.13144100  0.54466500  1
  F  F11  1  0.13144100  0.28333800  0.04466500  1
  F  F12  1  0.22537200  0.93999600  0.87070800  1
  F  F13  1  0.93999600  0.22537200  0.37070800  1
  F  F14  1  0.68817400  0.43250500  0.91451400  1
  F  F15  1  0.43250500  0.68817400  0.41451400  1
loop_
_geom_bond_atom_site_label_1
_geom_bond_atom_site_label_2
_geom_bond_distance
_geom_bond_site_symmetry_2
F0 Li0 1.966897 1_555
F0 Mn5 2.136145 1_555
F0 Mn4 2.205295 1_555
F1 Li1 1.966897 1_555
F1 Mn4 2.136145 1_554
F1 Mn5 2.205295 1_555
F2 Li0 1.958279 1_465
F2 Li1 2.008561 1_555
F2 Mn4 2.141489 1_555
F2 Mn0 2.577350 1_555
F3 Li1 1.958279 1_645
F3 Li0 2.008561 1_554
F3 Mn5 2.141489 1_555
F3 Mn1 2.577350 1_555
F4 Mn0 2.051831 1_655
F4 Mn3 2.324103 1_556
F4 Mn2 2.410215 1_555
F4 Li0 2.443783 1_565
F5 Mn1 2.051831 1_565
F5 Mn2 2.324103 1_555
F5 Mn3 2.410215 1_555
F5 Li1 2.443783 1_655
F6 Li0 2.007627 1_555
F6 Mn1 2.119215 1_556
F6 Mn0 2.123350 1_555
F6 Mn2 2.311776 1_545
F7 Li1 2.007627 1_555
F7 Mn0 2.119215 1_555
F7 Mn1 2.123350 1_555
F7 Mn3 2.311776 1_455
F8 Li2 2.007627 1_555
F8 Mn3 2.119215 1_555
F8 Mn2 2.123350 1_555
F8 Mn0 2.311776 1_655
F9 Li3 2.007627 1_555
F9 Mn2 2.119215 1_554
F9 Mn3 2.123350 1_555
F9 Mn1 2.311776 1_565
F10 Mn2 2.051831 1_545
F10 Mn1 2.324103 1_555
F10 Mn0 2.410215 1_555
F10 Li2 2.443783 1_455
F11 Mn3 2.051831 1_455
F11 Mn0 2.324103 1_554
F11 Mn1 2.410215 1_555
F11 Li3 2.443783 1_545
F12 Li2 1.958279 1_465
F12 Li3 2.008561 1_556
F12 Mn4 2.141489 1_555
F12 Mn2 2.577350 1_555
F13 Li3 1.958279 1_645
F13 Li2 2.008561 1_555
F13 Mn5 2.141489 1_555
F13 Mn3 2.577350 1_555
F14 Li2 1.966897 1_555
F14 Mn5 2.136145 1_556
F14 Mn4 2.205295 1_555
F15 Li3 1.966897 1_555
F15 Mn4 2.136145 1_555
F15 Mn5 2.205295 1_555
