# generated using pymatgen
data_V5Sb(PO4)6
_symmetry_space_group_name_H-M   'P 1'
_cell_length_a   8.61523292
_cell_length_b   8.61523292
_cell_length_c   8.61523223
_cell_angle_alpha   61.17794404
_cell_angle_beta   61.17794404
_cell_angle_gamma   61.17794424
_symmetry_Int_Tables_number   1
_chemical_formula_structural   V5Sb(PO4)6
_chemical_formula_sum   'V5 Sb1 P6 O24'
_cell_volume   464.13612813
_cell_formula_units_Z   1
loop_
 _symmetry_equiv_pos_site_id
 _symmetry_equiv_pos_as_xyz
  1  'x, y, z'
loop_
 _atom_site_type_symbol
 _atom_site_label
 _atom_site_symmetry_multiplicity
 _atom_site_fract_x
 _atom_site_fract_y
 _atom_site_fract_z
 _atom_site_occupancy
  V  V0  1  0.00049900  0.00049900  0.00049900  1
  V  V1  1  0.35455000  0.35455000  0.35455000  1
  V  V2  1  0.49871300  0.49871300  0.49871300  1
  V  V3  1  0.14364300  0.14364300  0.14364300  1
  V  V4  1  0.64264800  0.64264800  0.64264800  1
  Sb  Sb0  1  0.84986600  0.84986600  0.84986600  1
  P  P0  1  0.44054700  0.74770800  0.05348900  1
  P  P1  1  0.74770800  0.05348900  0.44054700  1
  P  P2  1  0.05348900  0.44054700  0.74770800  1
  P  P3  1  0.95678100  0.53913800  0.25818100  1
  P  P4  1  0.25818100  0.95678100  0.53913800  1
  P  P5  1  0.53913800  0.25818100  0.95678100  1
  O  O0  1  0.68645000  0.88961700  0.49972700  1
  O  O1  1  0.88961700  0.49972700  0.68645000  1
  O  O2  1  0.49972700  0.68645000  0.88961700  1
  O  O3  1  0.24333100  0.90321200  0.06720200  1
  O  O4  1  0.57988400  0.81946600  0.03988100  1
  O  O5  1  0.42145100  0.58774700  0.24924000  1
  O  O6  1  0.90321200  0.06720200  0.24333100  1
  O  O7  1  0.58774700  0.24924000  0.42145100  1
  O  O8  1  0.99790300  0.38964500  0.18396500  1
  O  O9  1  0.24924000  0.42145100  0.58774700  1
  O  O10  1  0.95215700  0.73821600  0.10731800  1
  O  O11  1  0.18396500  0.99790300  0.38964500  1
  O  O12  1  0.81946600  0.03988100  0.57988400  1
  O  O13  1  0.06720200  0.24333100  0.90321200  1
  O  O14  1  0.75871800  0.55756900  0.41039400  1
  O  O15  1  0.03988100  0.57988400  0.81946600  1
  O  O16  1  0.41039400  0.75871800  0.55756900  1
  O  O17  1  0.10731800  0.95215700  0.73821600  1
  O  O18  1  0.55756900  0.41039400  0.75871800  1
  O  O19  1  0.38964500  0.18396500  0.99790300  1
  O  O20  1  0.73821600  0.10731800  0.95215700  1
  O  O21  1  0.48504300  0.33602100  0.11005900  1
  O  O22  1  0.11005900  0.48504300  0.33602100  1
  O  O23  1  0.33602100  0.11005900  0.48504300  1
loop_
_geom_bond_atom_site_label_1
_geom_bond_atom_site_label_2
_geom_bond_distance
_geom_bond_site_symmetry_2
O0 P1 1.515443 1_565
O0 V4 1.996434 1_555
O1 P2 1.515443 1_655
O1 V4 1.996434 1_555
O2 P0 1.515443 1_556
O2 V4 1.996434 1_555
O3 P0 1.568417 1_555
O3 V0 2.100841 1_565
O3 V3 2.125215 1_565
O4 P0 1.531960 1_555
O4 Sb0 2.158987 1_554
O5 P0 1.574979 1_555
O5 V1 2.011574 1_555
O5 V2 2.224484 1_555
O6 P1 1.568416 1_555
O6 V0 2.100841 1_655
O6 V3 2.125215 1_655
O7 P1 1.574979 1_555
O7 V1 2.011574 1_555
O7 V2 2.224484 1_555
O8 P3 1.526008 1_555
O8 V3 1.977994 1_655
O9 P2 1.574979 1_555
O9 V1 2.011574 1_555
O9 V2 2.224484 1_555
O10 P3 1.570724 1_555
O10 V0 2.158500 1_665
O10 Sb0 2.373114 1_554
O11 P4 1.526008 1_555
O11 V3 1.977994 1_565
O12 P1 1.531960 1_555
O12 Sb0 2.158987 1_545
O13 P2 1.568417 1_555
O13 V0 2.100841 1_556
O13 V3 2.125215 1_556
O14 P3 1.561586 1_555
O14 V4 2.078240 1_555
O14 V2 2.221140 1_555
O15 P2 1.531960 1_555
O15 Sb0 2.158987 1_455
O16 P4 1.561586 1_555
O16 V4 2.078240 1_555
O16 V2 2.221140 1_555
O17 P4 1.570724 1_555
O17 V0 2.158499 1_566
O17 Sb0 2.373114 1_455
O18 P5 1.561586 1_555
O18 V4 2.078240 1_555
O18 V2 2.221140 1_555
O19 P5 1.526008 1_555
O19 V3 1.977994 1_556
O20 P5 1.570724 1_555
O20 V0 2.158500 1_656
O20 Sb0 2.373114 1_545
O21 P5 1.539423 1_554
O21 V1 1.895793 1_555
O22 P3 1.539423 1_455
O22 V1 1.895794 1_555
O23 P4 1.539424 1_545
O23 V1 1.895794 1_555
