# generated using pymatgen
data_NaV2O5
_symmetry_space_group_name_H-M   'P 1'
_cell_length_a   3.61899444
_cell_length_b   9.74941315
_cell_length_c   11.83596229
_cell_angle_alpha   90.00000000
_cell_angle_beta   90.00000000
_cell_angle_gamma   90.00000000
_symmetry_Int_Tables_number   1
_chemical_formula_structural   NaV2O5
_chemical_formula_sum   'Na4 V8 O20'
_cell_volume   417.60910947
_cell_formula_units_Z   4
loop_
 _symmetry_equiv_pos_site_id
 _symmetry_equiv_pos_as_xyz
  1  'x, y, z'
loop_
 _atom_site_type_symbol
 _atom_site_label
 _atom_site_symmetry_multiplicity
 _atom_site_fract_x
 _atom_site_fract_y
 _atom_site_fract_z
 _atom_site_occupancy
  Na  Na0  1  0.25000000  0.15443284  0.72953973  1
  Na  Na1  1  0.75000000  0.34556716  0.22953973  1
  Na  Na2  1  0.25000000  0.65443284  0.77046027  1
  Na  Na3  1  0.75000000  0.84556716  0.27046027  1
  V  V0  1  0.25000000  0.06580449  0.08900944  1
  V  V1  1  0.75000000  0.12571296  0.50097893  1
  V  V2  1  0.25000000  0.37428704  0.00097893  1
  V  V3  1  0.75000000  0.43419551  0.58900944  1
  V  V4  1  0.25000000  0.56580449  0.41099056  1
  V  V5  1  0.75000000  0.62571296  0.99902107  1
  V  V6  1  0.25000000  0.87428704  0.49902107  1
  V  V7  1  0.75000000  0.93419551  0.91099056  1
  O  O0  1  0.75000000  0.01532750  0.79014589  1
  O  O1  1  0.75000000  0.06297407  0.03840543  1
  O  O2  1  0.25000000  0.07035444  0.53686653  1
  O  O3  1  0.75000000  0.21484979  0.38591721  1
  O  O4  1  0.25000000  0.24722286  0.11673491  1
  O  O5  1  0.75000000  0.25277714  0.61673491  1
  O  O6  1  0.25000000  0.28515021  0.88591721  1
  O  O7  1  0.75000000  0.42964556  0.03686653  1
  O  O8  1  0.25000000  0.43702593  0.53840543  1
  O  O9  1  0.25000000  0.48467250  0.29014589  1
  O  O10  1  0.75000000  0.51532750  0.70985411  1
  O  O11  1  0.75000000  0.56297407  0.46159457  1
  O  O12  1  0.25000000  0.57035444  0.96313347  1
  O  O13  1  0.75000000  0.71484979  0.11408279  1
  O  O14  1  0.25000000  0.74722286  0.38326509  1
  O  O15  1  0.75000000  0.75277714  0.88326509  1
  O  O16  1  0.25000000  0.78515021  0.61408279  1
  O  O17  1  0.75000000  0.92964556  0.46313347  1
  O  O18  1  0.25000000  0.93702593  0.96159457  1
  O  O19  1  0.25000000  0.98467250  0.20985411  1
loop_
_geom_bond_atom_site_label_1
_geom_bond_atom_site_label_2
_geom_bond_distance
_geom_bond_site_symmetry_2
Na0 O6 2.247196 1_555
Na0 O0 2.372364 1_555
Na0 O0 2.372364 1_455
Na0 O2 2.423322 1_555
Na0 O5 2.444629 1_455
Na0 O5 2.444629 1_555
Na1 O3 2.247196 1_555
Na1 O9 2.372364 1_555
Na1 O9 2.372364 1_655
Na1 O7 2.423322 1_555
Na1 O4 2.444629 1_555
Na1 O4 2.444629 1_655
Na2 O16 2.247196 1_555
Na2 O10 2.372364 1_555
Na2 O10 2.372364 1_455
Na2 O12 2.423322 1_555
Na2 O15 2.444629 1_455
Na2 O15 2.444629 1_555
Na3 O13 2.247196 1_555
Na3 O19 2.372364 1_655
Na3 O19 2.372364 1_555
Na3 O17 2.423322 1_555
Na3 O14 2.444629 1_655
Na3 O14 2.444629 1_555
O0 V7 1.634460 1_545
O1 V0 1.906247 1_555
O1 V0 1.906247 1_655
O1 V7 1.962299 1_544
O2 V1 1.935457 1_555
O2 V1 1.935457 1_455
O2 V6 1.963324 1_545
O3 V1 1.615517 1_555
O4 V0 1.798907 1_555
O4 V2 1.847094 1_555
O5 V3 1.798907 1_555
O5 V1 1.847094 1_555
O6 V2 1.615517 1_556
O7 V2 1.935457 1_555
O7 V2 1.935457 1_655
O7 V5 1.963324 1_554
O8 V3 1.906247 1_555
O8 V3 1.906247 1_455
O8 V4 1.962299 1_555
O9 V4 1.634460 1_555
O10 V3 1.634460 1_555
O11 V4 1.906247 1_555
O11 V4 1.906247 1_655
O11 V3 1.962299 1_555
O12 V5 1.935457 1_555
O12 V5 1.935457 1_455
O12 V2 1.963324 1_556
O13 V5 1.615517 1_554
O14 V4 1.798907 1_555
O14 V6 1.847094 1_555
O15 V7 1.798907 1_555
O15 V5 1.847094 1_555
O16 V6 1.615517 1_555
O17 V6 1.935457 1_655
O17 V6 1.935457 1_555
O17 V1 1.963324 1_565
O18 V7 1.906247 1_455
O18 V7 1.906247 1_555
O18 V0 1.962299 1_566
O19 V0 1.634460 1_565
