# generated using pymatgen
data_Mn3TeO6
_symmetry_space_group_name_H-M   'P 1'
_cell_length_a   5.42591029
_cell_length_b   5.42813659
_cell_length_c   10.02080963
_cell_angle_alpha   74.32805352
_cell_angle_beta   74.32969488
_cell_angle_gamma   60.02355416
_symmetry_Int_Tables_number   1
_chemical_formula_structural   Mn3TeO6
_chemical_formula_sum   'Mn6 Te2 O12'
_cell_volume   242.90144721
_cell_formula_units_Z   2
loop_
 _symmetry_equiv_pos_site_id
 _symmetry_equiv_pos_as_xyz
  1  'x, y, z'
loop_
 _atom_site_type_symbol
 _atom_site_label
 _atom_site_symmetry_multiplicity
 _atom_site_fract_x
 _atom_site_fract_y
 _atom_site_fract_z
 _atom_site_occupancy
  Mn  Mn0  1  0.31662700  0.31654700  0.05027800  1
  Mn  Mn1  1  0.07065800  0.07036700  0.78865800  1
  Mn  Mn2  1  0.57039000  0.57032000  0.28887600  1
  Mn  Mn3  1  0.17934000  0.17934900  0.46265900  1
  Mn  Mn4  1  0.67906200  0.67895400  0.96341400  1
  Mn  Mn5  1  0.81630000  0.81638600  0.55097400  1
  Te  Te0  1  0.42271900  0.42270800  0.73164000  1
  Te  Te1  1  0.92263700  0.92277700  0.23204500  1
  O  O0  1  0.66994300  0.28401200  0.12570500  1
  O  O1  1  0.16988500  0.78426800  0.62564700  1
  O  O2  1  0.28401200  0.92010700  0.12566400  1
  O  O3  1  0.78441600  0.41970700  0.62552100  1
  O  O4  1  0.92067200  0.67057100  0.12532600  1
  O  O5  1  0.41975100  0.17041200  0.62510500  1
  O  O6  1  0.58850100  0.89181000  0.36308400  1
  O  O7  1  0.08848200  0.39210800  0.86282400  1
  O  O8  1  0.15650600  0.58895400  0.36322800  1
  O  O9  1  0.65599900  0.08861300  0.86281600  1
  O  O10  1  0.89152100  0.15633000  0.36350800  1
  O  O11  1  0.39258100  0.65570200  0.86301600  1
loop_
_geom_bond_atom_site_label_1
_geom_bond_atom_site_label_2
_geom_bond_distance
_geom_bond_site_symmetry_2
Mn0 O0 2.156367 1_555
Mn0 O4 2.157886 1_455
Mn0 O2 2.159367 1_545
Mn0 O11 2.356771 1_554
Mn0 O9 2.358134 1_554
Mn0 O7 2.358321 1_554
Mn1 O7 2.126183 1_555
Mn1 O9 2.130257 1_455
Mn1 O11 2.130911 1_545
Mn1 O1 2.330208 1_545
Mn1 O3 2.331144 1_455
Mn1 O5 2.332137 1_555
Mn2 O8 2.125647 1_555
Mn2 O6 2.126008 1_555
Mn2 O10 2.128015 1_555
Mn2 O0 2.331846 1_555
Mn2 O2 2.332680 1_555
Mn2 O4 2.337397 1_555
Mn3 O10 2.131176 1_455
Mn3 O6 2.131329 1_545
Mn3 O8 2.132171 1_555
Mn3 O5 2.322712 1_555
Mn3 O3 2.329129 1_455
Mn3 O1 2.332738 1_545
Mn4 O11 2.133959 1_555
Mn4 O9 2.134399 1_565
Mn4 O7 2.134761 1_655
Mn4 O4 2.324363 1_556
Mn4 O2 2.326995 1_556
Mn4 O0 2.328538 1_556
Mn5 O1 2.154493 1_655
Mn5 O5 2.156446 1_565
Mn5 O3 2.158189 1_555
Mn5 O10 2.359280 1_565
Mn5 O8 2.360631 1_655
Mn5 O6 2.361217 1_555
O0 Te1 1.958093 1_545
O1 Te0 1.957641 1_555
O2 Te1 1.957575 1_455
O3 Te0 1.957718 1_555
O4 Te1 1.956946 1_555
O5 Te0 1.958745 1_555
O6 Te1 1.984619 1_555
O7 Te0 1.984894 1_555
O8 Te1 1.984501 1_455
O9 Te0 1.983919 1_555
O10 Te1 1.984796 1_545
O11 Te0 1.983933 1_555
