# generated using pymatgen
data_LiFe2(BO3)2
_symmetry_space_group_name_H-M   'P 1'
_cell_length_a   5.27942700
_cell_length_b   9.05528919
_cell_length_c   11.39546071
_cell_angle_alpha   113.22936912
_cell_angle_beta   102.28251733
_cell_angle_gamma   90.36345045
_symmetry_Int_Tables_number   1
_chemical_formula_structural   LiFe2(BO3)2
_chemical_formula_sum   'Li4 Fe8 B8 O24'
_cell_volume   486.68039611
_cell_formula_units_Z   4
loop_
 _symmetry_equiv_pos_site_id
 _symmetry_equiv_pos_as_xyz
  1  'x, y, z'
loop_
 _atom_site_type_symbol
 _atom_site_label
 _atom_site_symmetry_multiplicity
 _atom_site_fract_x
 _atom_site_fract_y
 _atom_site_fract_z
 _atom_site_occupancy
  Li  Li0  1  0.73110300  0.39118100  0.12601100  1
  Li  Li1  1  0.51402200  0.84775600  0.33764000  1
  Li  Li2  1  0.73458000  0.08474500  0.84082900  1
  Li  Li3  1  0.22434600  0.58371400  0.83299900  1
  Fe  Fe0  1  0.99257600  0.97283600  0.62009700  1
  Fe  Fe1  1  0.73421400  0.04832800  0.11925600  1
  Fe  Fe2  1  0.50452600  0.51904800  0.36821800  1
  Fe  Fe3  1  0.74894300  0.43335900  0.87192100  1
  Fe  Fe4  1  0.22597000  0.56026500  0.11341700  1
  Fe  Fe5  1  0.48917900  0.47053700  0.62022400  1
  Fe  Fe6  1  0.03612200  0.03164400  0.36932100  1
  Fe  Fe7  1  0.25012800  0.93182000  0.87373900  1
  B  B0  1  0.98419900  0.30979700  0.62661000  1
  B  B1  1  0.73376900  0.72656700  0.12679800  1
  B  B2  1  0.53665500  0.18245500  0.36894300  1
  B  B3  1  0.75900900  0.76662100  0.86971900  1
  B  B4  1  0.48373300  0.80714100  0.62264400  1
  B  B5  1  0.23084500  0.22446300  0.12115200  1
  B  B6  1  0.00366600  0.68744500  0.36958300  1
  B  B7  1  0.26365900  0.26909100  0.87137500  1
  O  O0  1  0.96754900  0.21355200  0.11286300  1
  O  O1  1  0.88655800  0.87019700  0.15338800  1
  O  O2  1  0.83739700  0.57863500  0.08016200  1
  O  O3  1  0.83887500  0.55366500  0.34013200  1
  O  O4  1  0.91835300  0.84191900  0.42008400  1
  O  O5  1  0.75013900  0.16154400  0.31275500  1
  O  O6  1  0.74937300  0.34184200  0.66526400  1
  O  O7  1  0.49382900  0.73710400  0.15165300  1
  O  O8  1  0.37273100  0.37981500  0.17059800  1
  O  O9  1  0.54138500  0.64617700  0.56547700  1
  O  O10  1  0.66015800  0.93227700  0.64727900  1
  O  O11  1  0.36578000  0.09109500  0.07698200  1
  O  O12  1  0.65556500  0.91692100  0.91585100  1
  O  O13  1  0.40787200  0.05897400  0.37698300  1
  O  O14  1  0.45914500  0.34091500  0.42145600  1
  O  O15  1  0.58719900  0.62464700  0.82319300  1
  O  O16  1  0.52948000  0.26513200  0.88922800  1
  O  O17  1  0.25508500  0.67535600  0.34394100  1
  O  O18  1  0.24990400  0.83761700  0.66031600  1
  O  O19  1  0.04296500  0.15207100  0.57430600  1
  O  O20  1  0.15445800  0.43473800  0.64341000  1
  O  O21  1  0.15541200  0.41617700  0.90467900  1
  O  O22  1  0.09789100  0.12412800  0.82373600  1
  O  O23  1  0.01439300  0.75751300  0.86689000  1
loop_
_geom_bond_atom_site_label_1
_geom_bond_atom_site_label_2
_geom_bond_distance
_geom_bond_site_symmetry_2
Li0 O0 2.020608 1_555
Li0 O2 2.069171 1_555
Li0 O8 2.072725 1_555
Li0 O3 2.238072 1_555
Li0 O16 2.459591 1_554
Li1 O13 1.901929 1_565
Li1 O7 1.932506 1_555
Li1 O17 2.100998 1_555
Li1 O4 2.151616 1_555
Li2 O16 1.926322 1_555
Li2 O22 2.012263 1_655
Li2 O10 2.036545 1_545
Li2 O12 2.093537 1_545
Li3 O23 1.891938 1_555
Li3 O15 1.983520 1_555
Li3 O20 1.994757 1_555
Li3 O21 2.048956 1_555
Fe0 O10 1.903582 1_555
Fe0 O19 1.923255 1_665
Fe0 O18 1.937481 1_655
Fe0 O4 2.058291 1_555
Fe0 O22 2.122406 1_665
Fe1 O1 1.943780 1_545
Fe1 O0 1.965215 1_555
Fe1 O11 1.980804 1_555
Fe1 O5 2.014201 1_555
Fe1 O12 2.090343 1_544
Fe2 O3 1.904996 1_555
Fe2 O14 1.963732 1_555
Fe2 O17 1.997923 1_555
Fe2 O9 2.045914 1_555
Fe2 O8 2.056119 1_555
Fe3 O16 2.003432 1_555
Fe3 O21 2.116075 1_655
Fe3 O15 2.147943 1_555
Fe3 O2 2.153608 1_556
Fe3 O6 2.166890 1_555
Fe4 O7 1.978037 1_555
Fe4 O2 2.025584 1_455
Fe4 O8 2.082335 1_555
Fe4 O21 2.160523 1_554
Fe4 O17 2.382664 1_555
Fe5 O20 1.885897 1_555
Fe5 O6 1.923709 1_555
Fe5 O9 1.960887 1_555
Fe5 O14 2.069048 1_555
Fe5 O15 2.121405 1_555
Fe6 O13 1.955674 1_555
Fe6 O5 2.070093 1_455
Fe6 O4 2.143874 1_445
Fe6 O19 2.145027 1_555
Fe6 O1 2.266411 1_445
Fe7 O23 1.970510 1_555
Fe7 O12 2.108988 1_555
Fe7 O11 2.137577 1_566
Fe7 O22 2.146806 1_565
Fe7 O18 2.237141 1_555
B0 O20 1.366623 1_655
B0 O19 1.379928 1_655
B0 O6 1.396880 1_555
B1 O7 1.351605 1_555
B1 O2 1.395571 1_555
B1 O1 1.416297 1_555
B2 O13 1.348555 1_555
B2 O5 1.389325 1_555
B2 O14 1.420841 1_555
B3 O23 1.357759 1_655
B3 O12 1.412143 1_555
B3 O15 1.414065 1_555
B4 O10 1.361911 1_555
B4 O18 1.385908 1_555
B4 O9 1.408021 1_555
B5 O0 1.373303 1_455
B5 O11 1.379603 1_555
B5 O8 1.428061 1_555
B6 O3 1.370680 1_455
B6 O4 1.404984 1_455
B6 O17 1.414514 1_555
B7 O16 1.377343 1_555
B7 O21 1.395635 1_555
B7 O22 1.415947 1_555
