# generated using pymatgen
data_Mn2FeAg2(PO4)3
_symmetry_space_group_name_H-M   'P 1'
_cell_length_a   8.28732952
_cell_length_b   8.28732952
_cell_length_c   9.62652166
_cell_angle_alpha   75.07174032
_cell_angle_beta   75.07174032
_cell_angle_gamma   94.58757500
_symmetry_Int_Tables_number   1
_chemical_formula_structural   Mn2FeAg2(PO4)3
_chemical_formula_sum   'Mn4 Fe2 Ag4 P6 O24'
_cell_volume   609.64209430
_cell_formula_units_Z   2
loop_
 _symmetry_equiv_pos_site_id
 _symmetry_equiv_pos_as_xyz
  1  'x, y, z'
loop_
 _atom_site_type_symbol
 _atom_site_label
 _atom_site_symmetry_multiplicity
 _atom_site_fract_x
 _atom_site_fract_y
 _atom_site_fract_z
 _atom_site_occupancy
  Mn  Mn0  1  0.41341900  0.03565500  0.09859000  1
  Mn  Mn1  1  0.37622400  0.62377600  0.00000000  1
  Mn  Mn2  1  0.96434500  0.58658100  0.90141000  1
  Mn  Mn3  1  0.52677800  0.47322200  0.50000000  1
  Fe  Fe0  1  0.99186100  0.37827500  0.70339100  1
  Fe  Fe1  1  0.62172500  0.00813900  0.29660900  1
  Ag  Ag0  1  0.90819800  0.09180200  0.00000000  1
  Ag  Ag1  1  0.39178700  0.33023800  0.28800700  1
  Ag  Ag2  1  0.10762200  0.89237800  0.50000000  1
  Ag  Ag3  1  0.66976200  0.60821300  0.71199300  1
  P  P0  1  0.80236400  0.41440000  0.22229900  1
  P  P1  1  0.14920900  0.85079100  0.00000000  1
  P  P2  1  0.58560000  0.19763600  0.77770100  1
  P  P3  1  0.45953900  0.74820600  0.63216000  1
  P  P4  1  0.84029100  0.15970900  0.50000000  1
  P  P5  1  0.25179400  0.54046100  0.36784000  1
  O  O0  1  0.35264800  0.87472100  0.97220900  1
  O  O1  1  0.03850600  0.37196300  0.88355300  1
  O  O2  1  0.75100400  0.28746300  0.79138900  1
  O  O3  1  0.28202000  0.23295900  0.04569100  1
  O  O4  1  0.07463600  0.91076900  0.13624100  1
  O  O5  1  0.39614600  0.37107000  0.02343700  1
  O  O6  1  0.62893000  0.60385400  0.97656300  1
  O  O7  1  0.08923100  0.92536400  0.86375900  1
  O  O8  1  0.76704100  0.71798000  0.95430900  1
  O  O9  1  0.86805100  0.34510300  0.38070600  1
  O  O10  1  0.71253700  0.24899600  0.20861100  1
  O  O11  1  0.62803700  0.96149400  0.11644700  1
  O  O12  1  0.39354800  0.06306900  0.30227400  1
  O  O13  1  0.25381800  0.72742400  0.31748800  1
  O  O14  1  0.12527900  0.64735200  0.02779100  1
  O  O15  1  0.22341600  0.46123700  0.53826100  1
  O  O16  1  0.97745300  0.17243500  0.57764500  1
  O  O17  1  0.48782200  0.34137200  0.71141900  1
  O  O18  1  0.65862800  0.51217800  0.28858100  1
  O  O19  1  0.82756500  0.02254700  0.42235500  1
  O  O20  1  0.53876300  0.77658400  0.46173900  1
  O  O21  1  0.27257600  0.74618200  0.68251200  1
  O  O22  1  0.93693100  0.60645200  0.69772600  1
  O  O23  1  0.65489700  0.13194900  0.61929400  1
loop_
_geom_bond_atom_site_label_1
_geom_bond_atom_site_label_2
_geom_bond_distance
_geom_bond_site_symmetry_2
Mn0 O11 1.961807 1_545
Mn0 O12 1.998120 1_555
Mn0 O3 2.064045 1_555
Mn0 O0 2.134668 1_544
Mn1 O14 2.059132 1_555
Mn1 O0 2.059132 1_554
Mn1 O5 2.072471 1_555
Mn1 O6 2.072471 1_554
Mn2 O1 1.961807 1_655
Mn2 O22 1.998120 1_555
Mn2 O8 2.064045 1_555
Mn2 O14 2.134668 1_656
Mn3 O17 1.974743 1_555
Mn3 O18 1.974743 1_555
Mn3 O20 2.435190 1_555
Mn3 O15 2.435190 1_555
Fe0 O1 1.860642 1_655
Fe0 O2 1.956605 1_555
Fe0 O22 1.970624 1_555
Fe0 O15 2.082373 1_655
Fe0 O16 2.344209 1_555
Fe1 O11 1.860642 1_545
Fe1 O10 1.956605 1_555
Fe1 O12 1.970624 1_555
Fe1 O20 2.082373 1_545
Fe1 O19 2.344209 1_555
Ag0 O11 2.334042 1_545
Ag0 O1 2.334042 1_654
Ag0 O7 2.474426 1_644
Ag0 O4 2.474426 1_645
Ag1 O12 2.184244 1_555
Ag1 P5 2.350659 1_555
Ag1 O5 2.471652 1_555
Ag1 O18 2.577009 1_555
Ag1 O10 2.758253 1_555
Ag2 O21 2.613281 1_555
Ag2 O13 2.613281 1_555
Ag2 O22 2.644169 1_455
Ag2 O12 2.644169 1_565
Ag2 O19 2.826296 1_465
Ag2 O16 2.826296 1_465
Ag3 O22 2.184244 1_555
Ag3 P3 2.350659 1_555
Ag3 O6 2.471652 1_555
Ag3 O17 2.577009 1_555
Ag3 O2 2.758253 1_555
O0 P1 1.624861 1_556
O2 P2 1.559126 1_555
O3 O5 1.358890 1_555
O4 P1 1.522010 1_555
O6 O8 1.358890 1_555
O7 P1 1.522010 1_556
O9 P4 1.621910 1_555
O9 P0 1.725687 1_555
O10 P0 1.559126 1_555
O13 P5 1.496881 1_555
O14 P1 1.624861 1_555
O15 P5 1.548993 1_555
O16 P4 1.523513 1_555
O17 P2 1.584887 1_555
O18 P0 1.584887 1_555
O19 P4 1.523513 1_555
O20 P3 1.548993 1_555
O21 P3 1.496881 1_555
O23 P4 1.621910 1_555
O23 P2 1.725687 1_555
