# generated using pymatgen
data_K4Tc2H6C8O21
_symmetry_space_group_name_H-M   'P 1'
_cell_length_a   9.59400100
_cell_length_b   10.11132735
_cell_length_c   12.97084115
_cell_angle_alpha   84.24597862
_cell_angle_beta   87.54362670
_cell_angle_gamma   69.53486275
_symmetry_Int_Tables_number   1
_chemical_formula_structural   K4Tc2H6C8O21
_chemical_formula_sum   'K8 Tc4 H12 C16 O42'
_cell_volume   1172.87965206
_cell_formula_units_Z   2
loop_
 _symmetry_equiv_pos_site_id
 _symmetry_equiv_pos_as_xyz
  1  'x, y, z'
loop_
 _atom_site_type_symbol
 _atom_site_label
 _atom_site_symmetry_multiplicity
 _atom_site_fract_x
 _atom_site_fract_y
 _atom_site_fract_z
 _atom_site_occupancy
  K  K0  1  0.88752300  0.71240300  0.06046800  1
  K  K1  1  0.11247700  0.28759700  0.93953200  1
  K  K2  1  0.58578800  0.59976400  0.63139300  1
  K  K3  1  0.41421200  0.40023600  0.36860700  1
  K  K4  1  0.40126300  0.65591700  0.11023400  1
  K  K5  1  0.59873700  0.34408300  0.88976600  1
  K  K6  1  0.22446200  0.01301100  0.64690000  1
  K  K7  1  0.77553800  0.98698900  0.35310000  1
  Tc  Tc0  1  0.72053200  0.91697700  0.73175400  1
  Tc  Tc1  1  0.27946800  0.08302300  0.26824600  1
  Tc  Tc2  1  0.96859300  0.73850600  0.72200200  1
  Tc  Tc3  1  0.03140700  0.26149400  0.27799800  1
  H  H0  1  0.87135900  0.37067800  0.69788400  1
  H  H1  1  0.12864100  0.62932200  0.30211600  1
  H  H2  1  0.85264000  0.47728700  0.78232200  1
  H  H3  1  0.14736000  0.52271300  0.21767800  1
  H  H4  1  0.81006600  0.64812400  0.30822200  1
  H  H5  1  0.18993400  0.35187600  0.69177800  1
  H  H6  1  0.66888200  0.74174000  0.24783300  1
  H  H7  1  0.33111800  0.25826000  0.75216700  1
  H  H8  1  0.97544000  0.03147500  0.01344900  1
  H  H9  1  0.02456000  0.96852500  0.98655100  1
  H  H10  1  0.94102300  0.00041300  0.70181500  1
  H  H11  1  0.05897700  0.99958700  0.29818500  1
  C  C0  1  0.59170600  0.22144600  0.66568800  1
  C  C1  1  0.40829400  0.77855400  0.33431200  1
  C  C2  1  0.64494100  0.14738700  0.56519300  1
  C  C3  1  0.35505900  0.85261300  0.43480700  1
  C  C4  1  0.45062900  0.92213900  0.83530600  1
  C  C5  1  0.54937100  0.07786100  0.16469400  1
  C  C6  1  0.57319200  0.86641700  0.91919900  1
  C  C7  1  0.42680800  0.13358300  0.08080100  1
  C  C8  1  0.28137400  0.66410900  0.81279400  1
  C  C9  1  0.71862600  0.33589100  0.18720600  1
  C  C10  1  0.23199300  0.61115300  0.91950800  1
  C  C11  1  0.76800700  0.38884700  0.08049200  1
  C  C12  1  0.05181300  0.72368700  0.50086700  1
  C  C13  1  0.94818700  0.27631300  0.49913300  1
  C  C14  1  0.10338200  0.56824700  0.55030300  1
  C  C15  1  0.89661800  0.43175300  0.44969700  1
  O  O0  1  0.61657600  0.13407500  0.74981400  1
  O  O1  1  0.38342400  0.86592500  0.25018600  1
  O  O2  1  0.70796100  0.01026200  0.58070900  1
  O  O3  1  0.29203900  0.98973800  0.41929100  1
  O  O4  1  0.50282600  0.92395900  0.73896200  1
  O  O5  1  0.49717400  0.07604100  0.26103800  1
  O  O6  1  0.70631700  0.86229100  0.88433600  1
  O  O7  1  0.29368300  0.13770900  0.11566400  1
  O  O8  1  0.18587400  0.72643200  0.73804000  1
  O  O9  1  0.81412600  0.27356800  0.26196000  1
  O  O10  1  0.97461700  0.64540700  0.84307500  1
  O  O11  1  0.02538300  0.35459300  0.15692500  1
  O  O12  1  0.00614200  0.81664800  0.56775800  1
  O  O13  1  0.99385800  0.18335200  0.43224200  1
  O  O14  1  0.06195400  0.55369100  0.64736800  1
  O  O15  1  0.93804600  0.44630900  0.35263200  1
  O  O16  1  0.77564500  0.73443600  0.68351800  1
  O  O17  1  0.22435500  0.26556400  0.31648200  1
  O  O18  1  0.91703700  0.94350000  0.76112200  1
  O  O19  1  0.08296300  0.05650000  0.23887800  1
  O  O20  1  0.52986000  0.35126800  0.66416300  1
  O  O21  1  0.47014000  0.64873200  0.33583700  1
  O  O22  1  0.62746100  0.21395600  0.47858000  1
  O  O23  1  0.37253900  0.78604400  0.52142000  1
  O  O24  1  0.31731700  0.96120600  0.85759900  1
  O  O25  1  0.68268300  0.03879400  0.14240100  1
  O  O26  1  0.54880400  0.82900100  0.00906200  1
  O  O27  1  0.45119600  0.17099900  0.99093800  1
  O  O28  1  0.41677000  0.64629600  0.80203400  1
  O  O29  1  0.58323000  0.35370400  0.19796600  1
  O  O30  1  0.27849500  0.47789500  0.93825000  1
  O  O31  1  0.72150500  0.52210500  0.06175000  1
  O  O32  1  0.05559100  0.75240100  0.40537100  1
  O  O33  1  0.94440900  0.24759900  0.59462900  1
  O  O34  1  0.17846900  0.46876900  0.50133600  1
  O  O35  1  0.82153100  0.53123100  0.49866400  1
  O  O36  1  0.81529700  0.40614100  0.76118300  1
  O  O37  1  0.18470300  0.59385900  0.23881700  1
  O  O38  1  0.83524900  0.29602900  0.01963100  1
  O  O39  1  0.16475100  0.70397100  0.98036900  1
  O  O40  1  0.76647800  0.74020300  0.26786800  1
  O  O41  1  0.23352200  0.25979700  0.73213200  1
loop_
_geom_bond_atom_site_label_1
_geom_bond_atom_site_label_2
_geom_bond_distance
_geom_bond_site_symmetry_2
K0 O39 2.789831 1_654
K0 O40 2.884465 1_555
K0 O6 2.888308 1_554
K0 O31 2.893796 1_555
K0 O10 2.982186 1_554
K0 O26 3.121526 1_555
K1 O38 2.789831 1_456
K1 O41 2.884465 1_555
K1 O7 2.888308 1_556
K1 O30 2.893796 1_555
K1 O11 2.982186 1_556
K1 O27 3.121526 1_555
K2 O23 2.604790 1_555
K2 O28 2.667852 1_555
K2 O35 2.714588 1_555
K2 O20 2.736956 1_555
K2 O16 2.766552 1_555
K2 O36 2.856193 1_555
K3 O22 2.604790 1_555
K3 O29 2.667852 1_555
K3 O34 2.714588 1_555
K3 O21 2.736956 1_555
K3 O17 2.766552 1_555
K3 O37 2.856193 1_555
K4 O39 2.759498 1_554
K4 O37 2.810146 1_555
K4 O26 2.810909 1_555
K4 O1 2.885452 1_555
K4 O31 2.960388 1_555
K4 O21 3.015708 1_555
K4 O29 3.069702 1_555
K5 O38 2.759498 1_556
K5 O36 2.810146 1_555
K5 O27 2.810909 1_555
K5 O0 2.885452 1_555
K5 O30 2.960388 1_555
K5 O20 3.015708 1_555
K5 O28 3.069702 1_555
K6 O4 2.783009 1_545
K6 O24 2.851720 1_545
K6 O41 2.858236 1_555
K6 O23 2.864424 1_545
K6 O33 2.946556 1_455
K6 O3 3.010020 1_545
K6 O8 3.155466 1_545
K7 O5 2.783009 1_565
K7 O25 2.851720 1_565
K7 O40 2.858236 1_555
K7 O22 2.864424 1_565
K7 O32 2.946556 1_655
K7 O2 3.010020 1_565
K7 O9 3.155466 1_565
H0 O36 0.989088 1_555
H1 O37 0.989088 1_555
H2 O36 0.974291 1_555
H3 O37 0.974291 1_555
H4 O40 0.982076 1_555
H5 O41 0.982076 1_555
H6 O40 0.976919 1_555
H7 O41 0.976919 1_555
H8 H9 0.754739 1_644
H10 O18 0.982112 1_545
H10 K6 2.824227 1_655
H11 O19 0.982112 1_565
H11 K7 2.824227 1_455
C0 O20 1.235604 1_555
C0 O0 1.307554 1_555
C1 O21 1.235604 1_555
C1 O1 1.307554 1_555
C2 O22 1.236487 1_555
C2 O2 1.302597 1_555
C3 O23 1.236487 1_555
C3 O3 1.302597 1_555
C4 O24 1.230200 1_555
C4 O4 1.327014 1_555
C5 O25 1.230200 1_555
C5 O5 1.327014 1_555
C6 O26 1.227435 1_556
C6 O6 1.324571 1_555
C7 O27 1.227435 1_554
C7 O7 1.324571 1_555
C8 O28 1.251074 1_555
C8 O8 1.314015 1_555
C9 O29 1.251074 1_555
C9 O9 1.314015 1_555
C10 O30 1.263694 1_555
C10 O39 1.265581 1_555
C11 O31 1.263694 1_555
C11 O38 1.265581 1_555
C12 O32 1.245510 1_555
C12 O12 1.292764 1_555
C13 O33 1.245510 1_555
C13 O13 1.292764 1_555
C14 O34 1.231378 1_555
C14 O14 1.313625 1_555
C15 O35 1.231378 1_555
C15 O15 1.313625 1_555
O0 Tc0 2.102475 1_545
O1 Tc1 2.102475 1_565
O2 Tc0 2.076725 1_545
O3 Tc1 2.076725 1_565
O4 Tc0 2.063431 1_555
O5 Tc1 2.063431 1_555
O6 Tc0 2.012813 1_555
O7 Tc1 2.012813 1_555
O8 Tc2 2.063451 1_455
O9 Tc3 2.063451 1_655
O10 Tc2 1.740406 1_555
O11 Tc3 1.740406 1_555
O12 Tc2 2.139405 1_455
O13 Tc3 2.139405 1_655
O14 Tc2 2.085551 1_455
O15 Tc3 2.085551 1_655
O16 Tc0 1.896974 1_555
O16 Tc2 1.952996 1_555
O17 Tc1 1.896974 1_555
O17 Tc3 1.952996 1_555
O18 Tc0 2.051063 1_555
O18 Tc2 2.066621 1_555
O19 Tc1 2.051063 1_555
O19 Tc3 2.066621 1_555
