# generated using pymatgen
data_Li2VCrO4
_symmetry_space_group_name_H-M   'P 1'
_cell_length_a   5.28622195
_cell_length_b   5.75374000
_cell_length_c   5.28615352
_cell_angle_alpha   89.99896376
_cell_angle_beta   66.01585593
_cell_angle_gamma   90.00148374
_symmetry_Int_Tables_number   1
_chemical_formula_structural   Li2VCrO4
_chemical_formula_sum   'Li4 V2 Cr2 O8'
_cell_volume   146.89907171
_cell_formula_units_Z   2
loop_
 _symmetry_equiv_pos_site_id
 _symmetry_equiv_pos_as_xyz
  1  'x, y, z'
loop_
 _atom_site_type_symbol
 _atom_site_label
 _atom_site_symmetry_multiplicity
 _atom_site_fract_x
 _atom_site_fract_y
 _atom_site_fract_z
 _atom_site_occupancy
  Li  Li0  1  0.49998400  0.25000800  0.00001100  1
  Li  Li1  1  0.00002100  0.74998800  0.49999400  1
  Li  Li2  1  0.49997800  0.00223400  0.50001800  1
  Li  Li3  1  0.00002600  0.49776100  0.99998300  1
  V  V0  1  0.00007600  0.99773800  0.99994600  1
  V  V1  1  0.49991300  0.50225600  0.50004800  1
  Cr  Cr0  1  0.50013500  0.75003800  0.00001000  1
  Cr  Cr1  1  0.99985000  0.24998200  0.49997800  1
  O  O0  1  0.77020000  0.24999600  0.27021800  1
  O  O1  1  0.26975200  0.75000100  0.76973200  1
  O  O2  1  0.22973900  0.24999700  0.72974200  1
  O  O3  1  0.73032100  0.75000300  0.23031800  1
  O  O4  1  0.23513300  0.99976600  0.23515200  1
  O  O5  1  0.73516700  0.50023400  0.73515000  1
  O  O6  1  0.26484200  0.50023400  0.26485500  1
  O  O7  1  0.76486200  0.99976300  0.76484600  1
loop_
_geom_bond_atom_site_label_1
_geom_bond_atom_site_label_2
_geom_bond_distance
_geom_bond_site_symmetry_2
Li0 O6 2.040430 1_555
Li0 O4 2.040430 1_545
Li0 O5 2.040460 1_554
Li0 O7 2.040630 1_544
Li0 O0 2.395680 1_555
Li0 O2 2.396083 1_554
Li1 O6 2.038459 1_555
Li1 O4 2.038474 1_555
Li1 O5 2.038483 1_455
Li1 O7 2.038648 1_455
Li1 O3 2.391039 1_455
Li1 O1 2.391451 1_555
Li2 O0 2.034080 1_555
Li2 O2 2.034083 1_555
Li2 O1 2.051665 1_545
Li2 O3 2.051897 1_545
Li2 O4 2.348237 1_545
Li2 O7 2.348241 1_545
Li3 O2 2.034069 1_555
Li3 O0 2.034164 1_456
Li3 O1 2.051766 1_555
Li3 O3 2.051945 1_456
Li3 O6 2.348135 1_556
Li3 O5 2.348153 1_455
Cr0 O7 2.038085 1_554
Cr0 O5 2.038562 1_554
Cr0 O4 2.038779 1_555
Cr0 O6 2.038903 1_555
Cr0 O3 2.041357 1_555
Cr0 O1 2.042097 1_554
Cr1 O0 2.036552 1_555
Cr1 O2 2.037629 1_655
Cr1 O7 2.040107 1_545
Cr1 O5 2.040218 1_555
Cr1 O4 2.040594 1_645
Cr1 O6 2.040766 1_655
O0 V1 2.052589 1_555
O0 V0 2.052615 1_644
O1 V1 2.033382 1_555
O1 V0 2.033422 1_555
O2 V1 2.052008 1_555
O2 V0 2.052027 1_545
O3 V0 2.033785 1_654
O3 V1 2.033830 1_555
O4 V0 2.084695 1_554
O5 V1 2.085107 1_555
O6 V1 2.084699 1_555
O7 V0 2.084921 1_655
