# generated using pymatgen
data_Li4Fe3CoO8
_symmetry_space_group_name_H-M   'P 1'
_cell_length_a   5.95231481
_cell_length_b   5.95231481
_cell_length_c   5.09858763
_cell_angle_alpha   73.25624736
_cell_angle_beta   73.25624736
_cell_angle_gamma   59.33073063
_symmetry_Int_Tables_number   1
_chemical_formula_structural   Li4Fe3CoO8
_chemical_formula_sum   'Li4 Fe3 Co1 O8'
_cell_volume   146.58763728
_cell_formula_units_Z   1
loop_
 _symmetry_equiv_pos_site_id
 _symmetry_equiv_pos_as_xyz
  1  'x, y, z'
loop_
 _atom_site_type_symbol
 _atom_site_label
 _atom_site_symmetry_multiplicity
 _atom_site_fract_x
 _atom_site_fract_y
 _atom_site_fract_z
 _atom_site_occupancy
  Li  Li0  1  0.24615300  0.24615300  0.52575400  1
  Li  Li1  1  0.75384700  0.75384700  0.47424600  1
  Li  Li2  1  0.50000000  0.00000000  0.00000000  1
  Li  Li3  1  0.00000000  0.50000000  0.00000000  1
  Fe  Fe0  1  0.24639300  0.75360700  0.50000000  1
  Fe  Fe1  1  0.75360700  0.24639300  0.50000000  1
  Fe  Fe2  1  0.50000000  0.50000000  0.00000000  1
  Co  Co0  1  0.00000000  0.00000000  0.00000000  1
  O  O0  1  0.87175200  0.35294200  0.76293100  1
  O  O1  1  0.35294200  0.87175200  0.76293100  1
  O  O2  1  0.38424800  0.38424800  0.74172300  1
  O  O3  1  0.88751600  0.88751600  0.75481600  1
  O  O4  1  0.11248400  0.11248400  0.24518400  1
  O  O5  1  0.61575200  0.61575200  0.25827700  1
  O  O6  1  0.64705800  0.12824800  0.23706900  1
  O  O7  1  0.12824800  0.64705800  0.23706900  1
loop_
_geom_bond_atom_site_label_1
_geom_bond_atom_site_label_2
_geom_bond_distance
_geom_bond_site_symmetry_2
Li0 O1 2.068288 1_545
Li0 O0 2.068288 1_455
Li0 O2 2.072711 1_555
Li0 O6 2.283940 1_555
Li0 O7 2.283940 1_555
Li0 O4 2.295614 1_555
Li1 O7 2.068288 1_655
Li1 O6 2.068288 1_565
Li1 O5 2.072711 1_555
Li1 O1 2.283940 1_555
Li1 O0 2.283940 1_555
Li1 O3 2.295614 1_555
Li2 O4 2.139352 1_555
Li2 O3 2.139352 1_544
Li2 O2 2.149349 1_554
Li2 O5 2.149349 1_545
Li2 O6 2.152416 1_555
Li2 O1 2.152416 1_544
Li3 O4 2.139352 1_555
Li3 O3 2.139352 1_454
Li3 O5 2.149349 1_455
Li3 O2 2.149349 1_554
Li3 O7 2.152416 1_555
Li3 O0 2.152416 1_454
Fe0 O3 2.036413 1_455
Fe0 O4 2.036413 1_565
Fe0 O7 2.044989 1_555
Fe0 O1 2.044989 1_555
Fe0 O2 2.051070 1_555
Fe0 O5 2.051070 1_555
Fe1 O3 2.036413 1_545
Fe1 O4 2.036413 1_655
Fe1 O6 2.044989 1_555
Fe1 O0 2.044989 1_555
Fe1 O2 2.051070 1_555
Fe1 O5 2.051070 1_555
Fe2 O5 2.052640 1_555
Fe2 O2 2.052640 1_554
Fe2 O7 2.053335 1_555
Fe2 O6 2.053335 1_555
Fe2 O1 2.053335 1_554
Fe2 O0 2.053335 1_554
Co0 O4 1.970060 1_555
Co0 O3 1.970060 1_444
Co0 O7 1.972228 1_545
Co0 O6 1.972228 1_455
Co0 O0 1.972228 1_454
Co0 O1 1.972228 1_544
