# generated using pymatgen
data_La2B4O9
_symmetry_space_group_name_H-M   'P 1'
_cell_length_a   6.34517627
_cell_length_b   6.71050088
_cell_length_c   7.70349310
_cell_angle_alpha   101.79099920
_cell_angle_beta   96.56899224
_cell_angle_gamma   102.60250196
_symmetry_Int_Tables_number   1
_chemical_formula_structural   La2B4O9
_chemical_formula_sum   'La4 B8 O18'
_cell_volume   308.98261827
_cell_formula_units_Z   2
loop_
 _symmetry_equiv_pos_site_id
 _symmetry_equiv_pos_as_xyz
  1  'x, y, z'
loop_
 _atom_site_type_symbol
 _atom_site_label
 _atom_site_symmetry_multiplicity
 _atom_site_fract_x
 _atom_site_fract_y
 _atom_site_fract_z
 _atom_site_occupancy
  La  La0  1  0.11418044  0.32082931  0.64318550  1
  La  La1  1  0.45792985  0.90665153  0.71870212  1
  La  La2  1  0.54207015  0.09334847  0.28129788  1
  La  La3  1  0.88581956  0.67917069  0.35681450  1
  B  B0  1  0.00682019  0.84438436  0.81826829  1
  B  B1  1  0.27533286  0.66473870  0.01956204  1
  B  B2  1  0.37089709  0.64202486  0.34243477  1
  B  B3  1  0.33723720  0.32984668  0.07536542  1
  B  B4  1  0.66276280  0.67015332  0.92463458  1
  B  B5  1  0.62910291  0.35797514  0.65756523  1
  B  B6  1  0.72466714  0.33526130  0.98043796  1
  B  B7  1  0.99317981  0.15561564  0.18173171  1
  O  O0  1  0.06124552  0.94240598  0.68421787  1
  O  O1  1  0.14552546  0.72304988  0.86910981  1
  O  O2  1  0.23134976  0.43868052  0.96536981  1
  O  O3  1  0.22346978  0.59359634  0.46887976  1
  O  O4  1  0.24209348  0.73204906  0.20489410  1
  O  O5  1  0.18235860  0.14861422  0.11421403  1
  O  O6  1  0.43183773  0.18957940  0.56587953  1
  O  O7  1  0.49309263  0.22553527  0.98644341  1
  O  O8  1  0.54832586  0.53363790  0.75082675  1
  O  O9  1  0.45167414  0.46636210  0.24917325  1
  O  O10  1  0.50690737  0.77446473  0.01355659  1
  O  O11  1  0.56816227  0.81042060  0.43412047  1
  O  O12  1  0.81764140  0.85138578  0.88578597  1
  O  O13  1  0.75790652  0.26795094  0.79510590  1
  O  O14  1  0.77653022  0.40640366  0.53112024  1
  O  O15  1  0.76865024  0.56131948  0.03463019  1
  O  O16  1  0.85447454  0.27695012  0.13089019  1
  O  O17  1  0.93875448  0.05759402  0.31578213  1
loop_
_geom_bond_atom_site_label_1
_geom_bond_atom_site_label_2
_geom_bond_distance
_geom_bond_site_symmetry_2
La0 O2 2.420182 1_555
La0 O14 2.445694 1_455
La0 O6 2.455183 1_555
La0 O3 2.509561 1_555
La0 O0 2.577106 1_545
La0 O13 2.651596 1_455
La0 O17 2.720190 1_455
La0 O8 2.755401 1_555
La0 O1 2.849642 1_555
La1 O11 2.383621 1_555
La1 O6 2.454393 1_565
La1 O0 2.569081 1_555
La1 O3 2.580503 1_555
La1 O7 2.601061 1_565
La1 O10 2.612458 1_556
La1 O1 2.614003 1_555
La1 O12 2.626030 1_555
La1 O13 2.644671 1_565
La1 O8 2.739157 1_555
La2 O6 2.383621 1_555
La2 O11 2.454393 1_545
La2 O17 2.569081 1_555
La2 O14 2.580503 1_555
La2 O10 2.601061 1_545
La2 O7 2.612458 1_554
La2 O16 2.614003 1_555
La2 O5 2.626030 1_555
La2 O4 2.644671 1_545
La2 O9 2.739157 1_555
La3 O15 2.420182 1_555
La3 O3 2.445694 1_655
La3 O11 2.455183 1_555
La3 O14 2.509561 1_555
La3 O17 2.577106 1_565
La3 O4 2.651596 1_655
La3 O0 2.720190 1_655
La3 O9 2.755401 1_555
La3 O16 2.849642 1_555
B0 O12 1.367882 1_455
B0 O0 1.370538 1_555
B0 O1 1.398248 1_555
B1 O2 1.443307 1_554
B1 O4 1.460739 1_555
B1 O10 1.503574 1_555
B1 O1 1.510755 1_554
B2 O3 1.461056 1_555
B2 O9 1.473153 1_555
B2 O11 1.482174 1_555
B2 O4 1.560269 1_555
B3 O2 1.428137 1_554
B3 O9 1.464650 1_555
B3 O7 1.482666 1_554
B3 O5 1.492941 1_555
B4 O15 1.428137 1_556
B4 O8 1.464650 1_555
B4 O10 1.482666 1_556
B4 O12 1.492941 1_555
B5 O14 1.461056 1_555
B5 O8 1.473153 1_555
B5 O6 1.482174 1_555
B5 O13 1.560269 1_555
B6 O15 1.443307 1_556
B6 O13 1.460739 1_555
B6 O7 1.503574 1_555
B6 O16 1.510755 1_556
B7 O5 1.367882 1_655
B7 O17 1.370538 1_555
B7 O16 1.398248 1_555
