# generated using pymatgen
data_Na2HoPCO7
_symmetry_space_group_name_H-M   'P 1'
_cell_length_a   6.97827600
_cell_length_b   5.24057800
_cell_length_c   9.22181172
_cell_angle_alpha   89.04583929
_cell_angle_beta   90.00000000
_cell_angle_gamma   90.00000000
_symmetry_Int_Tables_number   1
_chemical_formula_structural   Na2HoPCO7
_chemical_formula_sum   'Na4 Ho2 P2 C2 O14'
_cell_volume   337.19673300
_cell_formula_units_Z   2
loop_
 _symmetry_equiv_pos_site_id
 _symmetry_equiv_pos_as_xyz
  1  'x, y, z'
loop_
 _atom_site_type_symbol
 _atom_site_label
 _atom_site_symmetry_multiplicity
 _atom_site_fract_x
 _atom_site_fract_y
 _atom_site_fract_z
 _atom_site_occupancy
  Na  Na0  1  0.49853900  0.23211900  0.78791300  1
  Na  Na1  1  0.00146100  0.23211900  0.78791300  1
  Na  Na2  1  0.50146100  0.76788100  0.21208700  1
  Na  Na3  1  0.99853900  0.76788100  0.21208700  1
  Ho  Ho0  1  0.75000000  0.77628700  0.63345400  1
  Ho  Ho1  1  0.25000000  0.22371300  0.36654600  1
  P  P0  1  0.25000000  0.70530500  0.58233600  1
  P  P1  1  0.75000000  0.29469500  0.41766400  1
  C  C0  1  0.75000000  0.73222700  0.93002400  1
  C  C1  1  0.25000000  0.26777300  0.06997600  1
  O  O0  1  0.25000000  0.29904000  0.93446800  1
  O  O1  1  0.75000000  0.95712800  0.86521300  1
  O  O2  1  0.75000000  0.53616900  0.83954500  1
  O  O3  1  0.06781100  0.81012200  0.65595700  1
  O  O4  1  0.43218900  0.81012200  0.65595700  1
  O  O5  1  0.75000000  0.21071500  0.58288700  1
  O  O6  1  0.25000000  0.40747400  0.58696900  1
  O  O7  1  0.75000000  0.59252600  0.41303100  1
  O  O8  1  0.25000000  0.78928500  0.41711300  1
  O  O9  1  0.56781100  0.18987800  0.34404300  1
  O  O10  1  0.93218900  0.18987800  0.34404300  1
  O  O11  1  0.25000000  0.46383100  0.16045500  1
  O  O12  1  0.25000000  0.04287200  0.13478700  1
  O  O13  1  0.75000000  0.70096000  0.06553200  1
loop_
_geom_bond_atom_site_label_1
_geom_bond_atom_site_label_2
_geom_bond_distance
_geom_bond_site_symmetry_2
Na0 O0 2.230110 1_555
Na0 O1 2.372749 1_545
Na0 O2 2.422827 1_555
Na0 O5 2.583337 1_555
Na0 O4 2.583709 1_545
Na0 O6 2.688808 1_555
Na1 O0 2.230110 1_555
Na1 O1 2.372749 1_445
Na1 O2 2.422827 1_455
Na1 O5 2.583337 1_455
Na1 O3 2.583709 1_545
Na1 O6 2.688808 1_555
Na2 O13 2.230110 1_555
Na2 O12 2.372749 1_565
Na2 O11 2.422827 1_555
Na2 O8 2.583337 1_555
Na2 O9 2.583709 1_565
Na2 O7 2.688808 1_555
Na3 O13 2.230110 1_555
Na3 O12 2.372749 1_665
Na3 O11 2.422827 1_655
Na3 O8 2.583337 1_655
Na3 O10 2.583709 1_565
Na3 O7 2.688808 1_555
Ho0 O4 2.234781 1_555
Ho0 O3 2.234781 1_655
Ho0 O2 2.261821 1_555
Ho0 O7 2.263726 1_555
Ho0 O5 2.316301 1_565
Ho0 O1 2.352318 1_555
Ho1 O10 2.234781 1_455
Ho1 O9 2.234781 1_555
Ho1 O11 2.261821 1_555
Ho1 O6 2.263726 1_555
Ho1 O8 2.316301 1_545
Ho1 O12 2.352318 1_555
C0 O13 1.257618 1_556
C0 O1 1.312585 1_555
C0 O2 1.334320 1_555
C1 O0 1.257618 1_554
C1 O12 1.312585 1_555
C1 O11 1.334320 1_555
O3 P0 1.546432 1_555
O4 P0 1.546432 1_555
O5 P1 1.578887 1_555
O6 P0 1.560680 1_555
O7 P1 1.560680 1_555
O8 P0 1.578887 1_555
O9 P1 1.546432 1_555
O10 P1 1.546432 1_555
