# generated using pymatgen
data_Fe13(NiO10)2
_symmetry_space_group_name_H-M   'P 1'
_cell_length_a   6.06415552
_cell_length_b   6.06415552
_cell_length_c   24.94102567
_cell_angle_alpha   82.93700537
_cell_angle_beta   82.93700537
_cell_angle_gamma   59.87117901
_symmetry_Int_Tables_number   1
_chemical_formula_structural   Fe13(NiO10)2
_chemical_formula_sum   'Fe26 Ni4 O40'
_cell_volume   785.24280320
_cell_formula_units_Z   2
loop_
 _symmetry_equiv_pos_site_id
 _symmetry_equiv_pos_as_xyz
  1  'x, y, z'
loop_
 _atom_site_type_symbol
 _atom_site_label
 _atom_site_symmetry_multiplicity
 _atom_site_fract_x
 _atom_site_fract_y
 _atom_site_fract_z
 _atom_site_occupancy
  Fe  Fe0  1  0.69930800  0.20118500  0.89794000  1
  Fe  Fe1  1  0.67497800  0.67497800  0.97440200  1
  Fe  Fe2  1  0.60053700  0.60053700  0.70030000  1
  Fe  Fe3  1  0.00242200  0.00242200  0.00017000  1
  Fe  Fe4  1  0.72853100  0.72853100  0.82521300  1
  Fe  Fe5  1  0.20118500  0.69930800  0.89794000  1
  Fe  Fe6  1  0.59897800  0.09988400  0.69950600  1
  Fe  Fe7  1  0.50059800  0.99751700  0.50172200  1
  Fe  Fe8  1  0.09988400  0.59897800  0.69950600  1
  Fe  Fe9  1  0.07265400  0.07265400  0.77349000  1
  Fe  Fe10  1  0.47510100  0.47510100  0.57542800  1
  Fe  Fe11  1  0.87339900  0.87339900  0.37764200  1
  Fe  Fe12  1  0.99591900  0.99591900  0.50230500  1
  Fe  Fe13  1  0.12570200  0.12570200  0.62527300  1
  Fe  Fe14  1  0.52463200  0.52463200  0.42555700  1
  Fe  Fe15  1  0.92332900  0.92332900  0.22555200  1
  Fe  Fe16  1  0.99751700  0.50059800  0.50172200  1
  Fe  Fe17  1  0.90228200  0.39820100  0.29994100  1
  Fe  Fe18  1  0.39820100  0.90228200  0.29994100  1
  Fe  Fe19  1  0.79835500  0.30173100  0.10089400  1
  Fe  Fe20  1  0.27690600  0.27690600  0.17372000  1
  Fe  Fe21  1  0.39944900  0.39944900  0.29994400  1
  Fe  Fe22  1  0.79795400  0.79795400  0.10126300  1
  Fe  Fe23  1  0.20054100  0.20054100  0.40151300  1
  Fe  Fe24  1  0.32613800  0.32613800  0.02362500  1
  Fe  Fe25  1  0.30173100  0.79835500  0.10089400  1
  Ni  Ni0  1  0.79834700  0.79834700  0.59996000  1
  Ni  Ni1  1  0.20014700  0.20014700  0.89901900  1
  Ni  Ni2  1  0.39889600  0.39889600  0.79954600  1
  Ni  Ni3  1  0.59952600  0.59952600  0.19975100  1
  O  O0  1  0.85369900  0.32932700  0.94880300  1
  O  O1  1  0.86243900  0.86243900  0.94746900  1
  O  O2  1  0.54276300  0.54276300  0.85272200  1
  O  O3  1  0.75688100  0.75688100  0.74755400  1
  O  O4  1  0.35545900  0.35545900  0.94462400  1
  O  O5  1  0.54641500  0.06458900  0.85263000  1
  O  O6  1  0.06458900  0.54641500  0.85263000  1
  O  O7  1  0.95194000  0.46218400  0.65252000  1
  O  O8  1  0.24852700  0.73472600  0.74925900  1
  O  O9  1  0.73472600  0.24852700  0.74925900  1
  O  O10  1  0.32932700  0.85369900  0.94880300  1
  O  O11  1  0.65350400  0.65350400  0.55158900  1
  O  O12  1  0.85526600  0.85526600  0.45671900  1
  O  O13  1  0.04542700  0.04542700  0.85389300  1
  O  O14  1  0.44167300  0.44167300  0.65511800  1
  O  O15  1  0.25751300  0.25751300  0.74831100  1
  O  O16  1  0.94047400  0.94047400  0.65397100  1
  O  O17  1  0.46218400  0.95194000  0.65252000  1
  O  O18  1  0.86847100  0.33494200  0.44879600  1
  O  O19  1  0.33494200  0.86847100  0.44879600  1
  O  O20  1  0.66446500  0.13885900  0.54921800  1
  O  O21  1  0.52038300  0.06643500  0.34576500  1
  O  O22  1  0.13885900  0.66446500  0.54921800  1
  O  O23  1  0.06849300  0.06849300  0.34615700  1
  O  O24  1  0.74007700  0.74007700  0.25330700  1
  O  O25  1  0.55242900  0.55242900  0.34427700  1
  O  O26  1  0.34405400  0.34405400  0.44670400  1
  O  O27  1  0.94372400  0.94372400  0.14846900  1
  O  O28  1  0.14523800  0.14523800  0.54778300  1
  O  O29  1  0.74169800  0.26451000  0.25307600  1
  O  O30  1  0.26451000  0.74169800  0.25307600  1
  O  O31  1  0.66864300  0.13207800  0.04903300  1
  O  O32  1  0.06643500  0.52038300  0.34576500  1
  O  O33  1  0.93823600  0.46628500  0.14871300  1
  O  O34  1  0.46628500  0.93823600  0.14871300  1
  O  O35  1  0.65633000  0.65633000  0.05106500  1
  O  O36  1  0.45629800  0.45629800  0.14991100  1
  O  O37  1  0.24897900  0.24897900  0.25340000  1
  O  O38  1  0.14341700  0.14341700  0.04765600  1
  O  O39  1  0.13207800  0.66864300  0.04903300  1
loop_
_geom_bond_atom_site_label_1
_geom_bond_atom_site_label_2
_geom_bond_distance
_geom_bond_site_symmetry_2
Fe0 O5 2.020329 1_555
Fe0 O2 2.044131 1_555
Fe0 O13 2.049973 1_655
Fe0 O4 2.071543 1_555
Fe0 O0 2.086759 1_555
Fe0 O1 2.088255 1_545
Fe1 O35 1.894206 1_556
Fe1 O10 1.963208 1_555
Fe1 O0 1.963208 1_555
Fe1 O1 1.989364 1_555
Fe2 O17 2.119333 1_555
Fe2 O7 2.119333 1_555
Fe2 O8 2.137632 1_555
Fe2 O9 2.137632 1_555
Fe2 O14 2.142828 1_555
Fe2 O3 2.153773 1_555
Fe3 O38 2.024041 1_555
Fe3 O31 2.057114 1_455
Fe3 O39 2.057114 1_545
Fe3 O0 2.061399 1_454
Fe3 O10 2.061399 1_544
Fe3 O1 2.107384 1_444
Fe4 O3 1.917438 1_555
Fe4 O6 1.933370 1_655
Fe4 O5 1.933370 1_565
Fe4 O2 1.975527 1_555
Fe5 O6 2.020329 1_555
Fe5 O2 2.044131 1_555
Fe5 O13 2.049973 1_565
Fe5 O4 2.071543 1_555
Fe5 O10 2.086759 1_555
Fe5 O1 2.088255 1_455
Fe6 O17 2.027576 1_545
Fe6 O14 2.035213 1_555
Fe6 O16 2.048111 1_545
Fe6 O9 2.073925 1_555
Fe6 O3 2.085475 1_545
Fe6 O15 2.088642 1_555
Fe7 O12 2.100392 1_555
Fe7 O11 2.112418 1_555
Fe7 O28 2.114807 1_565
Fe7 O20 2.125942 1_565
Fe7 O19 2.175624 1_555
Fe7 O26 2.192887 1_565
Fe8 O7 2.027576 1_455
Fe8 O14 2.035213 1_555
Fe8 O16 2.048111 1_455
Fe8 O8 2.073925 1_555
Fe8 O3 2.085475 1_455
Fe8 O15 2.088642 1_555
Fe9 O9 1.911570 1_455
Fe9 O8 1.911570 1_545
Fe9 O15 1.955256 1_555
Fe9 O13 1.985045 1_555
Fe10 O11 1.884935 1_555
Fe10 O22 1.922554 1_555
Fe10 O20 1.922554 1_555
Fe10 O14 1.968662 1_555
Fe11 O12 1.954346 1_555
Fe11 O21 2.063773 1_565
Fe11 O32 2.063773 1_655
Fe11 O23 2.089065 1_665
Fe12 O12 1.988721 1_555
Fe12 O20 2.020508 1_565
Fe12 O22 2.020508 1_655
Fe12 O28 2.062685 1_665
Fe12 O18 2.142167 1_565
Fe12 O19 2.142167 1_655
Fe13 O28 1.914366 1_555
Fe13 O17 1.934461 1_545
Fe13 O7 1.934461 1_455
Fe13 O16 1.976581 1_445
Fe14 O26 1.896365 1_555
Fe14 O19 1.931883 1_555
Fe14 O18 1.931883 1_555
Fe14 O25 2.006701 1_555
Fe15 O27 1.903974 1_555
Fe15 O24 1.952024 1_555
Fe15 O29 1.959769 1_565
Fe15 O30 1.959769 1_655
Fe16 O12 2.100392 1_555
Fe16 O11 2.112418 1_555
Fe16 O28 2.114807 1_655
Fe16 O22 2.125942 1_655
Fe16 O18 2.175624 1_555
Fe16 O26 2.192887 1_655
Fe17 O23 2.009486 1_655
Fe17 O32 2.018557 1_655
Fe17 O24 2.063882 1_555
Fe17 O29 2.068170 1_555
Fe17 O25 2.069775 1_555
Fe17 O37 2.081997 1_655
Fe18 O23 2.009486 1_565
Fe18 O21 2.018557 1_565
Fe18 O24 2.063882 1_555
Fe18 O30 2.068170 1_555
Fe18 O25 2.069775 1_555
Fe18 O37 2.081997 1_565
Fe19 O36 2.093361 1_555
Fe19 O33 2.128137 1_555
Fe19 O27 2.144946 1_545
Fe19 O35 2.158025 1_555
Fe19 O38 2.162603 1_655
Fe19 O31 2.177172 1_555
Fe20 O36 1.894684 1_555
Fe20 O33 1.922724 1_455
Fe20 O34 1.922724 1_545
Fe20 O37 1.967228 1_555
Fe21 O21 2.018375 1_555
Fe21 O32 2.018375 1_555
Fe21 O29 2.068136 1_555
Fe21 O30 2.068136 1_555
Fe21 O25 2.076610 1_555
Fe21 O37 2.090366 1_555
Fe22 O33 2.028326 1_555
Fe22 O34 2.028326 1_555
Fe22 O27 2.060422 1_555
Fe22 O35 2.076528 1_555
Fe22 O31 2.103412 1_565
Fe22 O39 2.103412 1_655
Fe23 O26 2.006979 1_555
Fe23 O19 2.028499 1_545
Fe23 O18 2.028499 1_455
Fe23 O23 2.091903 1_555
Fe23 O21 2.094741 1_555
Fe23 O32 2.094741 1_555
Fe24 O38 1.928907 1_555
Fe24 O39 1.946006 1_555
Fe24 O31 1.946006 1_555
Fe24 O4 1.950640 1_554
Fe25 O36 2.093361 1_555
Fe25 O34 2.128137 1_555
Fe25 O27 2.144946 1_455
Fe25 O35 2.158025 1_555
Fe25 O38 2.162603 1_565
Fe25 O39 2.177172 1_555
Ni0 O11 2.072231 1_555
Ni0 O22 2.109905 1_655
Ni0 O20 2.109905 1_565
Ni0 O7 2.116276 1_555
Ni0 O17 2.116276 1_555
Ni0 O16 2.148743 1_555
Ni1 O5 2.080194 1_555
Ni1 O6 2.080194 1_555
Ni1 O13 2.104863 1_555
Ni1 O4 2.117847 1_555
Ni1 O10 2.124789 1_545
Ni1 O0 2.124789 1_455
Ni2 O9 2.083465 1_555
Ni2 O8 2.083465 1_555
Ni2 O15 2.092814 1_555
Ni2 O5 2.115098 1_555
Ni2 O6 2.115098 1_555
Ni2 O2 2.148127 1_555
Ni3 O36 2.083827 1_555
Ni3 O33 2.106178 1_555
Ni3 O34 2.106178 1_555
Ni3 O30 2.121006 1_555
Ni3 O29 2.121006 1_555
Ni3 O24 2.127522 1_555
