# generated using pymatgen
data_Li4Fe3WO8
_symmetry_space_group_name_H-M   'P 1'
_cell_length_a   6.06093164
_cell_length_b   6.06093164
_cell_length_c   6.06093188
_cell_angle_alpha   61.33163653
_cell_angle_beta   61.33163653
_cell_angle_gamma   61.33163493
_symmetry_Int_Tables_number   1
_chemical_formula_structural   Li4Fe3WO8
_chemical_formula_sum   'Li4 Fe3 W1 O8'
_cell_volume   162.14724578
_cell_formula_units_Z   1
loop_
 _symmetry_equiv_pos_site_id
 _symmetry_equiv_pos_as_xyz
  1  'x, y, z'
loop_
 _atom_site_type_symbol
 _atom_site_label
 _atom_site_symmetry_multiplicity
 _atom_site_fract_x
 _atom_site_fract_y
 _atom_site_fract_z
 _atom_site_occupancy
  Li  Li0  1  0.50000000  0.50000000  0.50000000  1
  Li  Li1  1  0.00000000  0.00000000  0.50000000  1
  Li  Li2  1  0.50000000  0.00000000  0.00000000  1
  Li  Li3  1  0.00000000  0.50000000  0.00000000  1
  Fe  Fe0  1  0.50000000  0.50000000  0.00000000  1
  Fe  Fe1  1  0.00000000  0.50000000  0.50000000  1
  Fe  Fe2  1  0.50000000  0.00000000  0.50000000  1
  W  W0  1  0.00000000  0.00000000  0.00000000  1
  O  O0  1  0.26408800  0.26408800  0.26408800  1
  O  O1  1  0.77186500  0.77186500  0.21747200  1
  O  O2  1  0.21747200  0.77186500  0.77186500  1
  O  O3  1  0.73591200  0.73591200  0.73591200  1
  O  O4  1  0.77186500  0.21747200  0.77186500  1
  O  O5  1  0.22813500  0.22813500  0.78252800  1
  O  O6  1  0.78252800  0.22813500  0.22813500  1
  O  O7  1  0.22813500  0.78252800  0.22813500  1
loop_
_geom_bond_atom_site_label_1
_geom_bond_atom_site_label_2
_geom_bond_distance
_geom_bond_site_symmetry_2
Li0 O7 2.356485 1_555
Li0 O4 2.356485 1_555
Li0 O2 2.356485 1_555
Li0 O6 2.356485 1_555
Li0 O5 2.356485 1_555
Li0 O1 2.356485 1_555
Li1 O7 2.124495 1_545
Li1 O6 2.124495 1_455
Li1 O2 2.124495 1_545
Li1 O4 2.124495 1_455
Li1 O3 2.287967 1_445
Li1 O0 2.287967 1_555
Li2 O5 2.124495 1_554
Li2 O1 2.124495 1_545
Li2 O4 2.124495 1_554
Li2 O7 2.124495 1_545
Li2 O0 2.287967 1_555
Li2 O3 2.287967 1_544
Li3 O5 2.124495 1_554
Li3 O1 2.124495 1_455
Li3 O2 2.124495 1_554
Li3 O6 2.124495 1_455
Li3 O0 2.287967 1_555
Li3 O3 2.287967 1_454
Fe0 O0 2.054439 1_555
Fe0 O3 2.054439 1_554
Fe0 O2 2.222100 1_554
Fe0 O4 2.222100 1_554
Fe0 O6 2.222100 1_555
Fe0 O7 2.222100 1_555
Fe1 O3 2.054439 1_455
Fe1 O0 2.054439 1_555
Fe1 O5 2.222100 1_555
Fe1 O1 2.222100 1_455
Fe1 O7 2.222100 1_555
Fe1 O4 2.222100 1_455
Fe2 O3 2.054439 1_545
Fe2 O0 2.054439 1_555
Fe2 O5 2.222100 1_555
Fe2 O1 2.222100 1_545
Fe2 O2 2.222100 1_545
Fe2 O6 2.222100 1_555
O1 W0 1.974382 1_665
O2 W0 1.974382 1_566
O4 W0 1.974382 1_656
O5 W0 1.974382 1_556
O6 W0 1.974382 1_655
O7 W0 1.974382 1_565
