# generated using pymatgen
data_Na5Ti16O32
_symmetry_space_group_name_H-M   'P 1'
_cell_length_a   5.94886100
_cell_length_b   9.63012295
_cell_length_c   11.38866688
_cell_angle_alpha   90.55587827
_cell_angle_beta   90.04021236
_cell_angle_gamma   90.06371472
_symmetry_Int_Tables_number   1
_chemical_formula_structural   Na5Ti16O32
_chemical_formula_sum   'Na5 Ti16 O32'
_cell_volume   652.40566706
_cell_formula_units_Z   1
loop_
 _symmetry_equiv_pos_site_id
 _symmetry_equiv_pos_as_xyz
  1  'x, y, z'
loop_
 _atom_site_type_symbol
 _atom_site_label
 _atom_site_symmetry_multiplicity
 _atom_site_fract_x
 _atom_site_fract_y
 _atom_site_fract_z
 _atom_site_occupancy
  Na  Na0  1  0.62650500  0.11666000  0.41919800  1
  Na  Na1  1  0.39029200  0.39497800  0.92418400  1
  Na  Na2  1  0.10850600  0.60391100  0.07603400  1
  Na  Na3  1  0.88109500  0.89437600  0.57540000  1
  Na  Na4  1  0.36910400  0.89494300  0.57530000  1
  Ti  Ti0  1  0.87863300  0.01967800  0.87718900  1
  Ti  Ti1  1  0.37173900  0.01648300  0.87850200  1
  Ti  Ti2  1  0.62636100  0.23887500  0.67038000  1
  Ti  Ti3  1  0.12446200  0.23101800  0.65498200  1
  Ti  Ti4  1  0.87483600  0.27023500  0.15387500  1
  Ti  Ti5  1  0.37463800  0.26166500  0.17041900  1
  Ti  Ti6  1  0.11989100  0.48092500  0.37971000  1
  Ti  Ti7  1  0.62991900  0.48608200  0.37851900  1
  Ti  Ti8  1  0.87100500  0.51474300  0.62354200  1
  Ti  Ti9  1  0.37901300  0.51666400  0.62075000  1
  Ti  Ti10  1  0.12376500  0.73853400  0.83144300  1
  Ti  Ti11  1  0.62540700  0.73115900  0.84547600  1
  Ti  Ti12  1  0.87527200  0.76336400  0.33504500  1
  Ti  Ti13  1  0.37523500  0.76255900  0.33452800  1
  Ti  Ti14  1  0.62515700  0.98031600  0.12147200  1
  Ti  Ti15  1  0.12465100  0.98622500  0.12336500  1
  O  O0  1  0.87478400  0.10037000  0.04052700  1
  O  O1  1  0.37520100  0.09975300  0.04039700  1
  O  O2  1  0.62272100  0.12665400  0.81136400  1
  O  O3  1  0.12730700  0.12498100  0.80591000  1
  O  O4  1  0.62577000  0.13628400  0.22757400  1
  O  O5  1  0.12393500  0.13967900  0.22771900  1
  O  O6  1  0.86849500  0.13843200  0.59259700  1
  O  O7  1  0.38061500  0.14019900  0.59208000  1
  O  O8  1  0.61904000  0.35064400  0.09112200  1
  O  O9  1  0.13247800  0.35835300  0.09220700  1
  O  O10  1  0.87696300  0.36116300  0.72716500  1
  O  O11  1  0.37388300  0.36293200  0.72815700  1
  O  O12  1  0.87184300  0.37379600  0.30681800  1
  O  O13  1  0.37770300  0.37391800  0.31172400  1
  O  O14  1  0.62463700  0.39687400  0.53863200  1
  O  O15  1  0.12513000  0.39762400  0.53940000  1
  O  O16  1  0.87565000  0.60226700  0.46175200  1
  O  O17  1  0.37510400  0.60162800  0.46098300  1
  O  O18  1  0.12491100  0.63052000  0.68591600  1
  O  O19  1  0.62571700  0.62934500  0.69147100  1
  O  O20  1  0.62458500  0.63995400  0.27264400  1
  O  O21  1  0.12517000  0.63618200  0.27121200  1
  O  O22  1  0.88096700  0.64848700  0.90759900  1
  O  O23  1  0.36784700  0.64301000  0.90700600  1
  O  O24  1  0.62544000  0.85854100  0.41356600  1
  O  O25  1  0.12505100  0.84928800  0.41470500  1
  O  O26  1  0.87363800  0.86390800  0.76933900  1
  O  O27  1  0.37573900  0.86204200  0.76946700  1
  O  O28  1  0.87745400  0.87366200  0.19125600  1
  O  O29  1  0.37229400  0.87420800  0.19154300  1
  O  O30  1  0.62503500  0.89868700  0.95782200  1
  O  O31  1  0.12440800  0.89903300  0.95822800  1
loop_
_geom_bond_atom_site_label_1
_geom_bond_atom_site_label_2
_geom_bond_distance
_geom_bond_site_symmetry_2
Na0 O4 2.192337 1_555
Na0 O6 2.450180 1_555
Na0 O7 2.462466 1_555
Na0 O24 2.485924 1_545
Na1 O11 2.252781 1_555
Na1 O8 2.379497 1_556
Na1 O23 2.402322 1_555
Na1 O9 2.480796 1_556
Na2 O21 2.243556 1_555
Na2 O9 2.378127 1_555
Na2 O22 2.389521 1_454
Na2 O23 2.498907 1_554
Na3 O26 2.231396 1_555
Na3 O6 2.357820 1_565
Na3 O25 2.373536 1_655
Na3 O24 2.410720 1_555
Na4 O27 2.237255 1_555
Na4 O7 2.368626 1_565
Na4 O25 2.371812 1_555
Na4 O24 2.415276 1_555
O0 Ti0 2.009172 1_554
O0 Ti4 2.073961 1_555
O0 Ti15 2.080765 1_645
O0 Ti14 2.100110 1_545
O1 Ti1 2.003540 1_554
O1 Ti15 2.080398 1_545
O1 Ti14 2.099764 1_545
O1 Ti5 2.139892 1_555
O2 Ti2 1.944239 1_555
O2 Ti1 1.988293 1_555
O2 Ti0 1.989425 1_555
O3 Ti0 1.972325 1_455
O3 Ti1 1.976872 1_555
O3 Ti3 2.007884 1_555
O4 Ti14 1.918565 1_545
O4 Ti5 2.032579 1_555
O4 Ti4 2.140632 1_555
O5 Ti15 1.887384 1_545
O5 Ti5 2.010590 1_555
O5 Ti4 2.122920 1_455
O6 Ti3 1.897784 1_655
O6 Ti2 1.945103 1_555
O7 Ti3 1.895381 1_555
O7 Ti2 1.952947 1_555
O8 Ti4 1.854120 1_555
O8 Ti5 1.917749 1_555
O9 Ti4 1.890140 1_455
O9 Ti5 1.937244 1_555
O10 Ti8 1.901396 1_555
O10 Ti2 2.001880 1_555
O10 Ti3 2.097660 1_655
O11 Ti9 1.929780 1_555
O11 Ti2 2.026385 1_555
O11 Ti3 2.117401 1_555
O12 Ti7 1.973643 1_555
O12 Ti6 1.977158 1_655
O12 Ti4 1.998809 1_555
O13 Ti5 1.929985 1_555
O13 Ti7 1.993853 1_555
O13 Ti6 2.000826 1_555
O14 Ti7 2.023483 1_555
O14 Ti9 2.079709 1_555
O14 Ti8 2.084363 1_555
O14 Ti2 2.147285 1_555
O15 Ti6 1.995066 1_555
O15 Ti3 2.085166 1_555
O15 Ti9 2.104076 1_555
O15 Ti8 2.112018 1_455
O16 Ti8 2.033818 1_555
O16 Ti7 2.064262 1_555
O16 Ti6 2.081842 1_655
O16 Ti12 2.128980 1_555
O17 Ti9 2.002395 1_555
O17 Ti7 2.098443 1_555
O17 Ti6 2.118041 1_555
O17 Ti13 2.125837 1_555
O18 Ti10 1.948193 1_555
O18 Ti8 2.002138 1_455
O18 Ti9 2.006850 1_555
O19 Ti8 1.983509 1_555
O19 Ti9 1.989453 1_555
O19 Ti11 2.001048 1_555
O20 Ti7 1.919732 1_555
O20 Ti13 2.019976 1_555
O20 Ti12 2.029687 1_555
O21 Ti6 1.949119 1_555
O21 Ti13 2.047319 1_555
O21 Ti12 2.055934 1_455
O22 Ti11 1.859514 1_555
O22 Ti10 1.898416 1_655
O23 Ti11 1.889288 1_555
O23 Ti10 1.926579 1_555
O24 Ti12 1.958981 1_555
O24 Ti13 1.964425 1_555
O25 Ti12 1.922614 1_455
O25 Ti13 1.932948 1_555
O26 Ti0 1.929735 1_565
O26 Ti10 2.047224 1_655
O26 Ti11 2.141463 1_555
O27 Ti1 1.928431 1_565
O27 Ti10 2.042924 1_555
O27 Ti11 2.137162 1_555
O28 Ti12 1.960554 1_555
O28 Ti15 1.987377 1_655
O28 Ti14 1.989164 1_555
O29 Ti13 1.960111 1_555
O29 Ti15 1.988728 1_555
O29 Ti14 1.989427 1_555
O30 Ti14 2.015714 1_556
O30 Ti11 2.049341 1_555
O30 Ti1 2.096466 1_565
O30 Ti0 2.120283 1_565
O31 Ti15 2.052168 1_556
O31 Ti1 2.070421 1_565
O31 Ti0 2.088541 1_465
O31 Ti10 2.104882 1_555
