# generated using pymatgen
data_LiCo2(PO4)3
_symmetry_space_group_name_H-M   'P 1'
_cell_length_a   8.39892005
_cell_length_b   8.39892005
_cell_length_c   8.39892001
_cell_angle_alpha   59.34610318
_cell_angle_beta   59.34610318
_cell_angle_gamma   59.34610481
_symmetry_Int_Tables_number   1
_chemical_formula_structural   LiCo2(PO4)3
_chemical_formula_sum   'Li2 Co4 P6 O24'
_cell_volume   412.70734667
_cell_formula_units_Z   2
loop_
 _symmetry_equiv_pos_site_id
 _symmetry_equiv_pos_as_xyz
  1  'x, y, z'
loop_
 _atom_site_type_symbol
 _atom_site_label
 _atom_site_symmetry_multiplicity
 _atom_site_fract_x
 _atom_site_fract_y
 _atom_site_fract_z
 _atom_site_occupancy
  Li  Li0  1  0.00000000  0.00000000  0.00000000  1
  Li  Li1  1  0.50000000  0.50000000  0.50000000  1
  Co  Co0  1  0.85970700  0.85970700  0.85970700  1
  Co  Co1  1  0.64029300  0.64029300  0.64029300  1
  Co  Co2  1  0.35970700  0.35970700  0.35970700  1
  Co  Co3  1  0.14029300  0.14029300  0.14029300  1
  P  P0  1  0.96565600  0.25000000  0.53434400  1
  P  P1  1  0.53434400  0.96565600  0.25000000  1
  P  P2  1  0.25000000  0.53434400  0.96565600  1
  P  P3  1  0.75000000  0.46565600  0.03434400  1
  P  P4  1  0.46565600  0.03434400  0.75000000  1
  P  P5  1  0.03434400  0.75000000  0.46565600  1
  O  O0  1  0.86806200  0.70673800  0.48562000  1
  O  O1  1  0.70673800  0.48562000  0.86806200  1
  O  O2  1  0.94447300  0.07798000  0.73453300  1
  O  O3  1  0.48562000  0.86806200  0.70673800  1
  O  O4  1  0.76546700  0.42202000  0.55552700  1
  O  O5  1  0.98562000  0.20673800  0.36806200  1
  O  O6  1  0.73453300  0.94447300  0.07798000  1
  O  O7  1  0.55552700  0.76546700  0.42202000  1
  O  O8  1  0.42202000  0.55552700  0.76546700  1
  O  O9  1  0.79326200  0.63193800  0.01438000  1
  O  O10  1  0.92202000  0.26546700  0.05552700  1
  O  O11  1  0.63193800  0.01438000  0.79326200  1
  O  O12  1  0.36806200  0.98562000  0.20673800  1
  O  O13  1  0.07798000  0.73453300  0.94447300  1
  O  O14  1  0.20673800  0.36806200  0.98562000  1
  O  O15  1  0.57798000  0.44447300  0.23453300  1
  O  O16  1  0.44447300  0.23453300  0.57798000  1
  O  O17  1  0.26546700  0.05552700  0.92202000  1
  O  O18  1  0.01438000  0.79326200  0.63193800  1
  O  O19  1  0.23453300  0.57798000  0.44447300  1
  O  O20  1  0.51438000  0.13193800  0.29326200  1
  O  O21  1  0.05552700  0.92202000  0.26546700  1
  O  O22  1  0.29326200  0.51438000  0.13193800  1
  O  O23  1  0.13193800  0.29326200  0.51438000  1
loop_
_geom_bond_atom_site_label_1
_geom_bond_atom_site_label_2
_geom_bond_distance
_geom_bond_site_symmetry_2
Li0 O6 2.208510 1_445
Li0 O17 2.208510 1_554
Li0 O2 2.208510 1_454
Li0 O21 2.208510 1_545
Li0 O13 2.208510 1_544
Li0 O10 2.208510 1_455
Li1 O16 2.208510 1_555
Li1 O7 2.208510 1_555
Li1 O15 2.208510 1_555
Li1 O8 2.208510 1_555
Li1 O19 2.208510 1_555
Li1 O4 2.208510 1_555
Co0 O9 1.863844 1_556
Co0 O18 1.863844 1_655
Co0 O11 1.863844 1_565
Co0 O2 1.890851 1_565
Co0 O6 1.890851 1_556
Co0 O13 1.890851 1_655
Co1 O0 1.863844 1_555
Co1 O1 1.863844 1_555
Co1 O3 1.863844 1_555
Co1 O8 1.890851 1_555
Co1 O7 1.890851 1_555
Co1 O4 1.890851 1_555
Co2 O23 1.863844 1_555
Co2 O22 1.863844 1_555
Co2 O20 1.863844 1_555
Co2 O15 1.890851 1_555
Co2 O16 1.890851 1_555
Co2 O19 1.890851 1_555
Co3 O14 1.863844 1_554
Co3 O5 1.863844 1_455
Co3 O12 1.863844 1_545
Co3 O21 1.890851 1_545
Co3 O17 1.890851 1_554
Co3 O10 1.890851 1_455
O0 P5 1.525498 1_655
O1 P3 1.525498 1_556
O2 P0 1.557582 1_555
O3 P4 1.525498 1_565
O4 P0 1.557582 1_555
O5 P0 1.525498 1_555
O6 P1 1.557582 1_555
O7 P1 1.557582 1_555
O8 P2 1.557582 1_555
O9 P3 1.525498 1_555
O10 P3 1.557582 1_555
O11 P4 1.525498 1_555
O12 P1 1.525498 1_555
O13 P2 1.557582 1_555
O14 P2 1.525498 1_555
O15 P3 1.557582 1_555
O16 P4 1.557582 1_555
O17 P4 1.557582 1_555
O18 P5 1.525498 1_555
O19 P5 1.557582 1_555
O20 P1 1.525498 1_545
O21 P5 1.557582 1_555
O22 P2 1.525498 1_554
O23 P0 1.525498 1_455
