# generated using pymatgen
data_Fe3O5F
_symmetry_space_group_name_H-M   'P 1'
_cell_length_a   5.54805082
_cell_length_b   5.54805082
_cell_length_c   7.36891398
_cell_angle_alpha   70.55607194
_cell_angle_beta   70.55607194
_cell_angle_gamma   70.68023284
_symmetry_Int_Tables_number   1
_chemical_formula_structural   Fe3O5F
_chemical_formula_sum   'Fe6 O10 F2'
_cell_volume   195.41479565
_cell_formula_units_Z   2
loop_
 _symmetry_equiv_pos_site_id
 _symmetry_equiv_pos_as_xyz
  1  'x, y, z'
loop_
 _atom_site_type_symbol
 _atom_site_label
 _atom_site_symmetry_multiplicity
 _atom_site_fract_x
 _atom_site_fract_y
 _atom_site_fract_z
 _atom_site_occupancy
  Fe  Fe0  1  0.67585600  0.67585600  0.84703000  1
  Fe  Fe1  1  0.32614500  0.32614500  0.66328000  1
  Fe  Fe2  1  0.65617800  0.65617800  0.32327100  1
  Fe  Fe3  1  0.33075100  0.33075100  0.16282800  1
  Fe  Fe4  1  0.00400200  0.00400200  0.50976500  1
  Fe  Fe5  1  0.00401000  0.00401000  0.99208000  1
  O  O0  1  0.64440500  0.03171600  0.66617300  1
  O  O1  1  0.96873800  0.35748600  0.32939900  1
  O  O2  1  0.22958000  0.22958000  0.95384800  1
  O  O3  1  0.77740700  0.77740700  0.03925000  1
  O  O4  1  0.42860500  0.42860500  0.37780900  1
  O  O5  1  0.10186000  0.10186000  0.70062600  1
  O  O6  1  0.35748600  0.96873800  0.32939900  1
  O  O7  1  0.03171600  0.64440500  0.66617300  1
  O  O8  1  0.69162100  0.30782300  0.00389200  1
  O  O9  1  0.30782300  0.69162100  0.00389200  1
  F  F0  1  0.89478600  0.89478600  0.30263100  1
  F  F1  1  0.56903200  0.56903200  0.62865300  1
loop_
_geom_bond_atom_site_label_1
_geom_bond_atom_site_label_2
_geom_bond_distance
_geom_bond_site_symmetry_2
Fe0 O0 1.969683 1_565
Fe0 O7 1.969683 1_655
Fe0 O8 1.972504 1_556
Fe0 O9 1.972504 1_556
Fe0 O3 1.978348 1_556
Fe1 O4 1.921722 1_555
Fe1 O5 1.934189 1_555
Fe1 O2 1.954774 1_555
Fe1 O0 1.969760 1_555
Fe1 O7 1.969760 1_555
Fe2 O3 1.926147 1_555
Fe2 O4 1.931041 1_555
Fe2 O6 1.963713 1_555
Fe2 O1 1.963713 1_555
Fe3 O8 1.940592 1_555
Fe3 O9 1.940592 1_555
Fe3 O6 1.960956 1_545
Fe3 O1 1.960956 1_455
Fe3 O2 2.088302 1_554
Fe3 O4 2.106965 1_555
Fe4 O7 1.927804 1_545
Fe4 O0 1.927804 1_455
Fe4 O5 1.944062 1_555
Fe4 O6 1.958254 1_545
Fe4 O1 1.958254 1_455
Fe5 O3 1.935433 1_446
Fe5 O2 1.943860 1_555
Fe5 O5 1.960756 1_555
Fe5 O8 1.979085 1_456
Fe5 O9 1.979085 1_546
F0 Fe5 2.089926 1_664
F0 Fe2 2.102273 1_555
F0 Fe4 2.130378 1_665
F1 Fe2 2.058512 1_555
F1 Fe1 2.107269 1_555
F1 Fe0 2.189602 1_555
