# generated using pymatgen
data_Ca2B5H2ClO10
_symmetry_space_group_name_H-M   'P 1'
_cell_length_a   6.33500800
_cell_length_b   6.55040730
_cell_length_c   17.69572184
_cell_angle_alpha   86.14403576
_cell_angle_beta   100.28466079
_cell_angle_gamma   118.81660281
_symmetry_Int_Tables_number   1
_chemical_formula_structural   Ca2B5H2ClO10
_chemical_formula_sum   'Ca6 B15 H6 Cl3 O30'
_cell_volume   632.89658521
_cell_formula_units_Z   3
loop_
 _symmetry_equiv_pos_site_id
 _symmetry_equiv_pos_as_xyz
  1  'x, y, z'
loop_
 _atom_site_type_symbol
 _atom_site_label
 _atom_site_symmetry_multiplicity
 _atom_site_fract_x
 _atom_site_fract_y
 _atom_site_fract_z
 _atom_site_occupancy
  Ca  Ca0  1  0.99678600  0.99663600  0.00141300  1
  Ca  Ca1  1  0.53526200  0.56696700  0.81541400  1
  Ca  Ca2  1  0.33802100  0.00582500  0.66717800  1
  Ca  Ca3  1  0.30164400  0.42982100  0.48431000  1
  Ca  Ca4  1  0.65587600  0.97489500  0.33465400  1
  Ca  Ca5  1  0.18569900  0.53081700  0.15425800  1
  B  B0  1  0.52341900  0.00252200  0.95921600  1
  B  B1  1  0.19592500  0.89572200  0.84943200  1
  B  B2  1  0.62043000  0.11831100  0.82597500  1
  B  B3  1  0.92171900  0.04579800  0.77540300  1
  B  B4  1  0.02052000  0.45079200  0.81844000  1
  B  B5  1  0.86095100  0.01096400  0.62577700  1
  B  B6  1  0.63328100  0.10614000  0.51621500  1
  B  B7  1  0.83463500  0.88175400  0.49292600  1
  B  B8  1  0.20325800  0.94494100  0.44218900  1
  B  B9  1  0.90097000  0.54689700  0.48634300  1
  B  B10  1  0.16903200  0.96149900  0.29262000  1
  B  B11  1  0.84268800  0.85671900  0.18216700  1
  B  B12  1  0.26830400  0.07885000  0.16050700  1
  B  B13  1  0.57112000  0.01142200  0.10922300  1
  B  B14  1  0.66834800  0.41204600  0.15431800  1
  H  H0  1  0.00963200  0.46706300  0.98883400  1
  H  H1  1  0.28219600  0.50885400  0.99643200  1
  H  H2  1  0.87981600  0.56003100  0.66513700  1
  H  H3  1  0.06278300  0.47880900  0.64663700  1
  H  H4  1  0.64604300  0.42525200  0.31957500  1
  H  H5  1  0.92263100  0.49375200  0.31961300  1
  Cl  Cl0  1  0.64671000  0.53056700  0.97410900  1
  Cl  Cl1  1  0.46666300  0.48085800  0.64964900  1
  Cl  Cl2  1  0.30993100  0.49670800  0.31851800  1
  O  O0  1  0.67900400  0.05069300  0.90627100  1
  O  O1  1  0.62774900  0.99319400  0.03301600  1
  O  O2  1  0.28220200  0.94930700  0.93533700  1
  O  O3  1  0.20327600  0.67302100  0.83608000  1
  O  O4  1  0.95736900  0.87965000  0.82946200  1
  O  O5  1  0.37264700  0.07776300  0.80657000  1
  O  O6  1  0.77764500  0.37666100  0.81913700  1
  O  O7  1  0.66482600  0.99155800  0.77003200  1
  O  O8  1  0.09485200  0.29382000  0.80277800  1
  O  O9  1  0.97083200  0.01322100  0.69958000  1
  O  O10  1  0.96984000  0.96781100  0.57186600  1
  O  O11  1  0.67213500  0.06300200  0.60250000  1
  O  O12  1  0.62420700  0.91742900  0.47358800  1
  O  O13  1  0.40866900  0.11890100  0.49651600  1
  O  O14  1  0.86140400  0.32561700  0.50250200  1
  O  O15  1  0.99978600  0.99834800  0.43630100  1
  O  O16  1  0.73360300  0.62221000  0.48820100  1
  O  O17  1  0.28016500  0.96712600  0.36653500  1
  O  O18  1  0.13017700  0.70047400  0.46976000  1
  O  O19  1  0.31914000  0.99770900  0.23909900  1
  O  O20  1  0.92772800  0.90879700  0.26888400  1
  O  O21  1  0.85110500  0.63673700  0.16779000  1
  O  O22  1  0.60359400  0.83973600  0.16157300  1
  O  O23  1  0.02135600  0.04172000  0.14086600  1
  O  O24  1  0.42745000  0.33811500  0.15779500  1
  O  O25  1  0.31448500  0.95908400  0.10286200  1
  O  O26  1  0.74409400  0.25550900  0.13990800  1
  O  O27  1  0.12914700  0.42295500  0.01763300  1
  O  O28  1  0.05140300  0.61158200  0.66316900  1
  O  O29  1  0.76618800  0.36855600  0.32904100  1
loop_
_geom_bond_atom_site_label_1
_geom_bond_atom_site_label_2
_geom_bond_distance
_geom_bond_site_symmetry_2
Ca0 O2 2.465081 1_654
Ca0 O23 2.473386 1_665
Ca0 O1 2.488604 1_555
Ca0 O27 2.519609 1_665
Ca0 O0 2.531688 1_564
Ca0 O25 2.541981 1_655
Ca0 Cl0 2.785865 1_554
Ca1 O6 2.390426 1_555
Ca1 O4 2.441042 1_555
Ca1 O8 2.460522 1_555
Ca1 O3 2.599381 1_555
Ca1 O7 2.605423 1_555
Ca1 Cl0 2.793867 1_555
Ca1 O5 2.860416 1_555
Ca1 Cl1 2.939810 1_555
Ca2 O28 2.330087 1_545
Ca2 O11 2.444059 1_555
Ca2 O5 2.493586 1_555
Ca2 O9 2.516086 1_455
Ca2 O7 2.534902 1_545
Ca2 O10 2.537476 1_445
Ca2 Cl1 2.821106 1_555
Ca3 O16 2.387691 1_555
Ca3 O13 2.423635 1_555
Ca3 O18 2.466694 1_555
Ca3 O14 2.608356 1_455
Ca3 O15 2.626645 1_445
Ca3 O12 2.859802 1_555
Ca3 Cl1 2.909873 1_555
Ca3 Cl2 2.943110 1_555
Ca4 O29 2.323955 1_565
Ca4 O20 2.451577 1_555
Ca4 O12 2.491025 1_555
Ca4 O15 2.514117 1_555
Ca4 O17 2.518876 1_555
Ca4 O19 2.533277 1_555
Ca4 Cl2 2.824022 1_555
Ca5 O24 2.400310 1_555
Ca5 O22 2.422523 1_555
Ca5 O26 2.467276 1_455
Ca5 O27 2.479750 1_555
Ca5 O21 2.579339 1_455
Ca5 O25 2.660460 1_555
Ca5 O23 2.864062 1_555
Ca5 Cl2 2.895431 1_555
B0 O1 1.366033 1_546
B0 O2 1.382363 1_545
B0 O0 1.392473 1_555
B1 O4 1.442491 1_455
B1 O5 1.464644 1_565
B1 O3 1.517173 1_555
B1 O2 1.524118 1_555
B2 O5 1.438860 1_555
B2 O7 1.477686 1_545
B2 O0 1.496110 1_555
B2 O6 1.503706 1_555
B3 O4 1.473217 1_545
B3 O7 1.475014 1_545
B3 O9 1.481280 1_555
B3 O8 1.508458 1_655
B4 O3 1.365378 1_555
B4 O6 1.374412 1_455
B4 O8 1.381125 1_555
B5 O9 1.363252 1_555
B5 O11 1.383791 1_555
B5 O10 1.387471 1_545
B6 O13 1.444585 1_555
B6 O12 1.463472 1_545
B6 O14 1.513163 1_555
B6 O11 1.531862 1_555
B7 O12 1.440635 1_555
B7 O15 1.477519 1_555
B7 O10 1.488607 1_555
B7 O16 1.502687 1_555
B8 O15 1.475333 1_455
B8 O13 1.478915 1_565
B8 O17 1.479604 1_555
B8 O18 1.509172 1_555
B9 O14 1.365714 1_555
B9 O16 1.373864 1_555
B9 O18 1.382316 1_655
B10 O17 1.363993 1_555
B10 O20 1.383439 1_455
B10 O19 1.389772 1_555
B11 O22 1.444057 1_555
B11 O23 1.462117 1_665
B11 O21 1.507378 1_555
B11 O20 1.536034 1_555
B12 O23 1.441447 1_555
B12 O25 1.475483 1_545
B12 O19 1.491992 1_545
B12 O24 1.502888 1_555
B13 O25 1.475096 1_545
B13 O22 1.476517 1_545
B13 O1 1.482298 1_545
B13 O26 1.505758 1_555
B14 O21 1.367274 1_555
B14 O24 1.372708 1_555
B14 O26 1.378358 1_555
H0 O27 0.984751 1_556
H1 O27 0.986402 1_556
H2 O28 0.977192 1_655
H3 O28 0.974363 1_555
H4 O29 0.981778 1_555
H5 O29 0.969389 1_555
