# generated using pymatgen
data_Li2VBO4
_symmetry_space_group_name_H-M   'P 1'
_cell_length_a   4.75933300
_cell_length_b   6.23912500
_cell_length_c   10.35917000
_cell_angle_alpha   90.00000000
_cell_angle_beta   90.00000000
_cell_angle_gamma   90.00000000
_symmetry_Int_Tables_number   1
_chemical_formula_structural   Li2VBO4
_chemical_formula_sum   'Li8 V4 B4 O16'
_cell_volume   307.60595542
_cell_formula_units_Z   4
loop_
 _symmetry_equiv_pos_site_id
 _symmetry_equiv_pos_as_xyz
  1  'x, y, z'
loop_
 _atom_site_type_symbol
 _atom_site_label
 _atom_site_symmetry_multiplicity
 _atom_site_fract_x
 _atom_site_fract_y
 _atom_site_fract_z
 _atom_site_occupancy
  Li  Li0  1  0.75500000  0.00187300  0.15658100  1
  Li  Li1  1  0.75462600  0.22814500  0.92776900  1
  Li  Li2  1  0.75462600  0.27185500  0.42776900  1
  Li  Li3  1  0.75500000  0.49812700  0.65658100  1
  Li  Li4  1  0.25500000  0.50187300  0.34341900  1
  Li  Li5  1  0.25462600  0.72814500  0.57223100  1
  Li  Li6  1  0.25462600  0.77185500  0.07223100  1
  Li  Li7  1  0.25500000  0.99812700  0.84341900  1
  V  V0  1  0.25194900  0.01273200  0.33882800  1
  V  V1  1  0.25194900  0.48726800  0.83882800  1
  V  V2  1  0.75194900  0.51273200  0.16117200  1
  V  V3  1  0.75194900  0.98726800  0.66117200  1
  B  B0  1  0.26640400  0.24580900  0.59020000  1
  B  B1  1  0.26640400  0.25419100  0.09020000  1
  B  B2  1  0.76640400  0.74580900  0.90980000  1
  B  B3  1  0.76640400  0.75419100  0.40980000  1
  O  O0  1  0.16187900  0.04414300  0.65626800  1
  O  O1  1  0.16329900  0.05597600  0.15717000  1
  O  O2  1  0.17058900  0.24879100  0.95199100  1
  O  O3  1  0.57937800  0.24295100  0.59624900  1
  O  O4  1  0.57937800  0.25704900  0.09624900  1
  O  O5  1  0.17058900  0.25120900  0.45199100  1
  O  O6  1  0.16329900  0.44402400  0.65717000  1
  O  O7  1  0.16187900  0.45585700  0.15626800  1
  O  O8  1  0.66187900  0.54414300  0.84373200  1
  O  O9  1  0.66329900  0.55597600  0.34283000  1
  O  O10  1  0.67058900  0.74879100  0.54800900  1
  O  O11  1  0.07937800  0.74295100  0.90375100  1
  O  O12  1  0.07937800  0.75704900  0.40375100  1
  O  O13  1  0.67058900  0.75120900  0.04800900  1
  O  O14  1  0.66329900  0.94402400  0.84283000  1
  O  O15  1  0.66187900  0.95585700  0.34373200  1
loop_
_geom_bond_atom_site_label_1
_geom_bond_atom_site_label_2
_geom_bond_distance
_geom_bond_site_symmetry_2
Li0 O4 1.903667 1_555
Li0 O13 1.967801 1_545
Li0 O1 1.972341 1_655
Li0 O15 2.009357 1_545
Li1 O4 1.942756 1_556
Li1 O2 1.999698 1_655
Li1 O14 2.026201 1_545
Li1 O8 2.199937 1_555
Li2 O3 1.942756 1_555
Li2 O5 1.999698 1_655
Li2 O9 2.026201 1_555
Li2 O15 2.199937 1_545
Li3 O3 1.903667 1_555
Li3 O10 1.967801 1_555
Li3 O6 1.972341 1_655
Li3 O8 2.009357 1_555
Li4 O12 1.903667 1_555
Li4 O5 1.967801 1_555
Li4 O9 1.972341 1_555
Li4 O7 2.009357 1_555
Li5 O12 1.942756 1_555
Li5 O10 1.999698 1_555
Li5 O6 2.026201 1_555
Li5 O0 2.199937 1_565
Li6 O11 1.942756 1_554
Li6 O13 1.999698 1_555
Li6 O1 2.026201 1_565
Li6 O7 2.199937 1_555
Li7 O11 1.903667 1_555
Li7 O2 1.967801 1_565
Li7 O14 1.972341 1_555
Li7 O0 2.009357 1_565
B0 O3 1.490972 1_555
B0 O6 1.500496 1_555
B0 O5 1.502976 1_555
B0 O0 1.516248 1_555
B1 O4 1.490972 1_555
B1 O1 1.500496 1_555
B1 O2 1.502976 1_554
B1 O7 1.516248 1_555
B2 O11 1.490972 1_655
B2 O14 1.500496 1_555
B2 O13 1.502976 1_556
B2 O8 1.516248 1_555
B3 O12 1.490972 1_655
B3 O9 1.500496 1_555
B3 O10 1.502976 1_555
B3 O15 1.516248 1_555
O0 V3 1.983652 1_445
O1 V0 1.947325 1_555
O2 V1 1.933385 1_555
O3 V3 1.916162 1_545
O4 V2 1.916162 1_555
O5 V0 1.933385 1_555
O6 V1 1.947325 1_555
O7 V2 1.983652 1_455
O8 V1 1.983652 1_555
O9 V2 1.947325 1_555
O10 V3 1.933385 1_555
O11 V1 1.916162 1_555
O12 V0 1.916162 1_565
O13 V2 1.933385 1_555
O14 V3 1.947325 1_555
O15 V0 1.983652 1_565
