# generated using pymatgen
data_Li4Cr3CoO8
_symmetry_space_group_name_H-M   'P 1'
_cell_length_a   5.89682684
_cell_length_b   8.89299599
_cell_length_c   6.62107531
_cell_angle_alpha   98.62560721
_cell_angle_beta   116.22169674
_cell_angle_gamma   70.50594291
_symmetry_Int_Tables_number   1
_chemical_formula_structural   Li4Cr3CoO8
_chemical_formula_sum   'Li8 Cr6 Co2 O16'
_cell_volume   293.62438001
_cell_formula_units_Z   2
loop_
 _symmetry_equiv_pos_site_id
 _symmetry_equiv_pos_as_xyz
  1  'x, y, z'
loop_
 _atom_site_type_symbol
 _atom_site_label
 _atom_site_symmetry_multiplicity
 _atom_site_fract_x
 _atom_site_fract_y
 _atom_site_fract_z
 _atom_site_occupancy
  Li  Li0  1  0.00686900  0.49898200  0.49156700  1
  Li  Li1  1  0.49812600  0.00135800  0.99810300  1
  Li  Li2  1  0.49315100  0.50097600  0.50840900  1
  Li  Li3  1  0.00190800  0.99861200  0.00187300  1
  Li  Li4  1  0.74607000  0.75008700  0.75057300  1
  Li  Li5  1  0.24740000  0.25205700  0.25033200  1
  Li  Li6  1  0.75395500  0.24987900  0.24942800  1
  Li  Li7  1  0.25267900  0.74790700  0.74967100  1
  Cr  Cr0  1  0.25010900  0.49998100  0.00010800  1
  Cr  Cr1  1  0.75022500  0.00006600  0.50025000  1
  Cr  Cr2  1  0.49725300  0.25119500  0.74947800  1
  Cr  Cr3  1  0.00280300  0.74870600  0.25054800  1
  Cr  Cr4  1  0.99823500  0.25022700  0.75060300  1
  Cr  Cr5  1  0.50144100  0.74978100  0.24915300  1
  Co  Co0  1  0.24996500  0.99999500  0.49995800  1
  Co  Co1  1  0.74999900  0.50000900  0.99998700  1
  O  O0  1  0.36037400  0.25847200  0.98371600  1
  O  O1  1  0.86257900  0.75856900  0.48380500  1
  O  O2  1  0.13962500  0.74155600  0.01629300  1
  O  O3  1  0.63743300  0.24143100  0.51622700  1
  O  O4  1  0.85812100  0.25867900  0.98363100  1
  O  O5  1  0.36622100  0.75440700  0.48317000  1
  O  O6  1  0.64178900  0.74133100  0.01631800  1
  O  O7  1  0.13367300  0.24561600  0.51677800  1
  O  O8  1  0.37667400  0.49088000  0.75911900  1
  O  O9  1  0.88921500  0.99157400  0.26571700  1
  O  O10  1  0.88195200  0.49242400  0.77584900  1
  O  O11  1  0.38766200  0.99121500  0.26403900  1
  O  O12  1  0.12332200  0.50914200  0.24087300  1
  O  O13  1  0.61078100  0.00846900  0.73430500  1
  O  O14  1  0.61807800  0.50759200  0.22416000  1
  O  O15  1  0.11231800  0.00882100  0.73596200  1
loop_
_geom_bond_atom_site_label_1
_geom_bond_atom_site_label_2
_geom_bond_distance
_geom_bond_site_symmetry_2
Li0 O12 2.080512 1_555
Li0 O8 2.101995 1_555
Li0 O7 2.131165 1_555
Li0 O14 2.175601 1_455
Li0 O1 2.177566 1_455
Li0 O10 2.318557 1_455
Li1 O13 2.140682 1_555
Li1 O11 2.152487 1_546
Li1 O15 2.153388 1_555
Li1 O0 2.157403 1_555
Li1 O6 2.182981 1_546
Li1 O9 2.183333 1_546
Li2 O8 2.080556 1_555
Li2 O12 2.101941 1_555
Li2 O5 2.131704 1_555
Li2 O10 2.175819 1_555
Li2 O3 2.177220 1_555
Li2 O14 2.318519 1_555
Li3 O9 2.140960 1_455
Li3 O15 2.152269 1_564
Li3 O11 2.153343 1_555
Li3 O2 2.156925 1_555
Li3 O13 2.183256 1_464
Li3 O4 2.183330 1_464
Li4 O6 2.123508 1_556
Li4 O5 2.147505 1_555
Li4 O10 2.166025 1_555
Li4 O13 2.168578 1_565
Li4 O1 2.178164 1_555
Li4 O2 2.191183 1_656
Li5 O12 2.156905 1_555
Li5 O0 2.158262 1_554
Li5 O7 2.160259 1_555
Li5 O3 2.173666 1_555
Li5 O4 2.179441 1_454
Li5 O11 2.188491 1_545
Li6 O4 2.123487 1_554
Li6 O7 2.146962 1_655
Li6 O14 2.166442 1_555
Li6 O9 2.167939 1_545
Li6 O3 2.178334 1_555
Li6 O0 2.191162 1_554
Li7 O8 2.156425 1_555
Li7 O2 2.158477 1_556
Li7 O5 2.159999 1_555
Li7 O1 2.173809 1_455
Li7 O6 2.178715 1_556
Li7 O15 2.189097 1_565
Cr0 O12 2.020009 1_555
Cr0 O8 2.020598 1_554
Cr0 O0 2.026756 1_554
Cr0 O2 2.027249 1_555
Cr0 O14 2.033935 1_555
Cr0 O10 2.034985 1_454
Cr1 O3 2.025360 1_555
Cr1 O1 2.026593 1_545
Cr1 O15 2.032381 1_655
Cr1 O13 2.033126 1_555
Cr1 O9 2.033970 1_545
Cr1 O11 2.035606 1_545
Cr2 O8 2.010170 1_555
Cr2 O4 2.021008 1_555
Cr2 O7 2.025313 1_555
Cr2 O0 2.025401 1_555
Cr2 O3 2.028772 1_555
Cr2 O13 2.036560 1_555
Cr3 O12 2.009162 1_555
Cr3 O6 2.021523 1_455
Cr3 O5 2.024752 1_555
Cr3 O2 2.025506 1_555
Cr3 O1 2.028817 1_455
Cr3 O9 2.037749 1_455
Cr4 O7 2.021909 1_655
Cr4 O3 2.024335 1_555
Cr4 O15 2.025366 1_655
Cr4 O0 2.026272 1_655
Cr4 O4 2.029559 1_555
Cr4 O10 2.035881 1_555
Cr5 O5 2.022136 1_555
Cr5 O2 2.024347 1_555
Cr5 O11 2.025660 1_555
Cr5 O1 2.026294 1_555
Cr5 O6 2.029378 1_555
Cr5 O14 2.035736 1_555
Co0 O9 2.022935 1_455
Co0 O13 2.023554 1_565
Co0 O11 2.036487 1_555
Co0 O15 2.036716 1_565
Co0 O5 2.060941 1_555
Co0 O7 2.061226 1_565
Co1 O10 1.941063 1_555
Co1 O14 1.941147 1_556
Co1 O6 2.025315 1_556
Co1 O4 2.025396 1_555
Co1 O8 2.091467 1_555
Co1 O12 2.091503 1_656
