# generated using pymatgen
data_Li2MnF5
_symmetry_space_group_name_H-M   'P 1'
_cell_length_a   5.41666400
_cell_length_b   13.99243700
_cell_length_c   14.39201104
_cell_angle_alpha   87.25997512
_cell_angle_beta   90.00000000
_cell_angle_gamma   90.00000000
_symmetry_Int_Tables_number   1
_chemical_formula_structural   Li2MnF5
_chemical_formula_sum   'Li24 Mn12 F60'
_cell_volume   1089.55695677
_cell_formula_units_Z   12
loop_
 _symmetry_equiv_pos_site_id
 _symmetry_equiv_pos_as_xyz
  1  'x, y, z'
loop_
 _atom_site_type_symbol
 _atom_site_label
 _atom_site_symmetry_multiplicity
 _atom_site_fract_x
 _atom_site_fract_y
 _atom_site_fract_z
 _atom_site_occupancy
  Li  Li0  1  0.27143900  0.96995200  0.41359300  1
  Li  Li1  1  0.22856100  0.96995200  0.91359300  1
  Li  Li2  1  0.65665000  0.91516000  0.28488700  1
  Li  Li3  1  0.84335000  0.91516000  0.78488700  1
  Li  Li4  1  0.25523400  0.76247600  0.38328000  1
  Li  Li5  1  0.24476600  0.76247600  0.88328000  1
  Li  Li6  1  0.78751100  0.69729600  0.25259200  1
  Li  Li7  1  0.71248900  0.69729600  0.75259200  1
  Li  Li8  1  0.28390300  0.63974100  0.07158900  1
  Li  Li9  1  0.21609700  0.63974100  0.57158900  1
  Li  Li10  1  0.69740500  0.56622300  0.45200500  1
  Li  Li11  1  0.80259500  0.56622300  0.95200500  1
  Li  Li12  1  0.19740500  0.43377700  0.04799500  1
  Li  Li13  1  0.30259500  0.43377700  0.54799500  1
  Li  Li14  1  0.78390300  0.36025900  0.42841100  1
  Li  Li15  1  0.71609700  0.36025900  0.92841100  1
  Li  Li16  1  0.28751100  0.30270400  0.24740800  1
  Li  Li17  1  0.21248900  0.30270400  0.74740800  1
  Li  Li18  1  0.75523400  0.23752400  0.11672000  1
  Li  Li19  1  0.74476600  0.23752400  0.61672000  1
  Li  Li20  1  0.15665000  0.08484000  0.21511300  1
  Li  Li21  1  0.34335000  0.08484000  0.71511300  1
  Li  Li22  1  0.77143900  0.03004800  0.08640700  1
  Li  Li23  1  0.72856100  0.03004800  0.58640700  1
  Mn  Mn0  1  0.24599700  0.86344600  0.16513600  1
  Mn  Mn1  1  0.25400300  0.86344600  0.66513600  1
  Mn  Mn2  1  0.74097400  0.79504300  0.99046200  1
  Mn  Mn3  1  0.75902600  0.79504300  0.49046200  1
  Mn  Mn4  1  0.24684000  0.53834200  0.33489600  1
  Mn  Mn5  1  0.25316000  0.53834200  0.83489600  1
  Mn  Mn6  1  0.74684000  0.46165800  0.16510400  1
  Mn  Mn7  1  0.75316000  0.46165800  0.66510400  1
  Mn  Mn8  1  0.24097400  0.20495700  0.50953800  1
  Mn  Mn9  1  0.25902600  0.20495700  0.00953800  1
  Mn  Mn10  1  0.74599700  0.13655400  0.33486400  1
  Mn  Mn11  1  0.75400300  0.13655400  0.83486400  1
  F  F0  1  0.50668800  0.95436600  0.15191200  1
  F  F1  1  0.02286600  0.96631300  0.17195600  1
  F  F2  1  0.99331200  0.95436600  0.65191200  1
  F  F3  1  0.47713400  0.96631300  0.67195600  1
  F  F4  1  0.30234600  0.87163100  0.30810000  1
  F  F5  1  0.19765400  0.87163100  0.80810000  1
  F  F6  1  0.60371400  0.91419600  0.49685700  1
  F  F7  1  0.89628600  0.91419600  0.99685700  1
  F  F8  1  0.07279700  0.85654700  0.48159100  1
  F  F9  1  0.42720300  0.85654700  0.98159100  1
  F  F10  1  0.98019700  0.78089200  0.16596400  1
  F  F11  1  0.51980300  0.78089200  0.66596400  1
  F  F12  1  0.46743200  0.76218000  0.15459500  1
  F  F13  1  0.03256800  0.76218000  0.65459500  1
  F  F14  1  0.74899100  0.79819000  0.34603000  1
  F  F15  1  0.75100900  0.79819000  0.84603000  1
  F  F16  1  0.45003100  0.73239000  0.49194200  1
  F  F17  1  0.90267100  0.67199200  0.50009600  1
  F  F18  1  0.04996900  0.73239000  0.99194200  1
  F  F19  1  0.59732900  0.67199200  0.00009600  1
  F  F20  1  0.09608400  0.65918800  0.32396200  1
  F  F21  1  0.55064700  0.60234300  0.31295800  1
  F  F22  1  0.40391600  0.65918800  0.82396200  1
  F  F23  1  0.94935300  0.60234300  0.81295800  1
  F  F24  1  0.31952700  0.55251200  0.47495400  1
  F  F25  1  0.91138200  0.57841700  0.16794300  1
  F  F26  1  0.18047300  0.55251200  0.97495400  1
  F  F27  1  0.58861800  0.57841700  0.66794300  1
  F  F28  1  0.43843300  0.51961800  0.13669000  1
  F  F29  1  0.06156700  0.51961800  0.63669000  1
  F  F30  1  0.93843300  0.48038200  0.36331000  1
  F  F31  1  0.56156700  0.48038200  0.86331000  1
  F  F32  1  0.41138200  0.42158300  0.33205700  1
  F  F33  1  0.81952700  0.44748800  0.02504600  1
  F  F34  1  0.08861800  0.42158300  0.83205700  1
  F  F35  1  0.68047300  0.44748800  0.52504600  1
  F  F36  1  0.05064700  0.39765700  0.18704200  1
  F  F37  1  0.59608400  0.34081200  0.17603800  1
  F  F38  1  0.44935300  0.39765700  0.68704200  1
  F  F39  1  0.90391600  0.34081200  0.67603800  1
  F  F40  1  0.40267100  0.32800800  0.99990400  1
  F  F41  1  0.95003100  0.26761000  0.00805800  1
  F  F42  1  0.09732900  0.32800800  0.49990400  1
  F  F43  1  0.54996900  0.26761000  0.50805800  1
  F  F44  1  0.24899100  0.20181000  0.15397000  1
  F  F45  1  0.25100900  0.20181000  0.65397000  1
  F  F46  1  0.96743200  0.23782000  0.34540500  1
  F  F47  1  0.53256800  0.23782000  0.84540500  1
  F  F48  1  0.48019700  0.21910800  0.33403600  1
  F  F49  1  0.01980300  0.21910800  0.83403600  1
  F  F50  1  0.57279700  0.14345300  0.01840900  1
  F  F51  1  0.92720300  0.14345300  0.51840900  1
  F  F52  1  0.10371400  0.08580400  0.00314300  1
  F  F53  1  0.39628600  0.08580400  0.50314300  1
  F  F54  1  0.80234600  0.12836900  0.19190000  1
  F  F55  1  0.69765400  0.12836900  0.69190000  1
  F  F56  1  0.52286600  0.03368700  0.32804400  1
  F  F57  1  0.00668800  0.04563400  0.34808800  1
  F  F58  1  0.97713400  0.03368700  0.82804400  1
  F  F59  1  0.49331200  0.04563400  0.84808800  1
loop_
_geom_bond_atom_site_label_1
_geom_bond_atom_site_label_2
_geom_bond_distance
_geom_bond_site_symmetry_2
F0 Mn0 1.904075 1_555
F0 Li22 1.992813 1_565
F0 Li2 2.126720 1_555
F1 Mn0 1.885650 1_555
F1 Li20 1.939064 1_565
F1 Li22 2.015195 1_465
F2 Mn1 1.904075 1_655
F2 Li23 1.992813 1_565
F2 Li3 2.126720 1_555
F3 Mn1 1.885650 1_555
F3 Li21 1.939064 1_565
F3 Li23 2.015195 1_565
F4 Li4 1.846783 1_555
F4 Li2 2.036234 1_555
F4 Mn0 2.088606 1_555
F4 Li0 2.103692 1_555
F5 Li5 1.846783 1_555
F5 Li3 2.036234 1_455
F5 Mn1 2.088606 1_555
F5 Li1 2.103692 1_555
F6 Mn3 1.873653 1_555
F6 Li23 2.223936 1_565
F6 Li0 2.279175 1_555
F7 Mn2 1.873653 1_555
F7 Li22 2.223936 1_566
F7 Li1 2.279175 1_655
F8 Mn3 1.906574 1_455
F8 Li0 2.117768 1_555
F8 Li4 2.211136 1_555
F9 Mn2 1.906574 1_555
F9 Li1 2.117768 1_555
F9 Li5 2.211136 1_555
F10 Mn0 1.845544 1_655
F10 Li6 1.967873 1_555
F11 Mn1 1.845544 1_555
F11 Li7 1.967873 1_555
F12 Mn0 1.868152 1_555
F12 Li8 2.355035 1_555
F12 Li6 2.386821 1_555
F13 Mn1 1.868152 1_555
F13 Li9 2.355035 1_555
F13 Li7 2.386821 1_455
F14 Li2 1.888280 1_555
F14 Li6 2.006607 1_555
F14 Mn3 2.077739 1_555
F15 Li3 1.888280 1_555
F15 Li7 2.006607 1_555
F15 Mn2 2.077739 1_555
F16 Mn3 1.889064 1_555
F16 Li4 1.916583 1_555
F16 Li9 2.111432 1_555
F17 Mn3 1.888476 1_555
F17 Li10 2.000874 1_555
F17 Li9 2.024897 1_655
F18 Mn2 1.889064 1_455
F18 Li5 1.916583 1_555
F18 Li8 2.111432 1_556
F19 Mn2 1.888476 1_554
F19 Li11 2.000874 1_554
F19 Li8 2.024897 1_555
F20 Mn4 1.877603 1_555
F20 Li4 1.917988 1_555
F20 Li6 2.020078 1_455
F21 Mn4 1.892801 1_555
F21 Li6 2.013901 1_555
F21 Li10 2.189824 1_555
F22 Mn5 1.877603 1_555
F22 Li5 1.917988 1_555
F22 Li7 2.020078 1_555
F23 Mn5 1.892801 1_655
F23 Li7 2.013901 1_555
F23 Li11 2.189824 1_555
F24 Li13 1.925278 1_555
F24 Li9 1.974880 1_555
F24 Mn4 2.072595 1_555
F24 Li10 2.080717 1_555
F25 Mn6 1.863204 1_555
F25 Li6 2.212476 1_555
F26 Li12 1.925278 1_556
F26 Li8 1.974880 1_556
F26 Mn5 2.072595 1_555
F26 Li11 2.080717 1_455
F27 Mn7 1.863204 1_555
F27 Li7 2.212476 1_555
F28 Mn6 1.893129 1_555
F28 Li8 2.062291 1_555
F28 Li12 2.218840 1_555
F29 Mn7 1.893129 1_455
F29 Li9 2.062291 1_555
F29 Li13 2.218840 1_555
F30 Mn4 1.893129 1_655
F30 Li14 2.062291 1_555
F30 Li10 2.218840 1_555
F31 Mn5 1.893129 1_555
F31 Li15 2.062291 1_555
F31 Li11 2.218840 1_555
F32 Mn4 1.863204 1_555
F32 Li16 2.212476 1_555
F33 Li11 1.925278 1_554
F33 Li15 1.974880 1_554
F33 Mn6 2.072595 1_555
F33 Li12 2.080717 1_655
F34 Mn5 1.863204 1_555
F34 Li17 2.212476 1_555
F35 Li10 1.925278 1_555
F35 Li14 1.974880 1_555
F35 Mn7 2.072595 1_555
F35 Li13 2.080717 1_555
F36 Mn6 1.892801 1_455
F36 Li16 2.013901 1_555
F36 Li12 2.189824 1_555
F37 Mn6 1.877603 1_555
F37 Li18 1.917988 1_555
F37 Li16 2.020078 1_555
F38 Mn7 1.892801 1_555
F38 Li17 2.013901 1_555
F38 Li13 2.189824 1_555
F39 Mn7 1.877603 1_555
F39 Li19 1.917988 1_555
F39 Li17 2.020078 1_655
F40 Mn9 1.888476 1_556
F40 Li12 2.000874 1_556
F40 Li15 2.024897 1_555
F41 Mn9 1.889064 1_655
F41 Li18 1.916583 1_555
F41 Li15 2.111432 1_554
F42 Mn8 1.888476 1_555
F42 Li13 2.000874 1_555
F42 Li14 2.024897 1_455
F43 Mn8 1.889064 1_555
F43 Li19 1.916583 1_555
F43 Li14 2.111432 1_555
F44 Li20 1.888280 1_555
F44 Li16 2.006607 1_555
F44 Mn9 2.077739 1_555
F45 Li21 1.888280 1_555
F45 Li17 2.006607 1_555
F45 Mn8 2.077739 1_555
F46 Mn10 1.868152 1_555
F46 Li14 2.355035 1_555
F46 Li16 2.386821 1_655
F47 Mn11 1.868152 1_555
F47 Li15 2.355035 1_555
F47 Li17 2.386821 1_555
F48 Mn10 1.845544 1_555
F48 Li16 1.967873 1_555
F49 Mn11 1.845544 1_455
F49 Li17 1.967873 1_555
F50 Mn9 1.906574 1_555
F50 Li22 2.117768 1_555
F50 Li18 2.211136 1_555
F51 Mn8 1.906574 1_655
F51 Li23 2.117768 1_555
F51 Li19 2.211136 1_555
F52 Mn9 1.873653 1_555
F52 Li1 2.223936 1_544
F52 Li22 2.279175 1_455
F53 Mn8 1.873653 1_555
F53 Li0 2.223936 1_545
F53 Li23 2.279175 1_555
F54 Li18 1.846783 1_555
F54 Li20 2.036234 1_655
F54 Mn10 2.088606 1_555
F54 Li22 2.103692 1_555
F55 Li19 1.846783 1_555
F55 Li21 2.036234 1_555
F55 Mn11 2.088606 1_555
F55 Li23 2.103692 1_555
F56 Mn10 1.885650 1_555
F56 Li2 1.939064 1_545
F56 Li0 2.015195 1_545
F57 Mn10 1.904075 1_455
F57 Li0 1.992813 1_545
F57 Li20 2.126720 1_555
F58 Mn11 1.885650 1_555
F58 Li3 1.939064 1_545
F58 Li1 2.015195 1_645
F59 Mn11 1.904075 1_555
F59 Li1 1.992813 1_545
F59 Li21 2.126720 1_555
