# generated using pymatgen
data_TbSi2Rh3
_symmetry_space_group_name_H-M   'P 1'
_cell_length_a   5.49415997
_cell_length_b   5.49414429
_cell_length_c   3.64940435
_cell_angle_alpha   90.00000000
_cell_angle_beta   90.00000000
_cell_angle_gamma   119.99992288
_symmetry_Int_Tables_number   1
_chemical_formula_structural   TbSi2Rh3
_chemical_formula_sum   'Tb1 Si2 Rh3'
_cell_volume   95.40130507
_cell_formula_units_Z   1
loop_
 _symmetry_equiv_pos_site_id
 _symmetry_equiv_pos_as_xyz
  1  'x, y, z'
loop_
 _atom_site_type_symbol
 _atom_site_label
 _atom_site_symmetry_multiplicity
 _atom_site_fract_x
 _atom_site_fract_y
 _atom_site_fract_z
 _atom_site_occupancy
  Tb  Tb0  1  0.00000155  0.00001797  -0.00000000  1
  Si  Si0  1  0.33333348  0.66668374  0.00000000  1
  Si  Si1  1  0.66666803  0.33334565  -0.00000000  1
  Rh  Rh0  1  -0.00000028  0.50000602  0.50000000  1
  Rh  Rh1  1  0.50000685  0.50002525  0.50000000  1
  Rh  Rh2  1  0.49999236  0.00001836  0.50000000  1
loop_
_geom_bond_atom_site_label_1
_geom_bond_atom_site_label_2
_geom_bond_distance
_geom_bond_site_symmetry_2
Si0 Tb0 3.172044 1_555
Si0 Tb0 3.172047 1_565
Si0 Tb0 3.172064 1_665
Si1 Tb0 3.172023 1_655
Si1 Tb0 3.172056 1_555
Si1 Tb0 3.172075 1_665
Rh0 Si1 2.417643 1_456
Rh0 Si1 2.417643 1_455
Rh0 Si0 2.417650 1_555
Rh0 Si0 2.417650 1_556
Rh0 Tb0 3.297819 1_555
Rh0 Tb0 3.297819 1_556
Rh0 Tb0 3.297920 1_566
Rh0 Tb0 3.297920 1_565
Rh1 Si0 2.417641 1_556
Rh1 Si0 2.417641 1_555
Rh1 Si1 2.417669 1_555
Rh1 Si1 2.417669 1_556
Rh1 Tb0 3.297847 1_665
Rh1 Tb0 3.297847 1_666
Rh1 Tb0 3.297904 1_555
Rh1 Tb0 3.297904 1_556
Rh2 Si1 2.417627 1_555
Rh2 Si1 2.417627 1_556
Rh2 Si0 2.417650 1_546
Rh2 Si0 2.417650 1_545
Rh2 Tb0 3.297833 1_555
Rh2 Tb0 3.297833 1_556
Rh2 Tb0 3.297919 1_656
Rh2 Tb0 3.297919 1_655
