# generated using pymatgen
data_Li3Fe8(BO3)8
_symmetry_space_group_name_H-M   'P 1'
_cell_length_a   5.27561100
_cell_length_b   9.12441294
_cell_length_c   11.35148110
_cell_angle_alpha   113.46702352
_cell_angle_beta   102.54336327
_cell_angle_gamma   90.64821678
_symmetry_Int_Tables_number   1
_chemical_formula_structural   Li3Fe8(BO3)8
_chemical_formula_sum   'Li3 Fe8 B8 O24'
_cell_volume   486.33892159
_cell_formula_units_Z   1
loop_
 _symmetry_equiv_pos_site_id
 _symmetry_equiv_pos_as_xyz
  1  'x, y, z'
loop_
 _atom_site_type_symbol
 _atom_site_label
 _atom_site_symmetry_multiplicity
 _atom_site_fract_x
 _atom_site_fract_y
 _atom_site_fract_z
 _atom_site_occupancy
  Li  Li0  1  0.72528300  0.08685700  0.83625000  1
  Li  Li1  1  0.01648800  0.34745100  0.33820300  1
  Li  Li2  1  0.23214700  0.58526600  0.84170100  1
  Fe  Fe0  1  0.98777000  0.97140100  0.62258600  1
  Fe  Fe1  1  0.72594500  0.05051200  0.11638500  1
  Fe  Fe2  1  0.53683800  0.53494800  0.37064800  1
  Fe  Fe3  1  0.74911600  0.43194900  0.87469100  1
  Fe  Fe4  1  0.23306000  0.56250200  0.12233300  1
  Fe  Fe5  1  0.49138200  0.47321700  0.62006100  1
  Fe  Fe6  1  0.01981700  0.01564300  0.37026900  1
  Fe  Fe7  1  0.24888400  0.93368800  0.87518100  1
  B  B0  1  0.97971700  0.30614100  0.62210700  1
  B  B1  1  0.72968600  0.72651000  0.12153600  1
  B  B2  1  0.51481900  0.18925600  0.37213500  1
  B  B3  1  0.76438900  0.76480500  0.87031900  1
  B  B4  1  0.48021600  0.80953300  0.62760500  1
  B  B5  1  0.23768700  0.22990800  0.12661800  1
  B  B6  1  0.03802100  0.68361900  0.37100800  1
  B  B7  1  0.25981700  0.26808900  0.87199900  1
  O  O0  1  0.99003000  0.21173900  0.14468100  1
  O  O1  1  0.86130600  0.88408900  0.17354700  1
  O  O2  1  0.86909400  0.59744800  0.07755800  1
  O  O3  1  0.90973900  0.55682300  0.37426700  1
  O  O4  1  0.95541700  0.83990300  0.42365700  1
  O  O5  1  0.75695400  0.17088700  0.33377600  1
  O  O6  1  0.74769800  0.33873400  0.66018600  1
  O  O7  1  0.47086400  0.70807900  0.11076900  1
  O  O8  1  0.35755400  0.37982200  0.15888000  1
  O  O9  1  0.53828700  0.65334900  0.57571300  1
  O  O10  1  0.65386400  0.93455200  0.64675100  1
  O  O11  1  0.36853600  0.09509400  0.07865300  1
  O  O12  1  0.66352400  0.91571300  0.91964500  1
  O  O13  1  0.36247800  0.06195300  0.36297400  1
  O  O14  1  0.42977700  0.34237800  0.41714000  1
  O  O15  1  0.59175000  0.62449000  0.82406300  1
  O  O16  1  0.51525300  0.25872700  0.87035200  1
  O  O17  1  0.25513400  0.66958400  0.31866200  1
  O  O18  1  0.24793900  0.84341600  0.66717300  1
  O  O19  1  0.03511100  0.14625000  0.56767800  1
  O  O20  1  0.15470400  0.42938400  0.64104400  1
  O  O21  1  0.15533000  0.41582300  0.91420700  1
  O  O22  1  0.08912400  0.12556800  0.82703900  1
  O  O23  1  0.01830300  0.75795100  0.86815800  1
loop_
_geom_bond_atom_site_label_1
_geom_bond_atom_site_label_2
_geom_bond_distance
_geom_bond_site_symmetry_2
Li0 O16 1.891830 1_555
Li0 O22 1.980242 1_655
Li0 O10 1.988888 1_545
Li0 O12 2.177316 1_545
Li1 O3 1.906821 1_455
Li1 O0 2.018664 1_455
Li1 O5 2.080485 1_455
Li1 O14 2.178462 1_555
Li2 O23 1.912096 1_555
Li2 O15 1.993478 1_555
Li2 O21 2.091922 1_555
Li2 O20 2.092964 1_555
Fe0 O10 1.887146 1_555
Fe0 O18 1.925890 1_655
Fe0 O19 1.961306 1_665
Fe0 O4 2.058643 1_555
Fe0 O22 2.120095 1_665
Fe1 O0 1.895062 1_555
Fe1 O11 1.926022 1_555
Fe1 O1 1.960840 1_545
Fe1 O12 2.022995 1_544
Fe1 O5 2.232628 1_555
Fe2 O3 1.964994 1_555
Fe2 O17 2.074563 1_555
Fe2 O14 2.128488 1_555
Fe2 O9 2.138923 1_555
Fe2 O8 2.224611 1_555
Fe3 O16 1.972367 1_555
Fe3 O21 2.111300 1_655
Fe3 O2 2.135346 1_556
Fe3 O15 2.176198 1_555
Fe3 O6 2.234938 1_555
Fe4 O7 1.878363 1_555
Fe4 O2 1.940613 1_455
Fe4 O8 1.959343 1_555
Fe4 O17 2.021242 1_555
Fe4 O21 2.142296 1_554
Fe5 O20 1.901335 1_555
Fe5 O9 1.928722 1_555
Fe5 O6 1.938259 1_555
Fe5 O14 2.076690 1_555
Fe5 O15 2.110280 1_555
Fe6 O13 1.878553 1_555
Fe6 O4 1.976127 1_445
Fe6 O1 2.039150 1_445
Fe6 O19 2.059284 1_555
Fe6 O5 2.088895 1_455
Fe7 O23 1.967042 1_555
Fe7 O11 2.130417 1_566
Fe7 O12 2.158981 1_555
Fe7 O22 2.160932 1_565
Fe7 O18 2.167844 1_555
B0 O20 1.364102 1_655
B0 O6 1.381751 1_555
B0 O19 1.402046 1_655
B1 O7 1.346701 1_555
B1 O2 1.373956 1_555
B1 O1 1.421723 1_555
B2 O13 1.361007 1_555
B2 O14 1.399845 1_555
B2 O5 1.427511 1_555
B3 O23 1.346795 1_655
B3 O15 1.405294 1_555
B3 O12 1.422886 1_555
B4 O10 1.371184 1_555
B4 O9 1.375282 1_555
B4 O18 1.391395 1_555
B5 O8 1.373303 1_555
B5 O0 1.383876 1_455
B5 O11 1.391102 1_555
B6 O3 1.350976 1_455
B6 O17 1.385557 1_555
B6 O4 1.424426 1_455
B7 O16 1.354953 1_555
B7 O21 1.402722 1_555
B7 O22 1.416959 1_555
