# generated using pymatgen
data_Li2FeSiO4
_symmetry_space_group_name_H-M   'P 1'
_cell_length_a   5.04176700
_cell_length_b   6.33468600
_cell_length_c   10.76219800
_cell_angle_alpha   90.00000000
_cell_angle_beta   90.00000000
_cell_angle_gamma   90.00000000
_symmetry_Int_Tables_number   1
_chemical_formula_structural   Li2FeSiO4
_chemical_formula_sum   'Li8 Fe4 Si4 O16'
_cell_volume   343.72319628
_cell_formula_units_Z   4
loop_
 _symmetry_equiv_pos_site_id
 _symmetry_equiv_pos_as_xyz
  1  'x, y, z'
loop_
 _atom_site_type_symbol
 _atom_site_label
 _atom_site_symmetry_multiplicity
 _atom_site_fract_x
 _atom_site_fract_y
 _atom_site_fract_z
 _atom_site_occupancy
  Li  Li0  1  0.68326700  0.99872500  0.41235100  1
  Li  Li1  1  0.31673300  0.00127500  0.58764900  1
  Li  Li2  1  0.18326700  0.49872500  0.08764900  1
  Li  Li3  1  0.81673300  0.50127500  0.91235100  1
  Li  Li4  1  0.68326700  0.50127500  0.41235100  1
  Li  Li5  1  0.31673300  0.49872500  0.58764900  1
  Li  Li6  1  0.81673300  0.99872500  0.91235100  1
  Li  Li7  1  0.18326700  0.00127500  0.08764900  1
  Fe  Fe0  1  0.18559200  0.75000000  0.33813100  1
  Fe  Fe1  1  0.31440800  0.75000000  0.83813100  1
  Fe  Fe2  1  0.68559200  0.25000000  0.16186900  1
  Fe  Fe3  1  0.81440800  0.25000000  0.66186900  1
  Si  Si0  1  0.67463700  0.75000000  0.16467500  1
  Si  Si1  1  0.82536300  0.75000000  0.66467500  1
  Si  Si2  1  0.32536300  0.25000000  0.83532500  1
  Si  Si3  1  0.17463700  0.25000000  0.33532500  1
  O  O0  1  0.78580800  0.96444100  0.09326500  1
  O  O1  1  0.71419200  0.96444100  0.59326500  1
  O  O2  1  0.34707600  0.75000000  0.16101800  1
  O  O3  1  0.72615700  0.75000000  0.81185300  1
  O  O4  1  0.77384300  0.75000000  0.31185300  1
  O  O5  1  0.15292400  0.75000000  0.66101800  1
  O  O6  1  0.78580800  0.53555900  0.09326500  1
  O  O7  1  0.71419200  0.53555900  0.59326500  1
  O  O8  1  0.21419200  0.46444100  0.90673500  1
  O  O9  1  0.28580800  0.46444100  0.40673500  1
  O  O10  1  0.22615700  0.25000000  0.68814700  1
  O  O11  1  0.84707600  0.25000000  0.33898200  1
  O  O12  1  0.65292400  0.25000000  0.83898200  1
  O  O13  1  0.27384300  0.25000000  0.18814700  1
  O  O14  1  0.21419200  0.03555900  0.90673500  1
  O  O15  1  0.28580800  0.03555900  0.40673500  1
loop_
_geom_bond_atom_site_label_1
_geom_bond_atom_site_label_2
_geom_bond_distance
_geom_bond_site_symmetry_2
Li0 O11 1.959397 1_565
Li0 O4 1.964906 1_555
Li0 O1 1.965302 1_555
Li0 O15 2.018340 1_565
Li1 O5 1.959397 1_545
Li1 O10 1.964906 1_555
Li1 O15 1.965302 1_555
Li1 O1 2.018340 1_545
Li2 O2 1.959397 1_555
Li2 O13 1.964906 1_555
Li2 O8 1.965302 1_554
Li2 O6 2.018340 1_455
Li3 O12 1.959397 1_555
Li3 O3 1.964906 1_555
Li3 O6 1.965302 1_556
Li3 O8 2.018340 1_655
Li4 O11 1.959397 1_555
Li4 O4 1.964906 1_555
Li4 O7 1.965302 1_555
Li4 O9 2.018340 1_555
Li5 O5 1.959397 1_555
Li5 O10 1.964906 1_555
Li5 O9 1.965302 1_555
Li5 O7 2.018340 1_555
Li6 O12 1.959397 1_565
Li6 O3 1.964906 1_555
Li6 O0 1.965302 1_556
Li6 O14 2.018340 1_665
Li7 O2 1.959397 1_545
Li7 O13 1.964906 1_555
Li7 O14 1.965302 1_554
Li7 O0 2.018340 1_445
Fe0 O15 2.018078 1_565
Fe0 O9 2.018078 1_555
Fe0 O2 2.072722 1_555
Fe0 O4 2.095118 1_455
Fe1 O14 2.018078 1_565
Fe1 O8 2.018078 1_555
Fe1 O5 2.072722 1_555
Fe1 O3 2.095118 1_555
Fe2 O0 2.018078 1_545
Fe2 O6 2.018078 1_555
Fe2 O11 2.072722 1_555
Fe2 O13 2.095118 1_555
Fe3 O7 2.018078 1_555
Fe3 O1 2.018078 1_545
Fe3 O12 2.072722 1_555
Fe3 O10 2.095118 1_655
O0 Si0 1.658339 1_555
O1 Si1 1.658339 1_555
O2 Si0 1.651955 1_555
O3 Si1 1.661054 1_555
O4 Si0 1.661054 1_555
O5 Si1 1.651955 1_455
O6 Si0 1.658339 1_555
O7 Si1 1.658339 1_555
O8 Si2 1.658339 1_555
O9 Si3 1.658339 1_555
O10 Si2 1.661054 1_555
O11 Si3 1.651955 1_655
O12 Si2 1.651955 1_555
O13 Si3 1.661054 1_555
O14 Si2 1.658339 1_555
O15 Si3 1.658339 1_555
