# generated using pymatgen
data_LaClO2
_symmetry_space_group_name_H-M   'P 1'
_cell_length_a   3.57494000
_cell_length_b   6.86866100
_cell_length_c   7.07955431
_cell_angle_alpha   80.29994018
_cell_angle_beta   90.00000000
_cell_angle_gamma   90.00000000
_symmetry_Int_Tables_number   1
_chemical_formula_structural   LaClO2
_chemical_formula_sum   'La2 Cl2 O4'
_cell_volume   171.35349428
_cell_formula_units_Z   2
loop_
 _symmetry_equiv_pos_site_id
 _symmetry_equiv_pos_as_xyz
  1  'x, y, z'
loop_
 _atom_site_type_symbol
 _atom_site_label
 _atom_site_symmetry_multiplicity
 _atom_site_fract_x
 _atom_site_fract_y
 _atom_site_fract_z
 _atom_site_occupancy
  La  La0  1  0.00000000  0.86771500  0.28809100  1
  La  La1  1  0.00000000  0.13228500  0.71190900  1
  Cl  Cl0  1  0.50000000  0.56171900  0.24896100  1
  Cl  Cl1  1  0.50000000  0.43828100  0.75103900  1
  O  O0  1  0.50000000  0.03934200  0.09156800  1
  O  O1  1  0.50000000  0.96065800  0.90843200  1
  O  O2  1  0.50000000  0.89092700  0.54042400  1
  O  O3  1  0.50000000  0.10907300  0.45957600  1
loop_
_geom_bond_atom_site_label_1
_geom_bond_atom_site_label_2
_geom_bond_distance
_geom_bond_site_symmetry_2
La0 O0 2.442896 1_465
La0 O0 2.442896 1_565
La0 O2 2.551017 1_555
La0 O2 2.551017 1_455
La0 O3 2.845255 1_565
La0 O3 2.845255 1_465
La1 O1 2.442896 1_545
La1 O1 2.442896 1_445
La1 O3 2.551017 1_455
La1 O3 2.551017 1_555
La1 O2 2.845255 1_545
La1 O2 2.845255 1_445
Cl0 La0 2.808111 1_555
Cl0 La0 2.808111 1_655
Cl1 La1 2.808111 1_555
Cl1 La1 2.808111 1_655
O0 O1 1.486332 1_544
O2 O3 1.511198 1_565
