# generated using pymatgen
data_Li2Fe(CoO3)2
_symmetry_space_group_name_H-M   'P 1'
_cell_length_a   4.95985468
_cell_length_b   9.99100710
_cell_length_c   4.92725330
_cell_angle_alpha   90.01401928
_cell_angle_beta   59.78824537
_cell_angle_gamma   90.00015263
_symmetry_Int_Tables_number   1
_chemical_formula_structural   Li2Fe(CoO3)2
_chemical_formula_sum   'Li4 Fe2 Co4 O12'
_cell_volume   211.00030084
_cell_formula_units_Z   2
loop_
 _symmetry_equiv_pos_site_id
 _symmetry_equiv_pos_as_xyz
  1  'x, y, z'
loop_
 _atom_site_type_symbol
 _atom_site_label
 _atom_site_symmetry_multiplicity
 _atom_site_fract_x
 _atom_site_fract_y
 _atom_site_fract_z
 _atom_site_occupancy
  Li  Li0  1  0.16352800  0.75119700  0.50030900  1
  Li  Li1  1  0.33614000  0.24880800  0.50029100  1
  Li  Li2  1  0.66356700  0.74882700  0.50031700  1
  Li  Li3  1  0.83618600  0.25120500  0.50025600  1
  Fe  Fe0  1  0.00038600  0.99988100  0.99917800  1
  Fe  Fe1  1  0.50045000  0.50001600  0.99909400  1
  Co  Co0  1  0.33510800  0.99998100  0.32987000  1
  Co  Co1  1  0.83507700  0.49999900  0.32985000  1
  Co  Co2  1  0.16407000  0.50000800  0.67186200  1
  Co  Co3  1  0.66404400  0.00006000  0.67183700  1
  O  O0  1  0.16663200  0.59691500  0.99460700  1
  O  O1  1  0.33879400  0.09688100  0.99455800  1
  O  O2  1  0.66657300  0.90309000  0.99463900  1
  O  O3  1  0.83882400  0.40308700  0.99449500  1
  O  O4  1  0.99227900  0.89729100  0.34852300  1
  O  O5  1  0.15918900  0.39733700  0.34835500  1
  O  O6  1  0.49241800  0.60266900  0.34844700  1
  O  O7  1  0.65943600  0.10261600  0.34822700  1
  O  O8  1  0.00085800  0.10275100  0.65614800  1
  O  O9  1  0.34276400  0.89738400  0.65647600  1
  O  O10  1  0.50075200  0.39729900  0.65628600  1
  O  O11  1  0.84292700  0.60269800  0.65637600  1
loop_
_geom_bond_atom_site_label_1
_geom_bond_atom_site_label_2
_geom_bond_distance
_geom_bond_site_symmetry_2
Li0 O4 2.012737 1_455
Li0 O11 2.022630 1_455
Li0 O6 2.047930 1_555
Li0 O9 2.050238 1_555
Li1 O7 2.014033 1_555
Li1 O10 2.022219 1_555
Li1 O5 2.048077 1_555
Li1 O8 2.049363 1_555
Li2 O6 2.012872 1_555
Li2 O9 2.023375 1_555
Li2 O4 2.047197 1_555
Li2 O11 2.050163 1_555
Li3 O5 2.012996 1_655
Li3 O8 2.022108 1_655
Li3 O7 2.047899 1_555
Li3 O10 2.049805 1_555
Fe0 O2 1.927209 1_455
Fe0 O1 1.928338 1_565
Fe0 O9 1.974094 1_555
Fe0 O8 1.977361 1_565
Fe0 O7 1.985776 1_466
Fe0 O4 1.986534 1_456
Fe1 O0 1.927668 1_555
Fe1 O3 1.927878 1_555
Fe1 O10 1.975564 1_555
Fe1 O11 1.975722 1_555
Fe1 O6 1.986612 1_556
Fe1 O5 1.987016 1_556
Co0 O2 1.906451 1_554
Co0 O1 1.907262 1_564
Co0 O8 1.924621 1_565
Co0 O9 1.924636 1_555
Co0 O7 1.947746 1_565
Co0 O4 1.948110 1_455
Co1 O3 1.906966 1_554
Co1 O0 1.907200 1_654
Co1 O11 1.924849 1_555
Co1 O10 1.925140 1_555
Co1 O5 1.947343 1_655
Co1 O6 1.947378 1_555
Co2 O0 1.867093 1_555
Co2 O3 1.867359 1_455
Co2 O5 1.905702 1_555
Co2 O6 1.905949 1_555
Co2 O11 1.928185 1_455
Co2 O10 1.928327 1_555
Co3 O1 1.866631 1_555
Co3 O2 1.867992 1_545
Co3 O7 1.905344 1_555
Co3 O4 1.905669 1_545
Co3 O9 1.928380 1_545
Co3 O8 1.928580 1_655
