# generated using pymatgen
data_Li5CuHO4
_symmetry_space_group_name_H-M   'P 1'
_cell_length_a   8.79792300
_cell_length_b   8.80902300
_cell_length_c   10.79350000
_cell_angle_alpha   90.00000000
_cell_angle_beta   90.00000000
_cell_angle_gamma   90.00000000
_symmetry_Int_Tables_number   1
_chemical_formula_structural   Li5CuHO4
_chemical_formula_sum   'Li40 Cu8 H8 O32'
_cell_volume   836.50818825
_cell_formula_units_Z   8
loop_
 _symmetry_equiv_pos_site_id
 _symmetry_equiv_pos_as_xyz
  1  'x, y, z'
loop_
 _atom_site_type_symbol
 _atom_site_label
 _atom_site_symmetry_multiplicity
 _atom_site_fract_x
 _atom_site_fract_y
 _atom_site_fract_z
 _atom_site_occupancy
  Li  Li0  1  0.58528300  0.97160700  0.20072900  1
  Li  Li1  1  0.91471700  0.97160700  0.20072900  1
  Li  Li2  1  0.07022800  0.07386200  0.42686000  1
  Li  Li3  1  0.42977200  0.07386200  0.42686000  1
  Li  Li4  1  0.75000000  0.07239800  0.44631600  1
  Li  Li5  1  0.25000000  0.11623000  0.98774800  1
  Li  Li6  1  0.56753400  0.11462300  0.98680200  1
  Li  Li7  1  0.93246600  0.11462300  0.98680200  1
  Li  Li8  1  0.57517400  0.20925000  0.65768200  1
  Li  Li9  1  0.92482600  0.20925000  0.65768200  1
  Li  Li10  1  0.07517400  0.29075000  0.15768200  1
  Li  Li11  1  0.42482600  0.29075000  0.15768200  1
  Li  Li12  1  0.06753400  0.38537700  0.48680200  1
  Li  Li13  1  0.43246600  0.38537700  0.48680200  1
  Li  Li14  1  0.75000000  0.38377000  0.48774800  1
  Li  Li15  1  0.25000000  0.42760200  0.94631600  1
  Li  Li16  1  0.57022800  0.42613800  0.92686000  1
  Li  Li17  1  0.92977200  0.42613800  0.92686000  1
  Li  Li18  1  0.08528300  0.52839300  0.70072900  1
  Li  Li19  1  0.41471700  0.52839300  0.70072900  1
  Li  Li20  1  0.58528300  0.47160700  0.29927100  1
  Li  Li21  1  0.91471700  0.47160700  0.29927100  1
  Li  Li22  1  0.07022800  0.57386200  0.07314000  1
  Li  Li23  1  0.42977200  0.57386200  0.07314000  1
  Li  Li24  1  0.75000000  0.57239800  0.05368400  1
  Li  Li25  1  0.25000000  0.61623000  0.51225200  1
  Li  Li26  1  0.56753400  0.61462300  0.51319800  1
  Li  Li27  1  0.93246600  0.61462300  0.51319800  1
  Li  Li28  1  0.57517400  0.70925000  0.84231800  1
  Li  Li29  1  0.92482600  0.70925000  0.84231800  1
  Li  Li30  1  0.07517400  0.79075000  0.34231800  1
  Li  Li31  1  0.42482600  0.79075000  0.34231800  1
  Li  Li32  1  0.06753400  0.88537700  0.01319800  1
  Li  Li33  1  0.43246600  0.88537700  0.01319800  1
  Li  Li34  1  0.75000000  0.88377000  0.01225200  1
  Li  Li35  1  0.25000000  0.92760200  0.55368400  1
  Li  Li36  1  0.92977200  0.92613800  0.57314000  1
  Li  Li37  1  0.57022800  0.92613800  0.57314000  1
  Li  Li38  1  0.08528300  0.02839300  0.79927100  1
  Li  Li39  1  0.41471700  0.02839300  0.79927100  1
  Cu  Cu0  1  0.25000000  0.01574000  0.21821000  1
  Cu  Cu1  1  0.25000000  0.21347500  0.62151000  1
  Cu  Cu2  1  0.75000000  0.28652500  0.12151000  1
  Cu  Cu3  1  0.75000000  0.48426000  0.71821000  1
  Cu  Cu4  1  0.25000000  0.51574000  0.28179000  1
  Cu  Cu5  1  0.25000000  0.71347500  0.87849000  1
  Cu  Cu6  1  0.75000000  0.78652500  0.37849000  1
  Cu  Cu7  1  0.75000000  0.98426000  0.78179000  1
  H  H0  1  0.59668700  0.18498600  0.32066600  1
  H  H1  1  0.90331300  0.18498600  0.32066600  1
  H  H2  1  0.09668700  0.31501400  0.82066600  1
  H  H3  1  0.40331300  0.31501400  0.82066600  1
  H  H4  1  0.59668700  0.68498600  0.17933400  1
  H  H5  1  0.90331300  0.68498600  0.17933400  1
  H  H6  1  0.09668700  0.81501400  0.67933400  1
  H  H7  1  0.40331300  0.81501400  0.67933400  1
  O  O0  1  0.75000000  0.06569300  0.62454800  1
  O  O1  1  0.41280200  0.07566100  0.11496300  1
  O  O2  1  0.08719800  0.07566100  0.11496300  1
  O  O3  1  0.40860300  0.06686200  0.61571600  1
  O  O4  1  0.09139700  0.06686200  0.61571600  1
  O  O5  1  0.75000000  0.07911100  0.10665800  1
  O  O6  1  0.05501000  0.23663000  0.87556400  1
  O  O7  1  0.44499000  0.23663000  0.87556400  1
  O  O8  1  0.55501000  0.26337000  0.37556400  1
  O  O9  1  0.94499000  0.26337000  0.37556400  1
  O  O10  1  0.25000000  0.42088900  0.60665800  1
  O  O11  1  0.59139700  0.43313800  0.11571600  1
  O  O12  1  0.90860300  0.43313800  0.11571600  1
  O  O13  1  0.58719800  0.42433900  0.61496300  1
  O  O14  1  0.91280200  0.42433900  0.61496300  1
  O  O15  1  0.25000000  0.43430700  0.12454800  1
  O  O16  1  0.75000000  0.56569300  0.87545200  1
  O  O17  1  0.08719800  0.57566100  0.38503700  1
  O  O18  1  0.41280200  0.57566100  0.38503700  1
  O  O19  1  0.09139700  0.56686200  0.88428400  1
  O  O20  1  0.40860300  0.56686200  0.88428400  1
  O  O21  1  0.75000000  0.57911100  0.39334200  1
  O  O22  1  0.05501000  0.73663000  0.62443600  1
  O  O23  1  0.44499000  0.73663000  0.62443600  1
  O  O24  1  0.55501000  0.76337000  0.12443600  1
  O  O25  1  0.94499000  0.76337000  0.12443600  1
  O  O26  1  0.25000000  0.92088900  0.89334200  1
  O  O27  1  0.90860300  0.93313800  0.38428400  1
  O  O28  1  0.59139700  0.93313800  0.38428400  1
  O  O29  1  0.91280200  0.92433900  0.88503700  1
  O  O30  1  0.58719800  0.92433900  0.88503700  1
  O  O31  1  0.25000000  0.93430700  0.37545200  1
loop_
_geom_bond_atom_site_label_1
_geom_bond_atom_site_label_2
_geom_bond_distance
_geom_bond_site_symmetry_2
Li0 O1 1.999965 1_565
Li0 O5 2.006951 1_565
Li0 O28 2.010693 1_555
Li0 O24 2.028283 1_555
Li1 O2 1.999965 1_665
Li1 O5 2.006951 1_565
Li1 O27 2.010693 1_555
Li1 O25 2.028283 1_555
Li2 O27 1.941616 1_445
Li2 O4 2.047836 1_555
Li2 O9 2.075431 1_455
Li2 O31 2.078627 1_545
Li3 O28 1.941616 1_545
Li3 O3 2.047836 1_555
Li3 O8 2.075431 1_555
Li3 O31 2.078627 1_545
Li4 O0 1.924654 1_555
Li4 O27 1.974909 1_545
Li4 O28 1.974909 1_545
Li5 O26 1.999832 1_545
Li5 O1 2.016096 1_556
Li5 O2 2.016096 1_556
Li5 O6 2.352451 1_555
Li5 O7 2.352451 1_555
Li6 O7 1.938824 1_555
Li6 O1 1.970920 1_556
Li6 O30 2.011495 1_545
Li6 O5 2.085303 1_556
Li7 O6 1.938824 1_655
Li7 O2 1.970920 1_656
Li7 O29 2.011495 1_545
Li7 O5 2.085303 1_556
Li8 O13 1.952888 1_555
Li8 O3 1.981431 1_555
Li8 O0 2.023086 1_555
Li9 O14 1.952888 1_555
Li9 O4 1.981431 1_655
Li9 O0 2.023086 1_555
Li10 O2 1.952888 1_555
Li10 O12 1.981431 1_455
Li10 O15 2.023086 1_555
Li11 O1 1.952888 1_555
Li11 O11 1.981431 1_555
Li11 O15 2.023086 1_555
Li12 O9 1.938824 1_455
Li12 O14 1.970920 1_455
Li12 O17 2.011495 1_555
Li12 O10 2.085303 1_555
Li13 O8 1.938824 1_555
Li13 O13 1.970920 1_555
Li13 O18 2.011495 1_555
Li13 O10 2.085303 1_555
Li14 O21 1.999832 1_555
Li14 O13 2.016096 1_555
Li14 O14 2.016096 1_555
Li14 O8 2.352451 1_555
Li14 O9 2.352451 1_555
Li15 O15 1.924654 1_556
Li15 O20 1.974909 1_555
Li15 O19 1.974909 1_555
Li16 O20 1.941616 1_555
Li16 O11 2.047836 1_556
Li16 O7 2.075431 1_555
Li16 O16 2.078627 1_555
Li17 O19 1.941616 1_655
Li17 O12 2.047836 1_556
Li17 O6 2.075431 1_655
Li17 O16 2.078627 1_555
Li18 O14 1.999965 1_455
Li18 O10 2.006951 1_555
Li18 O19 2.010693 1_555
Li18 O22 2.028283 1_555
Li19 O13 1.999965 1_555
Li19 O10 2.006951 1_555
Li19 O20 2.010693 1_555
Li19 O23 2.028283 1_555
Li20 O18 1.999965 1_555
Li20 O21 2.006951 1_555
Li20 O11 2.010693 1_555
Li20 O8 2.028283 1_555
Li21 O17 1.999965 1_655
Li21 O21 2.006951 1_555
Li21 O12 2.010693 1_555
Li21 O9 2.028283 1_555
Li22 O12 1.941616 1_455
Li22 O19 2.047836 1_554
Li22 O25 2.075431 1_455
Li22 O15 2.078627 1_555
Li23 O11 1.941616 1_555
Li23 O20 2.047836 1_554
Li23 O24 2.075431 1_555
Li23 O15 2.078627 1_555
Li24 O16 1.924654 1_554
Li24 O12 1.974909 1_555
Li24 O11 1.974909 1_555
Li25 O10 1.999832 1_555
Li25 O17 2.016096 1_555
Li25 O18 2.016096 1_555
Li25 O22 2.352451 1_555
Li25 O23 2.352451 1_555
Li26 O23 1.938824 1_555
Li26 O18 1.970920 1_555
Li26 O13 2.011495 1_555
Li26 O21 2.085303 1_555
Li27 O22 1.938824 1_655
Li27 O17 1.970920 1_655
Li27 O14 2.011495 1_555
Li27 O21 2.085303 1_555
Li28 O30 1.952888 1_555
Li28 O20 1.981431 1_555
Li28 O16 2.023086 1_555
Li29 O29 1.952888 1_555
Li29 O19 1.981431 1_655
Li29 O16 2.023086 1_555
Li30 O17 1.952888 1_555
Li30 O27 1.981431 1_455
Li30 O31 2.023086 1_555
Li31 O18 1.952888 1_555
Li31 O28 1.981431 1_555
Li31 O31 2.023086 1_555
Li32 O25 1.938824 1_455
Li32 O29 1.970920 1_454
Li32 O2 2.011495 1_565
Li32 O26 2.085303 1_554
Li33 O24 1.938824 1_555
Li33 O30 1.970920 1_554
Li33 O1 2.011495 1_565
Li33 O26 2.085303 1_554
Li34 O5 1.999832 1_565
Li34 O30 2.016096 1_554
Li34 O29 2.016096 1_554
Li34 O24 2.352451 1_555
Li34 O25 2.352451 1_555
Li35 O31 1.924654 1_555
Li35 O3 1.974909 1_565
Li35 O4 1.974909 1_565
Li36 O4 1.941616 1_665
Li36 O27 2.047836 1_555
Li36 O22 2.075431 1_655
Li36 O0 2.078627 1_565
Li37 O3 1.941616 1_565
Li37 O28 2.047836 1_555
Li37 O23 2.075431 1_555
Li37 O0 2.078627 1_565
Li38 O29 1.999965 1_445
Li38 O26 2.006951 1_545
Li38 O4 2.010693 1_555
Li38 O6 2.028283 1_555
Li39 O30 1.999965 1_545
Li39 O26 2.006951 1_545
Li39 O3 2.010693 1_555
Li39 O7 2.028283 1_555
Cu0 O31 1.842564 1_545
Cu0 O2 1.889984 1_555
Cu0 O1 1.889984 1_555
Cu1 O10 1.834134 1_555
Cu1 O3 1.902368 1_555
Cu1 O4 1.902368 1_555
Cu2 O5 1.834134 1_555
Cu2 O12 1.902368 1_555
Cu2 O11 1.902368 1_555
Cu3 O16 1.842564 1_555
Cu3 O13 1.889984 1_555
Cu3 O14 1.889984 1_555
Cu4 O15 1.842564 1_555
Cu4 O17 1.889984 1_555
Cu4 O18 1.889984 1_555
Cu5 O26 1.834134 1_555
Cu5 O20 1.902368 1_555
Cu5 O19 1.902368 1_555
Cu6 O21 1.834134 1_555
Cu6 O27 1.902368 1_555
Cu6 O28 1.902368 1_555
Cu7 O0 1.842564 1_565
Cu7 O30 1.889984 1_555
Cu7 O29 1.889984 1_555
H0 O8 0.980981 1_555
H0 Li3 2.104407 1_555
H0 Li4 2.154598 1_555
H1 O9 0.980981 1_555
H1 Li2 2.104407 1_655
H1 Li4 2.154598 1_555
H2 O6 0.980981 1_555
H2 Li17 2.104407 1_455
H2 Li15 2.154598 1_555
H3 O7 0.980981 1_555
H3 Li16 2.104407 1_555
H3 Li15 2.154598 1_555
H4 O24 0.980981 1_555
H4 Li23 2.104407 1_555
H4 Li24 2.154598 1_555
H5 O25 0.980981 1_555
H5 Li22 2.104407 1_655
H5 Li24 2.154598 1_555
H6 O22 0.980981 1_555
H6 Li36 2.104407 1_455
H6 Li35 2.154598 1_555
H7 O23 0.980981 1_555
H7 Li37 2.104407 1_555
H7 Li35 2.154598 1_555
