# generated using pymatgen
data_Sr6Nb2O11
_symmetry_space_group_name_H-M   'P 1'
_cell_length_a   5.99198400
_cell_length_b   6.02049256
_cell_length_c   19.86285046
_cell_angle_alpha   97.60237042
_cell_angle_beta   90.27281788
_cell_angle_gamma   119.38550107
_symmetry_Int_Tables_number   1
_chemical_formula_structural   Sr6Nb2O11
_chemical_formula_sum   'Sr12 Nb4 O22'
_cell_volume   616.84873428
_cell_formula_units_Z   2
loop_
 _symmetry_equiv_pos_site_id
 _symmetry_equiv_pos_as_xyz
  1  'x, y, z'
loop_
 _atom_site_type_symbol
 _atom_site_label
 _atom_site_symmetry_multiplicity
 _atom_site_fract_x
 _atom_site_fract_y
 _atom_site_fract_z
 _atom_site_occupancy
  Sr  Sr0  1  0.37138700  0.67084500  0.93230800  1
  Sr  Sr1  1  0.83075200  0.44253000  0.87960600  1
  Sr  Sr2  1  0.12144400  0.74564700  0.70156200  1
  Sr  Sr3  1  0.53494200  0.50296700  0.62574100  1
  Sr  Sr4  1  0.24238300  0.19903900  0.80290800  1
  Sr  Sr5  1  0.92991800  0.77194300  0.42652200  1
  Sr  Sr6  1  0.33154200  0.48022000  0.38228000  1
  Sr  Sr7  1  0.62460600  0.72270300  0.20079400  1
  Sr  Sr8  1  0.93117100  0.22571800  0.57319600  1
  Sr  Sr9  1  0.08531800  0.49379400  0.11891500  1
  Sr  Sr10  1  0.75415100  0.23134100  0.29831800  1
  Sr  Sr11  1  0.46720700  0.23122800  0.07558200  1
  Nb  Nb0  1  0.97301900  0.94619500  0.00336200  1
  Nb  Nb1  1  0.68702300  0.97544000  0.75132700  1
  Nb  Nb2  1  0.42612800  0.99170300  0.49977100  1
  Nb  Nb3  1  0.19310300  0.95865900  0.25131500  1
  O  O0  1  0.78654800  0.76770200  0.81185000  1
  O  O1  1  0.87654700  0.28331000  0.78484500  1
  O  O2  1  0.84504200  0.63119300  0.97073100  1
  O  O3  1  0.03967500  0.19781700  0.92125500  1
  O  O4  1  0.31881100  0.81991100  0.83023700  1
  O  O5  1  0.51065000  0.66237400  0.71891200  1
  O  O6  1  0.44458600  0.85359300  0.58510600  1
  O  O7  1  0.05084700  0.12990900  0.66871000  1
  O  O8  1  0.57883500  0.17501700  0.69390900  1
  O  O9  1  0.00623100  0.69325600  0.54301000  1
  O  O10  1  0.40587500  0.88364800  0.42074700  1
  O  O11  1  0.29516100  0.21146300  0.30532000  1
  O  O12  1  0.83681600  0.14844300  0.45953900  1
  O  O13  1  0.28828700  0.92700400  0.00645600  1
  O  O14  1  0.42147800  0.31067300  0.49397400  1
  O  O15  1  0.82237000  0.67612700  0.33124200  1
  O  O16  1  0.35464400  0.77911200  0.29299200  1
  O  O17  1  0.03927700  0.69753800  0.20080000  1
  O  O18  1  0.12391000  0.26181700  0.03711300  1
  O  O19  1  0.57694300  0.17663400  0.17309800  1
  O  O20  1  0.06561000  0.16413000  0.20397100  1
  O  O21  1  0.62394200  0.72786100  0.08245000  1
loop_
_geom_bond_atom_site_label_1
_geom_bond_atom_site_label_2
_geom_bond_distance
_geom_bond_site_symmetry_2
Nb0 O2 1.687473 1_554
Nb0 O18 1.687835 1_665
Nb0 O13 1.949544 1_655
Nb0 O3 2.276030 1_664
Nb0 O21 2.539710 1_555
Nb1 O1 1.664046 1_565
Nb1 O5 1.673788 1_555
Nb1 O8 2.069934 1_565
Nb1 O0 2.118486 1_555
Nb1 O4 2.568100 1_555
Nb1 O7 2.599722 1_665
Nb2 O10 1.597572 1_555
Nb2 O14 1.952637 1_565
Nb2 O6 2.009477 1_555
Nb2 O12 2.350349 1_565
Nb2 O9 2.507749 1_555
Nb3 O17 1.574663 1_555
Nb3 O11 1.577813 1_565
Nb3 O16 2.011632 1_555
Nb3 O20 2.055858 1_565
Nb3 O19 2.652767 1_565
Nb3 O15 2.718159 1_455
O0 Sr1 2.629941 1_555
O0 Sr4 2.720554 1_665
O0 Sr2 3.011595 1_655
O1 Sr1 2.079086 1_555
O1 Sr4 2.514652 1_655
O1 Sr2 3.141765 1_655
O2 Sr1 1.983100 1_555
O3 Sr0 2.526768 1_555
O3 Sr1 2.558270 1_455
O3 Sr4 2.650319 1_555
O4 Sr0 2.401648 1_555
O4 Sr4 2.658132 1_565
O4 Sr2 2.698300 1_555
O4 Sr1 2.961801 1_455
O5 Sr3 2.009183 1_555
O5 Sr2 2.644682 1_555
O5 Sr4 3.163119 1_555
O6 Sr3 2.639867 1_555
O6 Sr8 2.704160 1_565
O6 Sr2 2.954256 1_555
O7 Sr8 2.264677 1_455
O7 Sr2 2.704436 1_545
O7 Sr4 2.793589 1_555
O7 Sr3 2.885165 1_555
O8 Sr2 2.715142 1_545
O8 Sr4 3.002905 1_555
O9 Sr5 2.505923 1_455
O9 Sr8 2.773384 1_455
O9 Sr3 3.058583 1_455
O9 Sr2 3.161788 1_555
O10 Sr6 2.263956 1_555
O10 Sr5 2.596193 1_455
O11 Sr6 1.999645 1_555
O11 Sr10 2.698637 1_555
O12 Sr8 2.254871 1_555
O12 Sr5 2.594305 1_545
O12 Sr6 3.189963 1_655
O13 Sr11 1.944951 1_565
O13 Sr0 2.225993 1_554
O14 Sr3 2.657348 1_555
O14 Sr6 2.716986 1_555
O15 Sr5 1.914271 1_555
O15 Sr10 2.495079 1_555
O15 Sr6 2.830033 1_555
O15 Sr7 2.947133 1_555
O16 Sr7 2.547249 1_555
O16 Sr10 2.584510 1_565
O16 Sr6 2.646685 1_555
O17 Sr9 2.008640 1_555
O17 Sr7 2.562446 1_455
O18 Sr9 2.089052 1_555
O18 Sr11 2.289798 1_555
O19 Sr11 2.158833 1_555
O19 Sr10 2.614792 1_555
O19 Sr9 2.991703 1_655
O19 Sr7 3.002522 1_545
O19 Sr7 3.129069 1_555
O20 Sr7 2.666797 1_445
O20 Sr9 2.732490 1_555
O20 Sr10 2.780700 1_455
O21 Sr7 2.354969 1_555
O21 Sr11 2.641156 1_555
O21 Sr9 2.959007 1_555
O21 Sr0 3.236989 1_554
