# generated using pymatgen
data_Na2FeO2
_symmetry_space_group_name_H-M   'P 1'
_cell_length_a   5.77031188
_cell_length_b   7.97870623
_cell_length_c   6.12633509
_cell_angle_alpha   90.01657860
_cell_angle_beta   90.00080138
_cell_angle_gamma   95.11138317
_symmetry_Int_Tables_number   1
_chemical_formula_structural   Na2FeO2
_chemical_formula_sum   'Na8 Fe4 O8'
_cell_volume   280.93252747
_cell_formula_units_Z   4
loop_
 _symmetry_equiv_pos_site_id
 _symmetry_equiv_pos_as_xyz
  1  'x, y, z'
loop_
 _atom_site_type_symbol
 _atom_site_label
 _atom_site_symmetry_multiplicity
 _atom_site_fract_x
 _atom_site_fract_y
 _atom_site_fract_z
 _atom_site_occupancy
  Na  Na0  1  0.50629300  0.01867800  0.24443700  1
  Na  Na1  1  0.00636800  0.01871400  0.25566700  1
  Na  Na2  1  0.99365500  0.98129600  0.74443900  1
  Na  Na3  1  0.49374400  0.98131800  0.75565200  1
  Na  Na4  1  0.92671100  0.33179600  0.85415700  1
  Na  Na5  1  0.42640200  0.33121100  0.64587000  1
  Na  Na6  1  0.57357000  0.66881600  0.35409400  1
  Na  Na7  1  0.07331900  0.66820900  0.14574800  1
  Fe  Fe0  1  0.34388700  0.35888200  0.11788400  1
  Fe  Fe1  1  0.65619400  0.64114200  0.88214200  1
  Fe  Fe2  1  0.84347100  0.35906500  0.38227200  1
  Fe  Fe3  1  0.15642700  0.64087600  0.61780100  1
  O  O0  1  0.75513600  0.14641100  0.53115600  1
  O  O1  1  0.25525200  0.14627300  0.96889000  1
  O  O2  1  0.74479400  0.85367000  0.03115600  1
  O  O3  1  0.24488700  0.85363300  0.46887300  1
  O  O4  1  0.70077800  0.44823000  0.11926800  1
  O  O5  1  0.20070000  0.44755400  0.38088100  1
  O  O6  1  0.79920400  0.55243400  0.61902000  1
  O  O7  1  0.29920600  0.55179200  0.88059400  1
loop_
_geom_bond_atom_site_label_1
_geom_bond_atom_site_label_2
_geom_bond_distance
_geom_bond_site_symmetry_2
Na0 O3 2.355218 1_545
Na0 O2 2.378337 1_545
Na0 O0 2.433933 1_555
Na0 O1 2.499633 1_554
Na1 O2 2.355586 1_445
Na1 O3 2.378900 1_545
Na1 O1 2.434267 1_554
Na1 O0 2.500075 1_455
Na2 O1 2.355181 1_665
Na2 O0 2.379323 1_565
Na2 O2 2.434124 1_556
Na2 O3 2.500269 1_655
Na3 O0 2.355577 1_565
Na3 O1 2.377904 1_565
Na3 O3 2.434103 1_555
Na3 O2 2.499682 1_556
Na4 O4 2.327134 1_556
Na4 O6 2.438793 1_555
Na4 O1 2.603792 1_655
Na4 O0 2.611710 1_555
Na4 O7 2.656086 1_655
Na5 O5 2.325842 1_555
Na5 O7 2.435713 1_555
Na5 O0 2.600762 1_555
Na5 O1 2.609764 1_555
Na5 O6 2.663409 1_555
Na6 O6 2.325479 1_555
Na6 O4 2.436137 1_555
Na6 O3 2.600726 1_555
Na6 O2 2.609167 1_555
Na6 O5 2.663862 1_555
Na7 O7 2.327099 1_554
Na7 O5 2.438614 1_555
Na7 O2 2.603174 1_455
Na7 O3 2.612438 1_555
Na7 O4 2.656221 1_455
Fe0 O1 1.953675 1_554
Fe0 O5 1.970464 1_555
Fe0 O4 2.118417 1_555
Fe0 O7 2.149608 1_554
Fe1 O2 1.953149 1_556
Fe1 O6 1.970743 1_555
Fe1 O7 2.118953 1_555
Fe1 O4 2.148837 1_556
Fe2 O0 1.953811 1_555
Fe2 O4 1.971094 1_555
Fe2 O5 2.118557 1_655
Fe2 O6 2.148994 1_555
Fe3 O3 1.954764 1_555
Fe3 O7 1.970003 1_555
Fe3 O6 2.118427 1_455
Fe3 O5 2.149438 1_555
