# generated using pymatgen
data_Li3V4SnO12
_symmetry_space_group_name_H-M   'P 1'
_cell_length_a   5.13898200
_cell_length_b   5.47571718
_cell_length_c   7.40946090
_cell_angle_alpha   84.97191772
_cell_angle_beta   89.45990326
_cell_angle_gamma   89.70176479
_symmetry_Int_Tables_number   1
_chemical_formula_structural   Li3V4SnO12
_chemical_formula_sum   'Li3 V4 Sn1 O12'
_cell_volume   207.68578578
_cell_formula_units_Z   1
loop_
 _symmetry_equiv_pos_site_id
 _symmetry_equiv_pos_as_xyz
  1  'x, y, z'
loop_
 _atom_site_type_symbol
 _atom_site_label
 _atom_site_symmetry_multiplicity
 _atom_site_fract_x
 _atom_site_fract_y
 _atom_site_fract_z
 _atom_site_occupancy
  Li  Li0  1  0.50121900  0.93700200  0.21051500  1
  Li  Li1  1  0.99573300  0.42419500  0.21376800  1
  Li  Li2  1  0.50165400  0.93646000  0.71899200  1
  V  V0  1  0.97899400  0.97691100  0.01878400  1
  V  V1  1  0.51288500  0.51156300  0.48820800  1
  V  V2  1  0.02044200  0.00137500  0.49780900  1
  V  V3  1  0.48460800  0.49343200  0.01204100  1
  Sn  Sn0  1  0.00082900  0.42086300  0.71376200  1
  O  O0  1  0.70626600  0.22360600  0.58212700  1
  O  O1  1  0.88388900  0.03316500  0.25126400  1
  O  O2  1  0.69285800  0.83835600  0.96044000  1
  O  O3  1  0.80232200  0.71378700  0.58631100  1
  O  O4  1  0.19170100  0.72986600  0.07309000  1
  O  O5  1  0.61782100  0.53878600  0.26176400  1
  O  O6  1  0.36833900  0.54688200  0.75823600  1
  O  O7  1  0.82561800  0.34898400  0.95969800  1
  O  O8  1  0.17878000  0.34404100  0.46222200  1
  O  O9  1  0.31396700  0.23032200  0.07609400  1
  O  O10  1  0.11627800  0.04808800  0.77262600  1
  O  O11  1  0.30579500  0.84311600  0.45264600  1
loop_
_geom_bond_atom_site_label_1
_geom_bond_atom_site_label_2
_geom_bond_distance
_geom_bond_site_symmetry_2
Li0 O9 2.054077 1_565
Li0 O1 2.070151 1_565
Li0 O11 2.073948 1_555
Li0 O2 2.197834 1_554
Li0 O5 2.259084 1_555
Li0 O4 2.259439 1_555
Li1 O5 2.074917 1_555
Li1 O8 2.086426 1_655
Li1 O4 2.143393 1_655
Li1 O7 2.156021 1_554
Li1 O1 2.213069 1_555
Li1 O9 2.232127 1_655
Li2 O2 2.076962 1_555
Li2 O0 2.079392 1_565
Li2 O10 2.113960 1_565
Li2 O3 2.236613 1_555
Li2 O6 2.237693 1_555
Li2 O11 2.321328 1_555
O0 V1 1.939706 1_555
O0 V2 2.138140 1_655
O0 Sn0 2.153819 1_655
O1 V0 1.837527 1_545
O1 V2 1.956265 1_655
O2 V0 1.733723 1_556
O2 V3 2.178406 1_556
O3 V2 1.997450 1_665
O3 V1 2.036061 1_555
O3 Sn0 2.059314 1_655
O4 V0 1.756185 1_455
O4 V3 2.053292 1_555
O5 V1 1.751591 1_555
O5 V3 2.014989 1_555
O6 V3 1.975362 1_556
O6 Sn0 2.053490 1_555
O6 V1 2.151870 1_555
O7 V3 1.968150 1_556
O7 Sn0 2.033049 1_655
O7 V0 2.190256 1_546
O8 V1 1.969786 1_555
O8 V2 2.043872 1_555
O8 Sn0 2.142006 1_555
O9 V3 1.719112 1_555
O9 V0 2.282759 1_445
O10 V0 1.957099 1_446
O10 Sn0 2.131895 1_555
O10 V2 2.136772 1_555
O11 V2 1.744045 1_565
O11 V1 2.097461 1_555
