# generated using pymatgen
data_LiMn2O3F
_symmetry_space_group_name_H-M   'P 1'
_cell_length_a   6.01382762
_cell_length_b   6.03919225
_cell_length_c   6.03924221
_cell_angle_alpha   121.80962363
_cell_angle_beta   61.62806641
_cell_angle_gamma   118.37253636
_symmetry_Int_Tables_number   1
_chemical_formula_structural   LiMn2O3F
_chemical_formula_sum   'Li2 Mn4 O6 F2'
_cell_volume   156.42179226
_cell_formula_units_Z   2
loop_
 _symmetry_equiv_pos_site_id
 _symmetry_equiv_pos_as_xyz
  1  'x, y, z'
loop_
 _atom_site_type_symbol
 _atom_site_label
 _atom_site_symmetry_multiplicity
 _atom_site_fract_x
 _atom_site_fract_y
 _atom_site_fract_z
 _atom_site_occupancy
  Li  Li0  1  0.48691600  0.99367500  0.50633400  1
  Li  Li1  1  0.91357600  0.64396100  0.85604200  1
  Mn  Mn0  1  0.09529400  0.36198900  0.13796200  1
  Mn  Mn1  1  0.01338500  0.99845500  0.50154800  1
  Mn  Mn2  1  0.49301400  0.49654200  0.51361900  1
  Mn  Mn3  1  0.49302300  0.98638700  0.00345600  1
  O  O0  1  0.23223500  0.77257200  0.27133200  1
  O  O1  1  0.30577700  0.76011200  0.73988200  1
  O  O2  1  0.24269700  0.22388300  0.27609700  1
  O  O3  1  0.23226200  0.22869900  0.72742600  1
  O  O4  1  0.69505000  0.23915000  0.26085900  1
  O  O5  1  0.75930000  0.77977900  0.72025400  1
  F  F0  1  0.76872900  0.77476200  0.25997600  1
  F  F1  1  0.76874300  0.24003400  0.72521200  1
loop_
_geom_bond_atom_site_label_1
_geom_bond_atom_site_label_2
_geom_bond_distance
_geom_bond_site_symmetry_2
Li0 O3 2.065753 1_565
Li0 O0 2.065770 1_555
Li0 O1 2.083837 1_555
Li0 O4 2.179895 1_565
Li1 O1 1.980177 1_655
Li1 O5 2.088422 1_555
Mn0 O3 2.014656 1_554
Mn0 O0 2.014832 1_555
Mn0 O4 2.019993 1_455
Mn0 O2 2.077590 1_555
Mn1 O0 1.869222 1_555
Mn1 O3 1.869308 1_565
Mn1 O5 1.956103 1_455
Mn1 O2 1.998570 1_565
Mn2 O1 1.901832 1_555
Mn2 O4 1.937414 1_555
Mn2 O5 2.023184 1_555
Mn2 O2 2.059499 1_555
Mn2 O3 2.146982 1_555
Mn3 O1 1.901878 1_554
Mn3 O4 1.937416 1_565
Mn3 O5 2.023045 1_554
Mn3 O2 2.059444 1_565
Mn3 O0 2.147181 1_555
F0 Li1 1.984114 1_554
F0 Mn1 2.047308 1_655
F0 Li0 2.119709 1_555
F0 Mn2 2.360187 1_555
F1 Li1 1.984039 1_555
F1 Mn1 2.047294 1_645
F1 Li0 2.119626 1_545
F1 Mn3 2.360312 1_546
