# generated using pymatgen
data_LiCr2P3O13
_symmetry_space_group_name_H-M   'P 1'
_cell_length_a   6.18040223
_cell_length_b   21.63940000
_cell_length_c   6.97321401
_cell_angle_alpha   90.00000000
_cell_angle_beta   80.72081669
_cell_angle_gamma   90.00000000
_symmetry_Int_Tables_number   1
_chemical_formula_structural   LiCr2P3O13
_chemical_formula_sum   'Li4 Cr8 P12 O52'
_cell_volume   920.39535800
_cell_formula_units_Z   4
loop_
 _symmetry_equiv_pos_site_id
 _symmetry_equiv_pos_as_xyz
  1  'x, y, z'
loop_
 _atom_site_type_symbol
 _atom_site_label
 _atom_site_symmetry_multiplicity
 _atom_site_fract_x
 _atom_site_fract_y
 _atom_site_fract_z
 _atom_site_occupancy
  Li  Li0  1  0.17969600  0.36567300  0.80524500  1
  Li  Li1  1  0.82030400  0.63432700  0.19475500  1
  Li  Li2  1  0.67969600  0.13432700  0.30524500  1
  Li  Li3  1  0.32030400  0.86567300  0.69475500  1
  Cr  Cr0  1  0.77313000  0.06345200  0.78282800  1
  Cr  Cr1  1  0.72687000  0.56345200  0.71717200  1
  Cr  Cr2  1  0.78520300  0.79280000  0.95491900  1
  Cr  Cr3  1  0.71479700  0.29280000  0.54508100  1
  Cr  Cr4  1  0.21479700  0.20720000  0.04508100  1
  Cr  Cr5  1  0.22687000  0.93654800  0.21717200  1
  Cr  Cr6  1  0.27313000  0.43654800  0.28282800  1
  Cr  Cr7  1  0.28520300  0.70720000  0.45491900  1
  P  P0  1  0.72294200  0.89982400  0.29410600  1
  P  P1  1  0.77450900  0.70312300  0.58272900  1
  P  P2  1  0.22294200  0.60017600  0.79410600  1
  P  P3  1  0.11459200  0.08268100  0.34205100  1
  P  P4  1  0.61459200  0.41731900  0.84205100  1
  P  P5  1  0.38540800  0.58268100  0.15794900  1
  P  P6  1  0.77705800  0.39982400  0.20589400  1
  P  P7  1  0.27705800  0.10017600  0.70589400  1
  P  P8  1  0.88540800  0.91731900  0.65794900  1
  P  P9  1  0.22549100  0.29687700  0.41727100  1
  P  P10  1  0.27450900  0.79687700  0.08272900  1
  P  P11  1  0.72549100  0.20312300  0.91727100  1
  O  O0  1  0.26464900  0.16422800  0.79648600  1
  O  O1  1  0.61872600  0.58050700  0.04789900  1
  O  O2  1  0.10291200  0.79153400  0.94599900  1
  O  O3  1  0.23535100  0.66422800  0.70351400  1
  O  O4  1  0.63608600  0.37611200  0.66413300  1
  O  O5  1  0.98787900  0.43581500  0.20968200  1
  O  O6  1  0.77816300  0.38590800  0.97792500  1
  O  O7  1  0.38127400  0.41949200  0.95210100  1
  O  O8  1  0.98398200  0.68676700  0.43303300  1
  O  O9  1  0.51601800  0.18676700  0.06696700  1
  O  O10  1  0.11872600  0.91949300  0.54789900  1
  O  O11  1  0.68928600  0.26340200  0.81095700  1
  O  O12  1  0.41616800  0.55677300  0.72512000  1
  O  O13  1  0.01212100  0.56418500  0.79031800  1
  O  O14  1  0.08383200  0.05677300  0.77488000  1
  O  O15  1  0.89708800  0.20846600  0.05400100  1
  O  O16  1  0.22183700  0.61409200  0.02207500  1
  O  O17  1  0.60291200  0.70846600  0.44599900  1
  O  O18  1  0.21398900  0.84830600  0.23671100  1
  O  O19  1  0.78601100  0.15169400  0.76328900  1
  O  O20  1  0.27298900  0.52056500  0.21181100  1
  O  O21  1  0.28601100  0.34830600  0.26328900  1
  O  O22  1  0.20334500  0.43863500  0.51305100  1
  O  O23  1  0.48787900  0.06418500  0.70968200  1
  O  O24  1  0.72701100  0.47943500  0.78818900  1
  O  O25  1  0.36391400  0.62388800  0.33586700  1
  O  O26  1  0.74501800  0.22498100  0.44884500  1
  O  O27  1  0.22701100  0.02056500  0.28818900  1
  O  O28  1  0.77298900  0.97943500  0.71181100  1
  O  O29  1  0.13608600  0.12388800  0.16413300  1
  O  O30  1  0.31071400  0.73659800  0.18904300  1
  O  O31  1  0.91616800  0.94322700  0.22512000  1
  O  O32  1  0.88127400  0.08050700  0.45210100  1
  O  O33  1  0.70334500  0.06136500  0.01305100  1
  O  O34  1  0.86391400  0.87611200  0.83586700  1
  O  O35  1  0.51212100  0.93581500  0.29031800  1
  O  O36  1  0.81071400  0.76340200  0.68904300  1
  O  O37  1  0.01601800  0.31323300  0.56696700  1
  O  O38  1  0.25498200  0.77501900  0.55115500  1
  O  O39  1  0.48398200  0.81323300  0.93303300  1
  O  O40  1  0.29665500  0.93863500  0.98694900  1
  O  O41  1  0.75498200  0.72498100  0.05115500  1
  O  O42  1  0.72183700  0.88590800  0.52207500  1
  O  O43  1  0.18928600  0.23659800  0.31095700  1
  O  O44  1  0.79665500  0.56136500  0.48694900  1
  O  O45  1  0.58383200  0.44322700  0.27488100  1
  O  O46  1  0.76464900  0.33577200  0.29648600  1
  O  O47  1  0.73535100  0.83577200  0.20351400  1
  O  O48  1  0.24501800  0.27501900  0.94884500  1
  O  O49  1  0.71398900  0.65169400  0.73671100  1
  O  O50  1  0.27816300  0.11409200  0.47792500  1
  O  O51  1  0.39708800  0.29153400  0.55400100  1
loop_
_geom_bond_atom_site_label_1
_geom_bond_atom_site_label_2
_geom_bond_distance
_geom_bond_site_symmetry_2
Li0 O7 2.090107 1_555
Li0 O48 2.268111 1_555
Li0 O37 2.369362 1_555
Li0 O22 2.563130 1_555
Li0 O51 2.586378 1_555
Li0 O6 2.614673 1_455
Li1 O1 2.090120 1_555
Li1 O41 2.268111 1_555
Li1 O8 2.369362 1_555
Li1 O44 2.563130 1_555
Li1 O17 2.586378 1_555
Li1 O16 2.614673 1_655
Li2 O32 2.090120 1_555
Li2 O26 2.268111 1_555
Li2 O9 2.369362 1_555
Li2 O33 2.563130 1_555
Li2 O15 2.586378 1_555
Li2 O50 2.614673 1_555
Li3 O10 2.090120 1_555
Li3 O38 2.268111 1_555
Li3 O39 2.369362 1_555
Li3 O40 2.563130 1_555
Li3 O2 2.586378 1_555
Li3 O42 2.614673 1_555
Cr0 O33 1.594382 1_556
Cr0 O28 1.884353 1_545
Cr0 O23 1.912709 1_555
Cr0 O19 1.915100 1_555
Cr0 O14 1.917564 1_655
Cr0 O32 2.324765 1_555
Cr1 O44 1.594382 1_555
Cr1 O24 1.884353 1_555
Cr1 O13 1.912709 1_655
Cr1 O49 1.915100 1_555
Cr1 O12 1.917564 1_555
Cr1 O1 2.324765 1_556
Cr2 O41 1.612000 1_556
Cr2 O36 1.942328 1_555
Cr2 O39 1.943251 1_555
Cr2 O47 1.947414 1_556
Cr2 O2 1.954696 1_655
Cr2 O34 2.011409 1_555
Cr3 O26 1.612000 1_555
Cr3 O11 1.942328 1_555
Cr3 O37 1.943251 1_655
Cr3 O46 1.947414 1_555
Cr3 O51 1.954696 1_555
Cr3 O4 2.011409 1_555
Cr4 O48 1.612000 1_554
Cr4 O43 1.942328 1_555
Cr4 O9 1.943251 1_555
Cr4 O0 1.947414 1_554
Cr4 O15 1.954696 1_455
Cr4 O29 2.011409 1_555
Cr5 O40 1.594382 1_554
Cr5 O27 1.884353 1_565
Cr5 O35 1.912709 1_555
Cr5 O18 1.915100 1_555
Cr5 O31 1.917564 1_455
Cr5 O10 2.324765 1_555
Cr6 O22 1.594382 1_555
Cr6 O20 1.884353 1_555
Cr6 O5 1.912709 1_455
Cr6 O21 1.915100 1_555
Cr6 O45 1.917565 1_555
Cr6 O7 2.324768 1_554
Cr7 O38 1.612000 1_555
Cr7 O30 1.942328 1_555
Cr7 O8 1.943251 1_455
Cr7 O3 1.947414 1_555
Cr7 O17 1.954696 1_555
Cr7 O25 2.011409 1_555
O0 P7 1.520017 1_555
O1 P5 1.521057 1_555
O2 P10 1.540540 1_556
O3 P2 1.520017 1_555
O4 P4 1.516197 1_555
O5 P6 1.521862 1_555
O6 P6 1.616879 1_556
O6 P4 1.640308 1_555
O7 P4 1.521056 1_555
O8 P1 1.566895 1_555
O9 P11 1.566895 1_554
O10 P8 1.521057 1_455
O11 P11 1.534480 1_555
O12 P2 1.534412 1_555
O13 P2 1.521862 1_555
O14 P7 1.534412 1_555
O15 P11 1.540540 1_554
O16 P2 1.616879 1_554
O16 P5 1.640308 1_555
O17 P1 1.540540 1_555
O18 P10 1.549791 1_555
O19 P11 1.549791 1_555
O20 P5 1.531796 1_555
O21 P9 1.549791 1_555
O23 P7 1.521862 1_555
O24 P4 1.531796 1_555
O25 P5 1.516197 1_555
O27 P3 1.531796 1_555
O28 P8 1.531796 1_555
O29 P3 1.516197 1_555
O30 P10 1.534480 1_555
O31 P0 1.534412 1_555
O32 P3 1.521057 1_655
O34 P8 1.516197 1_555
O35 P0 1.521862 1_555
O36 P1 1.534480 1_555
O37 P9 1.566895 1_555
O39 P10 1.566895 1_556
O42 P0 1.616879 1_555
O42 P8 1.640308 1_555
O43 P9 1.534480 1_555
O45 P6 1.534414 1_555
O46 P6 1.520017 1_555
O47 P0 1.520017 1_555
O49 P1 1.549791 1_555
O50 P7 1.616879 1_555
O50 P3 1.640308 1_555
O51 P9 1.540540 1_555
