# generated using pymatgen
data_ZrMnO3
_symmetry_space_group_name_H-M   'P 1'
_cell_length_a   5.49610444
_cell_length_b   5.49602048
_cell_length_c   5.82381589
_cell_angle_alpha   90.00097179
_cell_angle_beta   61.84462406
_cell_angle_gamma   60.00094250
_symmetry_Int_Tables_number   1
_chemical_formula_structural   ZrMnO3
_chemical_formula_sum   'Zr2 Mn2 O6'
_cell_volume   127.74990701
_cell_formula_units_Z   2
loop_
 _symmetry_equiv_pos_site_id
 _symmetry_equiv_pos_as_xyz
  1  'x, y, z'
loop_
 _atom_site_type_symbol
 _atom_site_label
 _atom_site_symmetry_multiplicity
 _atom_site_fract_x
 _atom_site_fract_y
 _atom_site_fract_z
 _atom_site_occupancy
  Zr  Zr0  1  0.71019600  0.14490200  0.43471800  1
  Zr  Zr1  1  0.28980000  0.85510200  0.56528800  1
  Mn  Mn0  1  0.71840400  0.64079700  0.92242000  1
  Mn  Mn1  1  0.28165200  0.35916900  0.07749500  1
  O  O0  1  0.50771100  0.44691000  0.25985600  1
  O  O1  1  0.78552100  0.76755100  0.25985000  1
  O  O2  1  0.18706200  0.04538000  0.25985300  1
  O  O3  1  0.81291900  0.95462900  0.74017400  1
  O  O4  1  0.21446000  0.23246200  0.74017800  1
  O  O5  1  0.49227500  0.55309900  0.74016900  1
loop_
_geom_bond_atom_site_label_1
_geom_bond_atom_site_label_2
_geom_bond_distance
_geom_bond_site_symmetry_2
Mn0 O4 2.178717 1_655
Mn0 O3 2.178779 1_555
Mn0 O5 2.178853 1_555
Mn0 O1 2.328982 1_556
Mn0 O0 2.329108 1_556
Mn0 O2 2.329150 1_566
Mn1 O1 2.178962 1_455
Mn1 O2 2.178975 1_555
Mn1 O0 2.179107 1_555
Mn1 O4 2.328571 1_554
Mn1 O3 2.328752 1_544
Mn1 O5 2.328759 1_554
O0 Zr0 2.062302 1_555
O0 Zr1 2.221263 1_555
O1 Zr0 2.062324 1_565
O1 Zr1 2.221282 1_555
O2 Zr0 2.062278 1_455
O2 Zr1 2.221276 1_545
O3 Zr1 2.062330 1_655
O3 Zr0 2.221346 1_565
O4 Zr1 2.062376 1_545
O4 Zr0 2.221351 1_555
O5 Zr1 2.062350 1_555
O5 Zr0 2.221325 1_555
