# generated using pymatgen
data_CsCoH18N6(ClO2)4
_symmetry_space_group_name_H-M   'P 1'
_cell_length_a   9.95730583
_cell_length_b   9.95730583
_cell_length_c   9.95730604
_cell_angle_alpha   42.90510988
_cell_angle_beta   42.90510988
_cell_angle_gamma   42.90511096
_symmetry_Int_Tables_number   1
_chemical_formula_structural   CsCoH18N6(ClO2)4
_chemical_formula_sum   'Cs1 Co1 H18 N6 Cl4 O8'
_cell_volume   414.65182748
_cell_formula_units_Z   1
loop_
 _symmetry_equiv_pos_site_id
 _symmetry_equiv_pos_as_xyz
  1  'x, y, z'
loop_
 _atom_site_type_symbol
 _atom_site_label
 _atom_site_symmetry_multiplicity
 _atom_site_fract_x
 _atom_site_fract_y
 _atom_site_fract_z
 _atom_site_occupancy
  Cs  Cs0  1  0.50000000  0.50000000  0.50000000  1
  Co  Co0  1  0.00000000  0.00000000  0.00000000  1
  H  H0  1  0.83122500  0.41530000  0.83009700  1
  H  H1  1  0.83009700  0.83122500  0.41530000  1
  H  H2  1  0.41530000  0.83009700  0.83122500  1
  H  H3  1  0.16877500  0.58470000  0.16990300  1
  H  H4  1  0.16990300  0.16877500  0.58470000  1
  H  H5  1  0.58470000  0.16990300  0.16877500  1
  H  H6  1  0.97321400  0.31996800  0.93550900  1
  H  H7  1  0.93550900  0.97321400  0.31996800  1
  H  H8  1  0.31996800  0.93550900  0.97321400  1
  H  H9  1  0.02678600  0.68003200  0.06449100  1
  H  H10  1  0.06449100  0.02678600  0.68003200  1
  H  H11  1  0.68003200  0.06449100  0.02678600  1
  H  H12  1  0.72966700  0.32357300  0.09316800  1
  H  H13  1  0.09316800  0.72966700  0.32357300  1
  H  H14  1  0.32357300  0.09316800  0.72966700  1
  H  H15  1  0.27033300  0.67642700  0.90683200  1
  H  H16  1  0.90683200  0.27033300  0.67642700  1
  H  H17  1  0.67642700  0.90683200  0.27033300  1
  N  N0  1  0.87299900  0.29429100  0.95966500  1
  N  N1  1  0.95966500  0.87299900  0.29429100  1
  N  N2  1  0.29429100  0.95966500  0.87299900  1
  N  N3  1  0.12700100  0.70570900  0.04033500  1
  N  N4  1  0.04033500  0.12700100  0.70570900  1
  N  N5  1  0.70570900  0.04033500  0.12700100  1
  Cl  Cl0  1  0.63138100  0.63138100  0.63138100  1
  Cl  Cl1  1  0.36861900  0.36861900  0.36861900  1
  Cl  Cl2  1  0.80841300  0.80841300  0.80841300  1
  Cl  Cl3  1  0.19158700  0.19158700  0.19158700  1
  O  O0  1  0.86252200  0.86252200  0.86252200  1
  O  O1  1  0.13747800  0.13747800  0.13747800  1
  O  O2  1  0.71483600  0.00541000  0.65067900  1
  O  O3  1  0.65067900  0.71483600  0.00541000  1
  O  O4  1  0.00541000  0.65067900  0.71483600  1
  O  O5  1  0.28516400  0.99459000  0.34932100  1
  O  O6  1  0.34932100  0.28516400  0.99459000  1
  O  O7  1  0.99459000  0.34932100  0.28516400  1
loop_
_geom_bond_atom_site_label_1
_geom_bond_atom_site_label_2
_geom_bond_distance
_geom_bond_site_symmetry_2
Cs0 O7 3.086192 1_555
Cs0 O4 3.086192 1_555
Cs0 O5 3.086192 1_555
Cs0 O2 3.086192 1_555
Cs0 O6 3.086192 1_555
Cs0 O3 3.086192 1_555
Co0 N2 1.984601 1_544
Co0 N5 1.984601 1_455
Co0 N0 1.984601 1_454
Co0 N3 1.984601 1_545
Co0 N1 1.984601 1_445
Co0 N4 1.984601 1_554
H0 N0 1.031477 1_555
H1 N1 1.031477 1_555
H2 N2 1.031477 1_555
H3 N3 1.031477 1_555
H4 N4 1.031477 1_555
H5 N5 1.031477 1_555
H6 N0 1.025192 1_555
H7 N1 1.025192 1_555
H8 N2 1.025192 1_555
H9 N3 1.025192 1_555
H10 N4 1.025192 1_555
H11 N5 1.025192 1_555
H12 N0 1.033377 1_554
H13 N1 1.033377 1_455
H14 N2 1.033377 1_545
H15 N3 1.033377 1_556
H16 N4 1.033377 1_655
H17 N5 1.033377 1_565
Cl0 Cs0 3.557463 1_555
Cl1 Cs0 3.557463 1_555
Cl2 O3 1.461420 1_556
Cl2 O2 1.461420 1_565
Cl2 O4 1.461420 1_655
Cl2 O0 1.465134 1_555
Cl3 O6 1.461420 1_554
Cl3 O5 1.461420 1_545
Cl3 O7 1.461420 1_455
Cl3 O1 1.465134 1_555
