# generated using pymatgen
data_NaLiV(OF)2
_symmetry_space_group_name_H-M   'P 1'
_cell_length_a   6.69751924
_cell_length_b   7.14746630
_cell_length_c   7.78755903
_cell_angle_alpha   90.00501638
_cell_angle_beta   90.00992037
_cell_angle_gamma   61.11499751
_symmetry_Int_Tables_number   1
_chemical_formula_structural   NaLiV(OF)2
_chemical_formula_sum   'Na4 Li4 V4 O8 F8'
_cell_volume   326.41395667
_cell_formula_units_Z   4
loop_
 _symmetry_equiv_pos_site_id
 _symmetry_equiv_pos_as_xyz
  1  'x, y, z'
loop_
 _atom_site_type_symbol
 _atom_site_label
 _atom_site_symmetry_multiplicity
 _atom_site_fract_x
 _atom_site_fract_y
 _atom_site_fract_z
 _atom_site_occupancy
  Na  Na0  1  0.67042700  0.80896500  0.12092400  1
  Na  Na1  1  0.67026000  0.80900100  0.62091900  1
  Na  Na2  1  0.32958600  0.19104700  0.37078300  1
  Na  Na3  1  0.32985600  0.19092900  0.87075900  1
  Li  Li0  1  0.61234300  0.54092100  0.37118700  1
  Li  Li1  1  0.61241300  0.54089500  0.87118900  1
  Li  Li2  1  0.38762600  0.45905500  0.12098300  1
  Li  Li3  1  0.38756300  0.45910200  0.62095700  1
  V  V0  1  0.88550400  0.18989300  0.62100500  1
  V  V1  1  0.11455700  0.80999000  0.87065300  1
  V  V2  1  0.88549200  0.18994400  0.12078600  1
  V  V3  1  0.11440100  0.81015700  0.37072200  1
  O  O0  1  0.92636000  0.13124700  0.37082600  1
  O  O1  1  0.92641000  0.13118800  0.87083300  1
  O  O2  1  0.07367100  0.86877900  0.12082200  1
  O  O3  1  0.07359300  0.86881400  0.62084100  1
  O  O4  1  0.68882000  0.46458400  0.12115400  1
  O  O5  1  0.68890000  0.46440600  0.62117400  1
  O  O6  1  0.31109200  0.53550200  0.37090700  1
  O  O7  1  0.31114500  0.53546900  0.87090300  1
  F  F0  1  0.85387000  0.75848900  0.37089200  1
  F  F1  1  0.85396600  0.75842300  0.87086500  1
  F  F2  1  0.14612100  0.24161100  0.12073100  1
  F  F3  1  0.14603200  0.24159200  0.62080100  1
  F  F4  1  0.40593700  0.84641300  0.37079400  1
  F  F5  1  0.40597000  0.84634500  0.87075500  1
  F  F6  1  0.59408000  0.15360400  0.12036500  1
  F  F7  1  0.59401300  0.15364500  0.62048900  1
loop_
_geom_bond_atom_site_label_1
_geom_bond_atom_site_label_2
_geom_bond_distance
_geom_bond_site_symmetry_2
Na0 O4 2.404367 1_555
Na1 O5 2.405162 1_555
Na2 O6 2.404595 1_555
Na3 O7 2.404558 1_555
Li0 O5 2.020126 1_555
Li0 O4 2.020296 1_555
Li0 O6 2.036627 1_555
Li1 O4 2.019622 1_556
Li1 O5 2.020330 1_555
Li1 O7 2.036766 1_555
Li2 O6 2.019641 1_555
Li2 O7 2.020655 1_554
Li2 O4 2.036636 1_555
Li3 O7 2.019626 1_555
Li3 O6 2.020406 1_555
Li3 O5 2.036794 1_555
O0 V2 1.982811 1_555
O0 V0 1.983839 1_555
O0 V3 2.015115 1_645
O1 V0 1.981207 1_555
O1 V2 1.982240 1_556
O1 V1 2.015815 1_645
O2 V3 1.981630 1_555
O2 V1 1.983918 1_554
O2 V2 2.015633 1_465
O3 V1 1.981222 1_555
O3 V3 1.983380 1_555
O3 V0 2.015074 1_465
O4 V2 1.757932 1_555
O5 V0 1.757150 1_555
O6 V3 1.758038 1_555
O7 V1 1.757171 1_555
F0 V3 1.950293 1_655
F0 Na0 2.236096 1_555
F0 Na1 2.237312 1_555
F1 V1 1.950241 1_655
F1 Na1 2.236701 1_555
F1 Na0 2.237282 1_556
F2 V2 1.950936 1_455
F2 Na2 2.236669 1_555
F2 Na3 2.237208 1_554
F3 V0 1.950412 1_455
F3 Na2 2.237049 1_555
F3 Na3 2.237092 1_555
F4 Li0 1.939725 1_555
F4 V3 2.090098 1_555
F4 Na2 2.261021 1_565
F4 Na0 2.557160 1_555
F4 Na1 2.557582 1_555
F5 Li1 1.939533 1_555
F5 V1 2.089686 1_555
F5 Na3 2.261147 1_565
F5 Na1 2.556269 1_555
F5 Na0 2.558471 1_556
F6 Li2 1.939554 1_555
F6 V2 2.089620 1_555
F6 Na0 2.261068 1_545
F6 Na3 2.554223 1_554
F6 Na2 2.560435 1_555
F7 Li3 1.939581 1_555
F7 V0 2.089769 1_555
F7 Na1 2.261303 1_545
F7 Na2 2.555562 1_555
F7 Na3 2.558370 1_555
