# generated using pymatgen
data_Li6NbCo3(PO4)6
_symmetry_space_group_name_H-M   'P 1'
_cell_length_a   8.70881500
_cell_length_b   8.74863803
_cell_length_c   8.76159972
_cell_angle_alpha   60.80267655
_cell_angle_beta   60.60740216
_cell_angle_gamma   61.15822589
_symmetry_Int_Tables_number   1
_chemical_formula_structural   Li6NbCo3(PO4)6
_chemical_formula_sum   'Li6 Nb1 Co3 P6 O24'
_cell_volume   481.11707710
_cell_formula_units_Z   1
loop_
 _symmetry_equiv_pos_site_id
 _symmetry_equiv_pos_as_xyz
  1  'x, y, z'
loop_
 _atom_site_type_symbol
 _atom_site_label
 _atom_site_symmetry_multiplicity
 _atom_site_fract_x
 _atom_site_fract_y
 _atom_site_fract_z
 _atom_site_occupancy
  Li  Li0  1  0.03441900  0.02098400  0.01162500  1
  Li  Li1  1  0.73708300  0.16120700  0.35604900  1
  Li  Li2  1  0.47223900  0.50048400  0.49088000  1
  Li  Li3  1  0.30984700  0.83615900  0.64364600  1
  Li  Li4  1  0.64568200  0.31428700  0.83148000  1
  Li  Li5  1  0.83458700  0.64395900  0.31271400  1
  Nb  Nb0  1  0.85282000  0.85094300  0.85267000  1
  Co  Co0  1  0.14812600  0.15207000  0.14087500  1
  Co  Co1  1  0.35552900  0.36166200  0.35260900  1
  Co  Co2  1  0.65118800  0.65090400  0.64936700  1
  P  P0  1  0.05121300  0.75030100  0.43883100  1
  P  P1  1  0.44426200  0.04896000  0.74681400  1
  P  P2  1  0.74977500  0.44196700  0.04575100  1
  P  P3  1  0.24970100  0.53929200  0.95876800  1
  P  P4  1  0.54111500  0.96178600  0.25241000  1
  P  P5  1  0.95569900  0.25041700  0.53300500  1
  O  O0  1  0.13063700  0.27073600  0.50644000  1
  O  O1  1  0.27938100  0.52260100  0.12289800  1
  O  O2  1  0.06256700  0.92148600  0.26122700  1
  O  O3  1  0.54415700  0.11810700  0.28236700  1
  O  O4  1  0.23485000  0.59477700  0.44099100  1
  O  O5  1  0.98400200  0.81392700  0.61121900  1
  O  O6  1  0.26041400  0.08436300  0.90458500  1
  O  O7  1  0.47384600  0.22207200  0.57795600  1
  O  O8  1  0.59579700  0.43964500  0.23498000  1
  O  O9  1  0.17864900  0.38689900  0.00242000  1
  O  O10  1  0.09926000  0.73746300  0.90365500  1
  O  O11  1  0.38012200  0.01577400  0.19189100  1
  O  O12  1  0.61267000  0.97647000  0.81852900  1
  O  O13  1  0.90615900  0.25478900  0.07558700  1
  O  O14  1  0.81821500  0.60847200  0.98300800  1
  O  O15  1  0.41841500  0.54544900  0.77608500  1
  O  O16  1  0.54567700  0.77852100  0.41978700  1
  O  O17  1  0.73705200  0.90290300  0.09692900  1
  O  O18  1  0.97141400  0.19201000  0.38458500  1
  O  O19  1  0.77653700  0.42111200  0.54900400  1
  O  O20  1  0.46555400  0.89341200  0.69642900  1
  O  O21  1  0.90398200  0.09715200  0.73369800  1
  O  O22  1  0.69253100  0.47122300  0.89215700  1
  O  O23  1  0.89482400  0.69425600  0.46707800  1
loop_
_geom_bond_atom_site_label_1
_geom_bond_atom_site_label_2
_geom_bond_distance
_geom_bond_site_symmetry_2
Li0 O6 1.947899 1_554
Li0 O13 2.011296 1_455
Li0 O2 2.015807 1_545
Li1 O8 2.107477 1_555
Li1 O13 2.127288 1_555
Li1 O7 2.185501 1_555
Li1 O3 2.301145 1_555
Li1 O18 2.323128 1_555
Li1 O2 2.603144 1_645
Li2 O4 2.008844 1_555
Li2 O7 2.163238 1_555
Li2 O8 2.170652 1_555
Li2 O15 2.500028 1_555
Li2 O16 2.519018 1_555
Li2 O19 2.639836 1_555
Li3 O20 1.949465 1_555
Li3 O16 2.081110 1_555
Li3 O15 2.141612 1_555
Li3 O10 2.192343 1_555
Li4 O22 1.949267 1_555
Li4 O19 2.073600 1_555
Li4 O15 2.089584 1_555
Li4 O21 2.230736 1_555
Li5 O23 1.948791 1_555
Li5 O19 2.080448 1_555
Li5 O16 2.121185 1_555
Li5 O17 2.229166 1_555
Nb0 O12 1.935777 1_555
Nb0 O14 1.952005 1_555
Nb0 O5 1.955634 1_555
Nb0 O17 2.047487 1_556
Nb0 O21 2.050423 1_565
Nb0 O10 2.060109 1_655
Co0 O9 1.881967 1_555
Co0 O11 1.935414 1_555
Co0 O18 2.008351 1_455
Co0 O6 2.059991 1_554
Co0 O2 2.083312 1_545
Co0 O13 2.104745 1_455
Co1 O1 2.029153 1_555
Co1 O0 2.037455 1_555
Co1 O8 2.116711 1_555
Co1 O3 2.127798 1_555
Co1 O4 2.130149 1_555
Co1 O7 2.209490 1_555
Co2 O23 2.013875 1_555
Co2 O22 2.017200 1_555
Co2 O20 2.043254 1_555
Co2 O19 2.161403 1_555
Co2 O16 2.184116 1_555
Co2 O15 2.188398 1_555
O0 P5 1.509863 1_455
O1 P3 1.509856 1_554
O2 P0 1.546697 1_555
O3 P4 1.527056 1_545
O4 P0 1.521352 1_555
O5 P0 1.603707 1_655
O6 P1 1.528747 1_555
O7 P1 1.537901 1_555
O8 P2 1.535745 1_555
O9 P3 1.540391 1_554
O10 P3 1.602574 1_555
O11 P4 1.522007 1_545
O12 P1 1.602012 1_565
O13 P2 1.544305 1_555
O14 P2 1.585613 1_556
O15 P3 1.551595 1_555
O16 P4 1.557103 1_555
O17 P4 1.608642 1_555
O18 P5 1.541750 1_555
O19 P5 1.557493 1_555
O20 P1 1.530830 1_565
O21 P5 1.611723 1_555
O22 P2 1.524599 1_556
O23 P0 1.533502 1_655
