# generated using pymatgen
data_TiVO3
_symmetry_space_group_name_H-M   'P 1'
_cell_length_a   5.48569476
_cell_length_b   5.48635649
_cell_length_c   5.48613824
_cell_angle_alpha   55.53961709
_cell_angle_beta   55.53771498
_cell_angle_gamma   55.53513502
_symmetry_Int_Tables_number   1
_chemical_formula_structural   TiVO3
_chemical_formula_sum   'Ti2 V2 O6'
_cell_volume   104.65784906
_cell_formula_units_Z   2
loop_
 _symmetry_equiv_pos_site_id
 _symmetry_equiv_pos_as_xyz
  1  'x, y, z'
loop_
 _atom_site_type_symbol
 _atom_site_label
 _atom_site_symmetry_multiplicity
 _atom_site_fract_x
 _atom_site_fract_y
 _atom_site_fract_z
 _atom_site_occupancy
  Ti  Ti0  1  0.14712769  0.14713453  0.14713304  1
  Ti  Ti1  1  0.85287669  0.85286810  0.85287092  1
  V  V0  1  0.34734012  0.34728015  0.34736802  1
  V  V1  1  0.65266232  0.65272507  0.65263290  1
  O  O0  1  0.05423217  0.76600132  0.43686973  1
  O  O1  1  0.43680071  0.05423849  0.76606118  1
  O  O2  1  0.76603030  0.43685246  0.05418989  1
  O  O3  1  0.23387266  0.56310931  0.94593888  1
  O  O4  1  0.56316092  0.94589153  0.23384043  1
  O  O5  1  0.94589643  0.23390004  0.56309401  1
loop_
_geom_bond_atom_site_label_1
_geom_bond_atom_site_label_2
_geom_bond_distance
_geom_bond_site_symmetry_2
O0 Ti0 1.920056 1_565
O0 V0 2.075146 1_555
O0 V1 2.099053 1_455
O0 Ti1 2.106644 1_455
O1 Ti0 1.919631 1_556
O1 V0 2.074950 1_555
O1 V1 2.099290 1_545
O1 Ti1 2.106609 1_545
O2 Ti0 1.919712 1_655
O2 V0 2.075079 1_555
O2 V1 2.099253 1_554
O2 Ti1 2.106807 1_554
O3 Ti1 1.919580 1_455
O3 V1 2.075629 1_555
O3 V0 2.098982 1_556
O3 Ti0 2.106448 1_556
O4 Ti1 1.919501 1_554
O4 V1 2.075492 1_555
O4 V0 2.099031 1_565
O4 Ti0 2.106242 1_565
O5 Ti1 1.919923 1_545
O5 V1 2.075700 1_555
O5 V0 2.098797 1_655
O5 Ti0 2.106288 1_655
