# generated using pymatgen
data_CsUCuSe3
_symmetry_space_group_name_H-M   'P 1'
_cell_length_a   8.34407756
_cell_length_b   8.34407756
_cell_length_c   10.72699600
_cell_angle_alpha   90.00000000
_cell_angle_beta   90.00000000
_cell_angle_gamma   151.22574369
_symmetry_Int_Tables_number   1
_chemical_formula_structural   CsUCuSe3
_chemical_formula_sum   'Cs2 U2 Cu2 Se6'
_cell_volume   359.50479151
_cell_formula_units_Z   2
loop_
 _symmetry_equiv_pos_site_id
 _symmetry_equiv_pos_as_xyz
  1  'x, y, z'
loop_
 _atom_site_type_symbol
 _atom_site_label
 _atom_site_symmetry_multiplicity
 _atom_site_fract_x
 _atom_site_fract_y
 _atom_site_fract_z
 _atom_site_occupancy
  Cs  Cs0  1  0.25685200  0.74314800  0.75000000  1
  Cs  Cs1  1  0.74314800  0.25685200  0.25000000  1
  U  U0  1  0.00000000  0.00000000  0.00000000  1
  U  U1  1  0.00000000  0.00000000  0.50000000  1
  Cu  Cu0  1  0.53118700  0.46881300  0.75000000  1
  Cu  Cu1  1  0.46881300  0.53118700  0.25000000  1
  Se  Se0  1  0.61460000  0.38540000  0.55937200  1
  Se  Se1  1  0.38540000  0.61460000  0.44062800  1
  Se  Se2  1  0.05695500  0.94304500  0.25000000  1
  Se  Se3  1  0.94304500  0.05695500  0.75000000  1
  Se  Se4  1  0.61460000  0.38540000  0.94062800  1
  Se  Se5  1  0.38540000  0.61460000  0.05937200  1
loop_
_geom_bond_atom_site_label_1
_geom_bond_atom_site_label_2
_geom_bond_distance
_geom_bond_site_symmetry_2
Cs0 Se3 3.654748 1_455
Cs0 Se3 3.654748 1_565
Cs0 Se4 3.710461 1_455
Cs0 Se4 3.710461 1_565
Cs0 Se0 3.710461 1_455
Cs0 Se0 3.710461 1_565
Cs0 Se5 3.915508 1_556
Cs0 Se1 3.915508 1_555
Cs1 Se2 3.654748 1_545
Cs1 Se2 3.654748 1_655
Cs1 Se1 3.710461 1_545
Cs1 Se1 3.710461 1_655
Cs1 Se5 3.710461 1_545
Cs1 Se5 3.710461 1_655
Cs1 Se0 3.915508 1_555
Cs1 Se4 3.915508 1_554
Cu0 Se4 2.449395 1_555
Cu0 Se0 2.449395 1_555
Cu0 Se3 2.515652 1_565
Cu0 Se3 2.515652 1_455
Cu1 Se1 2.449395 1_555
Cu1 Se5 2.449395 1_555
Cu1 Se2 2.515652 1_655
Cu1 Se2 2.515652 1_545
Se0 U1 2.852329 1_555
Se0 U1 2.852329 1_665
Se1 U1 2.852329 1_555
Se1 U1 2.852329 1_665
Se2 U0 2.835384 1_565
Se2 U1 2.835384 1_565
Se3 U1 2.835384 1_655
Se3 U0 2.835384 1_656
Se4 U0 2.852329 1_556
Se4 U0 2.852329 1_666
Se5 U0 2.852329 1_665
Se5 U0 2.852329 1_555
