# generated using pymatgen
data_Li2Cu2(Si2O5)3
_symmetry_space_group_name_H-M   'P 1'
_cell_length_a   11.22073612
_cell_length_b   11.22073612
_cell_length_c   10.18600100
_cell_angle_alpha   90.00000000
_cell_angle_beta   90.00000000
_cell_angle_gamma   100.11588313
_symmetry_Int_Tables_number   1
_chemical_formula_structural   Li2Cu2(Si2O5)3
_chemical_formula_sum   'Li8 Cu8 Si24 O60'
_cell_volume   1262.53106752
_cell_formula_units_Z   4
loop_
 _symmetry_equiv_pos_site_id
 _symmetry_equiv_pos_as_xyz
  1  'x, y, z'
loop_
 _atom_site_type_symbol
 _atom_site_label
 _atom_site_symmetry_multiplicity
 _atom_site_fract_x
 _atom_site_fract_y
 _atom_site_fract_z
 _atom_site_occupancy
  Li  Li0  1  0.49618900  0.00381100  0.25000000  1
  Li  Li1  1  0.00381100  0.49618900  0.75000000  1
  Li  Li2  1  0.59713300  0.40286700  0.74296900  1
  Li  Li3  1  0.90286700  0.09713300  0.24296900  1
  Li  Li4  1  0.40286700  0.59713300  0.25703100  1
  Li  Li5  1  0.09713300  0.90286700  0.75703100  1
  Li  Li6  1  0.99618900  0.50381100  0.25000000  1
  Li  Li7  1  0.50381100  0.99618900  0.75000000  1
  Cu  Cu0  1  0.24767500  0.24767500  0.00000000  1
  Cu  Cu1  1  0.15786500  0.34213500  0.25000000  1
  Cu  Cu2  1  0.34213500  0.15786500  0.75000000  1
  Cu  Cu3  1  0.25232500  0.25232500  0.50000000  1
  Cu  Cu4  1  0.74767500  0.74767500  0.50000000  1
  Cu  Cu5  1  0.84213500  0.65786500  0.75000000  1
  Cu  Cu6  1  0.65786500  0.84213500  0.25000000  1
  Cu  Cu7  1  0.75232500  0.75232500  0.00000000  1
  Si  Si0  1  0.18106300  0.04192800  0.18707300  1
  Si  Si1  1  0.04192800  0.18106300  0.81292700  1
  Si  Si2  1  0.57979500  0.19471200  0.54396900  1
  Si  Si3  1  0.19471200  0.57979500  0.45603100  1
  Si  Si4  1  0.07979500  0.69471200  0.95603100  1
  Si  Si5  1  0.69471200  0.07979500  0.04396900  1
  Si  Si6  1  0.31893700  0.45807200  0.68707300  1
  Si  Si7  1  0.45807200  0.31893700  0.31292700  1
  Si  Si8  1  0.76073700  0.01759900  0.51573300  1
  Si  Si9  1  0.51759900  0.26073700  0.01573300  1
  Si  Si10  1  0.01759900  0.76073700  0.48426700  1
  Si  Si11  1  0.26073700  0.51759900  0.98426700  1
  Si  Si12  1  0.98240100  0.23926300  0.51573300  1
  Si  Si13  1  0.73926300  0.48240100  0.01573300  1
  Si  Si14  1  0.23926300  0.98240100  0.48426700  1
  Si  Si15  1  0.48240100  0.73926300  0.98426700  1
  Si  Si16  1  0.68106300  0.54192800  0.31292700  1
  Si  Si17  1  0.54192800  0.68106300  0.68707300  1
  Si  Si18  1  0.92020500  0.30528800  0.04396900  1
  Si  Si19  1  0.42020500  0.80528800  0.45603100  1
  Si  Si20  1  0.80528800  0.42020500  0.54396900  1
  Si  Si21  1  0.30528800  0.92020500  0.95603100  1
  Si  Si22  1  0.95807200  0.81893700  0.18707300  1
  Si  Si23  1  0.81893700  0.95807200  0.81292700  1
  O  O0  1  0.24476700  0.02312800  0.32877400  1
  O  O1  1  0.02312800  0.24476700  0.67122600  1
  O  O2  1  0.15471400  0.17588700  0.15534900  1
  O  O3  1  0.17588700  0.15471400  0.84465100  1
  O  O4  1  0.09347800  0.23624100  0.41693700  1
  O  O5  1  0.23624100  0.09347800  0.58306300  1
  O  O6  1  0.26375900  0.40652200  0.08306300  1
  O  O7  1  0.40652200  0.26375900  0.91693700  1
  O  O8  1  0.34528600  0.32411300  0.65534900  1
  O  O9  1  0.32411300  0.34528600  0.34465100  1
  O  O10  1  0.65676300  0.01254400  0.18036500  1
  O  O11  1  0.01254400  0.65676300  0.81963500  1
  O  O12  1  0.15676300  0.51254400  0.31963500  1
  O  O13  1  0.51254400  0.15676300  0.68036500  1
  O  O14  1  0.22262300  0.49450900  0.57931300  1
  O  O15  1  0.99450900  0.72262300  0.07931300  1
  O  O16  1  0.72262300  0.99450900  0.92068700  1
  O  O17  1  0.49450900  0.22262300  0.42068700  1
  O  O18  1  0.14370300  0.58342700  0.01065100  1
  O  O19  1  0.64370300  0.08342700  0.48934900  1
  O  O20  1  0.08342700  0.64370300  0.51065100  1
  O  O21  1  0.58342700  0.14370300  0.98934900  1
  O  O22  1  0.47687200  0.25523300  0.17122600  1
  O  O23  1  0.25523300  0.47687200  0.82877400  1
  O  O24  1  0.61816300  0.38183700  0.98238600  1
  O  O25  1  0.95092000  0.04908000  0.81813900  1
  O  O26  1  0.88183700  0.11816300  0.48238600  1
  O  O27  1  0.32041100  0.67958900  0.42802200  1
  O  O28  1  0.04908000  0.95092000  0.18186100  1
  O  O29  1  0.17958900  0.82041100  0.92802200  1
  O  O30  1  0.45092000  0.54908000  0.68186100  1
  O  O31  1  0.11816300  0.88183700  0.51761400  1
  O  O32  1  0.38183700  0.61816300  0.01761400  1
  O  O33  1  0.82041100  0.17958900  0.07197800  1
  O  O34  1  0.54908000  0.45092000  0.31813900  1
  O  O35  1  0.67958900  0.32041100  0.57197800  1
  O  O36  1  0.74476700  0.52312800  0.17122600  1
  O  O37  1  0.52312800  0.74476700  0.82877400  1
  O  O38  1  0.85629700  0.41657300  0.98934900  1
  O  O39  1  0.41657300  0.85629700  0.01065100  1
  O  O40  1  0.35629700  0.91657300  0.51065100  1
  O  O41  1  0.91657300  0.35629700  0.48934900  1
  O  O42  1  0.00549100  0.27737700  0.92068700  1
  O  O43  1  0.77737700  0.50549100  0.42068700  1
  O  O44  1  0.50549100  0.77737700  0.57931300  1
  O  O45  1  0.27737700  0.00549100  0.07931300  1
  O  O46  1  0.98745600  0.34323700  0.18036500  1
  O  O47  1  0.48745600  0.84323700  0.31963500  1
  O  O48  1  0.34323700  0.98745600  0.81963500  1
  O  O49  1  0.84323700  0.48745600  0.68036500  1
  O  O50  1  0.65471400  0.67588700  0.34465100  1
  O  O51  1  0.67588700  0.65471400  0.65534900  1
  O  O52  1  0.59347800  0.73624100  0.08306300  1
  O  O53  1  0.73624100  0.59347800  0.91693700  1
  O  O54  1  0.76375900  0.90652200  0.41693700  1
  O  O55  1  0.90652200  0.76375800  0.58306300  1
  O  O56  1  0.82411300  0.84528600  0.15534900  1
  O  O57  1  0.84528600  0.82411300  0.84465100  1
  O  O58  1  0.97687200  0.75523300  0.32877400  1
  O  O59  1  0.75523300  0.97687200  0.67122600  1
loop_
_geom_bond_atom_site_label_1
_geom_bond_atom_site_label_2
_geom_bond_distance
_geom_bond_site_symmetry_2
Li0 O47 1.922765 1_545
Li0 O10 1.922765 1_555
Li1 O49 1.922765 1_455
Li1 O11 1.922765 1_555
Li2 O35 2.246403 1_555
Li2 O24 2.465399 1_555
Li2 O30 2.591564 1_555
Li3 O33 2.246403 1_555
Li3 O26 2.465399 1_555
Li3 O28 2.591564 1_645
Li4 O27 2.246403 1_555
Li4 O32 2.465399 1_555
Li4 O34 2.591564 1_555
Li5 O29 2.246403 1_555
Li5 O31 2.465399 1_555
Li5 O25 2.591564 1_465
Li6 O12 1.922765 1_655
Li6 O46 1.922765 1_555
Li7 O13 1.922765 1_565
Li7 O48 1.922765 1_555
Cu0 O7 1.952512 1_554
Cu0 O6 1.952512 1_555
Cu0 O2 1.986374 1_555
Cu0 O3 1.986374 1_554
Cu1 O46 2.041507 1_455
Cu1 O12 2.041507 1_555
Cu1 O2 2.094614 1_555
Cu1 O9 2.094614 1_555
Cu1 O6 2.126894 1_555
Cu1 O4 2.126894 1_555
Cu2 O48 2.041507 1_545
Cu2 O13 2.041507 1_555
Cu2 O3 2.094614 1_555
Cu2 O8 2.094614 1_555
Cu2 O7 2.126894 1_555
Cu2 O5 2.126894 1_555
Cu3 O4 1.952512 1_555
Cu3 O5 1.952512 1_555
Cu3 O8 1.986374 1_555
Cu3 O9 1.986374 1_555
Cu4 O54 1.952512 1_555
Cu4 O55 1.952513 1_555
Cu4 O51 1.986374 1_555
Cu4 O50 1.986374 1_555
Cu5 O49 2.041507 1_555
Cu5 O11 2.041507 1_655
Cu5 O51 2.094614 1_555
Cu5 O57 2.094614 1_555
Cu5 O55 2.126888 1_555
Cu5 O53 2.126894 1_555
Cu6 O47 2.041507 1_555
Cu6 O10 2.041507 1_565
Cu6 O50 2.094614 1_555
Cu6 O56 2.094614 1_555
Cu6 O54 2.126894 1_555
Cu6 O52 2.126894 1_555
Cu7 O53 1.952512 1_554
Cu7 O52 1.952512 1_555
Cu7 O56 1.986374 1_555
Cu7 O57 1.986374 1_554
O0 Si0 1.640647 1_555
O0 Si14 1.646610 1_545
O1 Si1 1.640647 1_555
O1 Si12 1.646610 1_455
O2 Si0 1.614716 1_555
O3 Si1 1.614716 1_555
O4 Si12 1.606903 1_455
O5 Si14 1.606903 1_545
O6 Si11 1.606903 1_554
O7 Si9 1.606903 1_556
O8 Si6 1.614716 1_555
O9 Si7 1.614716 1_555
O10 Si5 1.602533 1_555
O11 Si4 1.602533 1_555
O12 Si3 1.602533 1_555
O13 Si2 1.602533 1_555
O14 Si6 1.641687 1_555
O14 Si3 1.641971 1_555
O15 Si22 1.641687 1_555
O15 Si4 1.641971 1_654
O16 Si23 1.641687 1_555
O16 Si5 1.641971 1_566
O17 Si7 1.641687 1_555
O17 Si2 1.641971 1_555
O18 Si11 1.638006 1_554
O18 Si4 1.642425 1_554
O19 Si8 1.638006 1_555
O19 Si2 1.642425 1_555
O20 Si10 1.638006 1_555
O20 Si3 1.642425 1_555
O21 Si9 1.638006 1_556
O21 Si5 1.642425 1_556
O22 Si7 1.640647 1_555
O22 Si9 1.646610 1_555
O23 Si6 1.640647 1_555
O23 Si11 1.646610 1_555
O24 Si13 1.642094 1_556
O24 Si9 1.642094 1_556
O25 Si1 1.645473 1_655
O25 Si23 1.645473 1_545
O26 Si8 1.642094 1_555
O26 Si12 1.642094 1_555
O27 Si19 1.664271 1_555
O27 Si3 1.664271 1_555
O28 Si0 1.645473 1_565
O28 Si22 1.645473 1_455
O29 Si21 1.664271 1_555
O29 Si4 1.664271 1_555
O30 Si17 1.645473 1_555
O30 Si6 1.645473 1_555
O31 Si10 1.642094 1_555
O31 Si14 1.642094 1_555
O32 Si15 1.642094 1_554
O32 Si11 1.642094 1_554
O33 Si18 1.664271 1_555
O33 Si5 1.664271 1_555
O34 Si16 1.645473 1_555
O34 Si7 1.645473 1_555
O35 Si20 1.664271 1_555
O35 Si2 1.664271 1_555
O36 Si16 1.640647 1_555
O36 Si13 1.646610 1_555
O37 Si17 1.640647 1_555
O37 Si15 1.646610 1_555
O38 Si13 1.638006 1_556
O38 Si18 1.642425 1_556
O39 Si15 1.638006 1_554
O39 Si21 1.642425 1_554
O40 Si14 1.638006 1_555
O40 Si19 1.642425 1_555
O41 Si12 1.638006 1_555
O41 Si20 1.642425 1_555
O42 Si1 1.641687 1_555
O42 Si18 1.641971 1_456
O43 Si16 1.641687 1_555
O43 Si20 1.641971 1_555
O44 Si17 1.641687 1_555
O44 Si19 1.641971 1_555
O45 Si0 1.641687 1_555
O45 Si21 1.641971 1_544
O46 Si18 1.602533 1_555
O47 Si19 1.602533 1_555
O48 Si21 1.602533 1_555
O49 Si20 1.602533 1_555
O50 Si16 1.614716 1_555
O51 Si17 1.614716 1_555
O52 Si15 1.606903 1_554
O53 Si13 1.606903 1_556
O54 Si8 1.606903 1_565
O55 Si10 1.606901 1_655
O56 Si22 1.614716 1_555
O57 Si23 1.614716 1_555
O58 Si22 1.640647 1_555
O58 Si10 1.646610 1_655
O59 Si23 1.640647 1_555
O59 Si8 1.646610 1_565
