# generated using pymatgen
data_Li3Co(BO3)2
_symmetry_space_group_name_H-M   'P 1'
_cell_length_a   8.85770400
_cell_length_b   5.16921000
_cell_length_c   10.98636972
_cell_angle_alpha   62.97096171
_cell_angle_beta   90.00000000
_cell_angle_gamma   90.00000000
_symmetry_Int_Tables_number   1
_chemical_formula_structural   Li3Co(BO3)2
_chemical_formula_sum   'Li12 Co4 B8 O24'
_cell_volume   448.09305523
_cell_formula_units_Z   4
loop_
 _symmetry_equiv_pos_site_id
 _symmetry_equiv_pos_as_xyz
  1  'x, y, z'
loop_
 _atom_site_type_symbol
 _atom_site_label
 _atom_site_symmetry_multiplicity
 _atom_site_fract_x
 _atom_site_fract_y
 _atom_site_fract_z
 _atom_site_occupancy
  Li  Li0  1  0.97738000  0.50555300  0.33240500  1
  Li  Li1  1  0.66080100  0.45012400  0.38217800  1
  Li  Li2  1  0.98953400  0.92458400  0.89923700  1
  Li  Li3  1  0.16080100  0.54987600  0.11782200  1
  Li  Li4  1  0.48953400  0.07541600  0.60076300  1
  Li  Li5  1  0.47738000  0.49444700  0.16759500  1
  Li  Li6  1  0.52262000  0.50555300  0.83240500  1
  Li  Li7  1  0.51046600  0.92458400  0.39923700  1
  Li  Li8  1  0.83919900  0.45012400  0.88217800  1
  Li  Li9  1  0.01046600  0.07541600  0.10076300  1
  Li  Li10  1  0.33919900  0.54987600  0.61782200  1
  Li  Li11  1  0.02262000  0.49444700  0.66759500  1
  Co  Co0  1  0.33318700  0.97097600  0.87622300  1
  Co  Co1  1  0.83318700  0.02902400  0.62377700  1
  Co  Co2  1  0.16681300  0.97097600  0.37622300  1
  Co  Co3  1  0.66681300  0.02902400  0.12377700  1
  B  B0  1  0.32383300  0.45452700  0.37928900  1
  B  B1  1  0.66466100  0.96617700  0.87051800  1
  B  B2  1  0.82383300  0.54547300  0.12071100  1
  B  B3  1  0.16466100  0.03382300  0.62948200  1
  B  B4  1  0.83533900  0.96617700  0.37051800  1
  B  B5  1  0.17616700  0.45452700  0.87928900  1
  B  B6  1  0.33533900  0.03382300  0.12948200  1
  B  B7  1  0.67616700  0.54547300  0.62071100  1
  O  O0  1  0.32965000  0.82421700  0.08432100  1
  O  O1  1  0.67058300  0.30585300  0.59505100  1
  O  O2  1  0.95377600  0.69242400  0.11914500  1
  O  O3  1  0.02453900  0.15199100  0.63822900  1
  O  O4  1  0.29173300  0.13468800  0.66698900  1
  O  O5  1  0.68507000  0.63396000  0.14914700  1
  O  O6  1  0.18507000  0.36604000  0.35085300  1
  O  O7  1  0.79173300  0.86531200  0.83301100  1
  O  O8  1  0.52453900  0.84800900  0.86177100  1
  O  O9  1  0.45377600  0.30757600  0.38085500  1
  O  O10  1  0.82965000  0.17578300  0.41567900  1
  O  O11  1  0.17058300  0.69414700  0.90494900  1
  O  O12  1  0.82941700  0.30585300  0.09505100  1
  O  O13  1  0.17035000  0.82421700  0.58432100  1
  O  O14  1  0.54622400  0.69242400  0.61914500  1
  O  O15  1  0.47546100  0.15199100  0.13822900  1
  O  O16  1  0.20826700  0.13468800  0.16698900  1
  O  O17  1  0.81493000  0.63396000  0.64914700  1
  O  O18  1  0.31493000  0.36604000  0.85085300  1
  O  O19  1  0.70826700  0.86531200  0.33301100  1
  O  O20  1  0.97546100  0.84800900  0.36177100  1
  O  O21  1  0.04622400  0.30757600  0.88085500  1
  O  O22  1  0.32941700  0.69414700  0.40494900  1
  O  O23  1  0.67035000  0.17578300  0.91567900  1
loop_
_geom_bond_atom_site_label_1
_geom_bond_atom_site_label_2
_geom_bond_distance
_geom_bond_site_symmetry_2
Li0 O20 1.938340 1_555
Li0 O6 1.952602 1_655
Li0 O10 2.009400 1_555
Li0 O2 2.099817 1_555
Li1 O10 1.977124 1_555
Li1 O9 1.978789 1_555
Li1 O19 2.005250 1_555
Li1 O1 2.109026 1_555
Li1 O5 2.300540 1_555
Li2 O21 1.961892 1_665
Li2 O7 1.973724 1_555
Li2 O11 1.981587 1_655
Li2 O2 2.177687 1_556
Li3 O0 1.977124 1_555
Li3 O2 1.978789 1_455
Li3 O16 2.005250 1_555
Li3 O11 2.109026 1_554
Li3 O6 2.300540 1_555
Li4 O14 1.961892 1_545
Li4 O4 1.973724 1_555
Li4 O1 1.981587 1_555
Li4 O9 2.177687 1_555
Li5 O15 1.938340 1_555
Li5 O5 1.952602 1_555
Li5 O0 2.009400 1_555
Li5 O9 2.099817 1_555
Li6 O8 1.938340 1_555
Li6 O18 1.952602 1_555
Li6 O23 2.009400 1_555
Li6 O14 2.099817 1_555
Li7 O9 1.961892 1_565
Li7 O19 1.973724 1_555
Li7 O22 1.981587 1_555
Li7 O14 2.177687 1_555
Li8 O23 1.977124 1_555
Li8 O21 1.978789 1_655
Li8 O7 2.005250 1_555
Li8 O12 2.109026 1_556
Li8 O17 2.300540 1_555
Li9 O2 1.961892 1_445
Li9 O16 1.973724 1_555
Li9 O12 1.981587 1_455
Li9 O21 2.177687 1_554
Li10 O13 1.977124 1_555
Li10 O14 1.978789 1_555
Li10 O4 2.005250 1_555
Li10 O22 2.109026 1_555
Li10 O18 2.300540 1_555
Li11 O3 1.938340 1_555
Li11 O17 1.952602 1_455
Li11 O13 2.009400 1_555
Li11 O21 2.099817 1_555
Co0 O8 1.842226 1_555
Co0 O18 1.938286 1_565
Co0 O11 1.952260 1_555
Co0 O0 2.055973 1_556
Co0 O4 2.089746 1_565
Co1 O3 1.842226 1_655
Co1 O17 1.938286 1_545
Co1 O1 1.952260 1_555
Co1 O10 2.055973 1_555
Co1 O7 2.089746 1_545
Co2 O20 1.842226 1_455
Co2 O6 1.938286 1_565
Co2 O22 1.952260 1_555
Co2 O13 2.055973 1_555
Co2 O16 2.089746 1_565
Co3 O15 1.842226 1_555
Co3 O5 1.938286 1_545
Co3 O12 1.952260 1_555
Co3 O23 2.055973 1_554
Co3 O19 2.089746 1_545
B0 O9 1.374858 1_555
B0 O22 1.390516 1_555
B0 O6 1.395507 1_555
B1 O7 1.379790 1_555
B1 O23 1.382489 1_565
B1 O8 1.405767 1_555
B2 O2 1.374858 1_555
B2 O12 1.390516 1_555
B2 O5 1.395507 1_555
B3 O4 1.379790 1_555
B3 O13 1.382489 1_545
B3 O3 1.405767 1_555
B4 O19 1.379790 1_555
B4 O10 1.382489 1_565
B4 O20 1.405767 1_555
B5 O21 1.374858 1_555
B5 O11 1.390516 1_555
B5 O18 1.395507 1_555
B6 O16 1.379790 1_555
B6 O0 1.382489 1_545
B6 O15 1.405767 1_555
B7 O14 1.374858 1_555
B7 O1 1.390516 1_555
B7 O17 1.395507 1_555
