# generated using pymatgen
data_Na4Sn5O12
_symmetry_space_group_name_H-M   'P 1'
_cell_length_a   5.87903900
_cell_length_b   10.24904461
_cell_length_c   10.84257218
_cell_angle_alpha   72.83433413
_cell_angle_beta   77.60215492
_cell_angle_gamma   78.62055180
_symmetry_Int_Tables_number   1
_chemical_formula_structural   Na4Sn5O12
_chemical_formula_sum   'Na8 Sn10 O24'
_cell_volume   603.34349914
_cell_formula_units_Z   2
loop_
 _symmetry_equiv_pos_site_id
 _symmetry_equiv_pos_as_xyz
  1  'x, y, z'
loop_
 _atom_site_type_symbol
 _atom_site_label
 _atom_site_symmetry_multiplicity
 _atom_site_fract_x
 _atom_site_fract_y
 _atom_site_fract_z
 _atom_site_occupancy
  Na  Na0  1  0.13751600  0.41313700  0.40042000  1
  Na  Na1  1  0.34889200  0.57544500  0.11003900  1
  Na  Na2  1  0.27433600  0.90389400  0.02434900  1
  Na  Na3  1  0.30719300  0.78033900  0.55258700  1
  Na  Na4  1  0.69280700  0.21966100  0.44741300  1
  Na  Na5  1  0.72566400  0.09610600  0.97565100  1
  Na  Na6  1  0.65110800  0.42455500  0.88996100  1
  Na  Na7  1  0.86248400  0.58686300  0.59958000  1
  Sn  Sn0  1  0.26588300  0.09820500  0.26759400  1
  Sn  Sn1  1  0.18624100  0.10069600  0.68237800  1
  Sn  Sn2  1  0.18852000  0.25456100  0.93475300  1
  Sn  Sn3  1  0.11555100  0.59376200  0.85163500  1
  Sn  Sn4  1  0.40742600  0.41946500  0.64517800  1
  Sn  Sn5  1  0.59257400  0.58053500  0.35482200  1
  Sn  Sn6  1  0.88444900  0.40623800  0.14836500  1
  Sn  Sn7  1  0.81148000  0.74543900  0.06524700  1
  Sn  Sn8  1  0.81375900  0.89930400  0.31762200  1
  Sn  Sn9  1  0.73411700  0.90179500  0.73240600  1
  O  O0  1  0.05030200  0.26276400  0.29844500  1
  O  O1  1  0.22187900  0.42212000  0.01242700  1
  O  O2  1  0.34127400  0.10107300  0.08140500  1
  O  O3  1  0.10661800  0.10115600  0.86776000  1
  O  O4  1  0.06283000  0.42935300  0.77849800  1
  O  O5  1  0.09208000  0.93829600  0.37262400  1
  O  O6  1  0.31669100  0.26612200  0.57103800  1
  O  O7  1  0.27624100  0.56714600  0.48528500  1
  O  O8  1  0.56259900  0.06061800  0.34178600  1
  O  O9  1  0.13922400  0.73332800  0.94926500  1
  O  O10  1  0.56472600  0.42302500  0.26919400  1
  O  O11  1  0.49590700  0.73116100  0.18997800  1
  O  O12  1  0.50409300  0.26883900  0.81002200  1
  O  O13  1  0.43527400  0.57697500  0.73080600  1
  O  O14  1  0.86077600  0.26667200  0.05073500  1
  O  O15  1  0.43740100  0.93938200  0.65821400  1
  O  O16  1  0.72375900  0.43285400  0.51471500  1
  O  O17  1  0.68330900  0.73387800  0.42896200  1
  O  O18  1  0.90792000  0.06170400  0.62737600  1
  O  O19  1  0.93717000  0.57064700  0.22150200  1
  O  O20  1  0.89338200  0.89884400  0.13224000  1
  O  O21  1  0.65872600  0.89892700  0.91859500  1
  O  O22  1  0.77812100  0.57788000  0.98757300  1
  O  O23  1  0.94969800  0.73723600  0.70155500  1
loop_
_geom_bond_atom_site_label_1
_geom_bond_atom_site_label_2
_geom_bond_distance
_geom_bond_site_symmetry_2
Na0 O6 2.316746 1_555
Na0 O0 2.328464 1_555
Na0 O7 2.385557 1_555
Na0 O19 2.477696 1_455
Na0 O16 2.480533 1_455
Na0 O10 2.612206 1_555
Na1 O10 2.365401 1_555
Na1 O9 2.376372 1_554
Na1 O11 2.393282 1_555
Na1 O1 2.435412 1_555
Na1 O19 2.465305 1_455
Na1 O22 2.588069 1_554
Na2 O20 2.296116 1_455
Na2 O21 2.302318 1_554
Na2 O2 2.403730 1_565
Na2 O3 2.418339 1_564
Na2 O9 2.452631 1_554
Na2 O11 2.504769 1_555
Na3 O17 2.366732 1_555
Na3 O23 2.389310 1_455
Na3 O13 2.504664 1_555
Na3 O5 2.532732 1_555
Na3 O7 2.548536 1_555
Na3 O15 2.554493 1_555
Na4 O6 2.366732 1_555
Na4 O0 2.389310 1_655
Na4 O10 2.504664 1_555
Na4 O18 2.532732 1_555
Na4 O16 2.548536 1_555
Na4 O8 2.554493 1_555
Na5 O3 2.296116 1_655
Na5 O2 2.302318 1_556
Na5 O21 2.403730 1_545
Na5 O20 2.418339 1_546
Na5 O14 2.452631 1_556
Na5 O12 2.504769 1_555
Na6 O13 2.365401 1_555
Na6 O14 2.376372 1_556
Na6 O12 2.393282 1_555
Na6 O22 2.435412 1_555
Na6 O4 2.465305 1_655
Na6 O1 2.588069 1_556
Na7 O17 2.316746 1_555
Na7 O23 2.328464 1_555
Na7 O16 2.385557 1_555
Na7 O4 2.477696 1_655
Na7 O7 2.480533 1_655
Na7 O13 2.612206 1_555
O0 Sn0 1.967282 1_555
O0 Sn6 2.112836 1_455
O1 Sn3 2.179120 1_554
O1 Sn2 2.180474 1_554
O1 Sn6 2.205570 1_455
O2 Sn0 1.964342 1_555
O2 Sn2 2.094928 1_554
O3 Sn1 1.964693 1_555
O3 Sn2 2.086743 1_555
O4 Sn3 2.159773 1_555
O4 Sn2 2.202119 1_555
O4 Sn4 2.225319 1_555
O5 Sn8 2.002604 1_455
O5 Sn0 2.021500 1_565
O6 Sn1 1.956402 1_555
O6 Sn4 2.159035 1_555
O7 Sn5 2.082047 1_555
O7 Sn4 2.110902 1_555
O8 Sn0 1.998229 1_555
O8 Sn8 2.026969 1_545
O9 Sn3 2.054657 1_555
O9 Sn7 2.065614 1_456
O10 Sn6 2.055995 1_555
O10 Sn5 2.132859 1_555
O11 Sn7 2.050696 1_555
O11 Sn5 2.088546 1_555
O12 Sn2 2.050696 1_555
O12 Sn4 2.088546 1_555
O13 Sn3 2.055995 1_555
O13 Sn4 2.132859 1_555
O14 Sn6 2.054657 1_555
O14 Sn2 2.065614 1_654
O15 Sn9 1.998229 1_555
O15 Sn1 2.026969 1_565
O16 Sn4 2.082047 1_555
O16 Sn5 2.110902 1_555
O17 Sn8 1.956402 1_555
O17 Sn5 2.159035 1_555
O18 Sn1 2.002604 1_655
O18 Sn9 2.021500 1_545
O19 Sn6 2.159773 1_555
O19 Sn7 2.202119 1_555
O19 Sn5 2.225319 1_555
O20 Sn8 1.964693 1_555
O20 Sn7 2.086743 1_555
O21 Sn9 1.964342 1_555
O21 Sn7 2.094928 1_556
O22 Sn6 2.179120 1_556
O22 Sn7 2.180474 1_556
O22 Sn3 2.205570 1_655
O23 Sn9 1.967282 1_555
O23 Sn3 2.112836 1_655
