# generated using pymatgen
data_Na10Mn2O9
_symmetry_space_group_name_H-M   'P 1'
_cell_length_a   6.53032360
_cell_length_b   10.95677565
_cell_length_c   11.33643843
_cell_angle_alpha   62.58610967
_cell_angle_beta   105.54739208
_cell_angle_gamma   86.91099592
_symmetry_Int_Tables_number   1
_chemical_formula_structural   Na10Mn2O9
_chemical_formula_sum   'Na20 Mn4 O18'
_cell_volume   678.63171909
_cell_formula_units_Z   2
loop_
 _symmetry_equiv_pos_site_id
 _symmetry_equiv_pos_as_xyz
  1  'x, y, z'
loop_
 _atom_site_type_symbol
 _atom_site_label
 _atom_site_symmetry_multiplicity
 _atom_site_fract_x
 _atom_site_fract_y
 _atom_site_fract_z
 _atom_site_occupancy
  Na  Na0  1  0.52966900  0.34948200  0.19054500  1
  Na  Na1  1  0.02961600  0.84956900  0.19053500  1
  Na  Na2  1  0.40702400  0.63998600  0.73692700  1
  Na  Na3  1  0.90700500  0.14010300  0.73690800  1
  Na  Na4  1  0.02472500  0.25617800  0.41560100  1
  Na  Na5  1  0.52454900  0.75617900  0.41555600  1
  Na  Na6  1  0.55086300  0.11224700  0.45402500  1
  Na  Na7  1  0.05085200  0.61218200  0.45401100  1
  Na  Na8  1  0.13014600  0.96938200  0.42164900  1
  Na  Na9  1  0.62996500  0.46943800  0.42158400  1
  Na  Na10  1  0.81324600  0.88314200  0.91042200  1
  Na  Na11  1  0.31313000  0.38311400  0.91045600  1
  Na  Na12  1  0.15433800  0.14138200  0.08967900  1
  Na  Na13  1  0.65422000  0.64141200  0.08965200  1
  Na  Na14  1  0.32975300  0.00886300  0.96721500  1
  Na  Na15  1  0.82974500  0.50880700  0.96727100  1
  Na  Na16  1  0.22862100  0.70130100  0.91795100  1
  Na  Na17  1  0.72863100  0.20126000  0.91816600  1
  Na  Na18  1  0.92093900  0.77816700  0.60056300  1
  Na  Na19  1  0.42076400  0.27826400  0.60053300  1
  Mn  Mn0  1  0.36283300  0.97036800  0.72106200  1
  Mn  Mn1  1  0.64618400  0.03496600  0.25456200  1
  Mn  Mn2  1  0.86269700  0.47052900  0.72097400  1
  Mn  Mn3  1  0.14595100  0.53519500  0.25426800  1
  O  O0  1  0.49489700  0.52029500  0.98152100  1
  O  O1  1  0.99490300  0.02030800  0.98152100  1
  O  O2  1  0.18991300  0.13522900  0.66021500  1
  O  O3  1  0.68976000  0.63536400  0.66014100  1
  O  O4  1  0.45622900  0.85860300  0.91018400  1
  O  O5  1  0.95617500  0.35866000  0.91011000  1
  O  O6  1  0.59843800  0.04075700  0.67659900  1
  O  O7  1  0.09842900  0.54078000  0.67656500  1
  O  O8  1  0.21835500  0.85714000  0.66618600  1
  O  O9  1  0.71829100  0.35723000  0.66612500  1
  O  O10  1  0.79779800  0.13024200  0.33151600  1
  O  O11  1  0.29742000  0.63045500  0.33136200  1
  O  O12  1  0.40910500  0.00268000  0.31652900  1
  O  O13  1  0.90905200  0.50265700  0.31643000  1
  O  O14  1  0.50330700  0.13925300  0.06756400  1
  O  O15  1  0.00320200  0.63928300  0.06731100  1
  O  O16  1  0.84863800  0.86616100  0.34522100  1
  O  O17  1  0.34852000  0.36627200  0.34512100  1
loop_
_geom_bond_atom_site_label_1
_geom_bond_atom_site_label_2
_geom_bond_distance
_geom_bond_site_symmetry_2
Na0 O0 2.179743 1_554
Na0 O17 2.426640 1_555
Na0 O10 2.429378 1_555
Na1 O1 2.179472 1_464
Na1 O16 2.426163 1_455
Na1 O11 2.427427 1_555
Na2 O3 2.249763 1_555
Na2 O8 2.284643 1_555
Na2 O0 2.335625 1_555
Na2 O7 2.427482 1_555
Na3 O2 2.250582 1_655
Na3 O9 2.284376 1_555
Na3 O1 2.335796 1_555
Na3 O6 2.428135 1_555
Na4 O2 2.338389 1_555
Na4 O13 2.378437 1_455
Na4 O10 2.383901 1_455
Na4 O17 2.618703 1_555
Na5 O3 2.338149 1_555
Na5 O12 2.378681 1_565
Na5 O11 2.383389 1_555
Na5 O16 2.619503 1_555
Na6 O6 2.193216 1_555
Na6 O10 2.355998 1_555
Na6 O12 2.407719 1_555
Na6 O17 2.565519 1_555
Na7 O7 2.193173 1_555
Na7 O11 2.354676 1_555
Na7 O13 2.408154 1_455
Na7 O16 2.565025 1_455
Na8 O8 2.336129 1_555
Na8 O10 2.366740 1_465
Na8 O16 2.383656 1_455
Na8 O12 2.388894 1_565
Na9 O9 2.336105 1_555
Na9 O11 2.368415 1_555
Na9 O17 2.383106 1_555
Na9 O13 2.389925 1_555
Na10 O1 2.260672 1_565
Na10 O6 2.346658 1_565
Na10 O4 2.360667 1_555
Na10 O15 2.434195 1_656
Na11 O0 2.260946 1_555
Na11 O7 2.347068 1_555
Na11 O5 2.359850 1_455
Na11 O14 2.434800 1_556
Na12 O5 2.297689 1_454
Na12 O1 2.304238 1_454
Na12 O12 2.350764 1_555
Na12 O14 2.358521 1_555
Na13 O4 2.296520 1_554
Na13 O0 2.304180 1_554
Na13 O13 2.350491 1_555
Na13 O15 2.359554 1_655
Na14 O4 2.220480 1_545
Na14 O1 2.236711 1_455
Na14 O14 2.366349 1_556
Na15 O5 2.220378 1_555
Na15 O0 2.236486 1_555
Na15 O15 2.364702 1_656
Na16 O0 2.262021 1_555
Na16 O4 2.322507 1_555
Na16 O15 2.424903 1_556
Na16 O8 2.542351 1_555
Na17 O1 2.262308 1_555
Na17 O5 2.322602 1_555
Na17 O14 2.424717 1_556
Na17 O9 2.544944 1_555
Na18 O3 2.238640 1_555
Na18 O8 2.252489 1_655
Na18 O7 2.434569 1_655
Na18 O16 2.485956 1_555
Na19 O2 2.238649 1_555
Na19 O9 2.252923 1_555
Na19 O6 2.435922 1_555
Na19 O17 2.486727 1_555
Mn0 O2 1.796968 1_565
Mn0 O4 1.808069 1_555
Mn0 O8 1.827153 1_555
Mn0 O6 1.844383 1_565
Mn1 O14 1.806767 1_555
Mn1 O10 1.821554 1_555
Mn1 O12 1.851695 1_555
Mn1 O16 1.866207 1_545
Mn2 O3 1.796833 1_555
Mn2 O5 1.808314 1_555
Mn2 O9 1.827450 1_555
Mn2 O7 1.844458 1_655
Mn3 O15 1.806142 1_555
Mn3 O11 1.821936 1_555
Mn3 O13 1.851892 1_455
Mn3 O17 1.867283 1_555
