# generated using pymatgen
data_Al(NiO2)2
_symmetry_space_group_name_H-M   'P 1'
_cell_length_a   5.72140431
_cell_length_b   5.72136812
_cell_length_c   5.72116276
_cell_angle_alpha   60.00117954
_cell_angle_beta   60.00146833
_cell_angle_gamma   59.99849326
_symmetry_Int_Tables_number   1
_chemical_formula_structural   Al(NiO2)2
_chemical_formula_sum   'Al2 Ni4 O8'
_cell_volume   132.42670701
_cell_formula_units_Z   2
loop_
 _symmetry_equiv_pos_site_id
 _symmetry_equiv_pos_as_xyz
  1  'x, y, z'
loop_
 _atom_site_type_symbol
 _atom_site_label
 _atom_site_symmetry_multiplicity
 _atom_site_fract_x
 _atom_site_fract_y
 _atom_site_fract_z
 _atom_site_occupancy
  Al  Al0  1  0.74999463  0.75000528  0.75000342  1
  Al  Al1  1  0.50000529  0.49999508  0.49999661  1
  Ni  Ni0  1  0.12499853  0.62499738  0.12500657  1
  Ni  Ni1  1  0.12499736  0.12500653  0.62499783  1
  Ni  Ni2  1  0.62498914  0.12500599  0.12500697  1
  Ni  Ni3  1  0.12499799  0.12500698  0.12500597  1
  O  O0  1  0.36566001  0.87813286  0.87811343  1
  O  O1  1  0.87810455  0.87811362  0.87811631  1
  O  O2  1  0.37189438  0.88428574  0.37189588  1
  O  O3  1  0.37190824  0.37189295  0.88428281  1
  O  O4  1  0.87811189  0.87811886  0.36566431  1
  O  O5  1  0.87812645  0.36566190  0.87811546  1
  O  O6  1  0.88429571  0.37187840  0.37189867  1
  O  O7  1  0.37191584  0.37189842  0.37189573  1
loop_
_geom_bond_atom_site_label_1
_geom_bond_atom_site_label_2
_geom_bond_distance
_geom_bond_site_symmetry_2
Al0 O1 1.795371 1_555
Al0 O4 1.795410 1_555
Al0 O0 1.795416 1_555
Al0 O5 1.795440 1_555
Al1 O3 1.795163 1_555
Al1 O7 1.795165 1_555
Al1 O2 1.795194 1_555
Al1 O6 1.795210 1_555
Ni0 O4 1.997906 1_455
Ni0 O1 1.997923 1_454
Ni0 O7 1.998011 1_555
Ni0 O3 1.998100 1_554
Ni0 O0 1.998101 1_554
Ni0 O6 1.998199 1_455
Ni1 O5 1.997881 1_455
Ni1 O0 1.997899 1_545
Ni1 O6 1.997987 1_455
Ni1 O1 1.998055 1_445
Ni1 O2 1.998078 1_545
Ni1 O7 1.998152 1_555
Ni2 O4 1.997908 1_545
Ni2 O7 1.997910 1_555
Ni2 O1 1.997921 1_544
Ni2 O3 1.998003 1_554
Ni2 O5 1.998087 1_554
Ni2 O2 1.998170 1_545
Ni3 O5 1.997833 1_454
Ni3 O6 1.997839 1_455
Ni3 O0 1.997854 1_544
Ni3 O2 1.997926 1_545
Ni3 O4 1.998009 1_445
Ni3 O3 1.998092 1_554
