# generated using pymatgen
data_K(IO3)2
_symmetry_space_group_name_H-M   'P 1'
_cell_length_a   7.75324800
_cell_length_b   7.20533600
_cell_length_c   22.91294046
_cell_angle_alpha   80.37030441
_cell_angle_beta   90.00000000
_cell_angle_gamma   90.00000000
_symmetry_Int_Tables_number   1
_chemical_formula_structural   K(IO3)2
_chemical_formula_sum   'K8 I16 O48'
_cell_volume   1261.98960758
_cell_formula_units_Z   8
loop_
 _symmetry_equiv_pos_site_id
 _symmetry_equiv_pos_as_xyz
  1  'x, y, z'
loop_
 _atom_site_type_symbol
 _atom_site_label
 _atom_site_symmetry_multiplicity
 _atom_site_fract_x
 _atom_site_fract_y
 _atom_site_fract_z
 _atom_site_occupancy
  K  K0  1  0.38229900  0.73859600  0.00786100  1
  K  K1  1  0.88229900  0.26140400  0.49213900  1
  K  K2  1  0.61770100  0.26140400  0.99213900  1
  K  K3  1  0.11770100  0.73859600  0.50786100  1
  K  K4  1  0.13030900  0.82854100  0.18104800  1
  K  K5  1  0.63030900  0.17145900  0.31895200  1
  K  K6  1  0.86969100  0.17145900  0.81895200  1
  K  K7  1  0.36969100  0.82854100  0.68104800  1
  I  I0  1  0.64055700  0.85964600  0.14461300  1
  I  I1  1  0.14055700  0.14035400  0.35538700  1
  I  I2  1  0.35944300  0.14035400  0.85538700  1
  I  I3  1  0.85944300  0.85964600  0.64461300  1
  I  I4  1  0.89129900  0.77700500  0.99147800  1
  I  I5  1  0.39129900  0.22299500  0.50852200  1
  I  I6  1  0.10870100  0.22299500  0.00852200  1
  I  I7  1  0.60870100  0.77700500  0.49147800  1
  I  I8  1  0.86605800  0.33825300  0.14650600  1
  I  I9  1  0.36605800  0.66174700  0.35349400  1
  I  I10  1  0.13394200  0.66174700  0.85349400  1
  I  I11  1  0.63394200  0.33825300  0.64650600  1
  I  I12  1  0.38324000  0.34698000  0.15018600  1
  I  I13  1  0.88324000  0.65302000  0.34981400  1
  I  I14  1  0.61676000  0.65302000  0.84981400  1
  I  I15  1  0.11676000  0.34698000  0.65018600  1
  O  O0  1  0.82154400  0.02117800  0.15837400  1
  O  O1  1  0.32154400  0.97882200  0.34162600  1
  O  O2  1  0.17845600  0.97882200  0.84162600  1
  O  O3  1  0.67845600  0.02117800  0.65837400  1
  O  O4  1  0.45290200  0.98985900  0.16201800  1
  O  O5  1  0.95290200  0.01014100  0.33798200  1
  O  O6  1  0.54709800  0.01014100  0.83798200  1
  O  O7  1  0.04709800  0.98985900  0.66201800  1
  O  O8  1  0.63917600  0.90399500  0.06378600  1
  O  O9  1  0.13917600  0.09600500  0.43621400  1
  O  O10  1  0.36082400  0.09600500  0.93621400  1
  O  O11  1  0.86082400  0.90399500  0.56378600  1
  O  O12  1  0.86270300  0.01495400  0.95126100  1
  O  O13  1  0.36270300  0.98504600  0.54873900  1
  O  O14  1  0.13729700  0.98504600  0.04873900  1
  O  O15  1  0.63729700  0.01495400  0.45126100  1
  O  O16  1  0.07806900  0.68894100  0.94907900  1
  O  O17  1  0.57806900  0.31105900  0.55092100  1
  O  O18  1  0.92193100  0.31105900  0.05092100  1
  O  O19  1  0.42193100  0.68894100  0.44907900  1
  O  O20  1  0.70936900  0.65320900  0.96573400  1
  O  O21  1  0.20936900  0.34679100  0.53426600  1
  O  O22  1  0.29063100  0.34679100  0.03426600  1
  O  O23  1  0.79063100  0.65320900  0.46573400  1
  O  O24  1  0.90910600  0.58833400  0.12259900  1
  O  O25  1  0.40910600  0.41166600  0.37740100  1
  O  O26  1  0.09089400  0.41166600  0.87740100  1
  O  O27  1  0.59089400  0.58833400  0.62259900  1
  O  O28  1  0.79142700  0.32890100  0.22039300  1
  O  O29  1  0.29142700  0.67109900  0.27960700  1
  O  O30  1  0.20857300  0.67109900  0.77960700  1
  O  O31  1  0.70857300  0.32890100  0.72039300  1
  O  O32  1  0.09129700  0.25070400  0.16278300  1
  O  O33  1  0.59129700  0.74929600  0.33721700  1
  O  O34  1  0.90870300  0.74929600  0.83721700  1
  O  O35  1  0.40870300  0.25070400  0.66278300  1
  O  O36  1  0.37046600  0.60345100  0.13140200  1
  O  O37  1  0.87046600  0.39654900  0.36859800  1
  O  O38  1  0.62953400  0.39654900  0.86859800  1
  O  O39  1  0.12953400  0.60345100  0.63140200  1
  O  O40  1  0.40547900  0.31731600  0.22872900  1
  O  O41  1  0.90547900  0.68268400  0.27127100  1
  O  O42  1  0.59452100  0.68268400  0.77127100  1
  O  O43  1  0.09452100  0.31731600  0.72872900  1
  O  O44  1  0.63468100  0.35311200  0.11089200  1
  O  O45  1  0.13468100  0.64688800  0.38910800  1
  O  O46  1  0.36531900  0.64688800  0.88910800  1
  O  O47  1  0.86531900  0.35311200  0.61089200  1
loop_
_geom_bond_atom_site_label_1
_geom_bond_atom_site_label_2
_geom_bond_distance
_geom_bond_site_symmetry_2
K0 O8 2.745868 1_555
K0 O16 2.768949 1_554
K0 O20 2.817708 1_554
K0 O10 2.817843 1_564
K0 O36 2.836766 1_555
K0 O14 2.862757 1_555
K0 O22 2.875684 1_555
K0 O46 2.908477 1_554
K1 O9 2.745868 1_655
K1 O17 2.768949 1_555
K1 O21 2.817708 1_655
K1 O11 2.817843 1_545
K1 O37 2.836766 1_555
K1 O15 2.862757 1_555
K1 O23 2.875684 1_555
K1 O47 2.908477 1_555
K2 O10 2.745868 1_555
K2 O18 2.768949 1_556
K2 O22 2.817708 1_556
K2 O8 2.817843 1_546
K2 O38 2.836766 1_555
K2 O12 2.862757 1_555
K2 O20 2.875684 1_555
K2 O44 2.908477 1_556
K3 O11 2.745868 1_455
K3 O19 2.768949 1_555
K3 O23 2.817708 1_455
K3 O9 2.817843 1_565
K3 O39 2.836766 1_555
K3 O13 2.862757 1_555
K3 O21 2.875684 1_555
K3 O45 2.908477 1_555
K4 O29 2.662726 1_555
K4 O4 2.761764 1_555
K4 O0 2.772390 1_465
K4 O41 2.773061 1_455
K4 O36 2.829955 1_555
K4 O24 2.916501 1_455
K4 O32 3.015533 1_565
K4 O14 3.053092 1_555
K5 O28 2.662726 1_555
K5 O5 2.761764 1_555
K5 O1 2.772390 1_545
K5 O40 2.773061 1_555
K5 O37 2.829955 1_555
K5 O25 2.916501 1_555
K5 O33 3.015533 1_545
K5 O15 3.053092 1_555
K6 O31 2.662726 1_555
K6 O6 2.761764 1_555
K6 O2 2.772390 1_645
K6 O43 2.773061 1_655
K6 O38 2.829955 1_555
K6 O26 2.916501 1_655
K6 O34 3.015533 1_545
K6 O12 3.053092 1_555
K7 O30 2.662726 1_555
K7 O7 2.761764 1_555
K7 O3 2.772390 1_565
K7 O42 2.773061 1_555
K7 O39 2.829955 1_555
K7 O27 2.916501 1_555
K7 O35 3.015533 1_565
K7 O13 3.053092 1_555
I0 O4 1.811445 1_555
I0 O8 1.825946 1_555
I0 O0 1.883060 1_565
I1 O5 1.811445 1_455
I1 O9 1.825946 1_555
I1 O1 1.883060 1_545
I2 O6 1.811445 1_555
I2 O10 1.825946 1_555
I2 O2 1.883060 1_545
I3 O7 1.811445 1_655
I3 O11 1.825946 1_555
I3 O3 1.883060 1_565
I4 O12 1.819134 1_565
I4 O20 1.819141 1_555
I4 O16 1.910384 1_655
I5 O13 1.819134 1_545
I5 O21 1.819141 1_555
I5 O17 1.910384 1_555
I6 O14 1.819134 1_545
I6 O22 1.819141 1_555
I6 O18 1.910384 1_455
I7 O15 1.819134 1_565
I7 O23 1.819141 1_555
I7 O19 1.910384 1_555
I8 O28 1.779700 1_555
I8 O24 1.824319 1_555
I8 O32 1.872965 1_655
I8 O44 1.966287 1_555
I8 O18 2.272952 1_555
I8 O0 2.281393 1_555
I9 O29 1.779700 1_555
I9 O25 1.824319 1_555
I9 O33 1.872965 1_555
I9 O45 1.966287 1_555
I9 O19 2.272952 1_555
I9 O1 2.281393 1_555
I10 O30 1.779700 1_555
I10 O26 1.824319 1_555
I10 O34 1.872965 1_455
I10 O46 1.966287 1_555
I10 O16 2.272952 1_555
I10 O2 2.281393 1_555
I11 O31 1.779700 1_555
I11 O27 1.824319 1_555
I11 O35 1.872965 1_555
I11 O47 1.966287 1_555
I11 O17 2.272952 1_555
I11 O3 2.281393 1_555
I12 O40 1.784788 1_555
I12 O36 1.828637 1_555
I12 O44 2.144702 1_555
I12 O32 2.370866 1_555
I12 O4 2.598666 1_545
I12 O22 2.751629 1_555
I13 O41 1.784788 1_555
I13 O37 1.828637 1_555
I13 O45 2.144702 1_655
I13 O33 2.370866 1_555
I13 O5 2.598666 1_565
I13 O23 2.751629 1_555
I14 O42 1.784788 1_555
I14 O38 1.828637 1_555
I14 O46 2.144702 1_555
I14 O34 2.370866 1_555
I14 O6 2.598666 1_565
I14 O20 2.751629 1_555
I15 O43 1.784788 1_555
I15 O39 1.828637 1_555
I15 O47 2.144702 1_455
I15 O35 2.370866 1_555
I15 O7 2.598666 1_545
I15 O21 2.751629 1_555
