# generated using pymatgen
data_LaMgI5
_symmetry_space_group_name_H-M   'P 1'
_cell_length_a   15.40372400
_cell_length_b   8.81197100
_cell_length_c   11.94243365
_cell_angle_alpha   87.89580911
_cell_angle_beta   90.00000000
_cell_angle_gamma   90.00000000
_symmetry_Int_Tables_number   1
_chemical_formula_structural   LaMgI5
_chemical_formula_sum   'La4 Mg4 I20'
_cell_volume   1619.93909286
_cell_formula_units_Z   4
loop_
 _symmetry_equiv_pos_site_id
 _symmetry_equiv_pos_as_xyz
  1  'x, y, z'
loop_
 _atom_site_type_symbol
 _atom_site_label
 _atom_site_symmetry_multiplicity
 _atom_site_fract_x
 _atom_site_fract_y
 _atom_site_fract_z
 _atom_site_occupancy
  La  La0  1  0.39473100  0.01287300  0.58963800  1
  La  La1  1  0.78915200  0.49492000  0.10976100  1
  La  La2  1  0.28915200  0.50508000  0.89023900  1
  La  La3  1  0.89473100  0.98712700  0.41036200  1
  Mg  Mg0  1  0.84170300  0.03089400  0.05508200  1
  Mg  Mg1  1  0.45446900  0.47789100  0.59779500  1
  Mg  Mg2  1  0.95446900  0.52210900  0.40220500  1
  Mg  Mg3  1  0.34170300  0.96910600  0.94491800  1
  I  I0  1  0.26213400  0.00673300  0.40964200  1
  I  I1  1  0.49425100  0.01883700  0.83219300  1
  I  I2  1  0.74759300  0.14738900  0.23914900  1
  I  I3  1  0.52975600  0.24889400  0.48270100  1
  I  I4  1  0.80785700  0.27043100  0.90743400  1
  I  I5  1  0.99372200  0.25957500  0.52252600  1
  I  I6  1  0.30463200  0.22377700  0.06269300  1
  I  I7  1  0.28940300  0.34665700  0.64017300  1
  I  I8  1  0.99311400  0.47814700  0.18287100  1
  I  I9  1  0.09898400  0.46187300  0.86496000  1
  I  I10  1  0.59898400  0.53812700  0.13504000  1
  I  I11  1  0.49311400  0.52185300  0.81712900  1
  I  I12  1  0.78940300  0.65334300  0.35982700  1
  I  I13  1  0.80463200  0.77622300  0.93730700  1
  I  I14  1  0.49372200  0.74042500  0.47747400  1
  I  I15  1  0.30785700  0.72956900  0.09256600  1
  I  I16  1  0.02975600  0.75110600  0.51729900  1
  I  I17  1  0.24759300  0.85261100  0.76085100  1
  I  I18  1  0.99425100  0.98116300  0.16780700  1
  I  I19  1  0.76213400  0.99326700  0.59035800  1
loop_
_geom_bond_atom_site_label_1
_geom_bond_atom_site_label_2
_geom_bond_distance
_geom_bond_site_symmetry_2
I0 La0 2.967147 1_555
I1 Mg3 2.735434 1_545
I1 La0 3.279454 1_555
I2 Mg0 2.855364 1_555
I2 La3 3.331671 1_545
I2 La1 3.439255 1_555
I3 Mg1 2.740405 1_555
I3 La0 3.176075 1_555
I4 Mg0 2.750107 1_556
I4 La1 3.191497 1_556
I5 Mg2 2.745587 1_555
I5 La3 3.181102 1_545
I6 Mg3 2.751798 1_544
I6 La2 3.173044 1_554
I7 Mg1 2.831159 1_555
I7 La2 3.342693 1_555
I7 La0 3.431926 1_555
I8 Mg2 2.727655 1_555
I8 La1 3.262735 1_555
I9 La2 2.970743 1_555
I10 La1 2.970743 1_555
I11 Mg1 2.727655 1_555
I11 La2 3.262735 1_555
I12 Mg2 2.831159 1_555
I12 La1 3.342693 1_555
I12 La3 3.431926 1_555
I13 Mg0 2.751798 1_566
I13 La1 3.173044 1_556
I14 Mg1 2.745587 1_555
I14 La0 3.181102 1_565
I15 Mg3 2.750107 1_554
I15 La2 3.191497 1_554
I16 Mg2 2.740405 1_455
I16 La3 3.176075 1_455
I17 Mg3 2.855364 1_555
I17 La0 3.331671 1_565
I17 La2 3.439255 1_555
I18 Mg0 2.735434 1_565
I18 La3 3.279454 1_555
I19 La3 2.967147 1_555
