# generated using pymatgen
data_Li2Fe3(BO3)3
_symmetry_space_group_name_H-M   'P 1'
_cell_length_a   6.11816800
_cell_length_b   8.16184000
_cell_length_c   8.21393450
_cell_angle_alpha   60.25268231
_cell_angle_beta   90.00000000
_cell_angle_gamma   90.00000000
_symmetry_Int_Tables_number   1
_chemical_formula_structural   Li2Fe3(BO3)3
_chemical_formula_sum   'Li4 Fe6 B6 O18'
_cell_volume   356.11602628
_cell_formula_units_Z   2
loop_
 _symmetry_equiv_pos_site_id
 _symmetry_equiv_pos_as_xyz
  1  'x, y, z'
loop_
 _atom_site_type_symbol
 _atom_site_label
 _atom_site_symmetry_multiplicity
 _atom_site_fract_x
 _atom_site_fract_y
 _atom_site_fract_z
 _atom_site_occupancy
  Li  Li0  1  0.00000000  0.72399400  0.31193000  1
  Li  Li1  1  0.50000000  0.98949400  0.71183800  1
  Li  Li2  1  0.00000000  0.29278900  0.97879300  1
  Li  Li3  1  0.50000000  0.29659200  0.97572500  1
  Fe  Fe0  1  0.25132700  0.64004500  0.01091000  1
  Fe  Fe1  1  0.74867300  0.64004500  0.01091000  1
  Fe  Fe2  1  0.74853900  0.36411700  0.61755000  1
  Fe  Fe3  1  0.25146100  0.36411700  0.61755000  1
  Fe  Fe4  1  0.24858200  0.00462100  0.36992500  1
  Fe  Fe5  1  0.75141800  0.00462100  0.36992500  1
  B  B0  1  0.50000000  0.32616700  0.32698700  1
  B  B1  1  0.00000000  0.33471600  0.32770500  1
  B  B2  1  0.24900900  0.00030900  0.00591200  1
  B  B3  1  0.75099100  0.00030900  0.00591200  1
  B  B4  1  0.50000000  0.66520600  0.66987300  1
  B  B5  1  0.00000000  0.66633100  0.66860800  1
  O  O0  1  0.76672900  0.90032200  0.19524700  1
  O  O1  1  0.23327100  0.90032200  0.19524700  1
  O  O2  1  0.00000000  0.53775300  0.20275800  1
  O  O3  1  0.50000000  0.52419800  0.20476400  1
  O  O4  1  0.00000000  0.85556100  0.54808800  1
  O  O5  1  0.50000000  0.85834600  0.55884200  1
  O  O6  1  0.26423600  0.90051400  0.90491100  1
  O  O7  1  0.73576400  0.90051400  0.90491100  1
  O  O8  1  0.00000000  0.54110500  0.60276100  1
  O  O9  1  0.50000000  0.53741900  0.61013400  1
  O  O10  1  0.50000000  0.21029300  0.24922600  1
  O  O11  1  0.00000000  0.22046300  0.24865800  1
  O  O12  1  0.50000000  0.25574700  0.51868400  1
  O  O13  1  0.00000000  0.27059700  0.51490000  1
  O  O14  1  0.00000000  0.59256200  0.86673800  1
  O  O15  1  0.50000000  0.59296400  0.86866300  1
  O  O16  1  0.25163200  0.19533000  0.90414100  1
  O  O17  1  0.74836800  0.19533000  0.90414100  1
loop_
_geom_bond_atom_site_label_1
_geom_bond_atom_site_label_2
_geom_bond_distance
_geom_bond_site_symmetry_2
Li0 O0 1.912553 1_455
Li0 O1 1.912553 1_555
Li0 O8 2.096725 1_555
Li0 O2 2.113624 1_555
Li1 O12 1.954018 1_565
Li1 O6 1.995040 1_555
Li1 O7 1.995040 1_555
Li1 O5 2.014935 1_555
Li2 O17 1.965426 1_455
Li2 O16 1.965426 1_555
Li2 O11 1.990857 1_556
Li2 O14 2.144469 1_555
Li3 O16 1.954508 1_555
Li3 O17 1.954508 1_555
Li3 O10 1.993168 1_556
Li3 O15 2.124540 1_555
Fe0 O6 1.856603 1_554
Fe0 O2 2.058906 1_555
Fe0 O3 2.061584 1_555
Fe0 O15 2.067151 1_554
Fe0 O14 2.091029 1_554
Fe1 O7 1.856603 1_554
Fe1 O2 2.058906 1_655
Fe1 O3 2.061584 1_555
Fe1 O15 2.067151 1_554
Fe1 O14 2.091029 1_654
Fe2 O17 2.054548 1_555
Fe2 O9 2.056976 1_555
Fe2 O8 2.072260 1_655
Fe2 O13 2.073432 1_655
Fe2 O12 2.113488 1_555
Fe3 O16 2.054548 1_555
Fe3 O9 2.056976 1_555
Fe3 O8 2.072260 1_555
Fe3 O13 2.073432 1_555
Fe3 O12 2.113488 1_555
Fe4 O1 2.001032 1_545
Fe4 O4 2.041561 1_545
Fe4 O5 2.088290 1_545
Fe4 O10 2.124947 1_555
Fe4 O11 2.160403 1_555
Fe5 O0 2.001032 1_545
Fe5 O4 2.041561 1_645
Fe5 O5 2.088290 1_545
Fe5 O10 2.124947 1_555
Fe5 O11 2.160403 1_655
B0 O10 1.379076 1_555
B0 O12 1.382601 1_555
B0 O3 1.417764 1_555
B1 O13 1.356315 1_555
B1 O11 1.375498 1_555
B1 O2 1.453178 1_555
B2 O1 1.354404 1_545
B2 O16 1.382839 1_554
B2 O6 1.425108 1_544
B3 O0 1.354404 1_545
B3 O17 1.382839 1_554
B3 O7 1.425108 1_544
B4 O9 1.355156 1_555
B4 O5 1.374791 1_555
B4 O15 1.434728 1_555
B5 O4 1.359456 1_555
B5 O8 1.373224 1_555
B5 O14 1.427819 1_555
