# generated using pymatgen
data_Li24Ti5Cr7O36
_symmetry_space_group_name_H-M   'P 1'
_cell_length_a   5.05055600
_cell_length_b   9.79533582
_cell_length_c   13.41015186
_cell_angle_alpha   80.77661283
_cell_angle_beta   79.23298079
_cell_angle_gamma   85.37121825
_symmetry_Int_Tables_number   1
_chemical_formula_structural   Li24Ti5Cr7O36
_chemical_formula_sum   'Li24 Ti5 Cr7 O36'
_cell_volume   642.43760849
_cell_formula_units_Z   1
loop_
 _symmetry_equiv_pos_site_id
 _symmetry_equiv_pos_as_xyz
  1  'x, y, z'
loop_
 _atom_site_type_symbol
 _atom_site_label
 _atom_site_symmetry_multiplicity
 _atom_site_fract_x
 _atom_site_fract_y
 _atom_site_fract_z
 _atom_site_occupancy
  Li  Li0  1  0.67062800  0.00055200  0.16710000  1
  Li  Li1  1  0.56183800  0.00099300  0.38415800  1
  Li  Li2  1  0.24803800  0.74877500  0.75072800  1
  Li  Li3  1  0.58428300  0.75032400  0.08148900  1
  Li  Li4  1  0.06430900  0.49852000  0.88804000  1
  Li  Li5  1  0.40179100  0.49888300  0.22220500  1
  Li  Li6  1  0.16097200  0.49822400  0.66717700  1
  Li  Li7  1  0.49799900  0.50183500  0.00140600  1
  Li  Li8  1  0.26446500  0.50074700  0.44381300  1
  Li  Li9  1  0.08221400  0.25023800  0.58347600  1
  Li  Li10  1  0.99488900  0.00033900  0.50091800  1
  Li  Li11  1  0.76862400  0.00024000  0.94681900  1
  Li  Li12  1  0.10524100  0.99852900  0.28209000  1
  Li  Li13  1  0.90118900  0.00100400  0.71893200  1
  Li  Li14  1  0.23027000  0.00014700  0.05113800  1
  Li  Li15  1  0.91574500  0.75094600  0.41707800  1
  Li  Li16  1  0.73731900  0.50113900  0.55480800  1
  Li  Li17  1  0.83384500  0.50061500  0.33385400  1
  Li  Li18  1  0.60453400  0.50195200  0.77889500  1
  Li  Li19  1  0.93117600  0.49999100  0.11065400  1
  Li  Li20  1  0.41688200  0.25058400  0.91701700  1
  Li  Li21  1  0.33147600  0.99970500  0.83441500  1
  Li  Li22  1  0.74852700  0.25005200  0.24847000  1
  Li  Li23  1  0.43623700  0.99894200  0.61323900  1
  Ti  Ti0  1  0.35786600  0.75503300  0.52588600  1
  Ti  Ti1  1  0.30905800  0.24700200  0.13999200  1
  Ti  Ti2  1  0.03010500  0.74686600  0.19295300  1
  Ti  Ti3  1  0.53114900  0.24697800  0.69519100  1
  Ti  Ti4  1  0.63296400  0.25479600  0.47191300  1
  Cr  Cr0  1  0.86011400  0.25302300  0.02561900  1
  Cr  Cr1  1  0.47542800  0.75019300  0.30546300  1
  Cr  Cr2  1  0.97650200  0.24852300  0.80806000  1
  Cr  Cr3  1  0.18926600  0.24949600  0.36000200  1
  Cr  Cr4  1  0.69904000  0.74841400  0.86418900  1
  Cr  Cr5  1  0.79804900  0.75029200  0.64127000  1
  Cr  Cr6  1  0.14200600  0.74950200  0.96976900  1
  O  O0  1  0.93343700  0.86245500  0.06914200  1
  O  O1  1  0.71682600  0.63376100  0.21392500  1
  O  O2  1  0.42845500  0.36521900  0.57137600  1
  O  O3  1  0.49753000  0.36168500  0.35490900  1
  O  O4  1  0.61572100  0.36680600  0.11845800  1
  O  O5  1  0.25727500  0.86394000  0.40441900  1
  O  O6  1  0.21749200  0.13301500  0.71513400  1
  O  O7  1  0.33025700  0.13869200  0.47536300  1
  O  O8  1  0.55575300  0.13425100  0.04734400  1
  O  O9  1  0.00421700  0.86180300  0.85953500  1
  O  O10  1  0.11597100  0.86422000  0.61950300  1
  O  O11  1  0.33914900  0.86128600  0.19064400  1
  O  O12  1  0.40990800  0.13530900  0.26103000  1
  O  O13  1  0.82986000  0.63719500  0.97515000  1
  O  O14  1  0.04435700  0.63556300  0.55049000  1
  O  O15  1  0.16943400  0.63760000  0.31087200  1
  O  O16  1  0.90064300  0.63820200  0.76585700  1
  O  O17  1  0.23819500  0.63656900  0.09406500  1
  O  O18  1  0.75758400  0.36036900  0.90833500  1
  O  O19  1  0.09493800  0.36159400  0.24104300  1
  O  O20  1  0.83509200  0.36179900  0.69258800  1
  O  O21  1  0.94897500  0.36648600  0.45280100  1
  O  O22  1  0.16273300  0.36212800  0.02257900  1
  O  O23  1  0.59884500  0.86053300  0.73584600  1
  O  O24  1  0.66913400  0.13736600  0.81184700  1
  O  O25  1  0.88936500  0.13607000  0.38038500  1
  O  O26  1  0.99844300  0.13745500  0.14136100  1
  O  O27  1  0.45894600  0.86477200  0.94810200  1
  O  O28  1  0.66443500  0.86430800  0.52222800  1
  O  O29  1  0.77993600  0.86440700  0.28535700  1
  O  O30  1  0.73646700  0.13604400  0.59586300  1
  O  O31  1  0.37507500  0.63691100  0.88399300  1
  O  O32  1  0.50746300  0.63694900  0.64443300  1
  O  O33  1  0.57166300  0.63812200  0.42563000  1
  O  O34  1  0.27691500  0.36484200  0.78661800  1
  O  O35  1  0.07547200  0.13887700  0.92555000  1
loop_
_geom_bond_atom_site_label_1
_geom_bond_atom_site_label_2
_geom_bond_distance
_geom_bond_site_symmetry_2
Li0 O29 2.031861 1_545
Li0 O8 2.045012 1_555
Li0 O26 2.157560 1_555
Li0 O12 2.166948 1_555
Li0 O11 2.190078 1_545
Li0 O0 2.223876 1_545
Li1 O5 2.074218 1_545
Li1 O7 2.103072 1_555
Li1 O29 2.131640 1_545
Li1 O12 2.158745 1_555
Li1 O25 2.188629 1_555
Li1 O28 2.222859 1_545
Li2 O16 2.096650 1_455
Li2 O23 2.118556 1_555
Li2 O31 2.119732 1_555
Li2 O9 2.120778 1_555
Li2 O10 2.121150 1_555
Li2 O32 2.125912 1_555
Li3 O13 2.103271 1_554
Li3 O17 2.114070 1_555
Li3 O11 2.114843 1_555
Li3 O0 2.118652 1_555
Li3 O27 2.126682 1_554
Li3 O1 2.139321 1_555
Li4 O13 2.084252 1_455
Li4 O18 2.089948 1_455
Li4 O34 2.125024 1_555
Li4 O31 2.142898 1_555
Li4 O22 2.177686 1_556
Li4 O16 2.201098 1_455
Li5 O19 2.086933 1_555
Li5 O15 2.092003 1_555
Li5 O1 2.125014 1_555
Li5 O4 2.136942 1_555
Li5 O3 2.157949 1_555
Li5 O17 2.249922 1_555
Li6 O14 2.036389 1_555
Li6 O34 2.042431 1_555
Li6 O20 2.147150 1_455
Li6 O2 2.185609 1_555
Li6 O16 2.236175 1_455
Li6 O32 2.247986 1_555
Li7 O4 2.030531 1_555
Li7 O31 2.044510 1_554
Li7 O17 2.155116 1_555
Li7 O13 2.163274 1_554
Li7 O18 2.201499 1_554
Li7 O22 2.211413 1_555
Li8 O33 2.089937 1_555
Li8 O3 2.097596 1_555
Li8 O21 2.121006 1_455
Li8 O15 2.157624 1_555
Li8 O14 2.191042 1_555
Li8 O2 2.235744 1_555
Li9 O7 2.115058 1_555
Li9 O30 2.115506 1_455
Li9 O21 2.120734 1_455
Li9 O20 2.122029 1_455
Li9 O2 2.122756 1_555
Li9 O6 2.139308 1_555
Li10 O25 2.045221 1_555
Li10 O10 2.057342 1_645
Li10 O28 2.168244 1_545
Li10 O30 2.175592 1_555
Li10 O7 2.197206 1_655
Li10 O5 2.200816 1_645
Li11 O9 2.086316 1_645
Li11 O35 2.092270 1_655
Li11 O8 2.119963 1_556
Li11 O27 2.127191 1_545
Li11 O24 2.187296 1_555
Li11 O0 2.196449 1_546
Li12 O12 2.071625 1_565
Li12 O11 2.106554 1_555
Li12 O25 2.129933 1_465
Li12 O5 2.152366 1_555
Li12 O29 2.174925 1_455
Li12 O26 2.267796 1_465
Li13 O23 2.094306 1_545
Li13 O24 2.108432 1_555
Li13 O6 2.123346 1_655
Li13 O10 2.132475 1_645
Li13 O30 2.191147 1_555
Li13 O9 2.261194 1_645
Li14 O0 2.052225 1_445
Li14 O26 2.093306 1_455
Li14 O8 2.174000 1_555
Li14 O27 2.178389 1_544
Li14 O35 2.209315 1_554
Li14 O11 2.258386 1_545
Li15 O5 2.089902 1_655
Li15 O28 2.106683 1_555
Li15 O33 2.109349 1_555
Li15 O15 2.120916 1_655
Li15 O29 2.127475 1_555
Li15 O14 2.137199 1_655
Li16 O32 2.074585 1_555
Li16 O2 2.089551 1_555
Li16 O14 2.100809 1_655
Li16 O21 2.134971 1_555
Li16 O20 2.223569 1_555
Li16 O33 2.261959 1_555
Li17 O21 2.039618 1_555
Li17 O1 2.048197 1_555
Li17 O33 2.171857 1_555
Li17 O19 2.186914 1_655
Li17 O15 2.192601 1_655
Li17 O3 2.210782 1_555
Li18 O16 2.048896 1_555
Li18 O20 2.080381 1_555
Li18 O32 2.168322 1_555
Li18 O34 2.191444 1_555
Li18 O31 2.194705 1_555
Li18 O18 2.256214 1_555
Li19 O22 2.080056 1_655
Li19 O17 2.086674 1_655
Li19 O4 2.116761 1_555
Li19 O1 2.144627 1_555
Li19 O13 2.196262 1_554
Li19 O19 2.275683 1_655
Li20 O18 2.077161 1_555
Li20 O35 2.091481 1_555
Li20 O22 2.106157 1_556
Li20 O24 2.108103 1_555
Li20 O34 2.125313 1_555
Li20 O8 2.129667 1_556
Li21 O27 2.017204 1_555
Li21 O6 2.036750 1_565
Li21 O9 2.162511 1_555
Li21 O35 2.164018 1_565
Li21 O24 2.205814 1_565
Li21 O23 2.245605 1_555
Li22 O12 2.087674 1_555
Li22 O3 2.107278 1_555
Li22 O4 2.114589 1_555
Li22 O19 2.114994 1_655
Li22 O26 2.116244 1_555
Li22 O25 2.142591 1_555
Li23 O30 2.062384 1_565
Li23 O28 2.074163 1_555
Li23 O6 2.142301 1_565
Li23 O10 2.150143 1_555
Li23 O23 2.196840 1_555
Li23 O7 2.240335 1_565
Cr0 O18 1.879825 1_554
Cr0 O22 1.925149 1_655
Cr0 O8 1.952953 1_555
Cr0 O26 1.973045 1_555
Cr0 O4 1.991069 1_555
Cr0 O35 1.993325 1_654
Cr1 O33 1.917699 1_555
Cr1 O29 1.927601 1_555
Cr1 O11 1.940788 1_555
Cr1 O15 1.953861 1_555
Cr1 O5 1.986427 1_555
Cr1 O1 1.989773 1_555
Cr2 O35 1.884384 1_655
Cr2 O34 1.921957 1_655
Cr2 O24 1.955407 1_555
Cr2 O20 1.968147 1_555
Cr2 O18 1.988021 1_555
Cr2 O6 1.994363 1_655
Cr3 O19 1.901448 1_555
Cr3 O25 1.903397 1_455
Cr3 O7 1.956248 1_555
Cr3 O3 1.961789 1_555
Cr3 O12 1.994115 1_555
Cr3 O21 2.000778 1_455
Cr4 O13 1.889192 1_555
Cr4 O27 1.927175 1_555
Cr4 O16 1.928292 1_555
Cr4 O9 1.957370 1_655
Cr4 O31 1.993415 1_555
Cr4 O23 2.013499 1_555
Cr5 O23 1.890436 1_555
Cr5 O32 1.900778 1_555
Cr5 O16 1.977100 1_555
Cr5 O10 1.979510 1_655
Cr5 O14 1.984833 1_655
Cr5 O28 1.990080 1_555
Cr6 O31 1.901658 1_555
Cr6 O9 1.902398 1_555
Cr6 O17 1.965393 1_556
Cr6 O0 1.967149 1_456
Cr6 O13 1.978065 1_455
Cr6 O27 1.983530 1_555
O0 Ti2 1.971806 1_655
O1 Ti2 1.956217 1_655
O2 Ti4 1.945060 1_555
O2 Ti3 1.993903 1_555
O3 Ti4 1.945453 1_555
O4 Ti1 1.969007 1_555
O5 Ti0 1.927198 1_555
O6 Ti3 1.964329 1_555
O7 Ti4 1.967288 1_555
O8 Ti1 1.988762 1_555
O10 Ti0 1.964432 1_555
O11 Ti2 1.986582 1_555
O12 Ti1 1.934085 1_555
O14 Ti0 1.991376 1_555
O15 Ti2 1.973045 1_555
O17 Ti2 1.945671 1_555
O19 Ti1 2.002469 1_555
O20 Ti3 1.966906 1_555
O21 Ti4 1.961894 1_555
O22 Ti1 2.006999 1_555
O24 Ti3 1.958027 1_555
O25 Ti4 2.038772 1_555
O26 Ti1 1.966585 1_655
O28 Ti0 1.941077 1_555
O29 Ti2 2.023638 1_655
O30 Ti3 1.948426 1_555
O30 Ti4 1.998975 1_555
O32 Ti0 2.038200 1_555
O33 Ti0 2.009106 1_555
O34 Ti3 2.027591 1_555
