# generated using pymatgen
data_Lu2P4O13
_symmetry_space_group_name_H-M   'P 1'
_cell_length_a   6.83676595
_cell_length_b   6.83676595
_cell_length_c   12.85326256
_cell_angle_alpha   75.81959415
_cell_angle_beta   75.81959415
_cell_angle_gamma   58.75983215
_symmetry_Int_Tables_number   1
_chemical_formula_structural   Lu2P4O13
_chemical_formula_sum   'Lu4 P8 O26'
_cell_volume   492.94977133
_cell_formula_units_Z   2
loop_
 _symmetry_equiv_pos_site_id
 _symmetry_equiv_pos_as_xyz
  1  'x, y, z'
loop_
 _atom_site_type_symbol
 _atom_site_label
 _atom_site_symmetry_multiplicity
 _atom_site_fract_x
 _atom_site_fract_y
 _atom_site_fract_z
 _atom_site_occupancy
  Lu  Lu0  1  0.69466700  0.69970400  0.44783700  1
  Lu  Lu1  1  0.69970400  0.69466700  0.94783700  1
  Lu  Lu2  1  0.30029600  0.30533300  0.05216300  1
  Lu  Lu3  1  0.30533300  0.30029600  0.55216300  1
  P  P0  1  0.83699700  0.13835400  0.36736100  1
  P  P1  1  0.76011100  0.77341900  0.15987600  1
  P  P2  1  0.86164600  0.16300300  0.13263900  1
  P  P3  1  0.22658100  0.23988900  0.34012400  1
  P  P4  1  0.77341900  0.76011100  0.65987600  1
  P  P5  1  0.13835400  0.83699700  0.86736100  1
  P  P6  1  0.23988900  0.22658100  0.84012400  1
  P  P7  1  0.16300300  0.86164600  0.63263900  1
  O  O0  1  0.67046700  0.31670500  0.44267300  1
  O  O1  1  0.87724600  0.89545800  0.39715600  1
  O  O2  1  0.89989300  0.90730500  0.15285400  1
  O  O3  1  0.89545800  0.87724600  0.89715600  1
  O  O4  1  0.92510900  0.57296400  0.09429900  1
  O  O5  1  0.90730500  0.89989300  0.65285400  1
  O  O6  1  0.69349800  0.70489600  0.27814000  1
  O  O7  1  0.42703600  0.07489100  0.40570100  1
  O  O8  1  0.31670500  0.67046700  0.94267300  1
  O  O9  1  0.56047400  0.92747600  0.09303700  1
  O  O10  1  0.29510400  0.30650200  0.22186000  1
  O  O11  1  0.92747600  0.56047400  0.59303700  1
  O  O12  1  0.75177400  0.24822600  0.25000000  1
  O  O13  1  0.07252400  0.43952600  0.40696300  1
  O  O14  1  0.70489600  0.69349800  0.77814000  1
  O  O15  1  0.43952600  0.07252400  0.90696300  1
  O  O16  1  0.68329500  0.32953300  0.05732700  1
  O  O17  1  0.57296400  0.92510900  0.59429900  1
  O  O18  1  0.30650200  0.29510400  0.72186000  1
  O  O19  1  0.09269500  0.10010700  0.34714600  1
  O  O20  1  0.07489100  0.42703600  0.90570100  1
  O  O21  1  0.10454200  0.12275400  0.10284400  1
  O  O22  1  0.10010700  0.09269500  0.84714600  1
  O  O23  1  0.24822600  0.75177400  0.75000000  1
  O  O24  1  0.12275400  0.10454200  0.60284400  1
  O  O25  1  0.32953300  0.68329500  0.55732700  1
loop_
_geom_bond_atom_site_label_1
_geom_bond_atom_site_label_2
_geom_bond_distance
_geom_bond_site_symmetry_2
Lu0 O1 2.163525 1_555
Lu0 O6 2.174649 1_555
Lu0 O13 2.267194 1_655
Lu0 O7 2.271001 1_565
Lu0 O17 2.436168 1_555
Lu0 O11 2.436393 1_555
Lu0 O25 2.591652 1_555
Lu0 O0 2.725452 1_555
Lu1 O3 2.163525 1_555
Lu1 O14 2.174649 1_555
Lu1 O15 2.267194 1_565
Lu1 O20 2.271001 1_655
Lu1 O4 2.436168 1_556
Lu1 O9 2.436393 1_556
Lu1 O16 2.591652 1_556
Lu1 O8 2.725452 1_555
Lu2 O21 2.163525 1_555
Lu2 O10 2.174649 1_555
Lu2 O9 2.267194 1_545
Lu2 O4 2.271001 1_455
Lu2 O20 2.436168 1_554
Lu2 O15 2.436393 1_554
Lu2 O8 2.591652 1_554
Lu2 O16 2.725452 1_555
Lu3 O24 2.163525 1_555
Lu3 O18 2.174649 1_555
Lu3 O11 2.267194 1_455
Lu3 O17 2.271001 1_545
Lu3 O7 2.436168 1_555
Lu3 O13 2.436393 1_555
Lu3 O0 2.591652 1_555
Lu3 O25 2.725452 1_555
O0 P0 1.522640 1_555
O1 P0 1.498703 1_565
O2 P2 1.590127 1_565
O2 P1 1.607450 1_555
O3 P5 1.498703 1_655
O4 P1 1.535474 1_555
O5 P7 1.590127 1_655
O5 P4 1.607450 1_555
O6 P1 1.506894 1_555
O7 P3 1.535474 1_555
O8 P5 1.522640 1_555
O9 P1 1.533077 1_555
O10 P3 1.506894 1_555
O11 P4 1.533077 1_555
O12 P0 1.612669 1_555
O12 P2 1.612669 1_555
O13 P3 1.533077 1_555
O14 P4 1.506894 1_555
O15 P6 1.533077 1_555
O16 P2 1.522640 1_555
O17 P4 1.535474 1_555
O18 P6 1.506894 1_555
O19 P0 1.590127 1_455
O19 P3 1.607450 1_555
O20 P6 1.535474 1_555
O21 P2 1.498703 1_455
O22 P5 1.590127 1_545
O22 P6 1.607450 1_555
O23 P5 1.612669 1_555
O23 P7 1.612669 1_555
O24 P7 1.498703 1_545
O25 P7 1.522640 1_555
