# generated using pymatgen
data_Li2Mn2OF6
_symmetry_space_group_name_H-M   'P 1'
_cell_length_a   5.49404377
_cell_length_b   6.99732805
_cell_length_c   6.98903639
_cell_angle_alpha   90.45184799
_cell_angle_beta   95.08376125
_cell_angle_gamma   95.07839740
_symmetry_Int_Tables_number   1
_chemical_formula_structural   Li2Mn2OF6
_chemical_formula_sum   'Li4 Mn4 O2 F12'
_cell_volume   266.54288973
_cell_formula_units_Z   2
loop_
 _symmetry_equiv_pos_site_id
 _symmetry_equiv_pos_as_xyz
  1  'x, y, z'
loop_
 _atom_site_type_symbol
 _atom_site_label
 _atom_site_symmetry_multiplicity
 _atom_site_fract_x
 _atom_site_fract_y
 _atom_site_fract_z
 _atom_site_occupancy
  Li  Li0  1  0.43905000  0.52315600  0.80407100  1
  Li  Li1  1  0.06134100  0.19580400  0.47742200  1
  Li  Li2  1  0.93894000  0.80436000  0.52239800  1
  Li  Li3  1  0.56095400  0.47692300  0.19617200  1
  Mn  Mn0  1  0.01191800  0.75554800  0.00712300  1
  Mn  Mn1  1  0.98795100  0.24429000  0.99225100  1
  Mn  Mn2  1  0.51118700  0.00865300  0.75674400  1
  Mn  Mn3  1  0.48870500  0.99143300  0.24357000  1
  O  O0  1  0.25068300  0.97454200  0.02343700  1
  O  O1  1  0.74969000  0.02545100  0.97630400  1
  F  F0  1  0.07788400  0.70894300  0.75226500  1
  F  F1  1  0.00162900  0.25353500  0.72803900  1
  F  F2  1  0.99836300  0.74671400  0.27155400  1
  F  F3  1  0.92214300  0.29071400  0.24744600  1
  F  F4  1  0.26169000  0.98556100  0.53823100  1
  F  F5  1  0.23813800  0.46274500  0.01445200  1
  F  F6  1  0.57867500  0.75396600  0.71140000  1
  F  F7  1  0.49752700  0.27262300  0.74570300  1
  F  F8  1  0.50240800  0.72735000  0.25477400  1
  F  F9  1  0.42111400  0.24593700  0.28885800  1
  F  F10  1  0.76173400  0.53725300  0.98566300  1
  F  F11  1  0.73827500  0.01449800  0.46212300  1
loop_
_geom_bond_atom_site_label_1
_geom_bond_atom_site_label_2
_geom_bond_distance
_geom_bond_site_symmetry_2
Mn0 O0 1.922710 1_555
Mn0 O1 2.474251 1_464
Mn1 O1 1.920253 1_555
Mn1 O0 2.475253 1_646
Mn2 O1 1.923301 1_555
Mn2 O0 2.449266 1_546
Mn3 O0 1.924656 1_555
Mn3 O1 2.454190 1_564
F0 Li2 1.870643 1_455
F0 Mn0 1.880580 1_556
F0 Li0 2.468846 1_555
F1 Mn1 1.856161 1_455
F1 Li1 1.858212 1_555
F2 Mn0 1.857494 1_655
F2 Li2 1.859153 1_555
F3 Li1 1.870364 1_655
F3 Mn1 1.882364 1_554
F3 Li3 2.470429 1_555
F4 Li1 1.941676 1_565
F4 Mn2 1.955321 1_565
F4 Li2 2.080650 1_455
F4 Mn3 2.499171 1_555
F5 Li0 1.942653 1_554
F5 Mn1 1.958708 1_454
F5 Li3 2.082321 1_555
F5 Mn0 2.487219 1_555
F6 Li0 1.871244 1_555
F6 Mn2 1.882231 1_565
F6 Li2 2.476702 1_555
F7 Mn2 1.857168 1_555
F7 Li0 1.858632 1_555
F8 Mn3 1.858039 1_555
F8 Li3 1.858399 1_555
F9 Li3 1.872737 1_555
F9 Mn3 1.881096 1_545
F9 Li1 2.472457 1_555
F10 Li3 1.942832 1_556
F10 Mn0 1.957845 1_656
F10 Li0 2.081286 1_555
F10 Mn1 2.488276 1_555
F11 Li2 1.941501 1_545
F11 Mn3 1.955769 1_545
F11 Li1 2.082524 1_655
F11 Mn2 2.499161 1_555
