# generated using pymatgen
data_Li3V2(OF)4
_symmetry_space_group_name_H-M   'P 1'
_cell_length_a   4.95054477
_cell_length_b   7.34060307
_cell_length_c   7.70013163
_cell_angle_alpha   101.85044981
_cell_angle_beta   90.02930494
_cell_angle_gamma   90.08367514
_symmetry_Int_Tables_number   1
_chemical_formula_structural   Li3V2(OF)4
_chemical_formula_sum   'Li6 V4 O8 F8'
_cell_volume   273.85839986
_cell_formula_units_Z   2
loop_
 _symmetry_equiv_pos_site_id
 _symmetry_equiv_pos_as_xyz
  1  'x, y, z'
loop_
 _atom_site_type_symbol
 _atom_site_label
 _atom_site_symmetry_multiplicity
 _atom_site_fract_x
 _atom_site_fract_y
 _atom_site_fract_z
 _atom_site_occupancy
  Li  Li0  1  0.73785100  0.96726500  0.08766500  1
  Li  Li1  1  0.75616800  0.64102300  0.37237800  1
  Li  Li2  1  0.76557400  0.17500400  0.39770400  1
  Li  Li3  1  0.25406200  0.85841900  0.63448000  1
  Li  Li4  1  0.26674600  0.32403800  0.60522800  1
  Li  Li5  1  0.23496700  0.53332700  0.90835100  1
  V  V0  1  0.22827300  0.83000600  0.16780900  1
  V  V1  1  0.26533900  0.32520000  0.15971700  1
  V  V2  1  0.72609400  0.66915200  0.83508600  1
  V  V3  1  0.76666400  0.17560300  0.84047300  1
  O  O0  1  0.94194900  0.70511900  0.03655700  1
  O  O1  1  0.55147100  0.19674700  0.03548800  1
  O  O2  1  0.36880100  0.54672400  0.17542200  1
  O  O3  1  0.10494400  0.05041700  0.18779500  1
  O  O4  1  0.87399300  0.95501700  0.82637400  1
  O  O5  1  0.60311200  0.44888700  0.81225700  1
  O  O6  1  0.44272700  0.79298700  0.96028300  1
  O  O7  1  0.05294600  0.30385300  0.96165100  1
  F  F0  1  0.57279100  0.91016800  0.29498400  1
  F  F1  1  0.94678800  0.39433200  0.31162500  1
  F  F2  1  0.08668900  0.79810800  0.39647300  1
  F  F3  1  0.43203000  0.29814300  0.38470100  1
  F  F4  1  0.58846800  0.70283500  0.60610100  1
  F  F5  1  0.93341700  0.20207000  0.61574700  1
  F  F6  1  0.06750200  0.59033500  0.70152000  1
  F  F7  1  0.45262600  0.10521900  0.68413600  1
loop_
_geom_bond_atom_site_label_1
_geom_bond_atom_site_label_2
_geom_bond_distance
_geom_bond_site_symmetry_2
Li0 O3 2.017842 1_665
Li0 O1 2.032869 1_565
Li0 O6 2.052072 1_554
Li0 O4 2.106571 1_554
Li0 O0 2.138643 1_555
Li1 O2 2.453296 1_555
Li2 O3 2.381527 1_655
Li3 O4 2.408894 1_455
Li4 O5 2.355181 1_555
Li5 O5 2.017322 1_555
Li5 O7 2.024298 1_555
Li5 O0 2.040728 1_456
Li5 O6 2.128766 1_555
Li5 O2 2.143156 1_556
O0 V2 1.856762 1_554
O0 V0 1.866882 1_655
O1 V3 1.822175 1_554
O1 V1 1.856199 1_555
O2 V1 1.684627 1_555
O2 V0 2.205862 1_555
O3 V0 1.707316 1_545
O3 V1 2.218207 1_555
O4 V3 1.687127 1_565
O4 V2 2.235473 1_555
O5 V2 1.701807 1_555
O5 V3 2.216002 1_555
O6 V2 1.835423 1_555
O6 V0 1.891755 1_556
O7 V1 1.831907 1_556
O7 V3 1.843776 1_455
F0 Li0 1.914930 1_555
F0 V0 1.993192 1_555
F0 Li2 2.162886 1_565
F0 Li1 2.360271 1_555
F1 V1 1.968022 1_655
F1 Li1 2.011489 1_555
F1 Li2 2.066619 1_555
F2 V0 1.953571 1_555
F2 Li3 1.976215 1_555
F2 Li1 1.986885 1_455
F3 Li4 1.859694 1_555
F3 Li2 1.896046 1_555
F3 V1 1.965194 1_555
F4 Li1 1.949686 1_555
F4 V2 1.952583 1_555
F4 Li3 1.999036 1_555
F5 Li2 1.846587 1_555
F5 Li4 1.885946 1_655
F5 V3 1.962817 1_555
F6 Li5 1.916320 1_555
F6 V2 2.002340 1_455
F6 Li4 2.180583 1_555
F6 Li3 2.324758 1_555
F7 V3 1.968086 1_555
F7 Li3 2.025959 1_545
F7 Li4 2.049545 1_555
