# generated using pymatgen
data_Mg2Mn3O8
_symmetry_space_group_name_H-M   'P 1'
_cell_length_a   4.88049741
_cell_length_b   5.74694276
_cell_length_c   9.37741753
_cell_angle_alpha   90.00000000
_cell_angle_beta   90.00000000
_cell_angle_gamma   90.00000000
_symmetry_Int_Tables_number   1
_chemical_formula_structural   Mg2Mn3O8
_chemical_formula_sum   'Mg4 Mn6 O16'
_cell_volume   263.01723726
_cell_formula_units_Z   2
loop_
 _symmetry_equiv_pos_site_id
 _symmetry_equiv_pos_as_xyz
  1  'x, y, z'
loop_
 _atom_site_type_symbol
 _atom_site_label
 _atom_site_symmetry_multiplicity
 _atom_site_fract_x
 _atom_site_fract_y
 _atom_site_fract_z
 _atom_site_occupancy
  Mg  Mg0  1  0.81467538  0.50000000  0.22083696  1
  Mg  Mg1  1  0.82162731  0.50000000  0.81507357  1
  Mg  Mg2  1  0.17837269  -0.00000000  0.31507357  1
  Mg  Mg3  1  0.18532462  -0.00000000  0.72083696  1
  Mn  Mn0  1  0.18436482  0.50000000  0.49759665  1
  Mn  Mn1  1  0.32333696  0.74007677  0.00035920  1
  Mn  Mn2  1  0.67666304  0.75992323  0.50035920  1
  Mn  Mn3  1  0.81563518  -0.00000000  0.99759665  1
  Mn  Mn4  1  0.67666304  0.24007677  0.50035920  1
  Mn  Mn5  1  0.32333696  0.25992323  0.00035920  1
  O  O0  1  0.17765596  0.50000000  0.10750466  1
  O  O1  1  0.85087704  0.50000000  0.60533652  1
  O  O2  1  0.51540005  0.50000000  0.39164232  1
  O  O3  1  0.44791147  0.50000000  0.88741151  1
  O  O4  1  0.99207820  0.72074414  0.38125897  1
  O  O5  1  0.35294743  0.73679709  0.60277123  1
  O  O6  1  0.64705257  0.76320291  0.10277123  1
  O  O7  1  0.00792180  0.77925586  0.88125897  1
  O  O8  1  0.14912296  -0.00000000  0.10533652  1
  O  O9  1  0.48459995  -0.00000000  0.89164232  1
  O  O10  1  0.82234404  -0.00000000  0.60750466  1
  O  O11  1  0.55208853  -0.00000000  0.38741151  1
  O  O12  1  0.00792180  0.22074414  0.88125897  1
  O  O13  1  0.64705257  0.23679709  0.10277123  1
  O  O14  1  0.35294743  0.26320291  0.60277123  1
  O  O15  1  0.99207820  0.27925586  0.38125897  1
loop_
_geom_bond_atom_site_label_1
_geom_bond_atom_site_label_2
_geom_bond_distance
_geom_bond_site_symmetry_2
Mg0 O13 2.045248 1_555
Mg0 O6 2.045248 1_555
Mg0 O0 2.065859 1_655
Mg0 O15 2.149893 1_555
Mg0 O4 2.149893 1_555
Mg0 O2 2.167689 1_555
Mg1 O3 1.945978 1_555
Mg1 O12 1.946141 1_655
Mg1 O7 1.946141 1_655
Mg1 O1 1.971966 1_555
Mg2 O11 1.945978 1_555
Mg2 O15 1.946141 1_455
Mg2 O4 1.946141 1_445
Mg2 O8 1.971966 1_555
Mg3 O5 2.045248 1_545
Mg3 O14 2.045248 1_555
Mg3 O10 2.065859 1_455
Mg3 O7 2.149893 1_545
Mg3 O12 2.149893 1_555
Mg3 O9 2.167689 1_555
Mn0 O14 1.871257 1_555
Mn0 O5 1.871257 1_555
Mn0 O2 1.896685 1_555
Mn0 O1 1.915669 1_455
Mn0 O4 1.918389 1_455
Mn0 O15 1.918389 1_455
Mn1 O3 1.842567 1_554
Mn1 O0 1.848953 1_555
Mn1 O6 1.853650 1_555
Mn1 O7 1.915139 1_554
Mn1 O9 1.972337 1_564
Mn1 O8 1.980740 1_565
Mn2 O11 1.842567 1_565
Mn2 O10 1.848953 1_565
Mn2 O5 1.853650 1_555
Mn2 O4 1.915139 1_555
Mn2 O2 1.972337 1_555
Mn2 O1 1.980740 1_555
Mn3 O6 1.871257 1_546
Mn3 O13 1.871257 1_556
Mn3 O9 1.896685 1_555
Mn3 O8 1.915669 1_656
Mn3 O7 1.918389 1_645
Mn3 O12 1.918389 1_655
Mn4 O11 1.842567 1_555
Mn4 O10 1.848953 1_555
Mn4 O14 1.853650 1_555
Mn4 O15 1.915139 1_555
Mn4 O2 1.972337 1_555
Mn4 O1 1.980740 1_555
Mn5 O3 1.842567 1_554
Mn5 O0 1.848953 1_555
Mn5 O13 1.853650 1_555
Mn5 O12 1.915139 1_554
Mn5 O9 1.972337 1_554
Mn5 O8 1.980740 1_555
