# generated using pymatgen
data_LiFeF3
_symmetry_space_group_name_H-M   'P 1'
_cell_length_a   3.99799800
_cell_length_b   6.46731400
_cell_length_c   9.91315100
_cell_angle_alpha   90.00000000
_cell_angle_beta   90.00000000
_cell_angle_gamma   90.00000000
_symmetry_Int_Tables_number   1
_chemical_formula_structural   LiFeF3
_chemical_formula_sum   'Li4 Fe4 F12'
_cell_volume   256.31748984
_cell_formula_units_Z   4
loop_
 _symmetry_equiv_pos_site_id
 _symmetry_equiv_pos_as_xyz
  1  'x, y, z'
loop_
 _atom_site_type_symbol
 _atom_site_label
 _atom_site_symmetry_multiplicity
 _atom_site_fract_x
 _atom_site_fract_y
 _atom_site_fract_z
 _atom_site_occupancy
  Li  Li0  1  0.75000000  0.22054700  0.44154900  1
  Li  Li1  1  0.75000000  0.72054700  0.05845100  1
  Li  Li2  1  0.25000000  0.27945300  0.94154900  1
  Li  Li3  1  0.25000000  0.77945300  0.55845100  1
  Fe  Fe0  1  0.75000000  0.07464600  0.75803900  1
  Fe  Fe1  1  0.75000000  0.57464600  0.74196100  1
  Fe  Fe2  1  0.25000000  0.42535400  0.25803900  1
  Fe  Fe3  1  0.25000000  0.92535400  0.24196100  1
  F  F0  1  0.75000000  0.34510600  0.89606100  1
  F  F1  1  0.75000000  0.84510600  0.60393900  1
  F  F2  1  0.75000000  0.31309100  0.61818900  1
  F  F3  1  0.75000000  0.40246700  0.28526600  1
  F  F4  1  0.75000000  0.81309100  0.88181100  1
  F  F5  1  0.75000000  0.90246700  0.21473400  1
  F  F6  1  0.25000000  0.09753300  0.78526600  1
  F  F7  1  0.25000000  0.18690900  0.11818900  1
  F  F8  1  0.25000000  0.59753300  0.71473400  1
  F  F9  1  0.25000000  0.68690900  0.38181100  1
  F  F10  1  0.25000000  0.15489400  0.39606100  1
  F  F11  1  0.25000000  0.65489400  0.10393900  1
loop_
_geom_bond_atom_site_label_1
_geom_bond_atom_site_label_2
_geom_bond_distance
_geom_bond_site_symmetry_2
F0 Li2 2.092754 1_655
F0 Li2 2.092754 1_555
F0 Fe1 2.130111 1_555
F0 Fe0 2.220717 1_555
F1 Li3 2.092754 1_555
F1 Li3 2.092754 1_655
F1 Fe0 2.130111 1_565
F1 Fe1 2.220717 1_555
F2 Li0 1.850520 1_555
F2 Fe0 2.073655 1_555
F2 Fe1 2.089695 1_555
F3 Li0 1.945361 1_555
F3 Fe2 2.022562 1_655
F3 Fe2 2.022562 1_555
F4 Li1 1.850520 1_556
F4 Fe1 2.073655 1_555
F4 Fe0 2.089695 1_565
F5 Li1 1.945361 1_555
F5 Fe3 2.022562 1_555
F5 Fe3 2.022562 1_655
F6 Li2 1.945361 1_555
F6 Fe0 2.022562 1_455
F6 Fe0 2.022562 1_555
F7 Li2 1.850520 1_554
F7 Fe2 2.073655 1_555
F7 Fe3 2.089695 1_545
F8 Li3 1.945361 1_555
F8 Fe1 2.022562 1_455
F8 Fe1 2.022562 1_555
F9 Li3 1.850520 1_555
F9 Fe3 2.073655 1_555
F9 Fe2 2.089695 1_555
F10 Li0 2.092754 1_555
F10 Li0 2.092754 1_455
F10 Fe3 2.130111 1_545
F10 Fe2 2.220717 1_555
F11 Li1 2.092754 1_455
F11 Li1 2.092754 1_555
F11 Fe2 2.130111 1_555
F11 Fe3 2.220717 1_555
