# generated using pymatgen
data_Li2RhO3
_symmetry_space_group_name_H-M   'P 1'
_cell_length_a   5.02939631
_cell_length_b   5.02939631
_cell_length_c   5.08355353
_cell_angle_alpha   80.13615618
_cell_angle_beta   80.13615618
_cell_angle_gamma   119.18899049
_symmetry_Int_Tables_number   1
_chemical_formula_structural   Li2RhO3
_chemical_formula_sum   'Li4 Rh2 O6'
_cell_volume   105.63300172
_cell_formula_units_Z   2
loop_
 _symmetry_equiv_pos_site_id
 _symmetry_equiv_pos_as_xyz
  1  'x, y, z'
loop_
 _atom_site_type_symbol
 _atom_site_label
 _atom_site_symmetry_multiplicity
 _atom_site_fract_x
 _atom_site_fract_y
 _atom_site_fract_z
 _atom_site_occupancy
  Li  Li0  1  0.50000000  0.50000000  0.00000000  1
  Li  Li1  1  0.83884425  0.16115575  0.00000000  1
  Li  Li2  1  0.16115575  0.83884425  0.00000000  1
  Li  Li3  1  0.00000000  0.00000000  0.50000000  1
  Rh  Rh0  1  0.66387019  0.33612981  0.50000000  1
  Rh  Rh1  1  0.33612981  0.66387019  0.50000000  1
  O  O0  1  0.57667222  0.92361470  0.73256166  1
  O  O1  1  0.42332778  0.07638530  0.26743834  1
  O  O2  1  0.73872366  0.73872366  0.25451636  1
  O  O3  1  0.92361470  0.57667222  0.73256166  1
  O  O4  1  0.07638530  0.42332778  0.26743834  1
  O  O5  1  0.26127634  0.26127634  0.74548364  1
loop_
_geom_bond_atom_site_label_1
_geom_bond_atom_site_label_2
_geom_bond_distance
_geom_bond_site_symmetry_2
Li0 O2 2.053172 1_555
Li0 O5 2.053172 1_554
Li0 O3 2.136078 1_554
Li0 O0 2.136078 1_554
Li0 O1 2.136078 1_555
Li0 O4 2.136078 1_555
Li1 O2 2.057406 1_545
Li1 O5 2.057406 1_654
Li1 O3 2.087177 1_554
Li1 O1 2.087177 1_555
Li1 O4 2.156017 1_655
Li1 O0 2.156017 1_544
Li2 O5 2.057406 1_564
Li2 O2 2.057406 1_455
Li2 O0 2.087177 1_554
Li2 O4 2.087177 1_555
Li2 O1 2.156017 1_565
Li2 O3 2.156017 1_454
Li3 O3 2.064576 1_445
Li3 O4 2.064576 1_555
Li3 O1 2.064576 1_555
Li3 O0 2.064576 1_445
Li3 O2 2.109567 1_445
Li3 O5 2.109567 1_555
O0 Rh0 1.997232 1_565
O0 Rh1 2.011343 1_555
O1 Rh1 1.997232 1_545
O1 Rh0 2.011343 1_555
O2 Rh0 2.007160 1_555
O2 Rh1 2.007160 1_555
O3 Rh1 1.997232 1_655
O3 Rh0 2.011343 1_555
O4 Rh0 1.997232 1_455
O4 Rh1 2.011343 1_555
O5 Rh0 2.007160 1_555
O5 Rh1 2.007160 1_555
