# generated using pymatgen
data_Li3Mn2(CoO4)2
_symmetry_space_group_name_H-M   'P 1'
_cell_length_a   5.75903700
_cell_length_b   5.78277352
_cell_length_c   5.89901680
_cell_angle_alpha   90.21209711
_cell_angle_beta   118.79671906
_cell_angle_gamma   119.80839403
_symmetry_Int_Tables_number   1
_chemical_formula_structural   Li3Mn2(CoO4)2
_chemical_formula_sum   'Li3 Mn2 Co2 O8'
_cell_volume   141.53924120
_cell_formula_units_Z   1
loop_
 _symmetry_equiv_pos_site_id
 _symmetry_equiv_pos_as_xyz
  1  'x, y, z'
loop_
 _atom_site_type_symbol
 _atom_site_label
 _atom_site_symmetry_multiplicity
 _atom_site_fract_x
 _atom_site_fract_y
 _atom_site_fract_z
 _atom_site_occupancy
  Li  Li0  1  0.00000000  0.50000000  0.00000000  1
  Li  Li1  1  0.00000000  0.50000000  0.50000000  1
  Li  Li2  1  0.50000000  0.00000000  0.50000000  1
  Mn  Mn0  1  0.50000000  0.50000000  0.00000000  1
  Mn  Mn1  1  0.50000000  0.00000000  0.00000000  1
  Co  Co0  1  0.00000000  0.00000000  0.50000000  1
  Co  Co1  1  0.00000000  0.00000000  0.00000000  1
  O  O0  1  0.96035900  0.21529000  0.21804700  1
  O  O1  1  0.50280500  0.24840800  0.78285700  1
  O  O2  1  0.96870200  0.74509300  0.21942000  1
  O  O3  1  0.47547200  0.23478100  0.21025100  1
  O  O4  1  0.52452800  0.76521900  0.78974900  1
  O  O5  1  0.03129800  0.25490700  0.78058000  1
  O  O6  1  0.49719500  0.75159200  0.21714300  1
  O  O7  1  0.03964100  0.78471000  0.78195300  1
loop_
_geom_bond_atom_site_label_1
_geom_bond_atom_site_label_2
_geom_bond_distance
_geom_bond_site_symmetry_2
Li0 O5 2.044950 1_554
Li0 O2 2.044950 1_455
Li0 O6 2.065736 1_555
Li0 O1 2.065736 1_454
Li0 O0 2.083785 1_455
Li0 O7 2.083785 1_554
Li1 O2 2.182824 1_455
Li1 O5 2.182824 1_555
Li1 O7 2.183897 1_555
Li1 O0 2.183897 1_455
Li1 O4 2.190666 1_555
Li1 O3 2.190666 1_455
Li2 O3 2.181740 1_555
Li2 O4 2.181740 1_545
Li2 O1 2.186578 1_555
Li2 O6 2.186578 1_545
Li2 O2 2.212079 1_445
Li2 O5 2.212079 1_655
Mn0 O2 1.946052 1_555
Mn0 O5 1.946052 1_554
Mn0 O6 1.946093 1_555
Mn0 O1 1.946093 1_554
Mn0 O3 1.969252 1_555
Mn0 O4 1.969252 1_554
Mn1 O0 1.911705 1_555
Mn1 O7 1.911705 1_544
Mn1 O6 1.927440 1_545
Mn1 O1 1.927440 1_554
Mn1 O4 1.936113 1_544
Mn1 O3 1.936113 1_555
Co0 O7 2.073777 1_545
Co0 O0 2.073777 1_455
Co0 O2 2.091708 1_445
Co0 O5 2.091708 1_555
Co0 O6 2.103448 1_445
Co0 O1 2.103448 1_555
Co1 O7 1.951965 1_544
Co1 O0 1.951965 1_455
Co1 O5 1.963538 1_554
Co1 O2 1.963538 1_445
Co1 O3 1.974623 1_555
Co1 O4 1.974623 1_444
