# generated using pymatgen
data_Li2CrS3
_symmetry_space_group_name_H-M   'P 1'
_cell_length_a   6.10537767
_cell_length_b   6.10537767
_cell_length_c   12.06056057
_cell_angle_alpha   85.03571951
_cell_angle_beta   85.03571951
_cell_angle_gamma   119.90550339
_symmetry_Int_Tables_number   1
_chemical_formula_structural   Li2CrS3
_chemical_formula_sum   'Li8 Cr4 S12'
_cell_volume   383.84107085
_cell_formula_units_Z   4
loop_
 _symmetry_equiv_pos_site_id
 _symmetry_equiv_pos_as_xyz
  1  'x, y, z'
loop_
 _atom_site_type_symbol
 _atom_site_label
 _atom_site_symmetry_multiplicity
 _atom_site_fract_x
 _atom_site_fract_y
 _atom_site_fract_z
 _atom_site_occupancy
  Li  Li0  1  0.83544200  0.67599600  0.49882800  1
  Li  Li1  1  0.00000000  0.50000000  0.00000000  1
  Li  Li2  1  0.91486700  0.08513300  0.25000000  1
  Li  Li3  1  0.50000000  0.00000000  0.50000000  1
  Li  Li4  1  0.32400400  0.16455800  0.00117200  1
  Li  Li5  1  0.67599600  0.83544200  0.99882800  1
  Li  Li6  1  0.08513300  0.91486700  0.75000000  1
  Li  Li7  1  0.16455800  0.32400400  0.50117200  1
  Cr  Cr0  1  0.75603700  0.24396300  0.75000000  1
  Cr  Cr1  1  0.57757700  0.42242300  0.25000000  1
  Cr  Cr2  1  0.42242300  0.57757700  0.75000000  1
  Cr  Cr3  1  0.24396300  0.75603700  0.25000000  1
  S  S0  1  0.94989300  0.76567400  0.13480200  1
  S  S1  1  0.68955900  0.51136700  0.86285100  1
  S  S2  1  0.87338000  0.41109800  0.36222600  1
  S  S3  1  0.48863300  0.31044100  0.63714900  1
  S  S4  1  0.76567400  0.94989300  0.63480200  1
  S  S5  1  0.41109800  0.87338000  0.86222600  1
  S  S6  1  0.58890200  0.12662000  0.13777400  1
  S  S7  1  0.23432600  0.05010700  0.36519800  1
  S  S8  1  0.51136700  0.68955900  0.36285100  1
  S  S9  1  0.12662000  0.58890200  0.63777400  1
  S  S10  1  0.31044100  0.48863300  0.13714900  1
  S  S11  1  0.05010700  0.23432600  0.86519800  1
loop_
_geom_bond_atom_site_label_1
_geom_bond_atom_site_label_2
_geom_bond_distance
_geom_bond_site_symmetry_2
Li0 S2 2.480363 1_555
Li0 S3 2.505913 1_555
Li0 S4 2.594453 1_555
Li0 S7 2.623423 1_665
Li0 S8 2.704188 1_555
Li0 S9 2.748694 1_655
Li1 S11 2.496580 1_554
Li1 S0 2.496580 1_455
Li1 S1 2.643315 1_454
Li1 S10 2.643315 1_555
Li1 S6 2.678562 1_455
Li1 S5 2.678562 1_554
Li2 S0 2.571697 1_545
Li2 S7 2.571697 1_655
Li2 S10 2.583083 1_655
Li2 S8 2.583083 1_545
Li2 S2 2.601212 1_555
Li2 S6 2.601212 1_555
Li3 S7 2.496580 1_555
Li3 S4 2.496580 1_545
Li3 S3 2.643315 1_555
Li3 S8 2.643315 1_545
Li3 S9 2.678562 1_545
Li3 S2 2.678562 1_555
Li4 S6 2.480363 1_555
Li4 S1 2.505913 1_554
Li4 S11 2.594453 1_554
Li4 S0 2.623423 1_445
Li4 S10 2.704188 1_555
Li4 S5 2.748694 1_544
Li5 S5 2.480363 1_555
Li5 S10 2.505913 1_556
Li5 S0 2.594453 1_556
Li5 S11 2.623423 1_665
Li5 S1 2.704188 1_555
Li5 S6 2.748694 1_566
Li6 S4 2.571697 1_455
Li6 S11 2.571697 1_565
Li6 S1 2.583083 1_455
Li6 S3 2.583083 1_565
Li6 S9 2.601212 1_555
Li6 S5 2.601212 1_555
Li7 S9 2.480363 1_555
Li7 S8 2.505913 1_555
Li7 S7 2.594453 1_555
Li7 S4 2.623423 1_445
Li7 S3 2.704188 1_555
Li7 S2 2.748694 1_455
Cr0 S9 2.368897 1_655
Cr0 S5 2.368897 1_545
Cr0 S3 2.373240 1_555
Cr0 S1 2.373240 1_555
Cr0 S11 2.383308 1_655
Cr0 S4 2.383308 1_545
Cr1 S10 2.371135 1_555
Cr1 S8 2.371135 1_555
Cr1 S2 2.372706 1_555
Cr1 S6 2.372706 1_555
Cr1 S0 2.385089 1_555
Cr1 S7 2.385089 1_555
Cr2 S3 2.371135 1_555
Cr2 S1 2.371135 1_555
Cr2 S5 2.372706 1_555
Cr2 S9 2.372706 1_555
Cr2 S11 2.385089 1_555
Cr2 S4 2.385089 1_555
Cr3 S2 2.368897 1_455
Cr3 S6 2.368897 1_565
Cr3 S8 2.373240 1_555
Cr3 S10 2.373240 1_555
Cr3 S7 2.383308 1_565
Cr3 S0 2.383308 1_455
