# generated using pymatgen
data_LuTlO3
_symmetry_space_group_name_H-M   'P 1'
_cell_length_a   5.69520000
_cell_length_b   5.80756000
_cell_length_c   8.42578300
_cell_angle_alpha   90.00000000
_cell_angle_beta   90.00000000
_cell_angle_gamma   90.00000000
_symmetry_Int_Tables_number   1
_chemical_formula_structural   LuTlO3
_chemical_formula_sum   'Lu4 Tl4 O12'
_cell_volume   278.68459027
_cell_formula_units_Z   4
loop_
 _symmetry_equiv_pos_site_id
 _symmetry_equiv_pos_as_xyz
  1  'x, y, z'
loop_
 _atom_site_type_symbol
 _atom_site_label
 _atom_site_symmetry_multiplicity
 _atom_site_fract_x
 _atom_site_fract_y
 _atom_site_fract_z
 _atom_site_occupancy
  Lu  Lu0  1  0.50000000  0.00000000  0.00000000  1
  Lu  Lu1  1  0.50000000  0.00000000  0.50000000  1
  Lu  Lu2  1  0.00000000  0.50000000  0.00000000  1
  Lu  Lu3  1  0.00000000  0.50000000  0.50000000  1
  Tl  Tl0  1  0.98326500  0.05160500  0.25000000  1
  Tl  Tl1  1  0.48326500  0.44839500  0.75000000  1
  Tl  Tl2  1  0.51673500  0.55160500  0.25000000  1
  Tl  Tl3  1  0.01673500  0.94839500  0.75000000  1
  O  O0  1  0.62664800  0.08119700  0.75000000  1
  O  O1  1  0.17803600  0.18145500  0.57227100  1
  O  O2  1  0.17803600  0.18145500  0.92772900  1
  O  O3  1  0.67803600  0.31854500  0.42772900  1
  O  O4  1  0.67803600  0.31854500  0.07227100  1
  O  O5  1  0.12664800  0.41880300  0.25000000  1
  O  O6  1  0.87335200  0.58119700  0.75000000  1
  O  O7  1  0.32196400  0.68145500  0.57227100  1
  O  O8  1  0.32196400  0.68145500  0.92772900  1
  O  O9  1  0.82196400  0.81854500  0.07227100  1
  O  O10  1  0.82196400  0.81854500  0.42772900  1
  O  O11  1  0.37335200  0.91880300  0.25000000  1
loop_
_geom_bond_atom_site_label_1
_geom_bond_atom_site_label_2
_geom_bond_distance
_geom_bond_site_symmetry_2
Lu0 O8 2.195744 1_544
Lu0 O4 2.195744 1_555
Lu0 O2 2.200817 1_554
Lu0 O9 2.200817 1_545
Lu0 O0 2.275903 1_554
Lu0 O11 2.275903 1_545
Lu1 O7 2.195744 1_545
Lu1 O3 2.195744 1_555
Lu1 O1 2.200817 1_555
Lu1 O10 2.200817 1_545
Lu1 O11 2.275903 1_545
Lu1 O0 2.275903 1_555
Lu2 O2 2.195744 1_554
Lu2 O9 2.195744 1_455
Lu2 O4 2.200817 1_455
Lu2 O8 2.200817 1_554
Lu2 O6 2.275903 1_454
Lu2 O5 2.275903 1_555
Lu3 O10 2.195744 1_455
Lu3 O1 2.195744 1_555
Lu3 O7 2.200817 1_555
Lu3 O3 2.200817 1_455
Lu3 O6 2.275903 1_455
Lu3 O5 2.275903 1_555
O0 Tl1 2.283525 1_555
O0 Tl3 2.351690 1_645
O1 Tl3 2.217750 1_545
O2 Tl3 2.217750 1_545
O3 Tl2 2.217750 1_555
O4 Tl2 2.217750 1_555
O5 Tl0 2.283525 1_455
O5 Tl2 2.351690 1_555
O6 Tl3 2.283525 1_655
O6 Tl1 2.351690 1_555
O7 Tl1 2.217750 1_555
O8 Tl1 2.217750 1_555
O9 Tl0 2.217750 1_565
O10 Tl0 2.217750 1_565
O11 Tl2 2.283525 1_555
O11 Tl0 2.351690 1_465
