# generated using pymatgen
data_Li4Ti3V2Cr4O18
_symmetry_space_group_name_H-M   'P 1'
_cell_length_a   2.97621300
_cell_length_b   9.00350000
_cell_length_c   25.11364900
_cell_angle_alpha   90.00000000
_cell_angle_beta   90.00000000
_cell_angle_gamma   90.00000000
_symmetry_Int_Tables_number   1
_chemical_formula_structural   Li4Ti3V2Cr4O18
_chemical_formula_sum   'Li8 Ti6 V4 Cr8 O36'
_cell_volume   672.95372017
_cell_formula_units_Z   2
loop_
 _symmetry_equiv_pos_site_id
 _symmetry_equiv_pos_as_xyz
  1  'x, y, z'
loop_
 _atom_site_type_symbol
 _atom_site_label
 _atom_site_symmetry_multiplicity
 _atom_site_fract_x
 _atom_site_fract_y
 _atom_site_fract_z
 _atom_site_occupancy
  Li  Li0  1  0.50000000  0.93763700  0.99803400  1
  Li  Li1  1  0.50000000  0.95854200  0.19779800  1
  Li  Li2  1  0.50000000  0.04145800  0.69779800  1
  Li  Li3  1  0.50000000  0.06236300  0.49803400  1
  Li  Li4  1  0.50000000  0.43498700  0.50127100  1
  Li  Li5  1  0.50000000  0.45700700  0.30009000  1
  Li  Li6  1  0.50000000  0.54299300  0.80009000  1
  Li  Li7  1  0.50000000  0.56501300  0.00127100  1
  Ti  Ti0  1  0.50000000  0.75900500  0.10325900  1
  Ti  Ti1  1  0.50000000  0.24099500  0.60325900  1
  Ti  Ti2  1  0.50000000  0.25265000  0.39645700  1
  Ti  Ti3  1  0.00000000  0.39294000  0.69600500  1
  Ti  Ti4  1  0.00000000  0.60706000  0.19600500  1
  Ti  Ti5  1  0.50000000  0.74735000  0.89645700  1
  V  V0  1  0.50000000  0.74850100  0.49979200  1
  V  V1  1  0.00000000  0.89162800  0.80378100  1
  V  V2  1  0.00000000  0.10837200  0.30378100  1
  V  V3  1  0.50000000  0.25149900  0.99979200  1
  Cr  Cr0  1  0.50000000  0.77501300  0.31026600  1
  Cr  Cr1  1  0.00000000  0.88817700  0.58738700  1
  Cr  Cr2  1  0.00000000  0.11182300  0.08738700  1
  Cr  Cr3  1  0.50000000  0.22498700  0.81026600  1
  Cr  Cr4  1  0.50000000  0.27130000  0.19147600  1
  Cr  Cr5  1  0.00000000  0.39146400  0.91234900  1
  Cr  Cr6  1  0.00000000  0.60853600  0.41234900  1
  Cr  Cr7  1  0.50000000  0.72870000  0.69147600  1
  O  O0  1  0.50000000  0.75503400  0.42468100  1
  O  O1  1  0.50000000  0.74264200  0.57525100  1
  O  O2  1  0.00000000  0.79535400  0.94129200  1
  O  O3  1  0.00000000  0.80469900  0.15978100  1
  O  O4  1  0.00000000  0.85615500  0.66511300  1
  O  O5  1  0.50000000  0.84253900  0.75685100  1
  O  O6  1  0.00000000  0.89867700  0.50595100  1
  O  O7  1  0.00000000  0.90713600  0.28361200  1
  O  O8  1  0.50000000  0.93308600  0.85469200  1
  O  O9  1  0.50000000  0.96268300  0.08659200  1
  O  O10  1  0.50000000  0.03731700  0.58659200  1
  O  O11  1  0.50000000  0.06691400  0.35469200  1
  O  O12  1  0.00000000  0.09286400  0.78361200  1
  O  O13  1  0.00000000  0.10132300  0.00595100  1
  O  O14  1  0.50000000  0.15746100  0.25685100  1
  O  O15  1  0.00000000  0.14384500  0.16511300  1
  O  O16  1  0.00000000  0.19530100  0.65978100  1
  O  O17  1  0.00000000  0.20464600  0.44129200  1
  O  O18  1  0.50000000  0.25735800  0.07525100  1
  O  O19  1  0.50000000  0.24496600  0.92468100  1
  O  O20  1  0.00000000  0.29475500  0.55887500  1
  O  O21  1  0.00000000  0.30022100  0.33875300  1
  O  O22  1  0.00000000  0.35268800  0.83530500  1
  O  O23  1  0.50000000  0.33991100  0.74473000  1
  O  O24  1  0.00000000  0.40189400  0.99381500  1
  O  O25  1  0.00000000  0.40308200  0.21801600  1
  O  O26  1  0.50000000  0.43194500  0.64702400  1
  O  O27  1  0.50000000  0.46009100  0.41176600  1
  O  O28  1  0.50000000  0.53990900  0.91176600  1
  O  O29  1  0.50000000  0.56805500  0.14702400  1
  O  O30  1  0.00000000  0.59691800  0.71801600  1
  O  O31  1  0.00000000  0.59810600  0.49381500  1
  O  O32  1  0.50000000  0.66008900  0.24473000  1
  O  O33  1  0.00000000  0.64731200  0.33530500  1
  O  O34  1  0.00000000  0.69977900  0.83875300  1
  O  O35  1  0.00000000  0.70524500  0.05887500  1
loop_
_geom_bond_atom_site_label_1
_geom_bond_atom_site_label_2
_geom_bond_distance
_geom_bond_site_symmetry_2
Li0 O13 2.103788 1_566
Li0 O13 2.103788 1_666
Li0 O9 2.235418 1_556
Li0 O2 2.426141 1_555
Li0 O2 2.426141 1_655
Li1 O3 2.246013 1_555
Li1 O3 2.246013 1_655
Li1 O14 2.325287 1_565
Li1 O15 2.381536 1_665
Li1 O15 2.381536 1_565
Li2 O16 2.246013 1_655
Li2 O16 2.246013 1_555
Li2 O5 2.325287 1_545
Li2 O4 2.381536 1_645
Li2 O4 2.381536 1_545
Li3 O6 2.103788 1_545
Li3 O6 2.103788 1_645
Li3 O10 2.235418 1_555
Li3 O17 2.426141 1_555
Li3 O17 2.426141 1_655
Li4 O31 2.099150 1_655
Li4 O31 2.099150 1_555
Li4 O27 2.259132 1_555
Li4 O20 2.429270 1_555
Li4 O20 2.429270 1_655
Li5 O21 2.269344 1_655
Li5 O21 2.269344 1_555
Li5 O32 2.296984 1_555
Li5 O33 2.435644 1_555
Li5 O33 2.435644 1_655
Li5 O25 2.588173 1_655
Li5 O25 2.588173 1_555
Li6 O34 2.269344 1_655
Li6 O34 2.269344 1_555
Li6 O23 2.296984 1_555
Li6 O22 2.435644 1_555
Li6 O22 2.435644 1_655
Li6 O30 2.588173 1_555
Li6 O30 2.588173 1_655
Li7 O24 2.099150 1_554
Li7 O24 2.099150 1_654
Li7 O28 2.259132 1_554
Li7 O35 2.429270 1_555
Li7 O35 2.429270 1_655
Cr0 O32 1.944083 1_555
Cr0 O33 1.982881 1_555
Cr0 O33 1.982881 1_655
Cr0 O7 2.019308 1_655
Cr0 O7 2.019308 1_555
Cr1 O4 1.973160 1_555
Cr1 O10 2.004476 1_565
Cr1 O10 2.004476 1_465
Cr1 O1 2.006066 1_455
Cr1 O1 2.006066 1_555
Cr1 O6 2.047339 1_555
Cr2 O15 1.973160 1_555
Cr2 O9 2.004476 1_545
Cr2 O9 2.004476 1_445
Cr2 O18 2.006066 1_555
Cr2 O18 2.006066 1_455
Cr2 O13 2.047339 1_555
Cr3 O23 1.944083 1_555
Cr3 O22 1.982881 1_655
Cr3 O22 1.982881 1_555
Cr3 O12 2.019308 1_655
Cr3 O12 2.019308 1_555
Cr4 O14 1.935470 1_555
Cr4 O15 1.992398 1_555
Cr4 O15 1.992398 1_655
Cr4 O25 2.016553 1_555
Cr4 O25 2.016553 1_655
Cr5 O22 1.966101 1_555
Cr5 O28 2.000243 1_455
Cr5 O28 2.000243 1_555
Cr5 O19 2.012492 1_455
Cr5 O19 2.012492 1_555
Cr5 O24 2.048063 1_555
Cr6 O33 1.966101 1_555
Cr6 O27 2.000243 1_555
Cr6 O27 2.000243 1_455
Cr6 O0 2.012492 1_455
Cr6 O0 2.012492 1_555
Cr6 O31 2.048063 1_555
Cr7 O5 1.935470 1_555
Cr7 O4 1.992398 1_655
Cr7 O4 1.992398 1_555
Cr7 O30 2.016553 1_555
Cr7 O30 2.016553 1_655
O0 V0 1.887228 1_555
O1 V0 1.895785 1_555
O2 Ti5 1.915482 1_555
O2 Ti5 1.915482 1_455
O3 Ti4 1.998500 1_555
O3 Ti0 2.097289 1_555
O3 Ti0 2.097289 1_455
O5 V1 1.949066 1_555
O5 V1 1.949066 1_655
O6 V0 2.016578 1_455
O6 V0 2.016578 1_555
O7 V2 1.881298 1_565
O8 Ti5 1.973989 1_555
O8 V1 1.997125 1_555
O8 V1 1.997125 1_655
O9 Ti0 1.880978 1_555
O10 Ti1 1.880978 1_555
O11 Ti2 1.973989 1_555
O11 V2 1.997125 1_555
O11 V2 1.997125 1_655
O12 V1 1.881298 1_545
O13 V3 2.016578 1_554
O13 V3 2.016578 1_454
O14 V2 1.949066 1_655
O14 V2 1.949066 1_555
O16 Ti3 1.998500 1_555
O16 Ti1 2.097289 1_555
O16 Ti1 2.097289 1_455
O17 Ti2 1.915482 1_555
O17 Ti2 1.915482 1_455
O18 V3 1.895785 1_554
O19 V3 1.887228 1_555
O20 Ti1 1.921243 1_455
O20 Ti1 1.921243 1_555
O21 V2 1.937776 1_555
O21 Ti2 2.120841 1_555
O21 Ti2 2.120841 1_455
O23 Ti3 1.984884 1_655
O23 Ti3 1.984884 1_555
O24 V3 2.017555 1_455
O24 V3 2.017555 1_555
O25 Ti4 1.917903 1_555
O26 Ti3 1.962375 1_655
O26 Ti3 1.962375 1_555
O26 Ti1 2.040522 1_555
O27 Ti2 1.906856 1_555
O28 Ti5 1.906856 1_555
O29 Ti4 1.962375 1_655
O29 Ti4 1.962375 1_555
O29 Ti0 2.040522 1_555
O30 Ti3 1.917903 1_555
O31 V0 2.017555 1_555
O31 V0 2.017555 1_455
O32 Ti4 1.984884 1_555
O32 Ti4 1.984884 1_655
O34 V1 1.937776 1_555
O34 Ti5 2.120841 1_455
O34 Ti5 2.120841 1_555
O35 Ti0 1.921243 1_555
O35 Ti0 1.921243 1_455
