# generated using pymatgen
data_NbO2F
_symmetry_space_group_name_H-M   'P 1'
_cell_length_a   5.18492600
_cell_length_b   5.42212400
_cell_length_c   9.03185300
_cell_angle_alpha   90.00000000
_cell_angle_beta   90.00000000
_cell_angle_gamma   90.00000000
_symmetry_Int_Tables_number   1
_chemical_formula_structural   NbO2F
_chemical_formula_sum   'Nb4 O8 F4'
_cell_volume   253.91529864
_cell_formula_units_Z   4
loop_
 _symmetry_equiv_pos_site_id
 _symmetry_equiv_pos_as_xyz
  1  'x, y, z'
loop_
 _atom_site_type_symbol
 _atom_site_label
 _atom_site_symmetry_multiplicity
 _atom_site_fract_x
 _atom_site_fract_y
 _atom_site_fract_z
 _atom_site_occupancy
  Nb  Nb0  1  0.15143800  0.63680600  0.12944800  1
  Nb  Nb1  1  0.34856200  0.36319400  0.62944800  1
  Nb  Nb2  1  0.65143800  0.86319400  0.87055200  1
  Nb  Nb3  1  0.84856200  0.13680600  0.37055200  1
  O  O0  1  0.05870500  0.90427600  0.25267600  1
  O  O1  1  0.95421900  0.65715700  0.96156000  1
  O  O2  1  0.54578100  0.34284300  0.46156000  1
  O  O3  1  0.44129500  0.09572400  0.75267600  1
  O  O4  1  0.55870500  0.59572400  0.74732400  1
  O  O5  1  0.45421900  0.84284300  0.03844000  1
  O  O6  1  0.04578100  0.15715700  0.53844000  1
  O  O7  1  0.94129500  0.40427600  0.24732400  1
  F  F0  1  0.08942500  0.62269200  0.62241300  1
  F  F1  1  0.41057500  0.37730800  0.12241300  1
  F  F2  1  0.58942500  0.87730800  0.37758700  1
  F  F3  1  0.91057500  0.12269200  0.87758700  1
loop_
_geom_bond_atom_site_label_1
_geom_bond_atom_site_label_2
_geom_bond_distance
_geom_bond_site_symmetry_2
Nb0 O1 1.832240 1_454
Nb0 O0 1.890275 1_555
Nb0 O7 1.977439 1_455
Nb0 O5 2.094816 1_555
Nb1 O2 1.832240 1_555
Nb1 O3 1.890275 1_555
Nb1 O4 1.977439 1_555
Nb1 O6 2.094816 1_555
Nb2 O5 1.832240 1_556
Nb2 O4 1.890275 1_555
Nb2 O3 1.977439 1_565
Nb2 O1 2.094816 1_555
Nb3 O6 1.832240 1_655
Nb3 O7 1.890275 1_555
Nb3 O0 1.977439 1_645
Nb3 O2 2.094816 1_555
F0 Nb1 1.946548 1_555
F1 Nb0 1.946548 1_555
F2 Nb3 1.946548 1_565
F3 Nb2 1.946548 1_545
