# generated using pymatgen
data_Cu5Si4(HO7)2
_symmetry_space_group_name_H-M   'P 1'
_cell_length_a   5.33874900
_cell_length_b   10.50888300
_cell_length_c   21.27036000
_cell_angle_alpha   90.00000000
_cell_angle_beta   90.00000000
_cell_angle_gamma   90.00000000
_symmetry_Int_Tables_number   1
_chemical_formula_structural   Cu5Si4(HO7)2
_chemical_formula_sum   'Cu20 Si16 H8 O56'
_cell_volume   1193.35841622
_cell_formula_units_Z   4
loop_
 _symmetry_equiv_pos_site_id
 _symmetry_equiv_pos_as_xyz
  1  'x, y, z'
loop_
 _atom_site_type_symbol
 _atom_site_label
 _atom_site_symmetry_multiplicity
 _atom_site_fract_x
 _atom_site_fract_y
 _atom_site_fract_z
 _atom_site_occupancy
  Cu  Cu0  1  0.00000000  0.50000000  0.50000000  1
  Cu  Cu1  1  0.50000000  0.00000000  0.50000000  1
  Cu  Cu2  1  0.50000000  0.50000000  0.00000000  1
  Cu  Cu3  1  0.00000000  0.00000000  0.00000000  1
  Cu  Cu4  1  0.47757800  0.31699100  0.52849500  1
  Cu  Cu5  1  0.02242200  0.81699100  0.47150500  1
  Cu  Cu6  1  0.97757800  0.68300900  0.97150500  1
  Cu  Cu7  1  0.52242200  0.18300900  0.02849500  1
  Cu  Cu8  1  0.52242200  0.68300900  0.47150500  1
  Cu  Cu9  1  0.97757800  0.18300900  0.52849500  1
  Cu  Cu10  1  0.02242200  0.31699100  0.02849500  1
  Cu  Cu11  1  0.47757800  0.81699100  0.97150500  1
  Cu  Cu12  1  0.02632100  0.25231700  0.21995100  1
  Cu  Cu13  1  0.47367900  0.75231700  0.78004900  1
  Cu  Cu14  1  0.52632100  0.74768300  0.28004900  1
  Cu  Cu15  1  0.97367900  0.24768300  0.71995100  1
  Cu  Cu16  1  0.97367900  0.74768300  0.78004900  1
  Cu  Cu17  1  0.52632100  0.24768300  0.21995100  1
  Cu  Cu18  1  0.47367900  0.25231700  0.71995100  1
  Cu  Cu19  1  0.02632100  0.75231700  0.28004900  1
  Si  Si0  1  0.27377100  0.55513200  0.36705200  1
  Si  Si1  1  0.22622900  0.05513200  0.63294800  1
  Si  Si2  1  0.77377100  0.44486800  0.13294800  1
  Si  Si3  1  0.72622900  0.94486800  0.86705200  1
  Si  Si4  1  0.72622900  0.44486800  0.63294800  1
  Si  Si5  1  0.77377100  0.94486800  0.36705200  1
  Si  Si6  1  0.22622900  0.55513200  0.86705200  1
  Si  Si7  1  0.27377100  0.05513200  0.13294800  1
  Si  Si8  1  0.76547100  0.40058400  0.33951600  1
  Si  Si9  1  0.73452900  0.90058400  0.66048400  1
  Si  Si10  1  0.26547100  0.59941600  0.16048400  1
  Si  Si11  1  0.23452900  0.09941600  0.83951600  1
  Si  Si12  1  0.23452900  0.59941600  0.66048400  1
  Si  Si13  1  0.26547100  0.09941600  0.33951600  1
  Si  Si14  1  0.73452900  0.40058400  0.83951600  1
  Si  Si15  1  0.76547100  0.90058400  0.16048400  1
  H  H0  1  0.82690200  0.75815900  0.08155400  1
  H  H1  1  0.67309800  0.25815900  0.91844600  1
  H  H2  1  0.32690200  0.24184100  0.41844600  1
  H  H3  1  0.17309800  0.74184100  0.58155400  1
  H  H4  1  0.17309800  0.24184100  0.91844600  1
  H  H5  1  0.32690200  0.74184100  0.08155400  1
  H  H6  1  0.67309800  0.75815900  0.58155400  1
  H  H7  1  0.82690200  0.25815900  0.41844600  1
  O  O0  1  0.28827800  0.54828900  0.44415000  1
  O  O1  1  0.21172200  0.04828900  0.55585000  1
  O  O2  1  0.78827800  0.45171100  0.05585000  1
  O  O3  1  0.71172200  0.95171100  0.94415000  1
  O  O4  1  0.71172200  0.45171100  0.55585000  1
  O  O5  1  0.78827800  0.95171100  0.44415000  1
  O  O6  1  0.21172200  0.54828900  0.94415000  1
  O  O7  1  0.28827800  0.04828900  0.05585000  1
  O  O8  1  0.71225900  0.32739600  0.40678300  1
  O  O9  1  0.78774100  0.82739600  0.59321700  1
  O  O10  1  0.21225900  0.67260400  0.09321700  1
  O  O11  1  0.28774100  0.17260400  0.90678300  1
  O  O12  1  0.28774100  0.67260400  0.59321700  1
  O  O13  1  0.21225900  0.17260400  0.40678300  1
  O  O14  1  0.78774100  0.32739600  0.90678300  1
  O  O15  1  0.71225900  0.82739600  0.09321700  1
  O  O16  1  0.27036500  0.70400500  0.34286500  1
  O  O17  1  0.22963500  0.20400500  0.65713500  1
  O  O18  1  0.77036500  0.29599500  0.15713500  1
  O  O19  1  0.72963500  0.79599500  0.84286500  1
  O  O20  1  0.72963500  0.29599500  0.65713500  1
  O  O21  1  0.77036500  0.79599500  0.34286500  1
  O  O22  1  0.22963500  0.70400500  0.84286500  1
  O  O23  1  0.27036500  0.20400500  0.15713500  1
  O  O24  1  0.52402000  0.49478300  0.33285800  1
  O  O25  1  0.97598000  0.99478300  0.66714200  1
  O  O26  1  0.02402000  0.50521700  0.16714200  1
  O  O27  1  0.47598000  0.00521700  0.83285800  1
  O  O28  1  0.47598000  0.50521700  0.66714200  1
  O  O29  1  0.02402000  0.00521700  0.33285800  1
  O  O30  1  0.97598000  0.49478300  0.83285800  1
  O  O31  1  0.52402000  0.99478300  0.16714200  1
  O  O32  1  0.02607500  0.48147300  0.34047100  1
  O  O33  1  0.47392500  0.98147300  0.65952900  1
  O  O34  1  0.52607500  0.51852700  0.15952900  1
  O  O35  1  0.97392500  0.01852700  0.84047100  1
  O  O36  1  0.97392500  0.51852700  0.65952900  1
  O  O37  1  0.52607500  0.01852700  0.34047100  1
  O  O38  1  0.47392500  0.48147300  0.84047100  1
  O  O39  1  0.02607500  0.98147300  0.15952900  1
  O  O40  1  0.77727000  0.30273600  0.28048500  1
  O  O41  1  0.72273000  0.80273600  0.71951500  1
  O  O42  1  0.27727000  0.69726400  0.21951500  1
  O  O43  1  0.22273000  0.19726400  0.78048500  1
  O  O44  1  0.22273000  0.69726400  0.71951500  1
  O  O45  1  0.27727000  0.19726400  0.28048500  1
  O  O46  1  0.72273000  0.30273600  0.78048500  1
  O  O47  1  0.77727000  0.80273600  0.21951500  1
  O  O48  1  0.85866300  0.66184900  0.48534600  1
  O  O49  1  0.64133700  0.16184900  0.51465400  1
  O  O50  1  0.35866300  0.33815100  0.01465400  1
  O  O51  1  0.14133700  0.83815100  0.98534600  1
  O  O52  1  0.14133700  0.33815100  0.51465400  1
  O  O53  1  0.35866300  0.83815100  0.48534600  1
  O  O54  1  0.64133700  0.66184900  0.98534600  1
  O  O55  1  0.85866300  0.16184900  0.01465400  1
loop_
_geom_bond_atom_site_label_1
_geom_bond_atom_site_label_2
_geom_bond_distance
_geom_bond_site_symmetry_2
Cu0 O52 1.886642 1_555
Cu0 O48 1.886642 1_455
Cu0 O0 2.009328 1_555
Cu0 O4 2.009328 1_455
Cu1 O49 1.886642 1_555
Cu1 O53 1.886642 1_545
Cu1 O5 2.009328 1_545
Cu1 O1 2.009328 1_555
Cu2 O50 1.886642 1_555
Cu2 O54 1.886642 1_554
Cu2 O2 2.009328 1_555
Cu2 O6 2.009328 1_554
Cu3 O55 1.886642 1_455
Cu3 O51 1.886642 1_544
Cu3 O7 2.009328 1_555
Cu3 O3 2.009328 1_444
Cu4 O52 1.832629 1_555
Cu4 O49 1.873265 1_555
Cu4 O4 1.976236 1_555
Cu5 O53 1.832629 1_555
Cu5 O48 1.873265 1_455
Cu5 O5 1.976236 1_455
Cu6 O54 1.832629 1_555
Cu6 O51 1.873265 1_655
Cu6 O6 1.976236 1_655
Cu7 O55 1.832629 1_555
Cu7 O50 1.873265 1_555
Cu7 O7 1.976236 1_555
Cu8 O48 1.832629 1_555
Cu8 O53 1.873265 1_555
Cu8 O0 1.976236 1_555
Cu9 O49 1.832629 1_555
Cu9 O52 1.873265 1_655
Cu9 O1 1.976236 1_655
Cu10 O50 1.832629 1_555
Cu10 O55 1.873265 1_455
Cu10 O2 1.976236 1_455
Cu11 O51 1.832629 1_555
Cu11 O54 1.873265 1_555
Cu11 O3 1.976236 1_555
Cu12 O40 1.925225 1_455
Cu12 O23 1.934037 1_555
Cu12 O45 1.946154 1_555
Cu12 O18 1.965498 1_455
Cu13 O41 1.925225 1_555
Cu13 O22 1.934037 1_555
Cu13 O44 1.946154 1_555
Cu13 O19 1.965498 1_555
Cu14 O42 1.925225 1_555
Cu14 O21 1.934037 1_555
Cu14 O47 1.946154 1_555
Cu14 O16 1.965498 1_555
Cu15 O43 1.925225 1_655
Cu15 O20 1.934037 1_555
Cu15 O46 1.946154 1_555
Cu15 O17 1.965498 1_655
Cu16 O44 1.925225 1_655
Cu16 O19 1.934037 1_555
Cu16 O41 1.946154 1_555
Cu16 O22 1.965498 1_655
Cu17 O45 1.925225 1_555
Cu17 O18 1.934037 1_555
Cu17 O40 1.946154 1_555
Cu17 O23 1.965498 1_555
Cu18 O46 1.925225 1_555
Cu18 O17 1.934037 1_555
Cu18 O43 1.946154 1_555
Cu18 O20 1.965498 1_555
Cu19 O47 1.925225 1_455
Cu19 O16 1.934037 1_555
Cu19 O42 1.946154 1_555
Cu19 O21 1.965498 1_455
H0 O15 0.982626 1_555
H1 O14 0.982626 1_555
H2 O13 0.982626 1_555
H3 O12 0.982626 1_555
H4 O11 0.982626 1_555
H5 O10 0.982626 1_555
H6 O9 0.982626 1_555
H7 O8 0.982626 1_555
O0 Si0 1.643304 1_555
O1 Si1 1.643304 1_555
O2 Si2 1.643304 1_555
O3 Si3 1.643304 1_555
O4 Si4 1.643304 1_555
O5 Si5 1.643304 1_555
O6 Si6 1.643304 1_555
O7 Si7 1.643304 1_555
O8 Si8 1.649068 1_555
O9 Si9 1.649068 1_555
O10 Si10 1.649068 1_555
O11 Si11 1.649068 1_555
O12 Si12 1.649068 1_555
O13 Si13 1.649068 1_555
O14 Si14 1.649068 1_555
O15 Si15 1.649068 1_555
O16 Si0 1.647007 1_555
O17 Si1 1.647007 1_555
O18 Si2 1.647007 1_555
O19 Si3 1.647007 1_555
O20 Si4 1.647007 1_555
O21 Si5 1.647007 1_555
O22 Si6 1.647007 1_555
O23 Si7 1.647007 1_555
O24 Si8 1.631456 1_555
O24 Si0 1.648073 1_555
O25 Si9 1.631456 1_555
O25 Si1 1.648073 1_665
O26 Si10 1.631456 1_555
O26 Si2 1.648073 1_455
O27 Si11 1.631456 1_555
O27 Si3 1.648073 1_545
O28 Si12 1.631456 1_555
O28 Si4 1.648073 1_555
O29 Si13 1.631456 1_555
O29 Si5 1.648073 1_445
O30 Si14 1.631456 1_555
O30 Si6 1.648073 1_655
O31 Si15 1.631456 1_555
O31 Si7 1.648073 1_565
O32 Si8 1.630557 1_455
O32 Si0 1.633267 1_555
O33 Si9 1.630557 1_555
O33 Si1 1.633267 1_565
O34 Si10 1.630557 1_555
O34 Si2 1.633267 1_555
O35 Si11 1.630557 1_655
O35 Si3 1.633267 1_545
O36 Si12 1.630557 1_655
O36 Si4 1.633267 1_555
O37 Si13 1.630557 1_555
O37 Si5 1.633267 1_545
O38 Si14 1.630557 1_555
O38 Si6 1.633267 1_555
O39 Si15 1.630557 1_455
O39 Si7 1.633267 1_565
O40 Si8 1.624153 1_555
O41 Si9 1.624153 1_555
O42 Si10 1.624153 1_555
O43 Si11 1.624153 1_555
O44 Si12 1.624153 1_555
O45 Si13 1.624153 1_555
O46 Si14 1.624153 1_555
O47 Si15 1.624153 1_555
