# generated using pymatgen
data_Lu3AlO6
_symmetry_space_group_name_H-M   'P 1'
_cell_length_a   6.29869724
_cell_length_b   6.29869724
_cell_length_c   6.29869782
_cell_angle_alpha   92.01202641
_cell_angle_beta   92.01202641
_cell_angle_gamma   92.01203186
_symmetry_Int_Tables_number   1
_chemical_formula_structural   Lu3AlO6
_chemical_formula_sum   'Lu6 Al2 O12'
_cell_volume   249.41862330
_cell_formula_units_Z   2
loop_
 _symmetry_equiv_pos_site_id
 _symmetry_equiv_pos_as_xyz
  1  'x, y, z'
loop_
 _atom_site_type_symbol
 _atom_site_label
 _atom_site_symmetry_multiplicity
 _atom_site_fract_x
 _atom_site_fract_y
 _atom_site_fract_z
 _atom_site_occupancy
  Lu  Lu0  1  0.74639800  0.93045200  0.43753300  1
  Lu  Lu1  1  0.06954800  0.56246700  0.25360200  1
  Lu  Lu2  1  0.56246700  0.25360200  0.06954800  1
  Lu  Lu3  1  0.43753300  0.74639800  0.93045200  1
  Lu  Lu4  1  0.93045200  0.43753300  0.74639800  1
  Lu  Lu5  1  0.25360200  0.06954800  0.56246700  1
  Al  Al0  1  0.00000000  0.00000000  0.00000000  1
  Al  Al1  1  0.50000000  0.50000000  0.50000000  1
  O  O0  1  0.70372400  0.92983800  0.07616700  1
  O  O1  1  0.07016200  0.92383300  0.29627600  1
  O  O2  1  0.41460700  0.54194400  0.20490600  1
  O  O3  1  0.92383300  0.29627600  0.07016200  1
  O  O4  1  0.45805600  0.79509400  0.58539300  1
  O  O5  1  0.79509400  0.58539300  0.45805600  1
  O  O6  1  0.20490600  0.41460700  0.54194400  1
  O  O7  1  0.54194400  0.20490600  0.41460700  1
  O  O8  1  0.07616700  0.70372400  0.92983800  1
  O  O9  1  0.58539300  0.45805600  0.79509400  1
  O  O10  1  0.92983800  0.07616700  0.70372400  1
  O  O11  1  0.29627600  0.07016200  0.92383300  1
loop_
_geom_bond_atom_site_label_1
_geom_bond_atom_site_label_2
_geom_bond_distance
_geom_bond_site_symmetry_2
Lu0 O10 2.161026 1_565
Lu0 O7 2.197378 1_565
Lu0 O5 2.213212 1_555
Lu0 O4 2.226783 1_555
Lu0 O1 2.254517 1_655
Lu0 O0 2.282412 1_555
Lu1 O3 2.161026 1_455
Lu1 O5 2.197378 1_455
Lu1 O2 2.213212 1_555
Lu1 O6 2.226783 1_555
Lu1 O8 2.254517 1_554
Lu1 O1 2.282412 1_555
Lu2 O11 2.161026 1_554
Lu2 O9 2.197378 1_554
Lu2 O7 2.213212 1_555
Lu2 O2 2.226783 1_555
Lu2 O0 2.254517 1_545
Lu2 O3 2.282412 1_555
Lu3 O0 2.161026 1_556
Lu3 O2 2.197378 1_556
Lu3 O4 2.213212 1_555
Lu3 O9 2.226783 1_555
Lu3 O11 2.254517 1_565
Lu3 O8 2.282412 1_555
Lu4 O8 2.161026 1_655
Lu4 O6 2.197378 1_655
Lu4 O9 2.213212 1_555
Lu4 O5 2.226783 1_555
Lu4 O3 2.254517 1_556
Lu4 O10 2.282412 1_555
Lu5 O1 2.161026 1_545
Lu5 O4 2.197378 1_545
Lu5 O6 2.213212 1_555
Lu5 O7 2.226783 1_555
Lu5 O10 2.254517 1_455
Lu5 O11 2.282412 1_555
Al0 O0 1.981876 1_445
Al0 O11 1.981876 1_554
Al0 O8 1.981877 1_544
Al0 O3 1.981877 1_455
Al0 O10 1.981877 1_454
Al0 O1 1.981877 1_545
Al1 O5 1.946317 1_555
Al1 O6 1.946317 1_555
Al1 O4 1.946317 1_555
Al1 O7 1.946317 1_555
Al1 O9 1.946317 1_555
Al1 O2 1.946317 1_555
