# generated using pymatgen
data_V6O7F5
_symmetry_space_group_name_H-M   'P 1'
_cell_length_a   5.59434100
_cell_length_b   5.60243882
_cell_length_c   7.43806780
_cell_angle_alpha   71.78311542
_cell_angle_beta   72.22953056
_cell_angle_gamma   71.01442460
_symmetry_Int_Tables_number   1
_chemical_formula_structural   V6O7F5
_chemical_formula_sum   'V6 O7 F5'
_cell_volume   203.94821024
_cell_formula_units_Z   1
loop_
 _symmetry_equiv_pos_site_id
 _symmetry_equiv_pos_as_xyz
  1  'x, y, z'
loop_
 _atom_site_type_symbol
 _atom_site_label
 _atom_site_symmetry_multiplicity
 _atom_site_fract_x
 _atom_site_fract_y
 _atom_site_fract_z
 _atom_site_occupancy
  V  V0  1  0.67209900  0.67137700  0.82976400  1
  V  V1  1  0.33051700  0.33525500  0.66464500  1
  V  V2  1  0.67321500  0.62370700  0.32808700  1
  V  V3  1  0.33527300  0.35742200  0.15112200  1
  V  V4  1  0.98065300  0.99714000  0.50831300  1
  V  V5  1  0.01000600  0.02308700  0.00750000  1
  O  O0  1  0.03025600  0.64156700  0.66661900  1
  O  O1  1  0.23530400  0.23921500  0.97148500  1
  O  O2  1  0.43172600  0.42634000  0.36365700  1
  O  O3  1  0.30025800  0.70244800  0.00025600  1
  O  O4  1  0.62257400  0.03164200  0.67011200  1
  O  O5  1  0.98336500  0.35128600  0.33123300  1
  O  O6  1  0.69460000  0.31108000  0.00258500  1
  F  F0  1  0.37375800  0.95767500  0.33349100  1
  F  F1  1  0.57285100  0.56211700  0.62657900  1
  F  F2  1  0.88871700  0.88973500  0.30472500  1
  F  F3  1  0.09007500  0.10362200  0.70577600  1
  F  F4  1  0.77475200  0.77528800  0.03404900  1
loop_
_geom_bond_atom_site_label_1
_geom_bond_atom_site_label_2
_geom_bond_distance
_geom_bond_site_symmetry_2
O0 V4 1.950655 1_455
O0 V1 1.972786 1_555
O0 V0 1.984916 1_455
O1 V5 1.926291 1_556
O1 V3 1.946023 1_556
O1 V1 2.111572 1_555
O2 V2 1.920588 1_555
O2 V3 1.994291 1_555
O2 V1 2.071964 1_555
O3 V3 1.888294 1_555
O3 V5 1.993905 1_565
O3 V0 2.063463 1_554
O4 V1 1.937396 1_555
O4 V0 1.974622 1_545
O4 V4 1.980025 1_545
O5 V2 1.902589 1_555
O5 V4 2.011249 1_545
O5 V3 2.019161 1_655
O6 V3 1.952700 1_555
O6 V5 1.966756 1_655
O6 V0 2.013426 1_554
F0 V2 2.067689 1_555
F0 V4 2.166543 1_455
F0 V3 2.206161 1_565
F1 V1 2.048245 1_555
F1 V2 2.061497 1_555
F1 V0 2.068515 1_555
F2 V4 2.041127 1_555
F2 V5 2.070654 1_665
F2 V2 2.141092 1_555
F3 V4 2.054762 1_445
F3 V1 2.055075 1_555
F3 V5 2.079813 1_556
F4 V2 2.054612 1_555
F4 V0 2.069002 1_554
F4 V5 2.134756 1_665
