# generated using pymatgen
data_CrPO4
_symmetry_space_group_name_H-M   'P 1'
_cell_length_a   9.28793353
_cell_length_b   5.57257075
_cell_length_c   6.46282245
_cell_angle_alpha   102.49993690
_cell_angle_beta   107.12880402
_cell_angle_gamma   80.65505467
_symmetry_Int_Tables_number   1
_chemical_formula_structural   CrPO4
_chemical_formula_sum   'Cr4 P4 O16'
_cell_volume   310.33780681
_cell_formula_units_Z   4
loop_
 _symmetry_equiv_pos_site_id
 _symmetry_equiv_pos_as_xyz
  1  'x, y, z'
loop_
 _atom_site_type_symbol
 _atom_site_label
 _atom_site_symmetry_multiplicity
 _atom_site_fract_x
 _atom_site_fract_y
 _atom_site_fract_z
 _atom_site_occupancy
  Cr  Cr0  1  0.19653800  0.69903200  0.91293700  1
  Cr  Cr1  1  0.43323900  0.20582600  0.16462400  1
  Cr  Cr2  1  0.56683300  0.79402700  0.83537200  1
  Cr  Cr3  1  0.80329300  0.30097300  0.08695900  1
  P  P0  1  0.09571800  0.16132700  0.85158200  1
  P  P1  1  0.47186900  0.34316900  0.71360200  1
  P  P2  1  0.52809600  0.65684900  0.28639900  1
  P  P3  1  0.90428200  0.83870200  0.14844300  1
  O  O0  1  0.14928700  0.35914600  0.76818300  1
  O  O1  1  0.08162300  0.90646500  0.69598600  1
  O  O2  1  0.04485300  0.73986500  0.07082500  1
  O  O3  1  0.23608200  0.06887300  0.05043000  1
  O  O4  1  0.45676200  0.14816700  0.84796800  1
  O  O5  1  0.43780400  0.23214900  0.47382400  1
  O  O6  1  0.37757700  0.60043700  0.75978800  1
  O  O7  1  0.36284400  0.57000700  0.18301400  1
  O  O8  1  0.63716900  0.43000400  0.81697500  1
  O  O9  1  0.62246000  0.39958200  0.24024000  1
  O  O10  1  0.56219700  0.76789100  0.52618600  1
  O  O11  1  0.54327600  0.85179500  0.15204600  1
  O  O12  1  0.76393200  0.93114800  0.94958700  1
  O  O13  1  0.95519400  0.26017600  0.92923800  1
  O  O14  1  0.91835600  0.09356300  0.30395300  1
  O  O15  1  0.85071400  0.64082600  0.23183800  1
loop_
_geom_bond_atom_site_label_1
_geom_bond_atom_site_label_2
_geom_bond_distance
_geom_bond_site_symmetry_2
Cr0 O2 1.928732 1_556
Cr0 O1 1.964867 1_555
Cr0 O0 1.978956 1_555
Cr0 O3 2.105446 1_566
Cr0 O7 2.131658 1_556
Cr0 O6 2.133963 1_555
Cr1 O5 1.960041 1_555
Cr1 O3 1.973403 1_555
Cr1 O7 2.017579 1_555
Cr1 O11 2.065920 1_545
Cr1 O4 2.072446 1_554
Cr1 O9 2.091711 1_555
Cr2 O10 1.959924 1_555
Cr2 O12 1.973359 1_555
Cr2 O8 2.016650 1_555
Cr2 O4 2.066554 1_565
Cr2 O11 2.072632 1_556
Cr2 O6 2.091459 1_555
Cr3 O13 1.929720 1_554
Cr3 O14 1.965300 1_555
Cr3 O15 1.979330 1_555
Cr3 O12 2.104885 1_544
Cr3 O8 2.130539 1_554
Cr3 O9 2.132823 1_555
O0 P0 1.531845 1_555
O1 P0 1.552428 1_565
O2 P3 1.514025 1_455
O3 P0 1.642614 1_554
O4 P1 1.576192 1_555
O5 P1 1.498000 1_555
O6 P1 1.572391 1_555
O7 P2 1.591717 1_555
O8 P1 1.592094 1_555
O9 P2 1.572670 1_555
O10 P2 1.498070 1_555
O11 P2 1.576121 1_555
O12 P3 1.642564 1_556
O13 P0 1.513766 1_655
O14 P3 1.552179 1_545
O15 P3 1.532094 1_555
