# generated using pymatgen
data_Li2Fe3NiO8
_symmetry_space_group_name_H-M   'P 1'
_cell_length_a   8.36042800
_cell_length_b   8.36042800
_cell_length_c   8.36042800
_cell_angle_alpha   90.00000000
_cell_angle_beta   90.00000000
_cell_angle_gamma   90.00000000
_symmetry_Int_Tables_number   1
_chemical_formula_structural   Li2Fe3NiO8
_chemical_formula_sum   'Li8 Fe12 Ni4 O32'
_cell_volume   584.36679884
_cell_formula_units_Z   4
loop_
 _symmetry_equiv_pos_site_id
 _symmetry_equiv_pos_as_xyz
  1  'x, y, z'
loop_
 _atom_site_type_symbol
 _atom_site_label
 _atom_site_symmetry_multiplicity
 _atom_site_fract_x
 _atom_site_fract_y
 _atom_site_fract_z
 _atom_site_occupancy
  Li  Li0  1  0.50135300  0.50135300  0.50135300  1
  Li  Li1  1  0.74864700  0.74864700  0.74864700  1
  Li  Li2  1  0.75135300  0.25135300  0.24864700  1
  Li  Li3  1  0.99864700  0.49864700  0.00135300  1
  Li  Li4  1  0.00135300  0.99864700  0.49864700  1
  Li  Li5  1  0.24864700  0.75135300  0.25135300  1
  Li  Li6  1  0.25135300  0.24864700  0.75135300  1
  Li  Li7  1  0.49864700  0.00135300  0.99864700  1
  Fe  Fe0  1  0.62786700  0.62213300  0.12500000  1
  Fe  Fe1  1  0.62500000  0.87213300  0.37786700  1
  Fe  Fe2  1  0.62213300  0.12500000  0.62786700  1
  Fe  Fe3  1  0.87786700  0.87500000  0.12786700  1
  Fe  Fe4  1  0.87500000  0.12786700  0.87786700  1
  Fe  Fe5  1  0.87213300  0.37786700  0.62500000  1
  Fe  Fe6  1  0.12786700  0.87786700  0.87500000  1
  Fe  Fe7  1  0.12500000  0.62786700  0.62213300  1
  Fe  Fe8  1  0.12213300  0.37500000  0.37213300  1
  Fe  Fe9  1  0.37786700  0.62500000  0.87213300  1
  Fe  Fe10  1  0.37500000  0.37213300  0.12213300  1
  Fe  Fe11  1  0.37213300  0.12213300  0.37500000  1
  Ni  Ni0  1  0.62500000  0.37500000  0.87500000  1
  Ni  Ni1  1  0.87500000  0.62500000  0.37500000  1
  Ni  Ni2  1  0.12500000  0.12500000  0.12500000  1
  Ni  Ni3  1  0.37500000  0.87500000  0.62500000  1
  O  O0  1  0.61889900  0.60167700  0.88357300  1
  O  O1  1  0.61642700  0.38110100  0.10167700  1
  O  O2  1  0.61308400  0.11308400  0.38691600  1
  O  O3  1  0.64832300  0.63110100  0.36642700  1
  O  O4  1  0.60167700  0.88357300  0.61889900  1
  O  O5  1  0.63691600  0.86308400  0.13691600  1
  O  O6  1  0.63357300  0.14832300  0.86889900  1
  O  O7  1  0.63110100  0.36642700  0.64832300  1
  O  O8  1  0.86889900  0.63357300  0.14832300  1
  O  O9  1  0.86642700  0.85167700  0.36889900  1
  O  O10  1  0.86308400  0.13691600  0.63691600  1
  O  O11  1  0.89832300  0.11642700  0.11889900  1
  O  O12  1  0.85167700  0.36889900  0.86642700  1
  O  O13  1  0.88691600  0.88691600  0.88691600  1
  O  O14  1  0.88357300  0.61889900  0.60167700  1
  O  O15  1  0.88110100  0.39832300  0.38357300  1
  O  O16  1  0.11889900  0.89832300  0.11642700  1
  O  O17  1  0.11642700  0.11889900  0.89832300  1
  O  O18  1  0.11308400  0.38691600  0.61308400  1
  O  O19  1  0.14832300  0.86889900  0.63357300  1
  O  O20  1  0.10167700  0.61642700  0.38110100  1
  O  O21  1  0.13691600  0.63691600  0.86308400  1
  O  O22  1  0.13357300  0.35167700  0.13110100  1
  O  O23  1  0.13110100  0.13357300  0.35167700  1
  O  O24  1  0.36889900  0.86642700  0.85167700  1
  O  O25  1  0.36642700  0.64832300  0.63110100  1
  O  O26  1  0.36308400  0.36308400  0.36308400  1
  O  O27  1  0.39832300  0.38357300  0.88110100  1
  O  O28  1  0.35167700  0.13110100  0.13357300  1
  O  O29  1  0.38691600  0.61308400  0.11308400  1
  O  O30  1  0.38357300  0.88110100  0.39832300  1
  O  O31  1  0.38110100  0.10167700  0.61642700  1
loop_
_geom_bond_atom_site_label_1
_geom_bond_atom_site_label_2
_geom_bond_distance
_geom_bond_site_symmetry_2
Li0 O7 1.989707 1_555
Li0 O25 1.989707 1_555
Li0 O3 1.989707 1_555
Li0 O26 2.002230 1_555
Li1 O0 1.989707 1_555
Li1 O14 1.989707 1_555
Li1 O4 1.989707 1_555
Li1 O13 2.002230 1_555
Li2 O1 1.989707 1_555
Li2 O15 1.989707 1_555
Li2 O11 1.989707 1_555
Li2 O2 2.002230 1_555
Li3 O8 1.989707 1_555
Li3 O22 1.989707 1_655
Li3 O12 1.989707 1_554
Li3 O21 2.002230 1_654
Li4 O19 1.989707 1_555
Li4 O23 1.989707 1_565
Li4 O9 1.989707 1_455
Li4 O10 2.002230 1_465
Li5 O20 1.989707 1_555
Li5 O30 1.989707 1_555
Li5 O16 1.989707 1_555
Li5 O29 2.002230 1_555
Li6 O31 1.989707 1_555
Li6 O27 1.989707 1_555
Li6 O17 1.989707 1_555
Li6 O18 2.002230 1_555
Li7 O6 1.989707 1_555
Li7 O28 1.989707 1_556
Li7 O24 1.989707 1_545
Li7 O5 2.002230 1_546
Fe0 O29 2.018334 1_555
Fe0 O5 2.018334 1_555
Fe0 O8 2.026801 1_555
Fe0 O1 2.026801 1_555
Fe0 O3 2.027052 1_555
Fe0 O0 2.027052 1_554
Fe1 O2 2.018334 1_565
Fe1 O5 2.018334 1_555
Fe1 O3 2.026801 1_555
Fe1 O4 2.026801 1_555
Fe1 O9 2.027052 1_555
Fe1 O30 2.027052 1_555
Fe2 O2 2.018334 1_555
Fe2 O10 2.018334 1_555
Fe2 O6 2.026801 1_555
Fe2 O31 2.026801 1_555
Fe2 O7 2.027052 1_555
Fe2 O4 2.027052 1_545
Fe3 O13 2.018334 1_554
Fe3 O5 2.018334 1_555
Fe3 O16 2.026801 1_655
Fe3 O9 2.026801 1_555
Fe3 O11 2.027052 1_565
Fe3 O8 2.027052 1_555
Fe4 O13 2.018334 1_545
Fe4 O10 2.018334 1_555
Fe4 O11 2.026801 1_556
Fe4 O12 2.026801 1_555
Fe4 O17 2.027052 1_655
Fe4 O6 2.027052 1_555
Fe5 O18 2.018334 1_655
Fe5 O10 2.018334 1_555
Fe5 O7 2.026801 1_555
Fe5 O14 2.026801 1_555
Fe5 O12 2.027052 1_555
Fe5 O15 2.027052 1_555
Fe6 O13 2.018334 1_455
Fe6 O21 2.018334 1_555
Fe6 O17 2.026801 1_565
Fe6 O24 2.026801 1_555
Fe6 O16 2.027052 1_556
Fe6 O19 2.027052 1_555
Fe7 O18 2.018334 1_555
Fe7 O21 2.018334 1_555
Fe7 O19 2.026801 1_555
Fe7 O20 2.026801 1_555
Fe7 O25 2.027052 1_555
Fe7 O14 2.027052 1_455
Fe8 O18 2.018334 1_555
Fe8 O26 2.018334 1_555
Fe8 O15 2.026801 1_455
Fe8 O22 2.026801 1_555
Fe8 O20 2.027052 1_555
Fe8 O23 2.027052 1_555
Fe9 O29 2.018334 1_556
Fe9 O21 2.018334 1_555
Fe9 O25 2.026801 1_555
Fe9 O0 2.026801 1_555
Fe9 O24 2.027052 1_555
Fe9 O27 2.027052 1_555
Fe10 O29 2.018334 1_555
Fe10 O26 2.018334 1_555
Fe10 O27 2.026801 1_554
Fe10 O28 2.026801 1_555
Fe10 O1 2.027052 1_555
Fe10 O22 2.027052 1_555
Fe11 O2 2.018334 1_555
Fe11 O26 2.018334 1_555
Fe11 O30 2.026801 1_545
Fe11 O23 2.026801 1_555
Fe11 O31 2.027052 1_555
Fe11 O28 2.027052 1_555
Ni0 O1 1.897157 1_556
Ni0 O12 1.897157 1_555
Ni0 O27 1.897157 1_555
Ni0 O0 1.897157 1_555
Ni0 O7 1.897157 1_555
Ni0 O6 1.897157 1_555
Ni1 O20 1.897157 1_655
Ni1 O9 1.897157 1_555
Ni1 O14 1.897157 1_555
Ni1 O15 1.897157 1_555
Ni1 O3 1.897157 1_555
Ni1 O8 1.897157 1_555
Ni2 O28 1.897157 1_555
Ni2 O22 1.897157 1_555
Ni2 O23 1.897157 1_555
Ni2 O16 1.897157 1_545
Ni2 O11 1.897157 1_455
Ni2 O17 1.897157 1_554
Ni3 O31 1.897157 1_565
Ni3 O24 1.897157 1_555
Ni3 O30 1.897157 1_555
Ni3 O4 1.897157 1_555
Ni3 O25 1.897157 1_555
Ni3 O19 1.897157 1_555
