# generated using pymatgen
data_CrInO3
_symmetry_space_group_name_H-M   'P 1'
_cell_length_a   5.24718300
_cell_length_b   5.45013700
_cell_length_c   7.72987300
_cell_angle_alpha   89.99989555
_cell_angle_beta   90.00006982
_cell_angle_gamma   89.99758950
_symmetry_Int_Tables_number   1
_chemical_formula_structural   CrInO3
_chemical_formula_sum   'Cr4 In4 O12'
_cell_volume   221.05787381
_cell_formula_units_Z   4
loop_
 _symmetry_equiv_pos_site_id
 _symmetry_equiv_pos_as_xyz
  1  'x, y, z'
loop_
 _atom_site_type_symbol
 _atom_site_label
 _atom_site_symmetry_multiplicity
 _atom_site_fract_x
 _atom_site_fract_y
 _atom_site_fract_z
 _atom_site_occupancy
  Cr  Cr0  1  0.50000600  0.00001200  0.00000500  1
  Cr  Cr1  1  0.50001800  0.99999500  0.49999700  1
  Cr  Cr2  1  0.00000900  0.50000100  0.00001200  1
  Cr  Cr3  1  0.99999300  0.49999100  0.49999200  1
  In  In0  1  0.02274900  0.93893200  0.75000000  1
  In  In1  1  0.47723700  0.43894800  0.75000000  1
  In  In2  1  0.52273800  0.56107300  0.25000000  1
  In  In3  1  0.97725400  0.06106400  0.25000000  1
  O  O0  1  0.12788400  0.44157200  0.24999700  1
  O  O1  1  0.37207900  0.94155900  0.25000200  1
  O  O2  1  0.62792700  0.05844200  0.75000100  1
  O  O3  1  0.87211300  0.55842600  0.74999800  1
  O  O4  1  0.19445000  0.19784400  0.56878100  1
  O  O5  1  0.19444500  0.19785100  0.93121600  1
  O  O6  1  0.30548800  0.69780600  0.56878900  1
  O  O7  1  0.30547900  0.69780400  0.93121200  1
  O  O8  1  0.69451200  0.30219300  0.06878700  1
  O  O9  1  0.69451500  0.30218800  0.43121100  1
  O  O10  1  0.80555100  0.80215100  0.06878000  1
  O  O11  1  0.80555500  0.80214900  0.43122000  1
loop_
_geom_bond_atom_site_label_1
_geom_bond_atom_site_label_2
_geom_bond_distance
_geom_bond_site_symmetry_2
Cr0 O10 2.003937 1_545
Cr0 O5 2.003969 1_554
Cr0 O8 2.009188 1_555
Cr0 O7 2.009387 1_544
Cr0 O1 2.070372 1_545
Cr0 O2 2.070393 1_554
Cr1 O11 2.003866 1_555
Cr1 O4 2.004019 1_565
Cr1 O9 2.009225 1_565
Cr1 O6 2.009307 1_555
Cr1 O1 2.070363 1_555
Cr1 O2 2.070386 1_565
Cr2 O7 2.003577 1_554
Cr2 O8 2.003654 1_455
Cr2 O5 2.008822 1_554
Cr2 O10 2.008823 1_455
Cr2 O0 2.070166 1_555
Cr2 O3 2.070408 1_454
Cr3 O9 2.003572 1_555
Cr3 O6 2.003711 1_655
Cr3 O11 2.008811 1_555
Cr3 O4 2.008848 1_655
Cr3 O0 2.070260 1_655
Cr3 O3 2.070334 1_555
In0 O2 2.171657 1_465
In0 O4 2.182949 1_565
In0 O5 2.182950 1_565
In0 O3 2.219365 1_455
In0 O7 2.426904 1_555
In0 O6 2.426927 1_555
In1 O3 2.171927 1_555
In1 O6 2.182773 1_555
In1 O7 2.182795 1_555
In1 O2 2.219404 1_555
In1 O5 2.427099 1_555
In1 O4 2.427118 1_555
In2 O0 2.171854 1_555
In2 O8 2.182919 1_555
In2 O9 2.182929 1_555
In2 O1 2.219244 1_555
In2 O10 2.427128 1_555
In2 O11 2.427136 1_555
In3 O1 2.171663 1_645
In3 O11 2.182960 1_545
In3 O10 2.182964 1_545
In3 O0 2.219364 1_655
In3 O9 2.426921 1_555
In3 O8 2.426950 1_555
