# generated using pymatgen
data_Li4Ti2V3Co3O16
_symmetry_space_group_name_H-M   'P 1'
_cell_length_a   5.83435301
_cell_length_b   5.82939078
_cell_length_c   9.48247126
_cell_angle_alpha   89.91678803
_cell_angle_beta   89.86532305
_cell_angle_gamma   120.03207653
_symmetry_Int_Tables_number   1
_chemical_formula_structural   Li4Ti2V3Co3O16
_chemical_formula_sum   'Li4 Ti2 V3 Co3 O16'
_cell_volume   279.20575903
_cell_formula_units_Z   1
loop_
 _symmetry_equiv_pos_site_id
 _symmetry_equiv_pos_as_xyz
  1  'x, y, z'
loop_
 _atom_site_type_symbol
 _atom_site_label
 _atom_site_symmetry_multiplicity
 _atom_site_fract_x
 _atom_site_fract_y
 _atom_site_fract_z
 _atom_site_occupancy
  Li  Li0  1  0.32824000  0.66195800  0.90415300  1
  Li  Li1  1  0.00991400  0.00605800  0.99533000  1
  Li  Li2  1  0.00470500  0.00351700  0.49313300  1
  Li  Li3  1  0.67214500  0.33653800  0.38913600  1
  Ti  Ti0  1  0.30729500  0.65314100  0.49431900  1
  Ti  Ti1  1  0.67090100  0.33720800  0.00404900  1
  V  V0  1  0.65710300  0.82941300  0.22403500  1
  V  V1  1  0.81371300  0.65037000  0.72076900  1
  V  V2  1  0.80555200  0.15821900  0.71853900  1
  Co  Co0  1  0.17552600  0.83151100  0.21282100  1
  Co  Co1  1  0.17523800  0.34422800  0.21269800  1
  Co  Co2  1  0.34117300  0.16884800  0.70933200  1
  O  O0  1  0.15119200  0.81824100  0.59144300  1
  O  O1  1  0.04628500  0.52297400  0.33102400  1
  O  O2  1  0.33646700  0.66881500  0.10942900  1
  O  O3  1  0.00757100  0.00374300  0.30309400  1
  O  O4  1  0.98828800  0.99446200  0.80492900  1
  O  O5  1  0.14753300  0.33424200  0.59179200  1
  O  O6  1  0.48075700  0.96286500  0.33569500  1
  O  O7  1  0.48059500  0.51852500  0.33590800  1
  O  O8  1  0.33951200  0.16984300  0.09832800  1
  O  O9  1  0.65823900  0.82872900  0.59597900  1
  O  O10  1  0.53541400  0.49523700  0.84844100  1
  O  O11  1  0.53593300  0.03413800  0.84725400  1
  O  O12  1  0.68598600  0.34612500  0.59758300  1
  O  O13  1  0.83956000  0.66953200  0.10033400  1
  O  O14  1  0.96566000  0.48250200  0.83817100  1
  O  O15  1  0.83950300  0.16931600  0.10012500  1
loop_
_geom_bond_atom_site_label_1
_geom_bond_atom_site_label_2
_geom_bond_distance
_geom_bond_site_symmetry_2
Li0 O14 1.937480 1_455
Li0 O2 1.947203 1_556
Li0 O11 1.956661 1_565
Li0 O10 1.964441 1_555
Li1 O4 1.809173 1_445
Li1 O8 1.933163 1_556
Li1 O15 1.956255 1_456
Li1 O13 1.966136 1_446
Li2 O3 1.802070 1_555
Li2 O5 1.920236 1_555
Li2 O0 1.921135 1_545
Li2 O9 2.000389 1_445
Li3 O7 1.953719 1_555
Li3 O6 1.954420 1_545
Li3 O1 1.966635 1_655
Li3 O12 1.978160 1_555
Co0 O2 1.905830 1_555
Co0 O3 1.919466 1_565
Co0 O1 1.921575 1_555
Co0 O6 1.939755 1_555
Co0 O13 2.007890 1_455
Co0 O8 2.020893 1_565
Co1 O2 1.905957 1_555
Co1 O3 1.918025 1_555
Co1 O1 1.922194 1_555
Co1 O7 1.942330 1_555
Co1 O15 2.007443 1_455
Co1 O8 2.025268 1_555
Co2 O4 1.996894 1_445
Co2 O12 2.035632 1_555
Co2 O0 2.097693 1_545
Co2 O10 2.121415 1_555
Co2 O11 2.124962 1_555
Co2 O5 2.131038 1_555
O0 Ti0 1.865471 1_555
O0 V1 2.096390 1_455
O1 Ti0 2.037228 1_555
O2 V0 1.953583 1_555
O3 V0 1.924894 1_445
O4 V1 1.913420 1_555
O4 V2 1.933799 1_565
O5 Ti0 1.853500 1_555
O5 V2 2.101001 1_455
O6 V0 1.892958 1_555
O6 Ti0 2.168517 1_555
O7 V0 1.895104 1_555
O7 Ti0 2.164483 1_555
O8 Ti1 1.894853 1_555
O9 Ti0 2.020810 1_555
O9 V2 2.034033 1_565
O9 V1 2.061453 1_555
O10 V1 1.854093 1_555
O10 Ti1 2.093125 1_556
O11 V2 1.826713 1_555
O11 Ti1 2.138347 1_556
O12 V1 1.937135 1_555
O12 V2 1.940872 1_555
O13 Ti1 1.912079 1_555
O13 V0 2.090013 1_555
O14 V1 1.962824 1_555
O14 V2 1.994149 1_555
O14 Ti1 2.162033 1_556
O15 Ti1 1.928935 1_555
O15 V0 2.077454 1_545
