# generated using pymatgen
data_UVC2
_symmetry_space_group_name_H-M   'P 1'
_cell_length_a   3.19124761
_cell_length_b   5.54752674
_cell_length_c   10.74718300
_cell_angle_alpha   90.00000000
_cell_angle_beta   90.00000000
_cell_angle_gamma   90.00000000
_symmetry_Int_Tables_number   1
_chemical_formula_structural   UVC2
_chemical_formula_sum   'U4 V4 C8'
_cell_volume   190.26309224
_cell_formula_units_Z   4
loop_
 _symmetry_equiv_pos_site_id
 _symmetry_equiv_pos_as_xyz
  1  'x, y, z'
loop_
 _atom_site_type_symbol
 _atom_site_label
 _atom_site_symmetry_multiplicity
 _atom_site_fract_x
 _atom_site_fract_y
 _atom_site_fract_z
 _atom_site_occupancy
  U  U0  1  0.25000000  0.57843946  0.35820325  1
  U  U1  1  0.75000000  0.42156416  0.64179770  1
  U  U2  1  0.25000000  0.07843584  0.14179770  1
  U  U3  1  0.75000000  0.92156054  0.85820325  1
  V  V0  1  0.75000000  0.57935682  0.10005769  1
  V  V1  1  0.75000000  0.07935709  0.39994499  1
  V  V2  1  0.25000000  0.42064291  0.89994499  1
  V  V3  1  0.25000000  0.92064318  0.60005769  1
  C  C0  1  0.25000000  0.23512916  0.49111317  1
  C  C1  1  0.75000000  0.76486755  0.50890090  1
  C  C2  1  0.25000000  0.73513245  0.00890090  1
  C  C3  1  0.75000000  0.26487084  0.99111317  1
  C  C4  1  0.25000000  0.66675972  0.74559065  1
  C  C5  1  0.75000000  0.83324028  0.24559065  1
  C  C6  1  0.25000000  0.16678103  0.75439164  1
  C  C7  1  0.75000000  0.33321897  0.25439164  1
loop_
_geom_bond_atom_site_label_1
_geom_bond_atom_site_label_2
_geom_bond_distance
_geom_bond_site_symmetry_2
C0 V1 2.062227 1_555
C0 V1 2.062227 1_455
C0 V3 2.101090 1_545
C0 U0 2.380663 1_555
C0 U1 2.497651 1_455
C0 U1 2.497651 1_555
C1 V3 2.062177 1_555
C1 V3 2.062177 1_655
C1 V1 2.101175 1_565
C1 U1 2.380548 1_555
C1 U0 2.497727 1_555
C1 U0 2.497727 1_655
C2 V0 2.062177 1_555
C2 V0 2.062177 1_455
C2 V2 2.101175 1_554
C2 U2 2.380548 1_565
C2 U3 2.497727 1_554
C2 U3 2.497727 1_454
C3 V2 2.062227 1_655
C3 V2 2.062227 1_555
C3 V0 2.101090 1_556
C3 U3 2.380663 1_545
C3 U2 2.497651 1_656
C3 U2 2.497651 1_556
C4 V3 2.104751 1_555
C4 V2 2.148492 1_555
C4 U1 2.374982 1_455
C4 U1 2.374982 1_555
C4 U3 2.451283 1_455
C4 U3 2.451283 1_555
C5 V0 2.104751 1_555
C5 V1 2.148492 1_565
C5 U2 2.374982 1_565
C5 U2 2.374982 1_665
C5 U0 2.451283 1_655
C5 U0 2.451283 1_555
C6 V2 2.104833 1_555
C6 V3 2.148397 1_545
C6 U3 2.375155 1_545
C6 U3 2.375155 1_445
C6 U1 2.451127 1_455
C6 U1 2.451127 1_555
C7 V1 2.104833 1_555
C7 V0 2.148397 1_555
C7 U0 2.375155 1_655
C7 U0 2.375155 1_555
C7 U2 2.451127 1_555
C7 U2 2.451127 1_655
