# generated using pymatgen
data_Li5TiMn9O20
_symmetry_space_group_name_H-M   'P 1'
_cell_length_a   5.87694826
_cell_length_b   6.05119558
_cell_length_c   24.44071306
_cell_angle_alpha   89.18143844
_cell_angle_beta   95.54409360
_cell_angle_gamma   120.15124847
_symmetry_Int_Tables_number   1
_chemical_formula_structural   Li5TiMn9O20
_chemical_formula_sum   'Li10 Ti2 Mn18 O40'
_cell_volume   747.46926694
_cell_formula_units_Z   2
loop_
 _symmetry_equiv_pos_site_id
 _symmetry_equiv_pos_as_xyz
  1  'x, y, z'
loop_
 _atom_site_type_symbol
 _atom_site_label
 _atom_site_symmetry_multiplicity
 _atom_site_fract_x
 _atom_site_fract_y
 _atom_site_fract_z
 _atom_site_occupancy
  Li  Li0  1  0.98860500  0.00078800  0.99767500  1
  Li  Li1  1  0.71154100  0.35397000  0.05168600  1
  Li  Li2  1  0.50558700  0.75784300  0.25167300  1
  Li  Li3  1  0.79494000  0.39458100  0.19974000  1
  Li  Li4  1  0.60895100  0.78845500  0.40071700  1
  Li  Li5  1  0.29342600  0.13538200  0.44754300  1
  Li  Li6  1  0.10083500  0.55646100  0.65042300  1
  Li  Li7  1  0.40622900  0.21242400  0.59974100  1
  Li  Li8  1  0.18654100  0.58990000  0.79764400  1
  Li  Li9  1  0.90526200  0.96035700  0.85224800  1
  Ti  Ti0  1  0.25567800  0.88215900  0.12619100  1
  Ti  Ti1  1  0.75582500  0.89595100  0.62185800  1
  Mn  Mn0  1  0.35072200  0.67629700  0.02506100  1
  Mn  Mn1  1  0.25002600  0.37663100  0.12445000  1
  Mn  Mn2  1  0.05892000  0.77081900  0.32635900  1
  Mn  Mn3  1  0.75132500  0.87814800  0.12472900  1
  Mn  Mn4  1  0.14506400  0.08064400  0.22581400  1
  Mn  Mn5  1  0.05700700  0.27199300  0.32528700  1
  Mn  Mn6  1  0.55312000  0.26844900  0.32516600  1
  Mn  Mn7  1  0.34809300  0.67228600  0.52439500  1
  Mn  Mn8  1  0.84839000  0.67014100  0.52361200  1
  Mn  Mn9  1  0.95134900  0.45095200  0.42438000  1
  Mn  Mn10  1  0.64408400  0.57235800  0.72361600  1
  Mn  Mn11  1  0.14493100  0.06899400  0.72440200  1
  Mn  Mn12  1  0.44553200  0.97968900  0.92482100  1
  Mn  Mn13  1  0.85010500  0.17536200  0.52362300  1
  Mn  Mn14  1  0.44717500  0.48071900  0.92457600  1
  Mn  Mn15  1  0.64121000  0.06860600  0.72454000  1
  Mn  Mn16  1  0.54686600  0.27522500  0.82467900  1
  Mn  Mn17  1  0.94708100  0.48306400  0.92455700  1
  O  O0  1  0.09509400  0.54842800  0.07817100  1
  O  O1  1  0.54621800  0.00090800  0.07958600  1
  O  O2  1  0.34766700  0.94266200  0.28253500  1
  O  O3  1  0.55217300  0.55495700  0.08107500  1
  O  O4  1  0.45622300  0.75349300  0.16949800  1
  O  O5  1  0.04434200  0.99603800  0.07992400  1
  O  O6  1  0.22163900  0.57867700  0.37453800  1
  O  O7  1  0.40670400  0.20638400  0.17200700  1
  O  O8  1  0.95618000  0.76035400  0.17267600  1
  O  O9  1  0.88887300  0.96090900  0.27886300  1
  O  O10  1  0.33120200  0.39687700  0.27692100  1
  O  O11  1  0.12670700  0.76671300  0.47327500  1
  O  O12  1  0.12181000  0.31749700  0.47505300  1
  O  O13  1  0.03986100  0.52312100  0.56579100  1
  O  O14  1  0.24622600  0.12771900  0.36701900  1
  O  O15  1  0.94494400  0.20114500  0.16575600  1
  O  O16  1  0.77386400  0.58867600  0.37398800  1
  O  O17  1  0.86364200  0.41479600  0.28374300  1
  O  O18  1  0.65975700  0.82562000  0.48407000  1
  O  O19  1  0.02711400  0.03798900  0.57492300  1
  O  O20  1  0.78374000  0.15090900  0.37549900  1
  O  O21  1  0.34419300  0.93951300  0.76720700  1
  O  O22  1  0.57240100  0.57351300  0.57610000  1
  O  O23  1  0.67850400  0.31150700  0.47434300  1
  O  O24  1  0.48761400  0.75255500  0.67916800  1
  O  O25  1  0.84790500  0.94471700  0.76817200  1
  O  O26  1  0.93707800  0.75479400  0.67812000  1
  O  O27  1  0.24474600  0.65775700  0.88050300  1
  O  O28  1  0.58089300  0.03167600  0.57605200  1
  O  O29  1  0.44106700  0.19705500  0.68090500  1
  O  O30  1  0.35030200  0.38852400  0.76949400  1
  O  O31  1  0.15036300  0.80260200  0.96923200  1
  O  O32  1  0.80048700  0.39005900  0.76884800  1
  O  O33  1  0.60274800  0.81284600  0.97051700  1
  O  O34  1  0.15018300  0.35547100  0.96753700  1
  O  O35  1  0.29051100  0.14786000  0.87854700  1
  O  O36  1  0.93774700  0.19363900  0.67870000  1
  O  O37  1  0.74432100  0.60932200  0.88183500  1
  O  O38  1  0.74102200  0.16026400  0.87838100  1
  O  O39  1  0.64830900  0.30272200  0.96824400  1
loop_
_geom_bond_atom_site_label_1
_geom_bond_atom_site_label_2
_geom_bond_distance
_geom_bond_site_symmetry_2
Li0 O33 2.004060 1_545
Li0 O5 2.007411 1_646
Li0 O34 2.023194 1_655
Li0 O31 2.030272 1_645
Li1 O0 1.989971 1_655
Li1 O1 1.993623 1_555
Li1 O39 2.036961 1_554
Li1 O3 2.042444 1_555
Li2 O2 1.970565 1_555
Li2 O9 1.994760 1_555
Li2 O4 1.999961 1_555
Li2 O10 2.009246 1_555
Li3 O15 2.010727 1_555
Li3 O7 2.018716 1_555
Li3 O17 2.047086 1_555
Li3 O8 2.051043 1_555
Li4 O6 2.010244 1_555
Li4 O20 2.016426 1_565
Li4 O18 2.029296 1_555
Li4 O16 2.037017 1_555
Li5 O14 1.958717 1_555
Li5 O12 1.988086 1_555
Li5 O23 1.999257 1_555
Li5 O11 2.053184 1_545
Li6 O24 2.018459 1_555
Li6 O26 2.033270 1_455
Li6 O36 2.046276 1_455
Li6 O13 2.060034 1_555
Li7 O19 1.959816 1_555
Li7 O28 1.961107 1_555
Li7 O29 1.980161 1_555
Li7 O22 1.997809 1_555
Li8 O21 2.001656 1_555
Li8 O32 2.016143 1_455
Li8 O27 2.033614 1_555
Li8 O30 2.052929 1_555
Li9 O35 1.996405 1_665
Li9 O37 1.999907 1_555
Li9 O38 2.029060 1_565
Li9 O25 2.045672 1_555
Mn0 O0 1.928972 1_555
Mn0 O33 1.942752 1_554
Mn0 O3 2.084796 1_555
Mn0 O31 2.096744 1_554
Mn0 O1 2.113331 1_565
Mn0 O34 2.143345 1_554
Mn1 O15 1.941128 1_455
Mn1 O3 1.961517 1_555
Mn1 O0 1.976725 1_555
Mn1 O7 1.993008 1_555
Mn1 O4 2.217891 1_555
Mn1 O5 2.229412 1_545
Mn2 O2 1.911781 1_555
Mn2 O16 1.965115 1_455
Mn2 O14 2.079717 1_565
Mn2 O17 2.095862 1_455
Mn2 O6 2.124420 1_555
Mn2 O9 2.135850 1_455
Mn3 O15 1.929182 1_565
Mn3 O5 1.944605 1_655
Mn3 O4 1.950111 1_555
Mn3 O1 1.959915 1_565
Mn3 O3 1.962613 1_555
Mn3 O8 1.973919 1_555
Mn4 O9 1.930647 1_445
Mn4 O7 1.964575 1_555
Mn4 O10 2.029804 1_555
Mn4 O8 2.075425 1_445
Mn4 O15 2.137020 1_455
Mn4 O2 2.164120 1_545
Mn5 O10 1.919471 1_555
Mn5 O14 1.941592 1_555
Mn5 O9 1.945032 1_445
Mn5 O20 1.948108 1_455
Mn5 O17 1.951291 1_455
Mn5 O6 1.965739 1_555
Mn6 O14 1.952739 1_555
Mn6 O17 1.961489 1_555
Mn6 O2 1.963245 1_545
Mn6 O16 2.025670 1_555
Mn6 O10 2.095261 1_555
Mn6 O20 2.115988 1_555
Mn7 O18 1.950018 1_555
Mn7 O13 1.950707 1_555
Mn7 O11 1.998159 1_555
Mn7 O22 2.034701 1_555
Mn7 O12 2.174395 1_555
Mn7 O28 2.225094 1_565
Mn8 O18 1.965425 1_555
Mn8 O13 1.968688 1_655
Mn8 O11 1.984568 1_655
Mn8 O22 2.011534 1_555
Mn8 O23 2.195953 1_555
Mn8 O19 2.259918 1_665
Mn9 O6 1.928274 1_655
Mn9 O20 1.931842 1_555
Mn9 O12 1.932351 1_655
Mn9 O23 1.940117 1_555
Mn9 O16 1.973608 1_555
Mn9 O11 1.997548 1_655
Mn10 O26 1.960976 1_555
Mn10 O30 1.970973 1_555
Mn10 O24 1.998785 1_555
Mn10 O32 2.017749 1_555
Mn10 O29 2.185385 1_555
Mn10 O25 2.191900 1_555
Mn11 O29 1.933581 1_555
Mn11 O21 1.934256 1_545
Mn11 O25 1.943243 1_445
Mn11 O26 1.961615 1_445
Mn11 O30 1.967080 1_555
Mn11 O36 1.983645 1_455
Mn12 O31 1.949064 1_555
Mn12 O33 1.955963 1_555
Mn12 O39 1.960172 1_565
Mn12 O35 1.960629 1_565
Mn12 O27 1.965892 1_555
Mn12 O38 1.984231 1_565
Mn13 O12 1.912096 1_655
Mn13 O23 1.928215 1_555
Mn13 O28 1.969553 1_555
Mn13 O19 1.982955 1_655
Mn13 O18 2.033736 1_545
Mn13 O13 2.053424 1_655
Mn14 O37 1.926266 1_555
Mn14 O34 1.930244 1_555
Mn14 O33 2.038637 1_555
Mn14 O35 2.042527 1_555
Mn14 O39 2.167684 1_555
Mn14 O27 2.173245 1_555
Mn15 O21 1.924392 1_545
Mn15 O29 1.943549 1_555
Mn15 O25 1.953581 1_545
Mn15 O24 1.958335 1_545
Mn15 O32 1.966679 1_555
Mn15 O36 1.973131 1_555
Mn16 O35 1.945503 1_555
Mn16 O32 1.972799 1_555
Mn16 O38 1.997633 1_555
Mn16 O30 2.022822 1_555
Mn16 O37 2.189968 1_555
Mn16 O21 2.201393 1_545
Mn17 O37 1.935269 1_555
Mn17 O34 1.945422 1_655
Mn17 O27 1.952117 1_655
Mn17 O39 1.953997 1_555
Mn17 O31 1.961107 1_655
Mn17 O38 1.994569 1_555
O0 Ti0 2.070142 1_555
O1 Ti0 1.961933 1_545
O4 Ti0 1.942378 1_555
O5 Ti0 1.965275 1_555
O7 Ti0 2.003080 1_545
O8 Ti0 1.997831 1_655
O19 Ti1 1.882872 1_445
O22 Ti1 1.983987 1_555
O24 Ti1 2.053625 1_555
O26 Ti1 2.086285 1_555
O28 Ti1 1.893237 1_545
O36 Ti1 2.041524 1_545
