# generated using pymatgen
data_Li7Mn5O12
_symmetry_space_group_name_H-M   'P 1'
_cell_length_a   5.10334661
_cell_length_b   5.10334661
_cell_length_c   9.66789204
_cell_angle_alpha   85.06915557
_cell_angle_beta   85.06915557
_cell_angle_gamma   119.35391922
_symmetry_Int_Tables_number   1
_chemical_formula_structural   Li7Mn5O12
_chemical_formula_sum   'Li7 Mn5 O12'
_cell_volume   216.26015357
_cell_formula_units_Z   1
loop_
 _symmetry_equiv_pos_site_id
 _symmetry_equiv_pos_as_xyz
  1  'x, y, z'
loop_
 _atom_site_type_symbol
 _atom_site_label
 _atom_site_symmetry_multiplicity
 _atom_site_fract_x
 _atom_site_fract_y
 _atom_site_fract_z
 _atom_site_occupancy
  Li  Li0  1  0.74271200  0.25728800  0.50000000  1
  Li  Li1  1  0.82457200  0.65144900  0.26451500  1
  Li  Li2  1  0.67843700  0.84767000  0.73444000  1
  Li  Li3  1  0.34855100  0.17542800  0.73548500  1
  Li  Li4  1  0.15233000  0.32156300  0.26556000  1
  Li  Li5  1  0.25594000  0.74406000  0.00000000  1
  Li  Li6  1  0.07885900  0.92114100  0.50000000  1
  Mn  Mn0  1  0.92691900  0.07308100  0.00000000  1
  Mn  Mn1  1  0.99538900  0.50803300  0.74007800  1
  Mn  Mn2  1  0.49196700  0.00461100  0.25992200  1
  Mn  Mn3  1  0.58544900  0.41455100  0.00000000  1
  Mn  Mn4  1  0.41940000  0.58060000  0.50000000  1
  O  O0  1  0.05942800  0.25123900  0.62278200  1
  O  O1  1  0.74876100  0.94057200  0.37721800  1
  O  O2  1  0.84017500  0.34409100  0.12640500  1
  O  O3  1  0.65590900  0.15982500  0.87359500  1
  O  O4  1  0.69588300  0.55033700  0.61693100  1
  O  O5  1  0.44966300  0.30411700  0.38306900  1
  O  O6  1  0.57895600  0.72004900  0.10738600  1
  O  O7  1  0.27995100  0.42104400  0.89261400  1
  O  O8  1  0.34983100  0.83783900  0.63072500  1
  O  O9  1  0.16216100  0.65016900  0.36927500  1
  O  O10  1  0.24437100  0.06561200  0.12125100  1
  O  O11  1  0.93438800  0.75562900  0.87874900  1
loop_
_geom_bond_atom_site_label_1
_geom_bond_atom_site_label_2
_geom_bond_distance
_geom_bond_site_symmetry_2
Li0 O4 2.041152 1_555
Li0 O5 2.041152 1_555
Li0 O0 2.096409 1_655
Li0 O1 2.096409 1_545
Li0 O9 2.256321 1_655
Li0 O8 2.256321 1_545
Li1 O5 2.016218 1_555
Li1 O1 2.068229 1_555
Li1 O9 2.074569 1_655
Li1 O6 2.160452 1_555
Li1 O2 2.171120 1_555
Li1 O10 2.350055 1_665
Li2 O4 2.003112 1_555
Li2 O8 2.008845 1_555
Li2 O0 2.125674 1_665
Li2 O11 2.162276 1_555
Li2 O3 2.209593 1_565
Li2 O7 2.401361 1_555
Li3 O4 2.016218 1_555
Li3 O0 2.068229 1_555
Li3 O8 2.074569 1_545
Li3 O7 2.160452 1_555
Li3 O3 2.171120 1_555
Li3 O11 2.350055 1_445
Li4 O5 2.003112 1_555
Li4 O9 2.008845 1_555
Li4 O1 2.125674 1_445
Li4 O10 2.162276 1_555
Li4 O2 2.209593 1_455
Li4 O6 2.401361 1_555
Li5 O6 2.068978 1_555
Li5 O7 2.068978 1_554
Li5 O10 2.117608 1_565
Li5 O11 2.117608 1_454
Li5 O3 2.245264 1_564
Li5 O2 2.245264 1_455
Li6 O4 2.074906 1_455
Li6 O5 2.074906 1_565
Li6 O8 2.115363 1_555
Li6 O9 2.115363 1_555
Li6 O0 2.178096 1_565
Li6 O1 2.178096 1_455
Mn0 O7 1.924072 1_654
Mn0 O6 1.924072 1_545
Mn0 O10 2.092738 1_655
Mn0 O11 2.092738 1_544
Mn0 O2 2.097639 1_555
Mn0 O3 2.097639 1_554
Mn1 O8 1.898160 1_655
Mn1 O0 1.929215 1_655
Mn1 O3 2.007099 1_555
Mn1 O11 2.023856 1_555
Mn1 O4 2.095828 1_555
Mn1 O7 2.316987 1_655
Mn2 O9 1.898160 1_545
Mn2 O1 1.929215 1_545
Mn2 O2 2.007099 1_555
Mn2 O10 2.023856 1_555
Mn2 O5 2.095828 1_555
Mn2 O6 2.316987 1_545
Mn3 O11 1.956152 1_554
Mn3 O10 1.956152 1_555
Mn3 O7 1.957705 1_554
Mn3 O6 1.957705 1_555
Mn3 O2 1.992103 1_555
Mn3 O3 1.992103 1_554
Mn4 O5 1.936636 1_555
Mn4 O4 1.936636 1_555
Mn4 O0 1.965687 1_555
Mn4 O1 1.965687 1_555
Mn4 O9 2.027745 1_555
Mn4 O8 2.027745 1_555
