# generated using pymatgen
data_V2O5
_symmetry_space_group_name_H-M   'P 1'
_cell_length_a   5.89089401
_cell_length_b   5.89089401
_cell_length_c   5.36275460
_cell_angle_alpha   82.89511773
_cell_angle_beta   82.89511773
_cell_angle_gamma   28.37785213
_symmetry_Int_Tables_number   1
_chemical_formula_structural   V2O5
_chemical_formula_sum   'V2 O5'
_cell_volume   87.72841086
_cell_formula_units_Z   1
loop_
 _symmetry_equiv_pos_site_id
 _symmetry_equiv_pos_as_xyz
  1  'x, y, z'
loop_
 _atom_site_type_symbol
 _atom_site_label
 _atom_site_symmetry_multiplicity
 _atom_site_fract_x
 _atom_site_fract_y
 _atom_site_fract_z
 _atom_site_occupancy
  V  V0  1  0.13971600  0.13971600  0.62667100  1
  V  V1  1  0.86028400  0.86028400  0.37332900  1
  O  O0  1  0.00000000  0.00000000  0.50000000  1
  O  O1  1  0.61221300  0.61221300  0.83179400  1
  O  O2  1  0.38778700  0.38778700  0.16820600  1
  O  O3  1  0.30594400  0.30594400  0.63048600  1
  O  O4  1  0.69405600  0.69405600  0.36951400  1
loop_
_geom_bond_atom_site_label_1
_geom_bond_atom_site_label_2
_geom_bond_distance
_geom_bond_site_symmetry_2
O0 V0 1.812435 1_555
O0 V1 1.812435 1_445
O1 V0 1.818141 1_655
O1 V0 1.818141 1_565
O2 V1 1.818141 1_545
O2 V1 1.818141 1_455
O3 V0 1.901434 1_555
O3 V1 2.038075 1_455
O3 V1 2.038075 1_545
O4 V1 1.901434 1_555
O4 V0 2.038075 1_565
O4 V0 2.038075 1_655
