# generated using pymatgen
data_Li7Mn8(BO3)8
_symmetry_space_group_name_H-M   'P 1'
_cell_length_a   5.29524700
_cell_length_b   9.03900248
_cell_length_c   11.57748846
_cell_angle_alpha   112.74322362
_cell_angle_beta   100.91989128
_cell_angle_gamma   90.09522042
_symmetry_Int_Tables_number   1
_chemical_formula_structural   Li7Mn8(BO3)8
_chemical_formula_sum   'Li7 Mn8 B8 O24'
_cell_volume   500.08260150
_cell_formula_units_Z   1
loop_
 _symmetry_equiv_pos_site_id
 _symmetry_equiv_pos_as_xyz
  1  'x, y, z'
loop_
 _atom_site_type_symbol
 _atom_site_label
 _atom_site_symmetry_multiplicity
 _atom_site_fract_x
 _atom_site_fract_y
 _atom_site_fract_z
 _atom_site_occupancy
  Li  Li0  1  0.91607200  0.06635900  0.16080600  1
  Li  Li1  1  0.85874400  0.71661400  0.42162300  1
  Li  Li2  1  0.41984300  0.56586500  0.16260300  1
  Li  Li3  1  0.61732500  0.44876300  0.90370700  1
  Li  Li4  1  0.36724600  0.21042300  0.42261600  1
  Li  Li5  1  0.18088500  0.35788900  0.66649800  1
  Li  Li6  1  0.12792300  0.95827900  0.91967400  1
  Mn  Mn0  1  0.90131800  0.72064700  0.12571900  1
  Mn  Mn1  1  0.85647700  0.36038700  0.38699000  1
  Mn  Mn2  1  0.66737700  0.12932500  0.62884400  1
  Mn  Mn3  1  0.40676500  0.22787300  0.13538000  1
  Mn  Mn4  1  0.61638200  0.77427600  0.86997400  1
  Mn  Mn5  1  0.34914700  0.84829300  0.37682000  1
  Mn  Mn6  1  0.14680000  0.67050800  0.63585200  1
  Mn  Mn7  1  0.10654300  0.28055300  0.88399000  1
  B  B0  1  0.88932200  0.38731300  0.12315400  1
  B  B1  1  0.86243400  0.01256000  0.37704500  1
  B  B2  1  0.64331800  0.47544800  0.62675600  1
  B  B3  1  0.39832500  0.88910200  0.12455000  1
  B  B4  1  0.61007800  0.10535700  0.87364700  1
  B  B5  1  0.35264300  0.51643200  0.37616500  1
  B  B6  1  0.13085400  0.99702500  0.62040600  1
  B  B7  1  0.11218600  0.61074000  0.87473600  1
  O  O0  1  0.99147200  0.13309000  0.36162900  1
  O  O1  1  0.94205300  0.85706300  0.33758100  1
  O  O2  1  0.80997000  0.28050700  0.17179100  1
  O  O3  1  0.98360600  0.86679400  0.60769000  1
  O  O4  1  0.72697100  0.49635600  0.09909300  1
  O  O5  1  0.89054400  0.46530200  0.59655500  1
  O  O6  1  0.64058600  0.88202200  0.09345500  1
  O  O7  1  0.87882100  0.61739300  0.91541300  1
  O  O8  1  0.64078200  0.04184600  0.43257900  1
  O  O9  1  0.77054200  0.99378800  0.88641500  1
  O  O10  1  0.49453800  0.62953800  0.35580900  1
  O  O11  1  0.68803300  0.21468500  0.82094400  1
  O  O12  1  0.44112600  0.36235200  0.34802300  1
  O  O13  1  0.53843600  0.62182500  0.66949500  1
  O  O14  1  0.50522900  0.33544200  0.61045200  1
  O  O15  1  0.31172500  0.77681700  0.16782300  1
  O  O16  1  0.24236500  0.00731600  0.11288700  1
  O  O17  1  0.36412100  0.98066500  0.58059300  1
  O  O18  1  0.13457300  0.38127200  0.09239800  1
  O  O19  1  0.37629400  0.12398300  0.91376000  1
  O  O20  1  0.12192400  0.55275700  0.41831600  1
  O  O21  1  0.25328800  0.47836400  0.85994700  1
  O  O22  1  0.20083200  0.73633700  0.84685600  1
  O  O23  1  0.04645400  0.15365900  0.66596800  1
loop_
_geom_bond_atom_site_label_1
_geom_bond_atom_site_label_2
_geom_bond_distance
_geom_bond_site_symmetry_2
Li0 O16 1.927488 1_655
Li0 O2 1.979659 1_555
Li0 O6 2.017100 1_545
Li0 O0 2.119464 1_555
Li1 O1 1.966940 1_555
Li1 O10 1.973303 1_555
Li1 O3 2.028981 1_555
Li1 O20 2.029900 1_655
Li2 O4 1.918219 1_555
Li2 O15 1.973557 1_555
Li2 O10 2.039551 1_555
Li2 O18 2.050447 1_555
Li3 O21 1.944396 1_555
Li3 O7 2.005296 1_555
Li3 O11 2.026338 1_555
Li3 O4 2.094829 1_556
Li4 O12 1.956523 1_555
Li4 O0 2.006984 1_455
Li4 O14 2.008773 1_555
Li4 O8 2.124403 1_555
Li5 O14 1.932235 1_555
Li5 O23 1.974798 1_555
Li5 O5 2.025645 1_455
Li5 O21 2.033815 1_555
Li6 O9 1.911555 1_455
Li6 O22 1.924201 1_555
Li6 O19 2.021056 1_565
Li6 O16 2.070362 1_566
Mn0 O6 2.099049 1_555
Mn0 O4 2.111941 1_555
Mn0 O15 2.149845 1_655
Mn0 O7 2.224020 1_554
Mn0 O1 2.245765 1_555
Mn1 O0 2.106251 1_555
Mn1 O20 2.107589 1_655
Mn1 O12 2.161374 1_555
Mn1 O5 2.207501 1_555
Mn1 O2 2.272748 1_555
Mn2 O17 1.941364 1_545
Mn2 O23 1.964931 1_655
Mn2 O11 2.033311 1_555
Mn2 O8 2.073012 1_555
Mn2 O14 2.120486 1_555
Mn3 O16 2.075350 1_555
Mn3 O2 2.112612 1_555
Mn3 O18 2.125097 1_555
Mn3 O12 2.255483 1_555
Mn3 O19 2.338988 1_554
Mn4 O9 2.069603 1_555
Mn4 O7 2.127263 1_555
Mn4 O13 2.149099 1_555
Mn4 O22 2.175905 1_555
Mn4 O6 2.363238 1_556
Mn5 O10 2.065386 1_555
Mn5 O1 2.125307 1_455
Mn5 O8 2.145328 1_565
Mn5 O17 2.179422 1_555
Mn5 O15 2.218246 1_555
Mn6 O3 2.084847 1_455
Mn6 O13 2.115552 1_555
Mn6 O5 2.143364 1_455
Mn6 O22 2.239277 1_555
Mn6 O20 2.300943 1_555
Mn7 O21 2.083374 1_555
Mn7 O19 2.087907 1_555
Mn7 O18 2.199561 1_556
Mn7 O11 2.201172 1_455
Mn7 O23 2.289997 1_555
B0 O4 1.382942 1_555
B0 O2 1.390789 1_555
B0 O18 1.405953 1_655
B1 O0 1.371044 1_555
B1 O1 1.393001 1_545
B1 O8 1.419990 1_555
B2 O13 1.379940 1_555
B2 O14 1.389879 1_555
B2 O5 1.411913 1_555
B3 O16 1.383571 1_565
B3 O6 1.391684 1_555
B3 O15 1.403583 1_555
B4 O9 1.353284 1_545
B4 O19 1.390892 1_555
B4 O11 1.442071 1_555
B5 O10 1.384255 1_555
B5 O20 1.393508 1_555
B5 O12 1.405179 1_555
B6 O3 1.354545 1_455
B6 O17 1.386967 1_555
B6 O23 1.412970 1_565
B7 O21 1.382873 1_555
B7 O7 1.396871 1_455
B7 O22 1.397260 1_555
