# generated using pymatgen
data_Mg10FeO11
_symmetry_space_group_name_H-M   'P 1'
_cell_length_a   7.98714519
_cell_length_b   12.44603268
_cell_length_c   9.07458489
_cell_angle_alpha   101.70204564
_cell_angle_beta   79.06024766
_cell_angle_gamma   100.55914215
_symmetry_Int_Tables_number   1
_chemical_formula_structural   Mg10FeO11
_chemical_formula_sum   'Mg40 Fe4 O44'
_cell_volume   857.39930091
_cell_formula_units_Z   4
loop_
 _symmetry_equiv_pos_site_id
 _symmetry_equiv_pos_as_xyz
  1  'x, y, z'
loop_
 _atom_site_type_symbol
 _atom_site_label
 _atom_site_symmetry_multiplicity
 _atom_site_fract_x
 _atom_site_fract_y
 _atom_site_fract_z
 _atom_site_occupancy
  Mg  Mg0  1  0.15879700  0.20482500  0.86280300  1
  Mg  Mg1  1  0.91033300  0.45526300  0.36261500  1
  Mg  Mg2  1  0.66021400  0.70500100  0.86413000  1
  Mg  Mg3  1  0.40883700  0.95466600  0.36430500  1
  Mg  Mg4  1  0.50022100  0.49960200  0.00078800  1
  Mg  Mg5  1  0.25033300  0.74998600  0.49937900  1
  Mg  Mg6  1  0.99878700  0.99955400  0.99960300  1
  Mg  Mg7  1  0.74883300  0.24926600  0.50097000  1
  Mg  Mg8  1  0.36255700  0.18106000  0.54451000  1
  Mg  Mg9  1  0.11257700  0.43082100  0.04526000  1
  Mg  Mg10  1  0.86262100  0.68083900  0.54543400  1
  Mg  Mg11  1  0.61262100  0.93101400  0.04466200  1
  Mg  Mg12  1  0.29652800  0.52352400  0.31912500  1
  Mg  Mg13  1  0.04645800  0.77352300  0.81899400  1
  Mg  Mg14  1  0.79644500  0.02378500  0.31823800  1
  Mg  Mg15  1  0.54651500  0.27366500  0.81831200  1
  Mg  Mg16  1  0.31716300  0.40825300  0.72693600  1
  Mg  Mg17  1  0.06737800  0.65913400  0.22760700  1
  Mg  Mg18  1  0.81726600  0.90914300  0.72777200  1
  Mg  Mg19  1  0.56720600  0.15825100  0.22708100  1
  Mg  Mg20  1  0.34201700  0.29630700  0.13668700  1
  Mg  Mg21  1  0.09186300  0.54625700  0.63656200  1
  Mg  Mg22  1  0.84159500  0.79536900  0.13589500  1
  Mg  Mg23  1  0.59197700  0.04544400  0.63599400  1
  Mg  Mg24  1  0.97746100  0.11351000  0.59252600  1
  Mg  Mg25  1  0.72753300  0.36375200  0.09149200  1
  Mg  Mg26  1  0.47778000  0.61371700  0.59140100  1
  Mg  Mg27  1  0.22758400  0.86354100  0.09237400  1
  Mg  Mg28  1  0.18135300  0.09081400  0.27228700  1
  Mg  Mg29  1  0.93155300  0.34083300  0.77210700  1
  Mg  Mg30  1  0.68176500  0.59102000  0.27115600  1
  Mg  Mg31  1  0.43141800  0.84106100  0.77125800  1
  Mg  Mg32  1  0.52203100  0.38693300  0.41023900  1
  Mg  Mg33  1  0.27131800  0.63667000  0.90866000  1
  Mg  Mg34  1  0.02101100  0.88680000  0.40866500  1
  Mg  Mg35  1  0.77175400  0.13707000  0.91036000  1
  Mg  Mg36  1  0.13701300  0.31757900  0.45334100  1
  Mg  Mg37  1  0.88730900  0.56746300  0.95330800  1
  Mg  Mg38  1  0.63810900  0.81775000  0.45491600  1
  Mg  Mg39  1  0.38779100  0.06784400  0.95500900  1
  Fe  Fe0  1  0.95451700  0.22726800  0.18184100  1
  Fe  Fe1  1  0.70461300  0.47729500  0.68177400  1
  Fe  Fe2  1  0.20447200  0.97722800  0.68183800  1
  Fe  Fe3  1  0.45462100  0.72732700  0.18180000  1
  O  O0  1  0.32952000  0.35220400  0.93176100  1
  O  O1  1  0.07982700  0.60256100  0.43187800  1
  O  O2  1  0.82946500  0.85223900  0.93187100  1
  O  O3  1  0.57926900  0.10208600  0.43175000  1
  O  O4  1  0.12961700  0.37876000  0.25181500  1
  O  O5  1  0.87995000  0.62855300  0.75101700  1
  O  O6  1  0.62617000  0.87545600  0.25088800  1
  O  O7  1  0.37601400  0.12555300  0.75159300  1
  O  O8  1  0.52950400  0.32578500  0.61178300  1
  O  O9  1  0.28323000  0.57881700  0.11189600  1
  O  O10  1  0.03271800  0.82924600  0.61289800  1
  O  O11  1  0.77907000  0.07602500  0.11265900  1
  O  O12  1  0.98293800  0.05901700  0.79903000  1
  O  O13  1  0.73796900  0.30697100  0.29651700  1
  O  O14  1  0.48782000  0.55680300  0.79644900  1
  O  O15  1  0.23305600  0.80895000  0.29879100  1
  O  O16  1  0.17127100  0.14781400  0.06730600  1
  O  O17  1  0.92127600  0.39754500  0.56692100  1
  O  O18  1  0.67594200  0.64539000  0.06468900  1
  O  O19  1  0.42623700  0.89571400  0.56487000  1
  O  O20  1  0.14781200  0.26110200  0.65886900  1
  O  O21  1  0.89885300  0.51075900  0.15905100  1
  O  O22  1  0.64854900  0.76060800  0.65932700  1
  O  O23  1  0.39756300  0.01101200  0.15909500  1
  O  O24  1  0.51127200  0.44339700  0.20481000  1
  O  O25  1  0.26148100  0.69356800  0.70449700  1
  O  O26  1  0.01040900  0.94390300  0.20431300  1
  O  O27  1  0.76027500  0.19379300  0.70457900  1
  O  O28  1  0.19290800  0.03509000  0.47349000  1
  O  O29  1  0.94347700  0.28554400  0.97262500  1
  O  O30  1  0.69366500  0.53476900  0.47207900  1
  O  O31  1  0.44279900  0.78440100  0.97292200  1
  O  O32  1  0.96553800  0.16969700  0.39162500  1
  O  O33  1  0.71548600  0.41904700  0.89091100  1
  O  O34  1  0.46631600  0.66943700  0.39010200  1
  O  O35  1  0.21611600  0.92019500  0.89080400  1
  O  O36  1  0.30713300  0.46600400  0.52389600  1
  O  O37  1  0.05779300  0.71602700  0.02363300  1
  O  O38  1  0.80760900  0.96592400  0.52335600  1
  O  O39  1  0.55684500  0.21587300  0.02363900  1
  O  O40  1  0.35201500  0.23855200  0.33973400  1
  O  O41  1  0.10225200  0.48867200  0.83995200  1
  O  O42  1  0.85157800  0.73863000  0.34024600  1
  O  O43  1  0.60125600  0.98847200  0.84003700  1
loop_
_geom_bond_atom_site_label_1
_geom_bond_atom_site_label_2
_geom_bond_distance
_geom_bond_site_symmetry_2
Mg0 O20 2.129091 1_555
Mg0 O29 2.129959 1_455
Mg0 O12 2.132932 1_455
Mg0 O0 2.134740 1_555
Mg0 O7 2.135606 1_555
Mg0 O16 2.141858 1_556
Mg1 O21 2.122007 1_555
Mg1 O1 2.129461 1_655
Mg1 O30 2.130061 1_555
Mg1 O4 2.130634 1_655
Mg1 O17 2.141433 1_555
Mg1 O13 2.143501 1_555
Mg2 O2 2.124624 1_555
Mg2 O18 2.132431 1_556
Mg2 O31 2.132892 1_555
Mg2 O22 2.133731 1_555
Mg2 O5 2.138047 1_555
Mg2 O14 2.146137 1_555
Mg3 O3 2.130590 1_565
Mg3 O28 2.130697 1_565
Mg3 O19 2.131969 1_555
Mg3 O15 2.135407 1_555
Mg3 O6 2.140544 1_555
Mg3 O23 2.141077 1_565
Mg4 O33 2.128644 1_554
Mg4 O24 2.129526 1_555
Mg4 O18 2.132414 1_555
Mg4 O9 2.133575 1_555
Mg4 O0 2.134958 1_554
Mg4 O14 2.141518 1_554
Mg5 O1 2.131068 1_555
Mg5 O15 2.131959 1_555
Mg5 O34 2.132041 1_555
Mg5 O19 2.136004 1_555
Mg5 O25 2.140479 1_555
Mg5 O10 2.142890 1_555
Mg6 O2 2.125566 1_555
Mg6 O12 2.131846 1_565
Mg6 O35 2.132084 1_655
Mg6 O26 2.133120 1_656
Mg6 O11 2.137945 1_566
Mg6 O16 2.147098 1_666
Mg7 O27 2.122165 1_555
Mg7 O3 2.128661 1_555
Mg7 O32 2.130472 1_555
Mg7 O8 2.131053 1_555
Mg7 O13 2.142437 1_555
Mg7 O17 2.143426 1_555
Mg8 O8 2.092333 1_555
Mg8 O28 2.122796 1_555
Mg8 O20 2.131328 1_555
Mg8 O3 2.133663 1_555
Mg8 O40 2.143143 1_555
Mg8 O7 2.156542 1_555
Mg9 O29 2.118342 1_454
Mg9 O21 2.122921 1_455
Mg9 O0 2.134446 1_554
Mg9 O9 2.134759 1_555
Mg9 O4 2.138588 1_555
Mg9 O41 2.149544 1_554
Mg10 O22 2.124273 1_555
Mg10 O30 2.126075 1_555
Mg10 O5 2.132255 1_555
Mg10 O1 2.134113 1_655
Mg10 O10 2.137650 1_655
Mg10 O42 2.149654 1_555
Mg11 O11 2.094221 1_565
Mg11 O31 2.130608 1_554
Mg11 O23 2.133202 1_565
Mg11 O2 2.133310 1_554
Mg11 O43 2.143384 1_554
Mg11 O6 2.149711 1_555
Mg12 O4 2.092592 1_555
Mg12 O34 2.122816 1_555
Mg12 O24 2.131773 1_555
Mg12 O1 2.133979 1_555
Mg12 O36 2.143413 1_555
Mg12 O9 2.156101 1_555
Mg13 O5 2.094078 1_455
Mg13 O35 2.130562 1_555
Mg13 O25 2.132842 1_555
Mg13 O2 2.134075 1_455
Mg13 O37 2.143684 1_556
Mg13 O10 2.150059 1_555
Mg14 O26 2.124380 1_645
Mg14 O32 2.125412 1_555
Mg14 O11 2.132042 1_555
Mg14 O3 2.133972 1_555
Mg14 O6 2.137497 1_545
Mg14 O38 2.149765 1_545
Mg15 O33 2.118582 1_555
Mg15 O27 2.122600 1_555
Mg15 O0 2.134179 1_555
Mg15 O7 2.135278 1_555
Mg15 O8 2.138659 1_555
Mg15 O39 2.149337 1_556
Mg16 O20 2.125004 1_555
Mg16 O36 2.128898 1_555
Mg16 O41 2.131939 1_555
Mg16 O8 2.133568 1_555
Mg16 O0 2.138216 1_555
Mg16 O14 2.145638 1_555
Mg17 O37 2.130422 1_555
Mg17 O42 2.130890 1_455
Mg17 O21 2.133041 1_455
Mg17 O1 2.137013 1_555
Mg17 O15 2.139323 1_555
Mg17 O9 2.143101 1_555
Mg18 O43 2.130383 1_555
Mg18 O38 2.133638 1_555
Mg18 O22 2.134989 1_555
Mg18 O10 2.136028 1_655
Mg18 O2 2.137121 1_555
Mg18 O12 2.139965 1_565
Mg19 O23 2.126827 1_555
Mg19 O11 2.127372 1_555
Mg19 O39 2.132196 1_555
Mg19 O40 2.132201 1_555
Mg19 O3 2.136982 1_555
Mg19 O13 2.147374 1_555
Mg20 O24 2.124194 1_555
Mg20 O40 2.128916 1_555
Mg20 O39 2.131573 1_555
Mg20 O4 2.133787 1_555
Mg20 O0 2.138418 1_554
Mg20 O16 2.145244 1_555
Mg21 O25 2.127226 1_555
Mg21 O5 2.128213 1_455
Mg21 O41 2.131572 1_555
Mg21 O36 2.132424 1_555
Mg21 O1 2.137938 1_555
Mg21 O17 2.147002 1_455
Mg22 O37 2.131667 1_655
Mg22 O42 2.133496 1_555
Mg22 O26 2.135332 1_655
Mg22 O2 2.136112 1_554
Mg22 O6 2.137332 1_555
Mg22 O18 2.140683 1_555
Mg23 O38 2.129965 1_545
Mg23 O43 2.130880 1_545
Mg23 O27 2.131923 1_555
Mg23 O3 2.137786 1_555
Mg23 O19 2.138701 1_545
Mg23 O7 2.142230 1_555
Mg24 O32 2.104572 1_555
Mg24 O12 2.128634 1_555
Mg24 O20 2.129400 1_655
Mg24 O38 2.133239 1_545
Mg24 O28 2.136114 1_655
Mg24 O27 2.143632 1_555
Mg25 O33 2.096390 1_554
Mg25 O21 2.131128 1_555
Mg25 O24 2.136236 1_555
Mg25 O39 2.136470 1_555
Mg25 O29 2.137545 1_554
Mg25 O13 2.140489 1_555
Mg26 O34 2.103996 1_555
Mg26 O22 2.128557 1_555
Mg26 O36 2.134138 1_555
Mg26 O25 2.137330 1_555
Mg26 O14 2.140703 1_555
Mg26 O30 2.142867 1_555
Mg27 O35 2.112315 1_554
Mg27 O23 2.127564 1_565
Mg27 O15 2.128486 1_555
Mg27 O37 2.131433 1_555
Mg27 O31 2.140140 1_554
Mg27 O26 2.143837 1_555
Mg28 O28 2.103395 1_555
Mg28 O26 2.129583 1_545
Mg28 O40 2.134293 1_555
Mg28 O23 2.136648 1_555
Mg28 O16 2.140768 1_555
Mg28 O32 2.142054 1_455
Mg29 O29 2.095546 1_555
Mg29 O27 2.131161 1_555
Mg29 O41 2.136158 1_655
Mg29 O20 2.136604 1_655
Mg29 O33 2.138215 1_555
Mg29 O17 2.141092 1_555
Mg30 O30 2.105122 1_555
Mg30 O18 2.128230 1_555
Mg30 O24 2.130278 1_555
Mg30 O42 2.133103 1_555
Mg30 O34 2.135896 1_555
Mg30 O21 2.142967 1_555
Mg31 O31 2.112971 1_555
Mg31 O25 2.127657 1_555
Mg31 O19 2.128053 1_555
Mg31 O43 2.130837 1_555
Mg31 O35 2.140874 1_555
Mg31 O22 2.144125 1_555
Mg32 O36 2.124567 1_555
Mg32 O30 2.127999 1_555
Mg32 O8 2.133176 1_555
Mg32 O13 2.137060 1_555
Mg32 O24 2.142610 1_555
Mg32 O40 2.143647 1_555
Mg33 O37 2.120522 1_556
Mg33 O31 2.131179 1_555
Mg33 O41 2.132418 1_555
Mg33 O25 2.132599 1_555
Mg33 O9 2.135246 1_556
Mg33 O14 2.136884 1_555
Mg34 O15 2.090443 1_555
Mg34 O38 2.117625 1_455
Mg34 O42 2.134826 1_455
Mg34 O26 2.137143 1_555
Mg34 O28 2.138888 1_565
Mg34 O10 2.141386 1_555
Mg35 O12 2.089297 1_555
Mg35 O39 2.122113 1_556
Mg35 O29 2.134701 1_555
Mg35 O11 2.138578 1_556
Mg35 O43 2.147145 1_545
Mg35 O27 2.148810 1_555
Mg36 O40 2.124843 1_555
Mg36 O32 2.127480 1_455
Mg36 O4 2.133086 1_555
Mg36 O17 2.135497 1_455
Mg36 O20 2.143626 1_555
Mg36 O36 2.144575 1_555
Mg37 O18 2.089770 1_556
Mg37 O41 2.122420 1_655
Mg37 O33 2.134880 1_555
Mg37 O5 2.138897 1_555
Mg37 O37 2.146800 1_656
Mg37 O21 2.148502 1_556
Mg38 O19 2.090229 1_555
Mg38 O42 2.117979 1_555
Mg38 O38 2.135190 1_555
Mg38 O22 2.137556 1_555
Mg38 O34 2.138618 1_555
Mg38 O6 2.141115 1_555
Mg39 O43 2.120234 1_545
Mg39 O35 2.131194 1_545
Mg39 O23 2.131380 1_556
Mg39 O39 2.132464 1_556
Mg39 O7 2.135559 1_555
Mg39 O16 2.137841 1_556
Fe0 O16 2.140780 1_655
Fe0 O13 2.141355 1_555
Fe0 O29 2.187211 1_554
Fe0 O32 2.187531 1_555
Fe0 O11 2.188366 1_555
Fe0 O4 2.190692 1_655
Fe1 O14 2.141676 1_555
Fe1 O17 2.142774 1_555
Fe1 O30 2.185997 1_555
Fe1 O33 2.186002 1_555
Fe1 O5 2.188152 1_555
Fe1 O8 2.190920 1_555
Fe2 O10 2.144249 1_555
Fe2 O7 2.148031 1_565
Fe2 O28 2.178248 1_565
Fe2 O35 2.178426 1_555
Fe2 O19 2.191231 1_555
Fe2 O12 2.191993 1_465
Fe3 O6 2.144940 1_555
Fe3 O9 2.149284 1_555
Fe3 O31 2.178313 1_554
Fe3 O34 2.178314 1_555
Fe3 O15 2.190697 1_555
Fe3 O18 2.191405 1_555
