# generated using pymatgen
data_LiMnF4
_symmetry_space_group_name_H-M   'P 1'
_cell_length_a   9.83259800
_cell_length_b   4.70962400
_cell_length_c   7.77208943
_cell_angle_alpha   55.10349552
_cell_angle_beta   90.00000000
_cell_angle_gamma   90.00000000
_symmetry_Int_Tables_number   1
_chemical_formula_structural   LiMnF4
_chemical_formula_sum   'Li4 Mn4 F16'
_cell_volume   295.19233305
_cell_formula_units_Z   4
loop_
 _symmetry_equiv_pos_site_id
 _symmetry_equiv_pos_as_xyz
  1  'x, y, z'
loop_
 _atom_site_type_symbol
 _atom_site_label
 _atom_site_symmetry_multiplicity
 _atom_site_fract_x
 _atom_site_fract_y
 _atom_site_fract_z
 _atom_site_occupancy
  Li  Li0  1  0.71625500  0.69418100  0.26853800  1
  Li  Li1  1  0.21625500  0.30581900  0.23146200  1
  Li  Li2  1  0.78374500  0.69418100  0.76853800  1
  Li  Li3  1  0.28374500  0.30581900  0.73146200  1
  Mn  Mn0  1  0.00000000  0.00000000  0.00000000  1
  Mn  Mn1  1  0.50000000  0.50000000  0.00000000  1
  Mn  Mn2  1  0.00000000  0.50000000  0.50000000  1
  Mn  Mn3  1  0.50000000  0.00000000  0.50000000  1
  F  F0  1  0.15597700  0.77722500  0.00239200  1
  F  F1  1  0.34398700  0.30253800  0.97580100  1
  F  F2  1  0.91193200  0.52786400  0.27151600  1
  F  F3  1  0.41193200  0.47213600  0.22848400  1
  F  F4  1  0.57446700  0.98645400  0.27430600  1
  F  F5  1  0.07446700  0.01354600  0.22569400  1
  F  F6  1  0.65597700  0.22277500  0.49760800  1
  F  F7  1  0.15601300  0.30253800  0.47580100  1
  F  F8  1  0.84398700  0.69746200  0.52419900  1
  F  F9  1  0.34402300  0.77722500  0.50239200  1
  F  F10  1  0.92553300  0.98645400  0.77430600  1
  F  F11  1  0.42553300  0.01354600  0.72569400  1
  F  F12  1  0.58806800  0.52786400  0.77151600  1
  F  F13  1  0.08806800  0.47213600  0.72848400  1
  F  F14  1  0.65601300  0.69746200  0.02419900  1
  F  F15  1  0.84402300  0.22277500  0.99760800  1
loop_
_geom_bond_atom_site_label_1
_geom_bond_atom_site_label_2
_geom_bond_distance
_geom_bond_site_symmetry_2
F0 Mn0 1.852277 1_565
F0 Li1 1.981767 1_555
F0 Li3 2.492343 1_564
F1 Mn1 1.858371 1_556
F1 Li3 1.980863 1_555
F1 Li1 2.358177 1_556
F2 Mn2 1.911515 1_655
F2 Li0 2.072478 1_555
F2 Mn0 2.185957 1_665
F3 Mn1 1.911515 1_555
F3 Li1 2.072478 1_555
F3 Mn3 2.185957 1_555
F4 Mn3 1.935239 1_565
F4 Li0 1.977623 1_555
F4 Mn1 2.243015 1_565
F5 Mn0 1.935239 1_555
F5 Li1 1.977623 1_555
F5 Mn2 2.243015 1_545
F6 Mn3 1.852277 1_555
F6 Li0 1.981767 1_555
F6 Li2 2.492343 1_545
F7 Mn2 1.858371 1_555
F7 Li1 1.980863 1_555
F7 Li3 2.358177 1_555
F8 Mn2 1.858371 1_655
F8 Li2 1.980863 1_555
F8 Li0 2.358177 1_555
F9 Mn3 1.852277 1_565
F9 Li3 1.981767 1_555
F9 Li1 2.492343 1_565
F10 Mn0 1.935239 1_666
F10 Li2 1.977623 1_555
F10 Mn2 2.243015 1_665
F11 Mn3 1.935239 1_555
F11 Li3 1.977623 1_555
F11 Mn1 2.243015 1_546
F12 Mn1 1.911515 1_556
F12 Li2 2.072478 1_555
F12 Mn3 2.185957 1_565
F13 Mn2 1.911515 1_555
F13 Li3 2.072478 1_555
F13 Mn0 2.185957 1_556
F14 Mn1 1.858371 1_555
F14 Li0 1.980863 1_555
F14 Li2 2.358177 1_554
F15 Mn0 1.852277 1_656
F15 Li2 1.981767 1_555
F15 Li0 2.492343 1_546
