# generated using pymatgen
data_Li2MnPO4F
_symmetry_space_group_name_H-M   'P 1'
_cell_length_a   6.55837700
_cell_length_b   10.75810100
_cell_length_c   11.21600900
_cell_angle_alpha   90.00000000
_cell_angle_beta   90.00000000
_cell_angle_gamma   90.00000000
_symmetry_Int_Tables_number   1
_chemical_formula_structural   Li2MnPO4F
_chemical_formula_sum   'Li16 Mn8 P8 O32 F8'
_cell_volume   791.35316613
_cell_formula_units_Z   8
loop_
 _symmetry_equiv_pos_site_id
 _symmetry_equiv_pos_as_xyz
  1  'x, y, z'
loop_
 _atom_site_type_symbol
 _atom_site_label
 _atom_site_symmetry_multiplicity
 _atom_site_fract_x
 _atom_site_fract_y
 _atom_site_fract_z
 _atom_site_occupancy
  Li  Li0  1  0.75000000  0.02653500  0.27112700  1
  Li  Li1  1  0.25000000  0.23142100  0.08415700  1
  Li  Li2  1  0.50960800  0.24024400  0.33183600  1
  Li  Li3  1  0.99039200  0.24024400  0.33183600  1
  Li  Li4  1  0.00960800  0.25975600  0.83183600  1
  Li  Li5  1  0.49039200  0.25975600  0.83183600  1
  Li  Li6  1  0.75000000  0.26857900  0.58415700  1
  Li  Li7  1  0.25000000  0.47346500  0.77112700  1
  Li  Li8  1  0.75000000  0.52653500  0.22887300  1
  Li  Li9  1  0.25000000  0.73142100  0.41584300  1
  Li  Li10  1  0.50960800  0.74024400  0.16816400  1
  Li  Li11  1  0.99039200  0.74024400  0.16816400  1
  Li  Li12  1  0.00960800  0.75975600  0.66816400  1
  Li  Li13  1  0.49039200  0.75975600  0.66816400  1
  Li  Li14  1  0.75000000  0.76857900  0.91584300  1
  Li  Li15  1  0.25000000  0.97346500  0.72887300  1
  Mn  Mn0  1  0.00000000  0.00000000  0.00000000  1
  Mn  Mn1  1  0.50000000  0.00000000  0.00000000  1
  Mn  Mn2  1  0.00000000  0.00000000  0.50000000  1
  Mn  Mn3  1  0.50000000  0.00000000  0.50000000  1
  Mn  Mn4  1  0.00000000  0.50000000  0.50000000  1
  Mn  Mn5  1  0.50000000  0.50000000  0.50000000  1
  Mn  Mn6  1  0.00000000  0.50000000  0.00000000  1
  Mn  Mn7  1  0.50000000  0.50000000  0.00000000  1
  P  P0  1  0.75000000  0.02050300  0.74556200  1
  P  P1  1  0.75000000  0.24550100  0.08059400  1
  P  P2  1  0.25000000  0.25449900  0.58059400  1
  P  P3  1  0.25000000  0.47949700  0.24556200  1
  P  P4  1  0.75000000  0.52050300  0.75443800  1
  P  P5  1  0.75000000  0.74550100  0.41940600  1
  P  P6  1  0.25000000  0.75449900  0.91940600  1
  P  P7  1  0.25000000  0.97949700  0.25443800  1
  O  O0  1  0.25000000  0.02882200  0.12325100  1
  O  O1  1  0.05727800  0.03480000  0.31585700  1
  O  O2  1  0.44272200  0.03480000  0.31585700  1
  O  O3  1  0.25000000  0.11073000  0.56254200  1
  O  O4  1  0.75000000  0.16529300  0.74428700  1
  O  O5  1  0.55501300  0.19503700  0.01733100  1
  O  O6  1  0.94498700  0.19503700  0.01733100  1
  O  O7  1  0.75000000  0.21492000  0.21553800  1
  O  O8  1  0.25000000  0.28508000  0.71553800  1
  O  O9  1  0.05501300  0.30496300  0.51733100  1
  O  O10  1  0.44498700  0.30496300  0.51733100  1
  O  O11  1  0.25000000  0.33470700  0.24428700  1
  O  O12  1  0.75000000  0.38927000  0.06254200  1
  O  O13  1  0.55727800  0.46520000  0.81585700  1
  O  O14  1  0.94272200  0.46520000  0.81585700  1
  O  O15  1  0.75000000  0.47117800  0.62325100  1
  O  O16  1  0.25000000  0.52882200  0.37674900  1
  O  O17  1  0.05727800  0.53480000  0.18414300  1
  O  O18  1  0.44272200  0.53480000  0.18414300  1
  O  O19  1  0.25000000  0.61073000  0.93745800  1
  O  O20  1  0.75000000  0.66529300  0.75571300  1
  O  O21  1  0.55501300  0.69503700  0.48266900  1
  O  O22  1  0.94498700  0.69503700  0.48266900  1
  O  O23  1  0.75000000  0.71492000  0.28446200  1
  O  O24  1  0.25000000  0.78508000  0.78446200  1
  O  O25  1  0.05501300  0.80496300  0.98266900  1
  O  O26  1  0.44498700  0.80496300  0.98266900  1
  O  O27  1  0.25000000  0.83470700  0.25571300  1
  O  O28  1  0.75000000  0.88927000  0.43745800  1
  O  O29  1  0.55727800  0.96520000  0.68414300  1
  O  O30  1  0.94272200  0.96520000  0.68414300  1
  O  O31  1  0.75000000  0.97117800  0.87674900  1
  F  F0  1  0.25000000  0.05501600  0.87824400  1
  F  F1  1  0.75000000  0.13552300  0.46670000  1
  F  F2  1  0.25000000  0.36447700  0.96670000  1
  F  F3  1  0.75000000  0.44498400  0.37824400  1
  F  F4  1  0.25000000  0.55501600  0.62175600  1
  F  F5  1  0.75000000  0.63552300  0.03330000  1
  F  F6  1  0.25000000  0.86447700  0.53330000  1
  F  F7  1  0.75000000  0.94498400  0.12175600  1
loop_
_geom_bond_atom_site_label_1
_geom_bond_atom_site_label_2
_geom_bond_distance
_geom_bond_site_symmetry_2
Li0 O1 2.078657 1_655
Li0 O2 2.078657 1_555
Li0 O7 2.120402 1_555
Li0 O28 2.379291 1_545
Li1 O11 2.111958 1_555
Li1 O5 2.171763 1_555
Li1 O6 2.171763 1_455
Li1 O0 2.223249 1_555
Li2 O7 2.064289 1_555
Li2 O11 2.212656 1_555
Li2 O10 2.234484 1_555
Li2 O2 2.260414 1_555
Li3 O7 2.064289 1_555
Li3 O11 2.212656 1_655
Li3 O9 2.234484 1_655
Li3 O1 2.260414 1_655
Li4 O8 2.064289 1_555
Li4 O4 2.212656 1_455
Li4 O6 2.234484 1_456
Li4 O14 2.260414 1_455
Li5 O8 2.064289 1_555
Li5 O4 2.212656 1_555
Li5 O5 2.234484 1_556
Li5 O13 2.260414 1_555
Li6 O4 2.111958 1_555
Li6 O9 2.171763 1_655
Li6 O10 2.171763 1_555
Li6 O15 2.223249 1_555
Li7 O13 2.078657 1_555
Li7 O14 2.078657 1_455
Li7 O8 2.120402 1_555
Li7 O19 2.379291 1_555
Li8 O17 2.078657 1_655
Li8 O18 2.078657 1_555
Li8 O23 2.120402 1_555
Li8 O12 2.379291 1_555
Li9 O27 2.111958 1_555
Li9 O21 2.171763 1_555
Li9 O22 2.171763 1_455
Li9 O16 2.223249 1_555
Li10 O23 2.064289 1_555
Li10 O27 2.212656 1_555
Li10 O26 2.234484 1_554
Li10 O18 2.260414 1_555
Li11 O23 2.064289 1_555
Li11 O27 2.212656 1_655
Li11 O25 2.234484 1_654
Li11 O17 2.260414 1_655
Li12 O24 2.064289 1_555
Li12 O20 2.212656 1_455
Li12 O22 2.234484 1_455
Li12 O30 2.260414 1_455
Li13 O24 2.064289 1_555
Li13 O20 2.212656 1_555
Li13 O21 2.234484 1_555
Li13 O29 2.260414 1_555
Li14 O20 2.111958 1_555
Li14 O25 2.171763 1_655
Li14 O26 2.171763 1_555
Li14 O31 2.223249 1_555
Li15 O29 2.078657 1_555
Li15 O30 2.078657 1_455
Li15 O24 2.120402 1_555
Li15 O3 2.379291 1_565
Mn0 O6 2.137877 1_455
Mn0 O25 2.137877 1_544
Mn0 O31 2.166887 1_444
Mn0 O0 2.166887 1_555
Mn1 O5 2.137877 1_555
Mn1 O26 2.137877 1_544
Mn1 O0 2.166887 1_555
Mn1 O31 2.166887 1_544
Mn2 O1 2.132356 1_555
Mn2 O30 2.132356 1_445
Mn2 O3 2.144620 1_555
Mn2 O28 2.144620 1_445
Mn3 O29 2.132356 1_545
Mn3 O2 2.132356 1_555
Mn3 O3 2.144620 1_555
Mn3 O28 2.144620 1_545
Mn4 O9 2.137877 1_555
Mn4 O22 2.137877 1_455
Mn4 O15 2.166887 1_455
Mn4 O16 2.166887 1_555
Mn5 O10 2.137877 1_555
Mn5 O21 2.137877 1_555
Mn5 O15 2.166887 1_555
Mn5 O16 2.166887 1_555
Mn6 O17 2.132356 1_555
Mn6 O14 2.132356 1_454
Mn6 O12 2.144620 1_455
Mn6 O19 2.144620 1_554
Mn7 O18 2.132356 1_555
Mn7 O13 2.132356 1_554
Mn7 O12 2.144620 1_555
Mn7 O19 2.144620 1_554
O0 P7 1.564156 1_545
O1 P7 1.557586 1_545
O2 P7 1.557586 1_545
O3 P2 1.559878 1_555
O4 P0 1.557731 1_555
O5 P1 1.559979 1_555
O6 P1 1.559979 1_555
O7 P1 1.548877 1_555
O8 P2 1.548877 1_555
O9 P2 1.559979 1_555
O10 P2 1.559979 1_555
O11 P3 1.557731 1_555
O12 P1 1.559878 1_555
O13 P4 1.557586 1_555
O14 P4 1.557586 1_555
O15 P4 1.564156 1_555
O16 P3 1.564156 1_555
O17 P3 1.557586 1_555
O18 P3 1.557586 1_555
O19 P6 1.559878 1_555
O20 P4 1.557731 1_555
O21 P5 1.559979 1_555
O22 P5 1.559979 1_555
O23 P5 1.548877 1_555
O24 P6 1.548877 1_555
O25 P6 1.559979 1_555
O26 P6 1.559979 1_555
O27 P7 1.557731 1_555
O28 P5 1.559878 1_555
O29 P0 1.557586 1_565
O30 P0 1.557586 1_565
O31 P0 1.564156 1_565
F0 Li15 1.891164 1_545
F0 Mn1 2.214381 1_556
F0 Mn0 2.214381 1_556
F1 Li6 1.945387 1_555
F1 Mn3 2.225633 1_555
F1 Mn2 2.225633 1_655
F1 Li3 2.458231 1_555
F1 Li2 2.458231 1_555
F1 Li0 2.487252 1_555
F2 Li1 1.945387 1_556
F2 Mn6 2.225633 1_556
F2 Mn7 2.225633 1_556
F2 Li5 2.458231 1_555
F2 Li4 2.458231 1_555
F2 Li7 2.487252 1_555
F3 Li8 1.891164 1_555
F3 Mn4 2.214381 1_655
F3 Mn5 2.214381 1_555
F4 Li7 1.891164 1_555
F4 Mn4 2.214381 1_555
F4 Mn5 2.214381 1_555
F5 Li14 1.945387 1_554
F5 Mn7 2.225633 1_555
F5 Mn6 2.225633 1_655
F5 Li11 2.458231 1_555
F5 Li10 2.458231 1_555
F5 Li8 2.487252 1_555
F6 Li9 1.945387 1_555
F6 Mn3 2.225633 1_565
F6 Mn2 2.225633 1_565
F6 Li13 2.458231 1_555
F6 Li12 2.458231 1_555
F6 Li15 2.487252 1_555
F7 Li0 1.891164 1_565
F7 Mn1 2.214381 1_565
F7 Mn0 2.214381 1_665
