# generated using pymatgen
data_SbSO4F3
_symmetry_space_group_name_H-M   'P 1'
_cell_length_a   5.46264300
_cell_length_b   9.19941200
_cell_length_c   12.75350200
_cell_angle_alpha   90.00000000
_cell_angle_beta   90.00000000
_cell_angle_gamma   90.00000000
_symmetry_Int_Tables_number   1
_chemical_formula_structural   SbSO4F3
_chemical_formula_sum   'Sb4 S4 O16 F12'
_cell_volume   640.90305683
_cell_formula_units_Z   4
loop_
 _symmetry_equiv_pos_site_id
 _symmetry_equiv_pos_as_xyz
  1  'x, y, z'
loop_
 _atom_site_type_symbol
 _atom_site_label
 _atom_site_symmetry_multiplicity
 _atom_site_fract_x
 _atom_site_fract_y
 _atom_site_fract_z
 _atom_site_occupancy
  Sb  Sb0  1  0.08967300  0.98879600  0.50530000  1
  Sb  Sb1  1  0.41032700  0.01120400  0.00530000  1
  Sb  Sb2  1  0.58967300  0.51120400  0.49470000  1
  Sb  Sb3  1  0.91032700  0.48879600  0.99470000  1
  S  S0  1  0.04719100  0.20869700  0.16029400  1
  S  S1  1  0.45280900  0.79130300  0.66029400  1
  S  S2  1  0.54719100  0.29130300  0.83970600  1
  S  S3  1  0.95280900  0.70869700  0.33970600  1
  O  O0  1  0.12410800  0.12916200  0.05349800  1
  O  O1  1  0.08578300  0.84712900  0.38866700  1
  O  O2  1  0.15112100  0.62908400  0.29336300  1
  O  O3  1  0.25911000  0.24866000  0.21847400  1
  O  O4  1  0.24089000  0.75134000  0.71847400  1
  O  O5  1  0.34887900  0.37091600  0.79336300  1
  O  O6  1  0.41421700  0.15287100  0.88866700  1
  O  O7  1  0.37589200  0.87083800  0.55349800  1
  O  O8  1  0.62410800  0.37083800  0.94650200  1
  O  O9  1  0.58578300  0.65287100  0.61133300  1
  O  O10  1  0.65112100  0.87091600  0.70663700  1
  O  O11  1  0.75911000  0.25134000  0.78152600  1
  O  O12  1  0.74089000  0.74866000  0.28152600  1
  O  O13  1  0.84887900  0.12908400  0.20663700  1
  O  O14  1  0.91421700  0.34712900  0.11133300  1
  O  O15  1  0.87589200  0.62916200  0.44650200  1
  F  F0  1  0.04735000  0.07157400  0.63920200  1
  F  F1  1  0.22777300  0.55122500  0.03320300  1
  F  F2  1  0.28209200  0.12759200  0.43791600  1
  F  F3  1  0.21790800  0.87240800  0.93791600  1
  F  F4  1  0.27222700  0.44877500  0.53320300  1
  F  F5  1  0.45265000  0.92842600  0.13920200  1
  F  F6  1  0.54735000  0.42842600  0.36079800  1
  F  F7  1  0.72777300  0.94877500  0.96679700  1
  F  F8  1  0.78209200  0.37240800  0.56208400  1
  F  F9  1  0.71790800  0.62759200  0.06208400  1
  F  F10  1  0.77222700  0.05122500  0.46679700  1
  F  F11  1  0.95265000  0.57157400  0.86079800  1
loop_
_geom_bond_atom_site_label_1
_geom_bond_atom_site_label_2
_geom_bond_distance
_geom_bond_site_symmetry_2
O0 S0 1.602185 1_555
O0 Sb1 1.999989 1_555
O1 S3 1.593528 1_455
O1 Sb0 1.977755 1_555
O2 S3 1.435018 1_455
O3 S0 1.423321 1_555
O4 S1 1.423321 1_555
O5 S2 1.435018 1_555
O6 S2 1.593528 1_555
O6 Sb1 1.977755 1_556
O7 S1 1.602185 1_555
O7 Sb0 1.999989 1_555
O8 S2 1.602185 1_555
O8 Sb3 1.999989 1_555
O9 S1 1.593528 1_555
O9 Sb2 1.977755 1_555
O10 S1 1.435018 1_555
O11 S2 1.423321 1_555
O12 S3 1.423321 1_555
O13 S0 1.435018 1_655
O14 S0 1.593528 1_655
O14 Sb3 1.977755 1_554
O15 S3 1.602185 1_555
O15 Sb2 1.999989 1_555
F0 Sb0 1.884052 1_545
F1 Sb3 1.891572 1_454
F2 Sb0 1.863788 1_545
F3 Sb1 1.863788 1_566
F4 Sb2 1.891572 1_555
F5 Sb1 1.884052 1_565
F6 Sb2 1.884052 1_555
F7 Sb1 1.891572 1_566
F8 Sb2 1.863788 1_555
F9 Sb3 1.863788 1_554
F10 Sb0 1.891572 1_645
F11 Sb3 1.884052 1_555
