# generated using pymatgen
data_K2H6PtC4N4O3
_symmetry_space_group_name_H-M   'P 1'
_cell_length_a   6.98029500
_cell_length_b   11.88421300
_cell_length_c   13.48519800
_cell_angle_alpha   90.00000000
_cell_angle_beta   90.00000000
_cell_angle_gamma   90.00000000
_symmetry_Int_Tables_number   1
_chemical_formula_structural   K2H6PtC4N4O3
_chemical_formula_sum   'K8 H24 Pt4 C16 N16 O12'
_cell_volume   1118.66881533
_cell_formula_units_Z   4
loop_
 _symmetry_equiv_pos_site_id
 _symmetry_equiv_pos_as_xyz
  1  'x, y, z'
loop_
 _atom_site_type_symbol
 _atom_site_label
 _atom_site_symmetry_multiplicity
 _atom_site_fract_x
 _atom_site_fract_y
 _atom_site_fract_z
 _atom_site_occupancy
  K  K0  1  0.79582200  0.85979500  0.34384000  1
  K  K1  1  0.29582200  0.64020500  0.15616000  1
  K  K2  1  0.20417800  0.64020500  0.84384000  1
  K  K3  1  0.70417800  0.85979500  0.65616000  1
  K  K4  1  0.20417800  0.14020500  0.65616000  1
  K  K5  1  0.70417800  0.35979500  0.84384000  1
  K  K6  1  0.79582200  0.35979500  0.15616000  1
  K  K7  1  0.29582200  0.14020500  0.34384000  1
  H  H0  1  0.85460100  0.58113100  0.01193800  1
  H  H1  1  0.35460100  0.91886900  0.48806200  1
  H  H2  1  0.14539900  0.91886900  0.51193800  1
  H  H3  1  0.64539900  0.58113100  0.98806200  1
  H  H4  1  0.14539900  0.41886900  0.98806200  1
  H  H5  1  0.64539900  0.08113100  0.51193800  1
  H  H6  1  0.85460100  0.08113100  0.48806200  1
  H  H7  1  0.35460100  0.41886900  0.01193800  1
  H  H8  1  0.76086100  0.64052900  0.21946900  1
  H  H9  1  0.26086100  0.85947100  0.28053100  1
  H  H10  1  0.23913900  0.85947100  0.71946900  1
  H  H11  1  0.73913900  0.64052900  0.78053100  1
  H  H12  1  0.23913900  0.35947100  0.78053100  1
  H  H13  1  0.73913900  0.14052900  0.71946900  1
  H  H14  1  0.76086100  0.14052900  0.28053100  1
  H  H15  1  0.26086100  0.35947100  0.21946900  1
  H  H16  1  0.74045700  0.73210300  0.14009900  1
  H  H17  1  0.24045700  0.76789700  0.35990100  1
  H  H18  1  0.25954300  0.76789700  0.64009900  1
  H  H19  1  0.75954300  0.73210300  0.85990100  1
  H  H20  1  0.25954300  0.26789700  0.85990100  1
  H  H21  1  0.75954300  0.23210300  0.64009900  1
  H  H22  1  0.74045700  0.23210300  0.35990100  1
  H  H23  1  0.24045700  0.26789700  0.14009900  1
  Pt  Pt0  1  0.50000000  0.00000000  0.00000000  1
  Pt  Pt1  1  0.00000000  0.50000000  0.50000000  1
  Pt  Pt2  1  0.50000000  0.50000000  0.50000000  1
  Pt  Pt3  1  0.00000000  0.00000000  0.00000000  1
  C  C0  1  0.50029600  0.83398700  0.97980400  1
  C  C1  1  0.00029600  0.66601300  0.52019600  1
  C  C2  1  0.49970400  0.66601300  0.47980400  1
  C  C3  1  0.99970400  0.83398700  0.02019600  1
  C  C4  1  0.49970400  0.16601300  0.02019600  1
  C  C5  1  0.99970400  0.33398700  0.47980400  1
  C  C6  1  0.50029600  0.33398700  0.52019600  1
  C  C7  1  0.00029600  0.16601300  0.97980400  1
  C  C8  1  0.48405400  0.97571200  0.14578900  1
  C  C9  1  0.98405400  0.52428800  0.35421100  1
  C  C10  1  0.51594600  0.52428800  0.64578900  1
  C  C11  1  0.01594600  0.97571200  0.85421100  1
  C  C12  1  0.51594600  0.02428800  0.85421100  1
  C  C13  1  0.01594600  0.47571200  0.64578900  1
  C  C14  1  0.48405400  0.47571200  0.35421100  1
  C  C15  1  0.98405400  0.02428800  0.14578900  1
  N  N0  1  0.50101400  0.73566400  0.97000700  1
  N  N1  1  0.00101400  0.76433600  0.52999300  1
  N  N2  1  0.49898600  0.76433600  0.47000700  1
  N  N3  1  0.99898600  0.73566400  0.02999300  1
  N  N4  1  0.49898600  0.26433600  0.02999300  1
  N  N5  1  0.99898600  0.23566400  0.47000700  1
  N  N6  1  0.50101400  0.23566400  0.52999300  1
  N  N7  1  0.00101400  0.26433600  0.97000700  1
  N  N8  1  0.47330600  0.96131300  0.23196200  1
  N  N9  1  0.97330600  0.53868700  0.26803800  1
  N  N10  1  0.52669400  0.53868700  0.73196200  1
  N  N11  1  0.02669400  0.96131300  0.76803800  1
  N  N12  1  0.52669400  0.03868700  0.76803800  1
  N  N13  1  0.02669400  0.46131300  0.73196200  1
  N  N14  1  0.47330600  0.46131300  0.26803800  1
  N  N15  1  0.97330600  0.03868700  0.23196200  1
  O  O0  1  0.75000000  0.52759200  0.00000000  1
  O  O1  1  0.25000000  0.97240800  0.50000000  1
  O  O2  1  0.25000000  0.47240800  0.00000000  1
  O  O3  1  0.75000000  0.02759200  0.50000000  1
  O  O4  1  0.67842800  0.70426500  0.19991300  1
  O  O5  1  0.17842800  0.79573500  0.30008700  1
  O  O6  1  0.32157200  0.79573500  0.69991300  1
  O  O7  1  0.82157200  0.70426500  0.80008700  1
  O  O8  1  0.32157200  0.29573500  0.80008700  1
  O  O9  1  0.82157200  0.20426500  0.69991300  1
  O  O10  1  0.67842800  0.20426500  0.30008700  1
  O  O11  1  0.17842800  0.29573500  0.19991300  1
loop_
_geom_bond_atom_site_label_1
_geom_bond_atom_site_label_2
_geom_bond_distance
_geom_bond_site_symmetry_2
K0 O4 2.802664 1_555
K0 O5 2.839077 1_655
K0 N15 2.886322 1_565
K0 N2 2.911168 1_555
K0 O3 2.917787 1_565
K0 N8 2.966458 1_555
K0 N1 3.104856 1_655
K1 O5 2.802664 1_555
K1 O4 2.839077 1_555
K1 N14 2.886322 1_555
K1 N3 2.911168 1_455
K1 O2 2.917787 1_555
K1 N9 2.966458 1_455
K1 N0 3.104856 1_554
K2 O6 2.802664 1_555
K2 O7 2.839077 1_455
K2 N13 2.886322 1_555
K2 N0 2.911168 1_555
K2 O2 2.917787 1_556
K2 N10 2.966458 1_555
K2 N3 3.104856 1_456
K3 O7 2.802664 1_555
K3 O6 2.839077 1_555
K3 N12 2.886322 1_565
K3 N1 2.911168 1_655
K3 O3 2.917787 1_565
K3 N11 2.966458 1_655
K3 N2 3.104856 1_555
K4 O8 2.802664 1_555
K4 O9 2.839077 1_455
K4 N11 2.886322 1_545
K4 N6 2.911168 1_555
K4 O1 2.917787 1_545
K4 N12 2.966458 1_555
K4 N5 3.104856 1_455
K5 O9 2.802664 1_555
K5 O8 2.839077 1_555
K5 N10 2.886322 1_555
K5 N7 2.911168 1_655
K5 O0 2.917787 1_556
K5 N13 2.966458 1_655
K5 N4 3.104856 1_556
K6 O10 2.802664 1_555
K6 O11 2.839077 1_655
K6 N9 2.886322 1_555
K6 N4 2.911168 1_555
K6 O0 2.917787 1_555
K6 N14 2.966458 1_555
K6 N7 3.104856 1_654
K7 O11 2.802664 1_555
K7 O10 2.839077 1_555
K7 N8 2.886322 1_545
K7 N5 2.911168 1_455
K7 O1 2.917787 1_545
K7 N15 2.966458 1_455
K7 N6 3.104856 1_555
H0 O0 0.981768 1_555
H1 O1 0.981768 1_555
H2 O1 0.981768 1_555
H3 O0 0.981768 1_556
H4 O2 0.981768 1_556
H5 O3 0.981768 1_555
H6 O3 0.981768 1_555
H7 O2 0.981768 1_555
H8 O4 0.987103 1_555
H9 O5 0.987103 1_555
H10 O6 0.987103 1_555
H11 O7 0.987103 1_555
H12 O8 0.987103 1_555
H13 O9 0.987103 1_555
H14 O10 0.987103 1_555
H15 O11 0.987103 1_555
H16 O4 0.973413 1_555
H17 O5 0.973413 1_555
H18 O6 0.973413 1_555
H19 O7 0.973413 1_555
H20 O8 0.973413 1_555
H21 O9 0.973413 1_555
H22 O10 0.973413 1_555
H23 O11 0.973413 1_555
C0 N0 1.175947 1_555
C0 Pt0 1.991644 1_566
C1 N1 1.175947 1_555
C1 Pt1 1.991644 1_555
C2 N2 1.175947 1_555
C2 Pt2 1.991644 1_555
C3 N3 1.175947 1_555
C3 Pt3 1.991644 1_665
C4 N4 1.175947 1_555
C4 Pt0 1.991644 1_555
C5 N5 1.175947 1_555
C5 Pt1 1.991644 1_655
C6 N6 1.175947 1_555
C6 Pt2 1.991644 1_555
C7 N7 1.175947 1_555
C7 Pt3 1.991644 1_556
C8 N8 1.176985 1_555
C8 Pt0 1.990185 1_565
C9 N9 1.176985 1_555
C9 Pt1 1.990185 1_655
C10 N10 1.176985 1_555
C10 Pt2 1.990185 1_555
C11 N11 1.176985 1_555
C11 Pt3 1.990185 1_566
C12 N12 1.176985 1_555
C12 Pt0 1.990185 1_556
C13 N13 1.176985 1_555
C13 Pt1 1.990185 1_555
C14 N14 1.176985 1_555
C14 Pt2 1.990185 1_555
C15 N15 1.176985 1_555
C15 Pt3 1.990185 1_655
