# generated using pymatgen
data_Mn3SnO8
_symmetry_space_group_name_H-M   'P 1'
_cell_length_a   8.44703300
_cell_length_b   8.44703300
_cell_length_c   8.44703300
_cell_angle_alpha   90.00000000
_cell_angle_beta   90.00000000
_cell_angle_gamma   90.00000000
_symmetry_Int_Tables_number   1
_chemical_formula_structural   Mn3SnO8
_chemical_formula_sum   'Mn12 Sn4 O32'
_cell_volume   602.71579448
_cell_formula_units_Z   4
loop_
 _symmetry_equiv_pos_site_id
 _symmetry_equiv_pos_as_xyz
  1  'x, y, z'
loop_
 _atom_site_type_symbol
 _atom_site_label
 _atom_site_symmetry_multiplicity
 _atom_site_fract_x
 _atom_site_fract_y
 _atom_site_fract_z
 _atom_site_occupancy
  Mn  Mn0  1  0.11149700  0.13850300  0.62500000  1
  Mn  Mn1  1  0.12500000  0.38850300  0.86149700  1
  Mn  Mn2  1  0.13850300  0.62500000  0.11149700  1
  Mn  Mn3  1  0.36149700  0.37500000  0.61149700  1
  Mn  Mn4  1  0.37500000  0.61149700  0.36149700  1
  Mn  Mn5  1  0.38850300  0.86149700  0.12500000  1
  Mn  Mn6  1  0.61149700  0.36149700  0.37500000  1
  Mn  Mn7  1  0.62500000  0.11149700  0.13850300  1
  Mn  Mn8  1  0.63850300  0.87500000  0.88850300  1
  Mn  Mn9  1  0.86149700  0.12500000  0.38850300  1
  Mn  Mn10  1  0.87500000  0.88850300  0.63850300  1
  Mn  Mn11  1  0.88850300  0.63850300  0.87500000  1
  Sn  Sn0  1  0.12500000  0.87500000  0.37500000  1
  Sn  Sn1  1  0.37500000  0.12500000  0.87500000  1
  Sn  Sn2  1  0.62500000  0.62500000  0.62500000  1
  Sn  Sn3  1  0.87500000  0.37500000  0.12500000  1
  O  O0  1  0.09172600  0.12330800  0.39576900  1
  O  O1  1  0.10423100  0.90827400  0.62330800  1
  O  O2  1  0.11794900  0.61794900  0.88205100  1
  O  O3  1  0.12669200  0.15827400  0.85423100  1
  O  O4  1  0.12330800  0.39576900  0.09172600  1
  O  O5  1  0.13205100  0.36794900  0.63205100  1
  O  O6  1  0.14576900  0.62669200  0.34172600  1
  O  O7  1  0.15827400  0.85423100  0.12669200  1
  O  O8  1  0.34172600  0.14576900  0.62669200  1
  O  O9  1  0.35423100  0.37330800  0.84172600  1
  O  O10  1  0.36794900  0.63205100  0.13205100  1
  O  O11  1  0.37669200  0.60423100  0.59172600  1
  O  O12  1  0.37330800  0.84172600  0.35423100  1
  O  O13  1  0.38205100  0.38205100  0.38205100  1
  O  O14  1  0.39576900  0.09172600  0.12330800  1
  O  O15  1  0.40827400  0.87669200  0.89576900  1
  O  O16  1  0.59172600  0.37669200  0.60423100  1
  O  O17  1  0.60423100  0.59172600  0.37669200  1
  O  O18  1  0.61794900  0.88205100  0.11794900  1
  O  O19  1  0.62669200  0.34172600  0.14576900  1
  O  O20  1  0.62330800  0.10423100  0.90827400  1
  O  O21  1  0.63205100  0.13205100  0.36794900  1
  O  O22  1  0.64576900  0.87330800  0.65827400  1
  O  O23  1  0.65827400  0.64576900  0.87330800  1
  O  O24  1  0.84172600  0.35423100  0.37330800  1
  O  O25  1  0.85423100  0.12669200  0.15827400  1
  O  O26  1  0.86794900  0.86794900  0.86794900  1
  O  O27  1  0.87669200  0.89576900  0.40827400  1
  O  O28  1  0.87330800  0.65827400  0.64576900  1
  O  O29  1  0.88205100  0.11794900  0.61794900  1
  O  O30  1  0.89576900  0.40827400  0.87669200  1
  O  O31  1  0.90827400  0.62330800  0.10423100  1
loop_
_geom_bond_atom_site_label_1
_geom_bond_atom_site_label_2
_geom_bond_distance
_geom_bond_site_symmetry_2
Mn0 O8 1.945773 1_555
Mn0 O1 1.945773 1_545
Mn0 O29 1.946810 1_455
Mn0 O5 1.946810 1_555
Mn0 O3 1.947744 1_555
Mn0 O0 1.947744 1_555
Mn1 O3 1.945773 1_555
Mn1 O4 1.945773 1_556
Mn1 O5 1.946810 1_555
Mn1 O2 1.946810 1_555
Mn1 O30 1.947744 1_455
Mn1 O9 1.947744 1_555
Mn2 O6 1.945773 1_555
Mn2 O31 1.945773 1_455
Mn2 O2 1.946810 1_554
Mn2 O10 1.946810 1_555
Mn2 O7 1.947744 1_555
Mn2 O4 1.947744 1_555
Mn3 O16 1.945773 1_555
Mn3 O9 1.945773 1_555
Mn3 O13 1.946810 1_555
Mn3 O5 1.946810 1_555
Mn3 O11 1.947744 1_555
Mn3 O8 1.947744 1_555
Mn4 O11 1.945773 1_555
Mn4 O12 1.945773 1_555
Mn4 O13 1.946810 1_555
Mn4 O10 1.946810 1_555
Mn4 O17 1.947744 1_555
Mn4 O6 1.947744 1_555
Mn5 O7 1.945773 1_555
Mn5 O14 1.945773 1_565
Mn5 O10 1.946810 1_555
Mn5 O18 1.946810 1_555
Mn5 O15 1.947744 1_554
Mn5 O12 1.947744 1_555
Mn6 O17 1.945773 1_555
Mn6 O24 1.945773 1_555
Mn6 O13 1.946810 1_555
Mn6 O21 1.946810 1_555
Mn6 O16 1.947744 1_555
Mn6 O19 1.947744 1_555
Mn7 O20 1.945773 1_554
Mn7 O19 1.945773 1_555
Mn7 O18 1.946810 1_545
Mn7 O21 1.946810 1_555
Mn7 O25 1.947744 1_555
Mn7 O14 1.947744 1_555
Mn8 O15 1.945773 1_555
Mn8 O22 1.945773 1_555
Mn8 O26 1.946810 1_555
Mn8 O18 1.946810 1_556
Mn8 O23 1.947744 1_555
Mn8 O20 1.947744 1_565
Mn9 O25 1.945773 1_555
Mn9 O0 1.945773 1_655
Mn9 O21 1.946810 1_555
Mn9 O29 1.946810 1_555
Mn9 O27 1.947744 1_545
Mn9 O24 1.947744 1_555
Mn10 O27 1.945773 1_555
Mn10 O28 1.945773 1_555
Mn10 O26 1.946810 1_555
Mn10 O29 1.946810 1_565
Mn10 O1 1.947744 1_655
Mn10 O22 1.947744 1_555
Mn11 O23 1.945773 1_555
Mn11 O30 1.945773 1_555
Mn11 O26 1.946810 1_555
Mn11 O2 1.946810 1_655
Mn11 O28 1.947744 1_555
Mn11 O31 1.947744 1_556
O0 Sn0 2.123473 1_545
O1 Sn0 2.123473 1_555
O3 Sn1 2.123473 1_555
O4 Sn3 2.123473 1_455
O6 Sn0 2.123473 1_555
O7 Sn0 2.123473 1_555
O8 Sn1 2.123473 1_555
O9 Sn1 2.123473 1_555
O11 Sn2 2.123473 1_555
O12 Sn0 2.123473 1_555
O14 Sn1 2.123473 1_554
O15 Sn1 2.123473 1_565
O16 Sn2 2.123473 1_555
O17 Sn2 2.123473 1_555
O19 Sn3 2.123473 1_555
O20 Sn1 2.123473 1_555
O22 Sn2 2.123473 1_555
O23 Sn2 2.123473 1_555
O24 Sn3 2.123473 1_555
O25 Sn3 2.123473 1_555
O27 Sn0 2.123473 1_655
O28 Sn2 2.123473 1_555
O30 Sn3 2.123473 1_556
O31 Sn3 2.123473 1_555
