# generated using pymatgen
data_Na2MnCSO7
_symmetry_space_group_name_H-M   'P 1'
_cell_length_a   5.34550060
_cell_length_b   9.18878824
_cell_length_c   6.86906900
_cell_angle_alpha   90.00123455
_cell_angle_beta   90.00002475
_cell_angle_gamma   88.82889816
_symmetry_Int_Tables_number   1
_chemical_formula_structural   Na2MnCSO7
_chemical_formula_sum   'Na4 Mn2 C2 S2 O14'
_cell_volume   337.32907807
_cell_formula_units_Z   2
loop_
 _symmetry_equiv_pos_site_id
 _symmetry_equiv_pos_as_xyz
  1  'x, y, z'
loop_
 _atom_site_type_symbol
 _atom_site_label
 _atom_site_symmetry_multiplicity
 _atom_site_fract_x
 _atom_site_fract_y
 _atom_site_fract_z
 _atom_site_occupancy
  Na  Na0  1  0.23175900  0.20335800  0.50752500  1
  Na  Na1  1  0.23175400  0.20339600  0.99249900  1
  Na  Na2  1  0.76823000  0.79664800  0.49248000  1
  Na  Na3  1  0.76823300  0.79668000  0.00754600  1
  Mn  Mn0  1  0.22733900  0.63732000  0.24992200  1
  Mn  Mn1  1  0.77268500  0.36273100  0.75001000  1
  C  C0  1  0.72717800  0.08106000  0.75000200  1
  C  C1  1  0.27282100  0.91892400  0.25000200  1
  S  S0  1  0.72500900  0.42330400  0.24999200  1
  S  S1  1  0.27497600  0.57668100  0.75000200  1
  O  O0  1  0.30253700  0.05564500  0.25000000  1
  O  O1  1  0.69748600  0.94435200  0.75000100  1
  O  O2  1  0.94823200  0.14081500  0.75000200  1
  O  O3  1  0.05176800  0.85918200  0.25000100  1
  O  O4  1  0.53540300  0.17411500  0.75000100  1
  O  O5  1  0.46460300  0.82587800  0.25000000  1
  O  O6  1  0.17578300  0.42506800  0.74999900  1
  O  O7  1  0.82419500  0.57491400  0.24999800  1
  O  O8  1  0.44314400  0.43312600  0.25003100  1
  O  O9  1  0.55686300  0.56683400  0.75000100  1
  O  O10  1  0.81347800  0.34404800  0.07393400  1
  O  O11  1  0.81348600  0.34404500  0.42606300  1
  O  O12  1  0.18652000  0.65593900  0.57393900  1
  O  O13  1  0.18651800  0.65593600  0.92605100  1
loop_
_geom_bond_atom_site_label_1
_geom_bond_atom_site_label_2
_geom_bond_distance
_geom_bond_site_symmetry_2
Na0 O0 2.256885 1_555
Na0 O2 2.331767 1_455
Na0 O4 2.337330 1_555
Na0 O11 2.620178 1_455
Na0 O6 2.643665 1_555
Na0 O8 2.993407 1_555
Na1 O0 2.257015 1_556
Na1 O2 2.331920 1_455
Na1 O4 2.337484 1_555
Na1 O10 2.619988 1_456
Na1 O6 2.643562 1_555
Na1 O8 2.993268 1_556
Na2 O1 2.256786 1_555
Na2 O3 2.331794 1_655
Na2 O5 2.337275 1_555
Na2 O12 2.620347 1_655
Na2 O7 2.643864 1_555
Na2 O9 2.993780 1_555
Na3 O1 2.256788 1_554
Na3 O3 2.331571 1_655
Na3 O5 2.337122 1_555
Na3 O13 2.620519 1_654
Na3 O7 2.644013 1_555
Na3 O9 2.994039 1_554
Mn0 O5 2.168033 1_555
Mn0 O8 2.182377 1_555
Mn0 O3 2.226806 1_555
Mn0 O7 2.241293 1_455
Mn0 O13 2.241567 1_554
Mn0 O12 2.242556 1_555
Mn1 O4 2.168523 1_555
Mn1 O9 2.181714 1_555
Mn1 O2 2.227205 1_555
Mn1 O6 2.240881 1_655
Mn1 O10 2.241960 1_556
Mn1 O11 2.242115 1_555
C0 O1 1.269382 1_545
C0 O2 1.313122 1_555
C0 O4 1.321439 1_555
C1 O0 1.269520 1_565
C1 O3 1.313065 1_555
C1 O5 1.321415 1_555
O6 S1 1.500728 1_555
O7 S0 1.500688 1_555
O8 S0 1.507568 1_555
O9 S1 1.507694 1_555
O10 S0 1.484062 1_555
O11 S0 1.484187 1_555
O12 S1 1.484103 1_555
O13 S1 1.483989 1_555
