# generated using pymatgen
data_Na6Fe2P(CO4)4
_symmetry_space_group_name_H-M   'P 1'
_cell_length_a   10.20194572
_cell_length_b   10.20194572
_cell_length_c   10.20194572
_cell_angle_alpha   60.00000000
_cell_angle_beta   60.00000000
_cell_angle_gamma   60.00000000
_symmetry_Int_Tables_number   1
_chemical_formula_structural   Na6Fe2P(CO4)4
_chemical_formula_sum   'Na12 Fe4 P2 C8 O32'
_cell_volume   750.81687962
_cell_formula_units_Z   2
loop_
 _symmetry_equiv_pos_site_id
 _symmetry_equiv_pos_as_xyz
  1  'x, y, z'
loop_
 _atom_site_type_symbol
 _atom_site_label
 _atom_site_symmetry_multiplicity
 _atom_site_fract_x
 _atom_site_fract_y
 _atom_site_fract_z
 _atom_site_occupancy
  Na  Na0  1  0.95842000  0.54158000  0.54158000  1
  Na  Na1  1  0.29158000  0.70842000  0.29158000  1
  Na  Na2  1  0.54158000  0.54158000  0.95842000  1
  Na  Na3  1  0.95842000  0.95842000  0.54158000  1
  Na  Na4  1  0.70842000  0.29158000  0.29158000  1
  Na  Na5  1  0.70842000  0.29158000  0.70842000  1
  Na  Na6  1  0.54158000  0.95842000  0.54158000  1
  Na  Na7  1  0.54158000  0.95842000  0.95842000  1
  Na  Na8  1  0.70842000  0.70842000  0.29158000  1
  Na  Na9  1  0.29158000  0.29158000  0.70842000  1
  Na  Na10  1  0.95842000  0.54158000  0.95842000  1
  Na  Na11  1  0.29158000  0.70842000  0.70842000  1
  Fe  Fe0  1  0.62500000  0.12500000  0.12500000  1
  Fe  Fe1  1  0.12500000  0.12500000  0.62500000  1
  Fe  Fe2  1  0.12500000  0.62500000  0.12500000  1
  Fe  Fe3  1  0.12500000  0.12500000  0.12500000  1
  P  P0  1  0.75000000  0.75000000  0.75000000  1
  P  P1  1  0.50000000  0.50000000  0.50000000  1
  C  C0  1  0.97684000  0.34105300  0.34105300  1
  C  C1  1  0.34105300  0.34105300  0.97684000  1
  C  C2  1  0.34105300  0.34105300  0.34105300  1
  C  C3  1  0.34105300  0.97684000  0.34105300  1
  C  C4  1  0.90894700  0.27316000  0.90894700  1
  C  C5  1  0.90894700  0.90894700  0.90894700  1
  C  C6  1  0.90894700  0.90894700  0.27316000  1
  C  C7  1  0.27316000  0.90894700  0.90894700  1
  O  O0  1  0.02210300  0.76986600  0.27554900  1
  O  O1  1  0.27554900  0.93248200  0.02210300  1
  O  O2  1  0.97445100  0.48013400  0.31751800  1
  O  O3  1  0.97445100  0.22789700  0.48013400  1
  O  O4  1  0.68736900  0.93789200  0.68736900  1
  O  O5  1  0.31751800  0.48013400  0.22789700  1
  O  O6  1  0.22789700  0.31751800  0.48013400  1
  O  O7  1  0.68736900  0.68736900  0.68736900  1
  O  O8  1  0.68736900  0.68736900  0.93789200  1
  O  O9  1  0.31751800  0.22789700  0.97445100  1
  O  O10  1  0.48013400  0.31751800  0.97445100  1
  O  O11  1  0.93789200  0.68736900  0.68736900  1
  O  O12  1  0.22789700  0.97445100  0.31751800  1
  O  O13  1  0.48013400  0.22789700  0.31751800  1
  O  O14  1  0.31751800  0.97445100  0.48013400  1
  O  O15  1  0.76986600  0.27554900  0.02210300  1
  O  O16  1  0.48013400  0.97445100  0.22789700  1
  O  O17  1  0.93248200  0.27554900  0.76986600  1
  O  O18  1  0.76986600  0.02210300  0.93248200  1
  O  O19  1  0.02210300  0.27554900  0.93248200  1
  O  O20  1  0.31210800  0.56263100  0.56263100  1
  O  O21  1  0.76986600  0.93248200  0.27554900  1
  O  O22  1  0.93248200  0.02210300  0.27554900  1
  O  O23  1  0.56263100  0.56263100  0.31210800  1
  O  O24  1  0.56263100  0.56263100  0.56263100  1
  O  O25  1  0.02210300  0.93248200  0.76986600  1
  O  O26  1  0.93248200  0.76986600  0.02210300  1
  O  O27  1  0.56263100  0.31210800  0.56263100  1
  O  O28  1  0.27554900  0.02210300  0.76986600  1
  O  O29  1  0.27554900  0.76986600  0.93248200  1
  O  O30  1  0.97445100  0.31751800  0.22789700  1
  O  O31  1  0.22789700  0.48013400  0.97445100  1
loop_
_geom_bond_atom_site_label_1
_geom_bond_atom_site_label_2
_geom_bond_distance
_geom_bond_site_symmetry_2
Na0 O11 2.461169 1_555
Na0 O7 2.461174 1_555
Na0 O6 2.569334 1_655
Na0 O2 2.569334 1_555
Na0 O0 2.577029 1_655
Na0 O17 2.577029 1_555
Na1 O23 2.461178 1_555
Na1 O20 2.461178 1_555
Na1 O0 2.569334 1_555
Na1 O1 2.569334 1_555
Na1 O12 2.577029 1_555
Na1 O5 2.577029 1_555
Na2 O8 2.461169 1_555
Na2 O7 2.461174 1_555
Na2 O5 2.569334 1_556
Na2 O10 2.569334 1_555
Na2 O29 2.577029 1_555
Na2 O15 2.577029 1_556
Na3 O11 2.461178 1_555
Na3 O4 2.461178 1_555
Na3 O3 2.569334 1_565
Na3 O12 2.569334 1_655
Na3 O22 2.577029 1_565
Na3 O25 2.577029 1_655
Na4 O23 2.461178 1_555
Na4 O27 2.461178 1_555
Na4 O15 2.569334 1_555
Na4 O22 2.569334 1_555
Na4 O30 2.577029 1_555
Na4 O13 2.577029 1_555
Na5 O27 2.461169 1_555
Na5 O24 2.461174 1_555
Na5 O17 2.569334 1_555
Na5 O18 2.569334 1_555
Na5 O10 2.577029 1_555
Na5 O3 2.577029 1_555
Na6 O4 2.461169 1_555
Na6 O7 2.461174 1_555
Na6 O13 2.569334 1_565
Na6 O14 2.569334 1_555
Na6 O28 2.577029 1_565
Na6 O21 2.577029 1_555
Na7 O4 2.461178 1_555
Na7 O8 2.461178 1_555
Na7 O9 2.569334 1_565
Na7 O16 2.569334 1_556
Na7 O1 2.577029 1_556
Na7 O18 2.577029 1_565
Na8 O23 2.461169 1_555
Na8 O24 2.461174 1_555
Na8 O21 2.569334 1_555
Na8 O26 2.569334 1_555
Na8 O2 2.577029 1_555
Na8 O16 2.577029 1_555
Na9 O27 2.461178 1_555
Na9 O20 2.461178 1_555
Na9 O28 2.569334 1_555
Na9 O19 2.569334 1_555
Na9 O9 2.577029 1_555
Na9 O6 2.577029 1_555
Na10 O11 2.461178 1_555
Na10 O8 2.461178 1_555
Na10 O30 2.569334 1_556
Na10 O31 2.569334 1_655
Na10 O19 2.577029 1_655
Na10 O26 2.577029 1_556
Na11 O20 2.461169 1_555
Na11 O24 2.461174 1_555
Na11 O29 2.569334 1_555
Na11 O25 2.569334 1_555
Na11 O14 2.577029 1_555
Na11 O31 2.577029 1_555
Fe0 O18 2.179759 1_554
Fe0 O21 2.179759 1_545
Fe0 O10 2.179759 1_554
Fe0 O16 2.179759 1_545
Fe0 O15 2.179759 1_555
Fe0 O13 2.179759 1_555
Fe1 O25 2.179759 1_545
Fe1 O28 2.179759 1_555
Fe1 O17 2.179759 1_455
Fe1 O14 2.179759 1_545
Fe1 O6 2.179759 1_555
Fe1 O3 2.179759 1_455
Fe2 O26 2.179759 1_455
Fe2 O0 2.179759 1_555
Fe2 O29 2.179759 1_554
Fe2 O2 2.179759 1_455
Fe2 O5 2.179759 1_555
Fe2 O31 2.179759 1_554
Fe3 O22 2.179759 1_455
Fe3 O1 2.179759 1_545
Fe3 O19 2.179759 1_554
Fe3 O12 2.179759 1_545
Fe3 O30 2.179759 1_455
Fe3 O9 2.179759 1_554
C0 O30 1.304636 1_555
C0 O3 1.304642 1_555
C0 O2 1.304646 1_555
C1 O9 1.304636 1_555
C1 O31 1.304642 1_555
C1 O10 1.304646 1_555
C2 O13 1.304641 1_555
C2 O6 1.304641 1_555
C2 O5 1.304641 1_555
C3 O12 1.304636 1_555
C3 O16 1.304642 1_555
C3 O14 1.304646 1_555
C4 O19 1.304636 1_655
C4 O15 1.304642 1_556
C4 O17 1.304646 1_555
C5 O25 1.304641 1_655
C5 O18 1.304641 1_565
C5 O26 1.304641 1_556
C6 O22 1.304636 1_565
C6 O0 1.304642 1_655
C6 O21 1.304646 1_555
C7 O1 1.304636 1_556
C7 O28 1.304642 1_565
C7 O29 1.304646 1_555
O4 P0 1.565113 1_555
O7 P0 1.565121 1_555
O8 P0 1.565113 1_555
O11 P0 1.565113 1_555
O20 P1 1.565113 1_555
O23 P1 1.565113 1_555
O24 P1 1.565121 1_555
O27 P1 1.565113 1_555
