# generated using pymatgen
data_CaMgAsO4F
_symmetry_space_group_name_H-M   'P 1'
_cell_length_a   5.66529300
_cell_length_b   5.66529300
_cell_length_c   7.20614326
_cell_angle_alpha   76.10575680
_cell_angle_beta   76.10575680
_cell_angle_gamma   106.15042903
_symmetry_Int_Tables_number   1
_chemical_formula_structural   CaMgAsO4F
_chemical_formula_sum   'Ca2 Mg2 As2 O8 F2'
_cell_volume   203.63896380
_cell_formula_units_Z   2
loop_
 _symmetry_equiv_pos_site_id
 _symmetry_equiv_pos_as_xyz
  1  'x, y, z'
loop_
 _atom_site_type_symbol
 _atom_site_label
 _atom_site_symmetry_multiplicity
 _atom_site_fract_x
 _atom_site_fract_y
 _atom_site_fract_z
 _atom_site_occupancy
  Ca  Ca0  1  0.66826200  0.33173800  0.25000000  1
  Ca  Ca1  1  0.33173800  0.66826200  0.75000000  1
  Mg  Mg0  1  0.00000000  0.00000000  0.00000000  1
  Mg  Mg1  1  0.00000000  0.00000000  0.50000000  1
  As  As0  1  0.32180500  0.67819500  0.25000000  1
  As  As1  1  0.67819500  0.32180500  0.75000000  1
  O  O0  1  0.61945600  0.73912800  0.07828400  1
  O  O1  1  0.26087200  0.38054400  0.42171600  1
  O  O2  1  0.89795900  0.32807600  0.88034800  1
  O  O3  1  0.67192400  0.10204100  0.61965200  1
  O  O4  1  0.10204100  0.67192400  0.11965200  1
  O  O5  1  0.32807600  0.89795900  0.38034800  1
  O  O6  1  0.38054400  0.26087200  0.92171600  1
  O  O7  1  0.73912800  0.61945600  0.57828400  1
  F  F0  1  0.91828900  0.08171100  0.25000000  1
  F  F1  1  0.08171100  0.91828900  0.75000000  1
loop_
_geom_bond_atom_site_label_1
_geom_bond_atom_site_label_2
_geom_bond_distance
_geom_bond_site_symmetry_2
Ca0 F0 2.264733 1_555
Ca0 O4 2.454177 1_655
Ca0 O5 2.454177 1_545
Ca0 O1 2.466207 1_555
Ca0 O0 2.466207 1_555
Ca0 O3 2.676987 1_555
Ca0 O2 2.676987 1_554
Ca1 F1 2.264733 1_555
Ca1 O3 2.454177 1_565
Ca1 O2 2.454177 1_455
Ca1 O7 2.466207 1_555
Ca1 O6 2.466207 1_555
Ca1 O4 2.676987 1_556
Ca1 O5 2.676987 1_555
Mg0 O6 2.096017 1_554
Mg0 O0 2.096017 1_445
Mg0 O4 2.144685 1_545
Mg0 O2 2.144685 1_454
Mg1 O1 2.096017 1_555
Mg1 O7 2.096017 1_445
Mg1 O3 2.144685 1_455
Mg1 O5 2.144685 1_545
As0 O1 1.721273 1_555
As0 O0 1.721273 1_555
As0 O5 1.728213 1_555
As0 O4 1.728213 1_555
As1 O7 1.721273 1_555
As1 O6 1.721273 1_555
As1 O2 1.728213 1_555
As1 O3 1.728213 1_555
F0 Mg0 1.947647 1_655
F0 Mg1 1.947647 1_655
F1 Mg1 1.947647 1_565
F1 Mg0 1.947647 1_566
