# generated using pymatgen
data_KCaBi
_symmetry_space_group_name_H-M   'P 1'
_cell_length_a   5.40489026
_cell_length_b   5.40489026
_cell_length_c   8.45874323
_cell_angle_alpha   90.00000000
_cell_angle_beta   90.00000000
_cell_angle_gamma   90.00000000
_symmetry_Int_Tables_number   1
_chemical_formula_structural   KCaBi
_chemical_formula_sum   'K2 Ca2 Bi2'
_cell_volume   247.10390177
_cell_formula_units_Z   2
loop_
 _symmetry_equiv_pos_site_id
 _symmetry_equiv_pos_as_xyz
  1  'x, y, z'
loop_
 _atom_site_type_symbol
 _atom_site_label
 _atom_site_symmetry_multiplicity
 _atom_site_fract_x
 _atom_site_fract_y
 _atom_site_fract_z
 _atom_site_occupancy
  K  K0  1  0.25000000  0.25000000  0.86641234  1
  K  K1  1  0.75000000  0.75000000  0.13358766  1
  Ca  Ca0  1  0.25000000  0.75000000  0.50000000  1
  Ca  Ca1  1  0.75000000  0.25000000  0.50000000  1
  Bi  Bi0  1  0.25000000  0.25000000  0.29139903  1
  Bi  Bi1  1  0.75000000  0.75000000  0.70860097  1
loop_
_geom_bond_atom_site_label_1
_geom_bond_atom_site_label_2
_geom_bond_distance
_geom_bond_site_symmetry_2
K0 K1 4.440031 1_556
K0 K1 4.440031 1_446
K0 K1 4.440031 1_546
K0 K1 4.440031 1_456
Ca0 K0 4.112106 1_565
Ca0 K1 4.112106 1_455
Ca0 K0 4.112106 1_555
Ca0 K1 4.112106 1_555
Ca1 K1 4.112106 1_545
Ca1 K0 4.112106 1_555
Ca1 K1 4.112106 1_555
Ca1 K0 4.112106 1_655
Bi0 Ca0 3.227488 1_555
Bi0 Ca1 3.227488 1_455
Bi0 Ca0 3.227488 1_545
Bi0 Ca1 3.227488 1_555
Bi0 K0 3.594853 1_554
Bi0 K1 4.048251 1_555
Bi0 K1 4.048251 1_445
Bi0 K1 4.048251 1_545
Bi0 K1 4.048251 1_455
Bi1 Ca1 3.227488 1_565
Bi1 Ca0 3.227488 1_555
Bi1 Ca1 3.227488 1_555
Bi1 Ca0 3.227488 1_655
Bi1 K1 3.594853 1_556
Bi1 K0 4.048251 1_555
Bi1 K0 4.048251 1_565
Bi1 K0 4.048251 1_655
Bi1 K0 4.048251 1_665
