# generated using pymatgen
data_ScGaO3
_symmetry_space_group_name_H-M   'P 1'
_cell_length_a   5.73468053
_cell_length_b   5.73467626
_cell_length_c   11.53189412
_cell_angle_alpha   90.00004384
_cell_angle_beta   89.99993244
_cell_angle_gamma   119.99997088
_symmetry_Int_Tables_number   1
_chemical_formula_structural   ScGaO3
_chemical_formula_sum   'Sc6 Ga6 O18'
_cell_volume   328.43508194
_cell_formula_units_Z   6
loop_
 _symmetry_equiv_pos_site_id
 _symmetry_equiv_pos_as_xyz
  1  'x, y, z'
loop_
 _atom_site_type_symbol
 _atom_site_label
 _atom_site_symmetry_multiplicity
 _atom_site_fract_x
 _atom_site_fract_y
 _atom_site_fract_z
 _atom_site_occupancy
  Sc  Sc0  1  0.33335046  0.66667326  0.23778046  1
  Sc  Sc1  1  0.00000170  0.00000419  0.27642113  1
  Sc  Sc2  1  0.00000215  -0.00000198  0.77641828  1
  Sc  Sc3  1  0.33332854  0.66666030  0.73778502  1
  Sc  Sc4  1  0.66665989  0.33332332  0.73778249  1
  Sc  Sc5  1  0.66667116  0.33334043  0.23779090  1
  Ga  Ga0  1  -0.00001635  0.66596152  0.50333915  1
  Ga  Ga1  1  0.00001433  0.33403809  0.00333906  1
  Ga  Ga2  1  0.33401608  0.33401746  0.50333917  1
  Ga  Ga3  1  0.66598323  0.66598286  0.00333750  1
  Ga  Ga4  1  0.33403792  0.00001773  0.00333906  1
  Ga  Ga5  1  0.66596044  -0.00001706  0.50333957  1
  O  O0  1  -0.00000183  0.69446896  0.67039675  1
  O  O1  1  -0.00000068  0.63827417  0.33835320  1
  O  O2  1  -0.00000061  0.36172498  0.83835330  1
  O  O3  1  0.00000078  0.30553078  0.17039801  1
  O  O4  1  0.33334197  0.66667578  0.02475866  1
  O  O5  1  -0.00000654  -0.00000431  0.47703978  1
  O  O6  1  0.00000485  0.00000523  0.97704018  1
  O  O7  1  0.33332410  0.66665900  0.52475783  1
  O  O8  1  0.30552717  0.30552733  0.67039692  1
  O  O9  1  0.36172761  0.36172490  0.33835255  1
  O  O10  1  0.30553082  0.00000061  0.17039798  1
  O  O11  1  0.63827264  0.63827654  0.83835187  1
  O  O12  1  0.69447162  0.69447222  0.17039745  1
  O  O13  1  0.36172435  0.00000007  0.83835302  1
  O  O14  1  0.66665709  0.33332404  0.52475771  1
  O  O15  1  0.66667478  0.33334199  0.02475823  1
  O  O16  1  0.63827358  -0.00000054  0.33835289  1
  O  O17  1  0.69446874  -0.00000084  0.67039689  1
loop_
_geom_bond_atom_site_label_1
_geom_bond_atom_site_label_2
_geom_bond_distance
_geom_bond_site_symmetry_2
Ga0 O1 1.909218 1_555
Ga0 O14 1.925457 1_455
Ga0 O7 1.925512 1_555
Ga0 O0 1.933411 1_555
Ga0 O5 1.939410 1_565
Ga1 O2 1.909216 1_554
Ga1 O4 1.925462 1_555
Ga1 O15 1.925511 1_455
Ga1 O3 1.933427 1_555
Ga1 O6 1.939402 1_554
Ga2 O9 1.909232 1_555
Ga2 O7 1.925486 1_555
Ga2 O14 1.925489 1_555
Ga2 O8 1.933408 1_555
Ga2 O5 1.939371 1_555
Ga3 O11 1.909221 1_554
Ga3 O15 1.925485 1_555
Ga3 O4 1.925493 1_555
Ga3 O12 1.933433 1_555
Ga3 O6 1.939366 1_664
Ga4 O13 1.909219 1_554
Ga4 O15 1.925449 1_555
Ga4 O4 1.925525 1_545
Ga4 O10 1.933425 1_555
Ga4 O6 1.939397 1_554
Ga5 O16 1.909227 1_555
Ga5 O7 1.925445 1_545
Ga5 O14 1.925516 1_555
Ga5 O17 1.933408 1_555
Ga5 O5 1.939397 1_655
O0 Sc2 2.136509 1_565
O0 Sc3 2.142004 1_555
O0 Sc4 2.142031 1_455
O1 Sc5 2.171186 1_455
O1 Sc0 2.171350 1_555
O1 Sc1 2.193901 1_565
O2 Sc3 2.171228 1_555
O2 Sc4 2.171279 1_455
O2 Sc2 2.193908 1_555
O3 Sc1 2.136521 1_555
O3 Sc5 2.142020 1_455
O3 Sc0 2.142035 1_555
O4 Sc0 2.456545 1_555
O5 Sc1 2.313513 1_555
O6 Sc2 2.313551 1_555
O7 Sc3 2.456607 1_555
O8 Sc2 2.136509 1_555
O8 Sc3 2.141985 1_555
O8 Sc4 2.141989 1_555
O9 Sc5 2.171200 1_555
O9 Sc0 2.171269 1_555
O9 Sc1 2.193870 1_555
O10 Sc1 2.136538 1_555
O10 Sc0 2.141995 1_545
O10 Sc5 2.142049 1_555
O11 Sc3 2.171235 1_555
O11 Sc4 2.171302 1_555
O11 Sc2 2.193889 1_665
O12 Sc1 2.136544 1_665
O12 Sc0 2.141908 1_555
O12 Sc5 2.142004 1_555
O13 Sc4 2.171226 1_555
O13 Sc3 2.171272 1_545
O13 Sc2 2.193871 1_555
O14 Sc4 2.456579 1_555
O15 Sc5 2.456670 1_555
O16 Sc0 2.171221 1_545
O16 Sc5 2.171238 1_555
O16 Sc1 2.193883 1_655
O17 Sc2 2.136543 1_655
O17 Sc4 2.141957 1_555
O17 Sc3 2.142026 1_545
