# generated using pymatgen
data_Fe5O7F3
_symmetry_space_group_name_H-M   'P 1'
_cell_length_a   4.67032000
_cell_length_b   4.67279635
_cell_length_c   15.25447277
_cell_angle_alpha   90.04948412
_cell_angle_beta   90.03633178
_cell_angle_gamma   90.10831870
_symmetry_Int_Tables_number   1
_chemical_formula_structural   Fe5O7F3
_chemical_formula_sum   'Fe10 O14 F6'
_cell_volume   332.90450232
_cell_formula_units_Z   2
loop_
 _symmetry_equiv_pos_site_id
 _symmetry_equiv_pos_as_xyz
  1  'x, y, z'
loop_
 _atom_site_type_symbol
 _atom_site_label
 _atom_site_symmetry_multiplicity
 _atom_site_fract_x
 _atom_site_fract_y
 _atom_site_fract_z
 _atom_site_occupancy
  Fe  Fe0  1  0.01555900  0.95960000  0.99393300  1
  Fe  Fe1  1  0.97686300  0.01613300  0.80032600  1
  Fe  Fe2  1  0.96820000  0.01127200  0.60603200  1
  Fe  Fe3  1  0.98602700  0.97861000  0.39978400  1
  Fe  Fe4  1  0.98287400  0.98822400  0.19906600  1
  Fe  Fe5  1  0.49579300  0.49121700  0.90088900  1
  Fe  Fe6  1  0.52798800  0.51064100  0.49386900  1
  Fe  Fe7  1  0.50793500  0.47967500  0.69998300  1
  Fe  Fe8  1  0.51674000  0.51499000  0.29969800  1
  Fe  Fe9  1  0.51385100  0.52709300  0.10559700  1
  O  O0  1  0.79926700  0.79650600  0.89696400  1
  O  O1  1  0.79093100  0.80767000  0.70465900  1
  O  O2  1  0.81088600  0.81763500  0.50257900  1
  O  O3  1  0.81153900  0.81029600  0.29871400  1
  O  O4  1  0.82315200  0.80712700  0.09704900  1
  O  O5  1  0.67652000  0.30915500  0.80362700  1
  O  O6  1  0.68477000  0.31776900  0.59787800  1
  O  O7  1  0.70179000  0.30611600  0.39530300  1
  O  O8  1  0.69586900  0.30678300  0.20188500  1
  O  O9  1  0.32281700  0.67655200  0.99957400  1
  O  O10  1  0.31047800  0.69553300  0.39746100  1
  O  O11  1  0.30619800  0.69860900  0.20385100  1
  O  O12  1  0.19072700  0.18702700  0.89852700  1
  O  O13  1  0.18183500  0.19771600  0.70276300  1
  F  F0  1  0.70855300  0.29208300  0.00306500  1
  F  F1  1  0.29182800  0.69602900  0.79887800  1
  F  F2  1  0.29638800  0.70421000  0.59922400  1
  F  F3  1  0.19881600  0.20396200  0.50109900  1
  F  F4  1  0.20722500  0.19416200  0.09777900  1
  F  F5  1  0.19858000  0.19760400  0.29994200  1
loop_
_geom_bond_atom_site_label_1
_geom_bond_atom_site_label_2
_geom_bond_distance
_geom_bond_site_symmetry_2
Fe0 O0 1.944871 1_455
Fe0 O4 1.946967 1_456
Fe0 O9 1.955292 1_555
Fe0 O12 1.979302 1_565
Fe1 O1 1.955856 1_545
Fe1 O5 1.962683 1_555
Fe1 O13 1.962707 1_655
Fe1 O12 1.967829 1_655
Fe1 O0 1.978709 1_545
Fe2 O6 1.956051 1_555
Fe2 O2 1.960235 1_545
Fe2 O1 1.963459 1_545
Fe2 O13 1.981028 1_655
Fe3 O3 1.911441 1_555
Fe3 O2 1.922264 1_555
Fe3 O10 2.013609 1_655
Fe3 O7 2.028952 1_565
Fe4 O3 1.908772 1_555
Fe4 O4 1.920475 1_555
Fe4 O8 2.005457 1_565
Fe4 O11 2.030940 1_655
Fe5 O5 1.907777 1_555
Fe5 O9 1.915925 1_555
Fe5 O0 2.009987 1_555
Fe5 O12 2.010932 1_555
Fe6 O2 1.952797 1_555
Fe6 O7 1.958309 1_555
Fe6 O6 1.967029 1_555
Fe6 O10 1.986153 1_555
Fe7 O6 1.918955 1_555
Fe7 O5 1.938415 1_555
Fe7 O13 2.012411 1_555
Fe7 O1 2.023114 1_555
Fe8 O3 1.947520 1_555
Fe8 O7 1.957175 1_555
Fe8 O11 1.960694 1_555
Fe8 O10 1.966332 1_555
Fe8 O8 1.968478 1_555
Fe9 O4 1.951756 1_555
Fe9 O11 1.957552 1_555
Fe9 O9 1.975341 1_554
Fe9 O8 1.986004 1_555
F0 Fe5 2.070412 1_554
F0 Fe9 2.117012 1_555
F0 Fe0 2.120681 1_644
F1 Fe5 2.061312 1_555
F1 Fe7 2.078399 1_555
F1 Fe1 2.099989 1_465
F2 Fe2 2.104069 1_465
F2 Fe7 2.108124 1_555
F2 Fe6 2.138778 1_555
F3 Fe6 2.102703 1_555
F3 Fe3 2.115741 1_445
F3 Fe2 2.129320 1_455
F4 Fe4 2.100471 1_445
F4 Fe9 2.115719 1_555
F4 Fe0 2.122155 1_544
F5 Fe4 2.081292 1_445
F5 Fe3 2.086389 1_445
F5 Fe8 2.097415 1_555
