# generated using pymatgen
data_Li2NiSnO4
_symmetry_space_group_name_H-M   'P 1'
_cell_length_a   6.08744202
_cell_length_b   6.10907933
_cell_length_c   10.48713771
_cell_angle_alpha   105.76638392
_cell_angle_beta   106.06705299
_cell_angle_gamma   61.44999996
_symmetry_Int_Tables_number   1
_chemical_formula_structural   Li2NiSnO4
_chemical_formula_sum   'Li8 Ni4 Sn4 O16'
_cell_volume   324.67367453
_cell_formula_units_Z   4
loop_
 _symmetry_equiv_pos_site_id
 _symmetry_equiv_pos_as_xyz
  1  'x, y, z'
loop_
 _atom_site_type_symbol
 _atom_site_label
 _atom_site_symmetry_multiplicity
 _atom_site_fract_x
 _atom_site_fract_y
 _atom_site_fract_z
 _atom_site_occupancy
  Li  Li0  1  0.24999800  0.75001100  0.24998000  1
  Li  Li1  1  0.75003400  0.25001800  0.75004600  1
  Li  Li2  1  0.00000100  0.49999000  0.00001600  1
  Li  Li3  1  0.49997000  0.99997300  0.49994700  1
  Li  Li4  1  0.25000000  0.25000400  0.25000200  1
  Li  Li5  1  0.74997800  0.74998100  0.75000700  1
  Li  Li6  1  0.74999800  0.75000500  0.25000100  1
  Li  Li7  1  0.24999200  0.24996900  0.75000800  1
  Ni  Ni0  1  0.25002100  0.74999900  0.75000900  1
  Ni  Ni1  1  0.99987200  0.49984400  0.49986200  1
  Ni  Ni2  1  0.74995800  0.25015100  0.25014300  1
  Ni  Ni3  1  0.50025900  0.00025800  0.99999200  1
  Sn  Sn0  1  0.49998900  0.49998700  0.99998100  1
  Sn  Sn1  1  0.00000200  0.99998000  0.49999900  1
  Sn  Sn2  1  0.99999900  0.99998000  0.99998300  1
  Sn  Sn3  1  0.50000100  0.49997200  0.50000200  1
  O  O0  1  0.63324700  0.60610800  0.37858400  1
  O  O1  1  0.13322900  0.10612300  0.87858800  1
  O  O2  1  0.10777600  0.13497800  0.38028000  1
  O  O3  1  0.60778000  0.63495300  0.88029100  1
  O  O4  1  0.39225000  0.36497300  0.11967800  1
  O  O5  1  0.89230900  0.86493900  0.61973900  1
  O  O6  1  0.86669900  0.89392000  0.12138200  1
  O  O7  1  0.36667500  0.39395700  0.62143300  1
  O  O8  1  0.37132200  0.86722900  0.11907700  1
  O  O9  1  0.87135600  0.36720900  0.61910000  1
  O  O10  1  0.62892600  0.13303000  0.38073600  1
  O  O11  1  0.12887100  0.63302500  0.88073700  1
  O  O12  1  0.87108700  0.36697500  0.11925300  1
  O  O13  1  0.37111300  0.86694900  0.61930500  1
  O  O14  1  0.12862000  0.63275200  0.38091000  1
  O  O15  1  0.62866600  0.13275800  0.88093000  1
loop_
_geom_bond_atom_site_label_1
_geom_bond_atom_site_label_2
_geom_bond_distance
_geom_bond_site_symmetry_2
Li0 O8 2.131614 1_555
Li0 O14 2.132244 1_555
Li0 O0 2.230907 1_555
Li0 O6 2.231093 1_455
Li0 O2 2.260523 1_565
Li0 O4 2.260842 1_555
Li1 O15 2.131806 1_555
Li1 O9 2.131869 1_555
Li1 O1 2.230403 1_655
Li1 O7 2.231422 1_555
Li1 O3 2.260151 1_555
Li1 O5 2.261046 1_545
Li2 O12 2.131831 1_455
Li2 O11 2.132076 1_554
Li2 O4 2.231146 1_555
Li2 O3 2.231259 1_454
Li2 O1 2.260590 1_554
Li2 O6 2.260634 1_455
Li3 O10 2.131981 1_565
Li3 O13 2.132628 1_555
Li3 O2 2.230918 1_565
Li3 O5 2.232052 1_555
Li3 O0 2.260328 1_555
Li3 O7 2.261348 1_565
Li4 O2 2.206352 1_555
Li4 O4 2.206623 1_555
Li4 O10 2.217538 1_555
Li4 O12 2.217548 1_455
Li4 O14 2.250256 1_555
Li4 O8 2.250449 1_545
Li5 O3 2.206298 1_555
Li5 O5 2.206453 1_555
Li5 O13 2.217133 1_555
Li5 O11 2.217378 1_655
Li5 O9 2.250357 1_555
Li5 O15 2.250449 1_565
Li6 O0 2.206382 1_555
Li6 O6 2.206559 1_555
Li6 O14 2.216974 1_655
Li6 O8 2.217276 1_555
Li6 O10 2.250712 1_565
Li6 O12 2.250790 1_555
Li7 O1 2.206183 1_555
Li7 O7 2.206432 1_555
Li7 O9 2.217031 1_455
Li7 O15 2.217259 1_555
Li7 O13 2.250549 1_545
Li7 O11 2.250821 1_555
Ni0 O7 2.124444 1_555
Ni0 O5 2.124685 1_455
Ni0 O1 2.124822 1_565
Ni0 O3 2.124949 1_555
Ni0 O13 2.127804 1_555
Ni0 O11 2.128355 1_555
Ni1 O2 2.123673 1_655
Ni1 O0 2.124297 1_555
Ni1 O5 2.125981 1_555
Ni1 O7 2.126379 1_655
Ni1 O14 2.128275 1_655
Ni1 O9 2.128450 1_555
Ni2 O0 2.123456 1_555
Ni2 O2 2.124526 1_655
Ni2 O4 2.125577 1_555
Ni2 O6 2.126125 1_545
Ni2 O10 2.127293 1_555
Ni2 O12 2.129060 1_555
Ni3 O4 2.123398 1_556
Ni3 O6 2.123910 1_546
Ni3 O15 2.125924 1_555
Ni3 O3 2.126219 1_545
Ni3 O1 2.126720 1_555
Ni3 O8 2.130729 1_546
O0 Sn3 2.054940 1_555
O1 Sn2 2.054702 1_445
O2 Sn1 2.054918 1_545
O3 Sn0 2.054602 1_555
O4 Sn0 2.054657 1_554
O5 Sn1 2.054950 1_655
O6 Sn2 2.054701 1_554
O7 Sn3 2.054903 1_555
O8 Sn0 2.132102 1_554
O8 Sn2 2.136014 1_454
O9 Sn1 2.132063 1_645
O9 Sn3 2.136172 1_555
O10 Sn3 2.131548 1_555
O10 Sn1 2.135702 1_645
O11 Sn2 2.131512 1_455
O11 Sn0 2.135803 1_555
O12 Sn2 2.131795 1_544
O12 Sn0 2.135827 1_554
O13 Sn3 2.131851 1_555
O13 Sn1 2.136029 1_555
O14 Sn1 2.132003 1_555
O14 Sn3 2.136264 1_555
O15 Sn0 2.131857 1_555
O15 Sn2 2.135893 1_545
