# generated using pymatgen
data_LiCrB2O5
_symmetry_space_group_name_H-M   'P 1'
_cell_length_a   10.67555500
_cell_length_b   5.40538600
_cell_length_c   12.03099854
_cell_angle_alpha   79.53632539
_cell_angle_beta   90.00000000
_cell_angle_gamma   90.00000000
_symmetry_Int_Tables_number   1
_chemical_formula_structural   LiCrB2O5
_chemical_formula_sum   'Li8 Cr8 B16 O40'
_cell_volume   682.70944752
_cell_formula_units_Z   8
loop_
 _symmetry_equiv_pos_site_id
 _symmetry_equiv_pos_as_xyz
  1  'x, y, z'
loop_
 _atom_site_type_symbol
 _atom_site_label
 _atom_site_symmetry_multiplicity
 _atom_site_fract_x
 _atom_site_fract_y
 _atom_site_fract_z
 _atom_site_occupancy
  Li  Li0  1  0.63102000  0.38020900  0.06297800  1
  Li  Li1  1  0.86898000  0.88020900  0.06297800  1
  Li  Li2  1  0.12015100  0.11864800  0.43800500  1
  Li  Li3  1  0.37984900  0.61864800  0.43800500  1
  Li  Li4  1  0.62015100  0.38135200  0.56199500  1
  Li  Li5  1  0.87984900  0.88135200  0.56199500  1
  Li  Li6  1  0.13102000  0.11979100  0.93702200  1
  Li  Li7  1  0.36898000  0.61979100  0.93702200  1
  Cr  Cr0  1  0.37653700  0.26950600  0.23851400  1
  Cr  Cr1  1  0.87574000  0.25469700  0.25894700  1
  Cr  Cr2  1  0.12346300  0.76950600  0.23851400  1
  Cr  Cr3  1  0.62426000  0.75469700  0.25894700  1
  Cr  Cr4  1  0.37574000  0.24530300  0.74105300  1
  Cr  Cr5  1  0.87653700  0.23049400  0.76148600  1
  Cr  Cr6  1  0.12426000  0.74530300  0.74105300  1
  Cr  Cr7  1  0.62346300  0.73049400  0.76148600  1
  B  B0  1  0.37086000  0.14546600  0.00548700  1
  B  B1  1  0.12914000  0.64546600  0.00548700  1
  B  B2  1  0.11981600  0.30591700  0.16634400  1
  B  B3  1  0.38018400  0.80591700  0.16634400  1
  B  B4  1  0.62883200  0.20575200  0.33425900  1
  B  B5  1  0.87116800  0.70575200  0.33425900  1
  B  B6  1  0.38673600  0.15749000  0.50901700  1
  B  B7  1  0.88673600  0.34251000  0.49098300  1
  B  B8  1  0.11326400  0.65749000  0.50901700  1
  B  B9  1  0.61326400  0.84251000  0.49098300  1
  B  B10  1  0.12883200  0.29424800  0.66574100  1
  B  B11  1  0.37116800  0.79424800  0.66574100  1
  B  B12  1  0.61981600  0.19408300  0.83365600  1
  B  B13  1  0.88018400  0.69408300  0.83365600  1
  B  B14  1  0.87086000  0.35453400  0.99451300  1
  B  B15  1  0.62914000  0.85453400  0.99451300  1
  O  O0  1  0.39516200  0.32141600  0.07097300  1
  O  O1  1  0.10970100  0.38353000  0.05045600  1
  O  O2  1  0.82269100  0.28608300  0.09970500  1
  O  O3  1  0.10483800  0.82141600  0.07097300  1
  O  O4  1  0.39029900  0.88353000  0.05045600  1
  O  O5  1  0.67730900  0.78608300  0.09970500  1
  O  O6  1  0.04483300  0.11634500  0.22304000  1
  O  O7  1  0.55404500  0.11255900  0.25583200  1
  O  O8  1  0.20145800  0.42998000  0.22719700  1
  O  O9  1  0.45516700  0.61634500  0.22304000  1
  O  O10  1  0.70702400  0.40610400  0.29482500  1
  O  O11  1  0.94595500  0.61255900  0.25583200  1
  O  O12  1  0.29854200  0.92998000  0.22719700  1
  O  O13  1  0.79297600  0.90610400  0.29482500  1
  O  O14  1  0.35302700  0.25670500  0.40218900  1
  O  O15  1  0.62862000  0.10660300  0.44977400  1
  O  O16  1  0.92702800  0.18749100  0.41998100  1
  O  O17  1  0.14697300  0.75670500  0.40218900  1
  O  O18  1  0.87138000  0.60660300  0.44977400  1
  O  O19  1  0.57297200  0.68749100  0.41998100  1
  O  O20  1  0.42702800  0.31250900  0.58001900  1
  O  O21  1  0.12862000  0.39339700  0.55022600  1
  O  O22  1  0.85302700  0.24329500  0.59781100  1
  O  O23  1  0.07297200  0.81250900  0.58001900  1
  O  O24  1  0.37138000  0.89339700  0.55022600  1
  O  O25  1  0.64697300  0.74329500  0.59781100  1
  O  O26  1  0.20702400  0.09389600  0.70517500  1
  O  O27  1  0.70145800  0.07002000  0.77280300  1
  O  O28  1  0.05404500  0.38744100  0.74416800  1
  O  O29  1  0.29297600  0.59389600  0.70517500  1
  O  O30  1  0.54483300  0.38365500  0.77696000  1
  O  O31  1  0.79854200  0.57002000  0.77280300  1
  O  O32  1  0.44595500  0.88744100  0.74416800  1
  O  O33  1  0.95516700  0.88365500  0.77696000  1
  O  O34  1  0.32269100  0.21391700  0.90029500  1
  O  O35  1  0.60970100  0.11647000  0.94954400  1
  O  O36  1  0.89516200  0.17858400  0.92902700  1
  O  O37  1  0.17730900  0.71391700  0.90029500  1
  O  O38  1  0.89029900  0.61647000  0.94954400  1
  O  O39  1  0.60483800  0.67858400  0.92902700  1
loop_
_geom_bond_atom_site_label_1
_geom_bond_atom_site_label_2
_geom_bond_distance
_geom_bond_site_symmetry_2
Li0 O39 2.081443 1_554
Li0 O2 2.135266 1_555
Li0 O35 2.157154 1_554
Li0 O5 2.367440 1_555
Li0 O0 2.537527 1_555
Li0 O7 2.632973 1_555
Li1 O36 2.081443 1_564
Li1 O5 2.135266 1_555
Li1 O38 2.157154 1_554
Li1 O2 2.367440 1_565
Li1 O3 2.537527 1_655
Li1 O11 2.632973 1_555
Li2 O17 2.097985 1_545
Li2 O16 2.099232 1_455
Li2 O21 2.182871 1_555
Li2 O23 2.210043 1_545
Li3 O14 2.097985 1_555
Li3 O19 2.099232 1_555
Li3 O24 2.182871 1_555
Li3 O20 2.210043 1_555
Li4 O25 2.097985 1_555
Li4 O20 2.099232 1_555
Li4 O15 2.182871 1_555
Li4 O19 2.210043 1_555
Li5 O22 2.097985 1_565
Li5 O23 2.099232 1_655
Li5 O18 2.182871 1_555
Li5 O16 2.210043 1_565
Li6 O3 2.081443 1_546
Li6 O34 2.135266 1_555
Li6 O1 2.157154 1_556
Li6 O37 2.367440 1_545
Li6 O36 2.537527 1_455
Li6 O28 2.632973 1_555
Li7 O0 2.081443 1_556
Li7 O37 2.135266 1_555
Li7 O4 2.157154 1_556
Li7 O34 2.367440 1_555
Li7 O39 2.537527 1_555
Li7 O32 2.632973 1_555
Cr0 O14 1.973812 1_555
Cr0 O0 1.993946 1_555
Cr0 O9 2.031595 1_555
Cr0 O12 2.042254 1_545
Cr0 O8 2.054622 1_555
Cr0 O7 2.071215 1_555
Cr1 O2 1.975321 1_555
Cr1 O16 1.982330 1_555
Cr1 O6 2.030234 1_655
Cr1 O13 2.054767 1_545
Cr1 O10 2.056339 1_555
Cr1 O11 2.068522 1_555
Cr2 O17 1.973812 1_555
Cr2 O3 1.993946 1_555
Cr2 O6 2.031595 1_565
Cr2 O8 2.042254 1_555
Cr2 O12 2.054622 1_555
Cr2 O11 2.071215 1_455
Cr3 O5 1.975321 1_555
Cr3 O19 1.982330 1_555
Cr3 O9 2.030234 1_555
Cr3 O10 2.054767 1_555
Cr3 O13 2.056339 1_555
Cr3 O7 2.068522 1_565
Cr4 O34 1.975321 1_555
Cr4 O20 1.982330 1_555
Cr4 O30 2.030234 1_555
Cr4 O29 2.054767 1_555
Cr4 O26 2.056339 1_555
Cr4 O32 2.068522 1_545
Cr5 O22 1.973812 1_555
Cr5 O36 1.993946 1_555
Cr5 O33 2.031595 1_545
Cr5 O31 2.042254 1_555
Cr5 O27 2.054622 1_555
Cr5 O28 2.071215 1_655
Cr6 O37 1.975321 1_555
Cr6 O23 1.982330 1_555
Cr6 O33 2.030234 1_455
Cr6 O26 2.054767 1_565
Cr6 O29 2.056339 1_555
Cr6 O28 2.068522 1_555
Cr7 O25 1.973812 1_555
Cr7 O39 1.993946 1_555
Cr7 O30 2.031595 1_555
Cr7 O27 2.042254 1_565
Cr7 O31 2.054622 1_555
Cr7 O32 2.071215 1_555
B0 O34 1.353848 1_554
B0 O0 1.365560 1_555
B0 O4 1.436040 1_545
B1 O37 1.353848 1_554
B1 O3 1.365560 1_555
B1 O1 1.436040 1_555
B2 O6 1.379202 1_555
B2 O1 1.385328 1_555
B2 O8 1.386972 1_555
B3 O9 1.379202 1_555
B3 O4 1.385328 1_555
B3 O12 1.386972 1_555
B4 O10 1.381340 1_555
B4 O15 1.395755 1_555
B4 O7 1.397902 1_555
B5 O13 1.381340 1_555
B5 O18 1.395755 1_555
B5 O11 1.397902 1_555
B6 O14 1.348560 1_555
B6 O20 1.369982 1_555
B6 O24 1.432981 1_545
B7 O22 1.348560 1_555
B7 O16 1.369982 1_555
B7 O18 1.432981 1_555
B8 O17 1.348560 1_555
B8 O23 1.369982 1_555
B8 O21 1.432981 1_555
B9 O25 1.348560 1_555
B9 O19 1.369982 1_555
B9 O15 1.432981 1_565
B10 O26 1.381340 1_555
B10 O21 1.395755 1_555
B10 O28 1.397902 1_555
B11 O29 1.381340 1_555
B11 O24 1.395755 1_555
B11 O32 1.397902 1_555
B12 O30 1.379202 1_555
B12 O35 1.385328 1_555
B12 O27 1.386972 1_555
B13 O33 1.379202 1_555
B13 O38 1.385328 1_555
B13 O31 1.386972 1_555
B14 O2 1.353848 1_556
B14 O36 1.365560 1_555
B14 O38 1.436040 1_555
B15 O5 1.353848 1_556
B15 O39 1.365560 1_555
B15 O35 1.436040 1_565
