# generated using pymatgen
data_La10Mn9O30
_symmetry_space_group_name_H-M   'P 1'
_cell_length_a   7.87187800
_cell_length_b   9.49674443
_cell_length_c   9.65979659
_cell_angle_alpha   81.33062663
_cell_angle_beta   113.60828393
_cell_angle_gamma   113.26093019
_symmetry_Int_Tables_number   1
_chemical_formula_structural   La10Mn9O30
_chemical_formula_sum   'La10 Mn9 O30'
_cell_volume   607.89055800
_cell_formula_units_Z   1
loop_
 _symmetry_equiv_pos_site_id
 _symmetry_equiv_pos_as_xyz
  1  'x, y, z'
loop_
 _atom_site_type_symbol
 _atom_site_label
 _atom_site_symmetry_multiplicity
 _atom_site_fract_x
 _atom_site_fract_y
 _atom_site_fract_z
 _atom_site_occupancy
  La  La0  1  0.56650700  0.71058800  0.90725800  1
  La  La1  1  0.14234300  0.09838700  0.71037600  1
  La  La2  1  0.04493300  0.72011400  0.90895900  1
  La  La3  1  0.66344300  0.09265200  0.71068500  1
  La  La4  1  0.75020900  0.49993200  0.49970000  1
  La  La5  1  0.24979100  0.50006800  0.50030000  1
  La  La6  1  0.95506700  0.27988600  0.09104100  1
  La  La7  1  0.33655700  0.90734800  0.28931500  1
  La  La8  1  0.85765700  0.90161300  0.28962400  1
  La  La9  1  0.43349300  0.28941200  0.09274200  1
  Mn  Mn0  1  0.60075900  0.40042800  0.80134300  1
  Mn  Mn1  1  0.10261500  0.40641400  0.79946000  1
  Mn  Mn2  1  0.20096000  0.80152700  0.60080800  1
  Mn  Mn3  1  0.79904000  0.19847300  0.39919200  1
  Mn  Mn4  1  0.69653400  0.80000900  0.59394300  1
  Mn  Mn5  1  0.30346600  0.19999100  0.40605700  1
  Mn  Mn6  1  0.39924100  0.59957200  0.19865700  1
  Mn  Mn7  1  0.89738500  0.59358600  0.20054000  1
  Mn  Mn8  1  0.50000000  0.00000000  0.00000000  1
  O  O0  1  0.72122700  0.00693100  0.96359700  1
  O  O1  1  0.09878500  0.22551500  0.91226700  1
  O  O2  1  0.49711100  0.18920700  0.87424200  1
  O  O3  1  0.29278600  0.52827100  0.98723600  1
  O  O4  1  0.86193000  0.38632100  0.83735000  1
  O  O5  1  0.33726400  0.41509200  0.76048000  1
  O  O6  1  0.30378200  0.87391900  0.81131200  1
  O  O7  1  0.90925100  0.27364900  0.61016600  1
  O  O8  1  0.70219600  0.61298400  0.72758100  1
  O  O9  1  0.31034000  0.01372400  0.53136800  1
  O  O10  1  0.48870300  0.33034200  0.58410300  1
  O  O11  1  0.09453200  0.58515100  0.66992100  1
  O  O12  1  0.86917300  0.91904600  0.77045600  1
  O  O13  1  0.46205300  0.78502600  0.64047100  1
  O  O14  1  0.06630800  0.18657200  0.44532400  1
  O  O15  1  0.53794700  0.21497400  0.35952900  1
  O  O16  1  0.93369200  0.81342800  0.55467600  1
  O  O17  1  0.51129700  0.66965800  0.41589700  1
  O  O18  1  0.90546800  0.41484900  0.33007900  1
  O  O19  1  0.13082700  0.08095400  0.22954400  1
  O  O20  1  0.68966000  0.98627600  0.46863200  1
  O  O21  1  0.29780400  0.38701600  0.27241900  1
  O  O22  1  0.09074900  0.72635100  0.38983400  1
  O  O23  1  0.69621800  0.12608100  0.18868800  1
  O  O24  1  0.66273600  0.58490800  0.23952000  1
  O  O25  1  0.13807000  0.61367900  0.16265000  1
  O  O26  1  0.70721400  0.47172900  0.01276400  1
  O  O27  1  0.50288900  0.81079300  0.12575800  1
  O  O28  1  0.90121500  0.77448500  0.08773300  1
  O  O29  1  0.27877300  0.99306900  0.03640300  1
loop_
_geom_bond_atom_site_label_1
_geom_bond_atom_site_label_2
_geom_bond_distance
_geom_bond_site_symmetry_2
La0 O28 2.393025 1_556
La0 O13 2.455595 1_555
La0 O3 2.494161 1_555
La0 O0 2.631225 1_565
La0 O27 2.727605 1_556
La0 O8 2.786471 1_555
La0 O26 2.791858 1_556
La0 O6 2.847317 1_555
La0 O5 2.879606 1_555
La1 O12 2.381284 1_445
La1 O2 2.452960 1_555
La1 O14 2.477306 1_555
La1 O1 2.636456 1_555
La1 O7 2.752796 1_455
La1 O6 2.762343 1_545
La1 O5 2.798862 1_555
La1 O16 2.832124 1_445
La1 O9 2.911349 1_555
La2 O6 2.438950 1_555
La2 O25 2.442166 1_556
La2 O8 2.442765 1_455
La2 O28 2.612248 1_456
La2 O29 2.646043 1_556
La2 O12 2.663311 1_455
La3 O0 2.375092 1_555
La3 O7 2.452802 1_555
La3 O9 2.485506 1_555
La3 O12 2.597546 1_545
La3 O13 2.754296 1_545
La3 O4 2.787839 1_555
La3 O20 2.791685 1_545
La3 O2 2.844877 1_555
La3 O10 2.959005 1_555
La3 O1 3.018003 1_655
La3 O6 3.197811 1_545
La3 O15 3.296385 1_555
La4 O11 2.409185 1_655
La4 O10 2.413721 1_555
La4 O24 2.425553 1_555
La4 O17 2.751700 1_555
La4 O18 2.759417 1_555
La4 O15 2.769426 1_555
La4 O7 2.772671 1_555
La4 O16 2.774476 1_555
La4 O8 2.800094 1_555
La5 O18 2.409185 1_455
La5 O17 2.413721 1_555
La5 O5 2.425553 1_555
La5 O10 2.751700 1_555
La5 O11 2.759417 1_555
La5 O13 2.769426 1_555
La5 O22 2.772671 1_555
La5 O14 2.774476 1_555
La5 O21 2.800094 1_555
La6 O23 2.438950 1_555
La6 O4 2.442166 1_554
La6 O21 2.442765 1_655
La6 O1 2.612248 1_654
La6 O0 2.646043 1_554
La6 O19 2.663311 1_655
La7 O29 2.375092 1_555
La7 O22 2.452802 1_555
La7 O20 2.485506 1_555
La7 O19 2.597546 1_565
La7 O15 2.754296 1_565
La7 O25 2.787839 1_555
La7 O9 2.791685 1_565
La7 O27 2.844877 1_555
La7 O17 2.959005 1_555
La7 O28 3.018003 1_455
La7 O23 3.197811 1_565
La7 O13 3.296385 1_555
La8 O19 2.381284 1_665
La8 O27 2.452960 1_555
La8 O16 2.477306 1_555
La8 O28 2.636456 1_555
La8 O22 2.752796 1_655
La8 O23 2.762343 1_565
La8 O24 2.798862 1_555
La8 O14 2.832124 1_665
La8 O20 2.911349 1_555
La9 O1 2.393025 1_554
La9 O15 2.455595 1_555
La9 O26 2.494161 1_555
La9 O29 2.631225 1_545
La9 O2 2.727605 1_554
La9 O21 2.786471 1_555
La9 O3 2.791858 1_554
La9 O23 2.847317 1_555
La9 O24 2.879606 1_555
Mn0 O2 1.981654 1_555
Mn0 O26 1.982318 1_556
Mn0 O8 1.992239 1_555
Mn0 O4 1.999104 1_555
Mn0 O5 2.008308 1_555
Mn0 O10 2.024718 1_555
Mn1 O1 1.886994 1_555
Mn1 O11 1.957627 1_555
Mn1 O3 1.989964 1_555
Mn1 O5 1.996985 1_555
Mn1 O4 2.002217 1_455
Mn1 O7 2.049403 1_455
Mn2 O6 1.981476 1_555
Mn2 O9 1.984161 1_565
Mn2 O22 1.987189 1_555
Mn2 O13 2.000285 1_555
Mn2 O11 2.011161 1_555
Mn2 O16 2.014805 1_455
Mn3 O23 1.981476 1_555
Mn3 O20 1.984161 1_545
Mn3 O7 1.987189 1_555
Mn3 O15 2.000285 1_555
Mn3 O18 2.011161 1_555
Mn3 O14 2.014805 1_655
Mn4 O12 1.882494 1_555
Mn4 O17 1.955526 1_555
Mn4 O20 1.993722 1_555
Mn4 O16 2.002512 1_555
Mn4 O13 2.016682 1_555
Mn4 O8 2.036742 1_555
Mn5 O19 1.882494 1_555
Mn5 O10 1.955526 1_555
Mn5 O9 1.993722 1_555
Mn5 O14 2.002512 1_555
Mn5 O15 2.016682 1_555
Mn5 O21 2.036742 1_555
Mn6 O27 1.981654 1_555
Mn6 O3 1.982318 1_554
Mn6 O21 1.992239 1_555
Mn6 O25 1.999104 1_555
Mn6 O24 2.008308 1_555
Mn6 O17 2.024718 1_555
Mn7 O28 1.886994 1_555
Mn7 O18 1.957627 1_555
Mn7 O26 1.989964 1_555
Mn7 O24 1.996985 1_555
Mn7 O25 2.002217 1_655
Mn7 O22 2.049403 1_655
Mn8 O0 1.885124 1_554
Mn8 O29 1.885124 1_545
Mn8 O27 2.014207 1_545
Mn8 O2 2.014207 1_554
Mn8 O23 2.020852 1_555
Mn8 O6 2.020852 1_544
