# generated using pymatgen
data_Mn3Co2Ni(PO4)6
_symmetry_space_group_name_H-M   'P 1'
_cell_length_a   8.43250030
_cell_length_b   8.43250030
_cell_length_c   8.43250129
_cell_angle_alpha   61.11086840
_cell_angle_beta   61.11086840
_cell_angle_gamma   61.11086816
_symmetry_Int_Tables_number   1
_chemical_formula_structural   Mn3Co2Ni(PO4)6
_chemical_formula_sum   'Mn3 Co2 Ni1 P6 O24'
_cell_volume   434.58969480
_cell_formula_units_Z   1
loop_
 _symmetry_equiv_pos_site_id
 _symmetry_equiv_pos_as_xyz
  1  'x, y, z'
loop_
 _atom_site_type_symbol
 _atom_site_label
 _atom_site_symmetry_multiplicity
 _atom_site_fract_x
 _atom_site_fract_y
 _atom_site_fract_z
 _atom_site_occupancy
  Mn  Mn0  1  0.64151100  0.64151100  0.64151100  1
  Mn  Mn1  1  0.85859600  0.85859600  0.85859600  1
  Mn  Mn2  1  0.35753100  0.35753100  0.35753100  1
  Co  Co0  1  0.00354100  0.00354100  0.00354100  1
  Co  Co1  1  0.49986000  0.49986000  0.49986000  1
  Ni  Ni0  1  0.14210600  0.14210600  0.14210600  1
  P  P0  1  0.54359900  0.95715500  0.24934200  1
  P  P1  1  0.24934200  0.54359900  0.95715500  1
  P  P2  1  0.95715500  0.24934200  0.54359900  1
  P  P3  1  0.03958300  0.74854900  0.45808600  1
  P  P4  1  0.74854900  0.45808600  0.03958300  1
  P  P5  1  0.45808600  0.03958300  0.74854900  1
  O  O0  1  0.31033900  0.51158500  0.11778000  1
  O  O1  1  0.11778000  0.31033900  0.51158500  1
  O  O2  1  0.51158500  0.11778000  0.31033900  1
  O  O3  1  0.74906700  0.93994200  0.09115400  1
  O  O4  1  0.39157100  0.98484900  0.18592700  1
  O  O5  1  0.56219500  0.75586100  0.41374700  1
  O  O6  1  0.09115400  0.74906700  0.93994200  1
  O  O7  1  0.41374700  0.56219500  0.75586100  1
  O  O8  1  0.00789100  0.81237000  0.61633600  1
  O  O9  1  0.75586100  0.41374700  0.56219500  1
  O  O10  1  0.05534500  0.90402600  0.25738100  1
  O  O11  1  0.81237000  0.61633600  0.00789100  1
  O  O12  1  0.18592700  0.39157100  0.98484900  1
  O  O13  1  0.93994200  0.09115400  0.74906700  1
  O  O14  1  0.23967800  0.58512300  0.44743700  1
  O  O15  1  0.98484900  0.18592700  0.39157100  1
  O  O16  1  0.58512300  0.44743700  0.23967800  1
  O  O17  1  0.90402600  0.25738100  0.05534500  1
  O  O18  1  0.44743700  0.23967800  0.58512300  1
  O  O19  1  0.61633600  0.00789100  0.81237000  1
  O  O20  1  0.25738100  0.05534500  0.90402600  1
  O  O21  1  0.49978300  0.88113500  0.68000400  1
  O  O22  1  0.88113500  0.68000400  0.49978300  1
  O  O23  1  0.68000400  0.49978300  0.88113500  1
loop_
_geom_bond_atom_site_label_1
_geom_bond_atom_site_label_2
_geom_bond_distance
_geom_bond_site_symmetry_2
Mn0 O22 1.882066 1_555
Mn0 O21 1.882066 1_555
Mn0 O23 1.882066 1_555
Mn0 O7 1.973454 1_555
Mn0 O9 1.973454 1_555
Mn0 O5 1.973454 1_555
Mn1 O11 1.928834 1_556
Mn1 O19 1.928834 1_565
Mn1 O8 1.928835 1_655
Mn1 O13 2.026526 1_565
Mn1 O6 2.026526 1_655
Mn1 O3 2.026526 1_556
Mn2 O1 1.916618 1_555
Mn2 O2 1.916618 1_555
Mn2 O0 1.916619 1_555
Mn2 O16 2.020053 1_555
Mn2 O14 2.020053 1_555
Mn2 O18 2.020053 1_555
Co0 O20 2.071350 1_554
Co0 O17 2.071350 1_455
Co0 O10 2.071350 1_545
Co0 O3 2.153003 1_445
Co0 O6 2.153003 1_544
Co0 O13 2.153004 1_454
Co1 O18 2.152154 1_555
Co1 O14 2.152154 1_555
Co1 O16 2.152155 1_555
Co1 O5 2.162560 1_555
Co1 O9 2.162560 1_555
Co1 O7 2.162561 1_555
Ni0 O4 1.975467 1_545
Ni0 O12 1.975467 1_554
Ni0 O15 1.975467 1_455
Ni0 O10 2.087361 1_545
Ni0 O17 2.087361 1_455
Ni0 O20 2.087361 1_554
O0 P1 1.535486 1_554
O1 P2 1.535486 1_455
O2 P0 1.535486 1_545
O3 P0 1.585342 1_555
O4 P0 1.495461 1_555
O5 P0 1.583313 1_555
O6 P1 1.585342 1_555
O7 P1 1.583313 1_555
O8 P3 1.533672 1_555
O9 P2 1.583313 1_555
O10 P3 1.551762 1_555
O11 P4 1.533672 1_555
O12 P1 1.495461 1_555
O13 P2 1.585342 1_555
O14 P3 1.574997 1_555
O15 P2 1.495462 1_555
O16 P4 1.574997 1_555
O17 P4 1.551762 1_555
O18 P5 1.574997 1_555
O19 P5 1.533672 1_555
O20 P5 1.551762 1_555
O21 P5 1.529321 1_565
O22 P3 1.529321 1_655
O23 P4 1.529321 1_556
