# generated using pymatgen
data_LiCr2(PO4)3
_symmetry_space_group_name_H-M   'P 1'
_cell_length_a   9.56740672
_cell_length_b   9.56740672
_cell_length_c   8.10237432
_cell_angle_alpha   73.79548054
_cell_angle_beta   73.79548054
_cell_angle_gamma   37.01279816
_symmetry_Int_Tables_number   1
_chemical_formula_structural   LiCr2(PO4)3
_chemical_formula_sum   'Li2 Cr4 P6 O24'
_cell_volume   426.69952570
_cell_formula_units_Z   2
loop_
 _symmetry_equiv_pos_site_id
 _symmetry_equiv_pos_as_xyz
  1  'x, y, z'
loop_
 _atom_site_type_symbol
 _atom_site_label
 _atom_site_symmetry_multiplicity
 _atom_site_fract_x
 _atom_site_fract_y
 _atom_site_fract_z
 _atom_site_occupancy
  Li  Li0  1  0.41619400  0.58380600  0.25000000  1
  Li  Li1  1  0.58380600  0.41619400  0.75000000  1
  Cr  Cr0  1  0.04023500  0.69328200  0.09224500  1
  Cr  Cr1  1  0.69328200  0.04023500  0.59224500  1
  Cr  Cr2  1  0.30671800  0.95976500  0.40775500  1
  Cr  Cr3  1  0.95976500  0.30671800  0.90775500  1
  P  P0  1  0.50562300  0.13523800  0.22520800  1
  P  P1  1  0.13523800  0.50562300  0.72520800  1
  P  P2  1  0.86476200  0.49437700  0.27479200  1
  P  P3  1  0.49437700  0.86476200  0.77479200  1
  P  P4  1  0.95367400  0.04632600  0.25000000  1
  P  P5  1  0.04632600  0.95367400  0.75000000  1
  O  O0  1  0.76256200  0.17128600  0.40396000  1
  O  O1  1  0.17128600  0.76256200  0.90396000  1
  O  O2  1  0.05718700  0.81745900  0.23211500  1
  O  O3  1  0.81745900  0.05718700  0.73211500  1
  O  O4  1  0.35105800  0.39352500  0.16678500  1
  O  O5  1  0.71213900  0.00328800  0.08164400  1
  O  O6  1  0.58074300  0.06417500  0.40686100  1
  O  O7  1  0.39352500  0.35105800  0.66678500  1
  O  O8  1  0.00328800  0.71213900  0.58164400  1
  O  O9  1  0.91348900  0.61517900  0.26452000  1
  O  O10  1  0.06417500  0.58074300  0.90686100  1
  O  O11  1  0.61517900  0.91348900  0.76452000  1
  O  O12  1  0.38482100  0.08651100  0.23548000  1
  O  O13  1  0.93582500  0.41925700  0.09313900  1
  O  O14  1  0.08651100  0.38482100  0.73548000  1
  O  O15  1  0.99671200  0.28786100  0.41835600  1
  O  O16  1  0.60647500  0.64894200  0.33321500  1
  O  O17  1  0.41925700  0.93582500  0.59313900  1
  O  O18  1  0.28786100  0.99671200  0.91835600  1
  O  O19  1  0.64894200  0.60647500  0.83321500  1
  O  O20  1  0.18254100  0.94281300  0.26788500  1
  O  O21  1  0.94281300  0.18254100  0.76788500  1
  O  O22  1  0.82871400  0.23743800  0.09604000  1
  O  O23  1  0.23743800  0.82871400  0.59604000  1
loop_
_geom_bond_atom_site_label_1
_geom_bond_atom_site_label_2
_geom_bond_distance
_geom_bond_site_symmetry_2
Li0 O20 2.156542 1_555
Li0 O2 2.156542 1_555
Li0 O22 2.605148 1_555
Li0 O0 2.605148 1_555
Li0 O16 2.624606 1_555
Li0 O4 2.624606 1_555
Li1 O21 2.156542 1_555
Li1 O3 2.156542 1_555
Li1 O23 2.605148 1_555
Li1 O1 2.605148 1_555
Li1 O19 2.624606 1_555
Li1 O7 2.624606 1_555
Cr0 O10 1.945432 1_554
Cr0 O5 1.948750 1_465
Cr0 O4 1.961787 1_555
Cr0 O2 1.970753 1_555
Cr0 O9 1.974191 1_455
Cr0 O1 2.008478 1_554
Cr1 O6 1.945432 1_555
Cr1 O8 1.948750 1_645
Cr1 O7 1.961787 1_555
Cr1 O3 1.970753 1_555
Cr1 O11 1.974191 1_545
Cr1 O0 2.008478 1_555
Cr2 O17 1.945432 1_555
Cr2 O15 1.948750 1_465
Cr2 O16 1.961787 1_555
Cr2 O20 1.970753 1_555
Cr2 O12 1.974191 1_565
Cr2 O23 2.008478 1_555
Cr3 O13 1.945432 1_556
Cr3 O18 1.948750 1_645
Cr3 O19 1.961787 1_555
Cr3 O21 1.970753 1_555
Cr3 O14 1.974191 1_655
Cr3 O22 2.008478 1_556
O0 P4 1.548216 1_555
O1 P5 1.548216 1_555
O2 P4 1.558931 1_465
O3 P5 1.558931 1_645
O4 P0 1.555417 1_555
O5 P0 1.550498 1_555
O6 P0 1.548085 1_555
O7 P1 1.555417 1_555
O8 P1 1.550498 1_555
O9 P2 1.531397 1_555
O10 P1 1.548085 1_555
O11 P3 1.531397 1_555
O12 P0 1.531397 1_555
O13 P2 1.548085 1_555
O14 P1 1.531397 1_555
O15 P2 1.550498 1_555
O16 P2 1.555417 1_555
O17 P3 1.548085 1_555
O18 P3 1.550498 1_555
O19 P3 1.555417 1_555
O20 P4 1.558931 1_465
O21 P5 1.558931 1_645
O22 P4 1.548216 1_555
O23 P5 1.548216 1_555
