# generated using pymatgen
data_HoAgGe
_symmetry_space_group_name_H-M   'P 1'
_cell_length_a   7.34307123
_cell_length_b   7.34307123
_cell_length_c   4.11358800
_cell_angle_alpha   90.00000000
_cell_angle_beta   90.00000000
_cell_angle_gamma   119.99999303
_symmetry_Int_Tables_number   1
_chemical_formula_structural   HoAgGe
_chemical_formula_sum   'Ho3 Ag3 Ge3'
_cell_volume   192.09096405
_cell_formula_units_Z   3
loop_
 _symmetry_equiv_pos_site_id
 _symmetry_equiv_pos_as_xyz
  1  'x, y, z'
loop_
 _atom_site_type_symbol
 _atom_site_label
 _atom_site_symmetry_multiplicity
 _atom_site_fract_x
 _atom_site_fract_y
 _atom_site_fract_z
 _atom_site_occupancy
  Ho  Ho0  1  0.00000000  0.60329100  0.00000000  1
  Ho  Ho1  1  0.39670900  0.39670900  0.00000000  1
  Ho  Ho2  1  0.60329100  0.00000000  0.00000000  1
  Ag  Ag0  1  0.66666700  0.33333300  0.50000000  1
  Ag  Ag1  1  0.00000000  0.00000000  0.00000000  1
  Ag  Ag2  1  0.33333300  0.66666700  0.50000000  1
  Ge  Ge0  1  0.73221600  0.73221600  0.50000000  1
  Ge  Ge1  1  0.26778400  0.00000000  0.50000000  1
  Ge  Ge2  1  0.00000000  0.26778400  0.50000000  1
loop_
_geom_bond_atom_site_label_1
_geom_bond_atom_site_label_2
_geom_bond_distance
_geom_bond_site_symmetry_2
Ag0 Ge2 2.720479 1_655
Ag0 Ge1 2.720483 1_555
Ag0 Ge0 2.720486 1_555
Ag0 Ho2 3.049436 1_556
Ag0 Ho2 3.049436 1_555
Ag0 Ho0 3.049438 1_656
Ag0 Ho0 3.049438 1_655
Ag0 Ho1 3.049441 1_555
Ag0 Ho1 3.049441 1_556
Ag1 Ge2 2.845516 1_554
Ag1 Ge2 2.845516 1_555
Ag1 Ge1 2.845516 1_555
Ag1 Ge1 2.845516 1_554
Ag1 Ge0 2.845516 1_445
Ag1 Ge0 2.845516 1_444
Ag1 Ho2 2.913062 1_455
Ag1 Ho0 2.913062 1_545
Ag1 Ho1 2.913063 1_555
Ag2 Ge1 2.720479 1_565
Ag2 Ge2 2.720483 1_555
Ag2 Ge0 2.720486 1_555
Ag2 Ho0 3.049436 1_556
Ag2 Ho0 3.049436 1_555
Ag2 Ho2 3.049438 1_566
Ag2 Ho2 3.049438 1_565
Ag2 Ho1 3.049441 1_555
Ag2 Ho1 3.049441 1_556
Ge0 Ho1 3.209359 1_555
Ge0 Ho1 3.209359 1_556
Ge0 Ho0 3.294658 1_656
Ge0 Ho2 3.294658 1_566
Ge0 Ho2 3.294658 1_565
Ge0 Ho0 3.294658 1_655
Ge1 Ho2 3.209358 1_556
Ge1 Ho2 3.209358 1_555
Ge1 Ho1 3.294658 1_555
Ge1 Ho1 3.294658 1_556
Ge1 Ho0 3.294659 1_545
Ge1 Ho0 3.294659 1_546
Ge2 Ho0 3.209358 1_555
Ge2 Ho0 3.209358 1_556
Ge2 Ho1 3.294658 1_555
Ge2 Ho1 3.294658 1_556
Ge2 Ho2 3.294659 1_455
Ge2 Ho2 3.294659 1_456
