# generated using pymatgen
data_LiMn2OF3
_symmetry_space_group_name_H-M   'P 1'
_cell_length_a   5.26219000
_cell_length_b   10.70937500
_cell_length_c   6.35659500
_cell_angle_alpha   90.00030303
_cell_angle_beta   89.99978295
_cell_angle_gamma   89.99995682
_symmetry_Int_Tables_number   1
_chemical_formula_structural   LiMn2OF3
_chemical_formula_sum   'Li4 Mn8 O4 F12'
_cell_volume   358.22442398
_cell_formula_units_Z   4
loop_
 _symmetry_equiv_pos_site_id
 _symmetry_equiv_pos_as_xyz
  1  'x, y, z'
loop_
 _atom_site_type_symbol
 _atom_site_label
 _atom_site_symmetry_multiplicity
 _atom_site_fract_x
 _atom_site_fract_y
 _atom_site_fract_z
 _atom_site_occupancy
  Li  Li0  1  0.47678300  0.08787100  0.25000600  1
  Li  Li1  1  0.97677000  0.41213600  0.75000600  1
  Li  Li2  1  0.02324200  0.58786900  0.25000900  1
  Li  Li3  1  0.52326100  0.91213800  0.75000700  1
  Mn  Mn0  1  0.48916000  0.24046100  0.75000100  1
  Mn  Mn1  1  0.98916100  0.25952500  0.24998600  1
  Mn  Mn2  1  0.01087300  0.74046700  0.75000500  1
  Mn  Mn3  1  0.51085300  0.75953400  0.25001100  1
  Mn  Mn4  1  0.99982800  0.99997800  0.99997500  1
  Mn  Mn5  1  0.99989300  0.99998700  0.50005400  1
  Mn  Mn6  1  0.50017900  0.49998700  0.99995700  1
  Mn  Mn7  1  0.49987100  0.50001400  0.49996800  1
  O  O0  1  0.83286400  0.08440000  0.25000600  1
  O  O1  1  0.33286400  0.41559800  0.74998700  1
  O  O2  1  0.66714500  0.58440400  0.24998600  1
  O  O3  1  0.16715800  0.91560400  0.75000600  1
  F  F0  1  0.71146600  0.07249700  0.75000500  1
  F  F1  1  0.21146100  0.42750500  0.25000500  1
  F  F2  1  0.78854900  0.57249500  0.75000100  1
  F  F3  1  0.28854600  0.92751400  0.25000200  1
  F  F4  1  0.28274300  0.16698700  0.47997700  1
  F  F5  1  0.28274100  0.16698300  0.02002600  1
  F  F6  1  0.78273600  0.33301700  0.97998400  1
  F  F7  1  0.78274200  0.33301700  0.52001300  1
  F  F8  1  0.21727400  0.66698700  0.02002400  1
  F  F9  1  0.21728000  0.66698800  0.47997900  1
  F  F10  1  0.71727600  0.83302000  0.52001900  1
  F  F11  1  0.71728100  0.83301800  0.97999300  1
loop_
_geom_bond_atom_site_label_1
_geom_bond_atom_site_label_2
_geom_bond_distance
_geom_bond_site_symmetry_2
Li0 O0 1.874135 1_555
Li1 O1 1.874201 1_655
Li2 O2 1.874217 1_455
Li3 O3 1.874249 1_555
Mn0 O1 2.048009 1_555
Mn1 O0 2.047895 1_555
Mn2 O3 2.047987 1_555
Mn3 O2 2.047932 1_555
Mn4 O0 2.028629 1_566
Mn4 O3 2.028926 1_655
Mn5 O3 2.028748 1_655
Mn5 O0 2.028831 1_565
Mn6 O2 2.028605 1_556
Mn6 O1 2.028974 1_555
Mn7 O1 2.028646 1_555
Mn7 O2 2.028947 1_555
F0 Li3 1.982450 1_545
F0 Mn0 2.145719 1_555
F0 Mn4 2.330349 1_545
F0 Mn5 2.330444 1_545
F1 Li2 1.982532 1_555
F1 Mn1 2.145847 1_455
F1 Mn7 2.330443 1_555
F1 Mn6 2.331768 1_554
F2 Li1 1.982491 1_555
F2 Mn2 2.145844 1_655
F2 Mn6 2.330269 1_555
F2 Mn7 2.331565 1_555
F3 Li0 1.982516 1_565
F3 Mn3 2.145866 1_555
F3 Mn5 2.331524 1_455
F3 Mn4 2.331620 1_454
F4 Li0 1.974186 1_555
F4 Mn0 2.178333 1_555
F4 Mn5 2.330293 1_445
F4 Mn1 2.346519 1_455
F5 Li0 1.974228 1_555
F5 Mn0 2.178359 1_554
F5 Mn4 2.330537 1_444
F5 Mn1 2.346394 1_455
F6 Li1 1.974224 1_555
F6 Mn1 2.178320 1_556
F6 Mn6 2.329023 1_555
F6 Mn0 2.346543 1_555
F7 Li1 1.974277 1_555
F7 Mn1 2.178416 1_555
F7 Mn7 2.330327 1_555
F7 Mn0 2.346582 1_555
F8 Li2 1.974247 1_555
F8 Mn2 2.178295 1_554
F8 Mn6 2.330472 1_554
F8 Mn3 2.346528 1_555
F9 Li2 1.974196 1_555
F9 Mn2 2.178329 1_555
F9 Mn7 2.329178 1_555
F9 Mn3 2.346427 1_555
F10 Li3 1.974208 1_555
F10 Mn3 2.178315 1_555
F10 Mn5 2.329200 1_555
F10 Mn2 2.346619 1_655
F11 Li3 1.974233 1_555
F11 Mn3 2.178371 1_556
F11 Mn4 2.328913 1_555
F11 Mn2 2.346587 1_655
