# generated using pymatgen
data_K2SnCl4O
_symmetry_space_group_name_H-M   'P 1'
_cell_length_a   7.41522900
_cell_length_b   9.55793000
_cell_length_c   12.47150900
_cell_angle_alpha   90.00000000
_cell_angle_beta   90.00000000
_cell_angle_gamma   90.00000000
_symmetry_Int_Tables_number   1
_chemical_formula_structural   K2SnCl4O
_chemical_formula_sum   'K8 Sn4 Cl16 O4'
_cell_volume   883.90871849
_cell_formula_units_Z   4
loop_
 _symmetry_equiv_pos_site_id
 _symmetry_equiv_pos_as_xyz
  1  'x, y, z'
loop_
 _atom_site_type_symbol
 _atom_site_label
 _atom_site_symmetry_multiplicity
 _atom_site_fract_x
 _atom_site_fract_y
 _atom_site_fract_z
 _atom_site_occupancy
  K  K0  1  0.89136200  0.02766400  0.65820300  1
  K  K1  1  0.60863800  0.47233600  0.15820300  1
  K  K2  1  0.10863800  0.52766400  0.34179700  1
  K  K3  1  0.39136200  0.97233600  0.84179700  1
  K  K4  1  0.10863800  0.97233600  0.34179700  1
  K  K5  1  0.39136200  0.52766400  0.84179700  1
  K  K6  1  0.89136200  0.47233600  0.65820300  1
  K  K7  1  0.60863800  0.02766400  0.15820300  1
  Sn  Sn0  1  0.47259700  0.75000000  0.46754800  1
  Sn  Sn1  1  0.02740300  0.75000000  0.96754800  1
  Sn  Sn2  1  0.52740300  0.25000000  0.53245200  1
  Sn  Sn3  1  0.97259700  0.25000000  0.03245200  1
  Cl  Cl0  1  0.57941300  0.75000000  0.66115100  1
  Cl  Cl1  1  0.92058700  0.75000000  0.16115100  1
  Cl  Cl2  1  0.42058700  0.25000000  0.33884900  1
  Cl  Cl3  1  0.07941300  0.25000000  0.83884900  1
  Cl  Cl4  1  0.68904100  0.56182300  0.43168700  1
  Cl  Cl5  1  0.81095900  0.93817700  0.93168700  1
  Cl  Cl6  1  0.31095900  0.06182300  0.56831300  1
  Cl  Cl7  1  0.18904100  0.43817700  0.06831300  1
  Cl  Cl8  1  0.31095900  0.43817700  0.56831300  1
  Cl  Cl9  1  0.18904100  0.06182300  0.06831300  1
  Cl  Cl10  1  0.68904100  0.93817700  0.43168700  1
  Cl  Cl11  1  0.81095900  0.56182300  0.93168700  1
  Cl  Cl12  1  0.58026900  0.25000000  0.74273500  1
  Cl  Cl13  1  0.91973100  0.25000000  0.24273500  1
  Cl  Cl14  1  0.41973100  0.75000000  0.25726500  1
  Cl  Cl15  1  0.08026900  0.75000000  0.75726500  1
  O  O0  1  0.78394500  0.25000000  0.52380000  1
  O  O1  1  0.71605500  0.25000000  0.02380000  1
  O  O2  1  0.21605500  0.75000000  0.47620000  1
  O  O3  1  0.28394500  0.75000000  0.97620000  1
loop_
_geom_bond_atom_site_label_1
_geom_bond_atom_site_label_2
_geom_bond_distance
_geom_bond_site_symmetry_2
K0 O0 2.821356 1_555
K1 O1 2.821356 1_555
K2 O2 2.821356 1_555
K3 O3 2.821356 1_555
K4 O2 2.821356 1_555
K5 O3 2.821356 1_555
K6 O0 2.821356 1_555
K7 O1 2.821356 1_555
Cl0 Sn0 2.541118 1_555
Cl0 K3 3.396481 1_555
Cl0 K5 3.396481 1_555
Cl0 K0 3.520692 1_565
Cl0 K6 3.520692 1_555
Cl1 Sn1 2.541118 1_654
Cl1 K2 3.396481 1_655
Cl1 K4 3.396481 1_655
Cl1 K7 3.520692 1_565
Cl1 K1 3.520692 1_555
Cl2 Sn2 2.541118 1_555
Cl2 K1 3.396481 1_555
Cl2 K7 3.396481 1_555
Cl2 K4 3.520692 1_545
Cl2 K2 3.520692 1_555
Cl3 Sn3 2.541118 1_456
Cl3 K6 3.396481 1_455
Cl3 K0 3.396481 1_455
Cl3 K5 3.520692 1_555
Cl3 K3 3.520692 1_545
Cl4 Sn0 2.451712 1_555
Cl4 K6 3.311032 1_555
Cl4 K2 3.323287 1_655
Cl4 K1 3.566552 1_555
Cl5 Sn1 2.451712 1_655
Cl5 K7 3.311032 1_566
Cl5 K3 3.323287 1_555
Cl5 K0 3.566552 1_565
Cl6 Sn2 2.451712 1_555
Cl6 K4 3.311032 1_545
Cl6 K0 3.323287 1_455
Cl6 K3 3.566552 1_545
Cl7 Sn3 2.451712 1_455
Cl7 K5 3.311032 1_554
Cl7 K1 3.323287 1_555
Cl7 K2 3.566552 1_555
Cl8 Sn2 2.451712 1_555
Cl8 K2 3.311032 1_555
Cl8 K6 3.323287 1_455
Cl8 K5 3.566552 1_555
Cl9 Sn3 2.451712 1_455
Cl9 K3 3.311032 1_544
Cl9 K7 3.323287 1_555
Cl9 K4 3.566552 1_545
Cl10 Sn0 2.451712 1_555
Cl10 K0 3.311032 1_565
Cl10 K4 3.323287 1_655
Cl10 K7 3.566552 1_565
Cl11 Sn1 2.451712 1_655
Cl11 K1 3.311032 1_556
Cl11 K5 3.323287 1_555
Cl11 K6 3.566552 1_555
Cl12 Sn2 2.651683 1_555
Cl12 K3 3.245258 1_545
Cl12 K5 3.245258 1_555
Cl12 K6 3.308897 1_555
Cl12 K0 3.308897 1_555
Cl13 Sn3 2.651683 1_555
Cl13 K4 3.245258 1_645
Cl13 K2 3.245258 1_655
Cl13 K1 3.308897 1_555
Cl13 K7 3.308897 1_555
Cl14 Sn0 2.651683 1_555
Cl14 K7 3.245258 1_565
Cl14 K1 3.245258 1_555
Cl14 K2 3.308897 1_555
Cl14 K4 3.308897 1_555
Cl15 Sn1 2.651683 1_555
Cl15 K0 3.245258 1_465
Cl15 K6 3.245258 1_455
Cl15 K5 3.308897 1_555
Cl15 K3 3.308897 1_555
O0 Sn2 1.905375 1_555
O1 Sn3 1.905375 1_555
O2 Sn0 1.905375 1_555
O3 Sn1 1.905375 1_555
