# generated using pymatgen
data_Ni(SO4)2
_symmetry_space_group_name_H-M   'P 1'
_cell_length_a   8.93065321
_cell_length_b   8.93065326
_cell_length_c   8.93065283
_cell_angle_alpha   55.42523815
_cell_angle_beta   55.42524465
_cell_angle_gamma   55.42524506
_symmetry_Int_Tables_number   1
_chemical_formula_structural   Ni(SO4)2
_chemical_formula_sum   'Ni3 S6 O24'
_cell_volume   450.14236727
_cell_formula_units_Z   3
loop_
 _symmetry_equiv_pos_site_id
 _symmetry_equiv_pos_as_xyz
  1  'x, y, z'
loop_
 _atom_site_type_symbol
 _atom_site_label
 _atom_site_symmetry_multiplicity
 _atom_site_fract_x
 _atom_site_fract_y
 _atom_site_fract_z
 _atom_site_occupancy
  Ni  Ni0  1  0.15110000  0.15110000  0.15110000  1
  Ni  Ni1  1  0.64403200  0.64403200  0.64403200  1
  Ni  Ni2  1  0.84874400  0.84874400  0.84874400  1
  S  S0  1  0.04143400  0.75681500  0.45618500  1
  S  S1  1  0.45618500  0.04143400  0.75681500  1
  S  S2  1  0.75681500  0.45618500  0.04143400  1
  S  S3  1  0.24810400  0.54151100  0.95588300  1
  S  S4  1  0.54151100  0.95588300  0.24810400  1
  S  S5  1  0.95588300  0.24810400  0.54151100  1
  O  O0  1  0.10904200  0.29638700  0.50731000  1
  O  O1  1  0.29638700  0.50731000  0.10904200  1
  O  O2  1  0.99799000  0.96686400  0.33217700  1
  O  O3  1  0.50731000  0.10904200  0.29638700  1
  O  O4  1  0.02561900  0.71761300  0.65038500  1
  O  O5  1  0.24301200  0.63942600  0.36614000  1
  O  O6  1  0.36614000  0.24301200  0.63942600  1
  O  O7  1  0.33217700  0.99799000  0.96686400  1
  O  O8  1  0.63942600  0.36614000  0.24301200  1
  O  O9  1  0.04006500  0.67092600  0.99243800  1
  O  O10  1  0.28317500  0.35015700  0.96985400  1
  O  O11  1  0.35015700  0.96985400  0.28317500  1
  O  O12  1  0.65038500  0.02561900  0.71761300  1
  O  O13  1  0.71761300  0.65038500  0.02561900  1
  O  O14  1  0.96686400  0.33217700  0.99799000  1
  O  O15  1  0.37390400  0.63047600  0.75892900  1
  O  O16  1  0.67092600  0.99243800  0.04006500  1
  O  O17  1  0.63047600  0.75892900  0.37390400  1
  O  O18  1  0.75892900  0.37390400  0.63047600  1
  O  O19  1  0.96985400  0.28317500  0.35015700  1
  O  O20  1  0.47954100  0.90194200  0.69778200  1
  O  O21  1  0.99243800  0.04006500  0.67092600  1
  O  O22  1  0.69778200  0.47954100  0.90194200  1
  O  O23  1  0.90194200  0.69778200  0.47954100  1
loop_
_geom_bond_atom_site_label_1
_geom_bond_atom_site_label_2
_geom_bond_distance
_geom_bond_site_symmetry_2
Ni0 O10 2.029440 1_554
Ni0 O11 2.029440 1_545
Ni0 O19 2.029441 1_455
Ni0 O14 2.053274 1_454
Ni0 O2 2.053274 1_445
Ni0 O7 2.053275 1_544
Ni1 O17 2.065991 1_555
Ni1 O15 2.065991 1_555
Ni1 O18 2.065991 1_555
Ni1 O22 2.075553 1_555
Ni1 O23 2.075553 1_555
Ni1 O20 2.075554 1_555
Ni2 O13 2.020854 1_556
Ni2 O12 2.020855 1_565
Ni2 O4 2.020855 1_655
Ni2 O9 2.045516 1_655
Ni2 O21 2.045516 1_565
Ni2 O16 2.045516 1_556
O0 S5 1.481851 1_455
O1 S3 1.481851 1_554
O2 S0 1.483141 1_655
O3 S4 1.481851 1_545
O4 S0 1.496462 1_555
O5 S0 1.469124 1_555
O6 S1 1.469124 1_555
O7 S1 1.483141 1_565
O8 S2 1.469124 1_555
O9 S3 1.482212 1_555
O10 S3 1.492961 1_555
O11 S4 1.492961 1_555
O12 S1 1.496462 1_555
O13 S2 1.496462 1_555
O14 S2 1.483142 1_556
O15 S3 1.473585 1_555
O16 S4 1.482212 1_555
O17 S4 1.473585 1_555
O18 S5 1.473585 1_555
O19 S5 1.492961 1_555
O20 S1 1.482915 1_565
O21 S5 1.482212 1_555
O22 S2 1.482915 1_556
O23 S0 1.482915 1_655
