# generated using pymatgen
data_AgAuO3
_symmetry_space_group_name_H-M   'P 1'
_cell_length_a   6.42351961
_cell_length_b   6.42351961
_cell_length_c   7.53973300
_cell_angle_alpha   90.00000000
_cell_angle_beta   90.00000000
_cell_angle_gamma   108.91903068
_symmetry_Int_Tables_number   1
_chemical_formula_structural   AgAuO3
_chemical_formula_sum   'Ag4 Au4 O12'
_cell_volume   294.29506713
_cell_formula_units_Z   4
loop_
 _symmetry_equiv_pos_site_id
 _symmetry_equiv_pos_as_xyz
  1  'x, y, z'
loop_
 _atom_site_type_symbol
 _atom_site_label
 _atom_site_symmetry_multiplicity
 _atom_site_fract_x
 _atom_site_fract_y
 _atom_site_fract_z
 _atom_site_occupancy
  Ag  Ag0  1  0.63809300  0.36190700  0.25000000  1
  Ag  Ag1  1  0.99950300  0.00049700  0.75000000  1
  Ag  Ag2  1  0.36190700  0.63809300  0.75000000  1
  Ag  Ag3  1  0.00049700  0.99950300  0.25000000  1
  Au  Au0  1  0.50000000  0.00000000  0.00000000  1
  Au  Au1  1  0.50000000  0.00000000  0.50000000  1
  Au  Au2  1  0.00000000  0.50000000  0.00000000  1
  Au  Au3  1  0.00000000  0.50000000  0.50000000  1
  O  O0  1  0.47694300  0.18600900  0.75000000  1
  O  O1  1  0.18600900  0.47694300  0.25000000  1
  O  O2  1  0.26797900  0.30702800  0.25000000  1
  O  O3  1  0.30702800  0.26797900  0.75000000  1
  O  O4  1  0.83898800  0.16101200  0.01878400  1
  O  O5  1  0.83898800  0.16101200  0.48121600  1
  O  O6  1  0.16101200  0.83898800  0.51878400  1
  O  O7  1  0.16101200  0.83898800  0.98121600  1
  O  O8  1  0.73202100  0.69297200  0.75000000  1
  O  O9  1  0.69297200  0.73202100  0.25000000  1
  O  O10  1  0.52305700  0.81399100  0.25000000  1
  O  O11  1  0.81399100  0.52305700  0.75000000  1
loop_
_geom_bond_atom_site_label_1
_geom_bond_atom_site_label_2
_geom_bond_distance
_geom_bond_site_symmetry_2
Ag0 O2 2.287574 1_555
Ag0 O9 2.287574 1_555
Ag0 O5 2.729381 1_555
Ag0 O4 2.729381 1_555
Ag1 O8 2.157168 1_545
Ag1 O3 2.157168 1_655
Ag1 O7 2.426871 1_645
Ag1 O6 2.426871 1_645
Ag1 O4 2.631073 1_556
Ag1 O5 2.631073 1_555
Ag2 O3 2.287574 1_555
Ag2 O8 2.287574 1_555
Ag2 O7 2.729381 1_555
Ag2 O6 2.729381 1_555
Ag3 O9 2.157168 1_455
Ag3 O2 2.157168 1_565
Ag3 O5 2.426871 1_465
Ag3 O4 2.426871 1_465
Ag3 O7 2.631073 1_554
Ag3 O6 2.631073 1_555
Au0 O4 2.090656 1_555
Au0 O7 2.090656 1_544
Au0 O10 2.262142 1_545
Au0 O0 2.262142 1_554
Au1 O5 2.090656 1_555
Au1 O6 2.090656 1_545
Au1 O10 2.262142 1_545
Au1 O0 2.262142 1_555
Au2 O7 2.090656 1_554
Au2 O4 2.090656 1_455
Au2 O1 2.262142 1_555
Au2 O11 2.262142 1_454
Au3 O5 2.090656 1_455
Au3 O6 2.090656 1_555
Au3 O1 2.262142 1_555
Au3 O11 2.262142 1_455
O0 O3 1.356898 1_555
O1 O2 1.356898 1_555
O10 O9 1.356898 1_555
O11 O8 1.356898 1_555
