# generated using pymatgen
data_K2CePCO7
_symmetry_space_group_name_H-M   'P 1'
_cell_length_a   7.39265900
_cell_length_b   5.81201500
_cell_length_c   10.09522211
_cell_angle_alpha   87.54812467
_cell_angle_beta   90.00000000
_cell_angle_gamma   90.00000000
_symmetry_Int_Tables_number   1
_chemical_formula_structural   K2CePCO7
_chemical_formula_sum   'K4 Ce2 P2 C2 O14'
_cell_volume   433.35668772
_cell_formula_units_Z   2
loop_
 _symmetry_equiv_pos_site_id
 _symmetry_equiv_pos_as_xyz
  1  'x, y, z'
loop_
 _atom_site_type_symbol
 _atom_site_label
 _atom_site_symmetry_multiplicity
 _atom_site_fract_x
 _atom_site_fract_y
 _atom_site_fract_z
 _atom_site_occupancy
  K  K0  1  0.00951300  0.24281900  0.78361800  1
  K  K1  1  0.49048700  0.24281900  0.78361800  1
  K  K2  1  0.50951300  0.75718100  0.21638200  1
  K  K3  1  0.99048700  0.75718100  0.21638200  1
  Ce  Ce0  1  0.75000000  0.77740900  0.62626000  1
  Ce  Ce1  1  0.25000000  0.22259100  0.37374000  1
  P  P0  1  0.25000000  0.70839500  0.57428600  1
  P  P1  1  0.75000000  0.29160500  0.42571400  1
  C  C0  1  0.75000000  0.72852500  0.91171800  1
  C  C1  1  0.25000000  0.27147500  0.08828200  1
  O  O0  1  0.25000000  0.29880000  0.96406500  1
  O  O1  1  0.75000000  0.93289900  0.84976400  1
  O  O2  1  0.75000000  0.55232900  0.83205900  1
  O  O3  1  0.07623000  0.78480800  0.64670300  1
  O  O4  1  0.42377000  0.78480800  0.64670300  1
  O  O5  1  0.75000000  0.18323500  0.57118700  1
  O  O6  1  0.25000000  0.43931400  0.56659300  1
  O  O7  1  0.75000000  0.56068600  0.43340700  1
  O  O8  1  0.25000000  0.81676500  0.42881300  1
  O  O9  1  0.57623000  0.21519200  0.35329700  1
  O  O10  1  0.92377000  0.21519200  0.35329700  1
  O  O11  1  0.25000000  0.44767100  0.16794100  1
  O  O12  1  0.25000000  0.06710100  0.15023600  1
  O  O13  1  0.75000000  0.70120000  0.03593500  1
loop_
_geom_bond_atom_site_label_1
_geom_bond_atom_site_label_2
_geom_bond_distance
_geom_bond_site_symmetry_2
K0 O0 2.575985 1_555
K0 O2 2.689047 1_455
K0 O1 2.695948 1_445
K0 O5 2.909144 1_455
K0 O6 3.008484 1_555
K0 O3 3.091048 1_545
K1 O0 2.575985 1_555
K1 O2 2.689047 1_555
K1 O1 2.695948 1_545
K1 O5 2.909144 1_555
K1 O6 3.008484 1_555
K1 O4 3.091048 1_545
K2 O13 2.575985 1_555
K2 O11 2.689047 1_555
K2 O12 2.695948 1_565
K2 O8 2.909144 1_555
K2 O7 3.008484 1_555
K2 O9 3.091048 1_565
K3 O13 2.575985 1_555
K3 O11 2.689047 1_655
K3 O12 2.695948 1_665
K3 O8 2.909144 1_655
K3 O7 3.008484 1_555
K3 O10 3.091048 1_565
Ce0 O7 2.363642 1_555
Ce0 O5 2.400045 1_565
Ce0 O2 2.407308 1_555
Ce0 O3 2.421060 1_655
Ce0 O4 2.421060 1_555
Ce0 O1 2.466201 1_555
Ce1 O6 2.363642 1_555
Ce1 O8 2.400045 1_545
Ce1 O11 2.407308 1_555
Ce1 O10 2.421060 1_455
Ce1 O9 2.421060 1_555
Ce1 O12 2.466201 1_555
C0 O13 1.257256 1_556
C0 O1 1.318536 1_555
C0 O2 1.328851 1_555
C1 O0 1.257256 1_554
C1 O12 1.318536 1_555
C1 O11 1.328851 1_555
O3 P0 1.552330 1_555
O4 P0 1.552330 1_555
O5 P1 1.572991 1_555
O6 P0 1.569145 1_555
O7 P1 1.569145 1_555
O8 P0 1.572991 1_555
O9 P1 1.552330 1_555
O10 P1 1.552330 1_555
