# generated using pymatgen
data_Li3BiO3
_symmetry_space_group_name_H-M   'P 1'
_cell_length_a   7.16499900
_cell_length_b   7.16499900
_cell_length_c   7.16499900
_cell_angle_alpha   90.00000000
_cell_angle_beta   90.00000000
_cell_angle_gamma   90.00000000
_symmetry_Int_Tables_number   1
_chemical_formula_structural   Li3BiO3
_chemical_formula_sum   'Li12 Bi4 O12'
_cell_volume   367.83106311
_cell_formula_units_Z   4
loop_
 _symmetry_equiv_pos_site_id
 _symmetry_equiv_pos_as_xyz
  1  'x, y, z'
loop_
 _atom_site_type_symbol
 _atom_site_label
 _atom_site_symmetry_multiplicity
 _atom_site_fract_x
 _atom_site_fract_y
 _atom_site_fract_z
 _atom_site_occupancy
  Li  Li0  1  0.97667500  0.97667500  0.97667500  1
  Li  Li1  1  0.24644600  0.25355400  0.74644600  1
  Li  Li2  1  0.24452600  0.74452600  0.75547400  1
  Li  Li3  1  0.25547400  0.25547400  0.25547400  1
  Li  Li4  1  0.25355400  0.74644600  0.24644600  1
  Li  Li5  1  0.52332500  0.02332500  0.47667500  1
  Li  Li6  1  0.47667500  0.52332500  0.02332500  1
  Li  Li7  1  0.74644600  0.24644600  0.25355400  1
  Li  Li8  1  0.74452600  0.75547400  0.24452600  1
  Li  Li9  1  0.75547400  0.24452600  0.74452600  1
  Li  Li10  1  0.75355400  0.75355400  0.75355400  1
  Li  Li11  1  0.02332500  0.47667500  0.52332500  1
  Bi  Bi0  1  0.03434300  0.96565700  0.46565700  1
  Bi  Bi1  1  0.46565700  0.03434300  0.96565700  1
  Bi  Bi2  1  0.53434300  0.53434300  0.53434300  1
  Bi  Bi3  1  0.96565700  0.46565700  0.03434300  1
  O  O0  1  0.99734500  0.25220600  0.38190900  1
  O  O1  1  0.11809100  0.00265500  0.75220600  1
  O  O2  1  0.25220600  0.38190900  0.99734500  1
  O  O3  1  0.24779400  0.61809100  0.49734500  1
  O  O4  1  0.38190900  0.99734500  0.25220600  1
  O  O5  1  0.50265500  0.74779400  0.88190900  1
  O  O6  1  0.49734500  0.24779400  0.61809100  1
  O  O7  1  0.61809100  0.49734500  0.24779400  1
  O  O8  1  0.75220600  0.11809100  0.00265500  1
  O  O9  1  0.74779400  0.88190900  0.50265500  1
  O  O10  1  0.88190900  0.50265500  0.74779400  1
  O  O11  1  0.00265500  0.75220600  0.11809100  1
loop_
_geom_bond_atom_site_label_1
_geom_bond_atom_site_label_2
_geom_bond_distance
_geom_bond_site_symmetry_2
Li0 O11 1.909977 1_656
Li0 O1 1.909977 1_665
Li0 O8 1.909977 1_566
Li1 O6 2.019697 1_555
Li1 O1 2.019697 1_555
Li1 O2 2.019697 1_555
Li2 O5 2.059574 1_555
Li2 O3 2.059574 1_555
Li2 O1 2.059574 1_565
Li3 O2 2.059574 1_554
Li3 O4 2.059574 1_545
Li3 O0 2.059574 1_455
Li4 O3 2.019697 1_555
Li4 O4 2.019697 1_555
Li4 O11 2.019697 1_555
Li5 O4 1.909977 1_545
Li5 O6 1.909977 1_555
Li5 O9 1.909977 1_545
Li6 O2 1.909977 1_554
Li6 O7 1.909977 1_555
Li6 O5 1.909977 1_554
Li7 O7 2.019697 1_555
Li7 O8 2.019697 1_555
Li7 O0 2.019697 1_555
Li8 O9 2.059574 1_555
Li8 O11 2.059574 1_655
Li8 O7 2.059574 1_555
Li9 O10 2.059574 1_555
Li9 O8 2.059574 1_556
Li9 O6 2.059574 1_555
Li10 O10 2.019697 1_555
Li10 O9 2.019697 1_555
Li10 O5 2.019697 1_555
Li11 O0 1.909977 1_455
Li11 O3 1.909977 1_555
Li11 O10 1.909977 1_455
Bi0 O1 2.155378 1_565
Bi0 O0 2.155378 1_465
Bi0 O9 2.155378 1_455
Bi1 O8 2.155378 1_556
Bi1 O4 2.155378 1_546
Bi1 O5 2.155378 1_545
Bi2 O7 2.155378 1_555
Bi2 O6 2.155378 1_555
Bi2 O3 2.155378 1_555
Bi3 O11 2.155378 1_655
Bi3 O2 2.155378 1_654
Bi3 O10 2.155378 1_554
