# generated using pymatgen
data_ZrCoO3
_symmetry_space_group_name_H-M   'P 1'
_cell_length_a   5.03371215
_cell_length_b   5.41414200
_cell_length_c   8.39620768
_cell_angle_alpha   89.99761957
_cell_angle_beta   89.95374454
_cell_angle_gamma   90.00071824
_symmetry_Int_Tables_number   1
_chemical_formula_structural   ZrCoO3
_chemical_formula_sum   'Zr4 Co4 O12'
_cell_volume   228.82372432
_cell_formula_units_Z   4
loop_
 _symmetry_equiv_pos_site_id
 _symmetry_equiv_pos_as_xyz
  1  'x, y, z'
loop_
 _atom_site_type_symbol
 _atom_site_label
 _atom_site_symmetry_multiplicity
 _atom_site_fract_x
 _atom_site_fract_y
 _atom_site_fract_z
 _atom_site_occupancy
  Zr  Zr0  1  0.04325500  0.93086300  0.75005500  1
  Zr  Zr1  1  0.45672800  0.43086500  0.74996200  1
  Zr  Zr2  1  0.54327200  0.56913500  0.25003800  1
  Zr  Zr3  1  0.95674500  0.06913700  0.24994500  1
  Co  Co0  1  0.00000000  0.50000000  0.50000000  1
  Co  Co1  1  0.50000000  0.00000000  0.00000000  1
  Co  Co2  1  0.00000000  0.50000000  0.00000000  1
  Co  Co3  1  0.49999900  0.00000000  0.50000000  1
  O  O0  1  0.16856100  0.41424300  0.24933800  1
  O  O1  1  0.33144700  0.91424000  0.25063900  1
  O  O2  1  0.66855400  0.08576100  0.74936200  1
  O  O3  1  0.83143900  0.58575700  0.75066200  1
  O  O4  1  0.19523700  0.19960800  0.59069600  1
  O  O5  1  0.19625900  0.19933700  0.90913500  1
  O  O6  1  0.30479100  0.69957900  0.90931900  1
  O  O7  1  0.30370600  0.69937100  0.59088400  1
  O  O8  1  0.69629400  0.30062800  0.40911600  1
  O  O9  1  0.69520900  0.30042200  0.09068100  1
  O  O10  1  0.80374200  0.80066400  0.09086600  1
  O  O11  1  0.80476300  0.80039100  0.40930400  1
loop_
_geom_bond_atom_site_label_1
_geom_bond_atom_site_label_2
_geom_bond_distance
_geom_bond_site_symmetry_2
Co0 O7 2.021507 1_555
Co0 O8 2.021510 1_455
Co0 O11 2.047415 1_455
Co0 O4 2.047419 1_555
Co0 O0 2.315620 1_555
Co0 O3 2.315620 1_455
Co1 O5 2.021468 1_554
Co1 O10 2.021472 1_545
Co1 O6 2.047460 1_544
Co1 O9 2.047464 1_555
Co1 O2 2.315389 1_554
Co1 O1 2.315394 1_545
Co2 O9 2.024632 1_455
Co2 O6 2.024635 1_554
Co2 O5 2.051044 1_554
Co2 O10 2.051049 1_455
Co2 O3 2.306733 1_454
Co2 O0 2.306733 1_555
Co3 O4 2.024710 1_555
Co3 O11 2.024720 1_545
Co3 O7 2.050970 1_545
Co3 O8 2.050970 1_555
Co3 O1 2.306926 1_545
Co3 O2 2.306940 1_555
O0 Zr2 2.064214 1_555
O0 Zr3 2.151258 1_455
O1 Zr3 2.064202 1_465
O1 Zr2 2.151299 1_555
O2 Zr0 2.064200 1_645
O2 Zr1 2.151297 1_555
O3 Zr1 2.064214 1_555
O3 Zr0 2.151258 1_655
O4 Zr0 2.119151 1_545
O4 Zr1 2.256400 1_555
O5 Zr0 2.119388 1_545
O5 Zr1 2.252435 1_555
O6 Zr1 2.119033 1_555
O6 Zr0 2.256560 1_555
O7 Zr1 2.119466 1_555
O7 Zr0 2.252344 1_555
O8 Zr2 2.119470 1_555
O8 Zr3 2.252341 1_555
O9 Zr2 2.119030 1_555
O9 Zr3 2.256563 1_555
O10 Zr3 2.119377 1_565
O10 Zr2 2.252436 1_555
O11 Zr3 2.119155 1_565
O11 Zr2 2.256397 1_555
