# generated using pymatgen
data_Li9Cr12Co7O48
_symmetry_space_group_name_H-M   'P 1'
_cell_length_a   5.08777756
_cell_length_b   10.27747485
_cell_length_c   17.27536600
_cell_angle_alpha   90.10857105
_cell_angle_beta   89.78971076
_cell_angle_gamma   89.90451779
_symmetry_Int_Tables_number   1
_chemical_formula_structural   Li9Cr12Co7O48
_chemical_formula_sum   'Li9 Cr12 Co7 O48'
_cell_volume   903.31138152
_cell_formula_units_Z   1
loop_
 _symmetry_equiv_pos_site_id
 _symmetry_equiv_pos_as_xyz
  1  'x, y, z'
loop_
 _atom_site_type_symbol
 _atom_site_label
 _atom_site_symmetry_multiplicity
 _atom_site_fract_x
 _atom_site_fract_y
 _atom_site_fract_z
 _atom_site_occupancy
  Li  Li0  1  0.24488515  0.42209427  0.97060451  1
  Li  Li1  1  0.24904281  0.74716603  0.30453803  1
  Li  Li2  1  0.25963285  0.25368738  0.80065972  1
  Li  Li3  1  0.25388494  0.57844158  0.46939912  1
  Li  Li4  1  0.40450930  0.74870070  0.75050454  1
  Li  Li5  1  0.59590994  0.25200215  0.25028232  1
  Li  Li6  1  0.74510544  0.07841566  0.52802766  1
  Li  Li7  1  0.73908725  0.74473151  0.20052914  1
  Li  Li8  1  0.75352801  0.24983812  0.69728972  1
  Cr  Cr0  1  0.21666427  0.75058024  0.94470432  1
  Cr  Cr1  1  0.21985243  0.02597272  0.65640388  1
  Cr  Cr2  1  0.21591825  0.47205576  0.65356694  1
  Cr  Cr3  1  0.27440517  0.52841440  0.15438432  1
  Cr  Cr4  1  0.27692630  0.97218458  0.15555512  1
  Cr  Cr5  1  0.27618429  0.25092368  0.44490783  1
  Cr  Cr6  1  0.72596991  0.75096911  0.55501671  1
  Cr  Cr7  1  0.72193831  0.02765163  0.84559062  1
  Cr  Cr8  1  0.72977234  0.47460803  0.84408968  1
  Cr  Cr9  1  0.78002411  0.52614658  0.34406846  1
  Cr  Cr10  1  0.78286877  0.97236016  0.34584107  1
  Cr  Cr11  1  0.78060423  0.24777676  0.05584251  1
  Co  Co0  1  0.09387057  0.25079639  0.25266798  1
  Co  Co1  1  0.24796059  0.07321301  0.97444894  1
  Co  Co2  1  0.25446834  0.93139886  0.47360116  1
  Co  Co3  1  0.74316428  0.42808758  0.52400433  1
  Co  Co4  1  0.74747998  0.56895251  0.02752768  1
  Co  Co5  1  0.74782337  0.92720233  0.02825841  1
  Co  Co6  1  0.90655306  0.74998521  0.74595346  1
  O  O0  1  0.05120992  0.24333799  0.99830923  1
  O  O1  1  0.04962560  0.60553740  0.36930287  1
  O  O2  1  0.06076832  0.89365136  0.37384006  1
  O  O3  1  0.10178296  0.62674721  0.20838164  1
  O  O4  1  0.10222968  0.87732519  0.20971036  1
  O  O5  1  0.10501429  0.11776125  0.46724817  1
  O  O6  1  0.08303761  0.37618497  0.46680887  1
  O  O7  1  0.08864088  0.00076361  0.07487573  1
  O  O8  1  0.09040526  0.49925307  0.07563060  1
  O  O9  1  0.14468890  0.75056246  0.85027818  1
  O  O10  1  0.14684263  0.61390545  0.70270946  1
  O  O11  1  0.14450110  0.88327636  0.70544824  1
  O  O12  1  0.33427255  0.11267746  0.20163015  1
  O  O13  1  0.33031199  0.38763534  0.20122305  1
  O  O14  1  0.33794937  0.25142627  0.34966132  1
  O  O15  1  0.40050482  0.99302993  0.57754643  1
  O  O16  1  0.40445529  0.50384361  0.57709310  1
  O  O17  1  0.40293357  0.88175590  0.96656375  1
  O  O18  1  0.40528324  0.62520338  0.96631847  1
  O  O19  1  0.40308823  0.11991594  0.71084602  1
  O  O20  1  0.39138952  0.37496380  0.70764401  1
  O  O21  1  0.44301814  0.10517108  0.87254309  1
  O  O22  1  0.45438979  0.39957097  0.86804896  1
  O  O23  1  0.45216878  0.75648311  0.50056744  1
  O  O24  1  0.55050236  0.25784556  0.50074894  1
  O  O25  1  0.55860434  0.60436487  0.12681788  1
  O  O26  1  0.55698372  0.89461842  0.12820720  1
  O  O27  1  0.59533686  0.62017454  0.29010415  1
  O  O28  1  0.61046308  0.87626578  0.29005554  1
  O  O29  1  0.58831960  0.11707410  0.03415717  1
  O  O30  1  0.60340537  0.37878284  0.03408469  1
  O  O31  1  0.59345667  0.00319159  0.42353557  1
  O  O32  1  0.59997953  0.49363404  0.42433537  1
  O  O33  1  0.66640001  0.75220138  0.65286234  1
  O  O34  1  0.67246569  0.61754334  0.79483442  1
  O  O35  1  0.66706479  0.88583418  0.79812268  1
  O  O36  1  0.85077596  0.11190116  0.29868089  1
  O  O37  1  0.84967384  0.38653946  0.29596953  1
  O  O38  1  0.85426001  0.24716904  0.14898570  1
  O  O39  1  0.90374478  0.50795594  0.92426378  1
  O  O40  1  0.90730522  0.99606901  0.92517117  1
  O  O41  1  0.89538226  0.61749997  0.53373632  1
  O  O42  1  0.91793848  0.87510542  0.53298091  1
  O  O43  1  0.89965656  0.12383640  0.79262821  1
  O  O44  1  0.90957825  0.37730278  0.79052410  1
  O  O45  1  0.95145727  0.10557002  0.63122801  1
  O  O46  1  0.93937164  0.39490082  0.62474632  1
  O  O47  1  0.94132902  0.75028128  0.00272073  1
loop_
_geom_bond_atom_site_label_1
_geom_bond_atom_site_label_2
_geom_bond_distance
_geom_bond_site_symmetry_2
Li0 O22 2.076628 1_555
Li0 O39 2.107090 1_455
Li0 O8 2.126146 1_556
Li0 O0 2.140352 1_555
Li0 O30 2.177575 1_556
Li0 O18 2.243817 1_555
Li1 O1 2.098256 1_555
Li1 O2 2.144149 1_555
Li1 O3 2.203816 1_555
Li1 O27 2.204008 1_555
Li1 O4 2.246108 1_555
Li1 O28 2.282617 1_555
Li2 O20 2.141834 1_555
Li2 O22 2.142870 1_555
Li2 O21 2.180226 1_555
Li2 O19 2.193282 1_555
Li2 O44 2.193687 1_455
Li2 O43 2.272416 1_455
Li3 O1 2.040030 1_555
Li3 O32 2.109171 1_555
Li3 O16 2.156352 1_555
Li3 O23 2.159233 1_555
Li3 O41 2.168953 1_455
Li3 O6 2.254876 1_555
Li4 O34 2.065800 1_555
Li4 O11 2.067443 1_555
Li4 O10 2.080675 1_555
Li4 O35 2.111267 1_555
Li4 O33 2.146135 1_555
Li4 O9 2.168354 1_555
Li5 O37 2.052078 1_555
Li5 O36 2.111887 1_555
Li5 O13 2.119918 1_555
Li5 O12 2.130432 1_555
Li5 O14 2.157199 1_555
Li5 O38 2.185185 1_555
Li6 O45 2.090791 1_555
Li6 O31 2.111505 1_555
Li6 O15 2.138399 1_545
Li6 O24 2.145613 1_555
Li6 O5 2.146862 1_655
Li6 O42 2.267540 1_545
Li7 O25 2.133516 1_555
Li7 O27 2.137880 1_555
Li7 O28 2.151604 1_555
Li7 O26 2.191672 1_555
Li7 O3 2.211096 1_655
Li7 O4 2.303365 1_655
Li8 O45 2.120172 1_555
Li8 O46 2.165727 1_555
Li8 O44 2.223864 1_555
Li8 O43 2.226256 1_555
Li8 O19 2.241160 1_555
Li8 O20 2.251505 1_555
Cr0 O18 1.649565 1_555
Cr0 O9 1.673155 1_555
Cr0 O17 1.692102 1_555
Cr0 O47 1.719479 1_456
Cr1 O19 1.640687 1_555
Cr1 O45 1.650772 1_455
Cr1 O15 1.674297 1_545
Cr1 O11 1.737761 1_545
Cr2 O20 1.634675 1_555
Cr2 O16 1.663004 1_555
Cr2 O46 1.692250 1_455
Cr2 O10 1.720754 1_555
Cr3 O3 1.627974 1_555
Cr3 O8 1.681041 1_555
Cr3 O13 1.683383 1_555
Cr3 O25 1.710834 1_555
Cr4 O4 1.617391 1_555
Cr4 O12 1.674013 1_565
Cr4 O26 1.696705 1_555
Cr4 O7 1.719577 1_565
Cr5 O6 1.660527 1_555
Cr5 O5 1.668494 1_555
Cr5 O14 1.674043 1_555
Cr5 O24 1.701031 1_555
Cr6 O42 1.652209 1_555
Cr6 O41 1.658774 1_555
Cr6 O23 1.684670 1_555
Cr6 O33 1.716200 1_555
Cr7 O43 1.622413 1_555
Cr7 O21 1.689766 1_555
Cr7 O35 1.695073 1_545
Cr7 O40 1.701477 1_545
Cr8 O44 1.637228 1_555
Cr8 O22 1.652165 1_555
Cr8 O39 1.681507 1_555
Cr8 O34 1.724000 1_555
Cr9 O27 1.640952 1_555
Cr9 O1 1.656517 1_655
Cr9 O37 1.693019 1_555
Cr9 O32 1.693217 1_555
Cr10 O28 1.636770 1_555
Cr10 O31 1.678832 1_565
Cr10 O36 1.686374 1_565
Cr10 O2 1.700030 1_655
Cr11 O38 1.653504 1_555
Cr11 O30 1.663507 1_555
Cr11 O0 1.695593 1_654
Cr11 O29 1.704997 1_555
Co0 O37 2.008214 1_455
Co0 O36 2.049940 1_455
Co0 O13 2.053614 1_555
Co0 O12 2.066390 1_555
Co0 O14 2.089267 1_555
Co0 O38 2.170645 1_455
Co1 O21 2.045099 1_555
Co1 O0 2.053644 1_555
Co1 O7 2.053769 1_556
Co1 O29 2.068766 1_556
Co1 O40 2.090469 1_445
Co1 O17 2.122519 1_545
Co2 O2 2.025603 1_555
Co2 O15 2.045684 1_555
Co2 O5 2.062838 1_565
Co2 O31 2.064646 1_565
Co2 O42 2.076356 1_455
Co2 O23 2.112119 1_555
Co3 O32 1.990259 1_555
Co3 O46 2.038518 1_555
Co3 O24 2.046822 1_555
Co3 O6 2.057511 1_655
Co3 O16 2.097192 1_555
Co3 O41 2.102938 1_555
Co4 O25 1.995604 1_555
Co4 O39 2.047229 1_554
Co4 O8 2.063128 1_655
Co4 O30 2.091670 1_555
Co4 O18 2.120370 1_554
Co4 O47 2.153004 1_555
Co5 O26 2.006784 1_555
Co5 O7 2.058935 1_665
Co5 O40 2.080123 1_554
Co5 O17 2.108959 1_554
Co5 O47 2.111380 1_555
Co5 O29 2.114304 1_565
Co6 O11 1.958268 1_655
Co6 O34 1.996665 1_555
Co6 O10 1.998072 1_655
Co6 O33 2.023400 1_555
Co6 O35 2.056142 1_555
Co6 O9 2.175333 1_655
