# generated using pymatgen
data_CoH19S3N5O11
_symmetry_space_group_name_H-M   'P 1'
_cell_length_a   16.01849700
_cell_length_b   6.72609600
_cell_length_c   13.56098823
_cell_angle_alpha   84.25074365
_cell_angle_beta   90.00000000
_cell_angle_gamma   90.00000000
_symmetry_Int_Tables_number   1
_chemical_formula_structural   CoH19S3N5O11
_chemical_formula_sum   'Co4 H76 S12 N20 O44'
_cell_volume   1453.73776275
_cell_formula_units_Z   4
loop_
 _symmetry_equiv_pos_site_id
 _symmetry_equiv_pos_as_xyz
  1  'x, y, z'
loop_
 _atom_site_type_symbol
 _atom_site_label
 _atom_site_symmetry_multiplicity
 _atom_site_fract_x
 _atom_site_fract_y
 _atom_site_fract_z
 _atom_site_occupancy
  Co  Co0  1  0.39046900  0.48067900  0.24749300  1
  Co  Co1  1  0.89046900  0.51932100  0.25250700  1
  Co  Co2  1  0.60953100  0.51932100  0.75250700  1
  Co  Co3  1  0.10953100  0.48067900  0.74749300  1
  H  H0  1  0.24158000  0.84885000  0.91829800  1
  H  H1  1  0.74158000  0.15115000  0.58170200  1
  H  H2  1  0.75842000  0.15115000  0.08170200  1
  H  H3  1  0.25842000  0.84885000  0.41829800  1
  H  H4  1  0.30710900  0.91462300  0.83359400  1
  H  H5  1  0.80710900  0.08537700  0.66640600  1
  H  H6  1  0.69289100  0.08537700  0.16640600  1
  H  H7  1  0.19289100  0.91462300  0.33359400  1
  H  H8  1  0.30897400  0.82396800  0.25872200  1
  H  H9  1  0.80897400  0.17603200  0.24127800  1
  H  H10  1  0.69102600  0.17603200  0.74127800  1
  H  H11  1  0.19102600  0.82396800  0.75872200  1
  H  H12  1  0.35268300  0.83538100  0.14737600  1
  H  H13  1  0.85268300  0.16461900  0.35262400  1
  H  H14  1  0.64731700  0.16461900  0.85262400  1
  H  H15  1  0.14731700  0.83538100  0.64737600  1
  H  H16  1  0.30123600  0.51451600  0.09231300  1
  H  H17  1  0.80123600  0.48548400  0.40768700  1
  H  H18  1  0.69876400  0.48548400  0.90768700  1
  H  H19  1  0.19876400  0.51451600  0.59231300  1
  H  H20  1  0.33920800  0.28603300  0.10393900  1
  H  H21  1  0.83920800  0.71396700  0.39606100  1
  H  H22  1  0.66079200  0.71396700  0.89606100  1
  H  H23  1  0.16079200  0.28603300  0.60393900  1
  H  H24  1  0.39933500  0.47701100  0.05989300  1
  H  H25  1  0.89933500  0.52298900  0.44010700  1
  H  H26  1  0.60066500  0.52298900  0.94010700  1
  H  H27  1  0.10066500  0.47701100  0.55989300  1
  H  H28  1  0.55223700  0.47418000  0.24221600  1
  H  H29  1  0.05223700  0.52582000  0.25778400  1
  H  H30  1  0.44776300  0.52582000  0.75778400  1
  H  H31  1  0.94776300  0.47418000  0.74221600  1
  H  H32  1  0.51633500  0.52413600  0.12816000  1
  H  H33  1  0.01633500  0.47586400  0.37184000  1
  H  H34  1  0.48366500  0.47586400  0.87184000  1
  H  H35  1  0.98366500  0.52413600  0.62816000  1
  H  H36  1  0.51985000  0.70365400  0.20374000  1
  H  H37  1  0.01985000  0.29634600  0.29626000  1
  H  H38  1  0.48015000  0.29634600  0.79626000  1
  H  H39  1  0.98015000  0.70365400  0.70374000  1
  H  H40  1  0.23261300  0.51853000  0.28614100  1
  H  H41  1  0.73261300  0.48147000  0.21385900  1
  H  H42  1  0.76738700  0.48147000  0.71385900  1
  H  H43  1  0.26738700  0.51853000  0.78614100  1
  H  H44  1  0.25097800  0.28480500  0.26452500  1
  H  H45  1  0.75097800  0.71519500  0.23547500  1
  H  H46  1  0.74902200  0.71519500  0.73547500  1
  H  H47  1  0.24902200  0.28480500  0.76452500  1
  H  H48  1  0.27516200  0.35606700  0.37485900  1
  H  H49  1  0.77516200  0.64393300  0.12514100  1
  H  H50  1  0.72483800  0.64393300  0.62514100  1
  H  H51  1  0.22483800  0.35606700  0.87485900  1
  H  H52  1  0.48767100  0.55649900  0.38757100  1
  H  H53  1  0.98767100  0.44350100  0.11242900  1
  H  H54  1  0.51232900  0.44350100  0.61242900  1
  H  H55  1  0.01232900  0.55649900  0.88757100  1
  H  H56  1  0.40087900  0.67707500  0.39789000  1
  H  H57  1  0.90087900  0.32292500  0.10211000  1
  H  H58  1  0.59912100  0.32292500  0.60211000  1
  H  H59  1  0.09912100  0.67707500  0.89789000  1
  H  H60  1  0.40492700  0.43533400  0.43500800  1
  H  H61  1  0.90492700  0.56466600  0.06499200  1
  H  H62  1  0.59507300  0.56466600  0.56499200  1
  H  H63  1  0.09507300  0.43533400  0.93500800  1
  H  H64  1  0.49244500  0.16977500  0.28057100  1
  H  H65  1  0.99244500  0.83022500  0.21942900  1
  H  H66  1  0.50755500  0.83022500  0.71942900  1
  H  H67  1  0.00755500  0.16977500  0.78057100  1
  H  H68  1  0.40727100  0.08751200  0.23275700  1
  H  H69  1  0.90727100  0.91248800  0.26724300  1
  H  H70  1  0.59272900  0.91248800  0.76724300  1
  H  H71  1  0.09272900  0.08751200  0.73275700  1
  H  H72  1  0.40921300  0.13049300  0.35030900  1
  H  H73  1  0.90921300  0.86950700  0.14969100  1
  H  H74  1  0.59078700  0.86950700  0.64969100  1
  H  H75  1  0.09078700  0.13049300  0.85030900  1
  S  S0  1  0.14928500  0.11206600  0.09640300  1
  S  S1  1  0.64928500  0.88793400  0.40359700  1
  S  S2  1  0.85071500  0.88793400  0.90359700  1
  S  S3  1  0.35071500  0.11206600  0.59640300  1
  S  S4  1  0.13687900  0.78143200  0.10012200  1
  S  S5  1  0.63687900  0.21856800  0.39987800  1
  S  S6  1  0.86312100  0.21856800  0.89987800  1
  S  S7  1  0.36312100  0.78143200  0.60012200  1
  S  S8  1  0.44680700  0.91986500  0.97008900  1
  S  S9  1  0.94680700  0.08013500  0.52991100  1
  S  S10  1  0.55319300  0.08013500  0.02991100  1
  S  S11  1  0.05319300  0.91986500  0.47008900  1
  N  N0  1  0.35419200  0.43206200  0.11124800  1
  N  N1  1  0.85419200  0.56793800  0.38875200  1
  N  N2  1  0.64580800  0.56793800  0.88875200  1
  N  N3  1  0.14580800  0.43206200  0.61124800  1
  N  N4  1  0.42891500  0.18348200  0.28070300  1
  N  N5  1  0.92891500  0.81651800  0.21929700  1
  N  N6  1  0.57108500  0.81651800  0.71929700  1
  N  N7  1  0.07108500  0.18348200  0.78070300  1
  N  N8  1  0.42425200  0.54326000  0.38061600  1
  N  N9  1  0.92425200  0.45674000  0.11938400  1
  N  N10  1  0.57574800  0.45674000  0.61938400  1
  N  N11  1  0.07574800  0.54326000  0.88061600  1
  N  N12  1  0.50781000  0.55454400  0.20009500  1
  N  N13  1  0.00781000  0.44545600  0.29990500  1
  N  N14  1  0.49219000  0.44545600  0.79990500  1
  N  N15  1  0.99219000  0.55454400  0.70009500  1
  N  N16  1  0.27373100  0.40179800  0.30025000  1
  N  N17  1  0.77373100  0.59820200  0.19975000  1
  N  N18  1  0.72626900  0.59820200  0.69975000  1
  N  N19  1  0.22626900  0.40179800  0.80025000  1
  O  O0  1  0.35608700  0.77618000  0.21748700  1
  O  O1  1  0.85608700  0.22382000  0.28251300  1
  O  O2  1  0.64391300  0.22382000  0.78251300  1
  O  O3  1  0.14391300  0.77618000  0.71748700  1
  O  O4  1  0.22592200  0.13509800  0.15459400  1
  O  O5  1  0.72592200  0.86490200  0.34540600  1
  O  O6  1  0.77407800  0.86490200  0.84540600  1
  O  O7  1  0.27407800  0.13509800  0.65459400  1
  O  O8  1  0.15827900  0.18417900  0.99073500  1
  O  O9  1  0.65827900  0.81582100  0.50926500  1
  O  O10  1  0.84172100  0.81582100  0.00926500  1
  O  O11  1  0.34172100  0.18417900  0.49073500  1
  O  O12  1  0.07297300  0.17883700  0.14222100  1
  O  O13  1  0.57297300  0.82116300  0.35777900  1
  O  O14  1  0.92702700  0.82116300  0.85777900  1
  O  O15  1  0.42702700  0.17883700  0.64222100  1
  O  O16  1  0.14181400  0.70524100  0.20618800  1
  O  O17  1  0.64181400  0.29475900  0.29381200  1
  O  O18  1  0.85818600  0.29475900  0.79381200  1
  O  O19  1  0.35818600  0.70524100  0.70618800  1
  O  O20  1  0.05436200  0.75002400  0.05663800  1
  O  O21  1  0.55436200  0.24997600  0.44336200  1
  O  O22  1  0.94563800  0.24997600  0.94336200  1
  O  O23  1  0.44563800  0.75002400  0.55663800  1
  O  O24  1  0.20720200  0.71400400  0.04122200  1
  O  O25  1  0.70720200  0.28599600  0.45877800  1
  O  O26  1  0.79279800  0.28599600  0.95877800  1
  O  O27  1  0.29279800  0.71400400  0.54122200  1
  O  O28  1  0.43671500  0.00698300  0.86750200  1
  O  O29  1  0.93671500  0.99301700  0.63249800  1
  O  O30  1  0.56328500  0.99301700  0.13249800  1
  O  O31  1  0.06328500  0.00698300  0.36750200  1
  O  O32  1  0.37567100  0.96070600  0.03478000  1
  O  O33  1  0.87567100  0.03929400  0.46522000  1
  O  O34  1  0.62432900  0.03929400  0.96522000  1
  O  O35  1  0.12432900  0.96070600  0.53478000  1
  O  O36  1  0.47242800  0.70800700  0.97988200  1
  O  O37  1  0.97242800  0.29199300  0.52011800  1
  O  O38  1  0.52757200  0.29199300  0.02011800  1
  O  O39  1  0.02757200  0.70800700  0.47988200  1
  O  O40  1  0.24739100  0.89264800  0.84731900  1
  O  O41  1  0.74739100  0.10735200  0.65268100  1
  O  O42  1  0.75260900  0.10735200  0.15268100  1
  O  O43  1  0.25260900  0.89264800  0.34731900  1
loop_
_geom_bond_atom_site_label_1
_geom_bond_atom_site_label_2
_geom_bond_distance
_geom_bond_site_symmetry_2
Co0 N8 1.970102 1_555
Co0 N0 1.994830 1_555
Co0 N12 2.031993 1_555
Co0 N16 2.052821 1_555
Co0 O0 2.063320 1_555
Co0 N4 2.097052 1_555
Co1 N9 1.970102 1_555
Co1 N1 1.994830 1_555
Co1 N13 2.031993 1_655
Co1 N17 2.052821 1_555
Co1 O1 2.063320 1_555
Co1 N5 2.097052 1_555
Co2 N10 1.970102 1_555
Co2 N2 1.994830 1_555
Co2 N14 2.031993 1_555
Co2 N18 2.052821 1_555
Co2 O2 2.063320 1_555
Co2 N6 2.097052 1_555
Co3 N11 1.970102 1_555
Co3 N3 1.994830 1_555
Co3 N15 2.031993 1_455
Co3 N19 2.052821 1_555
Co3 O3 2.063320 1_555
Co3 N7 2.097052 1_555
H0 O40 0.982411 1_555
H1 O41 0.982411 1_555
H2 O42 0.982411 1_555
H3 O43 0.982411 1_555
H4 O40 0.982877 1_555
H5 O41 0.982877 1_555
H6 O42 0.982877 1_555
H7 O43 0.982877 1_555
H8 O0 1.010721 1_555
H8 O43 1.607266 1_555
H9 O1 1.010721 1_555
H9 O42 1.607266 1_555
H10 O2 1.010721 1_555
H10 O41 1.607266 1_555
H11 O3 1.010721 1_555
H11 O40 1.607266 1_555
H12 O0 0.994812 1_555
H12 O32 1.708727 1_555
H13 O1 0.994812 1_555
H13 O33 1.708727 1_555
H14 O2 0.994812 1_555
H14 O34 1.708727 1_555
H15 O3 0.994812 1_555
H15 O35 1.708727 1_555
H16 N0 1.031770 1_555
H17 N1 1.031770 1_555
H18 N2 1.031770 1_555
H19 N3 1.031770 1_555
H20 N0 1.025508 1_555
H21 N1 1.025508 1_555
H22 N2 1.025508 1_555
H23 N3 1.025508 1_555
H24 N0 1.028170 1_555
H25 N1 1.028170 1_555
H26 N2 1.028170 1_555
H27 N3 1.028170 1_555
H28 N12 1.031040 1_555
H29 N13 1.031040 1_555
H30 N14 1.031040 1_555
H31 N15 1.031040 1_555
H32 N12 1.025706 1_555
H33 N13 1.025706 1_555
H34 N14 1.025706 1_555
H35 N15 1.025706 1_555
H36 N12 1.027344 1_555
H37 N13 1.027344 1_555
H38 N14 1.027344 1_555
H39 N15 1.027344 1_555
H40 N16 1.028003 1_555
H41 N17 1.028003 1_555
H42 N18 1.028003 1_555
H43 N19 1.028003 1_555
H44 N16 1.031090 1_555
H45 N17 1.031090 1_555
H46 N18 1.031090 1_555
H47 N19 1.031090 1_555
H48 N16 1.027846 1_555
H49 N17 1.027846 1_555
H50 N18 1.027846 1_555
H51 N19 1.027846 1_555
H52 N8 1.024946 1_555
H53 N9 1.024946 1_555
H54 N10 1.024946 1_555
H55 N11 1.024946 1_555
H56 N8 1.023419 1_555
H57 N9 1.023419 1_555
H58 N10 1.023419 1_555
H59 N11 1.023419 1_555
H60 N8 1.029358 1_555
H61 N9 1.029358 1_555
H62 N10 1.029358 1_555
H63 N11 1.029358 1_555
H64 N4 1.021841 1_555
H65 N5 1.021841 1_555
H66 N6 1.021841 1_555
H67 N7 1.021841 1_555
H68 N4 1.021626 1_555
H69 N5 1.021626 1_555
H70 N6 1.021626 1_555
H71 N7 1.021626 1_555
H72 N4 1.024804 1_555
H73 N5 1.024804 1_555
H74 N6 1.024804 1_555
H75 N7 1.024804 1_555
O4 S0 1.475886 1_555
O5 S1 1.475886 1_555
O6 S2 1.475886 1_555
O7 S3 1.475886 1_555
O8 S0 1.473142 1_556
O9 S1 1.473142 1_555
O10 S2 1.473142 1_554
O11 S3 1.473142 1_555
O12 S0 1.462168 1_555
O13 S1 1.462168 1_555
O14 S2 1.462168 1_555
O15 S3 1.462168 1_555
O16 S4 1.479889 1_555
O17 S5 1.479889 1_555
O18 S6 1.479889 1_555
O19 S7 1.479889 1_555
O20 S4 1.471213 1_555
O21 S5 1.471213 1_555
O22 S6 1.471213 1_555
O23 S7 1.471213 1_555
O24 S4 1.478237 1_555
O25 S5 1.478237 1_555
O26 S6 1.478237 1_555
O27 S7 1.478237 1_555
O28 S8 1.463404 1_545
O29 S9 1.463404 1_565
O30 S10 1.463404 1_565
O31 S11 1.463404 1_545
O32 S8 1.480471 1_554
O33 S9 1.480471 1_555
O34 S10 1.480471 1_556
O35 S11 1.480471 1_555
O36 S8 1.476048 1_555
O37 S9 1.476048 1_555
O38 S10 1.476048 1_555
O39 S11 1.476048 1_555
