# generated using pymatgen
data_TiMn9O20
_symmetry_space_group_name_H-M   'P 1'
_cell_length_a   5.82458704
_cell_length_b   5.82458704
_cell_length_c   24.04637747
_cell_angle_alpha   83.15110207
_cell_angle_beta   83.15110207
_cell_angle_gamma   59.80262735
_symmetry_Int_Tables_number   1
_chemical_formula_structural   TiMn9O20
_chemical_formula_sum   'Ti2 Mn18 O40'
_cell_volume   698.38483439
_cell_formula_units_Z   2
loop_
 _symmetry_equiv_pos_site_id
 _symmetry_equiv_pos_as_xyz
  1  'x, y, z'
loop_
 _atom_site_type_symbol
 _atom_site_label
 _atom_site_symmetry_multiplicity
 _atom_site_fract_x
 _atom_site_fract_y
 _atom_site_fract_z
 _atom_site_occupancy
  Ti  Ti0  1  0.50000000  0.50000000  0.00000000  1
  Ti  Ti1  1  0.50000000  0.50000000  0.50000000  1
  Mn  Mn0  1  0.29835300  0.29835300  0.10000300  1
  Mn  Mn1  1  0.00000000  0.50000000  0.00000000  1
  Mn  Mn2  1  0.40278500  0.89479600  0.79908500  1
  Mn  Mn3  1  0.50000000  0.00000000  0.00000000  1
  Mn  Mn4  1  0.70164700  0.70164700  0.89999700  1
  Mn  Mn5  1  0.89894600  0.89894600  0.79938800  1
  Mn  Mn6  1  0.89479600  0.40278500  0.79908500  1
  Mn  Mn7  1  0.29793800  0.79584500  0.60003600  1
  Mn  Mn8  1  0.29696200  0.29696200  0.60012800  1
  Mn  Mn9  1  0.09734100  0.09734100  0.69965400  1
  Mn  Mn10  1  0.20415500  0.70206200  0.39996400  1
  Mn  Mn11  1  0.70206200  0.20415500  0.39996400  1
  Mn  Mn12  1  0.59721500  0.10520400  0.20091500  1
  Mn  Mn13  1  0.79584500  0.29793800  0.60003600  1
  Mn  Mn14  1  0.10105400  0.10105400  0.20061200  1
  Mn  Mn15  1  0.70303800  0.70303800  0.39987200  1
  Mn  Mn16  1  0.90265900  0.90265900  0.30034600  1
  Mn  Mn17  1  0.10520400  0.59721500  0.20091500  1
  O  O0  1  0.16602500  0.61086900  0.04779700  1
  O  O1  1  0.61086900  0.16602500  0.04779700  1
  O  O2  1  0.57075400  0.57075400  0.84646200  1
  O  O3  1  0.17040600  0.17040600  0.04636200  1
  O  O4  1  0.34475900  0.34475900  0.95795700  1
  O  O5  1  0.65524100  0.65524100  0.04204300  1
  O  O6  1  0.23128400  0.78291800  0.75229000  1
  O  O7  1  0.83397500  0.38913100  0.95220300  1
  O  O8  1  0.38913100  0.83397500  0.95220300  1
  O  O9  1  0.57204200  0.00859000  0.84600900  1
  O  O10  1  0.00859000  0.57204200  0.84600900  1
  O  O11  1  0.41040700  0.96590200  0.64680100  1
  O  O12  1  0.96774800  0.96774800  0.64695400  1
  O  O13  1  0.14387100  0.14387100  0.55903600  1
  O  O14  1  0.74607300  0.74607300  0.75814800  1
  O  O15  1  0.82959400  0.82959400  0.95363800  1
  O  O16  1  0.22758600  0.22758600  0.75208600  1
  O  O17  1  0.05225100  0.05225100  0.84031200  1
  O  O18  1  0.44999100  0.44999100  0.64114500  1
  O  O19  1  0.62951500  0.18001800  0.55383300  1
  O  O20  1  0.78291800  0.23128400  0.75229000  1
  O  O21  1  0.58959300  0.03409800  0.35319900  1
  O  O22  1  0.18001800  0.62951500  0.55383300  1
  O  O23  1  0.96590200  0.41040700  0.64680100  1
  O  O24  1  0.37048500  0.81998200  0.44616700  1
  O  O25  1  0.55000900  0.55000900  0.35885500  1
  O  O26  1  0.36762100  0.36762100  0.44501900  1
  O  O27  1  0.25392700  0.25392700  0.24185200  1
  O  O28  1  0.63237900  0.63237900  0.55498100  1
  O  O29  1  0.85612900  0.85612900  0.44096400  1
  O  O30  1  0.03225200  0.03225200  0.35304600  1
  O  O31  1  0.42924600  0.42924600  0.15353800  1
  O  O32  1  0.03409800  0.58959300  0.35319900  1
  O  O33  1  0.42795800  0.99141000  0.15399100  1
  O  O34  1  0.99141000  0.42795800  0.15399100  1
  O  O35  1  0.76871600  0.21708200  0.24771000  1
  O  O36  1  0.81998200  0.37048500  0.44616700  1
  O  O37  1  0.21708200  0.76871600  0.24771000  1
  O  O38  1  0.77241400  0.77241400  0.24791400  1
  O  O39  1  0.94774900  0.94774900  0.15968800  1
loop_
_geom_bond_atom_site_label_1
_geom_bond_atom_site_label_2
_geom_bond_distance
_geom_bond_site_symmetry_2
Mn0 O0 1.938512 1_555
Mn0 O1 1.938512 1_555
Mn0 O34 1.942688 1_455
Mn0 O33 1.942688 1_545
Mn0 O3 1.947241 1_555
Mn0 O31 1.967885 1_555
Mn1 O0 1.934799 1_555
Mn1 O7 1.934799 1_454
Mn1 O15 1.936521 1_454
Mn1 O3 1.936521 1_555
Mn1 O5 1.944054 1_455
Mn1 O4 1.944054 1_554
Mn2 O14 1.925872 1_555
Mn2 O2 1.926865 1_555
Mn2 O9 1.945608 1_565
Mn2 O6 1.945884 1_555
Mn2 O16 1.959239 1_565
Mn2 O17 1.960343 1_565
Mn3 O1 1.934799 1_555
Mn3 O8 1.934799 1_544
Mn3 O15 1.936521 1_544
Mn3 O3 1.936521 1_555
Mn3 O5 1.944054 1_545
Mn3 O4 1.944054 1_554
Mn4 O8 1.938512 1_555
Mn4 O7 1.938512 1_555
Mn4 O10 1.942688 1_655
Mn4 O9 1.942688 1_565
Mn4 O15 1.947241 1_555
Mn4 O2 1.967885 1_555
Mn5 O9 1.930947 1_565
Mn5 O10 1.930947 1_655
Mn5 O17 1.945334 1_665
Mn5 O14 1.946251 1_555
Mn5 O20 1.957066 1_565
Mn5 O6 1.957066 1_655
Mn6 O14 1.925872 1_555
Mn6 O2 1.926865 1_555
Mn6 O10 1.945608 1_655
Mn6 O20 1.945884 1_555
Mn6 O16 1.959239 1_655
Mn6 O17 1.960343 1_655
Mn7 O28 1.936968 1_555
Mn7 O22 1.937205 1_555
Mn7 O18 1.938741 1_555
Mn7 O11 1.941367 1_555
Mn7 O12 1.946522 1_455
Mn7 O13 1.947020 1_565
Mn8 O18 1.944300 1_555
Mn8 O13 1.945954 1_555
Mn8 O23 1.947684 1_455
Mn8 O11 1.947684 1_545
Mn8 O22 1.947940 1_555
Mn8 O19 1.947940 1_555
Mn9 O12 1.942902 1_445
Mn9 O16 1.943146 1_555
Mn9 O11 1.949725 1_545
Mn9 O23 1.949725 1_455
Mn9 O20 1.951922 1_455
Mn9 O6 1.951922 1_545
Mn10 O26 1.936968 1_555
Mn10 O24 1.937205 1_555
Mn10 O25 1.938741 1_555
Mn10 O32 1.941367 1_555
Mn10 O30 1.946522 1_565
Mn10 O29 1.947020 1_455
Mn11 O26 1.936968 1_555
Mn11 O36 1.937205 1_555
Mn11 O25 1.938741 1_555
Mn11 O21 1.941367 1_555
Mn11 O30 1.946522 1_655
Mn11 O29 1.947020 1_545
Mn12 O27 1.925872 1_555
Mn12 O31 1.926865 1_555
Mn12 O33 1.945608 1_545
Mn12 O35 1.945884 1_555
Mn12 O38 1.959239 1_545
Mn12 O39 1.960343 1_545
Mn13 O28 1.936968 1_555
Mn13 O19 1.937205 1_555
Mn13 O18 1.938741 1_555
Mn13 O23 1.941367 1_555
Mn13 O12 1.946522 1_545
Mn13 O13 1.947020 1_655
Mn14 O34 1.930947 1_455
Mn14 O33 1.930947 1_545
Mn14 O39 1.945334 1_445
Mn14 O27 1.946251 1_555
Mn14 O35 1.957066 1_455
Mn14 O37 1.957066 1_545
Mn15 O25 1.944300 1_555
Mn15 O29 1.945954 1_555
Mn15 O21 1.947684 1_565
Mn15 O32 1.947684 1_655
Mn15 O36 1.947940 1_555
Mn15 O24 1.947940 1_555
Mn16 O30 1.942902 1_665
Mn16 O38 1.943146 1_555
Mn16 O32 1.949725 1_655
Mn16 O21 1.949725 1_565
Mn16 O35 1.951922 1_565
Mn16 O37 1.951922 1_655
Mn17 O27 1.925872 1_555
Mn17 O31 1.926865 1_555
Mn17 O34 1.945608 1_455
Mn17 O37 1.945884 1_555
Mn17 O38 1.959239 1_455
Mn17 O39 1.960343 1_455
O0 Ti0 1.975392 1_555
O1 Ti0 1.975392 1_555
O4 Ti0 1.978844 1_556
O5 Ti0 1.978844 1_555
O7 Ti0 1.975392 1_556
O8 Ti0 1.975392 1_556
O19 Ti1 1.990359 1_555
O22 Ti1 1.990359 1_555
O24 Ti1 1.990359 1_555
O26 Ti1 2.005319 1_555
O28 Ti1 2.005319 1_555
O36 Ti1 1.990359 1_555
