# generated using pymatgen
data_La3GaO6
_symmetry_space_group_name_H-M   'P 1'
_cell_length_a   7.54533114
_cell_length_b   7.54533114
_cell_length_c   5.68137309
_cell_angle_alpha   90.00000000
_cell_angle_beta   90.00000000
_cell_angle_gamma   103.03003740
_symmetry_Int_Tables_number   1
_chemical_formula_structural   La3GaO6
_chemical_formula_sum   'La6 Ga2 O12'
_cell_volume   315.12381434
_cell_formula_units_Z   2
loop_
 _symmetry_equiv_pos_site_id
 _symmetry_equiv_pos_as_xyz
  1  'x, y, z'
loop_
 _atom_site_type_symbol
 _atom_site_label
 _atom_site_symmetry_multiplicity
 _atom_site_fract_x
 _atom_site_fract_y
 _atom_site_fract_z
 _atom_site_occupancy
  La  La0  1  0.08669174  0.30075987  0.46683322  1
  La  La1  1  0.30075987  0.08669174  0.96683322  1
  La  La2  1  0.60523173  0.39476827  0.42877201  1
  La  La3  1  0.39476827  0.60523173  0.92877201  1
  La  La4  1  0.69924013  0.91330826  0.46683322  1
  La  La5  1  0.91330826  0.69924013  0.96683322  1
  Ga  Ga0  1  0.80854692  0.19145308  0.00454315  1
  Ga  Ga1  1  0.19145308  0.80854692  0.50454315  1
  O  O0  1  0.32925192  0.35254632  0.20033822  1
  O  O1  1  0.35254632  0.32925192  0.70033822  1
  O  O2  1  0.10807887  0.58788792  0.66683824  1
  O  O3  1  0.58788792  0.10807887  0.16683824  1
  O  O4  1  0.95513348  0.04486652  0.13040070  1
  O  O5  1  0.78563418  0.21436582  0.68220978  1
  O  O6  1  0.21436582  0.78563418  0.18220978  1
  O  O7  1  0.04486652  0.95513348  0.63040070  1
  O  O8  1  0.41211208  0.89192113  0.66683824  1
  O  O9  1  0.89192113  0.41211208  0.16683824  1
  O  O10  1  0.64745368  0.67074808  0.20033822  1
  O  O11  1  0.67074808  0.64745368  0.70033822  1
loop_
_geom_bond_atom_site_label_1
_geom_bond_atom_site_label_2
_geom_bond_distance
_geom_bond_site_symmetry_2
La0 O0 2.339273 1_555
La0 O1 2.373938 1_555
La0 O2 2.419338 1_555
La0 O9 2.515426 1_455
La0 O5 2.532700 1_455
La0 O7 2.719011 1_545
La0 O4 2.739077 1_455
La1 O1 2.339273 1_555
La1 O0 2.373938 1_556
La1 O3 2.419338 1_556
La1 O8 2.515426 1_545
La1 O6 2.532700 1_546
La1 O4 2.719011 1_456
La1 O7 2.739077 1_545
La2 O10 2.413069 1_555
La2 O0 2.413069 1_555
La2 O1 2.415559 1_555
La2 O11 2.415559 1_555
La2 O5 2.571856 1_555
La2 O9 2.604484 1_555
La2 O3 2.604484 1_555
La3 O11 2.413069 1_555
La3 O1 2.413069 1_555
La3 O0 2.415559 1_556
La3 O10 2.415559 1_556
La3 O6 2.571856 1_556
La3 O8 2.604484 1_555
La3 O2 2.604484 1_555
La4 O10 2.339273 1_555
La4 O11 2.373938 1_555
La4 O8 2.419338 1_555
La4 O3 2.515426 1_565
La4 O5 2.532700 1_565
La4 O7 2.719011 1_655
La4 O4 2.739077 1_565
La5 O11 2.339273 1_555
La5 O10 2.373938 1_556
La5 O9 2.419338 1_556
La5 O2 2.515426 1_655
La5 O6 2.532700 1_656
La5 O4 2.719011 1_566
La5 O7 2.739077 1_655
Ga0 O5 1.851189 1_554
Ga0 O4 1.873389 1_555
Ga0 O3 1.883000 1_555
Ga0 O9 1.883000 1_555
Ga1 O6 1.851189 1_555
Ga1 O7 1.873389 1_555
Ga1 O2 1.883000 1_555
Ga1 O8 1.883000 1_555
