# generated using pymatgen
data_Li5MnV3O8
_symmetry_space_group_name_H-M   'P 1'
_cell_length_a   8.65302000
_cell_length_b   8.65302000
_cell_length_c   8.65302000
_cell_angle_alpha   90.00000000
_cell_angle_beta   90.00000000
_cell_angle_gamma   90.00000000
_symmetry_Int_Tables_number   1
_chemical_formula_structural   Li5MnV3O8
_chemical_formula_sum   'Li20 Mn4 V12 O32'
_cell_volume   647.89275355
_cell_formula_units_Z   4
loop_
 _symmetry_equiv_pos_site_id
 _symmetry_equiv_pos_as_xyz
  1  'x, y, z'
loop_
 _atom_site_type_symbol
 _atom_site_label
 _atom_site_symmetry_multiplicity
 _atom_site_fract_x
 _atom_site_fract_y
 _atom_site_fract_z
 _atom_site_occupancy
  Li  Li0  1  0.05270300  0.05270300  0.05270300  1
  Li  Li1  1  0.13851900  0.37500000  0.38851900  1
  Li  Li2  1  0.12500000  0.61148100  0.63851900  1
  Li  Li3  1  0.11148100  0.86148100  0.87500000  1
  Li  Li4  1  0.19729700  0.19729700  0.19729700  1
  Li  Li5  1  0.30270300  0.80270300  0.69729700  1
  Li  Li6  1  0.38851900  0.13851900  0.37500000  1
  Li  Li7  1  0.37500000  0.38851900  0.13851900  1
  Li  Li8  1  0.36148100  0.62500000  0.88851900  1
  Li  Li9  1  0.44729700  0.94729700  0.55270300  1
  Li  Li10  1  0.55270300  0.44729700  0.94729700  1
  Li  Li11  1  0.63851900  0.12500000  0.61148100  1
  Li  Li12  1  0.62500000  0.88851900  0.36148100  1
  Li  Li13  1  0.61148100  0.63851900  0.12500000  1
  Li  Li14  1  0.69729700  0.30270300  0.80270300  1
  Li  Li15  1  0.80270300  0.69729700  0.30270300  1
  Li  Li16  1  0.88851900  0.36148100  0.62500000  1
  Li  Li17  1  0.87500000  0.11148100  0.86148100  1
  Li  Li18  1  0.86148100  0.87500000  0.11148100  1
  Li  Li19  1  0.94729700  0.55270300  0.44729700  1
  Mn  Mn0  1  0.12500000  0.87500000  0.37500000  1
  Mn  Mn1  1  0.37500000  0.12500000  0.87500000  1
  Mn  Mn2  1  0.62500000  0.62500000  0.62500000  1
  Mn  Mn3  1  0.87500000  0.37500000  0.12500000  1
  V  V0  1  0.12445200  0.12554800  0.62500000  1
  V  V1  1  0.12500000  0.37554800  0.87445200  1
  V  V2  1  0.12554800  0.62500000  0.12445200  1
  V  V3  1  0.37445200  0.37500000  0.62445200  1
  V  V4  1  0.37500000  0.62445200  0.37445200  1
  V  V5  1  0.37554800  0.87445200  0.12500000  1
  V  V6  1  0.62445200  0.37445200  0.37500000  1
  V  V7  1  0.62500000  0.12445200  0.12554800  1
  V  V8  1  0.62554800  0.87500000  0.87554800  1
  V  V9  1  0.87445200  0.12500000  0.37554800  1
  V  V10  1  0.87500000  0.87554800  0.62554800  1
  V  V11  1  0.87554800  0.62554800  0.87500000  1
  O  O0  1  0.11422600  0.88877400  0.63060800  1
  O  O1  1  0.11122600  0.13060800  0.38577400  1
  O  O2  1  0.11968300  0.61968300  0.88031700  1
  O  O3  1  0.11939200  0.13877400  0.86422600  1
  O  O4  1  0.13060800  0.38577400  0.11122600  1
  O  O5  1  0.13031700  0.36968300  0.63031700  1
  O  O6  1  0.13877400  0.86422600  0.11939200  1
  O  O7  1  0.13577400  0.61939200  0.36122600  1
  O  O8  1  0.36422600  0.38060800  0.86122600  1
  O  O9  1  0.36122600  0.13577400  0.61939200  1
  O  O10  1  0.36968300  0.63031700  0.13031700  1
  O  O11  1  0.36939200  0.61422600  0.61122600  1
  O  O12  1  0.38060800  0.86122600  0.36422600  1
  O  O13  1  0.38031700  0.38031700  0.38031700  1
  O  O14  1  0.38877400  0.86939200  0.88577400  1
  O  O15  1  0.38577400  0.11122600  0.13060800  1
  O  O16  1  0.61422600  0.61122600  0.36939200  1
  O  O17  1  0.61122600  0.36939200  0.61422600  1
  O  O18  1  0.61968300  0.88031700  0.11968300  1
  O  O19  1  0.61939200  0.36122600  0.13577400  1
  O  O20  1  0.63060800  0.11422600  0.88877400  1
  O  O21  1  0.63031700  0.13031700  0.36968300  1
  O  O22  1  0.63877400  0.63577400  0.88060800  1
  O  O23  1  0.63577400  0.88060800  0.63877400  1
  O  O24  1  0.86422600  0.11939200  0.13877400  1
  O  O25  1  0.86122600  0.36422600  0.38060800  1
  O  O26  1  0.86968300  0.86968300  0.86968300  1
  O  O27  1  0.86939200  0.88577400  0.38877400  1
  O  O28  1  0.88060800  0.63877400  0.63577400  1
  O  O29  1  0.88031700  0.11968300  0.61968300  1
  O  O30  1  0.88877400  0.63060800  0.11422600  1
  O  O31  1  0.88577400  0.38877400  0.86939200  1
loop_
_geom_bond_atom_site_label_1
_geom_bond_atom_site_label_2
_geom_bond_distance
_geom_bond_site_symmetry_2
Li0 O24 1.883483 1_455
Li0 O6 1.883483 1_545
Li0 O3 1.883483 1_554
Li1 O13 2.093992 1_555
Li1 O5 2.093992 1_555
Li1 O1 2.128008 1_555
Li1 O7 2.128008 1_555
Li1 O25 2.402208 1_455
Li1 O4 2.402208 1_555
Li2 O2 2.093992 1_555
Li2 O5 2.093992 1_555
Li2 O11 2.128008 1_555
Li2 O28 2.128008 1_455
Li2 O0 2.402208 1_555
Li2 O7 2.402208 1_555
Li3 O26 2.093992 1_455
Li3 O2 2.093992 1_555
Li3 O6 2.128008 1_556
Li3 O0 2.128008 1_555
Li3 O3 2.402208 1_565
Li3 O14 2.402208 1_555
Li4 O1 1.883483 1_555
Li4 O15 1.883483 1_555
Li4 O4 1.883483 1_555
Li5 O11 1.883483 1_555
Li5 O0 1.883483 1_555
Li5 O14 1.883483 1_555
Li6 O13 2.093992 1_555
Li6 O21 2.093992 1_555
Li6 O15 2.128008 1_555
Li6 O9 2.128008 1_555
Li6 O12 2.402208 1_545
Li6 O1 2.402208 1_555
Li7 O13 2.093992 1_555
Li7 O10 2.093992 1_555
Li7 O4 2.128008 1_555
Li7 O19 2.128008 1_555
Li7 O8 2.402208 1_554
Li7 O15 2.402208 1_555
Li8 O2 2.093992 1_555
Li8 O10 2.093992 1_556
Li8 O8 2.128008 1_555
Li8 O14 2.128008 1_555
Li8 O11 2.402208 1_555
Li8 O22 2.402208 1_555
Li9 O23 1.883483 1_555
Li9 O12 1.883483 1_555
Li9 O9 1.883483 1_565
Li10 O22 1.883483 1_555
Li10 O8 1.883483 1_555
Li10 O19 1.883483 1_556
Li11 O29 2.093992 1_555
Li11 O21 2.093992 1_555
Li11 O17 2.128008 1_555
Li11 O23 2.128008 1_545
Li11 O20 2.402208 1_555
Li11 O9 2.402208 1_555
Li12 O18 2.093992 1_555
Li12 O21 2.093992 1_565
Li12 O12 2.128008 1_555
Li12 O27 2.128008 1_555
Li12 O16 2.402208 1_555
Li12 O23 2.402208 1_555
Li13 O18 2.093992 1_555
Li13 O10 2.093992 1_555
Li13 O16 2.128008 1_555
Li13 O22 2.128008 1_554
Li13 O30 2.402208 1_555
Li13 O19 2.402208 1_555
Li14 O20 1.883483 1_555
Li14 O17 1.883483 1_555
Li14 O31 1.883483 1_555
Li15 O30 1.883483 1_555
Li15 O16 1.883483 1_555
Li15 O27 1.883483 1_555
Li16 O29 2.093992 1_555
Li16 O5 2.093992 1_655
Li16 O25 2.128008 1_555
Li16 O31 2.128008 1_555
Li16 O17 2.402208 1_555
Li16 O28 2.402208 1_555
Li17 O26 2.093992 1_545
Li17 O29 2.093992 1_555
Li17 O3 2.128008 1_655
Li17 O20 2.128008 1_555
Li17 O24 2.402208 1_556
Li17 O31 2.402208 1_555
Li18 O26 2.093992 1_554
Li18 O18 2.093992 1_555
Li18 O24 2.128008 1_565
Li18 O30 2.128008 1_555
Li18 O6 2.402208 1_655
Li18 O27 2.402208 1_555
Li19 O28 1.883483 1_555
Li19 O25 1.883483 1_555
Li19 O7 1.883483 1_655
Mn0 O0 2.216951 1_555
Mn0 O7 2.216951 1_555
Mn0 O27 2.216951 1_455
Mn0 O6 2.216951 1_555
Mn0 O12 2.216951 1_555
Mn0 O1 2.216951 1_565
Mn1 O20 2.216951 1_555
Mn1 O9 2.216951 1_555
Mn1 O14 2.216951 1_545
Mn1 O3 2.216951 1_555
Mn1 O8 2.216951 1_555
Mn1 O15 2.216951 1_556
Mn2 O28 2.216951 1_555
Mn2 O22 2.216951 1_555
Mn2 O23 2.216951 1_555
Mn2 O16 2.216951 1_555
Mn2 O11 2.216951 1_555
Mn2 O17 2.216951 1_555
Mn3 O19 2.216951 1_555
Mn3 O31 2.216951 1_554
Mn3 O30 2.216951 1_555
Mn3 O24 2.216951 1_555
Mn3 O25 2.216951 1_555
Mn3 O4 2.216951 1_655
O0 V0 2.051294 1_565
O0 V10 2.073651 1_455
O1 V9 2.051294 1_455
O1 V0 2.073651 1_555
O2 V1 2.113615 1_555
O2 V2 2.113615 1_556
O2 V11 2.113615 1_455
O3 V1 2.051294 1_555
O3 V0 2.073651 1_555
O4 V1 2.051294 1_554
O4 V2 2.073651 1_555
O5 V1 2.113615 1_555
O5 V0 2.113615 1_555
O5 V3 2.113615 1_555
O6 V5 2.051294 1_555
O6 V2 2.073651 1_555
O7 V2 2.051294 1_555
O7 V4 2.073651 1_555
O8 V3 2.051294 1_555
O8 V1 2.073651 1_555
O9 V0 2.051294 1_555
O9 V3 2.073651 1_555
O10 V5 2.113615 1_555
O10 V4 2.113615 1_555
O10 V2 2.113615 1_555
O11 V4 2.051294 1_555
O11 V3 2.073651 1_555
O12 V4 2.051294 1_555
O12 V5 2.073651 1_555
O13 V4 2.113615 1_555
O13 V3 2.113615 1_555
O13 V6 2.113615 1_555
O14 V8 2.051294 1_555
O14 V5 2.073651 1_556
O15 V5 2.051294 1_545
O15 V7 2.073651 1_555
O16 V6 2.051294 1_555
O16 V4 2.073651 1_555
O17 V3 2.051294 1_555
O17 V6 2.073651 1_555
O18 V8 2.113615 1_554
O18 V5 2.113615 1_555
O18 V7 2.113615 1_565
O19 V7 2.051294 1_555
O19 V6 2.073651 1_555
O20 V7 2.051294 1_556
O20 V8 2.073651 1_545
O21 V9 2.113615 1_555
O21 V7 2.113615 1_555
O21 V6 2.113615 1_555
O22 V11 2.051294 1_555
O22 V8 2.073651 1_555
O23 V8 2.051294 1_555
O23 V10 2.073651 1_555
O24 V9 2.051294 1_555
O24 V7 2.073651 1_555
O25 V6 2.051294 1_555
O25 V9 2.073651 1_555
O26 V10 2.113615 1_555
O26 V11 2.113615 1_555
O26 V8 2.113615 1_555
O27 V10 2.051294 1_555
O27 V9 2.073651 1_565
O28 V10 2.051294 1_555
O28 V11 2.073651 1_555
O29 V10 2.113615 1_545
O29 V9 2.113615 1_555
O29 V0 2.113615 1_655
O30 V2 2.051294 1_655
O30 V11 2.073651 1_554
O31 V11 2.051294 1_555
O31 V1 2.073651 1_655
