# generated using pymatgen
data_Li2AlCr2SbO8
_symmetry_space_group_name_H-M   'P 1'
_cell_length_a   5.87838500
_cell_length_b   5.89089109
_cell_length_c   28.78574123
_cell_angle_alpha   90.14192443
_cell_angle_beta   89.95178600
_cell_angle_gamma   119.83236938
_symmetry_Int_Tables_number   1
_chemical_formula_structural   Li2AlCr2SbO8
_chemical_formula_sum   'Li12 Al6 Cr12 Sb6 O48'
_cell_volume   864.72259830
_cell_formula_units_Z   6
loop_
 _symmetry_equiv_pos_site_id
 _symmetry_equiv_pos_as_xyz
  1  'x, y, z'
loop_
 _atom_site_type_symbol
 _atom_site_label
 _atom_site_symmetry_multiplicity
 _atom_site_fract_x
 _atom_site_fract_y
 _atom_site_fract_z
 _atom_site_occupancy
  Li  Li0  1  0.66707000  0.33354000  0.36591000  1
  Li  Li1  1  0.66678800  0.33257100  0.69900000  1
  Li  Li2  1  0.66653200  0.33257700  0.03323700  1
  Li  Li3  1  0.00010200  0.00039500  0.00553100  1
  Li  Li4  1  0.00266700  0.99779000  0.83611800  1
  Li  Li5  1  0.99959600  0.00059500  0.67061100  1
  Li  Li6  1  0.99743500  0.99510100  0.50203900  1
  Li  Li7  1  0.00024700  0.00078200  0.33805300  1
  Li  Li8  1  0.00014000  0.00056900  0.16854100  1
  Li  Li9  1  0.33233000  0.66820000  0.86488800  1
  Li  Li10  1  0.33365300  0.66767000  0.19718700  1
  Li  Li11  1  0.33381400  0.66865800  0.53083800  1
  Al  Al0  1  0.17087000  0.34145400  0.09516600  1
  Al  Al1  1  0.65882000  0.83007800  0.42831900  1
  Al  Al2  1  0.65858300  0.82897200  0.09519800  1
  Al  Al3  1  0.17057100  0.82912200  0.76178100  1
  Al  Al4  1  0.17145000  0.83021000  0.42832800  1
  Al  Al5  1  0.17055400  0.82909900  0.09521500  1
  Cr  Cr0  1  0.83034500  0.16948000  0.92932900  1
  Cr  Cr1  1  0.83000200  0.16995800  0.59512100  1
  Cr  Cr2  1  0.83123000  0.17088000  0.26171600  1
  Cr  Cr3  1  0.33899600  0.16964600  0.92925700  1
  Cr  Cr4  1  0.33863900  0.17024800  0.59506000  1
  Cr  Cr5  1  0.33978100  0.17086300  0.26174400  1
  Cr  Cr6  1  0.83020700  0.66090000  0.92928500  1
  Cr  Cr7  1  0.82941400  0.66079400  0.59492100  1
  Cr  Cr8  1  0.83090500  0.66163900  0.26166100  1
  Cr  Cr9  1  0.16965100  0.33974900  0.76212400  1
  Cr  Cr10  1  0.17042000  0.34060900  0.42876800  1
  Cr  Cr11  1  0.66030700  0.83024300  0.76220200  1
  Sb  Sb0  1  0.66732000  0.33308300  0.83745200  1
  Sb  Sb1  1  0.66539500  0.33118100  0.50317300  1
  Sb  Sb2  1  0.66679700  0.33388000  0.16950300  1
  Sb  Sb3  1  0.33158900  0.66836600  0.67122900  1
  Sb  Sb4  1  0.33547700  0.67074100  0.33824000  1
  Sb  Sb5  1  0.33328200  0.66649600  0.00580300  1
  O  O0  1  0.82711300  0.15440400  0.46672400  1
  O  O1  1  0.83698000  0.16344400  0.80195700  1
  O  O2  1  0.83560000  0.16506300  0.13236800  1
  O  O3  1  0.51787300  0.03504200  0.88573500  1
  O  O4  1  0.51817300  0.03576800  0.21796100  1
  O  O5  1  0.51709400  0.03475100  0.55176000  1
  O  O6  1  0.66737400  0.33513800  0.29732900  1
  O  O7  1  0.66653200  0.33422500  0.96485200  1
  O  O8  1  0.66638300  0.33475100  0.63067900  1
  O  O9  1  0.99925200  0.99952100  0.56339400  1
  O  O10  1  0.00975000  0.99004900  0.73269400  1
  O  O11  1  0.99121700  0.98227600  0.40089000  1
  O  O12  1  0.32721000  0.15447800  0.46677500  1
  O  O13  1  0.00053800  0.00028900  0.23001100  1
  O  O14  1  0.99996900  0.99967500  0.06882100  1
  O  O15  1  0.99978600  0.99906500  0.89758000  1
  O  O16  1  0.32931800  0.16516900  0.13241900  1
  O  O17  1  0.33207700  0.15778200  0.80039900  1
  O  O18  1  0.96538300  0.48190300  0.88587000  1
  O  O19  1  0.96499300  0.48150400  0.55135400  1
  O  O20  1  0.96581200  0.48276800  0.21799600  1
  O  O21  1  0.51646500  0.48264000  0.88541400  1
  O  O22  1  0.51558200  0.48182400  0.55135500  1
  O  O23  1  0.51712500  0.48318200  0.21808500  1
  O  O24  1  0.16447900  0.32922000  0.96967800  1
  O  O25  1  0.16402700  0.33032600  0.63536200  1
  O  O26  1  0.16542500  0.33107500  0.30243000  1
  O  O27  1  0.83255400  0.66538700  0.46597200  1
  O  O28  1  0.83535400  0.67105600  0.13249600  1
  O  O29  1  0.84236400  0.66798900  0.80048200  1
  O  O30  1  0.48210500  0.51815400  0.71896800  1
  O  O31  1  0.48810300  0.52565600  0.38655700  1
  O  O32  1  0.48128700  0.51875500  0.05427300  1
  O  O33  1  0.03554500  0.52332100  0.71965900  1
  O  O34  1  0.03793800  0.52584100  0.38657500  1
  O  O35  1  0.32431700  0.67561900  0.79637800  1
  O  O36  1  0.34174200  0.68352600  0.46190300  1
  O  O37  1  0.33340100  0.66693000  0.12805900  1
  O  O38  1  0.66949100  0.83589000  0.63524500  1
  O  O39  1  0.67052300  0.83563300  0.96963100  1
  O  O40  1  0.67164900  0.83716600  0.30192500  1
  O  O41  1  0.03781700  0.51894500  0.05429300  1
  O  O42  1  0.47672600  0.96414100  0.71969600  1
  O  O43  1  0.48219900  0.96447000  0.38692400  1
  O  O44  1  0.48080100  0.96162800  0.05434700  1
  O  O45  1  0.16494600  0.83552000  0.96955800  1
  O  O46  1  0.16549100  0.83695400  0.30189400  1
  O  O47  1  0.16403300  0.83595000  0.63488300  1
loop_
_geom_bond_atom_site_label_1
_geom_bond_atom_site_label_2
_geom_bond_distance
_geom_bond_site_symmetry_2
Li0 O6 1.974196 1_555
Li0 O31 1.980163 1_555
Li0 O43 1.982045 1_545
Li0 O34 1.982851 1_655
Li1 O8 1.966756 1_555
Li1 O30 1.969995 1_555
Li1 O33 1.972468 1_655
Li1 O42 1.976473 1_545
Li2 O7 1.968561 1_554
Li2 O32 1.984737 1_555
Li2 O41 1.987753 1_655
Li2 O44 1.992037 1_545
Li3 O14 1.821864 1_445
Li3 O45 1.970874 1_544
Li3 O39 1.972559 1_444
Li3 O24 1.974094 1_554
Li4 O15 1.769329 1_455
Li4 O1 1.954450 1_465
Li4 O17 1.969972 1_565
Li4 O29 1.971062 1_455
Li5 O10 1.790415 1_645
Li5 O47 1.964425 1_645
Li5 O38 1.966847 1_545
Li5 O25 1.968991 1_655
Li6 O9 1.766240 1_555
Li6 O0 1.964120 1_565
Li6 O12 1.964805 1_665
Li6 O27 1.977010 1_555
Li7 O11 1.811506 1_445
Li7 O46 1.970884 1_545
Li7 O40 1.971747 1_445
Li7 O26 1.977038 1_555
Li8 O13 1.769469 1_555
Li8 O2 1.974326 1_455
Li8 O16 1.974989 1_555
Li8 O28 1.975805 1_445
Li9 O18 1.966702 1_455
Li9 O3 1.967073 1_565
Li9 O35 1.973824 1_555
Li9 O21 1.974111 1_555
Li10 O23 1.968942 1_555
Li10 O20 1.969406 1_455
Li10 O4 1.972497 1_565
Li10 O37 1.989895 1_555
Li11 O5 1.964024 1_565
Li11 O22 1.968806 1_555
Li11 O19 1.971727 1_455
Li11 O36 1.985979 1_555
Al0 O14 1.902465 1_445
Al0 O37 1.911938 1_555
Al0 O41 1.977511 1_555
Al0 O32 1.978010 1_555
Al0 O16 2.016300 1_555
Al0 O2 2.018713 1_455
Al1 O11 1.871666 1_555
Al1 O36 1.885251 1_555
Al1 O31 1.966991 1_555
Al1 O43 1.987249 1_555
Al1 O0 1.990475 1_565
Al1 O27 2.037617 1_555
Al2 O14 1.899578 1_555
Al2 O37 1.909442 1_555
Al2 O44 1.976062 1_555
Al2 O32 1.977392 1_555
Al2 O28 2.016555 1_555
Al2 O2 2.022165 1_565
Al3 O10 1.841309 1_555
Al3 O35 1.856186 1_555
Al3 O33 1.978276 1_555
Al3 O42 1.978905 1_555
Al3 O29 2.010958 1_455
Al3 O17 2.011941 1_565
Al4 O11 1.870285 1_455
Al4 O36 1.883937 1_555
Al4 O34 1.966268 1_555
Al4 O43 1.986567 1_555
Al4 O12 1.990786 1_565
Al4 O27 2.040285 1_455
Al5 O14 1.897387 1_455
Al5 O37 1.907547 1_555
Al5 O44 1.975821 1_555
Al5 O41 1.976654 1_555
Al5 O28 2.019225 1_455
Al5 O16 2.022434 1_565
Cr0 O15 1.955485 1_545
Cr0 O7 1.959080 1_555
Cr0 O3 2.031631 1_555
Cr0 O18 2.034347 1_555
Cr0 O24 2.062033 1_655
Cr0 O39 2.065780 1_545
Cr1 O9 1.954431 1_545
Cr1 O8 1.958973 1_555
Cr1 O5 2.029046 1_555
Cr1 O19 2.036179 1_555
Cr1 O25 2.059753 1_655
Cr1 O38 2.063770 1_545
Cr2 O13 1.955092 1_655
Cr2 O6 1.958499 1_555
Cr2 O4 2.036695 1_555
Cr2 O20 2.036913 1_555
Cr2 O40 2.063730 1_545
Cr2 O26 2.068176 1_655
Cr3 O15 1.955059 1_445
Cr3 O7 1.959107 1_555
Cr3 O3 2.031347 1_555
Cr3 O21 2.043600 1_555
Cr3 O24 2.059605 1_555
Cr3 O45 2.067007 1_545
Cr4 O9 1.955712 1_445
Cr4 O8 1.960367 1_555
Cr4 O5 2.029065 1_555
Cr4 O22 2.035524 1_555
Cr4 O47 2.060079 1_545
Cr4 O25 2.060172 1_555
Cr5 O13 1.955959 1_555
Cr5 O6 1.959196 1_555
Cr5 O4 2.035823 1_555
Cr5 O23 2.037693 1_555
Cr5 O46 2.063688 1_545
Cr5 O26 2.065866 1_555
Cr6 O15 1.956223 1_555
Cr6 O7 1.960411 1_555
Cr6 O18 2.032376 1_555
Cr6 O21 2.041919 1_555
Cr6 O39 2.059864 1_555
Cr6 O45 2.063519 1_655
Cr7 O9 1.956370 1_555
Cr7 O8 1.960547 1_555
Cr7 O22 2.037118 1_555
Cr7 O19 2.037825 1_555
Cr7 O47 2.058082 1_655
Cr7 O38 2.062049 1_555
Cr8 O13 1.957672 1_665
Cr8 O6 1.961179 1_555
Cr8 O20 2.035247 1_555
Cr8 O23 2.036901 1_555
Cr8 O40 2.060163 1_555
Cr8 O46 2.062335 1_655
Cr9 O10 1.977663 1_545
Cr9 O35 1.978812 1_555
Cr9 O30 2.025691 1_555
Cr9 O33 2.035059 1_555
Cr9 O1 2.049159 1_455
Cr9 O17 2.073778 1_555
Cr10 O36 1.993170 1_555
Cr10 O11 1.997555 1_445
Cr10 O34 2.031246 1_555
Cr10 O31 2.032114 1_555
Cr10 O12 2.064417 1_555
Cr10 O0 2.066264 1_455
Cr11 O10 1.975943 1_655
Cr11 O35 1.977296 1_555
Cr11 O30 2.025077 1_555
Cr11 O42 2.034153 1_555
Cr11 O1 2.050283 1_565
Cr11 O29 2.073182 1_555
O0 Sb1 2.016651 1_555
O1 Sb0 2.005520 1_555
O2 Sb2 2.022638 1_555
O3 Sb0 2.064342 1_555
O4 Sb2 2.068010 1_555
O5 Sb1 2.064194 1_555
O12 Sb1 2.018074 1_555
O16 Sb2 2.024732 1_555
O17 Sb0 2.015188 1_555
O18 Sb0 2.061759 1_555
O19 Sb1 2.062951 1_555
O20 Sb2 2.066795 1_555
O21 Sb0 2.058624 1_555
O22 Sb1 2.063036 1_555
O23 Sb2 2.065215 1_555
O24 Sb5 2.010861 1_556
O25 Sb3 2.010394 1_555
O26 Sb4 2.016693 1_555
O27 Sb1 2.017987 1_555
O28 Sb2 2.027916 1_555
O29 Sb0 2.018028 1_555
O30 Sb3 2.059452 1_555
O31 Sb4 2.059317 1_555
O32 Sb5 2.054886 1_555
O33 Sb3 2.055355 1_555
O34 Sb4 2.059140 1_555
O38 Sb3 2.010874 1_555
O39 Sb5 2.010824 1_556
O40 Sb4 2.008264 1_555
O41 Sb5 2.054363 1_555
O42 Sb3 2.054557 1_555
O43 Sb4 2.051110 1_555
O44 Sb5 2.053615 1_555
O45 Sb5 2.011555 1_556
O46 Sb4 2.008012 1_555
O47 Sb3 2.003414 1_555
