# generated using pymatgen
data_Ti2Sb2O7
_symmetry_space_group_name_H-M   'P 1'
_cell_length_a   5.67750200
_cell_length_b   7.76441000
_cell_length_c   13.26402275
_cell_angle_alpha   82.25279356
_cell_angle_beta   90.00000000
_cell_angle_gamma   90.00000000
_symmetry_Int_Tables_number   1
_chemical_formula_structural   Ti2Sb2O7
_chemical_formula_sum   'Ti8 Sb8 O28'
_cell_volume   579.37370006
_cell_formula_units_Z   4
loop_
 _symmetry_equiv_pos_site_id
 _symmetry_equiv_pos_as_xyz
  1  'x, y, z'
loop_
 _atom_site_type_symbol
 _atom_site_label
 _atom_site_symmetry_multiplicity
 _atom_site_fract_x
 _atom_site_fract_y
 _atom_site_fract_z
 _atom_site_occupancy
  Ti  Ti0  1  0.24169000  0.93581700  0.31351500  1
  Ti  Ti1  1  0.75488000  0.97162100  0.12262800  1
  Ti  Ti2  1  0.74534900  0.59715400  0.66344200  1
  Ti  Ti3  1  0.26545700  0.53404200  0.88585900  1
  Ti  Ti4  1  0.76545700  0.46595800  0.11414100  1
  Ti  Ti5  1  0.24534900  0.40284600  0.33655800  1
  Ti  Ti6  1  0.25488000  0.02837900  0.87737200  1
  Ti  Ti7  1  0.74169000  0.06418300  0.68648500  1
  Sb  Sb0  1  0.72109200  0.80014000  0.92559900  1
  Sb  Sb1  1  0.24463500  0.86545100  0.56504000  1
  Sb  Sb2  1  0.24850200  0.66591300  0.13514300  1
  Sb  Sb3  1  0.66599600  0.65275500  0.39680400  1
  Sb  Sb4  1  0.16599600  0.34724500  0.60319600  1
  Sb  Sb5  1  0.74850200  0.33408700  0.86485700  1
  Sb  Sb6  1  0.74463500  0.13454900  0.43496000  1
  Sb  Sb7  1  0.22109200  0.19986000  0.07440100  1
  O  O0  1  0.50369500  0.96956800  0.20136200  1
  O  O1  1  0.52666400  0.91725700  0.41385300  1
  O  O2  1  0.71322500  0.82294000  0.69289000  1
  O  O3  1  0.36001600  0.77538400  0.89214600  1
  O  O4  1  0.06040100  0.88006700  0.43464000  1
  O  O5  1  0.10151000  0.98570000  0.01300900  1
  O  O6  1  0.00666900  0.90156500  0.21931500  1
  O  O7  1  0.04513400  0.62446400  0.60476700  1
  O  O8  1  0.99023500  0.54453400  0.81789300  1
  O  O9  1  0.34217800  0.66629700  0.32275300  1
  O  O10  1  0.75306700  0.72664500  0.08406500  1
  O  O11  1  0.56295500  0.60698900  0.54653100  1
  O  O12  1  0.62863300  0.48556100  0.97642300  1
  O  O13  1  0.51635800  0.49905100  0.78079400  1
  O  O14  1  0.01635800  0.50094900  0.21920600  1
  O  O15  1  0.12863300  0.51443900  0.02357700  1
  O  O16  1  0.06295500  0.39301100  0.45346900  1
  O  O17  1  0.25306700  0.27335500  0.91593500  1
  O  O18  1  0.84217800  0.33370300  0.67724700  1
  O  O19  1  0.49023500  0.45546600  0.18210700  1
  O  O20  1  0.54513400  0.37553600  0.39523300  1
  O  O21  1  0.50666900  0.09843500  0.78068500  1
  O  O22  1  0.60151000  0.01430000  0.98699100  1
  O  O23  1  0.56040100  0.11993300  0.56536000  1
  O  O24  1  0.86001600  0.22461600  0.10785400  1
  O  O25  1  0.21322500  0.17706000  0.30711000  1
  O  O26  1  0.02666400  0.08274300  0.58614700  1
  O  O27  1  0.00369500  0.03043200  0.79863800  1
loop_
_geom_bond_atom_site_label_1
_geom_bond_atom_site_label_2
_geom_bond_distance
_geom_bond_site_symmetry_2
O0 Ti1 1.766398 1_555
O0 Ti0 2.095062 1_555
O1 Ti0 2.087594 1_555
O1 Sb6 2.140949 1_565
O1 Sb3 2.240494 1_555
O1 Sb1 2.555318 1_555
O2 Ti2 1.855745 1_555
O2 Ti7 1.870554 1_565
O3 Ti3 1.961816 1_555
O3 Ti6 2.037061 1_565
O3 Sb0 2.111722 1_555
O4 Ti0 1.907996 1_555
O4 Sb1 2.011384 1_555
O4 Sb6 2.668420 1_465
O5 Ti6 1.985959 1_564
O5 Sb7 2.062543 1_565
O5 Ti1 2.440528 1_455
O6 Ti0 1.871346 1_555
O6 Ti1 1.948349 1_455
O6 Sb2 2.651447 1_555
O7 Ti2 1.871651 1_455
O7 Sb1 2.189949 1_555
O7 Sb4 2.261945 1_555
O8 Ti3 1.800328 1_655
O8 Sb5 2.160360 1_555
O8 Ti2 2.463989 1_555
O9 Sb3 2.080374 1_555
O9 Ti5 2.102144 1_555
O9 Ti0 2.156529 1_555
O9 Sb2 2.545058 1_555
O10 Ti4 2.010796 1_555
O10 Ti1 2.035192 1_555
O10 Sb0 2.110258 1_554
O11 Ti2 1.857675 1_555
O11 Sb3 2.054842 1_555
O11 Sb1 2.736159 1_555
O12 Ti4 1.971920 1_556
O12 Sb5 2.122606 1_555
O12 Ti3 2.390468 1_555
O12 Sb0 2.500398 1_555
O13 Ti3 2.036453 1_555
O13 Sb5 2.058132 1_555
O13 Ti2 2.091334 1_555
O14 Ti4 2.036453 1_455
O14 Sb2 2.058132 1_555
O14 Ti5 2.091334 1_555
O15 Ti3 1.971920 1_554
O15 Sb2 2.122606 1_555
O15 Ti4 2.390468 1_455
O15 Sb7 2.500398 1_555
O16 Ti5 1.857675 1_555
O16 Sb4 2.054842 1_555
O16 Sb6 2.736159 1_455
O17 Ti3 2.010796 1_555
O17 Ti6 2.035192 1_555
O17 Sb7 2.110258 1_556
O18 Sb4 2.080374 1_655
O18 Ti2 2.102144 1_555
O18 Ti7 2.156529 1_555
O18 Sb5 2.545058 1_555
O19 Ti4 1.800328 1_555
O19 Sb2 2.160360 1_555
O19 Ti5 2.463989 1_555
O20 Ti5 1.871651 1_555
O20 Sb6 2.189949 1_555
O20 Sb3 2.261945 1_555
O21 Ti7 1.871346 1_555
O21 Ti6 1.948349 1_555
O21 Sb5 2.651447 1_555
O22 Ti1 1.985959 1_546
O22 Sb0 2.062543 1_545
O22 Ti6 2.440528 1_555
O23 Ti7 1.907996 1_555
O23 Sb6 2.011384 1_555
O23 Sb1 2.668420 1_545
O24 Ti4 1.961816 1_555
O24 Ti1 2.037061 1_545
O24 Sb7 2.111722 1_655
O25 Ti5 1.855745 1_555
O25 Ti0 1.870554 1_545
O26 Ti7 2.087594 1_455
O26 Sb1 2.140949 1_545
O26 Sb4 2.240494 1_555
O26 Sb6 2.555318 1_455
O27 Ti6 1.766398 1_555
O27 Ti7 2.095062 1_455
