# generated using pymatgen
data_Fe3(O2F)2
_symmetry_space_group_name_H-M   'P 1'
_cell_length_a   4.77240200
_cell_length_b   5.66201783
_cell_length_c   7.65431903
_cell_angle_alpha   84.06676394
_cell_angle_beta   86.99748224
_cell_angle_gamma   84.80768467
_symmetry_Int_Tables_number   1
_chemical_formula_structural   Fe3(O2F)2
_chemical_formula_sum   'Fe6 O8 F4'
_cell_volume   204.68509633
_cell_formula_units_Z   2
loop_
 _symmetry_equiv_pos_site_id
 _symmetry_equiv_pos_as_xyz
  1  'x, y, z'
loop_
 _atom_site_type_symbol
 _atom_site_label
 _atom_site_symmetry_multiplicity
 _atom_site_fract_x
 _atom_site_fract_y
 _atom_site_fract_z
 _atom_site_occupancy
  Fe  Fe0  1  0.50000000  0.50000000  0.50000000  1
  Fe  Fe1  1  0.45952400  0.14262100  0.82173400  1
  Fe  Fe2  1  0.54047600  0.85737900  0.17826600  1
  Fe  Fe3  1  0.00000000  0.00000000  0.50000000  1
  Fe  Fe4  1  0.98813300  0.31969500  0.16570400  1
  Fe  Fe5  1  0.01186700  0.68030500  0.83429600  1
  O  O0  1  0.82073600  0.04209700  0.27819300  1
  O  O1  1  0.69562500  0.87391200  0.93595600  1
  O  O2  1  0.69007600  0.20057100  0.60041500  1
  O  O3  1  0.69661700  0.53967800  0.27145500  1
  O  O4  1  0.30992400  0.79942900  0.39958500  1
  O  O5  1  0.30437500  0.12608800  0.06404400  1
  O  O6  1  0.30338300  0.46032200  0.72854500  1
  O  O7  1  0.17926400  0.95790300  0.72180700  1
  F  F0  1  0.80265200  0.69957500  0.60264400  1
  F  F1  1  0.81259200  0.38334200  0.93305400  1
  F  F2  1  0.18740800  0.61665800  0.06694600  1
  F  F3  1  0.19734800  0.30042500  0.39735600  1
loop_
_geom_bond_atom_site_label_1
_geom_bond_atom_site_label_2
_geom_bond_distance
_geom_bond_site_symmetry_2
Fe0 O3 1.943228 1_555
Fe0 O6 1.943228 1_555
Fe0 O2 1.952741 1_555
Fe0 O4 1.952741 1_555
Fe1 O5 1.956980 1_556
Fe1 O6 1.961544 1_555
Fe1 O1 1.966386 1_545
Fe1 O2 1.985761 1_555
Fe1 O7 1.998394 1_545
Fe2 O1 1.956980 1_554
Fe2 O3 1.961544 1_555
Fe2 O5 1.966386 1_565
Fe2 O4 1.985761 1_555
Fe2 O0 1.998394 1_565
Fe3 O7 1.924261 1_545
Fe3 O0 1.924261 1_455
Fe3 O2 1.955876 1_455
Fe3 O4 1.955876 1_545
Fe4 O0 1.930144 1_555
Fe4 O5 1.959292 1_655
Fe4 O3 1.979633 1_555
Fe5 O7 1.930144 1_555
Fe5 O1 1.959292 1_455
Fe5 O6 1.979633 1_555
F0 Fe5 2.068477 1_655
F0 Fe3 2.081804 1_665
F0 Fe0 2.139681 1_555
F1 Fe4 1.992946 1_556
F1 Fe5 2.062607 1_655
F1 Fe1 2.495809 1_555
F2 Fe5 1.992946 1_554
F2 Fe4 2.062607 1_455
F2 Fe2 2.495809 1_555
F3 Fe4 2.068477 1_455
F3 Fe3 2.081804 1_555
F3 Fe0 2.139681 1_555
