# generated using pymatgen
data_Mn3OF5
_symmetry_space_group_name_H-M   'P 1'
_cell_length_a   5.87084470
_cell_length_b   5.87084470
_cell_length_c   7.57960039
_cell_angle_alpha   73.36360693
_cell_angle_beta   73.36360693
_cell_angle_gamma   73.66350039
_symmetry_Int_Tables_number   1
_chemical_formula_structural   Mn3OF5
_chemical_formula_sum   'Mn6 O2 F10'
_cell_volume   234.11098967
_cell_formula_units_Z   2
loop_
 _symmetry_equiv_pos_site_id
 _symmetry_equiv_pos_as_xyz
  1  'x, y, z'
loop_
 _atom_site_type_symbol
 _atom_site_label
 _atom_site_symmetry_multiplicity
 _atom_site_fract_x
 _atom_site_fract_y
 _atom_site_fract_z
 _atom_site_occupancy
  Mn  Mn0  1  0.67879800  0.67879800  0.84817400  1
  Mn  Mn1  1  0.33281700  0.33281700  0.68259600  1
  Mn  Mn2  1  0.66718300  0.66718300  0.31740400  1
  Mn  Mn3  1  0.32120200  0.32120200  0.15182600  1
  Mn  Mn4  1  0.00000000  0.00000000  0.50000000  1
  Mn  Mn5  1  0.00000000  0.00000000  0.00000000  1
  O  O0  1  0.21400000  0.21400000  0.96421800  1
  O  O1  1  0.78600000  0.78600000  0.03578200  1
  F  F0  1  0.63370600  0.03331700  0.66376600  1
  F  F1  1  0.96668300  0.36629400  0.33623400  1
  F  F2  1  0.90722900  0.90722900  0.29084000  1
  F  F3  1  0.57510100  0.57510100  0.62543700  1
  F  F4  1  0.09277100  0.09277100  0.70916000  1
  F  F5  1  0.42489900  0.42489900  0.37456300  1
  F  F6  1  0.36629400  0.96668300  0.33623400  1
  F  F7  1  0.03331700  0.63370600  0.66376600  1
  F  F8  1  0.69356400  0.30643600  0.00000000  1
  F  F9  1  0.30643600  0.69356400  0.00000000  1
loop_
_geom_bond_atom_site_label_1
_geom_bond_atom_site_label_2
_geom_bond_distance
_geom_bond_site_symmetry_2
Mn0 O1 2.015438 1_556
Mn1 O0 2.024393 1_555
Mn2 O1 2.024393 1_555
Mn3 O0 2.015438 1_554
Mn5 O1 1.930852 1_445
Mn5 O0 1.930852 1_554
F0 Mn1 2.117664 1_555
F0 Mn4 2.139499 1_655
F0 Mn0 2.142854 1_545
F1 Mn2 2.117664 1_555
F1 Mn4 2.139499 1_655
F1 Mn3 2.142854 1_655
F2 Mn5 2.060290 1_665
F2 Mn4 2.064533 1_665
F2 Mn2 2.192021 1_555
F3 Mn1 2.160251 1_555
F3 Mn2 2.180507 1_555
F3 Mn0 2.230913 1_555
F4 Mn5 2.060290 1_556
F4 Mn4 2.064533 1_555
F4 Mn1 2.192021 1_555
F5 Mn2 2.160251 1_555
F5 Mn1 2.180507 1_555
F5 Mn3 2.230913 1_555
F6 Mn2 2.117664 1_555
F6 Mn4 2.139499 1_565
F6 Mn3 2.142854 1_565
F7 Mn1 2.117664 1_555
F7 Mn4 2.139499 1_565
F7 Mn0 2.142854 1_455
F8 Mn3 2.149603 1_555
F8 Mn0 2.149603 1_554
F8 Mn5 2.156929 1_655
F9 Mn3 2.149603 1_555
F9 Mn0 2.149603 1_554
F9 Mn5 2.156929 1_565
