# generated using pymatgen
data_Ca6Al7O16
_symmetry_space_group_name_H-M   'P 1'
_cell_length_a   10.39584428
_cell_length_b   10.39587524
_cell_length_c   10.39591876
_cell_angle_alpha   109.47190545
_cell_angle_beta   109.47144534
_cell_angle_gamma   109.47073017
_symmetry_Int_Tables_number   1
_chemical_formula_structural   Ca6Al7O16
_chemical_formula_sum   'Ca12 Al14 O32'
_cell_volume   864.88738893
_cell_formula_units_Z   2
loop_
 _symmetry_equiv_pos_site_id
 _symmetry_equiv_pos_as_xyz
  1  'x, y, z'
loop_
 _atom_site_type_symbol
 _atom_site_label
 _atom_site_symmetry_multiplicity
 _atom_site_fract_x
 _atom_site_fract_y
 _atom_site_fract_z
 _atom_site_occupancy
  Ca  Ca0  1  0.63868546  0.24999250  0.88867979  1
  Ca  Ca1  1  0.86131728  0.75000350  0.61132363  1
  Ca  Ca2  1  0.38868768  0.75000049  0.13868702  1
  Ca  Ca3  1  0.11131546  0.25000055  0.36131936  1
  Ca  Ca4  1  0.88868270  0.63868779  0.24999773  1
  Ca  Ca5  1  0.61131749  0.86131829  0.74999708  1
  Ca  Ca6  1  0.13868570  0.38868182  0.74999638  1
  Ca  Ca7  1  0.36131855  0.11131854  0.24999807  1
  Ca  Ca8  1  0.24999936  0.88868062  0.63868361  1
  Ca  Ca9  1  0.74999868  0.61131819  0.86132102  1
  Ca  Ca10  1  0.74999187  0.13868749  0.38868341  1
  Ca  Ca11  1  0.25000268  0.36131373  0.11131913  1
  Al  Al0  1  0.37500709  0.25000612  0.62500866  1
  Al  Al1  1  0.12498800  0.74996536  0.87499930  1
  Al  Al2  1  0.62501983  0.37502620  0.24999700  1
  Al  Al3  1  0.87502617  0.12502238  0.74999654  1
  Al  Al4  1  0.24996985  0.62496992  0.37497307  1
  Al  Al5  1  0.75001580  0.87503457  0.12501929  1
  Al  Al6  1  0.49999241  0.00000973  0.03426230  1
  Al  Al7  1  0.03426848  0.49999563  0.00000343  1
  Al  Al8  1  0.00001051  0.03427315  0.50000306  1
  Al  Al9  1  0.46573800  0.46572718  0.46573389  1
  Al  Al10  1  0.53427031  0.50001469  0.00000254  1
  Al  Al11  1  0.49999932  -0.00001338  0.53425579  1
  Al  Al12  1  0.00000067  0.53426526  0.50000667  1
  Al  Al13  1  0.96573928  0.96574182  0.96574038  1
  O  O0  1  0.49999856  -0.00000350  0.86802184  1
  O  O1  1  0.86801735  0.49999871  0.00000062  1
  O  O2  1  -0.00000573  0.86801530  0.50000033  1
  O  O3  1  0.63197397  0.63197183  0.63197849  1
  O  O4  1  0.36801715  0.49999353  -0.00000101  1
  O  O5  1  0.49999193  -0.00000174  0.36802303  1
  O  O6  1  0.99999646  0.36802062  0.49999976  1
  O  O7  1  0.13196807  0.13197562  0.13197986  1
  O  O8  1  0.40920314  0.09454120  0.61451666  1
  O  O9  1  0.51997427  0.40545202  0.81465714  1
  O  O10  1  0.09079831  0.70531090  0.68535617  1
  O  O11  1  0.98002910  0.79468329  0.88548755  1
  O  O12  1  0.11451753  0.59453128  0.90920065  1
  O  O13  1  0.31464187  0.90543739  0.01996212  1
  O  O14  1  0.18535619  0.20531564  0.59080274  1
  O  O15  1  0.38548096  0.29468224  0.48003399  1
  O  O16  1  0.61451719  0.40919770  0.09453645  1
  O  O17  1  0.81465646  0.51998004  0.40545262  1
  O  O18  1  0.68534847  0.09079641  0.70530680  1
  O  O19  1  0.88548880  0.98003981  0.79469152  1
  O  O20  1  0.90919884  0.11452010  0.59454110  1
  O  O21  1  0.01997428  0.31465030  0.90544920  1
  O  O22  1  0.59079904  0.18535703  0.20531132  1
  O  O23  1  0.48003970  0.38548678  0.29468794  1
  O  O24  1  0.09453570  0.61451128  0.40919832  1
  O  O25  1  0.40543493  0.81463746  0.51995253  1
  O  O26  1  0.70531494  0.68536821  0.09080421  1
  O  O27  1  0.79468983  0.88548657  0.98003266  1
  O  O28  1  0.59454094  0.90920510  0.11451811  1
  O  O29  1  0.90545481  0.01998086  0.31466084  1
  O  O30  1  0.20531620  0.59079738  0.18534862  1
  O  O31  1  0.29468111  0.48002054  0.38548066  1
loop_
_geom_bond_atom_site_label_1
_geom_bond_atom_site_label_2
_geom_bond_distance
_geom_bond_site_symmetry_2
Ca0 O16 2.378358 1_556
Ca0 O18 2.378392 1_555
Ca0 O1 2.408884 1_556
Ca0 O0 2.408887 1_555
Ca0 O8 2.500492 1_555
Ca0 O9 2.500546 1_555
Ca1 O17 2.378375 1_555
Ca1 O19 2.378394 1_555
Ca1 O2 2.408876 1_655
Ca1 O3 2.408918 1_555
Ca1 O11 2.500519 1_555
Ca1 O10 2.500558 1_655
Ca2 O28 2.378357 1_555
Ca2 O30 2.378433 1_555
Ca2 O5 2.408872 1_565
Ca2 O4 2.408902 1_555
Ca2 O13 2.500513 1_555
Ca2 O12 2.500542 1_554
Ca3 O29 2.378330 1_455
Ca3 O31 2.378343 1_555
Ca3 O7 2.408844 1_555
Ca3 O6 2.408873 1_455
Ca3 O15 2.500516 1_555
Ca3 O14 2.500557 1_555
Ca4 O24 2.378370 1_655
Ca4 O26 2.378479 1_555
Ca4 O2 2.408845 1_655
Ca4 O1 2.408849 1_555
Ca4 O17 2.500516 1_555
Ca4 O16 2.500537 1_555
Ca5 O27 2.378439 1_555
Ca5 O25 2.378495 1_555
Ca5 O0 2.408879 1_565
Ca5 O3 2.408907 1_555
Ca5 O19 2.500537 1_555
Ca5 O18 2.500538 1_565
Ca6 O12 2.378297 1_555
Ca6 O14 2.378386 1_555
Ca6 O4 2.408870 1_556
Ca6 O6 2.408874 1_455
Ca6 O20 2.500505 1_455
Ca6 O21 2.500535 1_555
Ca7 O15 2.378423 1_555
Ca7 O13 2.378440 1_545
Ca7 O5 2.408873 1_555
Ca7 O7 2.408950 1_555
Ca7 O23 2.500529 1_555
Ca7 O22 2.500534 1_555
Ca8 O8 2.378397 1_565
Ca8 O10 2.378493 1_555
Ca8 O0 2.408872 1_565
Ca8 O2 2.408904 1_555
Ca8 O25 2.500517 1_555
Ca8 O24 2.500532 1_555
Ca9 O9 2.378365 1_555
Ca9 O11 2.378388 1_555
Ca9 O1 2.408877 1_556
Ca9 O3 2.408887 1_555
Ca9 O27 2.500506 1_555
Ca9 O26 2.500544 1_556
Ca10 O20 2.378379 1_555
Ca10 O22 2.378428 1_555
Ca10 O6 2.408889 1_555
Ca10 O5 2.408910 1_555
Ca10 O28 2.500503 1_545
Ca10 O29 2.500540 1_555
Ca11 O21 2.378398 1_554
Ca11 O23 2.378403 1_555
Ca11 O4 2.408880 1_555
Ca11 O7 2.408921 1_555
Ca11 O31 2.500493 1_555
Ca11 O30 2.500542 1_555
Al0 O9 1.743910 1_555
Al0 O14 1.743916 1_555
Al0 O15 1.743967 1_555
Al0 O8 1.744049 1_555
Al1 O12 1.743816 1_555
Al1 O10 1.743954 1_555
Al1 O13 1.744005 1_556
Al1 O11 1.744059 1_455
Al2 O17 1.743847 1_555
Al2 O16 1.743863 1_555
Al2 O23 1.744054 1_555
Al2 O22 1.744070 1_555
Al3 O21 1.743780 1_655
Al3 O20 1.743814 1_555
Al3 O19 1.744114 1_545
Al3 O18 1.744132 1_555
Al4 O30 1.743814 1_555
Al4 O24 1.743964 1_555
Al4 O31 1.743983 1_555
Al4 O25 1.744093 1_555
Al5 O29 1.743814 1_565
Al5 O28 1.743988 1_555
Al5 O27 1.744014 1_554
Al5 O26 1.744032 1_555
Al6 O0 1.728198 1_554
Al6 O22 1.774796 1_555
Al6 O13 1.774885 1_545
Al6 O28 1.774902 1_545
Al7 O1 1.728322 1_455
Al7 O30 1.774790 1_555
Al7 O12 1.774790 1_554
Al7 O21 1.774824 1_554
Al8 O2 1.728330 1_545
Al8 O14 1.774777 1_555
Al8 O29 1.774819 1_455
Al8 O20 1.774854 1_455
Al9 O3 1.728217 1_555
Al9 O23 1.774795 1_555
Al9 O15 1.774817 1_555
Al9 O31 1.774862 1_555
Al10 O4 1.728256 1_555
Al10 O26 1.774831 1_555
Al10 O9 1.774836 1_554
Al10 O16 1.774886 1_555
Al11 O5 1.728157 1_555
Al11 O18 1.774815 1_555
Al11 O25 1.774848 1_545
Al11 O8 1.774878 1_555
Al12 O6 1.728220 1_455
Al12 O10 1.774809 1_555
Al12 O24 1.774821 1_555
Al12 O17 1.774859 1_455
Al13 O7 1.728137 1_666
Al13 O27 1.774803 1_555
Al13 O19 1.774824 1_555
Al13 O11 1.774853 1_555
