# generated using pymatgen
data_Li3Cr4(PO4)6
_symmetry_space_group_name_H-M   'P 1'
_cell_length_a   8.46594700
_cell_length_b   8.48913856
_cell_length_c   8.54932320
_cell_angle_alpha   60.65896281
_cell_angle_beta   60.50983377
_cell_angle_gamma   61.00534796
_symmetry_Int_Tables_number   1
_chemical_formula_structural   Li3Cr4(PO4)6
_chemical_formula_sum   'Li3 Cr4 P6 O24'
_cell_volume   441.55443832
_cell_formula_units_Z   1
loop_
 _symmetry_equiv_pos_site_id
 _symmetry_equiv_pos_as_xyz
  1  'x, y, z'
loop_
 _atom_site_type_symbol
 _atom_site_label
 _atom_site_symmetry_multiplicity
 _atom_site_fract_x
 _atom_site_fract_y
 _atom_site_fract_z
 _atom_site_occupancy
  Li  Li0  1  0.51154000  0.00144800  0.98546100  1
  Li  Li1  1  0.25071300  0.13758300  0.34756900  1
  Li  Li2  1  0.99262200  0.51000100  0.49808900  1
  Cr  Cr0  1  0.63973400  0.13852400  0.14422400  1
  Cr  Cr1  1  0.85970500  0.36403000  0.35288500  1
  Cr  Cr2  1  0.13590300  0.63487200  0.64864000  1
  Cr  Cr3  1  0.36345800  0.86008300  0.85607700  1
  P  P0  1  0.25193700  0.45716100  0.03460200  1
  P  P1  1  0.96040800  0.03807700  0.75153900  1
  P  P2  1  0.54321600  0.74599700  0.46610100  1
  P  P3  1  0.45120800  0.25127000  0.53708200  1
  P  P4  1  0.04489100  0.95765300  0.25065400  1
  P  P5  1  0.74766400  0.54500700  0.96372600  1
  O  O0  1  0.81226900  0.52307700  0.11429600  1
  O  O1  1  0.68562700  0.38118500  0.01373600  1
  O  O2  1  0.87537300  0.99598900  0.20390300  1
  O  O3  1  0.95168500  0.22595300  0.57773000  1
  O  O4  1  0.41002300  0.25814700  0.06242000  1
  O  O5  1  0.73846300  0.58755600  0.44119700  1
  O  O6  1  0.53819500  0.91633200  0.27695000  1
  O  O7  1  0.99232900  0.87195600  0.69978300  1
  O  O8  1  0.23897800  0.93264600  0.08212100  1
  O  O9  1  0.62134400  0.31039300  0.47916300  1
  O  O10  1  0.90871900  0.56000100  0.76449500  1
  O  O11  1  0.46355900  0.19154900  0.38692500  1
  O  O12  1  0.51896600  0.81186000  0.61899300  1
  O  O13  1  0.09466800  0.43786800  0.23582800  1
  O  O14  1  0.37630900  0.68198900  0.52134500  1
  O  O15  1  0.76702500  0.06135300  0.91411700  1
  O  O16  1  0.02958100  0.12008600  0.29656300  1
  O  O17  1  0.44191900  0.09118400  0.73336100  1
  O  O18  1  0.25724400  0.41610600  0.56171700  1
  O  O19  1  0.58809300  0.74145400  0.93885000  1
  O  O20  1  0.06556700  0.76421800  0.41384800  1
  O  O21  1  0.12862400  0.00576700  0.79884700  1
  O  O22  1  0.31719600  0.61997500  0.98349100  1
  O  O23  1  0.18522600  0.48084700  0.88552900  1
loop_
_geom_bond_atom_site_label_1
_geom_bond_atom_site_label_2
_geom_bond_distance
_geom_bond_site_symmetry_2
Li0 O19 2.161288 1_545
Li0 O15 2.184574 1_555
Li0 O17 2.186172 1_555
Li0 O4 2.225529 1_556
Li0 O8 2.303200 1_546
Li0 O6 2.326839 1_546
Li1 O4 2.113159 1_555
Li1 O13 2.178822 1_555
Li1 O16 2.203121 1_555
Li1 O6 2.246923 1_545
Li1 O11 2.262383 1_555
Li1 O3 2.354692 1_455
Li2 O5 2.154771 1_555
Li2 O20 2.210953 1_655
Li2 O10 2.221362 1_555
Li2 O18 2.234689 1_655
Li2 O13 2.252587 1_655
Li2 O3 2.316684 1_555
Cr0 O1 1.932882 1_555
Cr0 O2 1.939342 1_545
Cr0 O11 1.987472 1_555
Cr0 O15 1.987954 1_554
Cr0 O4 2.007686 1_555
Cr0 O6 2.024442 1_545
Cr1 O9 1.925902 1_555
Cr1 O0 1.930481 1_555
Cr1 O5 1.994267 1_555
Cr1 O13 1.996337 1_655
Cr1 O16 1.999208 1_655
Cr1 O3 2.013988 1_555
Cr2 O14 1.915343 1_555
Cr2 O7 1.920119 1_455
Cr2 O23 1.921916 1_555
Cr2 O10 1.943395 1_455
Cr2 O18 1.951381 1_555
Cr2 O20 1.993101 1_555
Cr3 O22 1.916405 1_555
Cr3 O12 1.916409 1_555
Cr3 O21 1.924178 1_565
Cr3 O8 1.938267 1_556
Cr3 O19 1.975219 1_555
Cr3 O17 1.987682 1_565
O0 P5 1.533130 1_554
O1 P5 1.515586 1_554
O2 P4 1.519785 1_655
O3 P1 1.558363 1_555
O4 P0 1.558715 1_555
O5 P2 1.538010 1_555
O6 P2 1.557001 1_555
O7 P1 1.543335 1_565
O8 P4 1.565777 1_555
O9 P3 1.525393 1_555
O10 P5 1.563887 1_555
O11 P3 1.539554 1_555
O12 P2 1.550510 1_555
O13 P0 1.561815 1_555
O14 P2 1.533214 1_555
O15 P1 1.538319 1_555
O16 P4 1.542498 1_545
O17 P3 1.551678 1_555
O18 P3 1.555508 1_555
O19 P5 1.550012 1_555
O20 P4 1.546036 1_555
O21 P1 1.531856 1_455
O22 P0 1.522246 1_556
O23 P0 1.526798 1_556
