# generated using pymatgen
data_Li2Ti3SnO8
_symmetry_space_group_name_H-M   'P 1'
_cell_length_a   5.99031838
_cell_length_b   5.99031838
_cell_length_c   10.03415700
_cell_angle_alpha   90.00000000
_cell_angle_beta   90.00000000
_cell_angle_gamma   120.00000416
_symmetry_Int_Tables_number   1
_chemical_formula_structural   Li2Ti3SnO8
_chemical_formula_sum   'Li4 Ti6 Sn2 O16'
_cell_volume   311.82527621
_cell_formula_units_Z   2
loop_
 _symmetry_equiv_pos_site_id
 _symmetry_equiv_pos_as_xyz
  1  'x, y, z'
loop_
 _atom_site_type_symbol
 _atom_site_label
 _atom_site_symmetry_multiplicity
 _atom_site_fract_x
 _atom_site_fract_y
 _atom_site_fract_z
 _atom_site_occupancy
  Li  Li0  1  0.33333300  0.66666700  0.89631600  1
  Li  Li1  1  0.00000000  0.00000000  0.99316700  1
  Li  Li2  1  0.00000000  0.00000000  0.49316700  1
  Li  Li3  1  0.66666700  0.33333300  0.39631600  1
  Ti  Ti0  1  0.16974200  0.83025800  0.21486200  1
  Ti  Ti1  1  0.66051700  0.83025800  0.21486200  1
  Ti  Ti2  1  0.33948300  0.16974200  0.71486200  1
  Ti  Ti3  1  0.83025800  0.16974200  0.71486200  1
  Ti  Ti4  1  0.16974200  0.33948300  0.21486200  1
  Ti  Ti5  1  0.83025800  0.66051700  0.71486200  1
  Sn  Sn0  1  0.33333300  0.66666700  0.49120700  1
  Sn  Sn1  1  0.66666700  0.33333300  0.99120700  1
  O  O0  1  0.15891000  0.84109000  0.60127700  1
  O  O1  1  0.03366000  0.51683000  0.33561700  1
  O  O2  1  0.33333300  0.66666700  0.10650200  1
  O  O3  1  0.00000000  0.00000000  0.31121500  1
  O  O4  1  0.00000000  0.00000000  0.81121500  1
  O  O5  1  0.15891000  0.31782000  0.60127700  1
  O  O6  1  0.48317000  0.96634000  0.33561700  1
  O  O7  1  0.48317000  0.51683000  0.33561700  1
  O  O8  1  0.31782000  0.15891000  0.10127700  1
  O  O9  1  0.68218000  0.84109000  0.60127700  1
  O  O10  1  0.51683000  0.48317000  0.83561700  1
  O  O11  1  0.51683000  0.03366000  0.83561700  1
  O  O12  1  0.66666700  0.33333300  0.60650200  1
  O  O13  1  0.84109000  0.68218000  0.10127700  1
  O  O14  1  0.96634000  0.48317000  0.83561700  1
  O  O15  1  0.84109000  0.15891000  0.10127700  1
loop_
_geom_bond_atom_site_label_1
_geom_bond_atom_site_label_2
_geom_bond_distance
_geom_bond_site_symmetry_2
Li0 O14 1.998924 1_455
Li0 O11 1.998924 1_565
Li0 O10 1.998929 1_555
Li0 O2 2.109039 1_556
Li1 O4 1.825735 1_555
Li1 O13 1.973636 1_446
Li1 O8 1.973636 1_556
Li1 O15 1.973636 1_456
Li2 O3 1.825735 1_555
Li2 O5 1.973636 1_555
Li2 O9 1.973636 1_445
Li2 O0 1.973636 1_545
Li3 O1 1.998924 1_655
Li3 O6 1.998924 1_545
Li3 O7 1.998929 1_555
Li3 O12 2.109039 1_555
O0 Ti5 2.053139 1_455
O0 Ti2 2.053139 1_565
O0 Sn0 2.120132 1_555
O1 Ti0 2.031571 1_555
O1 Ti4 2.031575 1_555
O1 Sn0 2.203242 1_555
O2 Ti0 2.015739 1_555
O2 Ti4 2.015747 1_555
O2 Ti1 2.015747 1_555
O3 Ti4 2.009085 1_555
O3 Ti1 2.009085 1_445
O3 Ti0 2.009090 1_545
O4 Ti2 2.009085 1_555
O4 Ti5 2.009085 1_445
O4 Ti3 2.009090 1_455
O5 Ti2 2.053135 1_555
O5 Ti3 2.053139 1_455
O5 Sn0 2.120137 1_555
O6 Ti0 2.031571 1_555
O6 Ti1 2.031575 1_555
O6 Sn0 2.203242 1_555
O7 Ti4 2.031571 1_555
O7 Ti1 2.031571 1_555
O7 Sn0 2.203246 1_555
O8 Ti4 2.053135 1_555
O8 Ti0 2.053139 1_545
O8 Sn1 2.120137 1_554
O9 Ti5 2.053135 1_555
O9 Ti3 2.053139 1_565
O9 Sn0 2.120137 1_555
O10 Ti5 2.031571 1_555
O10 Ti2 2.031571 1_555
O10 Sn1 2.203246 1_555
O11 Ti3 2.031571 1_555
O11 Ti2 2.031575 1_555
O11 Sn1 2.203242 1_555
O12 Ti3 2.015739 1_555
O12 Ti5 2.015747 1_555
O12 Ti2 2.015747 1_555
O13 Ti1 2.053135 1_555
O13 Ti0 2.053139 1_655
O13 Sn1 2.120137 1_554
O14 Ti3 2.031571 1_555
O14 Ti5 2.031575 1_555
O14 Sn1 2.203242 1_555
O15 Ti1 2.053139 1_545
O15 Ti4 2.053139 1_655
O15 Sn1 2.120132 1_554
