# generated using pymatgen
data_Li3Fe2(CuO4)2
_symmetry_space_group_name_H-M   'P 1'
_cell_length_a   6.02061722
_cell_length_b   6.12666429
_cell_length_c   6.11481716
_cell_angle_alpha   126.26059675
_cell_angle_beta   55.13117759
_cell_angle_gamma   99.10930703
_symmetry_Int_Tables_number   1
_chemical_formula_structural   Li3Fe2(CuO4)2
_chemical_formula_sum   'Li3 Fe2 Cu2 O8'
_cell_volume   143.60092567
_cell_formula_units_Z   1
loop_
 _symmetry_equiv_pos_site_id
 _symmetry_equiv_pos_as_xyz
  1  'x, y, z'
loop_
 _atom_site_type_symbol
 _atom_site_label
 _atom_site_symmetry_multiplicity
 _atom_site_fract_x
 _atom_site_fract_y
 _atom_site_fract_z
 _atom_site_occupancy
  Li  Li0  1  0.50000000  0.00000000  0.00000000  1
  Li  Li1  1  0.50000000  0.50000000  0.00000000  1
  Li  Li2  1  0.50000000  0.50000000  0.50000000  1
  Fe  Fe0  1  0.00000000  0.50000000  0.00000000  1
  Fe  Fe1  1  0.00000000  0.00000000  0.50000000  1
  Cu  Cu0  1  0.00000000  0.00000000  0.00000000  1
  Cu  Cu1  1  0.50000000  0.00000000  0.50000000  1
  O  O0  1  0.25118600  0.73347500  0.01593500  1
  O  O1  1  0.22179300  0.25825300  0.51991000  1
  O  O2  1  0.21095800  0.81538100  0.51869400  1
  O  O3  1  0.21045400  0.26969100  0.97328100  1
  O  O4  1  0.78954600  0.73030900  0.02671900  1
  O  O5  1  0.78904200  0.18461900  0.48130600  1
  O  O6  1  0.77820700  0.74174700  0.48009000  1
  O  O7  1  0.74881400  0.26652500  0.98406500  1
loop_
_geom_bond_atom_site_label_1
_geom_bond_atom_site_label_2
_geom_bond_distance
_geom_bond_site_symmetry_2
Li0 O7 2.041254 1_554
Li0 O0 2.041254 1_545
Li0 O6 2.053364 1_544
Li0 O1 2.053364 1_555
Li1 O2 2.079878 1_555
Li1 O5 2.079878 1_554
Li1 O3 2.081032 1_554
Li1 O4 2.081032 1_555
Li1 O7 2.155543 1_554
Li1 O0 2.155543 1_555
Li2 O0 2.044448 1_556
Li2 O7 2.044448 1_554
Li2 O6 2.051502 1_555
Li2 O1 2.051502 1_555
Fe0 O1 1.896196 1_554
Fe0 O6 1.896196 1_455
Fe0 O0 1.913452 1_555
Fe0 O7 1.913452 1_454
Fe0 O3 1.918289 1_554
Fe0 O4 1.918289 1_455
Fe1 O1 1.894837 1_555
Fe1 O6 1.894837 1_445
Fe1 O7 1.913385 1_455
Fe1 O0 1.913385 1_545
Fe1 O2 1.918185 1_545
Fe1 O5 1.918185 1_455
Cu0 O4 1.944734 1_445
Cu0 O3 1.944734 1_554
Cu0 O5 1.948675 1_455
Cu0 O2 1.948675 1_544
Cu0 O0 2.470130 1_545
Cu0 O7 2.470130 1_454
Cu1 O5 1.903426 1_555
Cu1 O2 1.903426 1_545
Cu1 O3 1.905650 1_555
Cu1 O4 1.905650 1_545
Cu1 O1 2.387874 1_555
Cu1 O6 2.387874 1_545
