# generated using pymatgen
data_LiFePO4
_symmetry_space_group_name_H-M   'P 1'
_cell_length_a   10.02581793
_cell_length_b   10.02581793
_cell_length_c   24.09161800
_cell_angle_alpha   90.00000000
_cell_angle_beta   90.00000000
_cell_angle_gamma   119.99999953
_symmetry_Int_Tables_number   1
_chemical_formula_structural   LiFePO4
_chemical_formula_sum   'Li24 Fe24 P24 O96'
_cell_volume   2097.18251903
_cell_formula_units_Z   24
loop_
 _symmetry_equiv_pos_site_id
 _symmetry_equiv_pos_as_xyz
  1  'x, y, z'
loop_
 _atom_site_type_symbol
 _atom_site_label
 _atom_site_symmetry_multiplicity
 _atom_site_fract_x
 _atom_site_fract_y
 _atom_site_fract_z
 _atom_site_occupancy
  Li  Li0  1  0.02182500  0.97085100  0.69490200  1
  Li  Li1  1  0.03050800  0.58160200  0.03464900  1
  Li  Li2  1  0.06138700  0.46438900  0.19399400  1
  Li  Li3  1  0.03996000  0.47684800  0.84879500  1
  Li  Li4  1  0.40300200  0.93861300  0.86066100  1
  Li  Li5  1  0.43688800  0.96004000  0.51546200  1
  Li  Li6  1  0.02914900  0.05097300  0.02823600  1
  Li  Li7  1  0.05097300  0.02182500  0.86156900  1
  Li  Li8  1  0.55109400  0.96949200  0.70131600  1
  Li  Li9  1  0.41839800  0.44890600  0.36798200  1
  Li  Li10  1  0.52315200  0.56311200  0.18212900  1
  Li  Li11  1  0.53561100  0.59699800  0.52732700  1
  Li  Li12  1  0.46438900  0.40300200  0.02732700  1
  Li  Li13  1  0.47684800  0.43688800  0.68212900  1
  Li  Li14  1  0.58160200  0.55109400  0.86798200  1
  Li  Li15  1  0.44890600  0.03050800  0.20131600  1
  Li  Li16  1  0.94902700  0.97817500  0.36156900  1
  Li  Li17  1  0.97085100  0.94902700  0.52823600  1
  Li  Li18  1  0.56311200  0.03996000  0.01546200  1
  Li  Li19  1  0.59699800  0.06138700  0.36066100  1
  Li  Li20  1  0.96004000  0.52315200  0.34879500  1
  Li  Li21  1  0.93861300  0.53561100  0.69399400  1
  Li  Li22  1  0.96949200  0.41839800  0.53464900  1
  Li  Li23  1  0.97817500  0.02914900  0.19490200  1
  Fe  Fe0  1  0.10593800  0.82328600  0.27258100  1
  Fe  Fe1  1  0.08190200  0.75935000  0.91981500  1
  Fe  Fe2  1  0.12436000  0.75643900  0.59529400  1
  Fe  Fe3  1  0.31032700  0.66386700  0.75474500  1
  Fe  Fe4  1  0.33613300  0.64646000  0.08807800  1
  Fe  Fe5  1  0.35354000  0.68967300  0.42141200  1
  Fe  Fe6  1  0.17671400  0.28265200  0.60591400  1
  Fe  Fe7  1  0.24356100  0.36792100  0.92862700  1
  Fe  Fe8  1  0.24065000  0.32255100  0.25314800  1
  Fe  Fe9  1  0.63207900  0.87564000  0.26196000  1
  Fe  Fe10  1  0.67744900  0.91809800  0.58648200  1
  Fe  Fe11  1  0.28265200  0.10593800  0.43924700  1
  Fe  Fe12  1  0.71734800  0.89406200  0.93924700  1
  Fe  Fe13  1  0.32255100  0.08190200  0.08648200  1
  Fe  Fe14  1  0.36792100  0.12436000  0.76196000  1
  Fe  Fe15  1  0.75935000  0.67744900  0.75314800  1
  Fe  Fe16  1  0.75643900  0.63207900  0.42862700  1
  Fe  Fe17  1  0.82328600  0.71734800  0.10591400  1
  Fe  Fe18  1  0.64646000  0.31032700  0.92141200  1
  Fe  Fe19  1  0.66386700  0.35354000  0.58807800  1
  Fe  Fe20  1  0.68967300  0.33613300  0.25474500  1
  Fe  Fe21  1  0.87564000  0.24356100  0.09529400  1
  Fe  Fe22  1  0.91809800  0.24065000  0.41981500  1
  Fe  Fe23  1  0.89406200  0.17671400  0.77258100  1
  P  P0  1  0.09182100  0.78532900  0.78943000  1
  P  P1  1  0.08157700  0.75318200  0.46785800  1
  P  P2  1  0.13208000  0.77120800  0.14060300  1
  P  P3  1  0.28331200  0.64466500  0.29424900  1
  P  P4  1  0.36135300  0.71668800  0.96091600  1
  P  P5  1  0.35533500  0.63864700  0.62758200  1
  P  P6  1  0.22879200  0.36087200  0.47393700  1
  P  P7  1  0.21467100  0.30649200  0.12276400  1
  P  P8  1  0.24681800  0.32839500  0.80119100  1
  P  P9  1  0.63912800  0.86792000  0.80727000  1
  P  P10  1  0.67160500  0.91842300  0.13452500  1
  P  P11  1  0.69350800  0.90817900  0.45609700  1
  P  P12  1  0.30649200  0.09182100  0.95609700  1
  P  P13  1  0.32839500  0.08157700  0.63452500  1
  P  P14  1  0.36087200  0.13208000  0.30727000  1
  P  P15  1  0.75318200  0.67160500  0.30119100  1
  P  P16  1  0.78532900  0.69350800  0.62276400  1
  P  P17  1  0.77120800  0.63912800  0.97393700  1
  P  P18  1  0.64466500  0.36135300  0.12758200  1
  P  P19  1  0.63864700  0.28331200  0.46091600  1
  P  P20  1  0.71668800  0.35533500  0.79424900  1
  P  P21  1  0.86792000  0.22879200  0.64060300  1
  P  P22  1  0.91842300  0.24681800  0.96785800  1
  P  P23  1  0.90817900  0.21467100  0.28943000  1
  O  O0  1  0.04319900  0.77318100  0.08769000  1
  O  O1  1  0.08820100  0.91231100  0.47250100  1
  O  O2  1  0.01806900  0.68285800  0.84130200  1
  O  O3  1  0.14385500  0.98541900  0.93017500  1
  O  O4  1  0.03419400  0.75850300  0.19176100  1
  O  O5  1  0.01451100  0.66192200  0.52228300  1
  O  O6  1  0.23993500  0.93426300  0.80859700  1
  O  O7  1  0.13583800  0.65584900  0.30461600  1
  O  O8  1  0.12036900  0.68824400  0.74615200  1
  O  O9  1  0.31566300  0.97366500  0.58558800  1
  O  O10  1  0.29254000  0.92212900  0.14199400  1
  O  O11  1  0.16003100  0.63244500  0.13662000  1
  O  O12  1  0.25027800  0.78829400  0.46013500  1
  O  O13  1  0.19301700  0.60533000  0.61141300  1
  O  O14  1  0.07787100  0.37041100  0.47532700  1
  O  O15  1  0.27708600  0.74845400  0.91300900  1
  O  O16  1  0.02633500  0.34199800  0.91892100  1
  O  O17  1  0.06573700  0.30567100  0.14193000  1
  O  O18  1  0.01458100  0.15843600  0.26350900  1
  O  O19  1  0.08768900  0.17589000  0.80583400  1
  O  O20  1  0.26039400  0.67442700  0.01419600  1
  O  O21  1  0.25154600  0.52863200  0.24634300  1
  O  O22  1  0.32557300  0.58596600  0.34752900  1
  O  O23  1  0.21170600  0.46198400  0.79346800  1
  O  O24  1  0.41403400  0.73960600  0.68086300  1
  O  O25  1  0.41231300  0.80698300  0.27808000  1
  O  O26  1  0.47241500  0.83996900  0.80328700  1
  O  O27  1  0.31175600  0.43212400  0.07948500  1
  O  O28  1  0.34415100  0.47998800  0.63794900  1
  O  O29  1  0.36755500  0.52758500  0.46995400  1
  O  O30  1  0.24149700  0.27569100  0.52509500  1
  O  O31  1  0.39467000  0.58768700  0.94474700  1
  O  O32  1  0.47136800  0.72291400  0.57967600  1
  O  O33  1  0.52001200  0.86416200  0.97128200  1
  O  O34  1  0.56787600  0.87963100  0.41281900  1
  O  O35  1  0.15843600  0.14385500  0.09684200  1
  O  O36  1  0.22681900  0.27001700  0.42102300  1
  O  O37  1  0.31714200  0.33521100  0.17463600  1
  O  O38  1  0.17589000  0.08820100  0.63916800  1
  O  O39  1  0.33807800  0.35258900  0.85561700  1
  O  O40  1  0.53801600  0.74972200  0.12680200  1
  O  O41  1  0.30567100  0.23993500  0.97526400  1
  O  O42  1  0.64741100  0.98548900  0.18895000  1
  O  O43  1  0.34199800  0.31566300  0.75225400  1
  O  O44  1  0.37041100  0.29254000  0.30866000  1
  O  O45  1  0.66478900  0.98193100  0.50796900  1
  O  O46  1  0.72430900  0.96580600  0.85842800  1
  O  O47  1  0.27001700  0.04319900  0.25435700  1
  O  O48  1  0.72998300  0.95680100  0.75435700  1
  O  O49  1  0.27569100  0.03419400  0.35842800  1
  O  O50  1  0.33521100  0.01806900  0.00796900  1
  O  O51  1  0.62958900  0.70746000  0.80866000  1
  O  O52  1  0.65800200  0.68433700  0.25225400  1
  O  O53  1  0.35258900  0.01451100  0.68895000  1
  O  O54  1  0.69432900  0.76006500  0.47526400  1
  O  O55  1  0.46198400  0.25027800  0.62680200  1
  O  O56  1  0.66192200  0.64741100  0.35561700  1
  O  O57  1  0.82411000  0.91179900  0.13916800  1
  O  O58  1  0.68285800  0.66478900  0.67463600  1
  O  O59  1  0.77318100  0.72998300  0.92102300  1
  O  O60  1  0.84156400  0.85614500  0.59684200  1
  O  O61  1  0.43212400  0.12036900  0.91281900  1
  O  O62  1  0.47998800  0.13583800  0.47128200  1
  O  O63  1  0.52863200  0.27708600  0.07967600  1
  O  O64  1  0.60533000  0.41231300  0.44474700  1
  O  O65  1  0.75850300  0.72430900  0.02509500  1
  O  O66  1  0.63244500  0.47241500  0.96995400  1
  O  O67  1  0.65584900  0.52001200  0.13794900  1
  O  O68  1  0.68824400  0.56787600  0.57948500  1
  O  O69  1  0.52758500  0.16003100  0.30328700  1
  O  O70  1  0.58768700  0.19301700  0.77808000  1
  O  O71  1  0.58596600  0.26039400  0.18086300  1
  O  O72  1  0.78829400  0.53801600  0.29346800  1
  O  O73  1  0.67442700  0.41403400  0.84752900  1
  O  O74  1  0.74845400  0.47136800  0.74634300  1
  O  O75  1  0.73960600  0.32557300  0.51419600  1
  O  O76  1  0.91231100  0.82411000  0.30583400  1
  O  O77  1  0.98541900  0.84156400  0.76350900  1
  O  O78  1  0.93426300  0.69432900  0.64193000  1
  O  O79  1  0.97366500  0.65800200  0.41892100  1
  O  O80  1  0.72291400  0.25154600  0.41300900  1
  O  O81  1  0.92212900  0.62958900  0.97532700  1
  O  O82  1  0.80698300  0.39467000  0.11141300  1
  O  O83  1  0.74972200  0.21170600  0.96013500  1
  O  O84  1  0.83996900  0.36755500  0.63662000  1
  O  O85  1  0.70746000  0.07787100  0.64199400  1
  O  O86  1  0.68433700  0.02633500  0.08558800  1
  O  O87  1  0.87963100  0.31175600  0.24615200  1
  O  O88  1  0.86416200  0.34415100  0.80461600  1
  O  O89  1  0.76006500  0.06573700  0.30859700  1
  O  O90  1  0.98548900  0.33807800  0.02228300  1
  O  O91  1  0.96580600  0.24149700  0.69176100  1
  O  O92  1  0.85614500  0.01458100  0.43017500  1
  O  O93  1  0.98193100  0.31714200  0.34130200  1
  O  O94  1  0.91179900  0.08768900  0.97250100  1
  O  O95  1  0.95680100  0.22681900  0.58769000  1
loop_
_geom_bond_atom_site_label_1
_geom_bond_atom_site_label_2
_geom_bond_distance
_geom_bond_site_symmetry_2
Li0 O38 1.937963 1_565
Li0 O77 2.017967 1_455
Li1 O81 1.994345 1_454
Li1 O20 2.067857 1_555
Li1 O0 2.256969 1_555
Li1 O90 2.269700 1_455
Li2 O11 2.015243 1_555
Li2 O17 2.043710 1_555
Li2 O21 2.100522 1_555
Li2 O87 2.110157 1_455
Li3 O88 1.914264 1_455
Li3 O16 2.125104 1_555
Li3 O2 2.190895 1_555
Li3 O23 2.240625 1_555
Li4 O26 2.015249 1_555
Li4 O6 2.043702 1_555
Li4 O15 2.100507 1_555
Li4 O61 2.110160 1_565
Li5 O62 1.914279 1_565
Li5 O9 2.125104 1_555
Li5 O45 2.190895 1_555
Li5 O12 2.240625 1_555
Li6 O94 1.937984 1_454
Li6 O35 2.017948 1_555
Li7 O19 1.937977 1_555
Li7 O3 2.017952 1_545
Li8 O85 1.994345 1_565
Li8 O24 2.067856 1_555
Li8 O48 2.256978 1_555
Li8 O53 2.269700 1_565
Li9 O44 1.994345 1_555
Li9 O22 2.067848 1_555
Li9 O36 2.256973 1_555
Li9 O56 2.269697 1_555
Li10 O67 1.914271 1_555
Li10 O52 2.125085 1_555
Li10 O37 2.190895 1_555
Li10 O40 2.240625 1_555
Li11 O29 2.015225 1_555
Li11 O54 2.043691 1_555
Li11 O32 2.100522 1_555
Li11 O68 2.110152 1_555
Li12 O66 2.015225 1_554
Li12 O41 2.043691 1_554
Li12 O63 2.100522 1_555
Li12 O27 2.110152 1_555
Li13 O28 1.914271 1_555
Li13 O43 2.125085 1_555
Li13 O58 2.190895 1_555
Li13 O55 2.240625 1_555
Li14 O51 1.994345 1_555
Li14 O73 2.067848 1_555
Li14 O59 2.256973 1_555
Li14 O39 2.269697 1_555
Li15 O10 1.994345 1_545
Li15 O71 2.067856 1_555
Li15 O47 2.256978 1_555
Li15 O42 2.269700 1_545
Li16 O76 1.937977 1_555
Li16 O92 2.017952 1_565
Li17 O1 1.937984 1_655
Li17 O60 2.017948 1_555
Li18 O33 1.914279 1_544
Li18 O86 2.125104 1_555
Li18 O50 2.190895 1_555
Li18 O83 2.240625 1_554
Li19 O69 2.015249 1_555
Li19 O89 2.043702 1_555
Li19 O80 2.100507 1_555
Li19 O34 2.110160 1_545
Li20 O7 1.914264 1_655
Li20 O79 2.125104 1_555
Li20 O93 2.190895 1_555
Li20 O72 2.240625 1_555
Li21 O84 2.015243 1_555
Li21 O78 2.043710 1_555
Li21 O74 2.100522 1_555
Li21 O8 2.110157 1_655
Li22 O14 1.994345 1_655
Li22 O75 2.067857 1_555
Li22 O95 2.256969 1_555
Li22 O5 2.269700 1_655
Li23 O57 1.937963 1_545
Li23 O18 2.017967 1_655
Fe0 O7 2.001683 1_555
Fe0 O47 2.032998 1_565
Fe0 O4 2.064750 1_555
Fe0 O76 2.103906 1_455
Fe1 O81 1.990743 1_455
Fe1 O15 2.020388 1_555
Fe1 O2 2.021063 1_555
Fe1 O3 2.043877 1_555
Fe2 O13 1.990640 1_555
Fe2 O78 2.023776 1_455
Fe2 O5 2.039895 1_555
Fe2 O9 2.073478 1_555
Fe3 O23 1.985800 1_555
Fe3 O24 2.009062 1_555
Fe3 O8 2.048195 1_555
Fe3 O26 2.063135 1_555
Fe4 O40 1.985812 1_555
Fe4 O20 2.009058 1_555
Fe4 O27 2.048205 1_555
Fe4 O11 2.063132 1_555
Fe5 O12 1.985800 1_555
Fe5 O22 2.009084 1_555
Fe5 O34 2.048201 1_555
Fe5 O29 2.063140 1_555
Fe6 O28 2.001677 1_555
Fe6 O95 2.033001 1_455
Fe6 O30 2.064727 1_555
Fe6 O38 2.103916 1_555
Fe7 O31 1.990645 1_555
Fe7 O41 2.023781 1_555
Fe7 O39 2.039874 1_555
Fe7 O16 2.073478 1_555
Fe8 O44 1.990738 1_555
Fe8 O21 2.020396 1_555
Fe8 O37 2.021039 1_555
Fe8 O18 2.043877 1_555
Fe9 O25 1.990645 1_555
Fe9 O89 2.023787 1_565
Fe9 O42 2.039874 1_555
Fe9 O52 2.073478 1_555
Fe10 O85 1.990745 1_565
Fe10 O32 2.020393 1_555
Fe10 O45 2.021065 1_555
Fe10 O60 2.043867 1_555
Fe11 O62 2.001674 1_555
Fe11 O36 2.032992 1_555
Fe11 O49 2.064727 1_555
Fe11 O1 2.103916 1_545
Fe12 O33 2.001674 1_555
Fe12 O59 2.032992 1_555
Fe12 O46 2.064727 1_555
Fe12 O94 2.103916 1_565
Fe13 O10 1.990745 1_545
Fe13 O63 2.020393 1_555
Fe13 O50 2.021065 1_555
Fe13 O35 2.043867 1_555
Fe14 O70 1.990645 1_555
Fe14 O6 2.023787 1_545
Fe14 O53 2.039874 1_555
Fe14 O43 2.073478 1_555
Fe15 O51 1.990738 1_555
Fe15 O74 2.020396 1_555
Fe15 O58 2.021039 1_555
Fe15 O77 2.043877 1_555
Fe16 O64 1.990645 1_555
Fe16 O54 2.023781 1_555
Fe16 O56 2.039874 1_555
Fe16 O79 2.073478 1_555
Fe17 O67 2.001677 1_555
Fe17 O0 2.033001 1_655
Fe17 O65 2.064727 1_555
Fe17 O57 2.103916 1_555
Fe18 O83 1.985800 1_555
Fe18 O73 2.009084 1_555
Fe18 O61 2.048201 1_555
Fe18 O66 2.063140 1_555
Fe19 O55 1.985812 1_555
Fe19 O75 2.009058 1_555
Fe19 O68 2.048205 1_555
Fe19 O84 2.063132 1_555
Fe20 O72 1.985800 1_555
Fe20 O71 2.009062 1_555
Fe20 O87 2.048195 1_555
Fe20 O69 2.063135 1_555
Fe21 O82 1.990640 1_555
Fe21 O17 2.023776 1_655
Fe21 O90 2.039895 1_555
Fe21 O86 2.073478 1_555
Fe22 O14 1.990743 1_655
Fe22 O80 2.020388 1_555
Fe22 O93 2.021063 1_555
Fe22 O92 2.043877 1_555
Fe23 O88 2.001683 1_555
Fe23 O48 2.032998 1_545
Fe23 O91 2.064750 1_555
Fe23 O19 2.103906 1_655
O0 P2 1.561121 1_555
O1 P1 1.567248 1_555
O2 P0 1.550567 1_555
O3 P12 1.564389 1_565
O4 P2 1.540566 1_555
O5 P1 1.547015 1_555
O6 P0 1.559045 1_555
O7 P3 1.557833 1_555
O8 P0 1.547587 1_555
O9 P13 1.561629 1_565
O10 P2 1.563480 1_555
O11 P2 1.553406 1_555
O12 P1 1.556873 1_555
O13 P5 1.538850 1_555
O14 P6 1.563479 1_555
O15 P4 1.554458 1_555
O16 P22 1.561629 1_455
O17 P7 1.559033 1_555
O18 P23 1.564380 1_455
O19 P8 1.567248 1_555
O20 P4 1.556544 1_554
O21 P3 1.554440 1_555
O22 P3 1.556549 1_555
O23 P8 1.556873 1_555
O24 P5 1.556564 1_555
O25 P3 1.538850 1_555
O26 P9 1.553397 1_555
O27 P7 1.547599 1_555
O28 P5 1.557842 1_555
O29 P6 1.553400 1_555
O30 P6 1.540566 1_555
O31 P4 1.538850 1_555
O32 P5 1.554440 1_555
O33 P4 1.557834 1_555
O34 P11 1.547580 1_555
O35 P7 1.564389 1_555
O36 P6 1.561146 1_555
O37 P7 1.550567 1_555
O38 P13 1.567248 1_555
O39 P8 1.547036 1_555
O40 P10 1.556873 1_555
O41 P12 1.559049 1_555
O42 P10 1.547015 1_555
O43 P8 1.561629 1_555
O44 P14 1.563479 1_555
O45 P11 1.550567 1_555
O46 P9 1.540566 1_555
O47 P14 1.561124 1_555
O48 P9 1.561124 1_555
O49 P14 1.540566 1_555
O50 P12 1.550567 1_554
O51 P9 1.563479 1_555
O52 P15 1.561629 1_555
O53 P13 1.547015 1_555
O54 P11 1.559049 1_555
O55 P13 1.556873 1_555
O56 P15 1.547036 1_555
O57 P10 1.567248 1_555
O58 P16 1.550567 1_555
O59 P17 1.561146 1_555
O60 P16 1.564389 1_555
O61 P12 1.547580 1_555
O62 P19 1.557834 1_555
O63 P18 1.554440 1_555
O64 P19 1.538850 1_555
O65 P17 1.540566 1_554
O66 P17 1.553400 1_555
O67 P18 1.557842 1_555
O68 P16 1.547599 1_555
O69 P14 1.553397 1_555
O70 P20 1.538850 1_555
O71 P18 1.556564 1_555
O72 P15 1.556873 1_555
O73 P20 1.556549 1_555
O74 P20 1.554440 1_555
O75 P19 1.556544 1_555
O76 P15 1.567248 1_555
O77 P0 1.564380 1_655
O78 P16 1.559033 1_555
O79 P1 1.561629 1_655
O80 P19 1.554458 1_555
O81 P17 1.563479 1_555
O82 P18 1.538850 1_555
O83 P22 1.556873 1_555
O84 P21 1.553406 1_555
O85 P21 1.563480 1_555
O86 P10 1.561629 1_545
O87 P23 1.547587 1_555
O88 P20 1.557833 1_555
O89 P23 1.559045 1_555
O90 P22 1.547015 1_554
O91 P21 1.540566 1_555
O92 P11 1.564389 1_545
O93 P23 1.550567 1_555
O94 P22 1.567248 1_555
O95 P21 1.561121 1_555
