# generated using pymatgen
data_LiTi(PO3)4
_symmetry_space_group_name_H-M   'P 1'
_cell_length_a   8.96115700
_cell_length_b   6.91846500
_cell_length_c   7.12500516
_cell_angle_alpha   82.23691393
_cell_angle_beta   90.00000000
_cell_angle_gamma   90.00000000
_symmetry_Int_Tables_number   1
_chemical_formula_structural   LiTi(PO3)4
_chemical_formula_sum   'Li2 Ti2 P8 O24'
_cell_volume   437.68371526
_cell_formula_units_Z   2
loop_
 _symmetry_equiv_pos_site_id
 _symmetry_equiv_pos_as_xyz
  1  'x, y, z'
loop_
 _atom_site_type_symbol
 _atom_site_label
 _atom_site_symmetry_multiplicity
 _atom_site_fract_x
 _atom_site_fract_y
 _atom_site_fract_z
 _atom_site_occupancy
  Li  Li0  1  0.92924200  0.82379400  0.81991500  1
  Li  Li1  1  0.42924200  0.17620600  0.18008500  1
  Ti  Ti0  1  0.63869300  0.78240700  0.27289100  1
  Ti  Ti1  1  0.13869300  0.21759300  0.72710900  1
  P  P0  1  0.63975100  0.02398100  0.55585900  1
  P  P1  1  0.43983900  0.90785700  0.87322500  1
  P  P2  1  0.28975800  0.57570700  0.43010400  1
  P  P3  1  0.60049400  0.54243200  0.91483700  1
  P  P4  1  0.10049400  0.45756800  0.08516300  1
  P  P5  1  0.78975800  0.42429300  0.56989600  1
  P  P6  1  0.93983900  0.09214300  0.12677500  1
  P  P7  1  0.13975100  0.97601900  0.44414100  1
  O  O0  1  0.06147100  0.95492600  0.24704600  1
  O  O1  1  0.47744800  0.91405400  0.07972200  1
  O  O2  1  0.02900400  0.97861500  0.60436200  1
  O  O3  1  0.28792600  0.98318800  0.81590000  1
  O  O4  1  0.23738300  0.78657600  0.46955800  1
  O  O5  1  0.73394200  0.84367400  0.56822700  1
  O  O6  1  0.46871700  0.69425400  0.81602100  1
  O  O7  1  0.70441000  0.67173100  0.01095600  1
  O  O8  1  0.25795500  0.44545800  0.61378400  1
  O  O9  1  0.17989900  0.53080300  0.26552500  1
  O  O10  1  0.02847300  0.62852300  0.97549100  1
  O  O11  1  0.44888600  0.59263400  0.36577400  1
  O  O12  1  0.94888600  0.40736600  0.63422600  1
  O  O13  1  0.52847300  0.37147700  0.02450900  1
  O  O14  1  0.67989900  0.46919700  0.73447500  1
  O  O15  1  0.75795500  0.55454200  0.38621600  1
  O  O16  1  0.20441000  0.32826900  0.98904400  1
  O  O17  1  0.96871700  0.30574600  0.18397900  1
  O  O18  1  0.23394200  0.15632600  0.43177300  1
  O  O19  1  0.73738300  0.21342400  0.53044200  1
  O  O20  1  0.78792600  0.01681200  0.18410000  1
  O  O21  1  0.52900400  0.02138500  0.39563800  1
  O  O22  1  0.97744800  0.08594600  0.92027800  1
  O  O23  1  0.56147100  0.04507400  0.75295400  1
loop_
_geom_bond_atom_site_label_1
_geom_bond_atom_site_label_2
_geom_bond_distance
_geom_bond_site_symmetry_2
Li0 O10 1.854729 1_655
Li0 O2 1.964898 1_655
Li0 O22 2.082739 1_565
Li0 O5 2.496203 1_555
Li0 O7 2.575257 1_556
Li1 O13 1.854729 1_555
Li1 O21 1.964898 1_555
Li1 O1 2.082739 1_545
Li1 O18 2.496203 1_555
Li1 O16 2.575257 1_554
O0 P7 1.593988 1_555
O0 P6 1.613632 1_465
O1 P1 1.515639 1_554
O1 Ti0 2.114955 1_555
O2 P7 1.514581 1_555
O2 Ti1 2.203473 1_565
O3 P1 1.494698 1_555
O3 Ti1 2.131060 1_565
O4 P7 1.565865 1_555
O4 P2 1.593253 1_555
O5 P0 1.498877 1_565
O5 Ti0 2.361592 1_555
O6 P1 1.606149 1_555
O6 P3 1.671428 1_555
O7 P3 1.517198 1_554
O7 Ti0 2.191393 1_555
O8 P2 1.512414 1_555
O8 Ti1 1.983817 1_555
O9 P2 1.593471 1_555
O9 P4 1.609463 1_555
O10 P4 1.475244 1_556
O11 P2 1.497562 1_555
O11 Ti0 2.195465 1_555
O12 P5 1.497562 1_555
O12 Ti1 2.195465 1_655
O13 P3 1.475244 1_554
O14 P5 1.593471 1_555
O14 P3 1.609463 1_555
O15 P5 1.512414 1_555
O15 Ti0 1.983817 1_555
O16 P4 1.517198 1_556
O16 Ti1 2.191393 1_555
O17 P6 1.606149 1_555
O17 P4 1.671428 1_655
O18 P7 1.498877 1_545
O18 Ti1 2.361592 1_555
O19 P0 1.565865 1_555
O19 P5 1.593253 1_555
O20 P6 1.494698 1_555
O20 Ti0 2.131060 1_545
O21 P0 1.514581 1_555
O21 Ti0 2.203473 1_545
O22 P6 1.515639 1_556
O22 Ti1 2.114955 1_655
O23 P0 1.593988 1_555
O23 P1 1.613632 1_545
