# generated using pymatgen
data_LiCr2O4
_symmetry_space_group_name_H-M   'P 1'
_cell_length_a   5.78404533
_cell_length_b   5.78404533
_cell_length_c   9.37658000
_cell_angle_alpha   90.00000000
_cell_angle_beta   90.00000000
_cell_angle_gamma   119.99999235
_symmetry_Int_Tables_number   1
_chemical_formula_structural   LiCr2O4
_chemical_formula_sum   'Li4 Cr8 O16'
_cell_volume   271.66801184
_cell_formula_units_Z   4
loop_
 _symmetry_equiv_pos_site_id
 _symmetry_equiv_pos_as_xyz
  1  'x, y, z'
loop_
 _atom_site_type_symbol
 _atom_site_label
 _atom_site_symmetry_multiplicity
 _atom_site_fract_x
 _atom_site_fract_y
 _atom_site_fract_z
 _atom_site_occupancy
  Li  Li0  1  0.33333300  0.66666700  0.89466300  1
  Li  Li1  1  0.00000000  0.00000000  0.99697200  1
  Li  Li2  1  0.00000000  0.00000000  0.49697200  1
  Li  Li3  1  0.66666700  0.33333300  0.39466300  1
  Cr  Cr0  1  0.17071000  0.82929000  0.21179300  1
  Cr  Cr1  1  0.33333300  0.66666700  0.48675900  1
  Cr  Cr2  1  0.17071000  0.34142000  0.21179300  1
  Cr  Cr3  1  0.65858000  0.82929000  0.21179300  1
  Cr  Cr4  1  0.34142000  0.17071000  0.71179300  1
  Cr  Cr5  1  0.66666700  0.33333300  0.98675900  1
  Cr  Cr6  1  0.82929000  0.65858000  0.71179300  1
  Cr  Cr7  1  0.82929000  0.17071000  0.71179300  1
  O  O0  1  0.16859200  0.83140800  0.60318000  1
  O  O1  1  0.04305700  0.52152900  0.34163800  1
  O  O2  1  0.33333300  0.66666700  0.10087900  1
  O  O3  1  0.00000000  0.00000000  0.30824500  1
  O  O4  1  0.00000000  0.00000000  0.80824500  1
  O  O5  1  0.16859200  0.33718400  0.60318000  1
  O  O6  1  0.47847100  0.95694300  0.34163800  1
  O  O7  1  0.47847100  0.52152900  0.34163800  1
  O  O8  1  0.33718400  0.16859200  0.10318000  1
  O  O9  1  0.66281600  0.83140800  0.60318000  1
  O  O10  1  0.52152900  0.47847100  0.84163800  1
  O  O11  1  0.52152900  0.04305700  0.84163800  1
  O  O12  1  0.66666700  0.33333300  0.60087900  1
  O  O13  1  0.83140800  0.66281600  0.10318000  1
  O  O14  1  0.95694300  0.47847100  0.84163800  1
  O  O15  1  0.83140800  0.16859200  0.10318000  1
loop_
_geom_bond_atom_site_label_1
_geom_bond_atom_site_label_2
_geom_bond_distance
_geom_bond_site_symmetry_2
Li0 O2 1.933601 1_556
Li0 O11 1.949842 1_565
Li0 O14 1.949842 1_455
Li0 O10 1.949851 1_555
Li1 O4 1.769614 1_555
Li1 O15 1.960732 1_456
Li1 O8 1.960732 1_556
Li1 O13 1.960732 1_446
Li2 O3 1.769614 1_555
Li2 O0 1.960732 1_545
Li2 O5 1.960732 1_555
Li2 O9 1.960732 1_445
Li3 O12 1.933601 1_555
Li3 O1 1.949842 1_655
Li3 O6 1.949842 1_545
Li3 O7 1.949851 1_555
Cr0 O2 1.932842 1_555
Cr0 O3 1.934622 1_565
Cr0 O6 1.970254 1_555
Cr0 O1 1.970254 1_555
Cr0 O13 1.981459 1_455
Cr0 O8 1.981459 1_565
Cr1 O0 1.978772 1_555
Cr1 O9 1.978776 1_555
Cr1 O5 1.978776 1_555
Cr1 O7 1.991435 1_555
Cr1 O1 1.991435 1_555
Cr1 O6 1.991435 1_555
Cr2 O2 1.932846 1_555
Cr2 O3 1.934623 1_555
Cr2 O7 1.970255 1_555
Cr2 O1 1.970258 1_555
Cr2 O8 1.981459 1_555
Cr2 O15 1.981459 1_455
Cr3 O2 1.932846 1_555
Cr3 O3 1.934623 1_665
Cr3 O7 1.970255 1_555
Cr3 O6 1.970258 1_555
Cr3 O13 1.981459 1_555
Cr3 O15 1.981459 1_565
Cr4 O12 1.932846 1_555
Cr4 O4 1.934623 1_555
Cr4 O10 1.970255 1_555
Cr4 O11 1.970258 1_555
Cr4 O5 1.981459 1_555
Cr4 O0 1.981459 1_545
Cr5 O15 1.978772 1_556
Cr5 O13 1.978776 1_556
Cr5 O8 1.978776 1_556
Cr5 O10 1.991435 1_555
Cr5 O11 1.991435 1_555
Cr5 O14 1.991435 1_555
Cr6 O12 1.932846 1_555
Cr6 O4 1.934623 1_665
Cr6 O10 1.970255 1_555
Cr6 O14 1.970258 1_555
Cr6 O9 1.981459 1_555
Cr6 O0 1.981459 1_655
Cr7 O12 1.932842 1_555
Cr7 O4 1.934622 1_655
Cr7 O11 1.970254 1_555
Cr7 O14 1.970254 1_555
Cr7 O9 1.981459 1_545
Cr7 O5 1.981459 1_655
