# generated using pymatgen
data_LiMn2NiO6
_symmetry_space_group_name_H-M   'P 1'
_cell_length_a   2.91593800
_cell_length_b   5.89590065
_cell_length_c   6.55554331
_cell_angle_alpha   105.18597474
_cell_angle_beta   102.49291651
_cell_angle_gamma   88.49396978
_symmetry_Int_Tables_number   1
_chemical_formula_structural   LiMn2NiO6
_chemical_formula_sum   'Li1 Mn2 Ni1 O6'
_cell_volume   106.13735086
_cell_formula_units_Z   1
loop_
 _symmetry_equiv_pos_site_id
 _symmetry_equiv_pos_as_xyz
  1  'x, y, z'
loop_
 _atom_site_type_symbol
 _atom_site_label
 _atom_site_symmetry_multiplicity
 _atom_site_fract_x
 _atom_site_fract_y
 _atom_site_fract_z
 _atom_site_occupancy
  Li  Li0  1  0.50000000  0.50000000  0.50000000  1
  Mn  Mn0  1  0.17775000  0.32085600  0.83718600  1
  Mn  Mn1  1  0.82225000  0.67914400  0.16281400  1
  Ni  Ni0  1  0.50000000  0.00000000  0.50000000  1
  O  O0  1  0.94564500  0.75834900  0.46921100  1
  O  O1  1  0.32664300  0.45473400  0.15164300  1
  O  O2  1  0.05435500  0.24165100  0.53078900  1
  O  O3  1  0.32446900  0.89650500  0.18861500  1
  O  O4  1  0.67335700  0.54526600  0.84835700  1
  O  O5  1  0.67553100  0.10349500  0.81138500  1
loop_
_geom_bond_atom_site_label_1
_geom_bond_atom_site_label_2
_geom_bond_distance
_geom_bond_site_symmetry_2
Li0 O0 2.104304 1_555
Li0 O2 2.104304 1_555
Li0 O4 2.174914 1_555
Li0 O1 2.174914 1_555
Li0 O0 2.205522 1_455
Li0 O2 2.205522 1_655
Mn0 O2 1.893872 1_555
Mn0 O5 1.916422 1_555
Mn0 O5 1.921837 1_455
Mn0 O4 1.952611 1_455
Mn0 O1 1.959436 1_556
Mn0 O4 1.961733 1_555
Mn1 O0 1.893872 1_555
Mn1 O3 1.916422 1_555
Mn1 O3 1.921837 1_655
Mn1 O1 1.952611 1_655
Mn1 O4 1.959436 1_554
Mn1 O1 1.961733 1_555
Ni0 O2 1.903885 1_555
Ni0 O0 1.903885 1_545
Ni0 O5 1.926923 1_555
Ni0 O3 1.926923 1_545
Ni0 O2 2.124348 1_655
Ni0 O0 2.124348 1_445
