# generated using pymatgen
data_Li5Mn6(BO3)6
_symmetry_space_group_name_H-M   'P 1'
_cell_length_a   5.26404300
_cell_length_b   6.18873729
_cell_length_c   12.92829364
_cell_angle_alpha   94.24888158
_cell_angle_beta   91.10280066
_cell_angle_gamma   114.89384501
_symmetry_Int_Tables_number   1
_chemical_formula_structural   Li5Mn6(BO3)6
_chemical_formula_sum   'Li5 Mn6 B6 O18'
_cell_volume   380.40081811
_cell_formula_units_Z   1
loop_
 _symmetry_equiv_pos_site_id
 _symmetry_equiv_pos_as_xyz
  1  'x, y, z'
loop_
 _atom_site_type_symbol
 _atom_site_label
 _atom_site_symmetry_multiplicity
 _atom_site_fract_x
 _atom_site_fract_y
 _atom_site_fract_z
 _atom_site_occupancy
  Li  Li0  1  0.81145700  0.93592900  0.25302700  1
  Li  Li1  1  0.86424600  0.41385800  0.07008300  1
  Li  Li2  1  0.52349700  0.73402700  0.41156300  1
  Li  Li3  1  0.48088900  0.27106000  0.59107100  1
  Li  Li4  1  0.19356900  0.06334800  0.74806900  1
  Mn  Mn0  1  0.26697900  0.89125800  0.12759600  1
  Mn  Mn1  1  0.39391200  0.44102800  0.19982700  1
  Mn  Mn2  1  0.06164900  0.77400300  0.53315300  1
  Mn  Mn3  1  0.94349900  0.22962300  0.46378200  1
  Mn  Mn4  1  0.60028500  0.56106400  0.81111100  1
  Mn  Mn5  1  0.74730000  0.11776600  0.86614800  1
  B  B0  1  0.72013200  0.78823400  0.02473000  1
  B  B1  1  0.95883300  0.57192500  0.30714500  1
  B  B2  1  0.62151700  0.90208300  0.64397000  1
  B  B3  1  0.37626000  0.09555200  0.35697900  1
  B  B4  1  0.02683100  0.40699900  0.69082400  1
  B  B5  1  0.29227400  0.23090100  0.97691800  1
  O  O0  1  0.93823200  0.72620900  0.01865100  1
  O  O1  1  0.60239900  0.80422400  0.11850500  1
  O  O2  1  0.44375800  0.24324900  0.06822100  1
  O  O3  1  0.05733900  0.53510100  0.21175800  1
  O  O4  1  0.72134900  0.61361700  0.31393300  1
  O  O5  1  0.10947000  0.57576300  0.39894000  1
  O  O6  1  0.72501300  0.86757700  0.54921500  1
  O  O7  1  0.22570300  0.09025300  0.26587300  1
  O  O8  1  0.38465600  0.94356100  0.64911400  1
  O  O9  1  0.61458600  0.05458900  0.35224400  1
  O  O10  1  0.77158500  0.90580100  0.73633300  1
  O  O11  1  0.27784000  0.13303800  0.45328900  1
  O  O12  1  0.89762300  0.42578800  0.59857000  1
  O  O13  1  0.27658800  0.38644800  0.69149400  1
  O  O14  1  0.88143500  0.39890200  0.78137100  1
  O  O15  1  0.59479200  0.81517200  0.93067900  1
  O  O16  1  0.40445400  0.20768000  0.88217900  1
  O  O17  1  0.04338500  0.25378800  0.98156200  1
loop_
_geom_bond_atom_site_label_1
_geom_bond_atom_site_label_2
_geom_bond_distance
_geom_bond_site_symmetry_2
Li0 O9 1.952153 1_565
Li0 O1 1.964987 1_555
Li0 O7 1.975862 1_665
Li0 O4 2.067467 1_555
Li1 O17 1.959668 1_654
Li1 O0 1.974118 1_555
Li1 O3 2.008383 1_655
Li1 O2 2.010343 1_555
Li2 O4 1.948787 1_555
Li2 O5 1.975216 1_555
Li2 O6 1.986618 1_555
Li2 O9 2.047572 1_565
Li3 O13 1.978644 1_555
Li3 O12 1.987026 1_555
Li3 O11 1.994414 1_555
Li3 O8 2.074433 1_545
Li4 O8 1.932571 1_545
Li4 O16 1.974323 1_555
Li4 O10 2.012404 1_445
Li4 O13 2.053686 1_555
Mn0 O1 2.054453 1_555
Mn0 O0 2.055909 1_455
Mn0 O7 2.161872 1_565
Mn0 O2 2.183853 1_565
Mn0 O3 2.369359 1_555
Mn1 O3 2.089829 1_555
Mn1 O4 2.099219 1_555
Mn1 O2 2.107347 1_555
Mn1 O7 2.216131 1_555
Mn1 O1 2.383252 1_555
Mn2 O6 2.092604 1_455
Mn2 O8 2.099151 1_555
Mn2 O5 2.130880 1_555
Mn2 O12 2.199212 1_455
Mn2 O11 2.356841 1_565
Mn3 O9 2.084231 1_555
Mn3 O11 2.087123 1_655
Mn3 O12 2.125623 1_555
Mn3 O5 2.184858 1_655
Mn3 O6 2.410215 1_545
Mn4 O15 2.131490 1_555
Mn4 O14 2.135535 1_555
Mn4 O13 2.136231 1_555
Mn4 O10 2.240323 1_555
Mn4 O16 2.264071 1_555
Mn5 O15 1.959346 1_545
Mn5 O17 1.996008 1_655
Mn5 O14 2.001275 1_555
Mn5 O10 2.092130 1_545
Mn5 O16 2.110098 1_555
B0 O0 1.357073 1_555
B0 O1 1.387968 1_555
B0 O15 1.425952 1_554
B1 O4 1.381851 1_555
B1 O3 1.387097 1_655
B1 O5 1.407649 1_655
B2 O8 1.376610 1_555
B2 O6 1.388512 1_555
B2 O10 1.412358 1_555
B3 O9 1.382150 1_555
B3 O7 1.397489 1_555
B3 O11 1.398493 1_555
B4 O13 1.373051 1_555
B4 O12 1.398050 1_455
B4 O14 1.403404 1_455
B5 O17 1.377748 1_555
B5 O2 1.390734 1_556
B5 O16 1.393821 1_555
