# generated using pymatgen
data_Na2VAsCO7
_symmetry_space_group_name_H-M   'P 1'
_cell_length_a   6.76096600
_cell_length_b   10.73543340
_cell_length_c   10.51088204
_cell_angle_alpha   118.91279631
_cell_angle_beta   90.00067938
_cell_angle_gamma   89.99996930
_symmetry_Int_Tables_number   1
_chemical_formula_structural   Na2VAsCO7
_chemical_formula_sum   'Na8 V4 As4 C4 O28'
_cell_volume   667.80934465
_cell_formula_units_Z   4
loop_
 _symmetry_equiv_pos_site_id
 _symmetry_equiv_pos_as_xyz
  1  'x, y, z'
loop_
 _atom_site_type_symbol
 _atom_site_label
 _atom_site_symmetry_multiplicity
 _atom_site_fract_x
 _atom_site_fract_y
 _atom_site_fract_z
 _atom_site_occupancy
  Na  Na0  1  0.49969900  0.22773200  0.21730800  1
  Na  Na1  1  0.49969500  0.72778500  0.21731300  1
  Na  Na2  1  0.00031400  0.22773500  0.21730200  1
  Na  Na3  1  0.00031400  0.72776000  0.21731300  1
  Na  Na4  1  0.50034500  0.77226700  0.78270500  1
  Na  Na5  1  0.50029500  0.27223900  0.78267900  1
  Na  Na6  1  0.99967900  0.77228100  0.78272500  1
  Na  Na7  1  0.99972800  0.27224000  0.78268400  1
  V  V0  1  0.75000300  0.06879500  0.34441600  1
  V  V1  1  0.25002000  0.93113700  0.65554300  1
  V  V2  1  0.74995400  0.56876600  0.34439100  1
  V  V3  1  0.24998400  0.43124100  0.65560500  1
  As  As0  1  0.24997900  0.56620900  0.42311600  1
  As  As1  1  0.25000700  0.06624600  0.42317800  1
  As  As2  1  0.74998100  0.43379100  0.57685600  1
  As  As3  1  0.75001700  0.93374800  0.57684000  1
  C  C0  1  0.74999100  0.40135800  0.07720100  1
  C  C1  1  0.75000800  0.90140500  0.07723600  1
  C  C2  1  0.25000500  0.59865000  0.92278800  1
  C  C3  1  0.25000900  0.09859100  0.92278600  1
  O  O0  1  0.25000800  0.18436200  0.05672500  1
  O  O1  1  0.25000500  0.68440200  0.05672800  1
  O  O2  1  0.75001000  0.81565600  0.94329500  1
  O  O3  1  0.75001200  0.31559500  0.94325600  1
  O  O4  1  0.74997700  0.54076100  0.13356700  1
  O  O5  1  0.75000700  0.04081200  0.13362800  1
  O  O6  1  0.24999900  0.45924200  0.86640600  1
  O  O7  1  0.25001800  0.95920000  0.86642900  1
  O  O8  1  0.74998900  0.35971500  0.17774800  1
  O  O9  1  0.75000900  0.85974600  0.17776500  1
  O  O10  1  0.25000500  0.64029900  0.82224500  1
  O  O11  1  0.25001000  0.14023200  0.82223200  1
  O  O12  1  0.74999900  0.27979800  0.41075400  1
  O  O13  1  0.74999400  0.77978200  0.41074500  1
  O  O14  1  0.24998400  0.72016400  0.58924400  1
  O  O15  1  0.25000100  0.22023700  0.58925000  1
  O  O16  1  0.24997300  0.41966000  0.45005700  1
  O  O17  1  0.25000800  0.91967700  0.45012800  1
  O  O18  1  0.74998100  0.58033700  0.54989900  1
  O  O19  1  0.75001300  0.08032300  0.54991700  1
  O  O20  1  0.04726000  0.55979100  0.32174200  1
  O  O21  1  0.04729600  0.05977800  0.32177600  1
  O  O22  1  0.45268800  0.55979100  0.32173600  1
  O  O23  1  0.45271600  0.05977500  0.32177400  1
  O  O24  1  0.54727800  0.44022900  0.67823800  1
  O  O25  1  0.54730500  0.94021100  0.67824400  1
  O  O26  1  0.95270600  0.44023700  0.67824100  1
  O  O27  1  0.95272100  0.94021200  0.67824400  1
loop_
_geom_bond_atom_site_label_1
_geom_bond_atom_site_label_2
_geom_bond_distance
_geom_bond_site_symmetry_2
Na0 O0 2.270589 1_555
Na0 O8 2.369335 1_555
Na0 O5 2.440834 1_555
Na0 O12 2.492274 1_555
Na0 O23 2.544041 1_555
Na0 O16 2.864772 1_555
Na1 O1 2.270576 1_555
Na1 O9 2.369231 1_555
Na1 O4 2.441410 1_555
Na1 O13 2.492291 1_555
Na1 O22 2.544076 1_555
Na1 O17 2.864849 1_555
Na2 O0 2.270588 1_555
Na2 O8 2.369444 1_455
Na2 O5 2.440840 1_455
Na2 O12 2.492425 1_455
Na2 O21 2.544102 1_555
Na2 O16 2.864494 1_555
Na3 O1 2.270652 1_555
Na3 O9 2.369363 1_455
Na3 O4 2.441481 1_455
Na3 O13 2.492374 1_455
Na3 O20 2.543823 1_555
Na3 O17 2.864926 1_555
Na4 O2 2.270475 1_555
Na4 O10 2.369369 1_555
Na4 O7 2.440996 1_555
Na4 O14 2.492598 1_555
Na4 O25 2.543853 1_555
Na4 O18 2.864723 1_555
Na5 O3 2.270703 1_555
Na5 O11 2.369453 1_555
Na5 O6 2.441337 1_555
Na5 O15 2.492237 1_555
Na5 O24 2.544162 1_555
Na5 O19 2.864770 1_555
Na6 O2 2.270412 1_555
Na6 O10 2.369298 1_655
Na6 O7 2.440950 1_655
Na6 O14 2.492496 1_655
Na6 O27 2.543882 1_555
Na6 O18 2.865090 1_555
Na7 O3 2.270695 1_555
Na7 O11 2.369413 1_655
Na7 O6 2.441202 1_655
Na7 O15 2.492208 1_655
Na7 O26 2.544277 1_555
Na7 O19 2.864755 1_555
As0 O20 1.716845 1_555
As0 O22 1.716849 1_555
As0 O16 1.728046 1_555
As0 O14 1.729184 1_555
As1 O21 1.716839 1_555
As1 O23 1.716853 1_555
As1 O17 1.728316 1_545
As1 O15 1.729043 1_555
As2 O24 1.716774 1_555
As2 O26 1.716869 1_555
As2 O18 1.728116 1_555
As2 O12 1.729226 1_555
As3 O27 1.716826 1_555
As3 O25 1.716892 1_555
As3 O19 1.728208 1_565
As3 O13 1.729050 1_555
C0 O3 1.255553 1_554
C0 O4 1.316559 1_555
C0 O8 1.331772 1_555
C1 O2 1.255492 1_554
C1 O5 1.316571 1_565
C1 O9 1.331715 1_555
C2 O1 1.255490 1_556
C2 O6 1.316592 1_555
C2 O10 1.331779 1_555
C3 O0 1.255521 1_556
C3 O7 1.316450 1_545
C3 O11 1.331827 1_555
O4 V2 2.087248 1_555
O5 V0 2.086960 1_555
O6 V3 2.087024 1_555
O7 V1 2.087665 1_555
O8 V2 2.074510 1_555
O9 V0 2.074523 1_565
O10 V3 2.074551 1_555
O11 V1 2.074984 1_545
O12 V0 2.022396 1_555
O13 V2 2.022496 1_555
O14 V1 2.022170 1_555
O15 V3 2.022371 1_555
O16 V3 2.103199 1_555
O17 V1 2.102372 1_555
O18 V2 2.102826 1_555
O19 V0 2.102955 1_555
O20 V2 2.020939 1_455
O21 V0 2.020838 1_455
O22 V2 2.020670 1_555
O23 V0 2.020794 1_555
O24 V3 2.020835 1_555
O25 V1 2.020834 1_555
O26 V3 2.020735 1_655
O27 V1 2.020934 1_655
