# generated using pymatgen
data_Na22In5O15
_symmetry_space_group_name_H-M   'P 1'
_cell_length_a   9.71998984
_cell_length_b   9.71998984
_cell_length_c   9.67643758
_cell_angle_alpha   70.61395375
_cell_angle_beta   70.61395375
_cell_angle_gamma   109.60001816
_symmetry_Int_Tables_number   1
_chemical_formula_structural   Na22In5O15
_chemical_formula_sum   'Na22 In5 O15'
_cell_volume   704.11925604
_cell_formula_units_Z   1
loop_
 _symmetry_equiv_pos_site_id
 _symmetry_equiv_pos_as_xyz
  1  'x, y, z'
loop_
 _atom_site_type_symbol
 _atom_site_label
 _atom_site_symmetry_multiplicity
 _atom_site_fract_x
 _atom_site_fract_y
 _atom_site_fract_z
 _atom_site_occupancy
  Na  Na0  1  0.25986000  0.71908300  0.27873500  1
  Na  Na1  1  0.71908300  0.25986000  0.27873500  1
  Na  Na2  1  0.43535500  0.21719000  0.56466800  1
  Na  Na3  1  0.21719000  0.43535500  0.56466800  1
  Na  Na4  1  0.44896500  0.44896500  0.26271200  1
  Na  Na5  1  0.22545600  0.78470300  0.78900800  1
  Na  Na6  1  0.78470300  0.22545600  0.78900800  1
  Na  Na7  1  0.75406100  0.45372200  0.52254000  1
  Na  Na8  1  0.29869200  0.99991800  0.43879800  1
  Na  Na9  1  0.45372200  0.75406100  0.52254000  1
  Na  Na10  1  0.99991800  0.29869200  0.43879800  1
  Na  Na11  1  0.21152000  0.21152000  0.22086100  1
  Na  Na12  1  0.56452900  0.78764600  0.00876700  1
  Na  Na13  1  0.78764600  0.56452900  0.00876700  1
  Na  Na14  1  0.55486100  0.00771200  0.72072500  1
  Na  Na15  1  0.00771200  0.55486100  0.72072500  1
  Na  Na16  1  0.99417700  0.77814600  0.43707200  1
  Na  Na17  1  0.77814600  0.99417700  0.43707200  1
  Na  Na18  1  0.71343700  0.71343700  0.74090600  1
  Na  Na19  1  0.26592300  0.54295500  0.01724500  1
  Na  Na20  1  0.54295500  0.26592300  0.01724500  1
  Na  Na21  1  0.44545100  0.44545100  0.77770000  1
  In  In0  1  0.70254100  0.70254100  0.28891300  1
  In  In1  1  0.99228700  0.99228700  0.00218600  1
  In  In2  1  0.00622300  0.00622300  0.69846500  1
  In  In3  1  0.28832500  0.99989300  0.99102100  1
  In  In4  1  0.99989300  0.28832500  0.99102100  1
  O  O0  1  0.46508800  0.66950700  0.31577100  1
  O  O1  1  0.66950700  0.46508800  0.31577100  1
  O  O2  1  0.49121100  0.00255300  0.52174500  1
  O  O3  1  0.00255300  0.49121100  0.52174500  1
  O  O4  1  0.21445700  0.21445700  0.47393400  1
  O  O5  1  0.99660900  0.26954900  0.21779300  1
  O  O6  1  0.22184000  0.52447600  0.78630800  1
  O  O7  1  0.52447600  0.22184000  0.78630800  1
  O  O8  1  0.26954900  0.99660900  0.21779300  1
  O  O9  1  0.78905600  0.00169300  0.69485300  1
  O  O10  1  0.00169300  0.78905600  0.69485300  1
  O  O11  1  0.33502300  0.80274500  0.98952800  1
  O  O12  1  0.80274500  0.33502300  0.98952800  1
  O  O13  1  0.49415600  0.49415600  0.00128300  1
  O  O14  1  0.70043800  0.70043800  0.51330200  1
loop_
_geom_bond_atom_site_label_1
_geom_bond_atom_site_label_2
_geom_bond_distance
_geom_bond_site_symmetry_2
Na0 O0 2.311878 1_555
Na0 O3 2.368973 1_555
Na0 O11 2.399992 1_554
Na0 O8 2.523895 1_555
Na1 O1 2.311878 1_555
Na1 O2 2.368973 1_555
Na1 O12 2.399992 1_554
Na1 O5 2.523895 1_555
Na2 O1 2.369751 1_555
Na2 O2 2.450562 1_555
Na2 O4 2.571070 1_555
Na2 O7 2.573627 1_555
Na3 O0 2.369751 1_555
Na3 O3 2.450562 1_555
Na3 O4 2.571070 1_555
Na3 O6 2.573627 1_555
Na4 O4 2.213006 1_555
Na4 O13 2.276067 1_555
Na4 O0 2.332841 1_555
Na4 O1 2.332841 1_555
Na5 O2 2.470747 1_565
Na5 O6 2.526784 1_555
Na5 O11 2.530258 1_555
Na5 O10 2.629454 1_555
Na6 O3 2.470747 1_655
Na6 O7 2.526784 1_555
Na6 O12 2.530258 1_555
Na6 O9 2.629454 1_555
Na7 O3 2.315605 1_655
Na7 O7 2.366371 1_555
Na7 O1 2.386761 1_555
Na7 O14 2.599543 1_555
Na8 O8 2.257508 1_555
Na8 O2 2.263880 1_565
Na8 O4 2.562396 1_565
Na8 O10 2.565987 1_555
Na9 O2 2.315605 1_565
Na9 O6 2.366371 1_555
Na9 O0 2.386761 1_555
Na9 O14 2.599543 1_555
Na10 O5 2.257508 1_555
Na10 O3 2.263880 1_655
Na10 O4 2.562396 1_655
Na10 O9 2.565987 1_555
Na11 O8 2.345891 1_545
Na11 O5 2.345891 1_455
Na11 O4 2.467943 1_555
Na11 O13 2.606796 1_555
Na12 O11 2.347309 1_554
Na12 O0 2.482433 1_555
Na12 O9 2.583740 1_564
Na12 O13 2.733500 1_555
Na13 O12 2.347309 1_554
Na13 O1 2.482433 1_555
Na13 O10 2.583740 1_654
Na13 O13 2.733500 1_555
Na14 O2 2.219593 1_555
Na14 O9 2.229062 1_555
Na14 O11 2.305350 1_545
Na14 O7 2.446770 1_555
Na15 O3 2.219593 1_555
Na15 O10 2.229062 1_555
Na15 O12 2.305350 1_455
Na15 O6 2.446770 1_555
Na16 O8 2.366623 1_655
Na16 O14 2.460001 1_555
Na16 O10 2.555387 1_655
Na16 O3 2.671348 1_655
Na17 O5 2.366623 1_565
Na17 O14 2.460001 1_555
Na17 O9 2.555387 1_565
Na17 O2 2.671348 1_565
Na18 O14 2.289375 1_555
Na18 O13 2.292572 1_556
Na18 O9 2.482172 1_565
Na18 O10 2.482172 1_655
Na19 O11 2.278685 1_554
Na19 O13 2.386916 1_555
Na19 O6 2.461706 1_554
Na19 O5 2.493489 1_455
Na20 O12 2.278685 1_554
Na20 O13 2.386916 1_555
Na20 O7 2.461706 1_554
Na20 O8 2.493489 1_545
Na21 O14 2.508159 1_555
Na21 O13 2.517625 1_556
Na21 O6 2.522579 1_555
Na21 O7 2.522579 1_555
In0 O0 2.132343 1_555
In0 O1 2.132343 1_555
In0 O14 2.157802 1_555
In0 In1 2.804483 1_555
In1 In3 2.818273 1_654
In1 In4 2.818273 1_564
In1 In2 2.851871 1_664
In2 O4 2.080060 1_555
In2 O10 2.108681 1_545
In2 O9 2.108681 1_455
In3 O11 2.115640 1_555
In3 O8 2.129133 1_556
In3 O7 2.160796 1_565
In4 O12 2.115640 1_555
In4 O5 2.129133 1_556
In4 O6 2.160796 1_655
