# generated using pymatgen
data_ZrO2
_symmetry_space_group_name_H-M   'P 1'
_cell_length_a   3.28683600
_cell_length_b   5.04827000
_cell_length_c   20.08397800
_cell_angle_alpha   90.00000000
_cell_angle_beta   90.00000000
_cell_angle_gamma   90.00000000
_symmetry_Int_Tables_number   1
_chemical_formula_structural   ZrO2
_chemical_formula_sum   'Zr8 O16'
_cell_volume   333.25014462
_cell_formula_units_Z   8
loop_
 _symmetry_equiv_pos_site_id
 _symmetry_equiv_pos_as_xyz
  1  'x, y, z'
loop_
 _atom_site_type_symbol
 _atom_site_label
 _atom_site_symmetry_multiplicity
 _atom_site_fract_x
 _atom_site_fract_y
 _atom_site_fract_z
 _atom_site_occupancy
  Zr  Zr0  1  0.25000000  0.07491300  0.56944200  1
  Zr  Zr1  1  0.75000000  0.57578900  0.68943100  1
  Zr  Zr2  1  0.25000000  0.07578900  0.81056900  1
  Zr  Zr3  1  0.75000000  0.57491300  0.93055800  1
  Zr  Zr4  1  0.25000000  0.42508700  0.06944200  1
  Zr  Zr5  1  0.75000000  0.92421100  0.18943100  1
  Zr  Zr6  1  0.25000000  0.42421100  0.31056900  1
  Zr  Zr7  1  0.75000000  0.92508700  0.43055800  1
  O  O0  1  0.75000000  0.20722500  0.51250800  1
  O  O1  1  0.25000000  0.39289100  0.63796300  1
  O  O2  1  0.75000000  0.88402500  0.61912900  1
  O  O3  1  0.75000000  0.25608200  0.76072300  1
  O  O4  1  0.25000000  0.75608200  0.73927700  1
  O  O5  1  0.25000000  0.38402500  0.88087100  1
  O  O6  1  0.75000000  0.89289100  0.86203700  1
  O  O7  1  0.25000000  0.70722500  0.98749200  1
  O  O8  1  0.75000000  0.29277500  0.01250800  1
  O  O9  1  0.25000000  0.10710900  0.13796300  1
  O  O10  1  0.75000000  0.61597500  0.11912900  1
  O  O11  1  0.75000000  0.24391800  0.26072300  1
  O  O12  1  0.25000000  0.74391800  0.23927700  1
  O  O13  1  0.25000000  0.11597500  0.38087100  1
  O  O14  1  0.75000000  0.60710900  0.36203700  1
  O  O15  1  0.25000000  0.79277500  0.48749200  1
loop_
_geom_bond_atom_site_label_1
_geom_bond_atom_site_label_2
_geom_bond_distance
_geom_bond_site_symmetry_2
O0 Zr0 2.110564 1_655
O0 Zr0 2.110564 1_555
O0 Zr7 2.176599 1_545
O1 Zr0 2.114390 1_555
O1 Zr1 2.149846 1_555
O1 Zr1 2.149846 1_455
O2 Zr1 2.101167 1_555
O2 Zr0 2.150647 1_565
O2 Zr0 2.150647 1_665
O3 Zr2 2.128718 1_555
O3 Zr2 2.128718 1_655
O3 Zr1 2.157549 1_555
O4 Zr1 2.128718 1_555
O4 Zr1 2.128718 1_455
O4 Zr2 2.157549 1_565
O5 Zr2 2.101167 1_555
O5 Zr3 2.150647 1_555
O5 Zr3 2.150647 1_455
O6 Zr3 2.114390 1_555
O6 Zr2 2.149846 1_565
O6 Zr2 2.149846 1_665
O7 Zr3 2.110564 1_455
O7 Zr3 2.110564 1_555
O7 Zr4 2.176599 1_556
O8 Zr4 2.110564 1_555
O8 Zr4 2.110564 1_655
O8 Zr3 2.176599 1_554
O9 Zr4 2.114390 1_555
O9 Zr5 2.149846 1_445
O9 Zr5 2.149846 1_545
O10 Zr5 2.101167 1_555
O10 Zr4 2.150647 1_555
O10 Zr4 2.150647 1_655
O11 Zr6 2.128718 1_655
O11 Zr6 2.128718 1_555
O11 Zr5 2.157549 1_545
O12 Zr5 2.128718 1_455
O12 Zr5 2.128718 1_555
O12 Zr6 2.157549 1_555
O13 Zr6 2.101167 1_555
O13 Zr7 2.150647 1_445
O13 Zr7 2.150647 1_545
O14 Zr7 2.114390 1_555
O14 Zr6 2.149846 1_655
O14 Zr6 2.149846 1_555
O15 Zr7 2.110564 1_455
O15 Zr7 2.110564 1_555
O15 Zr0 2.176599 1_565
