# generated using pymatgen
data_ThAs2
_symmetry_space_group_name_H-M   'P 1'
_cell_length_a   4.10575996
_cell_length_b   4.10575996
_cell_length_c   8.60776039
_cell_angle_alpha   90.00000000
_cell_angle_beta   90.00000000
_cell_angle_gamma   90.00000000
_symmetry_Int_Tables_number   1
_chemical_formula_structural   ThAs2
_chemical_formula_sum   'Th2 As4'
_cell_volume   145.10329665
_cell_formula_units_Z   2
loop_
 _symmetry_equiv_pos_site_id
 _symmetry_equiv_pos_as_xyz
  1  'x, y, z'
loop_
 _atom_site_type_symbol
 _atom_site_label
 _atom_site_symmetry_multiplicity
 _atom_site_fract_x
 _atom_site_fract_y
 _atom_site_fract_z
 _atom_site_occupancy
  Th  Th0  1  0.75000000  0.75000000  0.28120287  1
  Th  Th1  1  0.25000000  0.25000000  0.71879713  1
  As  As0  1  0.25000000  0.75000000  0.00000000  1
  As  As1  1  0.75000000  0.25000000  0.00000000  1
  As  As2  1  0.75000000  0.75000000  0.63658688  1
  As  As3  1  0.25000000  0.25000000  0.36341312  1
loop_
_geom_bond_atom_site_label_1
_geom_bond_atom_site_label_2
_geom_bond_distance
_geom_bond_site_symmetry_2
As0 As1 2.903211 1_565
As0 As1 2.903211 1_465
As0 As1 2.903211 1_455
As0 As1 2.903211 1_555
As0 Th1 3.173841 1_564
As0 Th0 3.173841 1_555
As0 Th1 3.173841 1_554
As0 Th0 3.173841 1_455
As1 Th1 3.173841 1_654
As1 Th0 3.173841 1_555
As1 Th0 3.173841 1_545
As1 Th1 3.173841 1_554
As2 Th1 2.988209 1_565
As2 Th1 2.988209 1_555
As2 Th1 2.988209 1_655
As2 Th1 2.988209 1_665
As2 Th0 3.059060 1_555
As3 Th0 2.988209 1_445
As3 Th0 2.988209 1_555
As3 Th0 2.988209 1_545
As3 Th0 2.988209 1_455
As3 Th1 3.059060 1_555
