# generated using pymatgen
data_Li3Fe4(BO3)4
_symmetry_space_group_name_H-M   'P 1'
_cell_length_a   5.23836700
_cell_length_b   5.26033951
_cell_length_c   10.03285454
_cell_angle_alpha   91.46551225
_cell_angle_beta   89.61809211
_cell_angle_gamma   119.80832516
_symmetry_Int_Tables_number   1
_chemical_formula_structural   Li3Fe4(BO3)4
_chemical_formula_sum   'Li3 Fe4 B4 O12'
_cell_volume   239.79923085
_cell_formula_units_Z   1
loop_
 _symmetry_equiv_pos_site_id
 _symmetry_equiv_pos_as_xyz
  1  'x, y, z'
loop_
 _atom_site_type_symbol
 _atom_site_label
 _atom_site_symmetry_multiplicity
 _atom_site_fract_x
 _atom_site_fract_y
 _atom_site_fract_z
 _atom_site_occupancy
  Li  Li0  1  0.02253900  0.34992100  0.33740000  1
  Li  Li1  1  0.97462400  0.32603400  0.83375700  1
  Li  Li2  1  0.98932200  0.65605300  0.09574800  1
  Fe  Fe0  1  0.33904000  0.32641400  0.61550100  1
  Fe  Fe1  1  0.31134100  0.99510600  0.86857700  1
  Fe  Fe2  1  0.66122900  0.99107200  0.12093200  1
  Fe  Fe3  1  0.67549800  0.67341000  0.37018300  1
  B  B0  1  0.66131500  0.66688400  0.87283500  1
  B  B1  1  0.66495000  0.99169400  0.62326900  1
  B  B2  1  0.34242700  0.99995400  0.36997100  1
  B  B3  1  0.33423100  0.33071200  0.12431000  1
  O  O0  1  0.62876900  0.72647300  0.57505800  1
  O  O1  1  0.66888100  0.92840900  0.90814100  1
  O  O2  1  0.39711200  0.42602300  0.82496700  1
  O  O3  1  0.42074400  0.01589300  0.65867300  1
  O  O4  1  0.07707300  0.34035200  0.13549300  1
  O  O5  1  0.94053500  0.23099100  0.64053100  1
  O  O6  1  0.08771100  0.73958300  0.36285900  1
  O  O7  1  0.90859200  0.64034300  0.88772500  1
  O  O8  1  0.61297000  0.02863300  0.33232700  1
  O  O9  1  0.60325200  0.57922300  0.15956200  1
  O  O10  1  0.32951200  0.07546600  0.08089200  1
  O  O11  1  0.33707900  0.25687200  0.41457400  1
loop_
_geom_bond_atom_site_label_1
_geom_bond_atom_site_label_2
_geom_bond_distance
_geom_bond_site_symmetry_2
Li0 O6 1.913623 1_555
Li0 O8 1.963182 1_455
Li0 O4 2.046700 1_555
Li0 O11 2.095739 1_555
Li1 O7 1.914877 1_555
Li1 O5 1.976443 1_555
Li1 O2 2.006217 1_655
Li1 O1 2.056791 1_545
Li2 O9 1.961279 1_555
Li2 O4 1.980776 1_655
Li2 O10 2.042031 1_665
Li2 O7 2.123607 1_554
Fe0 O5 1.905371 1_455
Fe0 O0 1.938254 1_555
Fe0 O3 1.942331 1_555
Fe0 O11 2.038745 1_555
Fe0 O2 2.139462 1_555
Fe1 O7 2.017216 1_455
Fe1 O1 2.111597 1_555
Fe1 O2 2.137079 1_565
Fe1 O10 2.154490 1_566
Fe1 O3 2.169965 1_565
Fe2 O4 2.038062 1_665
Fe2 O10 2.040411 1_565
Fe2 O9 2.079242 1_555
Fe2 O8 2.149935 1_565
Fe2 O1 2.155009 1_554
Fe3 O6 2.010262 1_655
Fe3 O11 2.078379 1_555
Fe3 O8 2.095146 1_565
Fe3 O0 2.096356 1_555
Fe3 O9 2.150514 1_555
B0 O7 1.379539 1_555
B0 O1 1.393081 1_555
B0 O2 1.409172 1_555
B1 O5 1.372617 1_565
B1 O0 1.385694 1_555
B1 O3 1.390092 1_565
B2 O6 1.356730 1_555
B2 O8 1.398958 1_565
B2 O11 1.426206 1_565
B3 O4 1.376740 1_555
B3 O10 1.389382 1_555
B3 O9 1.404061 1_555
