# generated using pymatgen
data_Li4V3Co(PO4)4
_symmetry_space_group_name_H-M   'P 1'
_cell_length_a   6.05939000
_cell_length_b   4.74765300
_cell_length_c   10.43804489
_cell_angle_alpha   89.84360353
_cell_angle_beta   90.00000000
_cell_angle_gamma   90.00000000
_symmetry_Int_Tables_number   1
_chemical_formula_structural   Li4V3Co(PO4)4
_chemical_formula_sum   'Li4 V3 Co1 P4 O16'
_cell_volume   300.27931565
_cell_formula_units_Z   1
loop_
 _symmetry_equiv_pos_site_id
 _symmetry_equiv_pos_as_xyz
  1  'x, y, z'
loop_
 _atom_site_type_symbol
 _atom_site_label
 _atom_site_symmetry_multiplicity
 _atom_site_fract_x
 _atom_site_fract_y
 _atom_site_fract_z
 _atom_site_occupancy
  Li  Li0  1  0.25170100  0.99856000  0.00208800  1
  Li  Li1  1  0.74829900  0.99856000  0.00208800  1
  Li  Li2  1  0.74991100  0.50004200  0.49918300  1
  Li  Li3  1  0.25008900  0.50004200  0.49918300  1
  V  V0  1  0.50000000  0.51492800  0.77486500  1
  V  V1  1  0.00000000  0.48292600  0.22520500  1
  V  V2  1  0.00000000  0.01680500  0.72388600  1
  Co  Co0  1  0.50000000  0.98813900  0.27493900  1
  P  P0  1  0.00000000  0.91820300  0.40645100  1
  P  P1  1  0.00000000  0.58550100  0.90764300  1
  P  P2  1  0.50000000  0.41140600  0.09450400  1
  P  P3  1  0.50000000  0.08449700  0.59061800  1
  O  O0  1  0.00000000  0.79355700  0.54380200  1
  O  O1  1  0.20395000  0.78339500  0.33540300  1
  O  O2  1  0.79605000  0.78339500  0.33540300  1
  O  O3  1  0.50000000  0.76173700  0.59648500  1
  O  O4  1  0.50000000  0.73413000  0.09839000  1
  O  O5  1  0.20353200  0.72238000  0.83793400  1
  O  O6  1  0.79646800  0.72238000  0.83793400  1
  O  O7  1  0.00000000  0.70630500  0.04601100  1
  O  O8  1  0.50000000  0.29284800  0.95605200  1
  O  O9  1  0.70394200  0.27272000  0.16502000  1
  O  O10  1  0.29605800  0.27272000  0.16502000  1
  O  O11  1  0.00000000  0.26298000  0.90369100  1
  O  O12  1  0.00000000  0.24184000  0.40398300  1
  O  O13  1  0.70278600  0.22230600  0.66101800  1
  O  O14  1  0.29721400  0.22230600  0.66101800  1
  O  O15  1  0.50000000  0.20539600  0.45218200  1
loop_
_geom_bond_atom_site_label_1
_geom_bond_atom_site_label_2
_geom_bond_distance
_geom_bond_site_symmetry_2
Li0 O8 2.107839 1_564
Li0 O7 2.111408 1_555
Li0 O10 2.161223 1_565
Li0 O5 2.180050 1_554
Li0 O4 2.200744 1_555
Li0 O11 2.224837 1_564
Li1 O8 2.107839 1_564
Li1 O7 2.111408 1_655
Li1 O9 2.161223 1_565
Li1 O6 2.180050 1_554
Li1 O4 2.200744 1_555
Li1 O11 2.224837 1_664
Li2 O0 2.111566 1_655
Li2 O15 2.120005 1_555
Li2 O13 2.159075 1_555
Li2 O12 2.189339 1_655
Li2 O2 2.190405 1_555
Li2 O3 2.207985 1_555
Li3 O0 2.111566 1_555
Li3 O15 2.120005 1_555
Li3 O14 2.159075 1_555
Li3 O12 2.189339 1_555
Li3 O1 2.190405 1_555
Li3 O3 2.207985 1_555
Co0 O15 2.120634 1_565
Co0 O1 2.134918 1_555
Co0 O2 2.134918 1_555
Co0 O9 2.158816 1_565
Co0 O10 2.158816 1_565
Co0 O4 2.205096 1_555
O0 P0 1.549514 1_555
O0 V2 2.160472 1_565
O1 P0 1.577791 1_555
O1 V1 2.212292 1_555
O2 P0 1.577791 1_655
O2 V1 2.212292 1_655
O3 P3 1.533409 1_565
O3 V0 2.197256 1_555
O4 P2 1.532829 1_555
O5 P1 1.571670 1_555
O5 V0 2.152691 1_555
O5 V2 2.209742 1_565
O6 P1 1.571670 1_655
O6 V0 2.152691 1_555
O6 V2 2.209742 1_665
O7 P1 1.555456 1_554
O7 V1 2.147653 1_555
O8 P2 1.552346 1_556
O8 V0 2.162769 1_555
O9 P2 1.581066 1_555
O9 V1 2.147612 1_655
O10 P2 1.581066 1_555
O10 V1 2.147612 1_555
O11 P1 1.531886 1_555
O11 V2 2.213681 1_555
O12 P0 1.536662 1_545
O12 V1 2.186489 1_555
O13 P3 1.574970 1_555
O13 V2 2.149973 1_655
O13 V0 2.204786 1_555
O14 P3 1.574970 1_555
O14 V2 2.149973 1_555
O14 V0 2.204786 1_555
O15 P3 1.553371 1_555
