# generated using pymatgen
data_Li4Ti2Fe3Sb3O16
_symmetry_space_group_name_H-M   'P 1'
_cell_length_a   6.14136902
_cell_length_b   9.79301957
_cell_length_c   10.87684679
_cell_angle_alpha   91.64074106
_cell_angle_beta   90.20899320
_cell_angle_gamma   89.81938703
_symmetry_Int_Tables_number   1
_chemical_formula_structural   Li4Ti2Fe3Sb3O16
_chemical_formula_sum   'Li8 Ti4 Fe6 Sb6 O32'
_cell_volume   653.88567905
_cell_formula_units_Z   2
loop_
 _symmetry_equiv_pos_site_id
 _symmetry_equiv_pos_as_xyz
  1  'x, y, z'
loop_
 _atom_site_type_symbol
 _atom_site_label
 _atom_site_symmetry_multiplicity
 _atom_site_fract_x
 _atom_site_fract_y
 _atom_site_fract_z
 _atom_site_occupancy
  Li  Li0  1  0.49996600  0.89467400  0.17269900  1
  Li  Li1  1  0.99997900  0.89423100  0.67222300  1
  Li  Li2  1  0.50041700  0.98343900  0.48768200  1
  Li  Li3  1  0.99956800  0.98377100  0.98753800  1
  Li  Li4  1  0.49839900  0.50343100  0.49850300  1
  Li  Li5  1  0.99976000  0.50410400  0.99756000  1
  Li  Li6  1  0.00042200  0.40106400  0.32040100  1
  Li  Li7  1  0.50141500  0.40108200  0.82059400  1
  Ti  Ti0  1  0.50182100  0.50318000  0.18070800  1
  Ti  Ti1  1  0.00264500  0.50239400  0.68072100  1
  Ti  Ti2  1  0.99873800  0.97143900  0.36202500  1
  Ti  Ti3  1  0.49822800  0.97143300  0.86265800  1
  Fe  Fe0  1  0.24386700  0.70922600  0.42181500  1
  Fe  Fe1  1  0.74358300  0.70967400  0.92196400  1
  Fe  Fe2  1  0.75691600  0.70819200  0.42227300  1
  Fe  Fe3  1  0.25665400  0.70920300  0.92176400  1
  Fe  Fe4  1  0.00122800  0.21328400  0.82497900  1
  Fe  Fe5  1  0.50040700  0.21386500  0.32473500  1
  Sb  Sb0  1  0.00084000  0.71678500  0.17793200  1
  Sb  Sb1  1  0.50011400  0.71697100  0.67778700  1
  Sb  Sb2  1  0.74497400  0.21669800  0.07756600  1
  Sb  Sb3  1  0.24612900  0.21679400  0.57762500  1
  Sb  Sb4  1  0.25237800  0.21797100  0.07864300  1
  Sb  Sb5  1  0.75354300  0.21654800  0.57824100  1
  O  O0  1  0.50050200  0.33825000  0.00760200  1
  O  O1  1  0.00020300  0.33751000  0.50760000  1
  O  O2  1  0.50144600  0.10360200  0.15314300  1
  O  O3  1  0.00360000  0.10281400  0.65286600  1
  O  O4  1  0.99526300  0.31762600  0.99757600  1
  O  O5  1  0.49754500  0.31690900  0.49748100  1
  O  O6  1  0.99953900  0.79958200  0.01233800  1
  O  O7  1  0.49780800  0.80008500  0.51307900  1
  O  O8  1  0.99804200  0.10617300  0.14764700  1
  O  O9  1  0.49873400  0.10573400  0.64753300  1
  O  O10  1  0.50549700  0.58251900  0.33010600  1
  O  O11  1  0.00209000  0.58145800  0.82935500  1
  O  O12  1  0.00344100  0.60448600  0.32905700  1
  O  O13  1  0.50128200  0.60541900  0.83001500  1
  O  O14  1  0.99540000  0.85578900  0.48710200  1
  O  O15  1  0.49748700  0.85747400  0.98811000  1
  O  O16  1  0.75280300  0.59432800  0.10010300  1
  O  O17  1  0.25207200  0.59438100  0.60012000  1
  O  O18  1  0.24907500  0.59437800  0.09981800  1
  O  O19  1  0.74726500  0.59391200  0.59967000  1
  O  O20  1  0.72022100  0.34441200  0.22622500  1
  O  O21  1  0.22257300  0.34558700  0.72523700  1
  O  O22  1  0.28154000  0.34610100  0.22761700  1
  O  O23  1  0.78276100  0.34339200  0.72835400  1
  O  O24  1  0.21333600  0.84978300  0.25998000  1
  O  O25  1  0.71274600  0.84955500  0.76027000  1
  O  O26  1  0.78696900  0.84887900  0.25973600  1
  O  O27  1  0.28599700  0.84880100  0.75980800  1
  O  O28  1  0.24773800  0.09202700  0.41926600  1
  O  O29  1  0.74574400  0.09172100  0.91989600  1
  O  O30  1  0.75081800  0.09113900  0.41772100  1
  O  O31  1  0.24906900  0.09239100  0.91693500  1
loop_
_geom_bond_atom_site_label_1
_geom_bond_atom_site_label_2
_geom_bond_distance
_geom_bond_site_symmetry_2
Li0 O15 2.030251 1_554
Li0 O26 2.052128 1_555
Li0 O24 2.057703 1_555
Li0 O2 2.063164 1_565
Li1 O14 2.037910 1_555
Li1 O27 2.048914 1_655
Li1 O3 2.059665 1_665
Li1 O25 2.064328 1_555
Li2 O7 1.824643 1_555
Li2 O28 2.029567 1_565
Li2 O30 2.030032 1_565
Li2 O9 2.082845 1_565
Li3 O6 1.831448 1_556
Li3 O29 2.028449 1_565
Li3 O31 2.033405 1_665
Li3 O8 2.085713 1_566
Li4 O5 1.826353 1_555
Li4 O10 2.009642 1_555
Li4 O17 2.061741 1_555
Li4 O19 2.066966 1_555
Li5 O4 1.826484 1_555
Li5 O11 2.000224 1_655
Li5 O16 2.066973 1_556
Li5 O18 2.074324 1_656
Li6 O12 1.991786 1_555
Li6 O22 2.065083 1_555
Li6 O20 2.068549 1_455
Li6 O1 2.146114 1_555
Li7 O13 2.000764 1_555
Li7 O21 2.065016 1_555
Li7 O23 2.070084 1_555
Li7 O0 2.141917 1_556
Fe0 O7 2.038665 1_555
Fe0 O12 2.046855 1_555
Fe0 O14 2.197390 1_455
Fe0 O10 2.246030 1_555
Fe0 O17 2.269920 1_555
Fe0 O24 2.272236 1_555
Fe1 O6 2.039684 1_556
Fe1 O13 2.048703 1_555
Fe1 O15 2.198033 1_555
Fe1 O11 2.244623 1_655
Fe1 O25 2.267018 1_555
Fe1 O16 2.271026 1_556
Fe2 O7 2.066170 1_555
Fe2 O12 2.072235 1_655
Fe2 O14 2.163102 1_555
Fe2 O10 2.198589 1_555
Fe2 O19 2.259195 1_555
Fe2 O26 2.280605 1_555
Fe3 O6 2.049360 1_456
Fe3 O13 2.056491 1_555
Fe3 O15 2.182302 1_555
Fe3 O11 2.224473 1_555
Fe3 O18 2.267819 1_556
Fe3 O27 2.268547 1_555
Fe4 O4 2.111913 1_455
Fe4 O3 2.135243 1_555
Fe4 O23 2.140969 1_455
Fe4 O31 2.182682 1_555
Fe4 O21 2.192231 1_555
Fe4 O29 2.244741 1_455
Fe5 O5 2.107262 1_555
Fe5 O2 2.129327 1_555
Fe5 O22 2.157909 1_555
Fe5 O20 2.169047 1_555
Fe5 O30 2.208851 1_555
Fe5 O28 2.232100 1_555
O0 Sb2 2.069423 1_555
O0 Sb4 2.092501 1_555
O0 Ti0 2.445353 1_555
O1 Sb3 2.071385 1_555
O1 Sb5 2.088118 1_455
O1 Ti1 2.445216 1_555
O2 Sb2 2.052017 1_555
O2 Sb4 2.069524 1_555
O3 Sb3 2.050817 1_555
O3 Sb5 2.071141 1_455
O4 Sb2 2.040880 1_556
O4 Sb4 2.062203 1_656
O5 Sb3 2.042911 1_555
O5 Sb5 2.058870 1_555
O6 Sb0 1.996273 1_655
O7 Sb1 1.988825 1_555
O8 Sb2 2.048428 1_555
O8 Sb4 2.065947 1_655
O8 Ti2 2.711851 1_545
O9 Sb3 2.048377 1_555
O9 Sb5 2.064142 1_555
O9 Ti3 2.716827 1_545
O10 Ti0 1.781092 1_555
O11 Ti1 1.772421 1_555
O12 Sb0 2.003715 1_555
O13 Sb1 2.009588 1_555
O14 Ti2 1.795134 1_555
O15 Ti3 1.787368 1_555
O16 Ti0 2.001147 1_555
O16 Sb0 2.102174 1_655
O17 Ti1 1.997567 1_555
O17 Sb1 2.102252 1_555
O18 Ti0 2.001842 1_555
O18 Sb0 2.102987 1_555
O19 Ti1 2.016568 1_655
O19 Sb1 2.101747 1_555
O20 Sb2 2.021549 1_555
O20 Ti0 2.118413 1_555
O21 Sb3 2.018444 1_555
O21 Ti1 2.107502 1_555
O22 Sb4 2.028548 1_555
O22 Ti0 2.125998 1_555
O23 Sb5 2.030823 1_555
O23 Ti1 2.140356 1_655
O24 Sb0 2.032616 1_555
O24 Ti2 2.076849 1_455
O25 Sb1 2.032587 1_555
O25 Ti3 2.079690 1_555
O26 Sb0 2.030313 1_655
O26 Ti2 2.071870 1_555
O27 Sb1 2.030680 1_555
O27 Ti3 2.077216 1_555
O28 Ti2 2.020643 1_445
O28 Sb3 2.083112 1_555
O29 Ti3 2.012036 1_545
O29 Sb2 2.078184 1_556
O30 Ti2 2.003528 1_545
O30 Sb5 2.105721 1_555
O31 Ti3 2.012022 1_545
O31 Sb4 2.117192 1_556
