# generated using pymatgen
data_Cr3CoTe2(PO4)6
_symmetry_space_group_name_H-M   'P 1'
_cell_length_a   8.85048658
_cell_length_b   8.85048658
_cell_length_c   8.85048583
_cell_angle_alpha   58.51002166
_cell_angle_beta   58.51002166
_cell_angle_gamma   58.51002082
_symmetry_Int_Tables_number   1
_chemical_formula_structural   Cr3CoTe2(PO4)6
_chemical_formula_sum   'Cr3 Co1 Te2 P6 O24'
_cell_volume   473.50698339
_cell_formula_units_Z   1
loop_
 _symmetry_equiv_pos_site_id
 _symmetry_equiv_pos_as_xyz
  1  'x, y, z'
loop_
 _atom_site_type_symbol
 _atom_site_label
 _atom_site_symmetry_multiplicity
 _atom_site_fract_x
 _atom_site_fract_y
 _atom_site_fract_z
 _atom_site_occupancy
  Cr  Cr0  1  0.64635500  0.64635500  0.64635500  1
  Cr  Cr1  1  0.85653400  0.85653400  0.85653400  1
  Cr  Cr2  1  0.35282700  0.35282700  0.35282700  1
  Co  Co0  1  0.15803600  0.15803600  0.15803600  1
  Te  Te0  1  0.01364000  0.01364000  0.01364000  1
  Te  Te1  1  0.50458900  0.50458900  0.50458900  1
  P  P0  1  0.54382200  0.95697600  0.24850500  1
  P  P1  1  0.24850500  0.54382200  0.95697600  1
  P  P2  1  0.95697600  0.24850500  0.54382200  1
  P  P3  1  0.03658700  0.74512800  0.46204600  1
  P  P4  1  0.74512800  0.46204600  0.03658700  1
  P  P5  1  0.46204600  0.03658700  0.74512800  1
  O  O0  1  0.29973400  0.50960100  0.11476100  1
  O  O1  1  0.11476100  0.29973400  0.50960100  1
  O  O2  1  0.50960100  0.11476100  0.29973400  1
  O  O3  1  0.74070800  0.93254000  0.08605300  1
  O  O4  1  0.56866900  0.76267200  0.42132400  1
  O  O5  1  0.39322200  0.97380000  0.20201400  1
  O  O6  1  0.08605300  0.74070800  0.93254000  1
  O  O7  1  0.42132400  0.56866900  0.76267200  1
  O  O8  1  0.76267200  0.42132400  0.56866900  1
  O  O9  1  0.00621600  0.80666800  0.60962700  1
  O  O10  1  0.05948100  0.91512900  0.25840400  1
  O  O11  1  0.80666800  0.60962700  0.00621600  1
  O  O12  1  0.20201400  0.39322200  0.97380000  1
  O  O13  1  0.93254000  0.08605300  0.74070800  1
  O  O14  1  0.97380000  0.20201400  0.39322200  1
  O  O15  1  0.23036900  0.58176500  0.43356500  1
  O  O16  1  0.58176500  0.43356500  0.23036900  1
  O  O17  1  0.91512900  0.25840400  0.05948100  1
  O  O18  1  0.60962700  0.00621600  0.80666800  1
  O  O19  1  0.43356500  0.23036900  0.58176500  1
  O  O20  1  0.25840400  0.05948100  0.91512900  1
  O  O21  1  0.48895800  0.87937200  0.70030300  1
  O  O22  1  0.87937200  0.70030300  0.48895800  1
  O  O23  1  0.70030300  0.48895800  0.87937200  1
loop_
_geom_bond_atom_site_label_1
_geom_bond_atom_site_label_2
_geom_bond_distance
_geom_bond_site_symmetry_2
Cr0 O23 1.937579 1_555
Cr0 O21 1.937579 1_555
Cr0 O22 1.937579 1_555
Cr0 O4 2.012038 1_555
Cr0 O8 2.012038 1_555
Cr0 O7 2.012038 1_555
Cr1 O9 2.024225 1_655
Cr1 O18 2.024225 1_565
Cr1 O11 2.024225 1_556
Cr1 O3 2.039967 1_556
Cr1 O6 2.039967 1_655
Cr1 O13 2.039967 1_565
Cr2 O0 1.970908 1_555
Cr2 O2 1.970908 1_555
Cr2 O1 1.970908 1_555
Cr2 O19 2.049418 1_555
Cr2 O15 2.049418 1_555
Cr2 O16 2.049418 1_555
Co0 O14 1.944364 1_455
Co0 O5 1.944364 1_545
Co0 O12 1.944364 1_554
Co0 O20 2.307867 1_554
Co0 O17 2.307867 1_455
Co0 O10 2.307868 1_545
O0 P1 1.524332 1_554
O1 P2 1.524332 1_455
O2 P0 1.524332 1_545
O3 P0 1.569774 1_555
O3 Te0 2.544488 1_665
O4 P0 1.597991 1_555
O4 Te1 2.289171 1_555
O5 P0 1.506540 1_555
O6 P1 1.569774 1_555
O6 Te0 2.544487 1_566
O7 P1 1.597991 1_555
O7 Te1 2.289171 1_555
O8 P2 1.597991 1_555
O8 Te1 2.289171 1_555
O9 P3 1.516063 1_555
O10 P3 1.630104 1_555
O10 Te0 2.047689 1_565
O11 P4 1.516063 1_555
O12 P1 1.506540 1_555
O13 P2 1.569774 1_555
O13 Te0 2.544487 1_656
O14 P2 1.506540 1_555
O15 P3 1.560127 1_555
O15 Te1 2.483005 1_555
O16 P4 1.560127 1_555
O16 Te1 2.483005 1_555
O17 P4 1.630104 1_555
O17 Te0 2.047689 1_655
O18 P5 1.516063 1_555
O19 P5 1.560127 1_555
O19 Te1 2.483005 1_555
O20 P5 1.630104 1_555
O20 Te0 2.047689 1_556
O21 P5 1.510608 1_565
O22 P3 1.510608 1_655
O23 P4 1.510607 1_556
