# generated using pymatgen
data_LiV(PO3)3
_symmetry_space_group_name_H-M   'P 1'
_cell_length_a   5.22871400
_cell_length_b   12.24352900
_cell_length_c   13.20258800
_cell_angle_alpha   90.00000000
_cell_angle_beta   90.00000000
_cell_angle_gamma   90.00000000
_symmetry_Int_Tables_number   1
_chemical_formula_structural   LiV(PO3)3
_chemical_formula_sum   'Li4 V4 P12 O36'
_cell_volume   845.20211005
_cell_formula_units_Z   4
loop_
 _symmetry_equiv_pos_site_id
 _symmetry_equiv_pos_as_xyz
  1  'x, y, z'
loop_
 _atom_site_type_symbol
 _atom_site_label
 _atom_site_symmetry_multiplicity
 _atom_site_fract_x
 _atom_site_fract_y
 _atom_site_fract_z
 _atom_site_occupancy
  Li  Li0  1  0.00249500  0.01178400  0.25000000  1
  Li  Li1  1  0.00249500  0.48821600  0.75000000  1
  Li  Li2  1  0.99750500  0.51178400  0.25000000  1
  Li  Li3  1  0.99750500  0.98821600  0.75000000  1
  V  V0  1  0.00000000  0.00000000  0.00000000  1
  V  V1  1  0.00000000  0.50000000  0.00000000  1
  V  V2  1  0.00000000  0.00000000  0.50000000  1
  V  V3  1  0.00000000  0.50000000  0.50000000  1
  P  P0  1  0.24779600  0.75000000  0.00000000  1
  P  P1  1  0.24779600  0.75000000  0.50000000  1
  P  P2  1  0.50610900  0.08728500  0.63962000  1
  P  P3  1  0.50610900  0.41271500  0.13962000  1
  P  P4  1  0.50610900  0.08728500  0.86038000  1
  P  P5  1  0.50610900  0.41271500  0.36038000  1
  P  P6  1  0.49389100  0.58728500  0.63962000  1
  P  P7  1  0.49389100  0.91271500  0.36038000  1
  P  P8  1  0.49389100  0.91271500  0.13962000  1
  P  P9  1  0.49389100  0.58728500  0.86038000  1
  P  P10  1  0.75220400  0.25000000  0.00000000  1
  P  P11  1  0.75220400  0.25000000  0.50000000  1
  O  O0  1  0.10284800  0.66143400  0.05277400  1
  O  O1  1  0.10284800  0.66143400  0.44722600  1
  O  O2  1  0.10284800  0.83856600  0.55277400  1
  O  O3  1  0.10284800  0.83856600  0.94722600  1
  O  O4  1  0.23317800  0.45065900  0.13216900  1
  O  O5  1  0.23317800  0.04934100  0.63216900  1
  O  O6  1  0.23317800  0.45065900  0.36783100  1
  O  O7  1  0.23317800  0.04934100  0.86783100  1
  O  O8  1  0.28419900  0.99555800  0.12105600  1
  O  O9  1  0.28419900  0.99555800  0.37894400  1
  O  O10  1  0.28419900  0.50444200  0.87894400  1
  O  O11  1  0.28419900  0.50444200  0.62105600  1
  O  O12  1  0.44892200  0.86125900  0.25000000  1
  O  O13  1  0.44892200  0.63874100  0.75000000  1
  O  O14  1  0.45743500  0.80394400  0.07566400  1
  O  O15  1  0.45743500  0.69605600  0.57566400  1
  O  O16  1  0.45743500  0.69605600  0.92433600  1
  O  O17  1  0.45743500  0.80394400  0.42433600  1
  O  O18  1  0.54256500  0.19605600  0.57566400  1
  O  O19  1  0.54256500  0.30394400  0.07566400  1
  O  O20  1  0.54256500  0.30394400  0.42433600  1
  O  O21  1  0.54256500  0.19605600  0.92433600  1
  O  O22  1  0.55107800  0.13874100  0.75000000  1
  O  O23  1  0.55107800  0.36125900  0.25000000  1
  O  O24  1  0.71580100  0.49555800  0.37894400  1
  O  O25  1  0.71580100  0.00444200  0.62105600  1
  O  O26  1  0.71580100  0.49555800  0.12105600  1
  O  O27  1  0.71580100  0.00444200  0.87894400  1
  O  O28  1  0.76682200  0.54934100  0.86783100  1
  O  O29  1  0.76682200  0.54934100  0.63216900  1
  O  O30  1  0.76682200  0.95065900  0.36783100  1
  O  O31  1  0.76682200  0.95065900  0.13216900  1
  O  O32  1  0.89715200  0.16143400  0.44722600  1
  O  O33  1  0.89715200  0.33856600  0.55277400  1
  O  O34  1  0.89715200  0.16143400  0.05277400  1
  O  O35  1  0.89715200  0.33856600  0.94722600  1
loop_
_geom_bond_atom_site_label_1
_geom_bond_atom_site_label_2
_geom_bond_distance
_geom_bond_site_symmetry_2
Li0 O31 2.121010 1_445
Li0 O30 2.121010 1_445
Li0 O9 2.259910 1_545
Li0 O8 2.259910 1_545
Li1 O28 2.121010 1_455
Li1 O29 2.121010 1_455
Li1 O11 2.259910 1_555
Li1 O10 2.259910 1_555
Li2 O4 2.121010 1_655
Li2 O6 2.121010 1_655
Li2 O26 2.259910 1_555
Li2 O24 2.259910 1_555
Li3 O5 2.121010 1_665
Li3 O7 2.121010 1_665
Li3 O25 2.259910 1_565
Li3 O27 2.259910 1_565
O0 P0 1.495227 1_555
O0 V1 2.163630 1_555
O1 P1 1.495227 1_555
O1 V3 2.163630 1_555
O2 P1 1.495227 1_555
O2 V2 2.163630 1_565
O3 P0 1.495227 1_556
O3 V0 2.163630 1_566
O4 P3 1.504012 1_555
O4 V1 2.212776 1_555
O5 P2 1.504012 1_555
O5 V2 2.212776 1_555
O6 P5 1.504012 1_555
O6 V3 2.212776 1_555
O7 P4 1.504012 1_555
O7 V0 2.212776 1_556
O8 P8 1.513602 1_555
O8 V0 2.183014 1_565
O9 P7 1.513602 1_555
O9 V2 2.183014 1_565
O10 P9 1.513602 1_555
O10 V1 2.183014 1_556
O11 P6 1.513602 1_555
O11 V3 2.183014 1_555
O12 P7 1.604967 1_555
O12 P8 1.604967 1_555
O13 P6 1.604967 1_555
O13 P9 1.604967 1_555
O14 P8 1.588350 1_555
O14 P0 1.623473 1_555
O15 P6 1.588350 1_555
O15 P1 1.623473 1_555
O16 P9 1.588350 1_555
O16 P0 1.623473 1_556
O17 P7 1.588350 1_555
O17 P1 1.623473 1_555
O18 P2 1.588350 1_555
O18 P11 1.623473 1_555
O19 P3 1.588350 1_555
O19 P10 1.623473 1_555
O20 P5 1.588350 1_555
O20 P11 1.623473 1_555
O21 P4 1.588350 1_555
O21 P10 1.623473 1_556
O22 P2 1.604967 1_555
O22 P4 1.604967 1_555
O23 P5 1.604967 1_555
O23 P3 1.604967 1_555
O24 P5 1.513602 1_555
O24 V3 2.183014 1_655
O25 P2 1.513602 1_555
O25 V2 2.183014 1_655
O26 P3 1.513602 1_555
O26 V1 2.183014 1_655
O27 P4 1.513602 1_555
O27 V0 2.183014 1_656
O28 P9 1.504012 1_555
O28 V1 2.212776 1_656
O29 P6 1.504012 1_555
O29 V3 2.212776 1_655
O30 P7 1.504012 1_555
O30 V2 2.212776 1_665
O31 P8 1.504012 1_555
O31 V0 2.212776 1_665
O32 P11 1.495227 1_555
O32 V2 2.163630 1_655
O33 P11 1.495227 1_555
O33 V3 2.163630 1_655
O34 P10 1.495227 1_555
O34 V0 2.163630 1_655
O35 P10 1.495227 1_556
O35 V1 2.163630 1_656
