# generated using pymatgen
data_TeS4(NO3)2
_symmetry_space_group_name_H-M   'P 1'
_cell_length_a   20.45449100
_cell_length_b   5.31371900
_cell_length_c   13.10119523
_cell_angle_alpha   80.73558910
_cell_angle_beta   90.00000000
_cell_angle_gamma   90.00000000
_symmetry_Int_Tables_number   1
_chemical_formula_structural   TeS4(NO3)2
_chemical_formula_sum   'Te4 S16 N8 O24'
_cell_volume   1405.38699199
_cell_formula_units_Z   4
loop_
 _symmetry_equiv_pos_site_id
 _symmetry_equiv_pos_as_xyz
  1  'x, y, z'
loop_
 _atom_site_type_symbol
 _atom_site_label
 _atom_site_symmetry_multiplicity
 _atom_site_fract_x
 _atom_site_fract_y
 _atom_site_fract_z
 _atom_site_occupancy
  Te  Te0  1  0.10732100  0.83920000  0.09637500  1
  Te  Te1  1  0.60732100  0.16080000  0.40362500  1
  Te  Te2  1  0.89267900  0.16080000  0.90362500  1
  Te  Te3  1  0.39267900  0.83920000  0.59637500  1
  S  S0  1  0.01125100  0.62194600  0.10200300  1
  S  S1  1  0.51125100  0.37805400  0.39799700  1
  S  S2  1  0.98874900  0.37805400  0.89799700  1
  S  S3  1  0.48874900  0.62194600  0.60200300  1
  S  S4  1  0.18841000  0.58019200  0.17009500  1
  S  S5  1  0.68841000  0.41980800  0.32990500  1
  S  S6  1  0.81159000  0.41980800  0.82990500  1
  S  S7  1  0.31159000  0.58019200  0.67009500  1
  S  S8  1  0.97566500  0.55823000  0.33696500  1
  S  S9  1  0.47566500  0.44177000  0.16303500  1
  S  S10  1  0.02433500  0.44177000  0.66303500  1
  S  S11  1  0.52433500  0.55823000  0.83696500  1
  S  S12  1  0.24416100  0.44137900  0.98501200  1
  S  S13  1  0.74416100  0.55862100  0.51498800  1
  S  S14  1  0.75583900  0.55862100  0.01498800  1
  S  S15  1  0.25583900  0.44137900  0.48501200  1
  N  N0  1  0.09828800  0.93542000  0.45602500  1
  N  N1  1  0.59828800  0.06458000  0.04397500  1
  N  N2  1  0.90171200  0.06458000  0.54397500  1
  N  N3  1  0.40171200  0.93542000  0.95602500  1
  N  N4  1  0.33263700  0.97116800  0.27502700  1
  N  N5  1  0.83263700  0.02883200  0.22497300  1
  N  N6  1  0.66736300  0.02883200  0.72497300  1
  N  N7  1  0.16736300  0.97116800  0.77502700  1
  O  O0  1  0.92113700  0.40405600  0.31663500  1
  O  O1  1  0.42113700  0.59594400  0.18336500  1
  O  O2  1  0.07886300  0.59594400  0.68336500  1
  O  O3  1  0.57886300  0.40405600  0.81663500  1
  O  O4  1  0.96944700  0.83129000  0.32427300  1
  O  O5  1  0.46944700  0.16871000  0.17572700  1
  O  O6  1  0.03055300  0.16871000  0.67572700  1
  O  O7  1  0.53055300  0.83129000  0.82427300  1
  O  O8  1  0.03588000  0.44006300  0.37597600  1
  O  O9  1  0.53588000  0.55993700  0.12402400  1
  O  O10  1  0.96412000  0.55993700  0.62402400  1
  O  O11  1  0.46412000  0.44006300  0.87597600  1
  O  O12  1  0.28545300  0.26529600  0.05035200  1
  O  O13  1  0.78545300  0.73470400  0.44964800  1
  O  O14  1  0.71454700  0.73470400  0.94964800  1
  O  O15  1  0.21454700  0.26529600  0.55035200  1
  O  O16  1  0.26866700  0.68547500  0.93715500  1
  O  O17  1  0.76866700  0.31452500  0.56284500  1
  O  O18  1  0.73133300  0.31452500  0.06284500  1
  O  O19  1  0.23133300  0.68547500  0.43715500  1
  O  O20  1  0.18150500  0.35618800  0.95275700  1
  O  O21  1  0.68150500  0.64381200  0.54724300  1
  O  O22  1  0.81849500  0.64381200  0.04724300  1
  O  O23  1  0.31849500  0.35618800  0.45275700  1
loop_
_geom_bond_atom_site_label_1
_geom_bond_atom_site_label_2
_geom_bond_distance
_geom_bond_site_symmetry_2
S0 Te0 2.274248 1_555
S1 Te1 2.274248 1_555
S2 Te2 2.274248 1_555
S3 Te3 2.274248 1_555
S4 Te0 2.269377 1_555
S5 Te1 2.269377 1_555
S6 Te2 2.269377 1_555
S7 Te3 2.269377 1_555
O0 S8 1.433993 1_555
O1 S9 1.433993 1_555
O2 S10 1.433993 1_555
O3 S11 1.433993 1_555
O4 S8 1.439249 1_555
O5 S9 1.439249 1_555
O6 S10 1.439249 1_555
O7 S11 1.439249 1_555
O8 S8 1.438456 1_455
O9 S9 1.438456 1_555
O10 S10 1.438456 1_655
O11 S11 1.438456 1_555
O12 S12 1.436562 1_554
O13 S13 1.436562 1_555
O14 S14 1.436562 1_556
O15 S15 1.436562 1_555
O16 S12 1.436969 1_555
O17 S13 1.436969 1_555
O18 S14 1.436969 1_555
O19 S15 1.436969 1_555
O20 S12 1.444845 1_555
O21 S13 1.444845 1_555
O22 S14 1.444845 1_555
O23 S15 1.444845 1_555
