# generated using pymatgen
data_LiSn2(SO4)3
_symmetry_space_group_name_H-M   'P 1'
_cell_length_a   9.42520500
_cell_length_b   8.94153700
_cell_length_c   15.62356200
_cell_angle_alpha   55.67572777
_cell_angle_beta   90.00000000
_cell_angle_gamma   90.00000000
_symmetry_Int_Tables_number   1
_chemical_formula_structural   LiSn2(SO4)3
_chemical_formula_sum   'Li4 Sn8 S12 O48'
_cell_volume   1087.39968697
_cell_formula_units_Z   4
loop_
 _symmetry_equiv_pos_site_id
 _symmetry_equiv_pos_as_xyz
  1  'x, y, z'
loop_
 _atom_site_type_symbol
 _atom_site_label
 _atom_site_symmetry_multiplicity
 _atom_site_fract_x
 _atom_site_fract_y
 _atom_site_fract_z
 _atom_site_occupancy
  Li  Li0  1  0.77863900  0.99338700  0.31619300  1
  Li  Li1  1  0.27863900  0.00661300  0.18380700  1
  Li  Li2  1  0.72136100  0.99338700  0.81619300  1
  Li  Li3  1  0.22136100  0.00661300  0.68380700  1
  Sn  Sn0  1  0.53215100  0.37146400  0.88155900  1
  Sn  Sn1  1  0.95625600  0.16500100  0.09627600  1
  Sn  Sn2  1  0.03215100  0.62853600  0.61844100  1
  Sn  Sn3  1  0.45625600  0.83499900  0.40372400  1
  Sn  Sn4  1  0.54374400  0.16500100  0.59627600  1
  Sn  Sn5  1  0.96784900  0.37146400  0.38155900  1
  Sn  Sn6  1  0.04374400  0.83499900  0.90372400  1
  Sn  Sn7  1  0.46784900  0.62853600  0.11844100  1
  S  S0  1  0.26481800  0.43692500  0.01228800  1
  S  S1  1  0.37086700  0.74403700  0.65961300  1
  S  S2  1  0.10491800  0.03320200  0.35443900  1
  S  S3  1  0.60491800  0.96679800  0.14556100  1
  S  S4  1  0.87086700  0.25596300  0.84038700  1
  S  S5  1  0.76481800  0.56307500  0.48771200  1
  S  S6  1  0.23518200  0.43692500  0.51228800  1
  S  S7  1  0.12913300  0.74403700  0.15961300  1
  S  S8  1  0.39508200  0.03320200  0.85443900  1
  S  S9  1  0.89508200  0.96679800  0.64556100  1
  S  S10  1  0.62913300  0.25596300  0.34038700  1
  S  S11  1  0.73518200  0.56307500  0.98771200  1
  O  O0  1  0.86141600  0.45268800  0.04451900  1
  O  O1  1  0.87372300  0.83044000  0.61978000  1
  O  O2  1  0.60199000  0.13114800  0.30772400  1
  O  O3  1  0.69480800  0.53836300  0.90350000  1
  O  O4  1  0.38423600  0.49524600  0.93636100  1
  O  O5  1  0.21962700  0.68181600  0.68903600  1
  O  O6  1  0.39106900  0.84241900  0.54593700  1
  O  O7  1  0.97764900  0.08062500  0.28729500  1
  O  O8  1  0.22973100  0.24267800  0.06032900  1
  O  O9  1  0.23453500  0.02990000  0.30060000  1
  O  O10  1  0.08669600  0.84808500  0.45132700  1
  O  O11  1  0.47067400  0.58637600  0.71252300  1
  O  O12  1  0.97067400  0.41362400  0.78747700  1
  O  O13  1  0.58669600  0.15191500  0.04867300  1
  O  O14  1  0.73453500  0.97010000  0.19940000  1
  O  O15  1  0.72973100  0.75732200  0.43967100  1
  O  O16  1  0.89106900  0.15758100  0.95406300  1
  O  O17  1  0.47764900  0.91937500  0.21270500  1
  O  O18  1  0.71962700  0.31818400  0.81096400  1
  O  O19  1  0.88423600  0.50475400  0.56363900  1
  O  O20  1  0.19480800  0.46163700  0.59650000  1
  O  O21  1  0.37372300  0.16956000  0.88022000  1
  O  O22  1  0.10199000  0.86885200  0.19227600  1
  O  O23  1  0.36141600  0.54731200  0.45548100  1
  O  O24  1  0.63858400  0.45268800  0.54451900  1
  O  O25  1  0.89801000  0.13114800  0.80772400  1
  O  O26  1  0.62627700  0.83044000  0.11978000  1
  O  O27  1  0.80519200  0.53836300  0.40350000  1
  O  O28  1  0.11576400  0.49524600  0.43636100  1
  O  O29  1  0.28037300  0.68181600  0.18903600  1
  O  O30  1  0.52235100  0.08062500  0.78729500  1
  O  O31  1  0.10893100  0.84241900  0.04593700  1
  O  O32  1  0.27026900  0.24267800  0.56032900  1
  O  O33  1  0.26546500  0.02990000  0.80060000  1
  O  O34  1  0.41330400  0.84808500  0.95132700  1
  O  O35  1  0.02932600  0.58637600  0.21252300  1
  O  O36  1  0.52932600  0.41362400  0.28747700  1
  O  O37  1  0.91330400  0.15191500  0.54867300  1
  O  O38  1  0.76546500  0.97010000  0.69940000  1
  O  O39  1  0.77026900  0.75732200  0.93967100  1
  O  O40  1  0.02235100  0.91937500  0.71270500  1
  O  O41  1  0.60893100  0.15758100  0.45406300  1
  O  O42  1  0.78037300  0.31818400  0.31096400  1
  O  O43  1  0.61576400  0.50475400  0.06363900  1
  O  O44  1  0.30519200  0.46163700  0.09650000  1
  O  O45  1  0.39801000  0.86885200  0.69227600  1
  O  O46  1  0.12627700  0.16956000  0.38022000  1
  O  O47  1  0.13858400  0.54731200  0.95548100  1
loop_
_geom_bond_atom_site_label_1
_geom_bond_atom_site_label_2
_geom_bond_distance
_geom_bond_site_symmetry_2
Li0 O15 1.948671 1_555
Li0 O7 1.983286 1_565
Li0 O14 1.993553 1_555
Li0 O2 2.030539 1_565
Li1 O8 1.948671 1_555
Li1 O17 1.983286 1_545
Li1 O9 1.993553 1_555
Li1 O22 2.030539 1_545
Li2 O39 1.948671 1_555
Li2 O30 1.983286 1_565
Li2 O38 1.993553 1_555
Li2 O25 2.030539 1_565
Li3 O32 1.948671 1_555
Li3 O40 1.983286 1_545
Li3 O33 1.993553 1_555
Li3 O45 2.030539 1_545
O0 S11 1.479724 1_554
O0 Sn1 2.392519 1_555
O1 S9 1.497725 1_555
O1 Sn2 2.352010 1_655
O2 S10 1.487849 1_555
O2 Sn3 2.582493 1_545
O3 S11 1.500844 1_555
O3 Sn0 2.296042 1_555
O4 S0 1.499445 1_556
O4 Sn0 2.229439 1_555
O5 S1 1.504786 1_555
O5 Sn2 2.271192 1_555
O6 S1 1.484058 1_555
O6 Sn3 2.341977 1_555
O7 S2 1.489128 1_655
O7 Sn1 2.641449 1_555
O8 S0 1.489712 1_555
O8 Sn1 2.646076 1_455
O9 S2 1.492948 1_555
O9 Sn3 2.614101 1_545
O10 S2 1.494994 1_565
O10 Sn2 2.270389 1_555
O11 S1 1.497124 1_555
O11 Sn0 2.297772 1_555
O12 S4 1.497124 1_555
O12 Sn2 2.297772 1_655
O13 S3 1.494994 1_545
O13 Sn0 2.270389 1_554
O14 S3 1.492948 1_555
O14 Sn1 2.614101 1_565
O15 S5 1.489712 1_555
O15 Sn3 2.646076 1_555
O16 S4 1.484058 1_555
O16 Sn1 2.341977 1_556
O17 S3 1.489128 1_555
O17 Sn3 2.641449 1_555
O18 S4 1.504786 1_555
O18 Sn0 2.271192 1_555
O19 S5 1.499445 1_555
O19 Sn2 2.229439 1_655
O20 S6 1.500844 1_555
O20 Sn2 2.296042 1_555
O21 S8 1.497725 1_555
O21 Sn0 2.352010 1_555
O22 S7 1.487849 1_555
O22 Sn1 2.582493 1_465
O23 S6 1.479724 1_555
O23 Sn3 2.392519 1_555
O24 S5 1.479724 1_555
O24 Sn4 2.392519 1_555
O25 S4 1.487849 1_555
O25 Sn6 2.582493 1_645
O26 S3 1.497725 1_555
O26 Sn7 2.352010 1_555
O27 S5 1.500844 1_555
O27 Sn5 2.296042 1_555
O28 S6 1.499445 1_555
O28 Sn5 2.229439 1_455
O29 S7 1.504786 1_555
O29 Sn7 2.271192 1_555
O30 S8 1.489128 1_555
O30 Sn4 2.641449 1_555
O31 S7 1.484058 1_555
O31 Sn6 2.341977 1_554
O32 S6 1.489712 1_555
O32 Sn4 2.646076 1_555
O33 S8 1.492948 1_555
O33 Sn6 2.614101 1_545
O34 S8 1.494994 1_565
O34 Sn7 2.270389 1_556
O35 S7 1.497124 1_555
O35 Sn5 2.297772 1_455
O36 S10 1.497124 1_555
O36 Sn7 2.297772 1_555
O37 S9 1.494994 1_545
O37 Sn5 2.270389 1_555
O38 S9 1.492948 1_555
O38 Sn4 2.614101 1_565
O39 S11 1.489712 1_555
O39 Sn6 2.646076 1_655
O40 S9 1.489128 1_455
O40 Sn6 2.641449 1_555
O41 S10 1.484058 1_555
O41 Sn4 2.341977 1_555
O42 S10 1.504786 1_555
O42 Sn5 2.271192 1_555
O43 S11 1.499445 1_554
O43 Sn7 2.229439 1_555
O44 S0 1.500844 1_555
O44 Sn7 2.296042 1_555
O45 S1 1.487849 1_555
O45 Sn4 2.582493 1_565
O46 S2 1.497725 1_555
O46 Sn5 2.352010 1_455
O47 S0 1.479724 1_556
O47 Sn6 2.392519 1_555
