# generated using pymatgen
data_Li6Co(SiO4)2
_symmetry_space_group_name_H-M   'P 1'
_cell_length_a   5.10686770
_cell_length_b   8.20265334
_cell_length_c   8.46580119
_cell_angle_alpha   83.19774299
_cell_angle_beta   78.35276568
_cell_angle_gamma   85.75907445
_symmetry_Int_Tables_number   1
_chemical_formula_structural   Li6Co(SiO4)2
_chemical_formula_sum   'Li12 Co2 Si4 O16'
_cell_volume   344.42738473
_cell_formula_units_Z   2
loop_
 _symmetry_equiv_pos_site_id
 _symmetry_equiv_pos_as_xyz
  1  'x, y, z'
loop_
 _atom_site_type_symbol
 _atom_site_label
 _atom_site_symmetry_multiplicity
 _atom_site_fract_x
 _atom_site_fract_y
 _atom_site_fract_z
 _atom_site_occupancy
  Li  Li0  1  0.16580800  0.19718000  0.61212600  1
  Li  Li1  1  0.16597000  0.69733500  0.11197300  1
  Li  Li2  1  0.83403100  0.80266600  0.38802800  1
  Li  Li3  1  0.83419300  0.30282000  0.88787400  1
  Li  Li4  1  0.61753200  0.89329900  0.14160500  1
  Li  Li5  1  0.61750000  0.39338100  0.64149200  1
  Li  Li6  1  0.38250100  0.10661900  0.85850800  1
  Li  Li7  1  0.38246900  0.60670100  0.35839700  1
  Li  Li8  1  0.77957100  0.12467200  0.48653600  1
  Li  Li9  1  0.78000600  0.62487500  0.98664200  1
  Li  Li10  1  0.21999500  0.87512600  0.51335800  1
  Li  Li11  1  0.22043200  0.37532900  0.01346300  1
  Co  Co0  1  0.50000000  0.74999900  0.75000000  1
  Co  Co1  1  0.50000200  0.25000100  0.24999900  1
  Si  Si0  1  0.12774900  0.03828800  0.24208600  1
  Si  Si1  1  0.12760200  0.53834400  0.74207500  1
  Si  Si2  1  0.87239100  0.96165700  0.75792600  1
  Si  Si3  1  0.87225300  0.46171100  0.25791200  1
  O  O0  1  0.79964800  0.03846600  0.25742100  1
  O  O1  1  0.79966800  0.53847900  0.75732900  1
  O  O2  1  0.20032600  0.96151600  0.74266700  1
  O  O3  1  0.20035300  0.46153900  0.24258400  1
  O  O4  1  0.69079600  0.35794600  0.41481300  1
  O  O5  1  0.69050800  0.85812100  0.91492900  1
  O  O6  1  0.30949000  0.64187800  0.58507500  1
  O  O7  1  0.30920900  0.14205300  0.08518700  1
  O  O8  1  0.19397200  0.11531700  0.40302500  1
  O  O9  1  0.19361700  0.61559500  0.90297600  1
  O  O10  1  0.80638600  0.88440500  0.59702300  1
  O  O11  1  0.80602200  0.38467900  0.09697400  1
  O  O12  1  0.23584500  0.84291300  0.26169200  1
  O  O13  1  0.23579600  0.34291600  0.76182200  1
  O  O14  1  0.76420400  0.15708700  0.73817600  1
  O  O15  1  0.76415700  0.65708700  0.23830700  1
loop_
_geom_bond_atom_site_label_1
_geom_bond_atom_site_label_2
_geom_bond_distance
_geom_bond_site_symmetry_2
Li0 O13 1.941077 1_555
Li0 O8 1.941577 1_555
Li0 O2 2.123995 1_545
Li0 O14 2.141535 1_455
Li1 O12 1.940101 1_555
Li1 O9 1.940658 1_554
Li1 O3 2.125079 1_555
Li1 O15 2.143363 1_455
Li2 O15 1.940118 1_555
Li2 O10 1.940640 1_555
Li2 O0 2.125092 1_565
Li2 O12 2.143371 1_655
Li3 O14 1.941074 1_555
Li3 O11 1.941549 1_556
Li3 O1 2.123980 1_555
Li3 O13 2.141540 1_655
Li4 O5 1.931629 1_554
Li4 O0 2.013146 1_565
Li4 O12 2.055073 1_555
Li4 O15 2.154586 1_555
Li4 O7 2.543305 1_565
Li5 O4 1.932158 1_555
Li5 O1 2.013036 1_555
Li5 O13 2.055861 1_555
Li5 O14 2.155235 1_555
Li5 O6 2.540800 1_555
Li6 O7 1.932156 1_556
Li6 O2 2.013107 1_545
Li6 O14 2.055867 1_555
Li6 O13 2.155263 1_555
Li6 O5 2.540805 1_545
Li7 O6 1.931644 1_555
Li7 O3 2.013102 1_555
Li7 O15 2.055084 1_555
Li7 O12 2.154593 1_555
Li7 O4 2.543320 1_555
Li8 O4 1.985748 1_555
Li8 O10 2.086368 1_545
Li8 O8 2.090245 1_655
Li8 O0 2.122880 1_555
Li8 O14 2.163046 1_555
Li9 O5 1.986329 1_555
Li9 O11 2.085045 1_556
Li9 O9 2.086628 1_655
Li9 O1 2.125486 1_555
Li9 O15 2.162441 1_556
Li10 O6 1.986349 1_555
Li10 O8 2.085014 1_565
Li10 O10 2.086617 1_455
Li10 O2 2.125426 1_555
Li10 O12 2.162451 1_555
Li11 O7 1.985767 1_555
Li11 O9 2.086360 1_554
Li11 O11 2.090288 1_455
Li11 O3 2.122941 1_555
Li11 O13 2.163054 1_554
Co0 O9 2.107016 1_555
Co0 O10 2.107038 1_555
Co0 O6 2.156843 1_555
Co0 O5 2.156868 1_555
Co0 O1 2.230764 1_555
Co0 O2 2.230768 1_555
Co1 O11 2.107103 1_555
Co1 O8 2.107165 1_555
Co1 O7 2.156236 1_555
Co1 O4 2.156240 1_555
Co1 O0 2.230840 1_555
Co1 O3 2.230863 1_555
O0 Si0 1.654158 1_655
O1 Si1 1.653417 1_655
O2 Si2 1.653413 1_455
O3 Si3 1.654163 1_455
O4 Si3 1.642980 1_555
O5 Si2 1.643613 1_555
O6 Si1 1.643600 1_555
O7 Si0 1.642976 1_555
O8 Si0 1.670786 1_555
O9 Si1 1.670969 1_555
O10 Si2 1.670969 1_555
O11 Si3 1.670806 1_555
O12 Si0 1.656422 1_565
O13 Si1 1.657031 1_555
O14 Si2 1.657038 1_545
O15 Si3 1.656429 1_555
