# generated using pymatgen
data_Li3Fe5OF11
_symmetry_space_group_name_H-M   'P 1'
_cell_length_a   5.30406658
_cell_length_b   5.73031180
_cell_length_c   9.43586336
_cell_angle_alpha   85.25092187
_cell_angle_beta   74.22762742
_cell_angle_gamma   118.22731844
_symmetry_Int_Tables_number   1
_chemical_formula_structural   Li3Fe5OF11
_chemical_formula_sum   'Li3 Fe5 O1 F11'
_cell_volume   235.49760021
_cell_formula_units_Z   1
loop_
 _symmetry_equiv_pos_site_id
 _symmetry_equiv_pos_as_xyz
  1  'x, y, z'
loop_
 _atom_site_type_symbol
 _atom_site_label
 _atom_site_symmetry_multiplicity
 _atom_site_fract_x
 _atom_site_fract_y
 _atom_site_fract_z
 _atom_site_occupancy
  Li  Li0  1  0.16670200  0.37453400  0.05721300  1
  Li  Li1  1  0.14398100  0.87245700  0.57791000  1
  Li  Li2  1  0.87172800  0.64652300  0.92634900  1
  Fe  Fe0  1  0.35397900  0.87419100  0.17032100  1
  Fe  Fe1  1  0.33046500  0.36319200  0.66821600  1
  Fe  Fe2  1  0.62104600  0.60432000  0.33005600  1
  Fe  Fe3  1  0.88084100  0.13860100  0.42775200  1
  Fe  Fe4  1  0.65463400  0.13348900  0.82922600  1
  O  O0  1  0.25356300  0.27754500  0.47759600  1
  F  F0  1  0.04801900  0.53692200  0.72877000  1
  F  F1  1  0.04278000  0.02012600  0.21651900  1
  F  F2  1  0.47248300  0.89765800  0.36969200  1
  F  F3  1  0.55138600  0.62167800  0.12109600  1
  F  F4  1  0.24943300  0.77374000  0.97152100  1
  F  F5  1  0.74589200  0.22023400  0.03486700  1
  F  F6  1  0.75555100  0.72367300  0.52905300  1
  F  F7  1  0.42888300  0.35441400  0.86704600  1
  F  F8  1  0.55240500  0.11536400  0.62824500  1
  F  F9  1  0.95803500  0.48784800  0.27479500  1
  F  F10  1  0.91819400  0.96349100  0.79375700  1
loop_
_geom_bond_atom_site_label_1
_geom_bond_atom_site_label_2
_geom_bond_distance
_geom_bond_site_symmetry_2
Li1 O0 2.164014 1_565
Fe1 O0 1.999522 1_555
Fe2 O0 1.970866 1_555
Fe3 O0 1.960092 1_655
F0 Li1 2.051690 1_555
F0 Li2 2.132183 1_455
F0 Fe4 2.143735 1_455
F0 Fe1 2.145116 1_555
F1 Li0 2.123843 1_555
F1 Fe0 2.142150 1_545
F1 Fe3 2.239722 1_455
F1 Fe2 2.249781 1_445
F2 Fe0 2.134707 1_555
F2 Li1 2.184236 1_555
F2 Fe2 2.187033 1_555
F2 Fe3 2.199836 1_565
F3 Li2 2.077144 1_554
F3 Fe2 2.105330 1_555
F3 Li0 2.146805 1_555
F3 Fe0 2.164692 1_555
F4 Li2 1.964887 1_455
F4 Fe4 2.110321 1_565
F4 Fe0 2.144756 1_556
F4 Li0 2.151892 1_556
F5 Fe0 2.030657 1_545
F5 Li0 2.056206 1_655
F5 Fe4 2.165465 1_554
F5 Li2 2.265637 1_554
F6 Li1 2.025816 1_655
F6 Fe1 2.147221 1_555
F6 Fe3 2.189130 1_565
F6 Fe2 2.232009 1_555
F7 Li0 1.999087 1_556
F7 Fe1 2.082435 1_555
F7 Fe4 2.107184 1_555
F7 Li2 2.404716 1_555
F8 Fe4 2.107037 1_555
F8 Fe3 2.139790 1_555
F8 Li1 2.161576 1_545
F8 Fe1 2.230134 1_555
F9 Fe0 2.097283 1_655
F9 Fe2 2.142803 1_555
F9 Fe3 2.163615 1_555
F9 Li0 2.350949 1_655
F10 Li2 1.989402 1_555
F10 Fe4 2.025590 1_565
F10 Fe1 2.199036 1_665
F10 Li1 2.301171 1_655
