# generated using pymatgen
data_K3VPCO7
_symmetry_space_group_name_H-M   'P 1'
_cell_length_a   5.69821923
_cell_length_b   9.68958954
_cell_length_c   6.99911600
_cell_angle_alpha   89.99986944
_cell_angle_beta   89.99997366
_cell_angle_gamma   89.98180614
_symmetry_Int_Tables_number   1
_chemical_formula_structural   K3VPCO7
_chemical_formula_sum   'K6 V2 P2 C2 O14'
_cell_volume   386.44500995
_cell_formula_units_Z   2
loop_
 _symmetry_equiv_pos_site_id
 _symmetry_equiv_pos_as_xyz
  1  'x, y, z'
loop_
 _atom_site_type_symbol
 _atom_site_label
 _atom_site_symmetry_multiplicity
 _atom_site_fract_x
 _atom_site_fract_y
 _atom_site_fract_z
 _atom_site_occupancy
  K  K0  1  0.75815200  0.07246500  0.25000000  1
  K  K1  1  0.24188600  0.92752900  0.74999900  1
  K  K2  1  0.25641500  0.28670100  0.01017800  1
  K  K3  1  0.25641400  0.28670100  0.48982300  1
  K  K4  1  0.74357100  0.71328400  0.51017400  1
  K  K5  1  0.74357000  0.71328600  0.98982300  1
  V  V0  1  0.23753900  0.65170200  0.25000000  1
  V  V1  1  0.76240600  0.34828600  0.75000000  1
  P  P0  1  0.73112800  0.41762700  0.25000000  1
  P  P1  1  0.26885200  0.58237900  0.75000000  1
  C  C0  1  0.74213500  0.07921300  0.75000000  1
  C  C1  1  0.25791200  0.92083300  0.25000000  1
  O  O0  1  0.26458500  0.05358100  0.24999900  1
  O  O1  1  0.73546600  0.94639400  0.74999900  1
  O  O2  1  0.94160200  0.14687200  0.75000100  1
  O  O3  1  0.05840500  0.85313600  0.25000000  1
  O  O4  1  0.54977600  0.15421100  0.75000100  1
  O  O5  1  0.45025000  0.84577300  0.25000000  1
  O  O6  1  0.47763800  0.47842700  0.25000000  1
  O  O7  1  0.52235500  0.52159400  0.75000000  1
  O  O8  1  0.08598900  0.46395500  0.75000000  1
  O  O9  1  0.91400600  0.53604200  0.25000000  1
  O  O10  1  0.76310000  0.32444200  0.06946100  1
  O  O11  1  0.76310000  0.32444200  0.43054100  1
  O  O12  1  0.23687300  0.67556300  0.56946100  1
  O  O13  1  0.23687400  0.67556300  0.93053900  1
loop_
_geom_bond_atom_site_label_1
_geom_bond_atom_site_label_2
_geom_bond_distance
_geom_bond_site_symmetry_2
K0 O3 2.727894 1_645
K0 O10 2.749314 1_555
K0 O11 2.749326 1_555
K0 O5 2.811679 1_545
K0 O0 2.818457 1_555
K0 O0 2.891504 1_655
K1 O2 2.728110 1_465
K1 O12 2.749225 1_555
K1 O13 2.749227 1_555
K1 O4 2.811560 1_565
K1 O1 2.818519 1_555
K1 O1 2.891418 1_455
K2 O8 2.684768 1_554
K2 O4 2.785168 1_554
K2 O6 2.803441 1_555
K2 O0 2.814588 1_555
K2 O10 2.864797 1_455
K2 O2 2.893325 1_454
K2 O10 2.939814 1_555
K3 O8 2.684766 1_555
K3 O4 2.785173 1_555
K3 O6 2.803442 1_555
K3 O0 2.814607 1_555
K3 O11 2.864791 1_455
K3 O2 2.893321 1_455
K3 O11 2.939818 1_555
K4 O9 2.684698 1_555
K4 O5 2.785010 1_555
K4 O7 2.803203 1_555
K4 O1 2.814527 1_555
K4 O12 2.864704 1_655
K4 O3 2.893485 1_655
K4 O12 2.939866 1_555
K5 O9 2.684722 1_556
K5 O5 2.785014 1_556
K5 O7 2.803207 1_555
K5 O1 2.814502 1_555
K5 O13 2.864714 1_655
K5 O3 2.893498 1_656
K5 O13 2.939855 1_555
C0 O1 1.287535 1_545
C0 O2 1.312305 1_555
C0 O4 1.314926 1_555
C1 O0 1.286848 1_565
C1 O3 1.312686 1_555
C1 O5 1.315158 1_555
O2 V1 2.202315 1_555
O3 V0 2.202323 1_555
O4 V1 2.237355 1_555
O5 V0 2.237573 1_555
O6 P0 1.559789 1_555
O6 V0 2.165470 1_555
O7 P1 1.559803 1_555
O7 V1 2.165545 1_555
O8 P1 1.550232 1_555
O8 V1 2.158065 1_455
O9 P0 1.550225 1_555
O9 V0 2.157776 1_655
O10 P0 1.563676 1_555
O10 V1 2.247852 1_554
O11 P0 1.563684 1_555
O11 V1 2.247839 1_555
O12 P1 1.563672 1_555
O12 V0 2.247870 1_555
O13 P1 1.563674 1_555
O13 V0 2.247869 1_556
