# generated using pymatgen
data_Li2MnCr3O8
_symmetry_space_group_name_H-M   'P 1'
_cell_length_a   5.88820872
_cell_length_b   5.88820872
_cell_length_c   5.88820867
_cell_angle_alpha   60.48303346
_cell_angle_beta   60.48303346
_cell_angle_gamma   60.48302928
_symmetry_Int_Tables_number   1
_chemical_formula_structural   Li2MnCr3O8
_chemical_formula_sum   'Li2 Mn1 Cr3 O8'
_cell_volume   145.93194771
_cell_formula_units_Z   1
loop_
 _symmetry_equiv_pos_site_id
 _symmetry_equiv_pos_as_xyz
  1  'x, y, z'
loop_
 _atom_site_type_symbol
 _atom_site_label
 _atom_site_symmetry_multiplicity
 _atom_site_fract_x
 _atom_site_fract_y
 _atom_site_fract_z
 _atom_site_occupancy
  Li  Li0  1  0.87378400  0.87378400  0.87378400  1
  Li  Li1  1  0.12621600  0.12621600  0.12621600  1
  Mn  Mn0  1  0.50000000  0.50000000  0.50000000  1
  Cr  Cr0  1  0.00000000  0.50000000  0.50000000  1
  Cr  Cr1  1  0.50000000  0.00000000  0.50000000  1
  Cr  Cr2  1  0.50000000  0.50000000  0.00000000  1
  O  O0  1  0.73485300  0.73485300  0.73485300  1
  O  O1  1  0.73331400  0.73331400  0.28838000  1
  O  O2  1  0.73331400  0.28838000  0.73331400  1
  O  O3  1  0.28838000  0.73331400  0.73331400  1
  O  O4  1  0.71162000  0.26668600  0.26668600  1
  O  O5  1  0.26668600  0.71162000  0.26668600  1
  O  O6  1  0.26668600  0.26668600  0.71162000  1
  O  O7  1  0.26514700  0.26514700  0.26514700  1
loop_
_geom_bond_atom_site_label_1
_geom_bond_atom_site_label_2
_geom_bond_distance
_geom_bond_site_symmetry_2
Li0 O0 1.996471 1_555
Li0 O2 2.005666 1_565
Li0 O3 2.005666 1_655
Li0 O1 2.005666 1_556
Li1 O7 1.996471 1_555
Li1 O4 2.005666 1_455
Li1 O5 2.005666 1_545
Li1 O6 2.005666 1_554
Mn0 O4 1.952810 1_555
Mn0 O5 1.952810 1_555
Mn0 O2 1.952810 1_555
Mn0 O3 1.952810 1_555
Mn0 O6 1.952810 1_555
Mn0 O1 1.952810 1_555
Cr0 O0 1.972727 1_455
Cr0 O7 1.972727 1_555
Cr0 O6 2.005347 1_555
Cr0 O1 2.005347 1_455
Cr0 O2 2.005347 1_455
Cr0 O5 2.005347 1_555
Cr1 O0 1.972727 1_545
Cr1 O7 1.972727 1_555
Cr1 O6 2.005347 1_555
Cr1 O1 2.005347 1_545
Cr1 O3 2.005347 1_545
Cr1 O4 2.005347 1_555
Cr2 O0 1.972728 1_554
Cr2 O7 1.972728 1_555
Cr2 O2 2.005347 1_554
Cr2 O3 2.005347 1_554
Cr2 O4 2.005347 1_555
Cr2 O5 2.005347 1_555
