# generated using pymatgen
data_Mn3Fe3(TeO8)2
_symmetry_space_group_name_H-M   'P 1'
_cell_length_a   5.99018500
_cell_length_b   6.01350568
_cell_length_c   9.24349904
_cell_angle_alpha   90.95682834
_cell_angle_beta   90.83703730
_cell_angle_gamma   119.61754275
_symmetry_Int_Tables_number   1
_chemical_formula_structural   Mn3Fe3(TeO8)2
_chemical_formula_sum   'Mn3 Fe3 Te2 O16'
_cell_volume   289.32437732
_cell_formula_units_Z   1
loop_
 _symmetry_equiv_pos_site_id
 _symmetry_equiv_pos_as_xyz
  1  'x, y, z'
loop_
 _atom_site_type_symbol
 _atom_site_label
 _atom_site_symmetry_multiplicity
 _atom_site_fract_x
 _atom_site_fract_y
 _atom_site_fract_z
 _atom_site_occupancy
  Mn  Mn0  1  0.34485200  0.17502800  0.21056000  1
  Mn  Mn1  1  0.17428300  0.34315700  0.71170700  1
  Mn  Mn2  1  0.16855000  0.83507700  0.70446900  1
  Fe  Fe0  1  0.83947900  0.17309500  0.20634900  1
  Fe  Fe1  1  0.83755900  0.66531700  0.20968100  1
  Fe  Fe2  1  0.66499700  0.83823900  0.71044600  1
  Te  Te0  1  0.66631100  0.33688600  0.48672800  1
  Te  Te1  1  0.33570000  0.66602000  0.98694500  1
  O  O0  1  0.82374400  0.17481600  0.60052500  1
  O  O1  1  0.95078800  0.47568200  0.35355900  1
  O  O2  1  0.65559100  0.32640500  0.10673000  1
  O  O3  1  0.01664700  0.01066500  0.29839900  1
  O  O4  1  0.01466700  0.01194500  0.79714300  1
  O  O5  1  0.81932100  0.65321800  0.59884000  1
  O  O6  1  0.50899000  0.04402300  0.34294900  1
  O  O7  1  0.50917900  0.46849000  0.34238700  1
  O  O8  1  0.65389300  0.82273200  0.09813900  1
  O  O9  1  0.35221200  0.18854300  0.59796100  1
  O  O10  1  0.47021400  0.50989400  0.84298900  1
  O  O11  1  0.47468900  0.94924400  0.85129700  1
  O  O12  1  0.31857900  0.65569900  0.61004100  1
  O  O13  1  0.18248800  0.35093900  0.10105200  1
  O  O14  1  0.04079500  0.49851400  0.84733400  1
  O  O15  1  0.17647500  0.82617300  0.09948700  1
loop_
_geom_bond_atom_site_label_1
_geom_bond_atom_site_label_2
_geom_bond_distance
_geom_bond_site_symmetry_2
Mn0 O2 1.902920 1_555
Mn0 O3 1.911575 1_555
Mn0 O7 1.934999 1_555
Mn0 O6 1.961511 1_555
Mn0 O13 2.028180 1_555
Mn0 O15 2.068518 1_545
Mn1 O12 1.907791 1_555
Mn1 O4 1.922808 1_555
Mn1 O10 1.939079 1_555
Mn1 O14 1.952545 1_555
Mn1 O9 2.021267 1_555
Mn1 O0 2.071540 1_455
Mn2 O4 1.917405 1_565
Mn2 O12 1.919052 1_555
Mn2 O5 2.041796 1_455
Mn2 O11 2.080389 1_555
Mn2 O9 2.118445 1_565
Mn2 O14 2.239129 1_555
Fe0 O3 1.957124 1_655
Fe0 O2 1.978311 1_555
Fe0 O13 2.057685 1_655
Fe0 O8 2.063355 1_545
Fe0 O1 2.073344 1_555
Fe0 O6 2.168620 1_555
Fe1 O3 1.962546 1_665
Fe1 O2 1.989101 1_555
Fe1 O8 2.048999 1_555
Fe1 O15 2.060837 1_655
Fe1 O1 2.077986 1_555
Fe1 O7 2.143057 1_555
Fe2 O4 1.970036 1_665
Fe2 O12 2.007641 1_555
Fe2 O5 2.040324 1_555
Fe2 O11 2.051032 1_555
Fe2 O0 2.056152 1_565
Fe2 O10 2.146276 1_555
O0 Te0 1.964532 1_555
O1 Te0 1.950769 1_555
O5 Te0 1.927613 1_555
O6 Te0 2.000193 1_555
O7 Te0 2.006801 1_555
O8 Te1 1.926779 1_554
O9 Te0 1.954786 1_555
O10 Te1 2.009655 1_555
O11 Te1 1.966309 1_555
O13 Te1 1.980170 1_554
O14 Te1 1.982886 1_555
O15 Te1 1.955220 1_554
