# generated using pymatgen
data_Li4Nb3Fe2Ni3O16
_symmetry_space_group_name_H-M   'P 1'
_cell_length_a   6.01042165
_cell_length_b   6.01042165
_cell_length_c   9.79581164
_cell_angle_alpha   89.16191950
_cell_angle_beta   89.16191950
_cell_angle_gamma   60.52030567
_symmetry_Int_Tables_number   1
_chemical_formula_structural   Li4Nb3Fe2Ni3O16
_chemical_formula_sum   'Li4 Nb3 Fe2 Ni3 O16'
_cell_volume   308.01498687
_cell_formula_units_Z   1
loop_
 _symmetry_equiv_pos_site_id
 _symmetry_equiv_pos_as_xyz
  1  'x, y, z'
loop_
 _atom_site_type_symbol
 _atom_site_label
 _atom_site_symmetry_multiplicity
 _atom_site_fract_x
 _atom_site_fract_y
 _atom_site_fract_z
 _atom_site_occupancy
  Li  Li0  1  0.33432700  0.33432700  0.88370200  1
  Li  Li1  1  0.02163400  0.02163400  0.98670500  1
  Li  Li2  1  0.00787800  0.00787800  0.50469600  1
  Li  Li3  1  0.66802300  0.66802300  0.40211400  1
  Nb  Nb0  1  0.66110800  0.16426900  0.21510200  1
  Nb  Nb1  1  0.16426900  0.66110800  0.21510200  1
  Nb  Nb2  1  0.82488800  0.82488800  0.71767700  1
  Fe  Fe0  1  0.32353200  0.32353200  0.51181600  1
  Fe  Fe1  1  0.64819100  0.64819100  0.97798100  1
  Ni  Ni0  1  0.17350700  0.17350700  0.21256900  1
  Ni  Ni1  1  0.83239600  0.34140700  0.71274200  1
  Ni  Ni2  1  0.34140700  0.83239600  0.71274200  1
  O  O0  1  0.66435000  0.14788700  0.59652500  1
  O  O1  1  0.48828600  0.48828600  0.32802900  1
  O  O2  1  0.34311900  0.34311900  0.09661300  1
  O  O3  1  0.99776700  0.99776700  0.31708800  1
  O  O4  1  0.00437900  0.00437900  0.80203800  1
  O  O5  1  0.14788700  0.66435000  0.59652500  1
  O  O6  1  0.48906100  0.03902600  0.34148000  1
  O  O7  1  0.03902600  0.48906100  0.34148000  1
  O  O8  1  0.84103400  0.84103400  0.10286900  1
  O  O9  1  0.16197900  0.16197900  0.60653200  1
  O  O10  1  0.96773500  0.52792600  0.84729200  1
  O  O11  1  0.52792600  0.96773500  0.84729200  1
  O  O12  1  0.66448200  0.66448200  0.60398100  1
  O  O13  1  0.82772000  0.32760100  0.09844800  1
  O  O14  1  0.52071200  0.52071200  0.82986000  1
  O  O15  1  0.32760100  0.82772000  0.09844800  1
loop_
_geom_bond_atom_site_label_1
_geom_bond_atom_site_label_2
_geom_bond_distance
_geom_bond_site_symmetry_2
Li0 O11 1.955368 1_545
Li0 O10 1.955368 1_455
Li0 O14 1.997177 1_555
Li0 O2 2.089177 1_556
Li1 O4 1.820830 1_555
Li1 O13 1.962264 1_456
Li1 O15 1.962264 1_546
Li1 O8 2.176885 1_446
Li2 O3 1.842543 1_445
Li2 O9 1.899809 1_555
Li2 O5 2.009527 1_545
Li2 O0 2.009527 1_455
Li3 O12 1.977170 1_555
Li3 O1 2.013765 1_555
Li3 O6 2.025189 1_565
Li3 O7 2.025189 1_655
Nb0 O6 1.967225 1_555
Nb0 O8 2.027916 1_545
Nb0 O3 2.032441 1_545
Nb0 O1 2.033161 1_555
Nb0 O2 2.040074 1_555
Nb0 O13 2.042947 1_555
Nb1 O7 1.967225 1_555
Nb1 O8 2.027916 1_455
Nb1 O3 2.032441 1_455
Nb1 O1 2.033161 1_555
Nb1 O2 2.040074 1_555
Nb1 O15 2.042947 1_555
Nb2 O10 1.998079 1_555
Nb2 O11 1.998079 1_555
Nb2 O12 2.019184 1_555
Nb2 O4 2.051403 1_665
Nb2 O0 2.056887 1_565
Nb2 O5 2.056887 1_655
Fe0 O9 1.903104 1_555
Fe0 O5 1.973548 1_555
Fe0 O0 1.973548 1_555
Fe0 O6 2.249120 1_555
Fe0 O7 2.249120 1_555
Fe0 O1 2.462356 1_555
Fe1 O14 1.980476 1_555
Fe1 O15 2.047952 1_556
Fe1 O13 2.047952 1_556
Fe1 O10 2.106860 1_555
Fe1 O11 2.106860 1_555
Fe1 O8 2.364053 1_556
Ni0 O3 2.077144 1_445
Ni0 O2 2.079390 1_555
Ni0 O7 2.092002 1_555
Ni0 O6 2.092002 1_555
Ni0 O15 2.137779 1_545
Ni0 O13 2.137779 1_455
Ni1 O4 1.962334 1_655
Ni1 O12 1.991577 1_555
Ni1 O14 1.993321 1_555
Ni1 O9 2.009848 1_655
Ni1 O10 2.151228 1_555
Ni1 O0 2.213083 1_555
Ni2 O4 1.962334 1_565
Ni2 O12 1.991577 1_555
Ni2 O14 1.993321 1_555
Ni2 O9 2.009848 1_565
Ni2 O11 2.151228 1_555
Ni2 O5 2.213083 1_555
