# generated using pymatgen
data_Li3Cr3NiO8
_symmetry_space_group_name_H-M   'P 1'
_cell_length_a   5.83809027
_cell_length_b   10.14296281
_cell_length_c   5.91777240
_cell_angle_alpha   106.55622995
_cell_angle_beta   119.55423941
_cell_angle_gamma   90.00060791
_symmetry_Int_Tables_number   1
_chemical_formula_structural   Li3Cr3NiO8
_chemical_formula_sum   'Li6 Cr6 Ni2 O16'
_cell_volume   288.01021927
_cell_formula_units_Z   2
loop_
 _symmetry_equiv_pos_site_id
 _symmetry_equiv_pos_as_xyz
  1  'x, y, z'
loop_
 _atom_site_type_symbol
 _atom_site_label
 _atom_site_symmetry_multiplicity
 _atom_site_fract_x
 _atom_site_fract_y
 _atom_site_fract_z
 _atom_site_occupancy
  Li  Li0  1  0.99981800  0.99990400  0.49981900  1
  Li  Li1  1  0.49982200  0.49990900  0.49981900  1
  Li  Li2  1  0.25020700  0.25001900  0.50002400  1
  Li  Li3  1  0.75018200  0.74998500  0.49997500  1
  Li  Li4  1  0.50000200  0.00009800  0.50018300  1
  Li  Li5  1  0.00000700  0.50009300  0.50018400  1
  Cr  Cr0  1  0.25122000  0.75041100  0.99945300  1
  Cr  Cr1  1  0.99823900  0.50000000  0.00000100  1
  Cr  Cr2  1  0.25177000  0.24958900  0.00054700  1
  Cr  Cr3  1  0.75114600  0.25047200  0.99944700  1
  Cr  Cr4  1  0.49820400  0.00000000  0.00000000  1
  Cr  Cr5  1  0.75170300  0.74952700  0.00055300  1
  Ni  Ni0  1  0.49929800  0.50000100  0.00000200  1
  Ni  Ni1  1  0.99922600  0.00000000  0.00000000  1
  O  O0  1  0.88767600  0.62853700  0.77262700  1
  O  O1  1  0.38766400  0.12856000  0.77263500  1
  O  O2  1  0.11504800  0.37146100  0.22737200  1
  O  O3  1  0.61502900  0.87143800  0.22736400  1
  O  O4  1  0.65665800  0.88547200  0.78738000  1
  O  O5  1  0.15676200  0.38552000  0.78736200  1
  O  O6  1  0.39296600  0.62136800  0.78530800  1
  O  O7  1  0.89291700  0.12145900  0.78529300  1
  O  O8  1  0.12773200  0.88580700  0.78513800  1
  O  O9  1  0.62768000  0.38584600  0.78517000  1
  O  O10  1  0.34259100  0.11419200  0.21486600  1
  O  O11  1  0.84250800  0.61415500  0.21483600  1
  O  O12  1  0.60765200  0.37863100  0.21469200  1
  O  O13  1  0.10762000  0.87854100  0.21470800  1
  O  O14  1  0.86927000  0.11452800  0.21262000  1
  O  O15  1  0.36939300  0.61448000  0.21263800  1
loop_
_geom_bond_atom_site_label_1
_geom_bond_atom_site_label_2
_geom_bond_distance
_geom_bond_site_symmetry_2
Li0 O3 2.138568 1_555
Li0 O7 2.148636 1_565
Li0 O8 2.148864 1_655
Li0 O13 2.149882 1_655
Li0 O1 2.151599 1_665
Li0 O14 2.160892 1_565
Li1 O2 2.138434 1_555
Li1 O6 2.148185 1_555
Li1 O9 2.148760 1_555
Li1 O12 2.149765 1_555
Li1 O0 2.151517 1_555
Li1 O15 2.160425 1_555
Li2 O9 2.146732 1_555
Li2 O10 2.146971 1_555
Li2 O1 2.149381 1_555
Li2 O2 2.149422 1_555
Li2 O5 2.158968 1_555
Li2 O14 2.159567 1_455
Li3 O11 2.146686 1_555
Li3 O8 2.147008 1_655
Li3 O3 2.149332 1_555
Li3 O0 2.149471 1_555
Li3 O15 2.159032 1_555
Li3 O4 2.159495 1_555
Li4 O1 2.138530 1_555
Li4 O13 2.148700 1_545
Li4 O10 2.148838 1_555
Li4 O7 2.149911 1_555
Li4 O3 2.151590 1_545
Li4 O4 2.160903 1_545
Li5 O0 2.138391 1_455
Li5 O12 2.148266 1_455
Li5 O11 2.148744 1_455
Li5 O6 2.149789 1_555
Li5 O2 2.151504 1_555
Li5 O5 2.160431 1_555
Cr0 O3 2.016825 1_556
Cr0 O0 2.019486 1_455
Cr0 O6 2.023155 1_555
Cr0 O15 2.025140 1_556
Cr0 O8 2.026059 1_555
Cr0 O13 2.030889 1_556
Cr1 O0 2.017397 1_554
Cr1 O2 2.017402 1_655
Cr1 O9 2.021104 1_554
Cr1 O11 2.021117 1_555
Cr1 O15 2.025912 1_655
Cr1 O5 2.025927 1_654
Cr2 O1 2.016800 1_554
Cr2 O2 2.019470 1_555
Cr2 O12 2.023130 1_555
Cr2 O5 2.025138 1_554
Cr2 O10 2.026082 1_555
Cr2 O7 2.030898 1_454
Cr3 O2 2.017055 1_656
Cr3 O1 2.019390 1_555
Cr3 O7 2.023152 1_555
Cr3 O14 2.025198 1_556
Cr3 O9 2.025717 1_555
Cr3 O12 2.030539 1_556
Cr4 O1 2.017556 1_554
Cr4 O3 2.017570 1_545
Cr4 O8 2.020862 1_544
Cr4 O10 2.020868 1_555
Cr4 O14 2.025720 1_555
Cr4 O4 2.025736 1_544
Cr5 O0 2.017026 1_554
Cr5 O3 2.019378 1_555
Cr5 O13 2.023139 1_655
Cr5 O4 2.025205 1_554
Cr5 O11 2.025722 1_555
Cr5 O6 2.030548 1_554
Ni0 O15 1.901469 1_555
Ni0 O5 1.901475 1_554
Ni0 O11 1.902570 1_555
Ni0 O9 1.902572 1_554
Ni0 O6 1.904808 1_554
Ni0 O12 1.904818 1_555
Ni1 O4 1.901815 1_544
Ni1 O14 1.901830 1_555
Ni1 O8 1.903380 1_644
Ni1 O10 1.903382 1_655
Ni1 O7 1.905642 1_554
Ni1 O13 1.905647 1_645
