# generated using pymatgen
data_LiFe2(SiO4)2
_symmetry_space_group_name_H-M   'P 1'
_cell_length_a   11.58614200
_cell_length_b   10.97286300
_cell_length_c   11.03805785
_cell_angle_alpha   60.34117926
_cell_angle_beta   90.00000000
_cell_angle_gamma   90.00000000
_symmetry_Int_Tables_number   1
_chemical_formula_structural   LiFe2(SiO4)2
_chemical_formula_sum   'Li6 Fe12 Si12 O48'
_cell_volume   1219.45264599
_cell_formula_units_Z   6
loop_
 _symmetry_equiv_pos_site_id
 _symmetry_equiv_pos_as_xyz
  1  'x, y, z'
loop_
 _atom_site_type_symbol
 _atom_site_label
 _atom_site_symmetry_multiplicity
 _atom_site_fract_x
 _atom_site_fract_y
 _atom_site_fract_z
 _atom_site_occupancy
  Li  Li0  1  0.98795400  0.50000000  0.50000000  1
  Li  Li1  1  0.50137800  0.00000000  0.00000000  1
  Li  Li2  1  0.68075400  0.00000000  0.50000000  1
  Li  Li3  1  0.31872400  0.00000000  0.50000000  1
  Li  Li4  1  0.01619300  0.50000000  0.00000000  1
  Li  Li5  1  0.65392800  0.50000000  0.00000000  1
  Fe  Fe0  1  0.66773500  0.74667800  0.25238500  1
  Fe  Fe1  1  0.99844700  0.00241600  0.24936100  1
  Fe  Fe2  1  0.33470000  0.74661100  0.49424300  1
  Fe  Fe3  1  0.66751100  0.24639900  0.24607100  1
  Fe  Fe4  1  0.66773500  0.25332200  0.74761500  1
  Fe  Fe5  1  0.99893200  0.49465300  0.75271000  1
  Fe  Fe6  1  0.99893200  0.50534700  0.24729000  1
  Fe  Fe7  1  0.33228000  0.25182300  0.00026900  1
  Fe  Fe8  1  0.66751100  0.75360100  0.75392900  1
  Fe  Fe9  1  0.33470000  0.25338900  0.50575700  1
  Fe  Fe10  1  0.99844700  0.99758400  0.75063900  1
  Fe  Fe11  1  0.33228000  0.74817700  0.99973100  1
  Si  Si0  1  0.16258900  0.74710900  0.25262500  1
  Si  Si1  1  0.49867300  0.99828000  0.25422300  1
  Si  Si2  1  0.16258900  0.25289100  0.74737500  1
  Si  Si3  1  0.83407300  0.74975300  0.50322000  1
  Si  Si4  1  0.16768500  0.25166400  0.25348000  1
  Si  Si5  1  0.50270500  0.50450400  0.75314500  1
  Si  Si6  1  0.50270500  0.49549600  0.24685500  1
  Si  Si7  1  0.16768500  0.74833600  0.74652000  1
  Si  Si8  1  0.83407300  0.25024700  0.49678000  1
  Si  Si9  1  0.83330000  0.25864200  0.99939300  1
  Si  Si10  1  0.49867300  0.00172000  0.74577700  1
  Si  Si11  1  0.83330000  0.74135800  0.00060700  1
  O  O0  1  0.43966700  0.10602000  0.10160400  1
  O  O1  1  0.55936200  0.89226300  0.20654900  1
  O  O2  1  0.09927800  0.89663500  0.20865700  1
  O  O3  1  0.89273200  0.11111100  0.11193500  1
  O  O4  1  0.73837900  0.31437800  0.07168600  1
  O  O5  1  0.25434600  0.70122200  0.37929800  1
  O  O6  1  0.74742200  0.71660200  0.40804100  1
  O  O7  1  0.25415400  0.28451100  0.12563800  1
  O  O8  1  0.59356200  0.07165000  0.31006000  1
  O  O9  1  0.40469500  0.92570300  0.38207500  1
  O  O10  1  0.91993800  0.87939900  0.40846700  1
  O  O11  1  0.08314200  0.11959300  0.29018700  1
  O  O12  1  0.92880600  0.61347000  0.07242800  1
  O  O13  1  0.06902000  0.38314500  0.68836500  1
  O  O14  1  0.90889600  0.60456100  0.59392400  1
  O  O15  1  0.09125600  0.39621700  0.19797900  1
  O  O16  1  0.43746000  0.61136100  0.60929200  1
  O  O17  1  0.58093600  0.41045700  0.18811300  1
  O  O18  1  0.58465400  0.41018700  0.71208900  1
  O  O19  1  0.41530700  0.59199200  0.12063000  1
  O  O20  1  0.75887600  0.80286600  0.59542100  1
  O  O21  1  0.24187100  0.20065100  0.39784400  1
  O  O22  1  0.77126500  0.22108900  0.88923600  1
  O  O23  1  0.22574200  0.78024100  0.10731500  1
  O  O24  1  0.22574200  0.21975900  0.89268500  1
  O  O25  1  0.77126500  0.77891100  0.11076400  1
  O  O26  1  0.24187100  0.79934900  0.60215600  1
  O  O27  1  0.75887600  0.19713400  0.40457900  1
  O  O28  1  0.41530700  0.40800800  0.87937000  1
  O  O29  1  0.58465400  0.58981300  0.28791100  1
  O  O30  1  0.58093600  0.58954300  0.81188700  1
  O  O31  1  0.43746000  0.38863900  0.39070800  1
  O  O32  1  0.09125600  0.60378300  0.80202100  1
  O  O33  1  0.90889600  0.39543900  0.40607600  1
  O  O34  1  0.06902000  0.61685500  0.31163500  1
  O  O35  1  0.92880600  0.38653000  0.92757200  1
  O  O36  1  0.08314200  0.88040700  0.70981300  1
  O  O37  1  0.91993800  0.12060100  0.59153300  1
  O  O38  1  0.40469500  0.07429700  0.61792500  1
  O  O39  1  0.59356200  0.92835000  0.68994000  1
  O  O40  1  0.25415400  0.71548900  0.87436200  1
  O  O41  1  0.74742200  0.28339800  0.59195900  1
  O  O42  1  0.25434600  0.29877800  0.62070200  1
  O  O43  1  0.73837900  0.68562200  0.92831400  1
  O  O44  1  0.89273200  0.88888900  0.88806500  1
  O  O45  1  0.09927800  0.10336500  0.79134300  1
  O  O46  1  0.43966700  0.89398000  0.89839600  1
  O  O47  1  0.55936200  0.10773700  0.79345100  1
loop_
_geom_bond_atom_site_label_1
_geom_bond_atom_site_label_2
_geom_bond_distance
_geom_bond_site_symmetry_2
Li0 O13 2.052035 1_655
Li0 O34 2.052035 1_655
Li0 O14 2.099383 1_555
Li0 O33 2.099383 1_555
Li1 O47 2.092706 1_554
Li1 O1 2.092706 1_545
Li1 O0 2.100854 1_555
Li1 O46 2.100854 1_544
Li2 O27 2.086369 1_555
Li2 O20 2.086369 1_545
Li2 O39 2.098323 1_545
Li2 O8 2.098323 1_555
Li3 O38 2.097937 1_555
Li3 O9 2.097937 1_545
Li3 O21 2.110662 1_555
Li3 O26 2.110662 1_545
Li4 O12 2.049299 1_455
Li4 O35 2.049299 1_454
Li4 O15 2.089466 1_555
Li4 O32 2.089466 1_554
Li5 O30 1.993229 1_554
Li5 O17 1.993229 1_555
Li5 O43 2.033975 1_554
Li5 O4 2.033975 1_555
Fe0 O6 1.830894 1_555
Fe0 O29 1.837139 1_555
Fe0 O25 1.860217 1_555
Fe0 O1 1.893316 1_555
Fe1 O10 1.840561 1_545
Fe1 O11 1.841910 1_655
Fe1 O2 1.852037 1_645
Fe1 O3 1.852899 1_555
Fe2 O5 1.830288 1_555
Fe2 O16 1.835076 1_555
Fe2 O26 1.895432 1_555
Fe2 O9 1.909052 1_555
Fe3 O4 1.874765 1_555
Fe3 O17 1.875189 1_555
Fe3 O27 1.880938 1_555
Fe3 O8 1.889283 1_555
Fe4 O41 1.830894 1_555
Fe4 O18 1.837139 1_555
Fe4 O22 1.860217 1_555
Fe4 O47 1.893316 1_555
Fe5 O32 1.876020 1_655
Fe5 O13 1.876439 1_655
Fe5 O14 1.876874 1_555
Fe5 O35 1.877995 1_555
Fe6 O15 1.876020 1_655
Fe6 O34 1.876439 1_655
Fe6 O33 1.876874 1_555
Fe6 O12 1.877995 1_555
Fe7 O7 1.831451 1_555
Fe7 O28 1.838456 1_554
Fe7 O24 1.863098 1_554
Fe7 O0 1.894132 1_555
Fe8 O43 1.874765 1_555
Fe8 O30 1.875189 1_555
Fe8 O20 1.880938 1_555
Fe8 O39 1.889283 1_555
Fe9 O42 1.830288 1_555
Fe9 O31 1.835076 1_555
Fe9 O21 1.895432 1_555
Fe9 O38 1.909052 1_555
Fe10 O37 1.840561 1_565
Fe10 O36 1.841910 1_655
Fe10 O45 1.852037 1_665
Fe10 O44 1.852899 1_555
Fe11 O40 1.831451 1_555
Fe11 O19 1.838456 1_556
Fe11 O23 1.863098 1_556
Fe11 O46 1.894132 1_555
O0 Si1 1.652860 1_545
O1 Si1 1.652414 1_555
O2 Si0 1.636319 1_555
O3 Si9 1.627189 1_554
O4 Si9 1.644163 1_554
O5 Si0 1.625425 1_555
O6 Si3 1.619320 1_555
O7 Si4 1.619112 1_555
O8 Si1 1.651594 1_545
O9 Si1 1.642900 1_555
O10 Si3 1.623224 1_555
O11 Si4 1.625639 1_555
O12 Si11 1.649598 1_555
O13 Si2 1.649542 1_555
O14 Si3 1.647278 1_555
O15 Si4 1.647323 1_555
O16 Si5 1.620180 1_555
O17 Si6 1.646654 1_555
O18 Si5 1.625456 1_555
O19 Si6 1.621024 1_555
O20 Si3 1.649690 1_555
O21 Si4 1.645782 1_555
O22 Si9 1.631169 1_555
O23 Si0 1.631897 1_555
O24 Si2 1.631897 1_555
O25 Si11 1.631169 1_555
O26 Si7 1.645782 1_555
O27 Si8 1.649690 1_555
O28 Si5 1.621024 1_555
O29 Si6 1.625456 1_555
O30 Si5 1.646654 1_555
O31 Si6 1.620180 1_555
O32 Si7 1.647323 1_555
O33 Si8 1.647278 1_555
O34 Si0 1.649542 1_555
O35 Si9 1.649598 1_555
O36 Si7 1.625639 1_555
O37 Si8 1.623224 1_555
O38 Si10 1.642900 1_555
O39 Si10 1.651594 1_565
O40 Si7 1.619112 1_555
O41 Si8 1.619320 1_555
O42 Si2 1.625425 1_555
O43 Si11 1.644163 1_556
O44 Si11 1.627189 1_556
O45 Si2 1.636319 1_555
O46 Si10 1.652860 1_565
O47 Si10 1.652414 1_555
