# generated using pymatgen
data_Zr9VO20
_symmetry_space_group_name_H-M   'P 1'
_cell_length_a   6.47493000
_cell_length_b   7.35918996
_cell_length_c   8.11095422
_cell_angle_alpha   77.07398252
_cell_angle_beta   75.49552544
_cell_angle_gamma   71.40747640
_symmetry_Int_Tables_number   1
_chemical_formula_structural   Zr9VO20
_chemical_formula_sum   'Zr9 V1 O20'
_cell_volume   350.25854725
_cell_formula_units_Z   1
loop_
 _symmetry_equiv_pos_site_id
 _symmetry_equiv_pos_as_xyz
  1  'x, y, z'
loop_
 _atom_site_type_symbol
 _atom_site_label
 _atom_site_symmetry_multiplicity
 _atom_site_fract_x
 _atom_site_fract_y
 _atom_site_fract_z
 _atom_site_occupancy
  Zr  Zr0  1  0.30315600  0.95068200  0.40577200  1
  Zr  Zr1  1  0.30911200  0.44945500  0.39689500  1
  Zr  Zr2  1  0.09782300  0.65339300  0.80428300  1
  Zr  Zr3  1  0.89652000  0.84518300  0.20215500  1
  Zr  Zr4  1  0.49206800  0.75667900  0.99973800  1
  Zr  Zr5  1  0.90441000  0.35031400  0.19410400  1
  Zr  Zr6  1  0.71115400  0.53876100  0.60408900  1
  Zr  Zr7  1  0.49149500  0.25613200  0.99622800  1
  Zr  Zr8  1  0.69860100  0.05171800  0.59463300  1
  V  V0  1  0.09402800  0.14390800  0.80461700  1
  O  O0  1  0.08289400  0.98812000  0.65132500  1
  O  O1  1  0.29014400  0.76926600  0.24200100  1
  O  O2  1  0.58503300  0.97657300  0.13153500  1
  O  O3  1  0.21561000  0.22734400  0.26130900  1
  O  O4  1  0.52784900  0.42141400  0.15829200  1
  O  O5  1  0.29937100  0.63603500  0.56248000  1
  O  O6  1  0.80909000  0.63393500  0.06691000  1
  O  O7  1  0.02626000  0.40034700  0.67338800  1
  O  O8  1  0.12536200  0.81478300  0.97109600  1
  O  O9  1  0.62088600  0.81869400  0.45729500  1
  O  O10  1  0.39911300  0.16536300  0.51879300  1
  O  O11  1  0.78515500  0.77400500  0.73736900  1
  O  O12  1  0.48614900  0.57495400  0.83670000  1
  O  O13  1  0.90354400  0.16642700  0.02269700  1
  O  O14  1  0.68055800  0.37912700  0.43452800  1
  O  O15  1  0.17414500  0.38546000  0.95368600  1
  O  O16  1  0.98770000  0.56902200  0.34631500  1
  O  O17  1  0.69630100  0.23470600  0.75588300  1
  O  O18  1  0.91822700  0.02881300  0.35916400  1
  O  O19  1  0.38824200  0.03938900  0.85672300  1
loop_
_geom_bond_atom_site_label_1
_geom_bond_atom_site_label_2
_geom_bond_distance
_geom_bond_site_symmetry_2
O0 V0 1.897587 1_565
O0 Zr0 2.156096 1_555
O0 Zr2 2.481421 1_555
O0 Zr8 2.521151 1_465
O1 Zr4 2.072791 1_554
O1 Zr0 2.115467 1_555
O1 Zr1 2.388050 1_555
O1 Zr3 2.517186 1_455
O2 Zr7 2.081373 1_564
O2 Zr3 2.101924 1_555
O2 Zr4 2.416858 1_554
O2 Zr0 2.512695 1_555
O3 Zr5 2.083988 1_455
O3 Zr0 2.090230 1_545
O3 Zr7 2.443831 1_554
O3 Zr1 2.452849 1_555
O4 Zr7 2.077418 1_554
O4 Zr1 2.100762 1_555
O4 Zr5 2.403382 1_555
O4 Zr4 2.481974 1_554
O5 Zr2 2.071136 1_555
O5 Zr1 2.102495 1_555
O5 Zr0 2.383648 1_555
O5 Zr6 2.619327 1_555
O6 Zr5 2.082277 1_555
O6 Zr4 2.117546 1_554
O6 Zr3 2.361323 1_555
O6 Zr2 2.468323 1_654
O7 V0 1.922023 1_555
O7 Zr6 2.123521 1_455
O7 Zr2 2.547723 1_555
O7 Zr1 2.552696 1_555
O8 Zr2 2.061044 1_555
O8 Zr3 2.084004 1_456
O8 Zr4 2.336452 1_555
O8 V0 2.468135 1_565
O9 Zr0 2.079739 1_555
O9 Zr6 2.118159 1_555
O9 Zr3 2.386853 1_555
O9 Zr8 2.473967 1_565
O10 Zr8 2.042396 1_555
O10 Zr1 2.067617 1_555
O10 Zr0 2.298170 1_545
O11 Zr8 2.089825 1_565
O11 Zr2 2.090458 1_655
O11 Zr6 2.453766 1_555
O11 Zr4 2.481176 1_555
O12 Zr6 2.086533 1_555
O12 Zr4 2.094748 1_555
O12 Zr7 2.406836 1_555
O12 Zr2 2.462154 1_555
O13 V0 1.893529 1_654
O13 Zr5 2.148176 1_555
O13 Zr3 2.491106 1_545
O13 Zr7 2.588522 1_554
O14 Zr6 2.078103 1_555
O14 Zr5 2.126443 1_555
O14 Zr1 2.376716 1_555
O14 Zr8 2.449938 1_555
O15 Zr7 2.051422 1_555
O15 Zr2 2.051874 1_555
O15 Zr5 2.297004 1_456
O15 V0 2.598989 1_555
O16 Zr3 2.088929 1_555
O16 Zr1 2.090952 1_655
O16 Zr6 2.407898 1_555
O16 Zr5 2.486272 1_555
O17 Zr8 2.071152 1_555
O17 Zr7 2.071940 1_555
O17 Zr6 2.318909 1_555
O17 V0 2.555213 1_655
O18 Zr8 2.080632 1_555
O18 Zr3 2.109133 1_545
O18 Zr5 2.430260 1_555
O18 Zr0 2.479194 1_645
O19 V0 1.929459 1_555
O19 Zr4 2.131922 1_545
O19 Zr7 2.477475 1_555
O19 Zr8 2.540805 1_555
