# generated using pymatgen
data_Zr(MnSn)6
_symmetry_space_group_name_H-M   'P 1'
_cell_length_a   5.59348103
_cell_length_b   5.59347568
_cell_length_c   9.13369566
_cell_angle_alpha   90.00000000
_cell_angle_beta   90.00000000
_cell_angle_gamma   119.99809704
_symmetry_Int_Tables_number   1
_chemical_formula_structural   Zr(MnSn)6
_chemical_formula_sum   'Zr1 Mn6 Sn6'
_cell_volume   247.48530644
_cell_formula_units_Z   1
loop_
 _symmetry_equiv_pos_site_id
 _symmetry_equiv_pos_as_xyz
  1  'x, y, z'
loop_
 _atom_site_type_symbol
 _atom_site_label
 _atom_site_symmetry_multiplicity
 _atom_site_fract_x
 _atom_site_fract_y
 _atom_site_fract_z
 _atom_site_occupancy
  Zr  Zr0  1  0.99999034  0.00001657  -0.00000000  1
  Mn  Mn0  1  -0.00000022  0.50001713  0.24628292  1
  Mn  Mn1  1  -0.00000022  0.50001713  0.75371708  1
  Mn  Mn2  1  0.50000104  0.50001697  0.24627575  1
  Mn  Mn3  1  0.50000104  0.50001697  0.75372425  1
  Mn  Mn4  1  0.50000395  0.00001585  0.24627971  1
  Mn  Mn5  1  0.50000395  0.00001585  0.75372029  1
  Sn  Sn0  1  0.33331557  0.66668783  -0.00000000  1
  Sn  Sn1  1  0.33333250  0.66668547  0.50000000  1
  Sn  Sn2  1  0.00000375  0.00001507  0.32922587  1
  Sn  Sn3  1  0.00000375  0.00001507  0.67077413  1
  Sn  Sn4  1  0.66667331  0.33334132  -0.00000000  1
  Sn  Sn5  1  0.66667023  0.33333778  0.50000000  1
loop_
_geom_bond_atom_site_label_1
_geom_bond_atom_site_label_2
_geom_bond_distance
_geom_bond_site_symmetry_2
Mn0 Sn0 2.768972 1_555
Mn0 Sn4 2.769003 1_455
Mn0 Sn5 2.824450 1_455
Mn0 Sn1 2.824459 1_555
Mn0 Sn2 2.897505 1_565
Mn0 Sn2 2.897549 1_555
Mn1 Sn0 2.768972 1_556
Mn1 Sn4 2.769003 1_456
Mn1 Sn5 2.824450 1_455
Mn1 Sn1 2.824459 1_555
Mn1 Sn3 2.897505 1_565
Mn1 Sn3 2.897549 1_555
Mn2 Sn4 2.768982 1_555
Mn2 Sn0 2.769006 1_555
Mn2 Sn1 2.824498 1_555
Mn2 Sn5 2.824529 1_555
Mn2 Sn2 2.897621 1_555
Mn2 Sn2 2.897625 1_665
Mn3 Sn4 2.768982 1_556
Mn3 Sn0 2.769006 1_556
Mn3 Sn1 2.824498 1_555
Mn3 Sn5 2.824529 1_555
Mn3 Sn3 2.897621 1_555
Mn3 Sn3 2.897625 1_665
Mn4 Sn4 2.768975 1_555
Mn4 Sn0 2.768982 1_545
Mn4 Sn5 2.824452 1_555
Mn4 Sn1 2.824476 1_545
Mn4 Sn2 2.897536 1_555
Mn4 Sn2 2.897538 1_655
Mn5 Sn4 2.768975 1_556
Mn5 Sn0 2.768982 1_546
Mn5 Sn5 2.824452 1_555
Mn5 Sn1 2.824476 1_545
Mn5 Sn3 2.897536 1_555
Mn5 Sn3 2.897538 1_655
Sn0 Zr0 3.229304 1_465
Sn0 Zr0 3.229479 1_455
Sn0 Zr0 3.229499 1_565
Sn2 Zr0 3.007049 1_455
Sn2 Sn3 3.119598 1_555
Sn3 Zr0 3.007049 1_456
Sn4 Zr0 3.229245 1_555
Sn4 Zr0 3.229498 1_565
Sn4 Zr0 3.229539 1_455
