# generated using pymatgen
data_Li5Fe5O12
_symmetry_space_group_name_H-M   'P 1'
_cell_length_a   5.09979000
_cell_length_b   9.11940366
_cell_length_c   9.46223146
_cell_angle_alpha   83.31254423
_cell_angle_beta   85.29542585
_cell_angle_gamma   85.92095673
_symmetry_Int_Tables_number   1
_chemical_formula_structural   Li5Fe5O12
_chemical_formula_sum   'Li10 Fe10 O24'
_cell_volume   434.74998384
_cell_formula_units_Z   2
loop_
 _symmetry_equiv_pos_site_id
 _symmetry_equiv_pos_as_xyz
  1  'x, y, z'
loop_
 _atom_site_type_symbol
 _atom_site_label
 _atom_site_symmetry_multiplicity
 _atom_site_fract_x
 _atom_site_fract_y
 _atom_site_fract_z
 _atom_site_occupancy
  Li  Li0  1  0.26841100  0.08409500  0.00018200  1
  Li  Li1  1  0.38299500  0.53511200  0.24460600  1
  Li  Li2  1  0.35109800  0.85945500  0.26245000  1
  Li  Li3  1  0.51557100  0.33360800  0.49379300  1
  Li  Li4  1  0.47305900  0.67436700  0.49659600  1
  Li  Li5  1  0.76523200  0.57516900  0.00213400  1
  Li  Li6  1  0.73621800  0.91739400  0.00867800  1
  Li  Li7  1  0.89124300  0.03394300  0.25367900  1
  Li  Li8  1  0.90469400  0.38592600  0.23940700  1
  Li  Li9  1  0.99221500  0.17036800  0.49186000  1
  Fe  Fe0  1  0.00542900  0.50681100  0.49811900  1
  Fe  Fe1  1  0.13068500  0.29018800  0.75105000  1
  Fe  Fe2  1  0.10608300  0.96368600  0.74572400  1
  Fe  Fe3  1  0.25101300  0.74135000  0.00309000  1
  Fe  Fe4  1  0.36980200  0.21268700  0.24760100  1
  Fe  Fe5  1  0.51876400  0.00016700  0.49626700  1
  Fe  Fe6  1  0.59021900  0.46271500  0.75435000  1
  Fe  Fe7  1  0.76017100  0.24527300  0.00676800  1
  Fe  Fe8  1  0.64456100  0.79099600  0.74757200  1
  Fe  Fe9  1  0.85904400  0.71334800  0.25286600  1
  O  O0  1  0.06946300  0.21516700  0.13706900  1
  O  O1  1  0.06294200  0.59032800  0.11943700  1
  O  O2  1  0.05073100  0.86805100  0.13601800  1
  O  O3  1  0.15569100  0.66506900  0.38423200  1
  O  O4  1  0.23817100  0.04200900  0.36412700  1
  O  O5  1  0.20038100  0.35435000  0.36822600  1
  O  O6  1  0.26834300  0.13112200  0.63405700  1
  O  O7  1  0.30046500  0.46322800  0.62560800  1
  O  O8  1  0.35272800  0.84446100  0.61588000  1
  O  O9  1  0.58140600  0.08907800  0.11069300  1
  O  O10  1  0.44284200  0.29523800  0.85946700  1
  O  O11  1  0.57942600  0.36603900  0.13852100  1
  O  O12  1  0.40288900  0.91000000  0.88654800  1
  O  O13  1  0.46600800  0.62232800  0.87320900  1
  O  O14  1  0.55959400  0.72396900  0.12937100  1
  O  O15  1  0.66209500  0.16664700  0.38674300  1
  O  O16  1  0.72342200  0.53646600  0.36686400  1
  O  O17  1  0.67638500  0.85040200  0.36421000  1
  O  O18  1  0.76210200  0.62153800  0.63838400  1
  O  O19  1  0.83754400  0.34388800  0.61352300  1
  O  O20  1  0.79879800  0.96834700  0.62786800  1
  O  O21  1  0.88779900  0.40940800  0.88250000  1
  O  O22  1  0.96222600  0.11982000  0.87898200  1
  O  O23  1  0.94527900  0.79740400  0.86488400  1
loop_
_geom_bond_atom_site_label_1
_geom_bond_atom_site_label_2
_geom_bond_distance
_geom_bond_site_symmetry_2
Li0 O9 1.984585 1_555
Li0 O22 1.998478 1_454
Li0 O0 2.026898 1_555
Li0 O12 2.066106 1_544
Li0 O10 2.392482 1_554
Li0 O2 2.500673 1_545
Li1 O11 2.089068 1_555
Li1 O1 2.093244 1_555
Li1 O3 2.100427 1_555
Li1 O5 2.131556 1_555
Li1 O14 2.142063 1_555
Li1 O16 2.165250 1_555
Li2 O17 1.977347 1_555
Li2 O2 2.011334 1_555
Li2 O4 2.043170 1_565
Li2 O14 2.049059 1_555
Li2 O3 2.247341 1_555
Li3 O15 1.993954 1_555
Li3 O7 2.022570 1_555
Li3 O5 2.061284 1_555
Li3 O19 2.083317 1_555
Li3 O16 2.353937 1_555
Li3 O6 2.499362 1_555
Li4 O3 2.019898 1_555
Li4 O8 2.053130 1_555
Li4 O18 2.068274 1_555
Li4 O16 2.143039 1_555
Li4 O17 2.185602 1_555
Li4 O7 2.343024 1_555
Li5 O1 1.974394 1_655
Li5 O13 2.022764 1_554
Li5 O21 2.026143 1_554
Li5 O14 2.088440 1_555
Li5 O11 2.384073 1_555
Li5 O23 2.468426 1_554
Li6 O9 2.014327 1_565
Li6 O23 2.031788 1_554
Li6 O2 2.077266 1_655
Li6 O12 2.141587 1_554
Li6 O14 2.194334 1_555
Li6 O22 2.405263 1_564
Li7 O2 2.063595 1_645
Li7 O15 2.080336 1_555
Li7 O0 2.097448 1_655
Li7 O4 2.137199 1_655
Li7 O9 2.158534 1_555
Li7 O17 2.182027 1_545
Li8 O5 2.000136 1_655
Li8 O11 2.009639 1_555
Li8 O0 2.024917 1_655
Li8 O16 2.053282 1_555
Li8 O1 2.232808 1_655
Li9 O6 2.012069 1_655
Li9 O15 2.028657 1_555
Li9 O4 2.067919 1_655
Li9 O19 2.132884 1_555
Li9 O5 2.214300 1_655
Li9 O20 2.349760 1_545
Fe0 O3 1.868430 1_555
Fe0 O19 1.944912 1_455
Fe0 O16 1.960460 1_455
Fe0 O7 1.994512 1_555
Fe0 O18 2.065080 1_455
Fe0 O5 2.105488 1_555
Fe1 O10 1.969290 1_555
Fe1 O6 1.980953 1_555
Fe1 O21 2.033234 1_455
Fe1 O22 2.049032 1_455
Fe1 O19 2.057831 1_455
Fe1 O7 2.058704 1_555
Fe2 O6 1.947621 1_565
Fe2 O23 1.967303 1_455
Fe2 O20 1.991822 1_455
Fe2 O8 2.033923 1_555
Fe2 O22 2.067193 1_465
Fe2 O12 2.092818 1_555
Fe3 O1 1.921003 1_555
Fe3 O13 1.952169 1_554
Fe3 O12 1.953385 1_554
Fe3 O2 1.979946 1_555
Fe3 O14 2.039189 1_555
Fe3 O23 2.113742 1_454
Fe4 O0 1.921644 1_555
Fe4 O4 1.927825 1_555
Fe4 O5 1.934190 1_555
Fe4 O11 1.964538 1_555
Fe4 O9 2.012746 1_555
Fe4 O15 2.058114 1_555
Fe5 O15 1.892194 1_555
Fe5 O8 1.911480 1_545
Fe5 O20 1.955232 1_545
Fe5 O4 1.965020 1_555
Fe5 O17 2.037004 1_545
Fe5 O6 2.151649 1_555
Fe6 O10 1.890420 1_555
Fe6 O18 1.929480 1_555
Fe6 O13 1.979416 1_555
Fe6 O7 1.990106 1_555
Fe6 O21 2.017274 1_555
Fe6 O19 2.099278 1_555
Fe7 O9 1.881094 1_555
Fe7 O11 1.898314 1_555
Fe7 O21 1.910459 1_554
Fe7 O22 1.944937 1_554
Fe7 O0 2.064468 1_655
Fe7 O10 2.210520 1_554
Fe8 O23 1.973479 1_555
Fe8 O18 1.988304 1_555
Fe8 O8 2.016175 1_555
Fe8 O20 2.031154 1_555
Fe8 O13 2.050399 1_555
Fe8 O12 2.074195 1_555
Fe9 O17 1.876146 1_555
Fe9 O2 1.955516 1_655
Fe9 O16 1.968491 1_555
Fe9 O1 1.970387 1_655
Fe9 O14 1.988043 1_555
Fe9 O3 2.028264 1_655
