# generated using pymatgen
data_YbB4O7
_symmetry_space_group_name_H-M   'P 1'
_cell_length_a   4.21514400
_cell_length_b   4.37993100
_cell_length_c   10.63426300
_cell_angle_alpha   90.00000000
_cell_angle_beta   90.00000000
_cell_angle_gamma   90.00000000
_symmetry_Int_Tables_number   1
_chemical_formula_structural   YbB4O7
_chemical_formula_sum   'Yb2 B8 O14'
_cell_volume   196.33018755
_cell_formula_units_Z   2
loop_
 _symmetry_equiv_pos_site_id
 _symmetry_equiv_pos_as_xyz
  1  'x, y, z'
loop_
 _atom_site_type_symbol
 _atom_site_label
 _atom_site_symmetry_multiplicity
 _atom_site_fract_x
 _atom_site_fract_y
 _atom_site_fract_z
 _atom_site_occupancy
  Yb  Yb0  1  0.46794100  0.80594400  0.50000000  1
  Yb  Yb1  1  0.96794100  0.19405600  0.00000000  1
  B  B0  1  0.00169200  0.82230900  0.75121200  1
  B  B1  1  0.00169200  0.82230900  0.24878800  1
  B  B2  1  0.47862600  0.67392100  0.87974800  1
  B  B3  1  0.47862600  0.67392100  0.12025200  1
  B  B4  1  0.50169200  0.17769100  0.74878800  1
  B  B5  1  0.50169200  0.17769100  0.25121200  1
  B  B6  1  0.97862600  0.32607900  0.62025200  1
  B  B7  1  0.97862600  0.32607900  0.37974800  1
  O  O0  1  0.05564300  0.64831100  0.63785900  1
  O  O1  1  0.05564300  0.64831100  0.36214100  1
  O  O2  1  0.09370600  0.21755800  0.50000000  1
  O  O3  1  0.13769100  0.72675900  0.86796300  1
  O  O4  1  0.13769100  0.72675900  0.13203700  1
  O  O5  1  0.14281500  0.13701300  0.72462900  1
  O  O6  1  0.14281500  0.13701300  0.27537100  1
  O  O7  1  0.55564300  0.35168900  0.86214100  1
  O  O8  1  0.55564300  0.35168900  0.13785900  1
  O  O9  1  0.59370600  0.78244200  0.00000000  1
  O  O10  1  0.63769100  0.27324100  0.63203700  1
  O  O11  1  0.63769100  0.27324100  0.36796300  1
  O  O12  1  0.64281500  0.86298700  0.77537100  1
  O  O13  1  0.64281500  0.86298700  0.22462900  1
loop_
_geom_bond_atom_site_label_1
_geom_bond_atom_site_label_2
_geom_bond_distance
_geom_bond_site_symmetry_2
B0 O3 1.430119 1_555
B0 O0 1.444148 1_555
B0 O5 1.527646 1_565
B0 O12 1.544689 1_455
B1 O4 1.430119 1_555
B1 O1 1.444148 1_555
B1 O6 1.527646 1_565
B1 O13 1.544689 1_455
B2 O9 1.447941 1_556
B2 O7 1.460263 1_555
B2 O3 1.460990 1_555
B2 O12 1.548146 1_555
B3 O9 1.447941 1_555
B3 O8 1.460263 1_555
B3 O4 1.460990 1_555
B3 O13 1.548146 1_555
B4 O10 1.430119 1_555
B4 O7 1.444148 1_555
B4 O12 1.527646 1_545
B4 O5 1.544689 1_555
B5 O11 1.430119 1_555
B5 O8 1.444148 1_555
B5 O13 1.527646 1_545
B5 O6 1.544689 1_555
B6 O2 1.447941 1_655
B6 O0 1.460263 1_655
B6 O10 1.460990 1_555
B6 O5 1.548146 1_655
B7 O2 1.447941 1_655
B7 O1 1.460263 1_655
B7 O11 1.460990 1_555
B7 O6 1.548146 1_655
O0 Yb0 2.376174 1_555
O1 Yb0 2.376174 1_555
O2 Yb0 2.395537 1_545
O3 Yb1 2.583140 1_466
O4 Yb1 2.583140 1_465
O7 Yb1 2.376174 1_556
O8 Yb1 2.376174 1_555
O9 Yb1 2.395537 1_565
O10 Yb0 2.583140 1_545
O11 Yb0 2.583140 1_545
