# generated using pymatgen
data_Li4Fe3O8
_symmetry_space_group_name_H-M   'P 1'
_cell_length_a   6.14188344
_cell_length_b   6.14188344
_cell_length_c   6.14188386
_cell_angle_alpha   56.65306986
_cell_angle_beta   56.65306986
_cell_angle_gamma   56.65307683
_symmetry_Int_Tables_number   1
_chemical_formula_structural   Li4Fe3O8
_chemical_formula_sum   'Li4 Fe3 O8'
_cell_volume   151.16415836
_cell_formula_units_Z   1
loop_
 _symmetry_equiv_pos_site_id
 _symmetry_equiv_pos_as_xyz
  1  'x, y, z'
loop_
 _atom_site_type_symbol
 _atom_site_label
 _atom_site_symmetry_multiplicity
 _atom_site_fract_x
 _atom_site_fract_y
 _atom_site_fract_z
 _atom_site_occupancy
  Li  Li0  1  0.00000000  0.00000000  0.00000000  1
  Li  Li1  1  0.64016400  0.64016400  0.64016400  1
  Li  Li2  1  0.50000000  0.50000000  0.50000000  1
  Li  Li3  1  0.35983600  0.35983600  0.35983600  1
  Fe  Fe0  1  0.00000000  0.00000000  0.50000000  1
  Fe  Fe1  1  0.50000000  0.00000000  0.00000000  1
  Fe  Fe2  1  0.00000000  0.50000000  0.00000000  1
  O  O0  1  0.76066700  0.76066700  0.76066700  1
  O  O1  1  0.25462900  0.25462900  0.78085800  1
  O  O2  1  0.78085800  0.25462900  0.25462900  1
  O  O3  1  0.25462900  0.78085800  0.25462900  1
  O  O4  1  0.23933300  0.23933300  0.23933300  1
  O  O5  1  0.74537100  0.74537100  0.21914200  1
  O  O6  1  0.21914200  0.74537100  0.74537100  1
  O  O7  1  0.74537100  0.21914200  0.74537100  1
loop_
_geom_bond_atom_site_label_1
_geom_bond_atom_site_label_2
_geom_bond_distance
_geom_bond_site_symmetry_2
Li0 O1 2.182592 1_554
Li0 O5 2.182592 1_445
Li0 O2 2.182592 1_455
Li0 O3 2.182592 1_545
Li0 O6 2.182592 1_544
Li0 O7 2.182592 1_454
Li1 O0 1.857416 1_555
Li1 O7 2.075280 1_555
Li1 O6 2.075280 1_555
Li1 O5 2.075280 1_555
Li2 O1 2.073342 1_555
Li2 O5 2.073342 1_555
Li2 O6 2.073343 1_555
Li2 O3 2.073343 1_555
Li2 O7 2.073343 1_555
Li2 O2 2.073343 1_555
Li3 O4 1.857416 1_555
Li3 O2 2.075280 1_555
Li3 O3 2.075280 1_555
Li3 O1 2.075280 1_555
Fe0 O6 1.962961 1_545
Fe0 O7 1.962961 1_455
Fe0 O2 1.962961 1_455
Fe0 O3 1.962961 1_545
Fe0 O4 2.021286 1_555
Fe0 O0 2.021286 1_445
Fe1 O7 1.962961 1_554
Fe1 O3 1.962961 1_545
Fe1 O5 1.962961 1_545
Fe1 O1 1.962961 1_554
Fe1 O4 2.021287 1_555
Fe1 O0 2.021287 1_544
Fe2 O6 1.962961 1_554
Fe2 O2 1.962961 1_455
Fe2 O5 1.962961 1_455
Fe2 O1 1.962961 1_554
Fe2 O4 2.021287 1_555
Fe2 O0 2.021287 1_454
