# generated using pymatgen
data_Li3V(FeO3)2
_symmetry_space_group_name_H-M   'P 1'
_cell_length_a   5.15880674
_cell_length_b   5.21264374
_cell_length_c   10.24149500
_cell_angle_alpha   90.00000000
_cell_angle_beta   90.00000000
_cell_angle_gamma   60.34108114
_symmetry_Int_Tables_number   1
_chemical_formula_structural   Li3V(FeO3)2
_chemical_formula_sum   'Li6 V2 Fe4 O12'
_cell_volume   239.32259711
_cell_formula_units_Z   2
loop_
 _symmetry_equiv_pos_site_id
 _symmetry_equiv_pos_as_xyz
  1  'x, y, z'
loop_
 _atom_site_type_symbol
 _atom_site_label
 _atom_site_symmetry_multiplicity
 _atom_site_fract_x
 _atom_site_fract_y
 _atom_site_fract_z
 _atom_site_occupancy
  Li  Li0  1  0.66260300  0.00000000  0.77685100  1
  Li  Li1  1  0.83739700  0.00000000  0.27685100  1
  Li  Li2  1  0.16092900  0.33822200  0.27785700  1
  Li  Li3  1  0.33907100  0.66177800  0.77785700  1
  Li  Li4  1  0.00084900  0.33822200  0.77785700  1
  Li  Li5  1  0.49915100  0.66177800  0.27785700  1
  V  V0  1  0.00085400  0.00000000  0.00304100  1
  V  V1  1  0.49914600  0.00000000  0.50304100  1
  Fe  Fe0  1  0.33447700  0.33410900  0.00658500  1
  Fe  Fe1  1  0.83141400  0.33410900  0.50658500  1
  Fe  Fe2  1  0.16552300  0.66589100  0.50658500  1
  Fe  Fe3  1  0.66858600  0.66589100  0.00658500  1
  O  O0  1  0.16994700  0.00000000  0.39028300  1
  O  O1  1  0.33005300  0.00000000  0.89028300  1
  O  O2  1  0.99861600  0.33331100  0.10715600  1
  O  O3  1  0.67096000  0.00000000  0.10635500  1
  O  O4  1  0.82904000  0.00000000  0.60635500  1
  O  O5  1  0.16807300  0.33331100  0.60715600  1
  O  O6  1  0.49964500  0.33533100  0.38964600  1
  O  O7  1  0.66502500  0.33533100  0.88964600  1
  O  O8  1  0.33192700  0.66668900  0.10715600  1
  O  O9  1  0.50138400  0.66668900  0.60715600  1
  O  O10  1  0.83497500  0.66466900  0.38964600  1
  O  O11  1  0.00035500  0.66466900  0.88964600  1
loop_
_geom_bond_atom_site_label_1
_geom_bond_atom_site_label_2
_geom_bond_distance
_geom_bond_site_symmetry_2
Li0 O4 1.945817 1_555
Li0 O1 2.071890 1_555
Li0 O11 2.100379 1_645
Li0 O7 2.100381 1_555
Li1 O3 1.945817 1_555
Li1 O0 2.071890 1_655
Li1 O6 2.100379 1_555
Li1 O10 2.100381 1_545
Li2 O2 1.944050 1_455
Li2 O10 2.049905 1_455
Li2 O6 2.082843 1_555
Li2 O0 2.086867 1_555
Li3 O9 1.944050 1_555
Li3 O7 2.049905 1_555
Li3 O11 2.082843 1_555
Li3 O1 2.086867 1_565
Li4 O5 1.944050 1_555
Li4 O11 2.049902 1_555
Li4 O7 2.082839 1_455
Li4 O1 2.086867 1_555
Li5 O8 1.944050 1_555
Li5 O6 2.049902 1_555
Li5 O10 2.082839 1_555
Li5 O0 2.086867 1_565
Fe0 O8 2.010955 1_555
Fe0 O2 2.017447 1_455
Fe0 O3 2.024466 1_555
Fe0 O7 2.086367 1_554
Fe0 O11 2.105953 1_554
Fe0 O1 2.119371 1_554
Fe1 O9 2.010955 1_555
Fe1 O5 2.017447 1_655
Fe1 O4 2.024466 1_555
Fe1 O6 2.086363 1_555
Fe1 O10 2.105950 1_555
Fe1 O0 2.119371 1_655
Fe2 O5 2.010955 1_555
Fe2 O9 2.017447 1_555
Fe2 O4 2.024466 1_465
Fe2 O10 2.086367 1_455
Fe2 O6 2.105953 1_555
Fe2 O0 2.119371 1_565
Fe3 O2 2.010955 1_555
Fe3 O8 2.017447 1_555
Fe3 O3 2.024466 1_565
Fe3 O11 2.086363 1_654
Fe3 O7 2.105950 1_554
Fe3 O1 2.119371 1_564
O0 V1 2.053709 1_555
O1 V0 2.053709 1_556
O2 V0 2.033699 1_655
O3 V0 2.003966 1_655
O4 V1 2.003966 1_555
O5 V1 2.033699 1_555
O6 V1 2.099649 1_555
O7 V0 2.099647 1_656
O8 V0 2.033699 1_565
O9 V1 2.033699 1_565
O10 V1 2.099647 1_565
O11 V0 2.099649 1_566
