# generated using pymatgen
data_MnNbO4
_symmetry_space_group_name_H-M   'P 1'
_cell_length_a   3.87713838
_cell_length_b   3.87711913
_cell_length_c   10.35721754
_cell_angle_alpha   90.00104816
_cell_angle_beta   89.99972673
_cell_angle_gamma   90.00006411
_symmetry_Int_Tables_number   1
_chemical_formula_structural   MnNbO4
_chemical_formula_sum   'Mn2 Nb2 O8'
_cell_volume   155.69101335
_cell_formula_units_Z   2
loop_
 _symmetry_equiv_pos_site_id
 _symmetry_equiv_pos_as_xyz
  1  'x, y, z'
loop_
 _atom_site_type_symbol
 _atom_site_label
 _atom_site_symmetry_multiplicity
 _atom_site_fract_x
 _atom_site_fract_y
 _atom_site_fract_z
 _atom_site_occupancy
  Mn  Mn0  1  0.99994600  0.49998700  0.24998600  1
  Mn  Mn1  1  0.50005100  0.00000900  0.75001500  1
  Nb  Nb0  1  0.99999100  0.99999500  0.99993800  1
  Nb  Nb1  1  0.50000600  0.49999400  0.50006100  1
  O  O0  1  0.49999800  0.99999800  0.96340800  1
  O  O1  1  0.99999700  0.49999700  0.46357200  1
  O  O2  1  0.49999800  0.99999500  0.53658600  1
  O  O3  1  0.99999900  0.49999600  0.03643500  1
  O  O4  1  0.99996600  0.00000600  0.80035100  1
  O  O5  1  0.50004100  0.50000000  0.30045200  1
  O  O6  1  0.00001900  0.00001300  0.19956400  1
  O  O7  1  0.49998800  0.50001000  0.69963200  1
loop_
_geom_bond_atom_site_label_1
_geom_bond_atom_site_label_2
_geom_bond_distance
_geom_bond_site_symmetry_2
Mn0 O5 2.007440 1_555
Mn0 O6 2.007564 1_655
Mn0 O6 2.007777 1_665
Mn0 O5 2.008156 1_655
Mn0 O3 2.211794 1_555
Mn0 O1 2.212157 1_555
Mn1 O4 2.007132 1_555
Mn1 O7 2.007552 1_545
Mn1 O7 2.007578 1_555
Mn1 O4 2.007764 1_455
Mn1 O0 2.210158 1_545
Mn1 O2 2.210531 1_545
Nb0 O3 1.975067 1_566
Nb0 O3 1.975073 1_556
Nb0 O0 1.975120 1_555
Nb0 O0 1.975170 1_655
Nb0 O4 2.067166 1_565
Nb0 O6 2.067570 1_666
Nb1 O1 1.975028 1_555
Nb1 O1 1.975100 1_455
Nb1 O2 1.975123 1_555
Nb1 O2 1.975129 1_545
Nb1 O7 2.067000 1_555
Nb1 O5 2.067394 1_555
