# generated using pymatgen
data_Li3TiCr3O8
_symmetry_space_group_name_H-M   'P 1'
_cell_length_a   5.92294824
_cell_length_b   10.28539666
_cell_length_c   6.00610010
_cell_angle_alpha   73.45604836
_cell_angle_beta   60.46071702
_cell_angle_gamma   89.99856207
_symmetry_Int_Tables_number   1
_chemical_formula_structural   Li3TiCr3O8
_chemical_formula_sum   'Li6 Ti2 Cr6 O16'
_cell_volume   300.80036763
_cell_formula_units_Z   2
loop_
 _symmetry_equiv_pos_site_id
 _symmetry_equiv_pos_as_xyz
  1  'x, y, z'
loop_
 _atom_site_type_symbol
 _atom_site_label
 _atom_site_symmetry_multiplicity
 _atom_site_fract_x
 _atom_site_fract_y
 _atom_site_fract_z
 _atom_site_occupancy
  Li  Li0  1  0.50009800  0.99983700  0.50029500  1
  Li  Li1  1  0.00009900  0.49983800  0.50028500  1
  Li  Li2  1  0.24992300  0.24999800  0.49999500  1
  Li  Li3  1  0.74992500  0.75000600  0.50000000  1
  Li  Li4  1  0.00039000  0.00016400  0.49969800  1
  Li  Li5  1  0.50038100  0.50016300  0.49971000  1
  Ti  Ti0  1  0.00159500  0.00000400  0.99999900  1
  Ti  Ti1  1  0.50148300  0.49999800  0.00000500  1
  Cr  Cr0  1  0.74813100  0.75077900  0.00109800  1
  Cr  Cr1  1  0.00156900  0.50000000  0.99998400  1
  Cr  Cr2  1  0.74924400  0.24922400  0.99894000  1
  Cr  Cr3  1  0.24822400  0.25077100  0.00108500  1
  Cr  Cr4  1  0.50147600  0.99999100  0.00001800  1
  Cr  Cr5  1  0.24930800  0.74924400  0.99891900  1
  O  O0  1  0.38700100  0.12933100  0.22307000  1
  O  O1  1  0.88697300  0.62931400  0.22309200  1
  O  O2  1  0.61003300  0.87066000  0.77693600  1
  O  O3  1  0.11001700  0.37068100  0.77691500  1
  O  O4  1  0.13559600  0.88296600  0.21464500  1
  O  O5  1  0.63557900  0.38297200  0.21466600  1
  O  O6  1  0.89102500  0.12506900  0.21644000  1
  O  O7  1  0.39104700  0.62506500  0.21641700  1
  O  O8  1  0.65025700  0.88358400  0.21736000  1
  O  O9  1  0.15021700  0.38360000  0.21735200  1
  O  O10  1  0.86757400  0.11641300  0.78263500  1
  O  O11  1  0.36753600  0.61640200  0.78263600  1
  O  O12  1  0.10743700  0.87492900  0.78355300  1
  O  O13  1  0.60742800  0.37493400  0.78357200  1
  O  O14  1  0.35021400  0.11703100  0.78534700  1
  O  O15  1  0.85021700  0.61703100  0.78533200  1
loop_
_geom_bond_atom_site_label_1
_geom_bond_atom_site_label_2
_geom_bond_distance
_geom_bond_site_symmetry_2
Li0 O2 2.181623 1_555
Li0 O8 2.185251 1_555
Li0 O6 2.187250 1_565
Li0 O12 2.192660 1_555
Li0 O0 2.198139 1_565
Li0 O14 2.201985 1_565
Li1 O3 2.181426 1_555
Li1 O9 2.185118 1_555
Li1 O7 2.187322 1_555
Li1 O13 2.192700 1_455
Li1 O1 2.198042 1_455
Li1 O15 2.201955 1_455
Li2 O9 2.186049 1_555
Li2 O10 2.186148 1_455
Li2 O0 2.193151 1_555
Li2 O3 2.193259 1_555
Li2 O14 2.197609 1_555
Li2 O5 2.197850 1_555
Li3 O8 2.185788 1_555
Li3 O11 2.186381 1_555
Li3 O2 2.193096 1_555
Li3 O1 2.193277 1_555
Li3 O15 2.197557 1_555
Li3 O4 2.197864 1_655
Li4 O0 2.181891 1_555
Li4 O10 2.185220 1_455
Li4 O12 2.186986 1_545
Li4 O6 2.192320 1_455
Li4 O2 2.198500 1_445
Li4 O4 2.202014 1_545
Li5 O1 2.181746 1_555
Li5 O11 2.185087 1_555
Li5 O13 2.186995 1_555
Li5 O7 2.192343 1_555
Li5 O3 2.198427 1_555
Li5 O5 2.201919 1_555
Cr0 O2 2.035292 1_554
Cr0 O1 2.036481 1_555
Cr0 O8 2.038853 1_555
Cr0 O7 2.041659 1_555
Cr0 O12 2.043262 1_654
Cr0 O15 2.044503 1_554
Cr1 O3 2.035437 1_555
Cr1 O1 2.035553 1_456
Cr1 O11 2.038611 1_555
Cr1 O9 2.038657 1_556
Cr1 O15 2.042153 1_455
Cr1 O5 2.042224 1_456
Cr2 O0 2.035434 1_556
Cr2 O3 2.036325 1_655
Cr2 O10 2.039068 1_555
Cr2 O13 2.041897 1_555
Cr2 O6 2.043035 1_556
Cr2 O5 2.044344 1_556
Cr3 O3 2.035920 1_554
Cr3 O0 2.036055 1_555
Cr3 O9 2.039061 1_555
Cr3 O6 2.042083 1_455
Cr3 O13 2.042892 1_554
Cr3 O14 2.044328 1_554
Cr4 O0 2.035543 1_565
Cr4 O2 2.035589 1_554
Cr4 O8 2.039168 1_555
Cr4 O10 2.039264 1_564
Cr4 O4 2.041742 1_555
Cr4 O14 2.041868 1_564
Cr5 O2 2.035948 1_555
Cr5 O1 2.035982 1_456
Cr5 O11 2.039235 1_555
Cr5 O12 2.042009 1_555
Cr5 O7 2.042956 1_556
Cr5 O4 2.044120 1_556
O4 Ti0 1.966235 1_564
O5 Ti1 1.966653 1_555
O6 Ti0 1.971370 1_654
O7 Ti1 1.971264 1_555
O8 Ti0 1.974749 1_664
O9 Ti1 1.974347 1_555
O10 Ti0 1.974751 1_655
O11 Ti1 1.974431 1_556
O12 Ti0 1.971478 1_565
O13 Ti1 1.971325 1_556
O14 Ti0 1.966217 1_555
O15 Ti1 1.966734 1_556
