# generated using pymatgen
data_Na4Bi2B4SO16
_symmetry_space_group_name_H-M   'P 1'
_cell_length_a   10.31454547
_cell_length_b   10.26549168
_cell_length_c   10.04705727
_cell_angle_alpha   61.02246372
_cell_angle_beta   60.53418123
_cell_angle_gamma   58.44335505
_symmetry_Int_Tables_number   1
_chemical_formula_structural   Na4Bi2B4SO16
_chemical_formula_sum   'Na8 Bi4 B8 S2 O32'
_cell_volume   751.38660741
_cell_formula_units_Z   2
loop_
 _symmetry_equiv_pos_site_id
 _symmetry_equiv_pos_as_xyz
  1  'x, y, z'
loop_
 _atom_site_type_symbol
 _atom_site_label
 _atom_site_symmetry_multiplicity
 _atom_site_fract_x
 _atom_site_fract_y
 _atom_site_fract_z
 _atom_site_occupancy
  Na  Na0  1  0.95399600  0.54600400  0.95399600  1
  Na  Na1  1  0.95461900  0.54538100  0.54538100  1
  Na  Na2  1  0.70461900  0.29538100  0.29538100  1
  Na  Na3  1  0.70399600  0.29600400  0.70399600  1
  Na  Na4  1  0.54600400  0.95399600  0.54600400  1
  Na  Na5  1  0.54538100  0.95461900  0.95461900  1
  Na  Na6  1  0.29538100  0.70461900  0.70461900  1
  Na  Na7  1  0.29600400  0.70399600  0.29600400  1
  Bi  Bi0  1  0.12500000  0.62500000  0.12500000  1
  Bi  Bi1  1  0.62500000  0.12500000  0.12500000  1
  Bi  Bi2  1  0.12500000  0.12500000  0.12500000  1
  Bi  Bi3  1  0.12500000  0.12500000  0.62500000  1
  B  B0  1  0.89944800  0.27491000  0.91427300  1
  B  B1  1  0.97509000  0.35055200  0.33863100  1
  B  B2  1  0.91427300  0.91136900  0.89944800  1
  B  B3  1  0.91136900  0.91427300  0.27491000  1
  B  B4  1  0.33863100  0.33572700  0.97509000  1
  B  B5  1  0.33572700  0.33863100  0.35055200  1
  B  B6  1  0.27491000  0.89944800  0.91136900  1
  B  B7  1  0.35055200  0.97509000  0.33572700  1
  S  S0  1  0.50000000  0.50000000  0.50000000  1
  S  S1  1  0.75000000  0.75000000  0.75000000  1
  O  O0  1  0.02085700  0.28190500  0.93187900  1
  O  O1  1  0.55682600  0.55605500  0.32000300  1
  O  O2  1  0.76198000  0.26775100  0.04295600  1
  O  O3  1  0.98224900  0.48802000  0.32268600  1
  O  O4  1  0.04295600  0.92731400  0.76198000  1
  O  O5  1  0.96778300  0.33351100  0.21361900  1
  O  O6  1  0.32000300  0.56711600  0.55682600  1
  O  O7  1  0.55605500  0.55682600  0.56711600  1
  O  O8  1  0.48508600  0.21361900  0.33351100  1
  O  O9  1  0.92731400  0.04295600  0.26775100  1
  O  O10  1  0.96809500  0.22914300  0.48464100  1
  O  O11  1  0.56711600  0.32000300  0.55605500  1
  O  O12  1  0.93187900  0.76535900  0.02085700  1
  O  O13  1  0.76535900  0.93187900  0.28190500  1
  O  O14  1  0.91648900  0.28221700  0.76491400  1
  O  O15  1  0.21361900  0.48508600  0.96778300  1
  O  O16  1  0.03638100  0.76491400  0.28221700  1
  O  O17  1  0.33351100  0.96778300  0.48508600  1
  O  O18  1  0.48464100  0.31812100  0.96809500  1
  O  O19  1  0.31812100  0.48464100  0.22914300  1
  O  O20  1  0.68288400  0.92999700  0.69394500  1
  O  O21  1  0.28190500  0.02085700  0.76535900  1
  O  O22  1  0.32268600  0.20704400  0.98224900  1
  O  O23  1  0.76491400  0.03638100  0.91648900  1
  O  O24  1  0.69394500  0.69317400  0.68288400  1
  O  O25  1  0.92999700  0.68288400  0.69317400  1
  O  O26  1  0.28221700  0.91648900  0.03638100  1
  O  O27  1  0.20704400  0.32268600  0.48802000  1
  O  O28  1  0.26775100  0.76198000  0.92731400  1
  O  O29  1  0.48802000  0.98224900  0.20704400  1
  O  O30  1  0.69317400  0.69394500  0.92999700  1
  O  O31  1  0.22914300  0.96809500  0.31812100  1
loop_
_geom_bond_atom_site_label_1
_geom_bond_atom_site_label_2
_geom_bond_distance
_geom_bond_site_symmetry_2
Na0 O25 2.368337 1_555
Na0 O30 2.368337 1_555
Na0 O15 2.471753 1_655
Na0 O5 2.471756 1_556
Na0 O0 2.520132 1_655
Na0 O12 2.520132 1_556
Na1 O25 2.355090 1_555
Na1 O24 2.355090 1_555
Na1 O27 2.430556 1_655
Na1 O3 2.430561 1_555
Na1 O14 2.608242 1_555
Na1 O16 2.608245 1_655
Na2 O1 2.355090 1_555
Na2 O11 2.355090 1_555
Na2 O2 2.430551 1_555
Na2 O9 2.430555 1_555
Na2 O5 2.608239 1_555
Na2 O8 2.608249 1_555
Na3 O7 2.368337 1_555
Na3 O11 2.368337 1_555
Na3 O23 2.471757 1_555
Na3 O14 2.471763 1_555
Na3 O18 2.520132 1_555
Na3 O10 2.520132 1_555
Na4 O24 2.368337 1_555
Na4 O20 2.368337 1_555
Na4 O8 2.471757 1_565
Na4 O17 2.471763 1_555
Na4 O13 2.520132 1_555
Na4 O21 2.520132 1_565
Na5 O20 2.355090 1_555
Na5 O30 2.355090 1_555
Na5 O29 2.430551 1_556
Na5 O22 2.430555 1_565
Na5 O26 2.608239 1_556
Na5 O23 2.608249 1_565
Na6 O7 2.355090 1_555
Na6 O6 2.355090 1_555
Na6 O4 2.430556 1_555
Na6 O28 2.430561 1_555
Na6 O17 2.608242 1_555
Na6 O15 2.608245 1_555
Na7 O1 2.368337 1_555
Na7 O6 2.368337 1_555
Na7 O16 2.471753 1_555
Na7 O26 2.471756 1_555
Na7 O31 2.520132 1_555
Na7 O19 2.520132 1_555
Bi0 O28 2.161954 1_554
Bi0 O3 2.161954 1_455
Bi0 O19 2.173563 1_555
Bi0 O12 2.173563 1_455
Bi0 O16 2.190229 1_555
Bi0 O15 2.190229 1_554
Bi1 O2 2.161957 1_555
Bi1 O29 2.161957 1_545
Bi1 O13 2.173563 1_545
Bi1 O18 2.173563 1_554
Bi1 O8 2.190220 1_555
Bi1 O23 2.190220 1_554
Bi2 O22 2.161948 1_554
Bi2 O9 2.161948 1_455
Bi2 O31 2.173563 1_545
Bi2 O0 2.173563 1_554
Bi2 O26 2.190221 1_545
Bi2 O5 2.190221 1_455
Bi3 O27 2.161948 1_555
Bi3 O4 2.161948 1_545
Bi3 O21 2.173563 1_555
Bi3 O10 2.173563 1_455
Bi3 O14 2.190226 1_455
Bi3 O17 2.190226 1_545
B0 O2 1.378742 1_556
B0 O0 1.388885 1_655
B0 O14 1.390547 1_555
B1 O3 1.378738 1_555
B1 O10 1.388885 1_555
B1 O5 1.390556 1_555
B2 O4 1.378744 1_655
B2 O12 1.388885 1_556
B2 O23 1.390551 1_565
B3 O9 1.378748 1_565
B3 O13 1.388885 1_555
B3 O16 1.390550 1_655
B4 O22 1.378748 1_555
B4 O18 1.388885 1_555
B4 O15 1.390550 1_555
B5 O27 1.378744 1_555
B5 O19 1.388885 1_555
B5 O8 1.390551 1_555
B6 O28 1.378738 1_555
B6 O21 1.388885 1_565
B6 O26 1.390556 1_556
B7 O29 1.378742 1_555
B7 O31 1.388885 1_555
B7 O17 1.390547 1_555
O1 S0 1.499008 1_555
O6 S0 1.499008 1_555
O7 S0 1.499008 1_555
O11 S0 1.499008 1_555
O20 S1 1.499008 1_555
O24 S1 1.499008 1_555
O25 S1 1.499008 1_555
O30 S1 1.499008 1_555
