# generated using pymatgen
data_Tb3TaO7
_symmetry_space_group_name_H-M   'P 1'
_cell_length_a   6.49466837
_cell_length_b   6.49466837
_cell_length_c   7.55691300
_cell_angle_alpha   90.00000000
_cell_angle_beta   90.00000000
_cell_angle_gamma   110.37935744
_symmetry_Int_Tables_number   1
_chemical_formula_structural   Tb3TaO7
_chemical_formula_sum   'Tb6 Ta2 O14'
_cell_volume   298.80427862
_cell_formula_units_Z   2
loop_
 _symmetry_equiv_pos_site_id
 _symmetry_equiv_pos_as_xyz
  1  'x, y, z'
loop_
 _atom_site_type_symbol
 _atom_site_label
 _atom_site_symmetry_multiplicity
 _atom_site_fract_x
 _atom_site_fract_y
 _atom_site_fract_z
 _atom_site_occupancy
  Tb  Tb0  1  0.51522200  0.05520500  0.25000000  1
  Tb  Tb1  1  0.94479500  0.48477800  0.75000000  1
  Tb  Tb2  1  0.00000000  0.00000000  0.00000000  1
  Tb  Tb3  1  0.00000000  0.00000000  0.50000000  1
  Tb  Tb4  1  0.05520500  0.51522200  0.25000000  1
  Tb  Tb5  1  0.48477800  0.94479500  0.75000000  1
  Ta  Ta0  1  0.50000000  0.50000000  0.00000000  1
  Ta  Ta1  1  0.50000000  0.50000000  0.50000000  1
  O  O0  1  0.88696700  0.15192900  0.25000000  1
  O  O1  1  0.84807100  0.11303300  0.75000000  1
  O  O2  1  0.82116100  0.56335700  0.03409300  1
  O  O3  1  0.82116100  0.56335700  0.46590700  1
  O  O4  1  0.43664300  0.17883900  0.96590700  1
  O  O5  1  0.43664300  0.17883900  0.53409300  1
  O  O6  1  0.57566100  0.57566100  0.75000000  1
  O  O7  1  0.42433900  0.42433900  0.25000000  1
  O  O8  1  0.56335700  0.82116100  0.03409300  1
  O  O9  1  0.17883900  0.43664300  0.53409300  1
  O  O10  1  0.56335700  0.82116100  0.46590700  1
  O  O11  1  0.17883900  0.43664300  0.96590700  1
  O  O12  1  0.11303300  0.84807100  0.75000000  1
  O  O13  1  0.15192900  0.88696700  0.25000000  1
loop_
_geom_bond_atom_site_label_1
_geom_bond_atom_site_label_2
_geom_bond_distance
_geom_bond_site_symmetry_2
O0 Tb4 2.228323 1_655
O0 Tb0 2.273201 1_555
O0 Tb3 2.363522 1_655
O0 Tb2 2.363522 1_655
O1 Tb5 2.228323 1_545
O1 Tb1 2.273201 1_555
O1 Tb3 2.363522 1_655
O1 Tb2 2.363522 1_656
O2 Ta0 1.997156 1_555
O2 Tb4 2.324068 1_655
O2 Tb1 2.408244 1_554
O2 Tb2 2.676463 1_665
O3 Ta1 1.997156 1_555
O3 Tb4 2.324068 1_655
O3 Tb1 2.408244 1_555
O3 Tb3 2.676463 1_665
O4 Ta0 1.997156 1_556
O4 Tb5 2.324068 1_545
O4 Tb0 2.408244 1_556
O4 Tb2 2.676463 1_556
O5 Ta1 1.997156 1_555
O5 Tb5 2.324068 1_545
O5 Tb0 2.408244 1_555
O5 Tb3 2.676463 1_555
O6 Ta1 1.970772 1_555
O6 Ta0 1.970772 1_556
O6 Tb1 2.661109 1_555
O6 Tb5 2.661109 1_555
O7 Ta0 1.970772 1_555
O7 Ta1 1.970772 1_555
O7 Tb0 2.661109 1_555
O7 Tb4 2.661109 1_555
O8 Ta0 1.997156 1_555
O8 Tb0 2.324068 1_565
O8 Tb5 2.408244 1_554
O8 Tb2 2.676463 1_665
O9 Ta1 1.997156 1_555
O9 Tb1 2.324068 1_455
O9 Tb4 2.408244 1_555
O9 Tb3 2.676463 1_555
O10 Ta1 1.997156 1_555
O10 Tb0 2.324068 1_565
O10 Tb5 2.408244 1_555
O10 Tb3 2.676463 1_665
O11 Ta0 1.997156 1_556
O11 Tb1 2.324068 1_455
O11 Tb4 2.408244 1_556
O11 Tb2 2.676463 1_556
O12 Tb1 2.228323 1_455
O12 Tb5 2.273201 1_555
O12 Tb2 2.363522 1_566
O12 Tb3 2.363522 1_565
O13 Tb0 2.228323 1_565
O13 Tb4 2.273201 1_555
O13 Tb3 2.363522 1_565
O13 Tb2 2.363522 1_565
