# generated using pymatgen
data_Ba2Y5F19
_symmetry_space_group_name_H-M   'P 1'
_cell_length_a   6.31772300
_cell_length_b   7.88915300
_cell_length_c   26.22109139
_cell_angle_alpha   84.15942632
_cell_angle_beta   90.00000000
_cell_angle_gamma   90.00000000
_symmetry_Int_Tables_number   1
_chemical_formula_structural   Ba2Y5F19
_chemical_formula_sum   'Ba4 Y10 F38'
_cell_volume   1300.11384737
_cell_formula_units_Z   2
loop_
 _symmetry_equiv_pos_site_id
 _symmetry_equiv_pos_as_xyz
  1  'x, y, z'
loop_
 _atom_site_type_symbol
 _atom_site_label
 _atom_site_symmetry_multiplicity
 _atom_site_fract_x
 _atom_site_fract_y
 _atom_site_fract_z
 _atom_site_occupancy
  Ba  Ba0  1  0.23556400  0.76368300  0.73808700  1
  Ba  Ba1  1  0.26741900  0.76608800  0.17071500  1
  Ba  Ba2  1  0.76741900  0.23391200  0.82928500  1
  Ba  Ba3  1  0.73556400  0.23631700  0.26191300  1
  Y  Y0  1  0.75895500  0.84107800  0.96963100  1
  Y  Y1  1  0.74616100  0.82967000  0.53570600  1
  Y  Y2  1  0.24118600  0.86143300  0.33253000  1
  Y  Y3  1  0.26416700  0.55799800  0.90054600  1
  Y  Y4  1  0.24639100  0.46924700  0.59668100  1
  Y  Y5  1  0.74639100  0.53075300  0.40331900  1
  Y  Y6  1  0.76416700  0.44200200  0.09945400  1
  Y  Y7  1  0.74118600  0.13856700  0.66747000  1
  Y  Y8  1  0.24616100  0.17033000  0.46429400  1
  Y  Y9  1  0.25895500  0.15892200  0.03036900  1
  F  F0  1  0.02517700  0.98864400  0.99792100  1
  F  F1  1  0.47818700  0.99035700  0.70323500  1
  F  F2  1  0.75345200  0.96694300  0.60488200  1
  F  F3  1  0.93303500  0.95920900  0.71859500  1
  F  F4  1  0.00253300  0.99508800  0.50059800  1
  F  F5  1  0.48065400  0.70842100  0.94300400  1
  F  F6  1  0.25869300  0.01320200  0.10489400  1
  F  F7  1  0.98939300  0.67600600  0.93508600  1
  F  F8  1  0.27168500  0.74839300  0.83379800  1
  F  F9  1  0.48704800  0.66019100  0.56704400  1
  F  F10  1  0.23568500  0.70930500  0.26706900  1
  F  F11  1  0.51131900  0.71729100  0.36854300  1
  F  F12  1  0.24993100  0.56520100  0.67121000  1
  F  F13  1  0.74393400  0.67755600  0.47023600  1
  F  F14  1  0.99164900  0.64956000  0.56913000  1
  F  F15  1  0.01389200  0.69393100  0.37560300  1
  F  F16  1  0.57801600  0.59421000  0.14972400  1
  F  F17  1  0.25169800  0.34673600  0.96255200  1
  F  F18  1  0.53629100  0.43354000  0.86915800  1
  F  F19  1  0.03629100  0.56646000  0.13084200  1
  F  F20  1  0.75169800  0.65326400  0.03744800  1
  F  F21  1  0.07801600  0.40579000  0.85027600  1
  F  F22  1  0.51389200  0.30606900  0.62439700  1
  F  F23  1  0.49164900  0.35044000  0.43087000  1
  F  F24  1  0.24393400  0.32244400  0.52976400  1
  F  F25  1  0.74993100  0.43479900  0.32879000  1
  F  F26  1  0.01131900  0.28270900  0.63145700  1
  F  F27  1  0.73568500  0.29069500  0.73293100  1
  F  F28  1  0.98704800  0.33980900  0.43295600  1
  F  F29  1  0.77168500  0.25160700  0.16620200  1
  F  F30  1  0.48939300  0.32399400  0.06491400  1
  F  F31  1  0.75869300  0.98679800  0.89510600  1
  F  F32  1  0.98065400  0.29157900  0.05699600  1
  F  F33  1  0.50253300  0.00491200  0.49940200  1
  F  F34  1  0.43303500  0.04079100  0.28140500  1
  F  F35  1  0.25345200  0.03305700  0.39511800  1
  F  F36  1  0.97818700  0.00964300  0.29676500  1
  F  F37  1  0.52517700  0.01135600  0.00207900  1
loop_
_geom_bond_atom_site_label_1
_geom_bond_atom_site_label_2
_geom_bond_distance
_geom_bond_site_symmetry_2
Ba0 F1 2.459671 1_555
Ba0 F12 2.468614 1_555
Ba0 F3 2.476536 1_455
Ba0 F8 2.510646 1_555
Ba1 F19 2.457784 1_555
Ba1 F6 2.469334 1_565
Ba1 F16 2.478707 1_555
Ba1 F10 2.528589 1_555
Ba2 F18 2.457784 1_555
Ba2 F31 2.469334 1_545
Ba2 F21 2.478707 1_655
Ba2 F27 2.528589 1_555
Ba3 F36 2.459671 1_555
Ba3 F25 2.468614 1_555
Ba3 F34 2.476536 1_555
Ba3 F29 2.510646 1_555
F0 Y0 2.215887 1_455
F0 Y9 2.223166 1_566
F1 Y7 2.187284 1_565
F2 Y1 2.205642 1_555
F2 Y7 2.232657 1_565
F3 Y7 2.209586 1_565
F4 Y8 2.217819 1_565
F4 Y1 2.220221 1_455
F5 Y3 2.187969 1_555
F5 Y0 2.196091 1_555
F6 Y9 2.164025 1_555
F7 Y3 2.207281 1_655
F7 Y0 2.208161 1_555
F8 Y3 2.187831 1_555
F9 Y1 2.217902 1_555
F9 Y4 2.224070 1_555
F10 Y2 2.192507 1_555
F11 Y2 2.208813 1_555
F11 Y5 2.220282 1_555
F12 Y4 2.166482 1_555
F13 Y1 2.192405 1_555
F13 Y5 2.198611 1_555
F14 Y4 2.219555 1_655
F14 Y1 2.222391 1_555
F15 Y2 2.186346 1_555
F15 Y5 2.202515 1_455
F16 Y6 2.210115 1_555
F17 Y9 2.196224 1_556
F17 Y3 2.208157 1_555
F18 Y3 2.182102 1_555
F19 Y6 2.182102 1_455
F20 Y0 2.196224 1_554
F20 Y6 2.208157 1_555
F21 Y3 2.210115 1_555
F22 Y7 2.186346 1_555
F22 Y4 2.202515 1_555
F23 Y5 2.219555 1_555
F23 Y8 2.222391 1_555
F24 Y8 2.192405 1_555
F24 Y4 2.198611 1_555
F25 Y5 2.166482 1_555
F26 Y7 2.208813 1_455
F26 Y4 2.220282 1_555
F27 Y7 2.192507 1_555
F28 Y8 2.217902 1_655
F28 Y5 2.224070 1_555
F29 Y6 2.187831 1_555
F30 Y6 2.207281 1_555
F30 Y9 2.208161 1_555
F31 Y0 2.164025 1_555
F32 Y6 2.187969 1_555
F32 Y9 2.196091 1_655
F33 Y1 2.217819 1_545
F33 Y8 2.220221 1_555
F34 Y2 2.209586 1_545
F35 Y8 2.205642 1_555
F35 Y2 2.232657 1_545
F36 Y2 2.187284 1_645
F37 Y9 2.215887 1_555
F37 Y0 2.223166 1_544
