# generated using pymatgen
data_LiMnNbO4
_symmetry_space_group_name_H-M   'P 1'
_cell_length_a   6.28016200
_cell_length_b   6.28819800
_cell_length_c   8.63705800
_cell_angle_alpha   89.99903282
_cell_angle_beta   89.99966994
_cell_angle_gamma   90.00012764
_symmetry_Int_Tables_number   1
_chemical_formula_structural   LiMnNbO4
_chemical_formula_sum   'Li4 Mn4 Nb4 O16'
_cell_volume   341.08521212
_cell_formula_units_Z   4
loop_
 _symmetry_equiv_pos_site_id
 _symmetry_equiv_pos_as_xyz
  1  'x, y, z'
loop_
 _atom_site_type_symbol
 _atom_site_label
 _atom_site_symmetry_multiplicity
 _atom_site_fract_x
 _atom_site_fract_y
 _atom_site_fract_z
 _atom_site_occupancy
  Li  Li0  1  0.00000400  0.22259000  0.99999900  1
  Li  Li1  1  0.00000500  0.77741300  0.49999800  1
  Li  Li2  1  0.22253000  0.00000200  0.24999800  1
  Li  Li3  1  0.77748000  0.00000100  0.74999800  1
  Mn  Mn0  1  0.74396600  0.25571700  0.37576100  1
  Mn  Mn1  1  0.74396900  0.74429700  0.12423900  1
  Mn  Mn2  1  0.25602000  0.25567900  0.62429000  1
  Mn  Mn3  1  0.25600200  0.74429300  0.87573200  1
  Nb  Nb0  1  0.21914900  0.50000000  0.25000400  1
  Nb  Nb1  1  0.49999900  0.21935300  0.99999400  1
  Nb  Nb2  1  0.49999500  0.78064800  0.50000600  1
  Nb  Nb3  1  0.78085100  0.50000100  0.74999800  1
  O  O0  1  0.02698300  0.26559000  0.25329300  1
  O  O1  1  0.02698700  0.73441300  0.24670400  1
  O  O2  1  0.26543700  0.02726600  0.99678400  1
  O  O3  1  0.26543500  0.97273400  0.50321300  1
  O  O4  1  0.73457200  0.02728000  0.00319500  1
  O  O5  1  0.73457700  0.97272100  0.49680200  1
  O  O6  1  0.97302100  0.26559900  0.74670700  1
  O  O7  1  0.97301900  0.73440700  0.75329000  1
  O  O8  1  0.26878900  0.48211200  0.01953400  1
  O  O9  1  0.26879100  0.51788000  0.48046700  1
  O  O10  1  0.48231600  0.26879200  0.23052100  1
  O  O11  1  0.48231500  0.73121400  0.26947500  1
  O  O12  1  0.51768500  0.26879100  0.76946500  1
  O  O13  1  0.51767800  0.73120700  0.73053400  1
  O  O14  1  0.73121200  0.51790000  0.51954400  1
  O  O15  1  0.73121400  0.48210000  0.98045300  1
loop_
_geom_bond_atom_site_label_1
_geom_bond_atom_site_label_2
_geom_bond_distance
_geom_bond_site_symmetry_2
Li0 O4 2.070710 1_456
Li0 O2 2.070775 1_555
Li0 O6 2.210851 1_455
Li0 O0 2.210869 1_556
Li0 O15 2.353919 1_455
Li0 O8 2.353941 1_556
Li1 O5 2.070687 1_455
Li1 O3 2.070744 1_555
Li1 O7 2.210849 1_455
Li1 O1 2.210868 1_555
Li1 O14 2.353939 1_455
Li1 O9 2.353995 1_555
Li2 O1 2.073172 1_545
Li2 O0 2.073186 1_555
Li2 O2 2.210216 1_554
Li2 O3 2.210229 1_545
Li2 O11 2.355169 1_545
Li2 O10 2.355176 1_555
Li3 O7 2.073186 1_545
Li3 O6 2.073209 1_555
Li3 O5 2.210076 1_545
Li3 O4 2.210085 1_556
Li3 O12 2.355218 1_555
Li3 O13 2.355261 1_545
Mn0 O5 2.064727 1_545
Mn0 O14 2.065619 1_555
Mn0 O10 2.068946 1_555
Mn0 O0 2.069255 1_655
Mn1 O4 2.064672 1_565
Mn1 O15 2.065705 1_554
Mn1 O11 2.068935 1_555
Mn1 O1 2.069260 1_655
Mn2 O3 2.064644 1_545
Mn2 O9 2.065887 1_555
Mn2 O12 2.068691 1_555
Mn2 O6 2.068943 1_455
Mn3 O2 2.064690 1_565
Mn3 O8 2.065683 1_556
Mn3 O13 2.068849 1_555
Mn3 O7 2.068971 1_455
Nb0 O0 1.905248 1_555
Nb0 O1 1.905252 1_555
Nb0 O9 2.017927 1_555
Nb0 O8 2.017984 1_555
Nb0 O10 2.207629 1_555
Nb0 O11 2.207638 1_555
Nb1 O2 1.905184 1_555
Nb1 O4 1.905184 1_556
Nb1 O10 2.018261 1_556
Nb1 O12 2.018268 1_555
Nb1 O15 2.206070 1_555
Nb1 O8 2.206114 1_556
Nb2 O3 1.905174 1_555
Nb2 O5 1.905224 1_555
Nb2 O13 2.018263 1_555
Nb2 O11 2.018291 1_555
Nb2 O14 2.206087 1_555
Nb2 O9 2.206128 1_555
Nb3 O6 1.905230 1_555
Nb3 O7 1.905238 1_555
Nb3 O14 2.017850 1_555
Nb3 O15 2.017854 1_555
Nb3 O12 2.207613 1_555
Nb3 O13 2.207634 1_555
