# generated using pymatgen
data_Ca4Ta2O9
_symmetry_space_group_name_H-M   'P 1'
_cell_length_a   5.69076700
_cell_length_b   9.83352500
_cell_length_c   14.94847800
_cell_angle_alpha   90.00000000
_cell_angle_beta   90.00000000
_cell_angle_gamma   90.00000000
_symmetry_Int_Tables_number   1
_chemical_formula_structural   Ca4Ta2O9
_chemical_formula_sum   'Ca16 Ta8 O36'
_cell_volume   836.52130690
_cell_formula_units_Z   4
loop_
 _symmetry_equiv_pos_site_id
 _symmetry_equiv_pos_as_xyz
  1  'x, y, z'
loop_
 _atom_site_type_symbol
 _atom_site_label
 _atom_site_symmetry_multiplicity
 _atom_site_fract_x
 _atom_site_fract_y
 _atom_site_fract_z
 _atom_site_occupancy
  Ca  Ca0  1  0.49422000  0.83611400  0.29735600  1
  Ca  Ca1  1  0.49422000  0.16388600  0.20264400  1
  Ca  Ca2  1  0.48843700  0.16410900  0.48755500  1
  Ca  Ca3  1  0.48843700  0.83589100  0.01244500  1
  Ca  Ca4  1  0.01156300  0.66410900  0.51244500  1
  Ca  Ca5  1  0.01156300  0.33589100  0.98755500  1
  Ca  Ca6  1  0.00578000  0.33611400  0.70264400  1
  Ca  Ca7  1  0.00578000  0.66388600  0.79735600  1
  Ca  Ca8  1  0.99422000  0.33611400  0.20264400  1
  Ca  Ca9  1  0.99422000  0.66388600  0.29735600  1
  Ca  Ca10  1  0.98843700  0.66410900  0.01244500  1
  Ca  Ca11  1  0.98843700  0.33589100  0.48755500  1
  Ca  Ca12  1  0.51156300  0.83589100  0.51244500  1
  Ca  Ca13  1  0.51156300  0.16410900  0.98755500  1
  Ca  Ca14  1  0.50578000  0.16388600  0.70264400  1
  Ca  Ca15  1  0.50578000  0.83611400  0.79735600  1
  Ta  Ta0  1  0.49675300  0.50524700  0.14732800  1
  Ta  Ta1  1  0.49675300  0.49475300  0.35267200  1
  Ta  Ta2  1  0.00324700  0.99475300  0.64732800  1
  Ta  Ta3  1  0.00324700  0.00524700  0.85267200  1
  Ta  Ta4  1  0.99675300  0.00524700  0.35267200  1
  Ta  Ta5  1  0.99675300  0.99475300  0.14732800  1
  Ta  Ta6  1  0.50324700  0.50524700  0.64732800  1
  Ta  Ta7  1  0.50324700  0.49475300  0.85267200  1
  O  O0  1  0.37432400  0.63151400  0.74705100  1
  O  O1  1  0.37432400  0.36848600  0.75294900  1
  O  O2  1  0.34792900  0.35209800  0.41601900  1
  O  O3  1  0.34792900  0.64790200  0.08398100  1
  O  O4  1  0.30472000  0.98736500  0.40750000  1
  O  O5  1  0.30472000  0.01263500  0.09250000  1
  O  O6  1  0.33435300  0.65765400  0.40178900  1
  O  O7  1  0.33435300  0.34234600  0.09821100  1
  O  O8  1  0.26285400  0.00000000  0.75000000  1
  O  O9  1  0.23714600  0.50000000  0.25000000  1
  O  O10  1  0.16564700  0.84234600  0.90178900  1
  O  O11  1  0.16564700  0.15765400  0.59821100  1
  O  O12  1  0.19528000  0.48736500  0.59250000  1
  O  O13  1  0.19528000  0.51263500  0.90750000  1
  O  O14  1  0.15207100  0.85209800  0.58398100  1
  O  O15  1  0.15207100  0.14790200  0.91601900  1
  O  O16  1  0.12567600  0.86848600  0.24705100  1
  O  O17  1  0.12567600  0.13151400  0.25294900  1
  O  O18  1  0.87432400  0.13151400  0.75294900  1
  O  O19  1  0.87432400  0.86848600  0.74705100  1
  O  O20  1  0.84792900  0.14790200  0.41601900  1
  O  O21  1  0.84792900  0.85209800  0.08398100  1
  O  O22  1  0.80472000  0.51263500  0.40750000  1
  O  O23  1  0.80472000  0.48736500  0.09250000  1
  O  O24  1  0.83435300  0.84234600  0.40178900  1
  O  O25  1  0.83435300  0.15765400  0.09821100  1
  O  O26  1  0.76285400  0.50000000  0.75000000  1
  O  O27  1  0.73714600  0.00000000  0.25000000  1
  O  O28  1  0.66564700  0.65765400  0.90178900  1
  O  O29  1  0.66564700  0.34234600  0.59821100  1
  O  O30  1  0.69528000  0.98736500  0.90750000  1
  O  O31  1  0.69528000  0.01263500  0.59250000  1
  O  O32  1  0.65207100  0.64790200  0.58398100  1
  O  O33  1  0.65207100  0.35209800  0.91601900  1
  O  O34  1  0.62567600  0.63151400  0.24705100  1
  O  O35  1  0.62567600  0.36848600  0.25294900  1
loop_
_geom_bond_atom_site_label_1
_geom_bond_atom_site_label_2
_geom_bond_distance
_geom_bond_site_symmetry_2
Ca0 O27 2.238176 1_565
Ca0 O16 2.250660 1_555
Ca0 O34 2.274425 1_555
Ca0 O4 2.466985 1_555
Ca0 O24 2.487458 1_555
Ca0 O6 2.518808 1_555
Ca1 O27 2.238176 1_555
Ca1 O17 2.250660 1_555
Ca1 O35 2.274425 1_555
Ca1 O5 2.466985 1_555
Ca1 O25 2.487458 1_555
Ca1 O7 2.518808 1_555
Ca2 O2 2.280390 1_555
Ca2 O20 2.313905 1_555
Ca2 O4 2.354962 1_545
Ca2 O31 2.462776 1_555
Ca2 O11 2.472749 1_555
Ca2 O29 2.612493 1_555
Ca3 O3 2.280390 1_555
Ca3 O21 2.313905 1_555
Ca3 O5 2.354962 1_565
Ca3 O30 2.462776 1_554
Ca3 O10 2.472749 1_554
Ca3 O28 2.612493 1_554
Ca4 O14 2.280390 1_555
Ca4 O32 2.313905 1_455
Ca4 O12 2.354962 1_555
Ca4 O22 2.462776 1_455
Ca4 O6 2.472749 1_555
Ca4 O24 2.612493 1_455
Ca5 O15 2.280390 1_555
Ca5 O33 2.313905 1_455
Ca5 O13 2.354962 1_555
Ca5 O23 2.462776 1_456
Ca5 O7 2.472749 1_556
Ca5 O25 2.612493 1_456
Ca6 O26 2.238176 1_455
Ca6 O1 2.250660 1_555
Ca6 O18 2.274425 1_455
Ca6 O12 2.466985 1_555
Ca6 O29 2.487458 1_455
Ca6 O11 2.518808 1_555
Ca7 O26 2.238176 1_455
Ca7 O0 2.250660 1_555
Ca7 O19 2.274425 1_455
Ca7 O13 2.466985 1_555
Ca7 O28 2.487458 1_455
Ca7 O10 2.518808 1_555
Ca8 O9 2.238176 1_655
Ca8 O35 2.250660 1_555
Ca8 O17 2.274425 1_655
Ca8 O23 2.466985 1_555
Ca8 O7 2.487458 1_655
Ca8 O25 2.518808 1_555
Ca9 O9 2.238176 1_655
Ca9 O34 2.250660 1_555
Ca9 O16 2.274425 1_655
Ca9 O22 2.466985 1_555
Ca9 O6 2.487458 1_655
Ca9 O24 2.518808 1_555
Ca10 O21 2.280390 1_555
Ca10 O3 2.313905 1_655
Ca10 O23 2.354962 1_555
Ca10 O13 2.462776 1_654
Ca10 O28 2.472749 1_554
Ca10 O10 2.612493 1_654
Ca11 O20 2.280390 1_555
Ca11 O2 2.313905 1_655
Ca11 O22 2.354962 1_555
Ca11 O12 2.462776 1_655
Ca11 O29 2.472749 1_555
Ca11 O11 2.612493 1_655
Ca12 O32 2.280390 1_555
Ca12 O14 2.313905 1_555
Ca12 O31 2.354962 1_565
Ca12 O4 2.462776 1_555
Ca12 O24 2.472749 1_555
Ca12 O6 2.612493 1_555
Ca13 O33 2.280390 1_555
Ca13 O15 2.313905 1_555
Ca13 O30 2.354962 1_545
Ca13 O5 2.462776 1_556
Ca13 O25 2.472749 1_556
Ca13 O7 2.612493 1_556
Ca14 O8 2.238176 1_555
Ca14 O18 2.250660 1_555
Ca14 O1 2.274425 1_555
Ca14 O31 2.466985 1_555
Ca14 O11 2.487458 1_555
Ca14 O29 2.518808 1_555
Ca15 O8 2.238176 1_565
Ca15 O19 2.250660 1_555
Ca15 O0 2.274425 1_555
Ca15 O30 2.466985 1_555
Ca15 O10 2.487458 1_555
Ca15 O28 2.518808 1_555
O0 Ta6 2.074168 1_555
O0 Ta7 2.199935 1_555
O1 Ta7 2.074168 1_555
O1 Ta6 2.199935 1_555
O2 Ta1 1.892572 1_555
O3 Ta0 1.892572 1_555
O4 Ta4 1.942718 1_465
O5 Ta5 1.942718 1_445
O6 Ta1 1.989786 1_555
O7 Ta0 1.989786 1_555
O8 Ta2 2.130926 1_545
O8 Ta3 2.130926 1_555
O9 Ta1 2.130926 1_555
O9 Ta0 2.130926 1_555
O10 Ta3 1.989786 1_565
O11 Ta2 1.989786 1_545
O12 Ta6 1.942718 1_555
O13 Ta7 1.942718 1_555
O14 Ta2 1.892572 1_555
O15 Ta3 1.892572 1_555
O16 Ta5 2.074168 1_455
O16 Ta4 2.199935 1_465
O17 Ta4 2.074168 1_455
O17 Ta5 2.199935 1_445
O18 Ta3 2.074168 1_655
O18 Ta2 2.199935 1_645
O19 Ta2 2.074168 1_655
O19 Ta3 2.199935 1_665
O20 Ta4 1.892572 1_555
O21 Ta5 1.892572 1_555
O22 Ta1 1.942718 1_555
O23 Ta0 1.942718 1_555
O24 Ta4 1.989786 1_565
O25 Ta5 1.989786 1_545
O26 Ta7 2.130926 1_555
O26 Ta6 2.130926 1_555
O27 Ta4 2.130926 1_555
O27 Ta5 2.130926 1_545
O28 Ta7 1.989786 1_555
O29 Ta6 1.989786 1_555
O30 Ta3 1.942718 1_665
O31 Ta2 1.942718 1_645
O32 Ta6 1.892572 1_555
O33 Ta7 1.892572 1_555
O34 Ta0 2.074168 1_555
O34 Ta1 2.199935 1_555
O35 Ta1 2.074168 1_555
O35 Ta0 2.199935 1_555
