# generated using pymatgen
data_Li2Si4Ni4O13
_symmetry_space_group_name_H-M   'P 1'
_cell_length_a   6.75040000
_cell_length_b   7.86777462
_cell_length_c   10.13407446
_cell_angle_alpha   67.27710292
_cell_angle_beta   80.71925007
_cell_angle_gamma   77.73449269
_symmetry_Int_Tables_number   1
_chemical_formula_structural   Li2Si4Ni4O13
_chemical_formula_sum   'Li4 Si8 Ni8 O26'
_cell_volume   483.24269995
_cell_formula_units_Z   2
loop_
 _symmetry_equiv_pos_site_id
 _symmetry_equiv_pos_as_xyz
  1  'x, y, z'
loop_
 _atom_site_type_symbol
 _atom_site_label
 _atom_site_symmetry_multiplicity
 _atom_site_fract_x
 _atom_site_fract_y
 _atom_site_fract_z
 _atom_site_occupancy
  Li  Li0  1  0.77878800  0.50076500  0.88229600  1
  Li  Li1  1  0.24861900  0.96824600  0.57553800  1
  Li  Li2  1  0.75138100  0.03175400  0.42446200  1
  Li  Li3  1  0.22121200  0.49923500  0.11770400  1
  Si  Si0  1  0.27100900  0.58288600  0.82135600  1
  Si  Si1  1  0.72755900  0.86085200  0.71399900  1
  Si  Si2  1  0.37981000  0.15957100  0.71608400  1
  Si  Si3  1  0.92164600  0.17048700  0.71506400  1
  Si  Si4  1  0.07835400  0.82951300  0.28493600  1
  Si  Si5  1  0.62019000  0.84042900  0.28391600  1
  Si  Si6  1  0.27244100  0.13914800  0.28600100  1
  Si  Si7  1  0.72899100  0.41711400  0.17864400  1
  Ni  Ni0  1  0.08708900  0.19081600  0.99245800  1
  Ni  Ni1  1  0.57142800  0.19431800  0.98813200  1
  Ni  Ni2  1  0.57824900  0.55557600  0.61531400  1
  Ni  Ni3  1  0.07987700  0.55898600  0.61311500  1
  Ni  Ni4  1  0.92012300  0.44101400  0.38688500  1
  Ni  Ni5  1  0.42175100  0.44442400  0.38468600  1
  Ni  Ni6  1  0.42857200  0.80568200  0.01186800  1
  Ni  Ni7  1  0.91291100  0.80918400  0.00754200  1
  O  O0  1  0.85843700  0.11684800  0.88672500  1
  O  O1  1  0.20913000  0.70510000  0.92634300  1
  O  O2  1  0.50746900  0.46527200  0.84143400  1
  O  O3  1  0.09223200  0.45505900  0.83714200  1
  O  O4  1  0.71649900  0.76074200  0.88805600  1
  O  O5  1  0.39027200  0.10145300  0.88752400  1
  O  O6  1  0.86133700  0.38710500  0.60800900  1
  O  O7  1  0.40564900  0.36893900  0.60721400  1
  O  O8  1  0.28017300  0.70626000  0.64565100  1
  O  O9  1  0.79105100  0.72453800  0.62351000  1
  O  O10  1  0.16455100  0.12314000  0.69357000  1
  O  O11  1  0.51226700  0.99538400  0.65686600  1
  O  O12  1  0.87572900  0.02111100  0.65142000  1
  O  O13  1  0.12427100  0.97888900  0.34858000  1
  O  O14  1  0.48773300  0.00461600  0.34313400  1
  O  O15  1  0.83544900  0.87686000  0.30643000  1
  O  O16  1  0.20894900  0.27546200  0.37649000  1
  O  O17  1  0.71982700  0.29374000  0.35434900  1
  O  O18  1  0.59435100  0.63106100  0.39278600  1
  O  O19  1  0.13866300  0.61289500  0.39199100  1
  O  O20  1  0.60972800  0.89854700  0.11247600  1
  O  O21  1  0.28350100  0.23925800  0.11194400  1
  O  O22  1  0.90776800  0.54494100  0.16285800  1
  O  O23  1  0.49253100  0.53472800  0.15856600  1
  O  O24  1  0.79087000  0.29490000  0.07365700  1
  O  O25  1  0.14156300  0.88315200  0.11327500  1
loop_
_geom_bond_atom_site_label_1
_geom_bond_atom_site_label_2
_geom_bond_distance
_geom_bond_site_symmetry_2
Li0 O24 1.989754 1_556
Li0 O4 2.020627 1_555
Li0 O2 2.038422 1_555
Li0 O3 2.075373 1_655
Li0 O9 2.531638 1_555
Li1 O8 1.878769 1_555
Li1 O10 1.962481 1_565
Li1 O11 2.159358 1_555
Li1 O16 2.472967 1_565
Li1 O12 2.505663 1_465
Li1 O13 2.538839 1_555
Li1 O14 2.585272 1_565
Li2 O17 1.878769 1_555
Li2 O15 1.962481 1_545
Li2 O14 2.159358 1_555
Li2 O9 2.472967 1_545
Li2 O13 2.505663 1_645
Li2 O12 2.538839 1_555
Li2 O11 2.585272 1_545
Li3 O1 1.989754 1_554
Li3 O21 2.020627 1_555
Li3 O23 2.038422 1_555
Li3 O22 2.075373 1_455
Li3 O16 2.531638 1_555
Ni0 O3 2.070242 1_555
Ni0 O21 2.111508 1_556
Ni0 O24 2.154124 1_456
Ni0 O25 2.229604 1_546
Ni0 O5 2.253446 1_555
Ni0 O0 2.294781 1_455
Ni1 O2 2.075738 1_555
Ni1 O5 2.103820 1_555
Ni1 O0 2.126311 1_555
Ni1 O20 2.157312 1_546
Ni1 O21 2.177421 1_556
Ni1 O24 2.239155 1_556
Ni2 O18 2.088961 1_555
Ni2 O6 2.090007 1_555
Ni2 O7 2.090786 1_555
Ni2 O2 2.125426 1_555
Ni2 O8 2.148771 1_555
Ni2 O9 2.184665 1_555
Ni3 O8 2.093817 1_555
Ni3 O19 2.099848 1_555
Ni3 O3 2.104233 1_555
Ni3 O9 2.114171 1_455
Ni3 O6 2.221279 1_455
Ni3 O7 2.388495 1_555
Ni4 O17 2.093817 1_555
Ni4 O6 2.099848 1_555
Ni4 O22 2.104233 1_555
Ni4 O16 2.114171 1_655
Ni4 O19 2.221279 1_655
Ni4 O18 2.388495 1_555
Ni5 O7 2.088961 1_555
Ni5 O19 2.090007 1_555
Ni5 O18 2.090786 1_555
Ni5 O23 2.125426 1_555
Ni5 O17 2.148771 1_555
Ni5 O16 2.184665 1_555
Ni6 O23 2.075738 1_555
Ni6 O20 2.103820 1_555
Ni6 O25 2.126311 1_555
Ni6 O5 2.157312 1_564
Ni6 O4 2.177421 1_554
Ni6 O1 2.239155 1_554
Ni7 O22 2.070242 1_555
Ni7 O4 2.111508 1_554
Ni7 O1 2.154124 1_654
Ni7 O0 2.229604 1_564
Ni7 O20 2.253446 1_555
Ni7 O25 2.294781 1_655
O0 Si3 1.629840 1_555
O1 Si0 1.645416 1_555
O2 Si0 1.666512 1_555
O3 Si0 1.680053 1_555
O4 Si1 1.626808 1_555
O5 Si2 1.626252 1_555
O6 Si3 1.632976 1_555
O7 Si2 1.617751 1_555
O8 Si0 1.664728 1_555
O9 Si1 1.616347 1_555
O10 Si3 1.600877 1_455
O10 Si2 1.606265 1_555
O11 Si1 1.646830 1_555
O11 Si2 1.662350 1_565
O12 Si3 1.642605 1_555
O12 Si1 1.644967 1_545
O13 Si4 1.642605 1_555
O13 Si6 1.644967 1_565
O14 Si6 1.646830 1_555
O14 Si5 1.662350 1_545
O15 Si4 1.600877 1_655
O15 Si5 1.606265 1_555
O16 Si6 1.616347 1_555
O17 Si7 1.664728 1_555
O18 Si5 1.617751 1_555
O19 Si4 1.632976 1_555
O20 Si5 1.626252 1_555
O21 Si6 1.626808 1_555
O22 Si7 1.680053 1_555
O23 Si7 1.666512 1_555
O24 Si7 1.645416 1_555
O25 Si4 1.629840 1_555
