# generated using pymatgen
data_Li8Mn3Fe5(BO3)8
_symmetry_space_group_name_H-M   'P 1'
_cell_length_a   5.22860000
_cell_length_b   5.24465335
_cell_length_c   20.80277166
_cell_angle_alpha   91.66700029
_cell_angle_beta   89.38544616
_cell_angle_gamma   119.74121052
_symmetry_Int_Tables_number   1
_chemical_formula_structural   Li8Mn3Fe5(BO3)8
_chemical_formula_sum   'Li8 Mn3 Fe5 B8 O24'
_cell_volume   495.09993545
_cell_formula_units_Z   1
loop_
 _symmetry_equiv_pos_site_id
 _symmetry_equiv_pos_as_xyz
  1  'x, y, z'
loop_
 _atom_site_type_symbol
 _atom_site_label
 _atom_site_symmetry_multiplicity
 _atom_site_fract_x
 _atom_site_fract_y
 _atom_site_fract_z
 _atom_site_occupancy
  Li  Li0  1  0.01937000  0.67117000  0.33421100  1
  Li  Li1  1  0.97542500  0.65260300  0.08382400  1
  Li  Li2  1  0.01804000  0.67456800  0.83333400  1
  Li  Li3  1  0.97853200  0.65496800  0.58237100  1
  Li  Li4  1  0.01276900  0.34503900  0.20870900  1
  Li  Li5  1  0.98837600  0.34358700  0.45841800  1
  Li  Li6  1  0.01845100  0.34780900  0.70694300  1
  Li  Li7  1  0.98810900  0.33756000  0.95781300  1
  Mn  Mn0  1  0.66508900  0.67398400  0.94034300  1
  Mn  Mn1  1  0.32246800  0.32252900  0.06752400  1
  Mn  Mn2  1  0.32711100  0.32558800  0.56714200  1
  Fe  Fe0  1  0.65346500  0.67490400  0.43937500  1
  Fe  Fe1  1  0.68250500  0.00354100  0.31545400  1
  Fe  Fe2  1  0.68188500  0.00740200  0.81529000  1
  Fe  Fe3  1  0.32758700  0.99795200  0.19274600  1
  Fe  Fe4  1  0.33291100  0.99605800  0.69220200  1
  B  B0  1  0.65569900  0.99601700  0.06410300  1
  B  B1  1  0.65895100  0.99657000  0.56296300  1
  B  B2  1  0.66651700  0.66890700  0.18994300  1
  B  B3  1  0.67075600  0.67042600  0.68906400  1
  B  B4  1  0.33927100  0.33167200  0.31344500  1
  B  B5  1  0.33588000  0.33609400  0.81200200  1
  B  B6  1  0.33483000  0.00757900  0.43698600  1
  B  B7  1  0.33835900  0.00753900  0.93674600  1
  O  O0  1  0.68193100  0.93265400  0.20917400  1
  O  O1  1  0.68654500  0.93519900  0.70783700  1
  O  O2  1  0.67687300  0.74627900  0.04816900  1
  O  O3  1  0.38901000  0.96610100  0.08520700  1
  O  O4  1  0.68001900  0.74721300  0.54725300  1
  O  O5  1  0.39209200  0.96765500  0.58373200  1
  O  O6  1  0.39469500  0.42016800  0.17546800  1
  O  O7  1  0.08198800  0.73892400  0.43065500  1
  O  O8  1  0.39987700  0.42084100  0.67521100  1
  O  O9  1  0.08910900  0.73267800  0.93019600  1
  O  O10  1  0.92077100  0.65061700  0.18292200  1
  O  O11  1  0.92578000  0.65332500  0.68179400  1
  O  O12  1  0.08543300  0.35349400  0.30778700  1
  O  O13  1  0.08294900  0.35956800  0.80579200  1
  O  O14  1  0.90121800  0.27169900  0.05680400  1
  O  O15  1  0.60394000  0.57734900  0.33169600  1
  O  O16  1  0.90538700  0.27273100  0.55619000  1
  O  O17  1  0.60011000  0.58164400  0.83085000  1
  O  O18  1  0.61071400  0.03215600  0.42228900  1
  O  O19  1  0.61400700  0.04052100  0.92082300  1
  O  O20  1  0.32562700  0.25827100  0.45706500  1
  O  O21  1  0.31703700  0.24933900  0.95867200  1
  O  O22  1  0.32315700  0.06257000  0.29876000  1
  O  O23  1  0.31937400  0.06613800  0.79850100  1
loop_
_geom_bond_atom_site_label_1
_geom_bond_atom_site_label_2
_geom_bond_distance
_geom_bond_site_symmetry_2
Li0 O12 1.926395 1_555
Li0 O15 1.975717 1_455
Li0 O22 2.026961 1_565
Li0 O7 2.028767 1_555
Li1 O14 1.904637 1_555
Li1 O3 1.962495 1_655
Li1 O2 2.008788 1_555
Li1 O10 2.077803 1_555
Li2 O13 1.915678 1_555
Li2 O17 1.989868 1_455
Li2 O23 2.019090 1_565
Li2 O9 2.039400 1_555
Li3 O16 1.908397 1_555
Li3 O5 1.961172 1_655
Li3 O4 1.999522 1_555
Li3 O11 2.083350 1_555
Li4 O6 1.956207 1_555
Li4 O10 1.976882 1_455
Li4 O0 1.989730 1_445
Li4 O12 2.095042 1_555
Li5 O18 1.972896 1_555
Li5 O7 1.982133 1_655
Li5 O20 2.022733 1_655
Li5 O16 2.080457 1_555
Li6 O8 1.946371 1_555
Li6 O11 1.974956 1_455
Li6 O1 1.992614 1_445
Li6 O13 2.081562 1_555
Li7 O19 1.945328 1_555
Li7 O9 1.969818 1_655
Li7 O21 1.990698 1_655
Li7 O14 2.105231 1_556
Mn0 O9 2.090732 1_655
Mn0 O21 2.104876 1_555
Mn0 O19 2.118692 1_565
Mn0 O2 2.260369 1_556
Mn0 O17 2.308099 1_555
Mn1 O14 2.096789 1_455
Mn1 O3 2.106857 1_545
Mn1 O2 2.117809 1_555
Mn1 O6 2.281817 1_555
Mn1 O21 2.283803 1_554
Mn2 O16 2.095595 1_455
Mn2 O5 2.105130 1_545
Mn2 O4 2.110517 1_555
Mn2 O8 2.283168 1_555
Mn2 O20 2.306297 1_555
Fe0 O18 2.035411 1_565
Fe0 O20 2.040924 1_555
Fe0 O7 2.101009 1_655
Fe0 O4 2.259266 1_555
Fe0 O15 2.271748 1_555
Fe1 O12 2.001470 1_655
Fe1 O22 2.084236 1_555
Fe1 O15 2.099789 1_545
Fe1 O0 2.231054 1_545
Fe1 O18 2.263042 1_555
Fe2 O13 2.004338 1_655
Fe2 O17 2.089376 1_545
Fe2 O23 2.099829 1_555
Fe2 O19 2.235639 1_555
Fe2 O1 2.258182 1_545
Fe3 O10 2.006954 1_455
Fe3 O0 2.077636 1_555
Fe3 O6 2.104395 1_565
Fe3 O22 2.223133 1_565
Fe3 O3 2.269753 1_555
Fe4 O11 2.000053 1_455
Fe4 O1 2.056940 1_555
Fe4 O8 2.116605 1_565
Fe4 O23 2.237225 1_565
Fe4 O5 2.284912 1_555
B0 O14 1.388722 1_565
B0 O3 1.391239 1_555
B0 O2 1.398393 1_555
B1 O16 1.390772 1_565
B1 O5 1.391930 1_555
B1 O4 1.395189 1_555
B2 O10 1.385410 1_555
B2 O0 1.392063 1_555
B2 O6 1.399725 1_555
B3 O11 1.386529 1_555
B3 O1 1.393936 1_555
B3 O8 1.396367 1_555
B4 O15 1.390358 1_555
B4 O12 1.394024 1_555
B4 O22 1.396356 1_555
B5 O17 1.392084 1_555
B5 O13 1.395319 1_555
B5 O23 1.395365 1_555
B6 O7 1.376647 1_545
B6 O20 1.391350 1_555
B6 O18 1.413936 1_555
B7 O9 1.386891 1_545
B7 O21 1.390764 1_555
B7 O19 1.400926 1_555
