# generated using pymatgen
data_Na5Sn2P(CO4)4
_symmetry_space_group_name_H-M   'P 1'
_cell_length_a   10.16638213
_cell_length_b   10.16638213
_cell_length_c   9.94566501
_cell_angle_alpha   61.13416589
_cell_angle_beta   61.13416589
_cell_angle_gamma   91.09423444
_symmetry_Int_Tables_number   1
_chemical_formula_structural   Na5Sn2P(CO4)4
_chemical_formula_sum   'Na10 Sn4 P2 C8 O32'
_cell_volume   744.54118107
_cell_formula_units_Z   2
loop_
 _symmetry_equiv_pos_site_id
 _symmetry_equiv_pos_as_xyz
  1  'x, y, z'
loop_
 _atom_site_type_symbol
 _atom_site_label
 _atom_site_symmetry_multiplicity
 _atom_site_fract_x
 _atom_site_fract_y
 _atom_site_fract_z
 _atom_site_occupancy
  Na  Na0  1  0.32694000  0.07069200  0.85885400  1
  Na  Na1  1  0.07069200  0.32694000  0.35885400  1
  Na  Na2  1  0.92987700  0.67169600  0.25554600  1
  Na  Na3  1  0.93044300  0.06955700  0.25000000  1
  Na  Na4  1  0.32830400  0.07012300  0.24445400  1
  Na  Na5  1  0.67169600  0.92987700  0.75554600  1
  Na  Na6  1  0.07012300  0.32830400  0.74445400  1
  Na  Na7  1  0.06955700  0.93044300  0.75000000  1
  Na  Na8  1  0.92930800  0.67306000  0.64114600  1
  Na  Na9  1  0.67306000  0.92930800  0.14114600  1
  Sn  Sn0  1  0.50000000  0.00000000  0.50000000  1
  Sn  Sn1  1  0.50000000  0.50000000  0.50000000  1
  Sn  Sn2  1  0.00000000  0.50000000  0.00000000  1
  Sn  Sn3  1  0.50000000  0.50000000  0.00000000  1
  P  P0  1  0.87449200  0.12550800  0.75000000  1
  P  P1  1  0.12550800  0.87449200  0.25000000  1
  C  C0  1  0.71015200  0.28253800  0.45385200  1
  C  C1  1  0.34098700  0.28725600  0.43126600  1
  C  C2  1  0.71274400  0.65901300  0.06873400  1
  C  C3  1  0.71746200  0.28984800  0.04614800  1
  C  C4  1  0.28253800  0.71015200  0.95385200  1
  C  C5  1  0.28725600  0.34098700  0.93126600  1
  C  C6  1  0.65901300  0.71274400  0.56873400  1
  C  C7  1  0.28984800  0.71746200  0.54614800  1
  O  O0  1  0.69011500  0.05823900  0.87790800  1
  O  O1  1  0.94177000  0.06593400  0.87473900  1
  O  O2  1  0.93406600  0.05823000  0.62526100  1
  O  O3  1  0.94176100  0.30988500  0.62209200  1
  O  O4  1  0.59091200  0.15424900  0.58654500  1
  O  O5  1  0.35165300  0.30966200  0.54684300  1
  O  O6  1  0.31156000  0.14669100  0.46951000  1
  O  O7  1  0.69755900  0.42283900  0.42726300  1
  O  O8  1  0.84459500  0.28523400  0.33673500  1
  O  O9  1  0.35495700  0.40963800  0.28612000  1
  O  O10  1  0.71476600  0.15540500  0.16326500  1
  O  O11  1  0.59036200  0.64504300  0.21388000  1
  O  O12  1  0.15424900  0.59091200  0.08654500  1
  O  O13  1  0.30966200  0.35165300  0.04684300  1
  O  O14  1  0.57716100  0.30244100  0.07273700  1
  O  O15  1  0.85330900  0.68844000  0.03049000  1
  O  O16  1  0.42283900  0.69755900  0.92726300  1
  O  O17  1  0.14669100  0.31156000  0.96951000  1
  O  O18  1  0.69033800  0.64834700  0.95315700  1
  O  O19  1  0.84575100  0.40908800  0.91345500  1
  O  O20  1  0.40963800  0.35495700  0.78612000  1
  O  O21  1  0.28523400  0.84459500  0.83673500  1
  O  O22  1  0.64504300  0.59036200  0.71388000  1
  O  O23  1  0.15540500  0.71476600  0.66326500  1
  O  O24  1  0.68844000  0.85330900  0.53049000  1
  O  O25  1  0.30244100  0.57716100  0.57273700  1
  O  O26  1  0.64834700  0.69033800  0.45315700  1
  O  O27  1  0.40908800  0.84575100  0.41345500  1
  O  O28  1  0.05823900  0.69011500  0.37790800  1
  O  O29  1  0.06593400  0.94177000  0.37473900  1
  O  O30  1  0.05823000  0.93406600  0.12526100  1
  O  O31  1  0.30988500  0.94176100  0.12209200  1
loop_
_geom_bond_atom_site_label_1
_geom_bond_atom_site_label_2
_geom_bond_distance
_geom_bond_site_symmetry_2
Na0 O31 2.200492 1_546
Na0 O30 2.392805 1_546
Na0 O4 2.435679 1_555
Na0 O21 2.460232 1_545
Na0 O20 2.623632 1_555
Na0 O5 2.745879 1_555
Na1 O3 2.200492 1_455
Na1 O2 2.392805 1_455
Na1 O12 2.435679 1_555
Na1 O8 2.460232 1_455
Na1 O9 2.623632 1_555
Na1 O13 2.745879 1_555
Na2 O28 2.227803 1_655
Na2 O30 2.322487 1_655
Na2 O12 2.530891 1_655
Na2 O7 2.569272 1_555
Na2 O15 2.639035 1_555
Na2 O26 2.653224 1_555
Na3 O29 2.299218 1_645
Na3 O30 2.299218 1_645
Na3 O17 2.431802 1_654
Na3 O24 2.431802 1_545
Na3 O8 2.736058 1_555
Na3 O10 2.736058 1_555
Na4 O31 2.227803 1_545
Na4 O29 2.322487 1_545
Na4 O27 2.530891 1_545
Na4 O14 2.569272 1_555
Na4 O6 2.639035 1_555
Na4 O13 2.653224 1_555
Na5 O0 2.227803 1_565
Na5 O2 2.322487 1_565
Na5 O4 2.530891 1_565
Na5 O16 2.569272 1_555
Na5 O24 2.639035 1_555
Na5 O18 2.653224 1_555
Na6 O3 2.227803 1_455
Na6 O1 2.322487 1_455
Na6 O19 2.530891 1_455
Na6 O25 2.569272 1_555
Na6 O17 2.639035 1_555
Na6 O5 2.653224 1_555
Na7 O1 2.299218 1_465
Na7 O2 2.299218 1_465
Na7 O15 2.431802 1_456
Na7 O6 2.431802 1_565
Na7 O23 2.736058 1_555
Na7 O21 2.736058 1_555
Na8 O28 2.200492 1_655
Na8 O29 2.392805 1_655
Na8 O19 2.435679 1_555
Na8 O23 2.460232 1_655
Na8 O22 2.623632 1_555
Na8 O18 2.745879 1_555
Na9 O0 2.200492 1_564
Na9 O1 2.392805 1_564
Na9 O27 2.435679 1_555
Na9 O10 2.460232 1_565
Na9 O11 2.623632 1_555
Na9 O26 2.745879 1_555
C0 O4 1.282690 1_555
C0 O8 1.286952 1_555
C0 O7 1.340254 1_555
C1 O6 1.274879 1_555
C1 O9 1.308901 1_555
C1 O5 1.325590 1_555
C2 O15 1.274879 1_555
C2 O11 1.308901 1_555
C2 O18 1.325590 1_554
C3 O19 1.282690 1_554
C3 O10 1.286952 1_555
C3 O14 1.340254 1_555
C4 O12 1.282690 1_556
C4 O21 1.286952 1_555
C4 O16 1.340254 1_555
C5 O17 1.274879 1_555
C5 O20 1.308901 1_555
C5 O13 1.325590 1_556
C6 O24 1.274879 1_555
C6 O22 1.308901 1_555
C6 O26 1.325590 1_555
C7 O27 1.282690 1_555
C7 O23 1.286952 1_555
C7 O25 1.340254 1_555
O0 P0 1.551866 1_555
O1 P0 1.575878 1_555
O2 P0 1.575878 1_555
O3 P0 1.551866 1_555
O4 Sn0 2.463783 1_555
O5 Sn1 2.139088 1_555
O6 Sn0 2.493889 1_555
O7 Sn1 2.092329 1_555
O8 Sn2 2.485717 1_655
O9 Sn3 2.118683 1_555
O10 Sn0 2.485717 1_555
O11 Sn1 2.118683 1_555
O12 Sn2 2.463783 1_555
O13 Sn3 2.139088 1_555
O14 Sn3 2.092329 1_555
O15 Sn2 2.493889 1_655
O16 Sn3 2.092329 1_556
O17 Sn2 2.493889 1_556
O18 Sn3 2.139088 1_556
O19 Sn2 2.463783 1_656
O20 Sn1 2.118683 1_555
O21 Sn0 2.485717 1_565
O22 Sn3 2.118683 1_556
O23 Sn2 2.485717 1_556
O24 Sn0 2.493889 1_565
O25 Sn1 2.092329 1_555
O26 Sn1 2.139088 1_555
O27 Sn0 2.463783 1_565
O28 P1 1.551866 1_555
O29 P1 1.575878 1_555
O30 P1 1.575878 1_555
O31 P1 1.551866 1_555
