# generated using pymatgen
data_Li6MnFeP2(CO7)2
_symmetry_space_group_name_H-M   'P 1'
_cell_length_a   8.22895434
_cell_length_b   8.22926908
_cell_length_c   9.43614057
_cell_angle_alpha   74.89680264
_cell_angle_beta   105.09364166
_cell_angle_gamma   75.61647838
_symmetry_Int_Tables_number   1
_chemical_formula_structural   Li6MnFeP2(CO7)2
_chemical_formula_sum   'Li12 Mn2 Fe2 P4 C4 O28'
_cell_volume   560.31361594
_cell_formula_units_Z   2
loop_
 _symmetry_equiv_pos_site_id
 _symmetry_equiv_pos_as_xyz
  1  'x, y, z'
loop_
 _atom_site_type_symbol
 _atom_site_label
 _atom_site_symmetry_multiplicity
 _atom_site_fract_x
 _atom_site_fract_y
 _atom_site_fract_z
 _atom_site_occupancy
  Li  Li0  1  0.57857100  0.67137400  0.10348600  1
  Li  Li1  1  0.07869900  0.17147900  0.10348200  1
  Li  Li2  1  0.91969300  0.83028000  0.89461000  1
  Li  Li3  1  0.41972100  0.33036300  0.89455700  1
  Li  Li4  1  0.28072900  0.73557800  0.27134100  1
  Li  Li5  1  0.78088000  0.23562200  0.27138900  1
  Li  Li6  1  0.51440600  0.96910300  0.27149000  1
  Li  Li7  1  0.01447300  0.46921400  0.27143400  1
  Li  Li8  1  0.98840800  0.53254800  0.72857900  1
  Li  Li9  1  0.48844800  0.03252800  0.72852800  1
  Li  Li10  1  0.21723500  0.76153000  0.72836500  1
  Li  Li11  1  0.71738200  0.26148000  0.72839800  1
  Mn  Mn0  1  0.56533200  0.68455900  0.66229800  1
  Mn  Mn1  1  0.06536500  0.18468700  0.66231800  1
  Fe  Fe0  1  0.43513700  0.31489300  0.33223100  1
  Fe  Fe1  1  0.93502200  0.81497600  0.33206600  1
  P  P0  1  0.69715000  0.55280200  0.40826300  1
  P  P1  1  0.19716300  0.05282600  0.40824400  1
  P  P2  1  0.80108900  0.94887200  0.59045500  1
  P  P3  1  0.30101100  0.44893900  0.59044600  1
  C  C0  1  0.72663100  0.02345900  0.03907900  1
  C  C1  1  0.22658600  0.52344600  0.03907000  1
  C  C2  1  0.77557400  0.47448600  0.96356300  1
  C  C3  1  0.27556300  0.97450200  0.96354000  1
  O  O0  1  0.86232300  0.88767100  0.06240900  1
  O  O1  1  0.36230700  0.38769100  0.06242100  1
  O  O2  1  0.38114900  0.86889400  0.10408600  1
  O  O3  1  0.88125000  0.36897000  0.10410300  1
  O  O4  1  0.69900100  0.05115700  0.16303400  1
  O  O5  1  0.19901100  0.55107400  0.16306900  1
  O  O6  1  0.67192500  0.07805500  0.42747000  1
  O  O7  1  0.17184800  0.57813100  0.42748800  1
  O  O8  1  0.54932300  0.70059700  0.42443300  1
  O  O9  1  0.04938200  0.20067200  0.42440800  1
  O  O10  1  0.94783600  0.80212100  0.57126100  1
  O  O11  1  0.44771300  0.30219600  0.57119700  1
  O  O12  1  0.82416900  0.42572100  0.57281600  1
  O  O13  1  0.32416900  0.92572600  0.57279200  1
  O  O14  1  0.80530100  0.44483200  0.84106400  1
  O  O15  1  0.30529100  0.94486200  0.84104200  1
  O  O16  1  0.12024200  0.62976700  0.89925900  1
  O  O17  1  0.62036800  0.12974900  0.89925300  1
  O  O18  1  0.63977600  0.61008400  0.93956900  1
  O  O19  1  0.13982000  0.11015600  0.93955200  1
  O  O20  1  0.60804200  0.45483900  0.30644400  1
  O  O21  1  0.10798800  0.95493000  0.30639700  1
  O  O22  1  0.79511700  0.64197600  0.30647900  1
  O  O23  1  0.29520200  0.14193400  0.30648100  1
  O  O24  1  0.89043700  0.04470600  0.69406000  1
  O  O25  1  0.39037500  0.54476300  0.69405100  1
  O  O26  1  0.70522600  0.85955400  0.69407900  1
  O  O27  1  0.20513900  0.35962600  0.69404900  1
loop_
_geom_bond_atom_site_label_1
_geom_bond_atom_site_label_2
_geom_bond_distance
_geom_bond_site_symmetry_2
Li0 O18 1.893811 1_554
Li0 O2 1.994743 1_555
Li0 O20 2.160293 1_555
Li0 O22 2.160929 1_555
Li1 O19 1.893755 1_554
Li1 O3 1.994817 1_455
Li1 O23 2.160374 1_555
Li1 O21 2.160583 1_545
Li2 O0 1.902951 1_556
Li2 O16 2.004957 1_655
Li2 O24 2.136449 1_565
Li2 O26 2.136654 1_555
Li3 O1 1.903477 1_556
Li3 O17 2.005780 1_555
Li3 O25 2.135823 1_555
Li3 O27 2.137081 1_555
Li4 O2 2.145842 1_555
Li4 O21 2.160944 1_555
Li4 O5 2.181553 1_555
Li4 O8 2.204372 1_555
Li4 O7 2.218549 1_555
Li5 O3 2.145867 1_555
Li5 O20 2.160540 1_555
Li5 O4 2.182188 1_555
Li5 O9 2.203592 1_655
Li5 O6 2.219110 1_555
Li6 O2 2.145640 1_555
Li6 O23 2.160077 1_565
Li6 O4 2.183997 1_565
Li6 O8 2.203307 1_555
Li6 O6 2.218536 1_565
Li7 O3 2.145242 1_455
Li7 O22 2.160964 1_455
Li7 O5 2.182515 1_555
Li7 O9 2.203668 1_555
Li7 O7 2.218152 1_555
Li8 O27 2.143662 1_655
Li8 O16 2.145603 1_655
Li8 O14 2.211805 1_555
Li8 O10 2.212281 1_555
Li8 O12 2.233570 1_555
Li9 O26 2.143734 1_545
Li9 O17 2.146203 1_555
Li9 O15 2.212174 1_545
Li9 O11 2.212579 1_555
Li9 O13 2.233444 1_545
Li10 O25 2.143689 1_555
Li10 O16 2.145292 1_555
Li10 O10 2.210491 1_455
Li10 O15 2.215735 1_555
Li10 O13 2.232698 1_555
Li11 O24 2.143505 1_555
Li11 O17 2.145042 1_555
Li11 O11 2.212307 1_555
Li11 O14 2.215404 1_555
Li11 O12 2.232081 1_555
Mn0 O25 2.086605 1_555
Mn0 O26 2.087552 1_555
Mn0 O8 2.180751 1_555
Mn0 O13 2.210711 1_555
Mn0 O14 2.287438 1_555
Mn0 O18 2.395707 1_555
Mn1 O27 2.086393 1_555
Mn1 O24 2.087423 1_455
Mn1 O9 2.181319 1_555
Mn1 O12 2.210241 1_455
Mn1 O15 2.287530 1_545
Mn1 O19 2.395321 1_555
Fe0 O20 2.063570 1_555
Fe0 O23 2.063900 1_555
Fe0 O6 2.165982 1_555
Fe0 O11 2.203768 1_555
Fe0 O5 2.234448 1_555
Fe0 O1 2.330700 1_555
Fe1 O22 2.063784 1_555
Fe1 O21 2.063878 1_655
Fe1 O7 2.166101 1_655
Fe1 O10 2.205174 1_555
Fe1 O4 2.233724 1_565
Fe1 O0 2.329493 1_555
C0 O0 1.291439 1_545
C0 O17 1.299348 1_554
C0 O4 1.312795 1_555
C1 O1 1.291364 1_555
C1 O16 1.299477 1_554
C1 O5 1.312830 1_555
C2 O18 1.289280 1_555
C2 O3 1.301174 1_556
C2 O14 1.311540 1_555
C3 O19 1.289300 1_565
C3 O2 1.301215 1_556
C3 O15 1.311491 1_555
O6 P2 1.536374 1_545
O7 P3 1.536228 1_555
O8 P0 1.562251 1_555
O9 P1 1.562248 1_555
O10 P2 1.566148 1_555
O11 P3 1.566151 1_555
O12 P0 1.537100 1_555
O13 P1 1.537081 1_565
O20 P0 1.562398 1_555
O21 P1 1.562368 1_565
O22 P0 1.562290 1_555
O23 P1 1.562398 1_555
O24 P2 1.560070 1_545
O25 P3 1.560062 1_555
O26 P2 1.560099 1_555
O27 P3 1.560014 1_555
