# generated using pymatgen
data_Li2MnP4(H4O5)4
_symmetry_space_group_name_H-M   'P 1'
_cell_length_a   10.67853800
_cell_length_b   7.18232400
_cell_length_c   12.06495637
_cell_angle_alpha   64.38562700
_cell_angle_beta   90.00000000
_cell_angle_gamma   90.00000000
_symmetry_Int_Tables_number   1
_chemical_formula_structural   Li2MnP4(H4O5)4
_chemical_formula_sum   'Li4 Mn2 P8 H32 O40'
_cell_volume   834.40370883
_cell_formula_units_Z   2
loop_
 _symmetry_equiv_pos_site_id
 _symmetry_equiv_pos_as_xyz
  1  'x, y, z'
loop_
 _atom_site_type_symbol
 _atom_site_label
 _atom_site_symmetry_multiplicity
 _atom_site_fract_x
 _atom_site_fract_y
 _atom_site_fract_z
 _atom_site_occupancy
  Li  Li0  1  0.83994500  0.20370700  0.04435800  1
  Li  Li1  1  0.33994500  0.79629300  0.45564200  1
  Li  Li2  1  0.66005500  0.20370700  0.54435800  1
  Li  Li3  1  0.16005500  0.79629300  0.95564200  1
  Mn  Mn0  1  0.50000000  0.50000000  0.00000000  1
  Mn  Mn1  1  0.00000000  0.50000000  0.50000000  1
  P  P0  1  0.73871100  0.68460800  0.58401200  1
  P  P1  1  0.23871100  0.31539200  0.91598800  1
  P  P2  1  0.54460100  0.03711600  0.22477100  1
  P  P3  1  0.04460100  0.96288400  0.27522900  1
  P  P4  1  0.95539900  0.03711600  0.72477100  1
  P  P5  1  0.45539900  0.96288400  0.77522900  1
  P  P6  1  0.76128900  0.68460800  0.08401200  1
  P  P7  1  0.26128900  0.31539200  0.41598800  1
  H  H0  1  0.09821900  0.74478700  0.60659800  1
  H  H1  1  0.46018400  0.66751400  0.69112000  1
  H  H2  1  0.06563900  0.48163300  0.89597500  1
  H  H3  1  0.87752600  0.50636300  0.81199000  1
  H  H4  1  0.67293200  0.46581100  0.84155700  1
  H  H5  1  0.21044300  0.13770800  0.28804100  1
  H  H6  1  0.17293200  0.53418900  0.65844300  1
  H  H7  1  0.37752600  0.49363700  0.68801000  1
  H  H8  1  0.91354000  0.91024500  0.42393200  1
  H  H9  1  0.60451600  0.89945200  0.44618400  1
  H  H10  1  0.56563900  0.51836700  0.60402500  1
  H  H11  1  0.96018400  0.33248600  0.80888000  1
  H  H12  1  0.59821900  0.25521300  0.89340200  1
  H  H13  1  0.10451600  0.10054800  0.05381600  1
  H  H14  1  0.41354000  0.08975500  0.07606800  1
  H  H15  1  0.71044300  0.86229200  0.21195900  1
  H  H16  1  0.28955700  0.13770800  0.78804100  1
  H  H17  1  0.58646000  0.91024500  0.92393200  1
  H  H18  1  0.89548400  0.89945200  0.94618400  1
  H  H19  1  0.40178100  0.74478700  0.10659800  1
  H  H20  1  0.03981600  0.66751400  0.19112000  1
  H  H21  1  0.43436100  0.48163300  0.39597500  1
  H  H22  1  0.39548400  0.10054800  0.55381600  1
  H  H23  1  0.08646000  0.08975500  0.57606800  1
  H  H24  1  0.62247400  0.50636300  0.31199000  1
  H  H25  1  0.82706800  0.46581100  0.34155700  1
  H  H26  1  0.78955700  0.86229200  0.71195900  1
  H  H27  1  0.32706800  0.53418900  0.15844300  1
  H  H28  1  0.12247400  0.49363700  0.18801000  1
  H  H29  1  0.93436100  0.51836700  0.10402500  1
  H  H30  1  0.53981600  0.33248600  0.30888000  1
  H  H31  1  0.90178100  0.25521300  0.39340200  1
  O  O0  1  0.66511800  0.89527700  0.51687800  1
  O  O1  1  0.75728700  0.64920100  0.71780400  1
  O  O2  1  0.15586600  0.49563900  0.92153200  1
  O  O3  1  0.52605600  0.26625200  0.18782200  1
  O  O4  1  0.43782900  0.60187200  0.63540400  1
  O  O5  1  0.14031500  0.64710000  0.58112200  1
  O  O6  1  0.86029700  0.69662600  0.51563900  1
  O  O7  1  0.36029700  0.30337400  0.98436100  1
  O  O8  1  0.64031500  0.35290000  0.91887800  1
  O  O9  1  0.93782900  0.39812800  0.86459600  1
  O  O10  1  0.95981800  0.03416900  0.35908600  1
  O  O11  1  0.18708300  0.98886000  0.30515600  1
  O  O12  1  0.65586600  0.50436100  0.57846800  1
  O  O13  1  0.01408800  0.10570000  0.14124900  1
  O  O14  1  0.25728700  0.35079900  0.78219600  1
  O  O15  1  0.51408800  0.89430000  0.35875100  1
  O  O16  1  0.68708300  0.01114000  0.19484400  1
  O  O17  1  0.16511800  0.10472300  0.98312200  1
  O  O18  1  0.45981800  0.96583100  0.14091400  1
  O  O19  1  0.97394400  0.26625200  0.68782200  1
  O  O20  1  0.02605600  0.73374800  0.31217800  1
  O  O21  1  0.54018200  0.03416900  0.85908600  1
  O  O22  1  0.83488200  0.89527700  0.01687800  1
  O  O23  1  0.31291700  0.98886000  0.80515600  1
  O  O24  1  0.48591200  0.10570000  0.64124900  1
  O  O25  1  0.74271300  0.64920100  0.21780400  1
  O  O26  1  0.98591200  0.89430000  0.85875100  1
  O  O27  1  0.34413400  0.49563900  0.42153200  1
  O  O28  1  0.81291700  0.01114000  0.69484400  1
  O  O29  1  0.04018200  0.96583100  0.64091400  1
  O  O30  1  0.06217100  0.60187200  0.13540400  1
  O  O31  1  0.35968500  0.64710000  0.08112200  1
  O  O32  1  0.63970300  0.69662600  0.01563900  1
  O  O33  1  0.13970300  0.30337400  0.48436100  1
  O  O34  1  0.85968500  0.35290000  0.41887800  1
  O  O35  1  0.56217100  0.39812800  0.36459600  1
  O  O36  1  0.47394400  0.73374800  0.81217800  1
  O  O37  1  0.84413400  0.50436100  0.07846800  1
  O  O38  1  0.24271300  0.35079900  0.28219600  1
  O  O39  1  0.33488200  0.10472300  0.48312200  1
loop_
_geom_bond_atom_site_label_1
_geom_bond_atom_site_label_2
_geom_bond_distance
_geom_bond_site_symmetry_2
Li0 O13 2.146774 1_655
Li0 O9 2.264448 1_554
Li0 O37 2.367005 1_555
Li0 O22 2.378062 1_545
Li0 O16 2.388032 1_555
Li0 O8 2.565524 1_554
Li1 O15 2.146774 1_555
Li1 O4 2.264448 1_555
Li1 O27 2.367005 1_555
Li1 O39 2.378062 1_565
Li1 O11 2.388032 1_555
Li1 O5 2.565524 1_555
Li2 O24 2.146774 1_555
Li2 O35 2.264448 1_555
Li2 O12 2.367005 1_555
Li2 O0 2.378062 1_545
Li2 O28 2.388032 1_555
Li2 O34 2.565524 1_555
Li3 O26 2.146774 1_455
Li3 O30 2.264448 1_556
Li3 O2 2.367005 1_555
Li3 O17 2.378062 1_565
Li3 O23 2.388032 1_555
Li3 O31 2.565524 1_556
Mn0 O7 2.118001 1_554
Mn0 O32 2.118001 1_555
Mn0 O3 2.177532 1_555
Mn0 O36 2.177532 1_554
Mn0 O31 2.283265 1_555
Mn0 O8 2.283265 1_554
Mn1 O6 2.118001 1_455
Mn1 O33 2.118001 1_555
Mn1 O20 2.177532 1_555
Mn1 O19 2.177532 1_455
Mn1 O5 2.283265 1_555
Mn1 O34 2.283265 1_455
H0 O5 0.987561 1_555
H1 O4 1.002571 1_555
H1 O36 1.726811 1_555
H2 O2 1.029724 1_555
H2 O9 1.600658 1_455
H3 O9 0.997606 1_555
H4 O8 0.997557 1_555
H5 O11 1.028064 1_545
H5 O38 1.540388 1_555
H6 O5 0.997557 1_555
H7 O4 0.997606 1_555
H8 O10 1.022955 1_565
H8 O6 1.560035 1_555
H9 O0 1.060683 1_555
H9 O15 1.442338 1_555
H10 O12 1.029724 1_555
H10 O4 1.600658 1_555
H11 O9 1.002571 1_555
H11 O19 1.726811 1_555
H12 O8 0.987561 1_555
H13 O17 1.060683 1_554
H13 O13 1.442338 1_555
H14 O18 1.022955 1_545
H14 O7 1.560035 1_554
H15 O16 1.028064 1_565
H15 O25 1.540388 1_555
H16 O23 1.028064 1_545
H16 O14 1.540388 1_555
H17 O21 1.022955 1_565
H17 O32 1.560035 1_556
H18 O22 1.060683 1_556
H18 O26 1.442338 1_555
H19 O31 0.987561 1_555
H20 O30 1.002571 1_555
H20 O20 1.726811 1_555
H21 O27 1.029724 1_555
H21 O35 1.600658 1_555
H22 O39 1.060683 1_555
H22 O24 1.442338 1_555
H23 O29 1.022955 1_545
H23 O33 1.560035 1_555
H24 O35 0.997606 1_555
H25 O34 0.997557 1_555
H26 O28 1.028064 1_565
H26 O1 1.540388 1_555
H27 O31 0.997557 1_555
H28 O30 0.997606 1_555
H29 O37 1.029724 1_555
H29 O30 1.600658 1_655
H30 O35 1.002571 1_555
H30 O3 1.726811 1_555
H31 O34 0.987561 1_555
O0 P0 1.582226 1_555
O1 P0 1.534509 1_555
O2 P1 1.593092 1_555
O3 P2 1.520539 1_555
O6 P0 1.520564 1_555
O7 P1 1.520564 1_555
O10 P3 1.597900 1_645
O11 P3 1.593230 1_555
O12 P0 1.593092 1_555
O13 P3 1.528942 1_545
O14 P1 1.534509 1_555
O15 P2 1.528942 1_565
O16 P2 1.593230 1_555
O17 P1 1.582226 1_555
O18 P2 1.597900 1_565
O19 P4 1.520539 1_555
O20 P3 1.520539 1_555
O21 P5 1.597900 1_545
O22 P6 1.582226 1_555
O23 P5 1.593230 1_555
O24 P5 1.528942 1_545
O25 P6 1.534509 1_555
O26 P4 1.528942 1_565
O27 P7 1.593092 1_555
O28 P4 1.593230 1_555
O29 P4 1.597900 1_465
O32 P6 1.520564 1_555
O33 P7 1.520564 1_555
O36 P5 1.520539 1_555
O37 P6 1.593092 1_555
O38 P7 1.534509 1_555
O39 P7 1.582226 1_555
