# generated using pymatgen
data_VFe3Sb2(PO4)6
_symmetry_space_group_name_H-M   'P 1'
_cell_length_a   8.88420788
_cell_length_b   8.88420788
_cell_length_c   8.88420775
_cell_angle_alpha   58.54432222
_cell_angle_beta   58.54432222
_cell_angle_gamma   58.54432972
_symmetry_Int_Tables_number   1
_chemical_formula_structural   VFe3Sb2(PO4)6
_chemical_formula_sum   'V1 Fe3 Sb2 P6 O24'
_cell_volume   479.33225858
_cell_formula_units_Z   1
loop_
 _symmetry_equiv_pos_site_id
 _symmetry_equiv_pos_as_xyz
  1  'x, y, z'
loop_
 _atom_site_type_symbol
 _atom_site_label
 _atom_site_symmetry_multiplicity
 _atom_site_fract_x
 _atom_site_fract_y
 _atom_site_fract_z
 _atom_site_occupancy
  V  V0  1  0.14462800  0.14462800  0.14462800  1
  Fe  Fe0  1  0.64982100  0.64982100  0.64982100  1
  Fe  Fe1  1  0.84775400  0.84775400  0.84775400  1
  Fe  Fe2  1  0.35140600  0.35140600  0.35140600  1
  Sb  Sb0  1  0.99075000  0.99075000  0.99075000  1
  Sb  Sb1  1  0.49900500  0.49900500  0.49900500  1
  P  P0  1  0.96105300  0.25095500  0.53956900  1
  P  P1  1  0.53956900  0.96105300  0.25095500  1
  P  P2  1  0.25095500  0.53956900  0.96105300  1
  P  P3  1  0.74870200  0.45795400  0.04383200  1
  P  P4  1  0.45795400  0.04383200  0.74870200  1
  P  P5  1  0.04383200  0.74870200  0.45795400  1
  O  O0  1  0.51023500  0.11552200  0.30322700  1
  O  O1  1  0.30322700  0.51023500  0.11552200  1
  O  O2  1  0.11552200  0.30322700  0.51023500  1
  O  O3  1  0.93949200  0.08118400  0.73528500  1
  O  O4  1  0.99771400  0.19209800  0.38805300  1
  O  O5  1  0.76797600  0.41666900  0.56183100  1
  O  O6  1  0.73528500  0.93949200  0.08118400  1
  O  O7  1  0.56183100  0.76797600  0.41666900  1
  O  O8  1  0.79605800  0.61871600  0.01010100  1
  O  O9  1  0.41666900  0.56183100  0.76797600  1
  O  O10  1  0.91312700  0.26781500  0.06679000  1
  O  O11  1  0.61871600  0.01010100  0.79605800  1
  O  O12  1  0.38805300  0.99771400  0.19209800  1
  O  O13  1  0.08118400  0.73528500  0.93949200  1
  O  O14  1  0.58056500  0.43951900  0.23670600  1
  O  O15  1  0.19209800  0.38805300  0.99771400  1
  O  O16  1  0.43951900  0.23670600  0.58056500  1
  O  O17  1  0.26781500  0.06679000  0.91312700  1
  O  O18  1  0.23670600  0.58056500  0.43951900  1
  O  O19  1  0.01010100  0.79605800  0.61871600  1
  O  O20  1  0.06679000  0.91312700  0.26781500  1
  O  O21  1  0.88534600  0.69823200  0.49230000  1
  O  O22  1  0.69823200  0.49230000  0.88534600  1
  O  O23  1  0.49230000  0.88534600  0.69823200  1
loop_
_geom_bond_atom_site_label_1
_geom_bond_atom_site_label_2
_geom_bond_distance
_geom_bond_site_symmetry_2
Fe0 O21 1.943371 1_555
Fe0 O22 1.943371 1_555
Fe0 O23 1.943371 1_555
Fe0 O9 2.137237 1_555
Fe0 O7 2.137237 1_555
Fe0 O5 2.137237 1_555
Fe1 O8 1.911198 1_556
Fe1 O19 1.911198 1_655
Fe1 O11 1.911198 1_565
Fe1 O3 2.171380 1_565
Fe1 O6 2.171380 1_556
Fe1 O13 2.171381 1_655
Fe2 O2 1.945664 1_555
Fe2 O1 1.945664 1_555
Fe2 O0 1.945664 1_555
Fe2 O14 2.112258 1_555
Fe2 O16 2.112258 1_555
Fe2 O18 2.112258 1_555
O0 P1 1.527236 1_545
O1 P2 1.527236 1_554
O2 P0 1.527236 1_455
O3 P0 1.597424 1_555
O3 Sb0 2.190365 1_545
O4 P0 1.513531 1_555
O4 V0 1.997461 1_655
O5 P0 1.569431 1_555
O5 Sb1 2.387128 1_555
O6 P1 1.597424 1_555
O6 Sb0 2.190365 1_554
O7 P1 1.569431 1_555
O7 Sb1 2.387127 1_555
O8 P3 1.534776 1_555
O9 P2 1.569431 1_555
O9 Sb1 2.387128 1_555
O10 P3 1.550803 1_555
O10 V0 2.061867 1_655
O10 Sb0 2.543343 1_544
O11 P4 1.534776 1_555
O12 P1 1.513531 1_555
O12 V0 1.997461 1_565
O13 P2 1.597425 1_555
O13 Sb0 2.190365 1_455
O14 P3 1.576506 1_555
O14 Sb1 2.314757 1_555
O15 P2 1.513531 1_555
O15 V0 1.997461 1_556
O16 P4 1.576506 1_555
O16 Sb1 2.314757 1_555
O17 P4 1.550803 1_555
O17 V0 2.061867 1_556
O17 Sb0 2.543343 1_445
O18 P5 1.576506 1_555
O18 Sb1 2.314757 1_555
O19 P5 1.534776 1_555
O20 P5 1.550803 1_555
O20 V0 2.061867 1_565
O20 Sb0 2.543343 1_454
O21 P5 1.531143 1_655
O22 P3 1.531143 1_556
O23 P4 1.531143 1_565
