# generated using pymatgen
data_Li5Cr2P5O18
_symmetry_space_group_name_H-M   'P 1'
_cell_length_a   9.29274500
_cell_length_b   10.59599820
_cell_length_c   6.45620265
_cell_angle_alpha   93.10239672
_cell_angle_beta   91.07546124
_cell_angle_gamma   95.93002692
_symmetry_Int_Tables_number   1
_chemical_formula_structural   Li5Cr2P5O18
_chemical_formula_sum   'Li10 Cr4 P10 O36'
_cell_volume   631.19736192
_cell_formula_units_Z   2
loop_
 _symmetry_equiv_pos_site_id
 _symmetry_equiv_pos_as_xyz
  1  'x, y, z'
loop_
 _atom_site_type_symbol
 _atom_site_label
 _atom_site_symmetry_multiplicity
 _atom_site_fract_x
 _atom_site_fract_y
 _atom_site_fract_z
 _atom_site_occupancy
  Li  Li0  1  0.87063100  0.98410500  0.06187100  1
  Li  Li1  1  0.12936900  0.01589500  0.93812900  1
  Li  Li2  1  0.64502200  0.17806500  0.86843500  1
  Li  Li3  1  0.34365900  0.88026600  0.78355500  1
  Li  Li4  1  0.41434300  0.45147600  0.72334700  1
  Li  Li5  1  0.35497800  0.82193500  0.13156500  1
  Li  Li6  1  0.65634100  0.11973400  0.21644500  1
  Li  Li7  1  0.58565700  0.54852400  0.27665300  1
  Li  Li8  1  0.86138000  0.34214700  0.37319700  1
  Li  Li9  1  0.13862000  0.65785300  0.62680300  1
  Cr  Cr0  1  0.94994200  0.33115800  0.76933500  1
  Cr  Cr1  1  0.59821700  0.76777700  0.64255900  1
  Cr  Cr2  1  0.40178300  0.23222300  0.35744100  1
  Cr  Cr3  1  0.05005800  0.66884200  0.23066500  1
  P  P0  1  0.65322300  0.28085700  0.58150100  1
  P  P1  1  0.17526100  0.16775600  0.58227800  1
  P  P2  1  0.89684900  0.83110300  0.72811700  1
  P  P3  1  0.59881200  0.77611800  0.98500700  1
  P  P4  1  0.80142000  0.48211300  0.04795000  1
  P  P5  1  0.40118800  0.22388200  0.01499300  1
  P  P6  1  0.10315100  0.16889700  0.27188300  1
  P  P7  1  0.19858000  0.51788700  0.95205000  1
  P  P8  1  0.34677700  0.71914300  0.41849900  1
  P  P9  1  0.82473900  0.83224400  0.41772200  1
  O  O0  1  0.47913900  0.27079100  0.89124800  1
  O  O1  1  0.68222700  0.58055800  0.96461700  1
  O  O2  1  0.09507400  0.33958500  0.92223600  1
  O  O3  1  0.31389200  0.02815100  0.98433300  1
  O  O4  1  0.68610800  0.97184900  0.01566700  1
  O  O5  1  0.90492600  0.66041500  0.07776400  1
  O  O6  1  0.31777300  0.41944200  0.03538300  1
  O  O7  1  0.16560300  0.67695400  0.06779500  1
  O  O8  1  0.52086100  0.72920900  0.10875200  1
  O  O9  1  0.75470000  0.38543900  0.18145500  1
  O  O10  1  0.47966800  0.22080200  0.16614000  1
  O  O11  1  0.04593300  0.98284900  0.17510600  1
  O  O12  1  0.81462900  0.01581600  0.31974600  1
  O  O13  1  0.23875900  0.22812000  0.24826400  1
  O  O14  1  0.91476000  0.66724000  0.37154400  1
  O  O15  1  0.02122300  0.35816800  0.25468500  1
  O  O16  1  0.38378300  0.91875700  0.33842400  1
  O  O17  1  0.83439700  0.32304600  0.93220500  1
  O  O18  1  0.59730400  0.25745400  0.41968400  1
  O  O19  1  0.69378500  0.73612300  0.45193200  1
  O  O20  1  0.19923200  0.67798900  0.40311500  1
  O  O21  1  0.10065000  0.07960100  0.43007600  1
  O  O22  1  0.89935000  0.92039900  0.56992400  1
  O  O23  1  0.80076800  0.32201100  0.59688500  1
  O  O24  1  0.30621500  0.26387700  0.54806800  1
  O  O25  1  0.40269600  0.74254600  0.58031600  1
  O  O26  1  0.58671900  0.46037700  0.65226600  1
  O  O27  1  0.61621700  0.08124300  0.66157600  1
  O  O28  1  0.97877700  0.64183200  0.74531500  1
  O  O29  1  0.08524000  0.33276000  0.62845600  1
  O  O30  1  0.76124100  0.77188000  0.75173600  1
  O  O31  1  0.18537100  0.98418400  0.68025400  1
  O  O32  1  0.95406700  0.01715100  0.82489400  1
  O  O33  1  0.52033200  0.77919800  0.83386000  1
  O  O34  1  0.24530000  0.61456100  0.81854500  1
  O  O35  1  0.41328100  0.53962300  0.34773400  1
loop_
_geom_bond_atom_site_label_1
_geom_bond_atom_site_label_2
_geom_bond_distance
_geom_bond_site_symmetry_2
Li0 O4 1.725319 1_555
Li0 O32 1.763805 1_564
Li0 O11 1.774606 1_655
Li0 O12 1.778681 1_565
Li1 O3 1.725319 1_555
Li1 O11 1.763805 1_546
Li1 O32 1.774606 1_455
Li1 O31 1.778681 1_545
Li2 O27 1.639917 1_555
Li2 O0 1.915491 1_555
Li2 O17 2.229832 1_555
Li2 O4 2.491470 1_546
Li3 O3 2.023717 1_565
Li3 O25 2.034062 1_555
Li3 O31 2.048955 1_555
Li3 O33 2.080553 1_555
Li4 O26 1.669273 1_555
Li4 O6 2.248992 1_556
Li4 O24 2.354295 1_555
Li4 O0 2.375168 1_555
Li5 O16 1.639917 1_555
Li5 O8 1.915491 1_555
Li5 O7 2.229832 1_555
Li5 O3 2.491470 1_564
Li6 O4 2.023717 1_545
Li6 O18 2.034062 1_555
Li6 O12 2.048955 1_555
Li6 O10 2.080553 1_555
Li7 O35 1.669273 1_555
Li7 O1 2.248992 1_554
Li7 O19 2.354295 1_555
Li7 O8 2.375168 1_555
Li8 O23 1.577172 1_555
Li8 O15 1.680841 1_655
Li8 O9 1.683753 1_555
Li9 O20 1.577172 1_555
Li9 O28 1.680841 1_455
Li9 O34 1.683753 1_555
Cr0 O17 1.516271 1_555
Cr0 O29 1.564776 1_655
Cr0 O2 1.648326 1_655
Cr0 O23 1.753072 1_555
Cr1 O33 1.448922 1_555
Cr1 O19 1.572827 1_555
Cr1 O30 1.654317 1_555
Cr1 O25 1.842492 1_555
Cr2 O10 1.448922 1_555
Cr2 O24 1.572827 1_555
Cr2 O13 1.654317 1_555
Cr2 O18 1.842492 1_555
Cr3 O7 1.516271 1_555
Cr3 O14 1.564776 1_455
Cr3 O5 1.648326 1_455
Cr3 O20 1.753072 1_555
O0 P5 1.183372 1_556
O1 P4 1.697505 1_556
O1 P3 2.284340 1_555
O2 P7 2.027270 1_555
O3 P5 2.144875 1_556
O4 P3 2.144875 1_554
O5 P4 2.027270 1_555
O6 P7 1.697505 1_554
O6 P5 2.284340 1_555
O7 P7 1.863368 1_554
O8 P3 1.183372 1_554
O9 P4 1.413668 1_555
O10 P5 1.211132 1_555
O12 P9 2.088345 1_545
O13 P6 1.363541 1_555
O14 P9 2.025014 1_555
O15 P6 2.224966 1_555
O17 P4 1.863368 1_556
O18 P0 1.161000 1_555
O19 P9 1.531456 1_555
O20 P8 1.395202 1_555
O21 P6 1.428234 1_555
O21 P1 1.435302 1_555
O22 P2 1.428234 1_555
O22 P9 1.435302 1_555
O23 P0 1.395202 1_555
O24 P1 1.531456 1_555
O25 P8 1.161000 1_555
O28 P2 2.224966 1_555
O29 P1 2.025014 1_555
O30 P2 1.363541 1_555
O31 P1 2.088345 1_565
O33 P3 1.211132 1_555
O34 P7 1.413668 1_555
