# generated using pymatgen
data_FeOF
_symmetry_space_group_name_H-M   'P 1'
_cell_length_a   3.08417400
_cell_length_b   9.48189600
_cell_length_c   14.09506309
_cell_angle_alpha   89.07619110
_cell_angle_beta   90.00000000
_cell_angle_gamma   90.00000000
_symmetry_Int_Tables_number   1
_chemical_formula_structural   FeOF
_chemical_formula_sum   'Fe12 O12 F12'
_cell_volume   412.13986991
_cell_formula_units_Z   12
loop_
 _symmetry_equiv_pos_site_id
 _symmetry_equiv_pos_as_xyz
  1  'x, y, z'
loop_
 _atom_site_type_symbol
 _atom_site_label
 _atom_site_symmetry_multiplicity
 _atom_site_fract_x
 _atom_site_fract_y
 _atom_site_fract_z
 _atom_site_occupancy
  Fe  Fe0  1  0.00000000  0.99013700  0.99366200  1
  Fe  Fe1  1  0.00000000  0.50360500  0.99510600  1
  Fe  Fe2  1  0.50000000  0.25167100  0.85594400  1
  Fe  Fe3  1  0.50000000  0.74695800  0.85077900  1
  Fe  Fe4  1  0.00000000  0.99057500  0.65921000  1
  Fe  Fe5  1  0.00000000  0.49827000  0.66162700  1
  Fe  Fe6  1  0.50000000  0.74316200  0.51660800  1
  Fe  Fe7  1  0.50000000  0.28648500  0.50171900  1
  Fe  Fe8  1  0.00000000  0.00834300  0.32682600  1
  Fe  Fe9  1  0.00000000  0.48415300  0.32342600  1
  Fe  Fe10  1  0.50000000  0.24627100  0.17627100  1
  Fe  Fe11  1  0.50000000  0.74681300  0.13931900  1
  O  O0  1  0.50000000  0.40258600  0.93935000  1
  O  O1  1  0.50000000  0.90538900  0.93297300  1
  O  O2  1  0.00000000  0.15055800  0.90074900  1
  O  O3  1  0.00000000  0.65030200  0.89348100  1
  O  O4  1  0.50000000  0.40706100  0.60658000  1
  O  O5  1  0.50000000  0.90471300  0.59812000  1
  O  O6  1  0.00000000  0.64684400  0.56826400  1
  O  O7  1  0.00000000  0.35175000  0.43245200  1
  O  O8  1  0.50000000  0.39831300  0.26240600  1
  O  O9  1  0.00000000  0.15278900  0.23597500  1
  O  O10  1  0.00000000  0.85466300  0.10008700  1
  O  O11  1  0.50000000  0.59105400  0.06361300  1
  F  F0  1  0.00000000  0.35275600  0.76584500  1
  F  F1  1  0.00000000  0.84915700  0.76469200  1
  F  F2  1  0.50000000  0.09534100  0.72632400  1
  F  F3  1  0.50000000  0.59540500  0.72714000  1
  F  F4  1  0.00000000  0.15566000  0.56395900  1
  F  F5  1  0.00000000  0.84838300  0.43285200  1
  F  F6  1  0.50000000  0.09014600  0.40245400  1
  F  F7  1  0.50000000  0.60262000  0.39387400  1
  F  F8  1  0.50000000  0.90066200  0.27333600  1
  F  F9  1  0.00000000  0.65519700  0.23254900  1
  F  F10  1  0.00000000  0.33652400  0.10893800  1
  F  F11  1  0.50000000  0.10568300  0.07348400  1
loop_
_geom_bond_atom_site_label_1
_geom_bond_atom_site_label_2
_geom_bond_distance
_geom_bond_site_symmetry_2
Fe0 O1 1.943620 1_455
Fe0 O1 1.943620 1_555
Fe0 O10 1.959116 1_556
Fe0 O2 1.991127 1_565
Fe1 O3 1.980490 1_555
Fe1 O0 1.984288 1_455
Fe1 O0 1.984288 1_555
Fe1 O11 2.005940 1_456
Fe1 O11 2.005940 1_556
Fe2 O0 1.866536 1_555
Fe2 O2 1.917427 1_555
Fe2 O2 1.917427 1_655
Fe3 O3 1.887446 1_555
Fe3 O3 1.887446 1_655
Fe3 O1 1.911804 1_555
Fe4 O5 1.950613 1_455
Fe4 O5 1.950613 1_555
Fe5 O6 1.912218 1_555
Fe5 O4 1.936392 1_455
Fe5 O4 1.936392 1_555
Fe6 O6 1.928934 1_655
Fe6 O6 1.928934 1_555
Fe6 O5 1.929560 1_555
Fe7 O4 1.883122 1_555
Fe7 O7 1.922164 1_655
Fe7 O7 1.922164 1_555
Fe8 O9 1.859871 1_555
Fe9 O8 1.950082 1_455
Fe9 O8 1.950082 1_555
Fe9 O7 1.968612 1_555
Fe10 O8 1.899676 1_555
Fe10 O9 1.961590 1_555
Fe10 O9 1.961590 1_655
Fe11 O11 1.835943 1_555
Fe11 O10 1.926484 1_655
Fe11 O10 1.926484 1_555
F0 Fe5 1.999048 1_555
F0 Fe2 2.206861 1_455
F0 Fe2 2.206861 1_555
F1 Fe4 1.986015 1_555
F1 Fe3 2.179793 1_555
F1 Fe3 2.179793 1_455
F2 Fe4 2.071234 1_645
F2 Fe4 2.071234 1_545
F2 Fe2 2.371179 1_555
F3 Fe5 2.026432 1_655
F3 Fe5 2.026432 1_555
F3 Fe3 2.276566 1_555
F4 Fe4 2.045715 1_545
F4 Fe7 2.156692 1_555
F4 Fe7 2.156692 1_455
F5 Fe8 2.112042 1_565
F5 Fe6 2.174658 1_555
F5 Fe6 2.174658 1_455
F6 Fe8 2.035347 1_655
F6 Fe8 2.035347 1_555
F6 Fe7 2.346786 1_555
F7 Fe9 2.159113 1_555
F7 Fe9 2.159113 1_655
F7 Fe6 2.200654 1_555
F8 Fe8 2.003439 1_665
F8 Fe8 2.003439 1_565
F8 Fe11 2.405231 1_555
F9 Fe9 2.050382 1_555
F9 Fe11 2.196057 1_555
F9 Fe11 2.196057 1_455
F10 Fe10 1.996223 1_555
F10 Fe10 1.996223 1_455
F10 Fe1 2.236557 1_554
F11 Fe10 1.984506 1_555
F11 Fe0 2.209966 1_644
F11 Fe0 2.209966 1_544
