# generated using pymatgen
data_NiP2H2O7
_symmetry_space_group_name_H-M   'P 1'
_cell_length_a   8.78098294
_cell_length_b   12.73982667
_cell_length_c   9.55267142
_cell_angle_alpha   89.99986180
_cell_angle_beta   106.46571479
_cell_angle_gamma   89.99999382
_symmetry_Int_Tables_number   1
_chemical_formula_structural   NiP2H2O7
_chemical_formula_sum   'Ni8 P16 H16 O56'
_cell_volume   1024.81471139
_cell_formula_units_Z   8
loop_
 _symmetry_equiv_pos_site_id
 _symmetry_equiv_pos_as_xyz
  1  'x, y, z'
loop_
 _atom_site_type_symbol
 _atom_site_label
 _atom_site_symmetry_multiplicity
 _atom_site_fract_x
 _atom_site_fract_y
 _atom_site_fract_z
 _atom_site_occupancy
  Ni  Ni0  1  0.74884271  0.25355825  0.74876863  1
  Ni  Ni1  1  0.25120287  0.75353690  0.75127207  1
  Ni  Ni2  1  0.25120258  0.74646242  0.25127231  1
  Ni  Ni3  1  0.74884221  0.24644251  0.24876925  1
  Ni  Ni4  1  0.75090272  0.40718999  0.00154563  1
  Ni  Ni5  1  0.24910359  0.90722298  0.49847189  1
  Ni  Ni6  1  0.24910215  0.59277832  0.99847099  1
  Ni  Ni7  1  0.75090145  0.09280910  0.50154430  1
  P  P0  1  0.53333698  0.04651294  0.71861286  1
  P  P1  1  0.46665993  0.54650468  0.78136943  1
  P  P2  1  0.46665994  0.95349546  0.28136966  1
  P  P3  1  0.53333597  0.45348734  0.21861252  1
  P  P4  1  0.99363232  0.29357409  0.56408539  1
  P  P5  1  0.00636292  0.79358272  0.93592224  1
  P  P6  1  0.00636351  0.70641812  0.43592276  1
  P  P7  1  0.99363286  0.20642553  0.06408558  1
  P  P8  1  0.03999501  0.53832772  0.22156271  1
  P  P9  1  0.96001358  0.03833027  0.27842168  1
  P  P10  1  0.96001314  0.46166973  0.77842143  1
  P  P11  1  0.03999504  0.96167264  0.72156232  1
  P  P12  1  0.50122108  0.21371591  0.93205999  1
  P  P13  1  0.49877310  0.71372071  0.56795415  1
  P  P14  1  0.49877182  0.78628049  0.06795358  1
  P  P15  1  0.50121986  0.28628334  0.43205870  1
  H  H0  1  0.04811563  0.38995684  0.33494219  1
  H  H1  1  0.95188245  0.88995897  0.16504710  1
  H  H2  1  0.95188064  0.61004211  0.66504711  1
  H  H3  1  0.04811316  0.11004266  0.83494309  1
  H  H4  1  0.54386445  0.90423994  0.84797613  1
  H  H5  1  0.45608454  0.40423678  0.65200522  1
  H  H6  1  0.45608389  0.09576148  0.15200274  1
  H  H7  1  0.54386386  0.59576165  0.34797355  1
  H  H8  1  0.22447334  0.25032784  0.70920329  1
  H  H9  1  0.77550597  0.75036568  0.79079019  1
  H  H10  1  0.77550837  0.74963922  0.29078891  1
  H  H11  1  0.22447811  0.24966247  0.20920335  1
  H  H12  1  0.28079987  0.27153768  0.97631728  1
  H  H13  1  0.71921860  0.77148178  0.52368962  1
  H  H14  1  0.71921930  0.72852145  0.02368877  1
  H  H15  1  0.28080129  0.22845551  0.47631449  1
  O  O0  1  0.16368076  0.60449255  0.18055816  1
  O  O1  1  0.83635354  0.10450868  0.31944784  1
  O  O2  1  0.83635347  0.39549047  0.81944677  1
  O  O3  1  0.16368249  0.89550912  0.68055809  1
  O  O4  1  0.65962581  0.11138714  0.67936193  1
  O  O5  1  0.34041844  0.61140365  0.82066732  1
  O  O6  1  0.34041466  0.88859804  0.32066414  1
  O  O7  1  0.65962117  0.38861165  0.17935813  1
  O  O8  1  0.61268631  0.28590237  0.88418268  1
  O  O9  1  0.38731706  0.78588887  0.61586296  1
  O  O10  1  0.38731657  0.71411023  0.11586102  1
  O  O11  1  0.61268689  0.21409890  0.38418119  1
  O  O12  1  0.89354882  0.51993632  0.10234425  1
  O  O13  1  0.10646974  0.01991816  0.39763258  1
  O  O14  1  0.10646950  0.48008252  0.89763076  1
  O  O15  1  0.89355042  0.98006417  0.60234125  1
  O  O16  1  0.55902910  0.17838223  0.08782503  1
  O  O17  1  0.44094586  0.67838969  0.41218744  1
  O  O18  1  0.44094485  0.82161169  0.91218679  1
  O  O19  1  0.55902686  0.32161550  0.58782411  1
  O  O20  1  0.94284311  0.31451304  0.40356091  1
  O  O21  1  0.05713275  0.81452434  0.09644769  1
  O  O22  1  0.05713177  0.68547769  0.59644923  1
  O  O23  1  0.94284309  0.18548658  0.90356224  1
  O  O24  1  0.61555456  0.95475662  0.81718494  1
  O  O25  1  0.38439495  0.45476694  0.68278117  1
  O  O26  1  0.38439503  0.04523230  0.18277941  1
  O  O27  1  0.61555421  0.54524401  0.31718324  1
  O  O28  1  0.46310672  0.11852154  0.82449416  1
  O  O29  1  0.53692272  0.61851197  0.67550511  1
  O  O30  1  0.53692009  0.88148778  0.17550450  1
  O  O31  1  0.46310386  0.38147905  0.32449415  1
  O  O32  1  0.39633114  0.01855090  0.59500733  1
  O  O33  1  0.60366674  0.51849342  0.90493956  1
  O  O34  1  0.60366552  0.98150773  0.40494049  1
  O  O35  1  0.39632859  0.48144937  0.09500866  1
  O  O36  1  0.88589203  0.21984295  0.61449312  1
  O  O37  1  0.11410225  0.71983231  0.88553614  1
  O  O38  1  0.11410359  0.78016741  0.38553670  1
  O  O39  1  0.88589399  0.28015820  0.11449374  1
  O  O40  1  0.33276563  0.26629817  0.89767878  1
  O  O41  1  0.66721499  0.76631962  0.60231192  1
  O  O42  1  0.66721408  0.73368183  0.10231006  1
  O  O43  1  0.33276566  0.23369931  0.39767547  1
  O  O44  1  0.12037212  0.43851744  0.30094246  1
  O  O45  1  0.87962567  0.93852298  0.19905062  1
  O  O46  1  0.87962367  0.56147640  0.69904764  1
  O  O47  1  0.12036971  0.06148335  0.80094096  1
  O  O48  1  0.99127399  0.60112074  0.34901500  1
  O  O49  1  0.00876101  0.10112022  0.15098819  1
  O  O50  1  0.00875900  0.39887868  0.65098781  1
  O  O51  1  0.99126957  0.89887950  0.84901241  1
  O  O52  1  0.16904016  0.25110569  0.60367788  1
  O  O53  1  0.83094704  0.75112245  0.89631598  1
  O  O54  1  0.83094773  0.74887901  0.39631518  1
  O  O55  1  0.16904212  0.24889127  0.10367859  1
loop_
_geom_bond_atom_site_label_1
_geom_bond_atom_site_label_2
_geom_bond_distance
_geom_bond_site_symmetry_2
Ni0 O2 2.005440 1_555
Ni0 O4 2.009841 1_555
Ni0 O8 2.036973 1_555
Ni0 O36 2.037911 1_555
Ni0 O23 2.100618 1_555
Ni0 O19 2.107354 1_555
Ni1 O3 2.005999 1_555
Ni1 O5 2.009376 1_555
Ni1 O9 2.036670 1_555
Ni1 O37 2.038141 1_555
Ni1 O22 2.101067 1_555
Ni1 O18 2.106926 1_555
Ni2 O0 2.005979 1_555
Ni2 O6 2.009390 1_555
Ni2 O10 2.036687 1_555
Ni2 O38 2.038134 1_555
Ni2 O21 2.101080 1_555
Ni2 O17 2.106921 1_555
Ni3 O1 2.005458 1_555
Ni3 O7 2.009835 1_555
Ni3 O11 2.036947 1_555
Ni3 O39 2.037928 1_555
Ni3 O20 2.100609 1_555
Ni3 O16 2.107358 1_555
Ni4 O33 1.964050 1_554
Ni4 O12 1.968643 1_555
Ni4 O8 2.084752 1_554
Ni4 O2 2.085933 1_554
Ni4 O7 2.086979 1_555
Ni4 O39 2.112650 1_555
Ni5 O32 1.964048 1_565
Ni5 O13 1.968230 1_565
Ni5 O9 2.085276 1_555
Ni5 O3 2.085677 1_555
Ni5 O6 2.087164 1_555
Ni5 O38 2.112875 1_555
Ni6 O35 1.964055 1_556
Ni6 O14 1.968237 1_555
Ni6 O10 2.085259 1_556
Ni6 O0 2.085688 1_556
Ni6 O5 2.087156 1_555
Ni6 O37 2.112854 1_555
Ni7 O34 1.964028 1_545
Ni7 O15 1.968634 1_545
Ni7 O11 2.084762 1_555
Ni7 O1 2.085918 1_555
Ni7 O4 2.086992 1_555
Ni7 O36 2.112675 1_555
H0 O44 1.003796 1_555
H0 O20 1.597329 1_455
H1 O45 1.003844 1_555
H1 O21 1.597019 1_655
H2 O46 1.003843 1_555
H2 O22 1.597022 1_655
H3 O47 1.003799 1_555
H3 O23 1.597320 1_455
H4 O24 1.000975 1_555
H4 O18 1.617198 1_555
H5 O25 1.001015 1_555
H5 O19 1.617124 1_555
H6 O26 1.001004 1_555
H6 O16 1.617117 1_555
H7 O27 1.000982 1_555
H7 O17 1.617206 1_555
H8 O52 0.987441 1_555
H9 O53 0.987455 1_555
H10 O54 0.987457 1_555
H11 O55 0.987440 1_555
H12 O40 0.985549 1_555
H13 O41 0.985570 1_555
H14 O42 0.985570 1_555
H15 O43 0.985548 1_555
O0 P8 1.511522 1_555
O1 P9 1.511536 1_555
O2 P10 1.511535 1_555
O3 P11 1.511524 1_555
O4 P0 1.512985 1_555
O5 P1 1.513029 1_555
O6 P2 1.513029 1_555
O7 P3 1.512986 1_555
O8 P12 1.505550 1_555
O9 P13 1.505496 1_555
O10 P14 1.505500 1_555
O11 P15 1.505548 1_555
O12 P8 1.474902 1_655
O13 P9 1.474962 1_455
O14 P10 1.474957 1_455
O15 P11 1.474905 1_655
O16 P12 1.498728 1_554
O17 P13 1.498744 1_555
O18 P14 1.498743 1_556
O19 P15 1.498727 1_555
O20 P4 1.494592 1_555
O21 P5 1.494607 1_554
O22 P6 1.494612 1_555
O23 P7 1.494583 1_556
O24 P0 1.545627 1_565
O25 P1 1.545648 1_555
O26 P2 1.545645 1_545
O27 P3 1.545630 1_555
O28 P12 1.563232 1_555
O28 P0 1.611991 1_555
O29 P13 1.563294 1_555
O29 P1 1.612020 1_555
O30 P14 1.563283 1_555
O30 P2 1.612018 1_555
O31 P15 1.563234 1_555
O31 P3 1.611998 1_555
O32 P0 1.470768 1_555
O33 P1 1.470731 1_555
O34 P2 1.470733 1_555
O35 P3 1.470766 1_555
O36 P4 1.505816 1_555
O37 P5 1.505861 1_555
O38 P6 1.505856 1_555
O39 P7 1.505822 1_555
O40 P12 1.571388 1_555
O41 P13 1.571387 1_555
O42 P14 1.571389 1_555
O43 P15 1.571388 1_555
O44 P8 1.544870 1_555
O45 P9 1.544842 1_565
O46 P10 1.544846 1_555
O47 P11 1.544867 1_545
O48 P6 1.563323 1_655
O48 P8 1.612635 1_655
O49 P7 1.563360 1_455
O49 P9 1.612575 1_455
O50 P4 1.563355 1_455
O50 P10 1.612580 1_455
O51 P5 1.563321 1_655
O51 P11 1.612635 1_655
O52 P4 1.574139 1_455
O53 P5 1.574164 1_655
O54 P6 1.574164 1_655
O55 P7 1.574139 1_455
