# generated using pymatgen
data_V2O3F
_symmetry_space_group_name_H-M   'P 1'
_cell_length_a   7.33005897
_cell_length_b   7.33005897
_cell_length_c   6.41889900
_cell_angle_alpha   90.00000000
_cell_angle_beta   90.00000000
_cell_angle_gamma   130.63130343
_symmetry_Int_Tables_number   1
_chemical_formula_structural   V2O3F
_chemical_formula_sum   'V8 O12 F4'
_cell_volume   261.73932948
_cell_formula_units_Z   4
loop_
 _symmetry_equiv_pos_site_id
 _symmetry_equiv_pos_as_xyz
  1  'x, y, z'
loop_
 _atom_site_type_symbol
 _atom_site_label
 _atom_site_symmetry_multiplicity
 _atom_site_fract_x
 _atom_site_fract_y
 _atom_site_fract_z
 _atom_site_occupancy
  V  V0  1  0.75704900  0.75704900  0.00000000  1
  V  V1  1  0.24295100  0.24295100  0.00000000  1
  V  V2  1  0.23443800  0.76556200  0.00000000  1
  V  V3  1  0.76556200  0.23443800  0.00000000  1
  V  V4  1  0.00000000  0.00000000  0.50000000  1
  V  V5  1  0.50000000  0.50000000  0.50000000  1
  V  V6  1  0.00000000  0.50000000  0.50000000  1
  V  V7  1  0.50000000  0.00000000  0.50000000  1
  O  O0  1  0.90270300  0.09729700  0.00000000  1
  O  O1  1  0.25390000  0.25390000  0.70354200  1
  O  O2  1  0.74610000  0.74610000  0.70354200  1
  O  O3  1  0.50000000  0.00000000  0.80930500  1
  O  O4  1  0.74610000  0.74610000  0.29645800  1
  O  O5  1  0.25390000  0.25390000  0.29645800  1
  O  O6  1  0.00000000  0.50000000  0.80930500  1
  O  O7  1  0.35194000  0.64806000  0.50000000  1
  O  O8  1  0.09729700  0.90270300  0.00000000  1
  O  O9  1  0.64806000  0.35194000  0.50000000  1
  O  O10  1  0.00000000  0.50000000  0.19069500  1
  O  O11  1  0.50000000  0.00000000  0.19069500  1
  F  F0  1  0.39914400  0.60085600  0.00000000  1
  F  F1  1  0.60085600  0.39914400  0.00000000  1
  F  F2  1  0.85124600  0.14875400  0.50000000  1
  F  F3  1  0.14875400  0.85124600  0.50000000  1
loop_
_geom_bond_atom_site_label_1
_geom_bond_atom_site_label_2
_geom_bond_distance
_geom_bond_site_symmetry_2
O0 V3 1.826788 1_555
O0 V0 1.972861 1_545
O0 V1 1.972861 1_655
O1 V1 1.904114 1_556
O1 V5 1.994280 1_555
O1 V4 2.030600 1_555
O2 V0 1.904114 1_556
O2 V5 1.994280 1_555
O2 V4 2.030600 1_665
O3 V3 1.970778 1_556
O3 V2 1.970778 1_546
O3 V7 1.985398 1_555
O4 V0 1.904114 1_555
O4 V5 1.994280 1_555
O4 V4 2.030600 1_665
O5 V1 1.904114 1_555
O5 V5 1.994280 1_555
O5 V4 2.030600 1_555
O6 V2 1.970778 1_556
O6 V3 1.970778 1_456
O6 V6 1.985398 1_555
O7 V5 1.972235 1_555
O7 V7 2.046110 1_565
O7 V6 2.046110 1_555
O8 V2 1.826788 1_555
O8 V0 1.972861 1_455
O8 V1 1.972861 1_565
O9 V5 1.972235 1_555
O9 V6 2.046110 1_655
O9 V7 2.046110 1_555
O10 V2 1.970778 1_555
O10 V3 1.970778 1_455
O10 V6 1.985398 1_555
O11 V3 1.970778 1_555
O11 V2 1.970778 1_545
O11 V7 1.985398 1_555
F0 V1 2.069186 1_555
F0 V0 2.069186 1_555
F0 V2 2.193968 1_555
F1 V1 2.069186 1_555
F1 V0 2.069186 1_555
F1 V3 2.193968 1_555
F2 V4 1.981479 1_655
F2 V7 2.039986 1_555
F2 V6 2.039986 1_655
F3 V4 1.981479 1_565
F3 V6 2.039986 1_555
F3 V7 2.039986 1_565
