# generated using pymatgen
data_Li2NiBiO4
_symmetry_space_group_name_H-M   'P 1'
_cell_length_a   5.45633183
_cell_length_b   5.45568165
_cell_length_c   6.26298100
_cell_angle_alpha   89.99999901
_cell_angle_beta   90.00008864
_cell_angle_gamma   109.94795744
_symmetry_Int_Tables_number   1
_chemical_formula_structural   Li2NiBiO4
_chemical_formula_sum   'Li4 Ni2 Bi2 O8'
_cell_volume   175.25082850
_cell_formula_units_Z   2
loop_
 _symmetry_equiv_pos_site_id
 _symmetry_equiv_pos_as_xyz
  1  'x, y, z'
loop_
 _atom_site_type_symbol
 _atom_site_label
 _atom_site_symmetry_multiplicity
 _atom_site_fract_x
 _atom_site_fract_y
 _atom_site_fract_z
 _atom_site_occupancy
  Li  Li0  1  0.00000100  0.50000100  0.74999300  1
  Li  Li1  1  0.50000100  0.00000100  0.25000000  1
  Li  Li2  1  0.50000100  0.50000100  0.99999700  1
  Li  Li3  1  0.00000100  0.00000100  0.49999600  1
  Ni  Ni0  1  0.49999100  0.99998200  0.75012100  1
  Ni  Ni1  1  0.99999800  0.50000400  0.25003100  1
  Bi  Bi0  1  0.00000100  0.00000100  0.99998900  1
  Bi  Bi1  1  0.50000100  0.50000100  0.49998100  1
  O  O0  1  0.23413000  0.26589100  0.25000900  1
  O  O1  1  0.73411700  0.76589700  0.75000400  1
  O  O2  1  0.76587100  0.73411100  0.25000900  1
  O  O3  1  0.26588500  0.23410500  0.75000400  1
  O  O4  1  0.24931500  0.75079600  0.99996100  1
  O  O5  1  0.74929500  0.25077700  0.49997300  1
  O  O6  1  0.75068700  0.24920600  0.99996000  1
  O  O7  1  0.25070600  0.74922600  0.49997300  1
loop_
_geom_bond_atom_site_label_1
_geom_bond_atom_site_label_2
_geom_bond_distance
_geom_bond_site_symmetry_2
Li0 O5 2.214232 1_455
Li0 O7 2.214235 1_555
Li0 O6 2.214396 1_455
Li0 O4 2.214397 1_555
Li0 O3 2.375928 1_555
Li0 O1 2.375928 1_455
Li1 O4 2.214230 1_544
Li1 O6 2.214237 1_554
Li1 O5 2.214333 1_555
Li1 O7 2.214336 1_545
Li1 O2 2.375838 1_545
Li1 O0 2.375843 1_555
Li2 O3 2.218819 1_555
Li2 O1 2.218822 1_555
Li2 O2 2.218852 1_556
Li2 O0 2.218857 1_556
Li2 O4 2.240556 1_555
Li2 O6 2.240556 1_555
Li3 O2 2.218804 1_445
Li3 O0 2.218805 1_555
Li3 O3 2.218857 1_555
Li3 O1 2.218861 1_445
Li3 O7 2.240551 1_545
Li3 O5 2.240560 1_455
Ni0 O1 2.091909 1_555
Ni0 O3 2.091990 1_565
Ni0 O4 2.213288 1_555
Ni0 O6 2.213408 1_565
Ni0 O7 2.215044 1_555
Ni0 O5 2.215175 1_565
Ni1 O2 2.092012 1_555
Ni1 O0 2.092061 1_655
Ni1 O7 2.213887 1_655
Ni1 O5 2.213890 1_555
Ni1 O4 2.214852 1_654
Ni1 O6 2.214853 1_554
Bi0 O1 2.218756 1_445
Bi0 O3 2.218759 1_555
Bi0 O0 2.218948 1_556
Bi0 O2 2.218953 1_446
Bi0 O4 2.227322 1_545
Bi0 O6 2.227322 1_455
Bi1 O0 2.218677 1_555
Bi1 O2 2.218678 1_555
Bi1 O1 2.218952 1_555
Bi1 O3 2.218954 1_555
Bi1 O5 2.227317 1_555
Bi1 O7 2.227326 1_555
