# generated using pymatgen
data_LiCoSnO4
_symmetry_space_group_name_H-M   'P 1'
_cell_length_a   5.98822483
_cell_length_b   5.98822483
_cell_length_c   5.98822483
_cell_angle_alpha   120.40744944
_cell_angle_beta   116.09749293
_cell_angle_gamma   93.09285112
_symmetry_Int_Tables_number   1
_chemical_formula_structural   LiCoSnO4
_chemical_formula_sum   'Li2 Co2 Sn2 O8'
_cell_volume   155.34509090
_cell_formula_units_Z   2
loop_
 _symmetry_equiv_pos_site_id
 _symmetry_equiv_pos_as_xyz
  1  'x, y, z'
loop_
 _atom_site_type_symbol
 _atom_site_label
 _atom_site_symmetry_multiplicity
 _atom_site_fract_x
 _atom_site_fract_y
 _atom_site_fract_z
 _atom_site_occupancy
  Li  Li0  1  0.00000000  0.50000000  0.50000000  1
  Li  Li1  1  0.50000000  0.50000000  0.00000000  1
  Co  Co0  1  0.00000000  0.50000000  0.00000000  1
  Co  Co1  1  0.00000000  0.00000000  0.50000000  1
  Sn  Sn0  1  0.00000000  0.00000000  0.00000000  1
  Sn  Sn1  1  0.50000000  0.00000000  0.50000000  1
  O  O0  1  0.79867700  0.24872900  0.54994900  1
  O  O1  1  0.23578800  0.74532100  0.00953400  1
  O  O2  1  0.19878000  0.24872900  0.95005100  1
  O  O3  1  0.76421200  0.77374600  0.50953400  1
  O  O4  1  0.23578800  0.22625400  0.49046600  1
  O  O5  1  0.80122000  0.75127100  0.04994900  1
  O  O6  1  0.76421200  0.25467900  0.99046600  1
  O  O7  1  0.20132300  0.75127100  0.45005100  1
loop_
_geom_bond_atom_site_label_1
_geom_bond_atom_site_label_2
_geom_bond_distance
_geom_bond_site_symmetry_2
Li0 O7 2.093794 1_555
Li0 O0 2.093794 1_455
Li0 O3 2.215842 1_455
Li0 O4 2.215842 1_555
Li0 O1 2.215843 1_556
Li0 O6 2.215843 1_454
Li1 O5 2.093790 1_555
Li1 O2 2.093790 1_554
Li1 O1 2.215838 1_555
Li1 O6 2.215838 1_554
Li1 O3 2.215842 1_555
Li1 O4 2.215842 1_554
Co0 O6 1.943011 1_454
Co0 O1 1.943011 1_555
Co0 O7 1.954820 1_555
Co0 O0 1.954820 1_454
Co0 O5 1.954820 1_455
Co0 O2 1.954820 1_554
Co1 O3 1.943015 1_445
Co1 O4 1.943015 1_555
Co1 O2 1.954820 1_555
Co1 O5 1.954820 1_445
Co1 O0 1.954824 1_455
Co1 O7 1.954824 1_545
O0 Sn1 2.073090 1_555
O1 Sn1 2.138289 1_565
O1 Sn0 2.138294 1_565
O2 Sn0 2.073095 1_556
O3 Sn1 2.138290 1_565
O3 Sn0 2.138290 1_666
O4 Sn1 2.138290 1_555
O4 Sn0 2.138290 1_555
O5 Sn0 2.073095 1_665
O6 Sn1 2.138289 1_555
O6 Sn0 2.138294 1_656
O7 Sn1 2.073090 1_565
