# generated using pymatgen
data_Cu2O3
_symmetry_space_group_name_H-M   'P 1'
_cell_length_a   3.59952600
_cell_length_b   7.75706700
_cell_length_c   10.41992724
_cell_angle_alpha   67.90345068
_cell_angle_beta   90.00000000
_cell_angle_gamma   90.00000000
_symmetry_Int_Tables_number   1
_chemical_formula_structural   Cu2O3
_chemical_formula_sum   'Cu8 O12'
_cell_volume   269.57338233
_cell_formula_units_Z   4
loop_
 _symmetry_equiv_pos_site_id
 _symmetry_equiv_pos_as_xyz
  1  'x, y, z'
loop_
 _atom_site_type_symbol
 _atom_site_label
 _atom_site_symmetry_multiplicity
 _atom_site_fract_x
 _atom_site_fract_y
 _atom_site_fract_z
 _atom_site_occupancy
  Cu  Cu0  1  0.99973400  0.48456500  0.87279700  1
  Cu  Cu1  1  0.75060100  0.13841600  0.25903000  1
  Cu  Cu2  1  0.49973400  0.51543500  0.62720300  1
  Cu  Cu3  1  0.25060100  0.86158400  0.24097000  1
  Cu  Cu4  1  0.74939900  0.13841600  0.75903000  1
  Cu  Cu5  1  0.50026600  0.48456500  0.37279700  1
  Cu  Cu6  1  0.24939900  0.86158400  0.74097000  1
  Cu  Cu7  1  0.00026600  0.51543500  0.12720300  1
  O  O0  1  0.79614400  0.36627200  0.04517100  1
  O  O1  1  0.19593500  0.64462600  0.70328800  1
  O  O2  1  0.69593500  0.35537400  0.79671200  1
  O  O3  1  0.25312300  0.07108100  0.29242600  1
  O  O4  1  0.75312300  0.92891900  0.20757400  1
  O  O5  1  0.70385600  0.36627200  0.54517100  1
  O  O6  1  0.29614400  0.63372800  0.45482900  1
  O  O7  1  0.24687700  0.07108100  0.79242600  1
  O  O8  1  0.74687700  0.92891900  0.70757400  1
  O  O9  1  0.30406500  0.64462600  0.20328800  1
  O  O10  1  0.80406500  0.35537400  0.29671200  1
  O  O11  1  0.20385600  0.63372800  0.95482900  1
loop_
_geom_bond_atom_site_label_1
_geom_bond_atom_site_label_2
_geom_bond_distance
_geom_bond_site_symmetry_2
Cu0 O11 1.831218 1_655
Cu0 O0 1.834434 1_556
Cu0 O2 1.851045 1_555
Cu0 O1 1.873546 1_655
Cu1 O3 1.861108 1_555
Cu1 O10 1.876352 1_555
Cu1 O3 1.878583 1_655
Cu1 O4 1.893139 1_545
Cu1 O0 2.270120 1_555
Cu2 O5 1.831218 1_555
Cu2 O6 1.834434 1_555
Cu2 O1 1.851045 1_555
Cu2 O2 1.873546 1_555
Cu3 O4 1.861108 1_455
Cu3 O9 1.876352 1_555
Cu3 O4 1.878583 1_555
Cu3 O3 1.893139 1_565
Cu3 O6 2.270120 1_555
Cu4 O7 1.861108 1_655
Cu4 O2 1.876352 1_555
Cu4 O7 1.878583 1_555
Cu4 O8 1.893139 1_545
Cu4 O5 2.270120 1_555
Cu5 O6 1.831218 1_555
Cu5 O5 1.834434 1_555
Cu5 O10 1.851045 1_555
Cu5 O9 1.873546 1_555
Cu6 O8 1.861108 1_555
Cu6 O1 1.876352 1_555
Cu6 O8 1.878583 1_455
Cu6 O7 1.893139 1_565
Cu6 O11 2.270120 1_555
Cu7 O0 1.831218 1_455
Cu7 O11 1.834434 1_554
Cu7 O9 1.851045 1_555
Cu7 O10 1.873546 1_455
