# generated using pymatgen
data_Fe5O3F7
_symmetry_space_group_name_H-M   'P 1'
_cell_length_a   4.79952900
_cell_length_b   4.80716421
_cell_length_c   15.70167264
_cell_angle_alpha   89.94880353
_cell_angle_beta   89.87555359
_cell_angle_gamma   88.71379048
_symmetry_Int_Tables_number   1
_chemical_formula_structural   Fe5O3F7
_chemical_formula_sum   'Fe10 O6 F14'
_cell_volume   362.17867759
_cell_formula_units_Z   2
loop_
 _symmetry_equiv_pos_site_id
 _symmetry_equiv_pos_as_xyz
  1  'x, y, z'
loop_
 _atom_site_type_symbol
 _atom_site_label
 _atom_site_symmetry_multiplicity
 _atom_site_fract_x
 _atom_site_fract_y
 _atom_site_fract_z
 _atom_site_occupancy
  Fe  Fe0  1  0.00518200  0.99351900  0.00022700  1
  Fe  Fe1  1  0.96959800  0.02857900  0.80129400  1
  Fe  Fe2  1  0.03257900  0.96507400  0.60010400  1
  Fe  Fe3  1  0.95852700  0.02011500  0.39333600  1
  Fe  Fe4  1  0.99955500  0.98851900  0.20237100  1
  Fe  Fe5  1  0.51443800  0.48424400  0.90616100  1
  Fe  Fe6  1  0.49836000  0.49075000  0.50298900  1
  Fe  Fe7  1  0.49629200  0.50124600  0.70543900  1
  Fe  Fe8  1  0.53839700  0.51895600  0.30456300  1
  Fe  Fe9  1  0.49707900  0.49854700  0.08544100  1
  O  O0  1  0.79774700  0.81162200  0.30469100  1
  O  O1  1  0.69927600  0.29715400  0.00115000  1
  O  O2  1  0.67231100  0.32640400  0.79825400  1
  O  O3  1  0.68477400  0.31837900  0.40325500  1
  O  O4  1  0.30811400  0.68894200  0.99738900  1
  O  O5  1  0.32883000  0.66547800  0.59764400  1
  F  F0  1  0.78904300  0.79297200  0.89793000  1
  F  F1  1  0.79160000  0.79239700  0.69756300  1
  F  F2  1  0.80051300  0.80082600  0.49318900  1
  F  F3  1  0.79232900  0.78407000  0.10600800  1
  F  F4  1  0.71150900  0.28357500  0.59719200  1
  F  F5  1  0.69561600  0.31204000  0.20380000  1
  F  F6  1  0.28608500  0.71197900  0.79613900  1
  F  F7  1  0.29586500  0.70897500  0.40089600  1
  F  F8  1  0.31780300  0.68517000  0.20291200  1
  F  F9  1  0.20554100  0.20937500  0.89780400  1
  F  F10  1  0.19545000  0.19271400  0.49132600  1
  F  F11  1  0.20579000  0.20491100  0.69738600  1
  F  F12  1  0.21036100  0.20453400  0.10819100  1
  F  F13  1  0.20143900  0.21893200  0.30535500  1
loop_
_geom_bond_atom_site_label_1
_geom_bond_atom_site_label_2
_geom_bond_distance
_geom_bond_site_symmetry_2
Fe0 O4 2.040566 1_554
Fe0 O1 2.046967 1_465
Fe1 O2 1.999089 1_555
Fe2 O5 2.001329 1_555
Fe3 O0 1.891875 1_545
Fe3 O3 1.929063 1_555
Fe4 O0 2.066449 1_555
Fe5 O1 1.946264 1_556
Fe5 O4 1.988309 1_555
Fe5 O2 1.997870 1_555
Fe6 O5 1.882225 1_555
Fe6 O3 1.975441 1_555
Fe7 O2 1.874909 1_555
Fe7 O5 2.027089 1_555
Fe8 O0 1.899318 1_555
Fe8 O3 1.948399 1_555
Fe9 O4 1.880864 1_554
Fe9 O1 1.893478 1_555
F0 Fe5 2.010736 1_555
F0 Fe1 2.090781 1_565
F0 Fe0 2.154167 1_656
F1 Fe7 2.017682 1_555
F1 Fe2 2.097999 1_655
F1 Fe1 2.173618 1_565
F2 Fe3 2.042636 1_565
F2 Fe6 2.108138 1_555
F2 Fe2 2.175348 1_655
F3 Fe9 2.021474 1_555
F3 Fe4 2.073058 1_555
F3 Fe0 2.202714 1_655
F4 Fe6 2.045604 1_555
F4 Fe2 2.148304 1_645
F4 Fe7 2.235564 1_555
F5 Fe8 2.006463 1_555
F5 Fe4 2.108381 1_545
F5 Fe9 2.265384 1_555
F6 Fe7 2.005674 1_555
F6 Fe1 2.127464 1_465
F6 Fe5 2.309767 1_555
F7 Fe8 2.103425 1_555
F7 Fe6 2.138397 1_555
F7 Fe3 2.182746 1_465
F8 Fe8 2.067357 1_555
F8 Fe4 2.087983 1_455
F8 Fe9 2.215570 1_555
F9 Fe5 2.012522 1_555
F9 Fe1 2.094770 1_455
F9 Fe0 2.150093 1_546
F10 Fe6 2.072421 1_555
F10 Fe3 2.097858 1_455
F10 Fe2 2.180613 1_545
F11 Fe7 2.019784 1_555
F11 Fe2 2.098879 1_545
F11 Fe1 2.167514 1_455
F12 Fe9 2.025629 1_555
F12 Fe4 2.080076 1_445
F12 Fe0 2.219833 1_545
F13 Fe3 2.054691 1_455
F13 Fe8 2.190968 1_555
F13 Fe4 2.199695 1_445
