# generated using pymatgen
data_ZrO2
_symmetry_space_group_name_H-M   'P 1'
_cell_length_a   9.98216084
_cell_length_b   5.78364155
_cell_length_c   5.55401636
_cell_angle_alpha   90.00000000
_cell_angle_beta   90.00000000
_cell_angle_gamma   90.00000000
_symmetry_Int_Tables_number   1
_chemical_formula_structural   ZrO2
_chemical_formula_sum   'Zr8 O16'
_cell_volume   320.65136055
_cell_formula_units_Z   8
loop_
 _symmetry_equiv_pos_site_id
 _symmetry_equiv_pos_as_xyz
  1  'x, y, z'
loop_
 _atom_site_type_symbol
 _atom_site_label
 _atom_site_symmetry_multiplicity
 _atom_site_fract_x
 _atom_site_fract_y
 _atom_site_fract_z
 _atom_site_occupancy
  Zr  Zr0  1  0.12977585  0.09335512  0.85147336  1
  Zr  Zr1  1  0.12977585  0.40664488  0.35147336  1
  Zr  Zr2  1  0.37022415  0.59335512  0.85147336  1
  Zr  Zr3  1  0.37022415  0.90664488  0.35147336  1
  Zr  Zr4  1  0.62977585  0.09335512  0.64852664  1
  Zr  Zr5  1  0.62977585  0.40664488  0.14852664  1
  Zr  Zr6  1  0.87022415  0.59335512  0.64852664  1
  Zr  Zr7  1  0.87022415  0.90664488  0.14852664  1
  O  O0  1  0.01519937  0.15401810  0.17106532  1
  O  O1  1  0.01519937  0.34598190  0.67106532  1
  O  O2  1  0.23182205  0.12351408  0.52352833  1
  O  O3  1  0.23182205  0.37648592  0.02352833  1
  O  O4  1  0.26817795  0.62351408  0.52352833  1
  O  O5  1  0.26817795  0.87648592  0.02352833  1
  O  O6  1  0.48480063  0.84598190  0.67106532  1
  O  O7  1  0.48480063  0.65401810  0.17106532  1
  O  O8  1  0.51519937  0.15401810  0.32893468  1
  O  O9  1  0.51519937  0.34598190  0.82893468  1
  O  O10  1  0.73182205  0.12351408  0.97647167  1
  O  O11  1  0.73182205  0.37648592  0.47647167  1
  O  O12  1  0.76817795  0.62351408  0.97647167  1
  O  O13  1  0.76817795  0.87648592  0.47647167  1
  O  O14  1  0.98480063  0.65401810  0.32893468  1
  O  O15  1  0.98480063  0.84598190  0.82893468  1
loop_
_geom_bond_atom_site_label_1
_geom_bond_atom_site_label_2
_geom_bond_distance
_geom_bond_site_symmetry_2
O0 Zr7 2.038851 1_445
O0 Zr1 2.108768 1_555
O0 Zr0 2.140534 1_554
O1 Zr6 2.038851 1_455
O1 Zr0 2.108768 1_555
O1 Zr1 2.140534 1_555
O2 Zr0 2.094182 1_555
O2 Zr3 2.096450 1_545
O2 Zr1 2.152275 1_555
O3 Zr1 2.094182 1_555
O3 Zr2 2.096450 1_554
O3 Zr0 2.152275 1_554
O4 Zr2 2.094182 1_555
O4 Zr1 2.096450 1_555
O4 Zr3 2.152275 1_555
O5 Zr3 2.094182 1_555
O5 Zr0 2.096450 1_564
O5 Zr2 2.152275 1_554
O6 Zr4 2.038851 1_565
O6 Zr2 2.108768 1_555
O6 Zr3 2.140534 1_555
O7 Zr5 2.038851 1_555
O7 Zr3 2.108768 1_555
O7 Zr2 2.140534 1_554
O8 Zr3 2.038851 1_545
O8 Zr5 2.108768 1_555
O8 Zr4 2.140534 1_555
O9 Zr2 2.038851 1_555
O9 Zr4 2.108768 1_555
O9 Zr5 2.140534 1_556
O10 Zr4 2.094182 1_555
O10 Zr7 2.096450 1_546
O10 Zr5 2.152275 1_556
O11 Zr5 2.094182 1_555
O11 Zr6 2.096450 1_555
O11 Zr4 2.152275 1_555
O12 Zr6 2.094182 1_555
O12 Zr5 2.096450 1_556
O12 Zr7 2.152275 1_556
O13 Zr7 2.094182 1_555
O13 Zr4 2.096450 1_565
O13 Zr6 2.152275 1_555
O14 Zr1 2.038851 1_655
O14 Zr7 2.108768 1_555
O14 Zr6 2.140534 1_555
O15 Zr0 2.038851 1_665
O15 Zr6 2.108768 1_555
O15 Zr7 2.140534 1_556
