# generated using pymatgen
data_LiMn(PO4)2
_symmetry_space_group_name_H-M   'P 1'
_cell_length_a   6.20689061
_cell_length_b   6.20689042
_cell_length_c   8.96646975
_cell_angle_alpha   70.23888064
_cell_angle_beta   75.21989657
_cell_angle_gamma   98.22437971
_symmetry_Int_Tables_number   1
_chemical_formula_structural   LiMn(PO4)2
_chemical_formula_sum   'Li2 Mn2 P4 O16'
_cell_volume   304.19457429
_cell_formula_units_Z   2
loop_
 _symmetry_equiv_pos_site_id
 _symmetry_equiv_pos_as_xyz
  1  'x, y, z'
loop_
 _atom_site_type_symbol
 _atom_site_label
 _atom_site_symmetry_multiplicity
 _atom_site_fract_x
 _atom_site_fract_y
 _atom_site_fract_z
 _atom_site_occupancy
  Li  Li0  1  0.16207100  0.39297900  0.49166700  1
  Li  Li1  1  0.61535400  0.34626200  0.99166700  1
  Mn  Mn0  1  0.14730100  0.89879300  0.75254400  1
  Mn  Mn1  1  0.84866300  0.10015500  0.25254400  1
  P  P0  1  0.28709000  0.98093300  0.35464400  1
  P  P1  1  0.16442300  0.35826600  0.85464400  1
  P  P2  1  0.84125500  0.64161100  0.15004800  1
  P  P3  1  0.70834000  0.00869700  0.65004800  1
  O  O0  1  0.05428300  0.78502100  0.99227600  1
  O  O1  1  0.15600900  0.11790600  0.24344500  1
  O  O2  1  0.24144300  0.72251600  0.39077100  1
  O  O3  1  0.13864800  0.60054600  0.74344500  1
  O  O4  1  0.24833700  0.05650900  0.50736500  1
  O  O5  1  0.15868300  0.22439500  0.73376500  1
  O  O6  1  0.62698100  0.56624800  0.10481200  1
  O  O7  1  0.54184000  0.10755200  0.23376500  1
  O  O8  1  0.45575400  0.93657500  0.76176900  1
  O  O9  1  0.38671400  0.36778600  0.89077100  1
  O  O10  1  0.80165600  0.78247700  0.26176900  1
  O  O11  1  0.72270300  0.95344000  0.49227600  1
  O  O12  1  0.88806200  0.40988300  0.26120100  1
  O  O13  1  0.82894100  0.26820700  0.60481200  1
  O  O14  1  0.82891500  0.85073700  0.76120100  1
  O  O15  1  0.93612600  0.24429800  0.00736500  1
loop_
_geom_bond_atom_site_label_1
_geom_bond_atom_site_label_2
_geom_bond_distance
_geom_bond_site_symmetry_2
Li0 O2 1.864901 1_555
Li0 O13 1.960786 1_455
Li0 O5 2.059621 1_555
Li0 O4 2.197196 1_555
Li1 O9 1.864896 1_555
Li1 O6 1.960791 1_556
Li1 O7 2.059621 1_556
Li1 O15 2.197196 1_556
Mn0 O3 1.874126 1_555
Mn0 O0 1.917365 1_555
Mn0 O8 1.921651 1_555
Mn0 O14 1.933325 1_455
Mn0 O5 1.959761 1_565
Mn0 O4 1.962197 1_565
Mn1 O1 1.874127 1_655
Mn1 O11 1.917365 1_545
Mn1 O10 1.921651 1_545
Mn1 O12 1.933319 1_555
Mn1 O7 1.959761 1_555
Mn1 O15 1.962197 1_555
O0 P2 1.548972 1_456
O1 P0 1.554826 1_545
O2 P0 1.493229 1_555
O3 P1 1.554829 1_555
O4 P0 1.565778 1_545
O5 P1 1.576917 1_555
O6 P2 1.541980 1_555
O7 P0 1.576917 1_545
O8 P3 1.535081 1_565
O9 P1 1.493235 1_555
O10 P2 1.535086 1_555
O11 P3 1.548975 1_565
O12 P2 1.563462 1_555
O13 P3 1.541984 1_555
O14 P3 1.563462 1_565
O15 P1 1.565778 1_654
