# generated using pymatgen
data_V6O5F19
_symmetry_space_group_name_H-M   'P 1'
_cell_length_a   5.39728300
_cell_length_b   5.58785352
_cell_length_c   14.81960235
_cell_angle_alpha   100.51945481
_cell_angle_beta   89.85346253
_cell_angle_gamma   91.47778362
_symmetry_Int_Tables_number   1
_chemical_formula_structural   V6O5F19
_chemical_formula_sum   'V6 O5 F19'
_cell_volume   439.28867726
_cell_formula_units_Z   1
loop_
 _symmetry_equiv_pos_site_id
 _symmetry_equiv_pos_as_xyz
  1  'x, y, z'
loop_
 _atom_site_type_symbol
 _atom_site_label
 _atom_site_symmetry_multiplicity
 _atom_site_fract_x
 _atom_site_fract_y
 _atom_site_fract_z
 _atom_site_occupancy
  V  V0  1  0.05075700  0.03387200  0.00581400  1
  V  V1  1  0.43967700  0.14854100  0.33918000  1
  V  V2  1  0.00844800  0.31528800  0.66740400  1
  V  V3  1  0.55303100  0.46015900  0.99433300  1
  V  V4  1  0.93464500  0.69224200  0.32709300  1
  V  V5  1  0.53434800  0.77905400  0.66349100  1
  O  O0  1  0.72946700  0.21941200  0.97796200  1
  O  O1  1  0.71163600  0.54048500  0.64462300  1
  O  O2  1  0.23143800  0.28175200  0.02273200  1
  O  O3  1  0.70706000  0.86912500  0.30923300  1
  O  O4  1  0.20739500  0.96321100  0.35596100  1
  F  F0  1  0.79566200  0.01925900  0.64353100  1
  F  F1  1  0.28068000  0.14726900  0.69047400  1
  F  F2  1  0.89969700  0.04443900  0.11258800  1
  F  F3  1  0.60334500  0.20224200  0.44475000  1
  F  F4  1  0.90597000  0.38949900  0.78244800  1
  F  F5  1  0.44234500  0.11939700  0.21856100  1
  F  F6  1  0.06482200  0.30250500  0.54894200  1
  F  F7  1  0.39996800  0.45606800  0.88838400  1
  F  F8  1  0.79060900  0.39031700  0.30854200  1
  F  F9  1  0.77560500  0.69440400  0.97597500  1
  F  F10  1  0.29715600  0.44036500  0.35967700  1
  F  F11  1  0.23061000  0.62409100  0.68933300  1
  F  F12  1  0.55480700  0.55730500  0.11473900  1
  F  F13  1  0.94189500  0.71664600  0.44763200  1
  F  F14  1  0.56966700  0.90028300  0.78106200  1
  F  F15  1  0.09797300  0.62824800  0.22190800  1
  F  F16  1  0.42149300  0.80470300  0.55425000  1
  F  F17  1  0.04837900  0.94712300  0.88502100  1
  F  F18  1  0.27142000  0.81269900  0.02435600  1
loop_
_geom_bond_atom_site_label_1
_geom_bond_atom_site_label_2
_geom_bond_distance
_geom_bond_site_symmetry_2
O0 V3 1.649585 1_555
O0 V0 2.122495 1_656
O1 V5 1.642935 1_555
O1 V2 2.127362 1_655
O2 V0 1.654441 1_555
O2 V3 2.060079 1_554
O3 V4 1.647911 1_555
O3 V1 2.139466 1_565
O4 V1 1.652733 1_565
O4 V4 2.072309 1_455
F0 V2 1.967438 1_655
F0 V5 1.980773 1_545
F1 V2 1.829799 1_555
F2 V0 1.770259 1_655
F3 V1 1.772012 1_555
F4 V2 1.770154 1_655
F5 V1 1.765127 1_555
F6 V2 1.769822 1_555
F7 V3 1.772242 1_555
F8 V4 1.813938 1_555
F8 V1 2.388831 1_555
F9 V3 1.810433 1_555
F9 V0 2.356052 1_666
F10 V1 1.796024 1_555
F10 V4 2.537185 1_455
F11 V5 1.904895 1_555
F11 V2 2.052172 1_555
F12 V3 1.767732 1_554
F13 V4 1.766996 1_555
F14 V5 1.759288 1_555
F15 V4 1.772150 1_455
F16 V5 1.762580 1_555
F17 V0 1.767078 1_566
F18 V0 1.795255 1_565
F18 V3 2.493947 1_554
