# generated using pymatgen
data_Li3MnB6O13
_symmetry_space_group_name_H-M   'P 1'
_cell_length_a   7.51783300
_cell_length_b   10.29388500
_cell_length_c   11.81842300
_cell_angle_alpha   90.00000000
_cell_angle_beta   90.00000000
_cell_angle_gamma   90.00000000
_symmetry_Int_Tables_number   1
_chemical_formula_structural   Li3MnB6O13
_chemical_formula_sum   'Li12 Mn4 B24 O52'
_cell_volume   914.60067230
_cell_formula_units_Z   4
loop_
 _symmetry_equiv_pos_site_id
 _symmetry_equiv_pos_as_xyz
  1  'x, y, z'
loop_
 _atom_site_type_symbol
 _atom_site_label
 _atom_site_symmetry_multiplicity
 _atom_site_fract_x
 _atom_site_fract_y
 _atom_site_fract_z
 _atom_site_occupancy
  Li  Li0  1  0.20223100  0.49534300  0.51314700  1
  Li  Li1  1  0.23245000  0.23025000  0.75904800  1
  Li  Li2  1  0.21460300  0.75940600  0.76044000  1
  Li  Li3  1  0.28539700  0.24059400  0.26044000  1
  Li  Li4  1  0.26755000  0.76975000  0.25904800  1
  Li  Li5  1  0.29776900  0.50465700  0.01314700  1
  Li  Li6  1  0.70223100  0.00465700  0.48685300  1
  Li  Li7  1  0.73245000  0.26975000  0.24095200  1
  Li  Li8  1  0.71460300  0.74059400  0.23956000  1
  Li  Li9  1  0.78539700  0.25940600  0.73956000  1
  Li  Li10  1  0.76755000  0.73025000  0.74095200  1
  Li  Li11  1  0.79776900  0.99534300  0.98685300  1
  Mn  Mn0  1  0.04725400  0.51614000  0.24925900  1
  Mn  Mn1  1  0.45274600  0.48386000  0.74925900  1
  Mn  Mn2  1  0.54725400  0.98386000  0.75074100  1
  Mn  Mn3  1  0.95274600  0.01614000  0.25074100  1
  B  B0  1  0.03873400  0.12802400  0.58521000  1
  B  B1  1  0.03311700  0.87172900  0.58483100  1
  B  B2  1  0.10254800  0.50164200  0.75926900  1
  B  B3  1  0.19621700  0.77652100  0.00347400  1
  B  B4  1  0.18642900  0.21953800  0.01277700  1
  B  B5  1  0.22906600  0.99657600  0.43722000  1
  B  B6  1  0.27093400  0.00342400  0.93722000  1
  B  B7  1  0.31357100  0.78046200  0.51277700  1
  B  B8  1  0.30378300  0.22347900  0.50347400  1
  B  B9  1  0.39745200  0.49835800  0.25926900  1
  B  B10  1  0.46688300  0.12827100  0.08483100  1
  B  B11  1  0.46126600  0.87197600  0.08521000  1
  B  B12  1  0.53873400  0.37197600  0.41479000  1
  B  B13  1  0.53311700  0.62827100  0.41516900  1
  B  B14  1  0.60254800  0.99835800  0.24073100  1
  B  B15  1  0.69621700  0.72347900  0.99652600  1
  B  B16  1  0.68642900  0.28046200  0.98722300  1
  B  B17  1  0.72906600  0.50342400  0.56278000  1
  B  B18  1  0.77093400  0.49657600  0.06278000  1
  B  B19  1  0.81357100  0.71953800  0.48722300  1
  B  B20  1  0.80378300  0.27652100  0.49652600  1
  B  B21  1  0.89745200  0.00164200  0.74073100  1
  B  B22  1  0.96688300  0.37172900  0.91516900  1
  B  B23  1  0.96126600  0.62802400  0.91479000  1
  O  O0  1  0.03207500  0.67234000  0.28195400  1
  O  O1  1  0.04580100  0.38446700  0.80122100  1
  O  O2  1  0.03568900  0.61664900  0.79969400  1
  O  O3  1  0.08347800  0.42486500  0.36381100  1
  O  O4  1  0.10010100  0.66424100  0.99488300  1
  O  O5  1  0.10975200  0.99957900  0.54386100  1
  O  O6  1  0.10986700  0.33788600  0.99314900  1
  O  O7  1  0.13317400  0.95873000  0.33303900  1
  O  O8  1  0.14174000  0.10878400  0.95295600  1
  O  O9  1  0.17744300  0.77966900  0.59171100  1
  O  O10  1  0.18577200  0.21844000  0.59244800  1
  O  O11  1  0.18963200  0.87447200  0.92315800  1
  O  O12  1  0.23609400  0.50438800  0.67782800  1
  O  O13  1  0.26390600  0.49561200  0.17782800  1
  O  O14  1  0.31036800  0.12552800  0.42315800  1
  O  O15  1  0.31422800  0.78156000  0.09244800  1
  O  O16  1  0.32255700  0.22033100  0.09171100  1
  O  O17  1  0.35826000  0.89121600  0.45295600  1
  O  O18  1  0.36682600  0.04127000  0.83303900  1
  O  O19  1  0.39013300  0.66211400  0.49314900  1
  O  O20  1  0.39024800  0.00042100  0.04386100  1
  O  O21  1  0.39989900  0.33575900  0.49488300  1
  O  O22  1  0.41652200  0.57513500  0.86381100  1
  O  O23  1  0.46431100  0.38335100  0.29969400  1
  O  O24  1  0.45419900  0.61553300  0.30122100  1
  O  O25  1  0.46792500  0.32766000  0.78195400  1
  O  O26  1  0.53207500  0.82766000  0.71804600  1
  O  O27  1  0.54580100  0.11553300  0.19877900  1
  O  O28  1  0.53568900  0.88335100  0.20030600  1
  O  O29  1  0.58347800  0.07513500  0.63618900  1
  O  O30  1  0.60010100  0.83575900  0.00511700  1
  O  O31  1  0.60975200  0.50042100  0.45613900  1
  O  O32  1  0.60986700  0.16211400  0.00685100  1
  O  O33  1  0.63317400  0.54127000  0.66696100  1
  O  O34  1  0.64174000  0.39121600  0.04704400  1
  O  O35  1  0.67744300  0.72033100  0.40828900  1
  O  O36  1  0.68577200  0.28156000  0.40755200  1
  O  O37  1  0.68963200  0.62552800  0.07684200  1
  O  O38  1  0.73609400  0.99561200  0.32217200  1
  O  O39  1  0.76390600  0.00438800  0.82217200  1
  O  O40  1  0.81036800  0.37447200  0.57684200  1
  O  O41  1  0.81422800  0.71844000  0.90755200  1
  O  O42  1  0.82255700  0.27966900  0.90828900  1
  O  O43  1  0.85826000  0.60878400  0.54704400  1
  O  O44  1  0.86682600  0.45873000  0.16696100  1
  O  O45  1  0.89013300  0.83788600  0.50685100  1
  O  O46  1  0.89024800  0.49957900  0.95613900  1
  O  O47  1  0.89989900  0.16424100  0.50511700  1
  O  O48  1  0.91652200  0.92486500  0.13618900  1
  O  O49  1  0.96431100  0.11664900  0.70030600  1
  O  O50  1  0.95419900  0.88446700  0.69877900  1
  O  O51  1  0.96792500  0.17234000  0.21804600  1
loop_
_geom_bond_atom_site_label_1
_geom_bond_atom_site_label_2
_geom_bond_distance
_geom_bond_site_symmetry_2
Li0 O12 1.965056 1_555
Li0 O3 2.106727 1_555
Li0 O21 2.225643 1_555
Li0 O19 2.235727 1_555
Li1 O10 2.003668 1_555
Li1 O25 2.052456 1_555
Li1 O1 2.176582 1_555
Li1 O18 2.359990 1_555
Li1 O49 2.431666 1_455
Li2 O9 2.024359 1_555
Li2 O2 2.045451 1_555
Li2 O11 2.266368 1_555
Li2 O50 2.453742 1_455
Li2 O26 2.537917 1_555
Li3 O16 2.024359 1_555
Li3 O23 2.045451 1_555
Li3 O14 2.266368 1_555
Li3 O27 2.453742 1_555
Li3 O51 2.537917 1_455
Li4 O15 2.003668 1_555
Li4 O0 2.052456 1_555
Li4 O24 2.176582 1_555
Li4 O7 2.359990 1_555
Li4 O28 2.431666 1_555
Li5 O13 1.965056 1_555
Li5 O22 2.106727 1_554
Li5 O4 2.225643 1_554
Li5 O6 2.235727 1_554
Li6 O38 1.965056 1_545
Li6 O29 2.106727 1_555
Li6 O47 2.225643 1_555
Li6 O45 2.235727 1_545
Li7 O36 2.003668 1_555
Li7 O51 2.052456 1_555
Li7 O27 2.176582 1_555
Li7 O44 2.359990 1_555
Li7 O23 2.431666 1_555
Li8 O35 2.024359 1_555
Li8 O28 2.045451 1_555
Li8 O37 2.266368 1_555
Li8 O24 2.453742 1_555
Li8 O0 2.537917 1_655
Li9 O42 2.024359 1_555
Li9 O49 2.045451 1_555
Li9 O40 2.266368 1_555
Li9 O1 2.453742 1_655
Li9 O25 2.537917 1_555
Li10 O41 2.003668 1_555
Li10 O26 2.052456 1_555
Li10 O50 2.176582 1_555
Li10 O33 2.359990 1_555
Li10 O2 2.431666 1_655
Li11 O39 1.965056 1_565
Li11 O48 2.106727 1_556
Li11 O30 2.225643 1_556
Li11 O32 2.235727 1_566
Mn0 O0 1.657615 1_555
Mn0 O3 1.670270 1_555
Mn0 O44 1.770638 1_455
Mn0 O13 1.846664 1_555
Mn1 O25 1.657615 1_555
Mn1 O22 1.670270 1_555
Mn1 O33 1.770638 1_555
Mn1 O12 1.846664 1_555
Mn2 O26 1.657615 1_555
Mn2 O29 1.670270 1_565
Mn2 O18 1.770638 1_565
Mn2 O39 1.846664 1_565
Mn3 O51 1.657615 1_555
Mn3 O48 1.670270 1_545
Mn3 O7 1.770638 1_645
Mn3 O38 1.846664 1_545
B0 O10 1.447586 1_555
B0 O47 1.457525 1_455
B0 O49 1.475479 1_455
B0 O5 1.507338 1_545
B1 O9 1.442889 1_555
B1 O45 1.458145 1_455
B1 O50 1.477414 1_455
B1 O5 1.516055 1_555
B2 O2 1.372021 1_555
B2 O1 1.372118 1_555
B2 O12 1.391108 1_555
B3 O4 1.366859 1_554
B3 O15 1.376776 1_555
B3 O11 1.385680 1_554
B4 O6 1.367210 1_554
B4 O8 1.382935 1_554
B4 O16 1.384791 1_555
B5 O17 1.467722 1_555
B5 O14 1.470795 1_565
B5 O7 1.479007 1_555
B5 O5 1.547243 1_555
B6 O8 1.467722 1_555
B6 O11 1.470795 1_545
B6 O18 1.479007 1_555
B6 O20 1.547243 1_556
B7 O19 1.367210 1_555
B7 O17 1.382935 1_555
B7 O9 1.384791 1_555
B8 O21 1.366859 1_555
B8 O10 1.376776 1_555
B8 O14 1.385680 1_555
B9 O23 1.372021 1_555
B9 O24 1.372118 1_555
B9 O13 1.391108 1_555
B10 O16 1.442889 1_555
B10 O32 1.458145 1_555
B10 O27 1.477414 1_555
B10 O20 1.516055 1_555
B11 O15 1.447586 1_555
B11 O30 1.457525 1_555
B11 O28 1.475479 1_555
B11 O20 1.507338 1_565
B12 O36 1.447586 1_555
B12 O21 1.457525 1_555
B12 O23 1.475479 1_555
B12 O31 1.507338 1_555
B13 O35 1.442889 1_555
B13 O19 1.458145 1_555
B13 O24 1.477414 1_555
B13 O31 1.516055 1_555
B14 O28 1.372021 1_555
B14 O27 1.372118 1_565
B14 O38 1.391108 1_555
B15 O30 1.366859 1_556
B15 O41 1.376776 1_555
B15 O37 1.385680 1_556
B16 O32 1.367210 1_556
B16 O34 1.382935 1_556
B16 O42 1.384791 1_555
B17 O43 1.467722 1_555
B17 O40 1.470795 1_555
B17 O33 1.479007 1_555
B17 O31 1.547243 1_555
B18 O34 1.467722 1_555
B18 O37 1.470795 1_555
B18 O44 1.479007 1_555
B18 O46 1.547243 1_554
B19 O45 1.367210 1_555
B19 O43 1.382935 1_555
B19 O35 1.384791 1_555
B20 O47 1.366859 1_555
B20 O36 1.376776 1_555
B20 O40 1.385680 1_555
B21 O49 1.372021 1_555
B21 O50 1.372118 1_545
B21 O39 1.391108 1_555
B22 O42 1.442889 1_555
B22 O6 1.458145 1_655
B22 O1 1.477414 1_655
B22 O46 1.516055 1_555
B23 O41 1.447586 1_555
B23 O4 1.457525 1_655
B23 O2 1.475479 1_655
B23 O46 1.507338 1_555
