# generated using pymatgen
data_Na2TbPCO7
_symmetry_space_group_name_H-M   'P 1'
_cell_length_a   7.01594000
_cell_length_b   5.22828600
_cell_length_c   9.24778472
_cell_angle_alpha   88.95989618
_cell_angle_beta   90.00000000
_cell_angle_gamma   90.00000000
_symmetry_Int_Tables_number   1
_chemical_formula_structural   Na2TbPCO7
_chemical_formula_sum   'Na4 Tb2 P2 C2 O14'
_cell_volume   339.16525160
_cell_formula_units_Z   2
loop_
 _symmetry_equiv_pos_site_id
 _symmetry_equiv_pos_as_xyz
  1  'x, y, z'
loop_
 _atom_site_type_symbol
 _atom_site_label
 _atom_site_symmetry_multiplicity
 _atom_site_fract_x
 _atom_site_fract_y
 _atom_site_fract_z
 _atom_site_occupancy
  Na  Na0  1  0.49846700  0.23014500  0.79060900  1
  Na  Na1  1  0.00153300  0.23014500  0.79060900  1
  Na  Na2  1  0.50153300  0.76985500  0.20939100  1
  Na  Na3  1  0.99846700  0.76985500  0.20939100  1
  Tb  Tb0  1  0.75000000  0.77432100  0.63018900  1
  Tb  Tb1  1  0.25000000  0.22567900  0.36981100  1
  P  P0  1  0.25000000  0.70625900  0.58316600  1
  P  P1  1  0.75000000  0.29374100  0.41683400  1
  C  C0  1  0.75000000  0.73178300  0.92899400  1
  C  C1  1  0.25000000  0.26821700  0.07100600  1
  O  O0  1  0.25000000  0.29934200  0.93505000  1
  O  O1  1  0.75000000  0.95758300  0.86469500  1
  O  O2  1  0.75000000  0.53583000  0.83972400  1
  O  O3  1  0.06929800  0.81729300  0.65394100  1
  O  O4  1  0.43070200  0.81729300  0.65394100  1
  O  O5  1  0.75000000  0.22192200  0.58371900  1
  O  O6  1  0.25000000  0.40808200  0.59400300  1
  O  O7  1  0.75000000  0.59191800  0.40599700  1
  O  O8  1  0.25000000  0.77807800  0.41628100  1
  O  O9  1  0.56929800  0.18270700  0.34605900  1
  O  O10  1  0.93070200  0.18270700  0.34605900  1
  O  O11  1  0.25000000  0.46417000  0.16027600  1
  O  O12  1  0.25000000  0.04241700  0.13530500  1
  O  O13  1  0.75000000  0.70065800  0.06495000  1
loop_
_geom_bond_atom_site_label_1
_geom_bond_atom_site_label_2
_geom_bond_distance
_geom_bond_site_symmetry_2
Na0 O0 2.229693 1_555
Na0 O1 2.361988 1_545
Na0 O2 2.429246 1_555
Na0 O4 2.565467 1_545
Na0 O5 2.603798 1_555
Na0 O6 2.673696 1_555
Na1 O0 2.229693 1_555
Na1 O1 2.361988 1_445
Na1 O2 2.429246 1_455
Na1 O3 2.565467 1_545
Na1 O5 2.603798 1_455
Na1 O6 2.673696 1_555
Na2 O13 2.229693 1_555
Na2 O12 2.361988 1_565
Na2 O11 2.429246 1_555
Na2 O9 2.565467 1_565
Na2 O8 2.603798 1_555
Na2 O7 2.673696 1_555
Na3 O13 2.229693 1_555
Na3 O12 2.361988 1_665
Na3 O11 2.429246 1_655
Na3 O10 2.565467 1_565
Na3 O8 2.603798 1_655
Na3 O7 2.673696 1_555
C0 O13 1.264846 1_556
C0 O1 1.312167 1_555
C0 O2 1.327341 1_555
C1 O0 1.264846 1_554
C1 O12 1.312167 1_555
C1 O11 1.327341 1_555
O1 Tb0 2.386749 1_555
O2 Tb0 2.285138 1_555
O3 P0 1.544825 1_555
O3 Tb0 2.262499 1_455
O4 P0 1.544825 1_555
O4 Tb0 2.262499 1_555
O5 P1 1.581702 1_555
O5 Tb0 2.371632 1_545
O6 P0 1.560356 1_555
O6 Tb1 2.297765 1_555
O7 P1 1.560356 1_555
O7 Tb0 2.297765 1_555
O8 P0 1.581702 1_555
O8 Tb1 2.371632 1_565
O9 P1 1.544825 1_555
O9 Tb1 2.262499 1_555
O10 P1 1.544825 1_555
O10 Tb1 2.262499 1_655
O11 Tb1 2.285138 1_555
O12 Tb1 2.386749 1_555
