# generated using pymatgen
data_Ca(SiAu)2
_symmetry_space_group_name_H-M   'P 1'
_cell_length_a   4.33330108
_cell_length_b   4.33330125
_cell_length_c   5.88561533
_cell_angle_alpha   111.60011597
_cell_angle_beta   111.60011108
_cell_angle_gamma   89.99999206
_symmetry_Int_Tables_number   1
_chemical_formula_structural   Ca(SiAu)2
_chemical_formula_sum   'Ca1 Si2 Au2'
_cell_volume   94.35898130
_cell_formula_units_Z   1
loop_
 _symmetry_equiv_pos_site_id
 _symmetry_equiv_pos_as_xyz
  1  'x, y, z'
loop_
 _atom_site_type_symbol
 _atom_site_label
 _atom_site_symmetry_multiplicity
 _atom_site_fract_x
 _atom_site_fract_y
 _atom_site_fract_z
 _atom_site_occupancy
  Ca  Ca0  1  0.00000000  0.00000000  0.00000000  1
  Si  Si0  1  0.61500182  0.61500182  0.23000465  1
  Si  Si1  1  0.38499818  0.38499818  0.76999535  1
  Au  Au0  1  0.25000000  0.75000000  0.50000000  1
  Au  Au1  1  0.75000000  0.25000000  0.50000000  1
loop_
_geom_bond_atom_site_label_1
_geom_bond_atom_site_label_2
_geom_bond_distance
_geom_bond_site_symmetry_2
Ca0 Si1 3.274844 1_444
Ca0 Si0 3.274844 1_555
Ca0 Si0 3.274846 1_455
Ca0 Si1 3.274846 1_544
Ca0 Si1 3.274846 1_454
Ca0 Si0 3.274846 1_545
Ca0 Si0 3.274849 1_445
Ca0 Si1 3.274849 1_554
Si0 Si1 2.311597 1_554
Au0 Si0 2.556394 1_555
Au0 Si1 2.556394 1_555
Au0 Si1 2.556398 1_565
Au0 Si0 2.556398 1_455
Au0 Ca0 3.317726 1_566
Au0 Ca0 3.317726 1_565
Au0 Ca0 3.317726 1_555
Au0 Ca0 3.317726 1_666
Au1 Si1 2.556394 1_555
Au1 Si0 2.556394 1_555
Au1 Si0 2.556398 1_545
Au1 Si1 2.556398 1_655
Au1 Ca0 3.317726 1_655
Au1 Ca0 3.317726 1_656
Au1 Ca0 3.317726 1_666
Au1 Ca0 3.317726 1_555
