# generated using pymatgen
data_Li2MnFe2(PO4)3
_symmetry_space_group_name_H-M   'P 1'
_cell_length_a   8.57165570
_cell_length_b   8.57165570
_cell_length_c   8.47469740
_cell_angle_alpha   63.43224657
_cell_angle_beta   63.43224657
_cell_angle_gamma   62.97596859
_symmetry_Int_Tables_number   1
_chemical_formula_structural   Li2MnFe2(PO4)3
_chemical_formula_sum   'Li4 Mn2 Fe4 P6 O24'
_cell_volume   472.26401346
_cell_formula_units_Z   2
loop_
 _symmetry_equiv_pos_site_id
 _symmetry_equiv_pos_as_xyz
  1  'x, y, z'
loop_
 _atom_site_type_symbol
 _atom_site_label
 _atom_site_symmetry_multiplicity
 _atom_site_fract_x
 _atom_site_fract_y
 _atom_site_fract_z
 _atom_site_occupancy
  Li  Li0  1  0.85655500  0.14344600  0.00000000  1
  Li  Li1  1  0.15818200  0.84181800  0.50000000  1
  Li  Li2  1  0.75316900  0.65680700  0.09364900  1
  Li  Li3  1  0.34319300  0.24683100  0.90635100  1
  Mn  Mn0  1  0.00313500  0.50759200  0.74077000  1
  Mn  Mn1  1  0.49240800  0.99686500  0.25923000  1
  Fe  Fe0  1  0.85245200  0.35584800  0.60348400  1
  Fe  Fe1  1  0.64415200  0.14754800  0.39651600  1
  Fe  Fe2  1  0.34561100  0.84263400  0.09761400  1
  Fe  Fe3  1  0.15736600  0.65438900  0.90238600  1
  P  P0  1  0.25204700  0.05935200  0.68939300  1
  P  P1  1  0.94064800  0.74795300  0.31060700  1
  P  P2  1  0.55844800  0.44155200  0.00000000  1
  P  P3  1  0.45869600  0.54130400  0.50000000  1
  P  P4  1  0.03921500  0.24752500  0.19986100  1
  P  P5  1  0.75247500  0.96078500  0.80013900  1
  O  O0  1  0.68925400  0.02030600  0.63393000  1
  O  O1  1  0.50315000  0.39059400  0.42354800  1
  O  O2  1  0.08740900  0.24448300  0.68352900  1
  O  O3  1  0.89191000  0.18071200  0.21640900  1
  O  O4  1  0.19506100  0.90289400  0.71304700  1
  O  O5  1  0.40811300  0.08119800  0.50019800  1
  O  O6  1  0.91880200  0.59188700  0.49980200  1
  O  O7  1  0.75551700  0.91259100  0.31647100  1
  O  O8  1  0.60940600  0.49685000  0.57645200  1
  O  O9  1  0.58307600  0.24659700  0.15127200  1
  O  O10  1  0.26346700  0.56128500  0.64970000  1
  O  O11  1  0.97969400  0.31074600  0.36607000  1
  O  O12  1  0.96978300  0.68737200  0.15068000  1
  O  O13  1  0.75340300  0.41692400  0.84872800  1
  O  O14  1  0.43871500  0.73653300  0.35030000  1
  O  O15  1  0.40243700  0.46746700  0.93968600  1
  O  O16  1  0.23294200  0.09501500  0.19091600  1
  O  O17  1  0.06725600  0.40068600  0.00812500  1
  O  O18  1  0.59931400  0.93274400  0.99187500  1
  O  O19  1  0.81928800  0.10809000  0.78359100  1
  O  O20  1  0.09710600  0.80493900  0.28695300  1
  O  O21  1  0.90498500  0.76705800  0.80908400  1
  O  O22  1  0.53253300  0.59756300  0.06031400  1
  O  O23  1  0.31262800  0.03021700  0.84932000  1
loop_
_geom_bond_atom_site_label_1
_geom_bond_atom_site_label_2
_geom_bond_distance
_geom_bond_site_symmetry_2
Li0 O13 2.088691 1_554
Li0 O9 2.088695 1_555
Li0 O3 2.160233 1_555
Li0 O19 2.160243 1_554
Li0 O2 2.567316 1_654
Li0 O7 2.567322 1_545
Li1 O14 2.128255 1_555
Li1 O10 2.128255 1_555
Li1 O4 2.267225 1_555
Li1 O20 2.267225 1_555
Li1 O16 2.580558 1_565
Li1 O21 2.580558 1_455
Li2 O18 2.106077 1_554
Li2 O21 2.161953 1_554
Li2 O12 2.260040 1_555
Li2 O22 2.322363 1_555
Li2 O14 2.621931 1_555
Li2 O17 2.626790 1_655
Li3 O17 2.106077 1_556
Li3 O16 2.161953 1_556
Li3 O23 2.260040 1_555
Li3 O15 2.322363 1_555
Li3 O10 2.621931 1_555
Li3 O18 2.626790 1_545
Mn0 O6 2.177355 1_455
Mn0 O10 2.204982 1_555
Mn0 O21 2.237215 1_455
Mn0 O2 2.242354 1_555
Mn0 O17 2.252659 1_556
Mn0 O13 2.268739 1_455
Mn1 O5 2.177355 1_565
Mn1 O14 2.204982 1_555
Mn1 O16 2.237215 1_565
Mn1 O7 2.242354 1_555
Mn1 O18 2.252659 1_554
Mn1 O9 2.268739 1_565
Fe0 O11 1.933101 1_555
Fe0 O8 1.935082 1_555
Fe0 O19 2.044886 1_555
Fe0 O6 2.048767 1_555
Fe0 O13 2.074965 1_555
Fe0 O2 2.079249 1_655
Fe1 O0 1.933101 1_555
Fe1 O1 1.935082 1_555
Fe1 O3 2.044886 1_555
Fe1 O5 2.048767 1_555
Fe1 O9 2.074965 1_555
Fe1 O7 2.079249 1_545
Fe2 O22 2.040158 1_555
Fe2 O23 2.045871 1_564
Fe2 O20 2.078634 1_555
Fe2 O14 2.275260 1_555
Fe2 O16 2.277355 1_565
Fe2 O18 2.300611 1_554
Fe3 O15 2.040158 1_555
Fe3 O12 2.045871 1_456
Fe3 O4 2.078634 1_555
Fe3 O10 2.275260 1_555
Fe3 O21 2.277355 1_455
Fe3 O17 2.300611 1_556
O0 P5 1.525369 1_545
O1 P3 1.521300 1_555
O2 P0 1.571417 1_555
O3 P4 1.539094 1_655
O4 P0 1.531197 1_565
O5 P0 1.560722 1_555
O6 P1 1.560722 1_555
O7 P1 1.571417 1_555
O8 P3 1.521300 1_555
O9 P2 1.576633 1_555
O10 P3 1.572917 1_555
O11 P4 1.525369 1_655
O12 P1 1.542039 1_555
O13 P2 1.576633 1_556
O14 P3 1.572917 1_555
O15 P2 1.529325 1_556
O16 P4 1.573382 1_555
O17 P4 1.565511 1_555
O18 P5 1.565511 1_555
O19 P5 1.539094 1_545
O20 P1 1.531197 1_455
O21 P5 1.573382 1_555
O22 P2 1.529325 1_555
O23 P0 1.542039 1_555
