# generated using pymatgen
data_LiCoSiO4
_symmetry_space_group_name_H-M   'P 1'
_cell_length_a   5.61051656
_cell_length_b   5.61051656
_cell_length_c   5.61051656
_cell_angle_alpha   120.39770840
_cell_angle_beta   117.86691447
_cell_angle_gamma   91.52317736
_symmetry_Int_Tables_number   1
_chemical_formula_structural   LiCoSiO4
_chemical_formula_sum   'Li2 Co2 Si2 O8'
_cell_volume   126.39498591
_cell_formula_units_Z   2
loop_
 _symmetry_equiv_pos_site_id
 _symmetry_equiv_pos_as_xyz
  1  'x, y, z'
loop_
 _atom_site_type_symbol
 _atom_site_label
 _atom_site_symmetry_multiplicity
 _atom_site_fract_x
 _atom_site_fract_y
 _atom_site_fract_z
 _atom_site_occupancy
  Li  Li0  1  0.00000000  0.50000000  0.00000000  1
  Li  Li1  1  0.00000000  0.00000000  0.50000000  1
  Co  Co0  1  0.00000000  0.00000000  0.00000000  1
  Co  Co1  1  0.50000000  0.00000000  0.50000000  1
  Si  Si0  1  0.39062300  0.64062300  0.75000000  1
  Si  Si1  1  0.60937700  0.35937700  0.25000000  1
  O  O0  1  0.26063700  0.26933900  0.50870200  1
  O  O1  1  0.73936300  0.24806500  0.00870200  1
  O  O2  1  0.26611100  0.75577200  0.51033900  1
  O  O3  1  0.74543200  0.75577200  0.98966100  1
  O  O4  1  0.26063700  0.75193500  0.99129800  1
  O  O5  1  0.73936300  0.73066100  0.49129800  1
  O  O6  1  0.73388900  0.24422800  0.48966100  1
  O  O7  1  0.25456800  0.24422800  0.01033900  1
loop_
_geom_bond_atom_site_label_1
_geom_bond_atom_site_label_2
_geom_bond_distance
_geom_bond_site_symmetry_2
Li0 O1 2.040923 1_455
Li0 O4 2.040923 1_554
Li0 O2 2.053846 1_555
Li0 O6 2.053846 1_454
Li0 O7 2.053850 1_555
Li0 O3 2.053850 1_454
Li1 O5 2.040923 1_445
Li1 O0 2.040923 1_555
Li1 O2 2.053846 1_545
Li1 O6 2.053846 1_455
Li1 O7 2.053846 1_556
Li1 O3 2.053846 1_444
Co0 O7 1.912832 1_555
Co0 O3 1.912832 1_444
Co0 O1 2.045467 1_455
Co0 O4 2.045467 1_544
Co0 O0 2.045467 1_555
Co0 O5 2.045467 1_444
Co1 O2 1.912828 1_545
Co1 O6 1.912828 1_555
Co1 O5 2.045467 1_545
Co1 O1 2.045467 1_556
Co1 O0 2.045467 1_555
Co1 O4 2.045467 1_544
O0 Si0 1.687083 1_555
O1 Si1 1.687083 1_555
O2 Si0 1.654805 1_555
O3 Si0 1.654801 1_555
O4 Si0 1.687083 1_555
O5 Si1 1.687083 1_555
O6 Si1 1.654805 1_555
O7 Si1 1.654801 1_555
