# generated using pymatgen
data_Li3Mn4(PO4)6
_symmetry_space_group_name_H-M   'P 1'
_cell_length_a   8.32201900
_cell_length_b   8.65005051
_cell_length_c   11.78881346
_cell_angle_alpha   89.79797823
_cell_angle_beta   89.42453991
_cell_angle_gamma   89.38301880
_symmetry_Int_Tables_number   1
_chemical_formula_structural   Li3Mn4(PO4)6
_chemical_formula_sum   'Li6 Mn8 P12 O48'
_cell_volume   848.53120793
_cell_formula_units_Z   2
loop_
 _symmetry_equiv_pos_site_id
 _symmetry_equiv_pos_as_xyz
  1  'x, y, z'
loop_
 _atom_site_type_symbol
 _atom_site_label
 _atom_site_symmetry_multiplicity
 _atom_site_fract_x
 _atom_site_fract_y
 _atom_site_fract_z
 _atom_site_occupancy
  Li  Li0  1  0.81308400  0.78747800  0.17856500  1
  Li  Li1  1  0.67789600  0.28493700  0.32222300  1
  Li  Li2  1  0.57115200  0.59870300  0.80386400  1
  Li  Li3  1  0.18096600  0.20947600  0.82343900  1
  Li  Li4  1  0.07722700  0.49930200  0.66001700  1
  Li  Li5  1  0.08073900  0.90880400  0.30792700  1
  Mn  Mn0  1  0.74652500  0.02851400  0.88685200  1
  Mn  Mn1  1  0.74663800  0.52792200  0.60545700  1
  Mn  Mn2  1  0.74346900  0.96798200  0.38841400  1
  Mn  Mn3  1  0.75027600  0.46527100  0.11322100  1
  Mn  Mn4  1  0.24773600  0.53324800  0.88811300  1
  Mn  Mn5  1  0.25169800  0.02940700  0.61425200  1
  Mn  Mn6  1  0.24724500  0.47102200  0.38759700  1
  Mn  Mn7  1  0.25555400  0.97271700  0.10692000  1
  P  P0  1  0.96725000  0.25257800  0.49259100  1
  P  P1  1  0.88126800  0.37768600  0.85104000  1
  P  P2  1  0.88735400  0.11140100  0.14039500  1
  P  P3  1  0.60765700  0.88556700  0.64915400  1
  P  P4  1  0.61067700  0.61052900  0.35254100  1
  P  P5  1  0.53942300  0.75274500  0.00950800  1
  P  P6  1  0.46527000  0.24897100  0.99322700  1
  P  P7  1  0.38811500  0.38542600  0.64272600  1
  P  P8  1  0.38613800  0.11958400  0.35302400  1
  P  P9  1  0.11238000  0.88419100  0.85524400  1
  P  P10  1  0.10963500  0.61563000  0.15001100  1
  P  P11  1  0.04077800  0.75279600  0.50879200  1
  O  O0  1  0.93593900  0.88935700  0.89489400  1
  O  O1  1  0.94539200  0.87325700  0.44060000  1
  O  O2  1  0.94218000  0.66906700  0.60342100  1
  O  O3  1  0.93037900  0.57999600  0.18114400  1
  O  O4  1  0.91140300  0.36799300  0.58735300  1
  O  O5  1  0.86077000  0.42602900  0.97587700  1
  O  O6  1  0.87657200  0.19919800  0.84048700  1
  O  O7  1  0.86976100  0.99680800  0.24342500  1
  O  O8  1  0.83005000  0.27314900  0.18277800  1
  O  O9  1  0.81936700  0.18674500  0.43592300  1
  O  O10  1  0.76154500  0.47191800  0.77639100  1
  O  O11  1  0.72552500  0.97454900  0.72465100  1
  O  O12  1  0.72967400  0.55365000  0.44705600  1
  O  O13  1  0.77169800  0.05202600  0.04934800  1
  O  O14  1  0.68656300  0.67607900  0.06995400  1
  O  O15  1  0.66516000  0.76742600  0.30981200  1
  O  O16  1  0.62055900  0.70486100  0.66450800  1
  O  O17  1  0.63813900  0.91972800  0.52393800  1
  O  O18  1  0.60599400  0.86059400  0.91618400  1
  O  O19  1  0.63406500  0.48781500  0.25637100  1
  O  O20  1  0.56290900  0.17079700  0.89613900  1
  O  O21  1  0.56258000  0.38413800  0.59882200  1
  O  O22  1  0.56254200  0.08341000  0.31917000  1
  O  O23  1  0.55827700  0.37394900  0.05737200  1
  O  O24  1  0.45441700  0.62989000  0.94196000  1
  O  O25  1  0.43332900  0.93055000  0.68258500  1
  O  O26  1  0.43570700  0.60818700  0.39442600  1
  O  O27  1  0.43702400  0.83047400  0.10417200  1
  O  O28  1  0.37267800  0.49504800  0.74577300  1
  O  O29  1  0.40367200  0.13740900  0.08641500  1
  O  O30  1  0.35922600  0.07403100  0.47754900  1
  O  O31  1  0.37971700  0.29861200  0.34109200  1
  O  O32  1  0.32975800  0.22374500  0.68345600  1
  O  O33  1  0.31555400  0.32375700  0.93645700  1
  O  O34  1  0.23010800  0.94498400  0.94754600  1
  O  O35  1  0.26469100  0.44565500  0.55359600  1
  O  O36  1  0.26890700  0.02773700  0.27730000  1
  O  O37  1  0.22532700  0.52269000  0.22602500  1
  O  O38  1  0.18700800  0.82788200  0.56535500  1
  O  O39  1  0.16122600  0.72091500  0.81720100  1
  O  O40  1  0.13481100  0.00333300  0.75660600  1
  O  O41  1  0.11865300  0.79683400  0.16592600  1
  O  O42  1  0.14110800  0.57839800  0.02647800  1
  O  O43  1  0.10587000  0.64392600  0.41508800  1
  O  O44  1  0.05499300  0.41253200  0.81134700  1
  O  O45  1  0.06604300  0.33182600  0.39623700  1
  O  O46  1  0.06008000  0.12649300  0.55791000  1
  O  O47  1  0.06477100  0.11222500  0.10340300  1
loop_
_geom_bond_atom_site_label_1
_geom_bond_atom_site_label_2
_geom_bond_distance
_geom_bond_site_symmetry_2
Li0 O14 1.932408 1_555
Li0 O15 1.975836 1_555
Li0 O7 2.030076 1_555
Li0 O3 2.034034 1_555
Li1 O19 1.948770 1_555
Li1 O9 1.976434 1_555
Li1 O22 1.999710 1_555
Li1 O8 2.067051 1_555
Li1 O31 2.490753 1_555
Li2 O24 1.905928 1_555
Li2 O16 1.922273 1_555
Li2 O10 1.942397 1_555
Li2 O28 2.014941 1_555
Li3 O40 1.994654 1_555
Li3 O33 2.017415 1_555
Li3 O44 2.041087 1_555
Li3 O32 2.057323 1_555
Li4 O44 1.940918 1_555
Li4 O2 1.958892 1_455
Li4 O4 1.998161 1_455
Li4 O35 2.042633 1_555
Li5 O36 1.913536 1_565
Li5 O1 1.943756 1_455
Li5 O41 1.958119 1_555
Li5 O7 2.057754 1_455
Mn0 O18 1.903163 1_545
Mn0 O6 1.914863 1_555
Mn0 O13 1.940782 1_556
Mn0 O20 1.954172 1_555
Mn0 O0 1.975853 1_545
Mn0 O11 1.979786 1_545
Mn1 O12 1.886314 1_555
Mn1 O4 1.948027 1_555
Mn1 O16 1.971366 1_555
Mn1 O21 1.985783 1_555
Mn1 O2 2.044778 1_555
Mn1 O10 2.075470 1_555
Mn2 O17 1.862837 1_555
Mn2 O1 1.964991 1_555
Mn2 O22 1.979117 1_565
Mn2 O7 2.013670 1_555
Mn2 O9 2.081777 1_565
Mn2 O15 2.083445 1_555
Mn3 O5 1.884030 1_554
Mn3 O23 1.913765 1_555
Mn3 O19 1.945943 1_555
Mn3 O14 1.960741 1_555
Mn3 O8 1.962776 1_555
Mn3 O3 1.983479 1_555
Mn4 O42 1.889066 1_556
Mn4 O39 1.956962 1_555
Mn4 O33 1.975910 1_555
Mn4 O28 1.991864 1_555
Mn4 O24 2.028999 1_555
Mn4 O44 2.134030 1_555
Mn5 O30 1.876428 1_555
Mn5 O25 1.912242 1_545
Mn5 O46 1.917769 1_555
Mn5 O38 1.922078 1_545
Mn5 O40 1.944904 1_555
Mn5 O32 1.989295 1_555
Mn6 O43 1.919378 1_555
Mn6 O31 1.923093 1_555
Mn6 O45 1.941451 1_555
Mn6 O37 1.964760 1_555
Mn6 O35 1.975044 1_555
Mn6 O26 1.979227 1_555
Mn7 O29 1.907016 1_565
Mn7 O34 1.909099 1_554
Mn7 O27 1.937764 1_555
Mn7 O47 1.984557 1_565
Mn7 O41 2.027426 1_555
Mn7 O36 2.070170 1_565
O0 P9 1.536708 1_655
O1 P11 1.533373 1_655
O2 P11 1.559175 1_655
O3 P10 1.566271 1_655
O4 P0 1.564647 1_555
O5 P1 1.538690 1_555
O6 P1 1.550315 1_555
O7 P2 1.571720 1_565
O8 P2 1.555763 1_555
O9 P0 1.522974 1_555
O10 P1 1.557754 1_555
O11 P3 1.544462 1_555
O12 P4 1.572274 1_555
O13 P2 1.541917 1_555
O14 P5 1.563227 1_555
O15 P4 1.518243 1_555
O16 P3 1.575565 1_555
O17 P3 1.523711 1_555
O18 P5 1.542487 1_556
O19 P4 1.565112 1_555
O20 P6 1.549982 1_555
O21 P7 1.536432 1_555
O22 P8 1.546462 1_555
O23 P6 1.541155 1_554
O24 P5 1.515706 1_556
O25 P3 1.545598 1_555
O26 P4 1.533161 1_555
O27 P5 1.548389 1_555
O28 P7 1.547179 1_555
O29 P6 1.546859 1_554
O30 P8 1.533516 1_555
O31 P8 1.554876 1_555
O32 P7 1.558061 1_555
O33 P6 1.554054 1_555
O34 P9 1.567477 1_555
O35 P7 1.561018 1_555
O36 P8 1.555342 1_555
O37 P10 1.540091 1_555
O38 P11 1.543948 1_555
O39 P9 1.532820 1_555
O40 P9 1.562192 1_545
O41 P10 1.581942 1_555
O42 P10 1.512278 1_555
O43 P11 1.544310 1_555
O44 P1 1.547511 1_455
O45 P0 1.556922 1_455
O46 P0 1.538551 1_455
O47 P2 1.535401 1_455
