# generated using pymatgen
data_CoTe2O5
_symmetry_space_group_name_H-M   'P 1'
_cell_length_a   8.65099500
_cell_length_b   9.09599000
_cell_length_c   12.27202400
_cell_angle_alpha   90.00000000
_cell_angle_beta   90.00000000
_cell_angle_gamma   90.00000000
_symmetry_Int_Tables_number   1
_chemical_formula_structural   CoTe2O5
_chemical_formula_sum   'Co8 Te16 O40'
_cell_volume   965.67776368
_cell_formula_units_Z   8
loop_
 _symmetry_equiv_pos_site_id
 _symmetry_equiv_pos_as_xyz
  1  'x, y, z'
loop_
 _atom_site_type_symbol
 _atom_site_label
 _atom_site_symmetry_multiplicity
 _atom_site_fract_x
 _atom_site_fract_y
 _atom_site_fract_z
 _atom_site_occupancy
  Co  Co0  1  0.51564800  0.01396700  0.12099700  1
  Co  Co1  1  0.51564800  0.01396700  0.37900300  1
  Co  Co2  1  0.01564800  0.48603300  0.62099700  1
  Co  Co3  1  0.01564800  0.48603300  0.87900300  1
  Co  Co4  1  0.98435200  0.51396700  0.12099700  1
  Co  Co5  1  0.98435200  0.51396700  0.37900300  1
  Co  Co6  1  0.48435200  0.98603300  0.87900300  1
  Co  Co7  1  0.48435200  0.98603300  0.62099700  1
  Te  Te0  1  0.19929600  0.10473200  0.25000000  1
  Te  Te1  1  0.84009300  0.15081900  0.51247300  1
  Te  Te2  1  0.84009300  0.15081900  0.98752700  1
  Te  Te3  1  0.18195200  0.16839400  0.75000000  1
  Te  Te4  1  0.68195200  0.33160600  0.25000000  1
  Te  Te5  1  0.34009300  0.34918100  0.01247300  1
  Te  Te6  1  0.34009300  0.34918100  0.48752700  1
  Te  Te7  1  0.69929600  0.39526800  0.75000000  1
  Te  Te8  1  0.30070400  0.60473200  0.25000000  1
  Te  Te9  1  0.65990700  0.65081900  0.51247300  1
  Te  Te10  1  0.65990700  0.65081900  0.98752700  1
  Te  Te11  1  0.31804800  0.66839400  0.75000000  1
  Te  Te12  1  0.81804800  0.83160600  0.25000000  1
  Te  Te13  1  0.15990700  0.84918100  0.01247300  1
  Te  Te14  1  0.15990700  0.84918100  0.48752700  1
  Te  Te15  1  0.80070400  0.89526800  0.75000000  1
  O  O0  1  0.90545400  0.00906100  0.62766400  1
  O  O1  1  0.90545400  0.00906100  0.87233600  1
  O  O2  1  0.63033700  0.03001100  0.75000000  1
  O  O3  1  0.62145500  0.11914700  0.51197700  1
  O  O4  1  0.62145500  0.11914700  0.98802300  1
  O  O5  1  0.65833500  0.12188700  0.25000000  1
  O  O6  1  0.32329500  0.15609700  0.62940300  1
  O  O7  1  0.32329500  0.15609700  0.87059700  1
  O  O8  1  0.35210100  0.19017600  0.11373600  1
  O  O9  1  0.35210100  0.19017600  0.38626400  1
  O  O10  1  0.85210100  0.30982400  0.61373600  1
  O  O11  1  0.85210100  0.30982400  0.88626400  1
  O  O12  1  0.82329500  0.34390300  0.12940300  1
  O  O13  1  0.82329500  0.34390300  0.37059700  1
  O  O14  1  0.15833500  0.37811300  0.75000000  1
  O  O15  1  0.12145500  0.38085300  0.01197700  1
  O  O16  1  0.12145500  0.38085300  0.48802300  1
  O  O17  1  0.13033700  0.46998900  0.25000000  1
  O  O18  1  0.40545400  0.49093900  0.37233600  1
  O  O19  1  0.40545400  0.49093900  0.12766400  1
  O  O20  1  0.59454600  0.50906100  0.87233600  1
  O  O21  1  0.59454600  0.50906100  0.62766400  1
  O  O22  1  0.86966300  0.53001100  0.75000000  1
  O  O23  1  0.87854500  0.61914700  0.51197700  1
  O  O24  1  0.87854500  0.61914700  0.98802300  1
  O  O25  1  0.84166500  0.62188700  0.25000000  1
  O  O26  1  0.17670500  0.65609700  0.87059700  1
  O  O27  1  0.17670500  0.65609700  0.62940300  1
  O  O28  1  0.14789900  0.69017600  0.11373600  1
  O  O29  1  0.14789900  0.69017600  0.38626400  1
  O  O30  1  0.64789900  0.80982400  0.88626400  1
  O  O31  1  0.64789900  0.80982400  0.61373600  1
  O  O32  1  0.67670500  0.84390300  0.12940300  1
  O  O33  1  0.67670500  0.84390300  0.37059700  1
  O  O34  1  0.34166500  0.87811300  0.75000000  1
  O  O35  1  0.37854500  0.88085300  0.01197700  1
  O  O36  1  0.37854500  0.88085300  0.48802300  1
  O  O37  1  0.36966300  0.96998900  0.25000000  1
  O  O38  1  0.09454600  0.99093900  0.12766400  1
  O  O39  1  0.09454600  0.99093900  0.37233600  1
loop_
_geom_bond_atom_site_label_1
_geom_bond_atom_site_label_2
_geom_bond_distance
_geom_bond_site_symmetry_2
Co0 O37 2.064284 1_545
Co0 O32 2.084427 1_545
Co0 O4 2.101455 1_554
Co0 O8 2.139784 1_555
Co0 O35 2.159350 1_545
Co0 O5 2.234640 1_555
Co1 O37 2.064284 1_545
Co1 O33 2.084427 1_545
Co1 O3 2.101455 1_555
Co1 O9 2.139784 1_555
Co1 O36 2.159350 1_545
Co1 O5 2.234640 1_555
Co2 O22 2.064284 1_455
Co2 O27 2.084427 1_555
Co2 O16 2.101455 1_555
Co2 O10 2.139784 1_455
Co2 O23 2.159350 1_455
Co2 O14 2.234640 1_555
Co3 O22 2.064284 1_455
Co3 O26 2.084427 1_555
Co3 O15 2.101455 1_556
Co3 O11 2.139784 1_455
Co3 O24 2.159350 1_455
Co3 O14 2.234640 1_555
Co4 O17 2.064284 1_655
Co4 O12 2.084427 1_555
Co4 O24 2.101455 1_554
Co4 O28 2.139784 1_655
Co4 O15 2.159350 1_655
Co4 O25 2.234640 1_555
Co5 O17 2.064284 1_655
Co5 O13 2.084427 1_555
Co5 O23 2.101455 1_555
Co5 O29 2.139784 1_655
Co5 O16 2.159350 1_655
Co5 O25 2.234640 1_555
Co6 O2 2.064284 1_565
Co6 O7 2.084427 1_565
Co6 O35 2.101455 1_556
Co6 O30 2.139784 1_555
Co6 O4 2.159350 1_565
Co6 O34 2.234640 1_555
Co7 O2 2.064284 1_565
Co7 O6 2.084427 1_565
Co7 O36 2.101455 1_555
Co7 O31 2.139784 1_555
Co7 O3 2.159350 1_565
Co7 O34 2.234640 1_555
O0 Te1 1.995166 1_555
O0 Te15 2.036287 1_545
O1 Te2 1.995166 1_555
O1 Te15 2.036287 1_545
O2 Te15 1.916863 1_545
O3 Te1 1.913260 1_555
O4 Te2 1.913260 1_555
O5 Te4 1.918512 1_555
O6 Te3 1.923007 1_555
O6 Te6 2.477321 1_555
O7 Te3 1.923007 1_555
O7 Te5 2.477321 1_556
O8 Te5 1.909687 1_555
O8 Te0 2.268891 1_555
O9 Te6 1.909687 1_555
O9 Te0 2.268891 1_555
O10 Te1 1.909687 1_555
O10 Te7 2.268891 1_555
O11 Te2 1.909687 1_555
O11 Te7 2.268891 1_555
O12 Te4 1.923007 1_555
O12 Te2 2.477321 1_554
O13 Te4 1.923007 1_555
O13 Te1 2.477321 1_555
O14 Te3 1.918512 1_555
O15 Te5 1.913260 1_555
O16 Te6 1.913260 1_555
O17 Te8 1.916863 1_555
O18 Te6 1.995166 1_555
O18 Te8 2.036287 1_555
O19 Te5 1.995166 1_555
O19 Te8 2.036287 1_555
O20 Te10 1.995166 1_555
O20 Te7 2.036287 1_555
O21 Te9 1.995166 1_555
O21 Te7 2.036287 1_555
O22 Te7 1.916863 1_555
O23 Te9 1.913260 1_555
O24 Te10 1.913260 1_555
O25 Te12 1.918512 1_555
O26 Te11 1.923007 1_555
O26 Te13 2.477321 1_556
O27 Te11 1.923007 1_555
O27 Te14 2.477321 1_555
O28 Te13 1.909687 1_555
O28 Te8 2.268891 1_555
O29 Te14 1.909687 1_555
O29 Te8 2.268891 1_555
O30 Te10 1.909687 1_555
O30 Te15 2.268891 1_555
O31 Te9 1.909687 1_555
O31 Te15 2.268891 1_555
O32 Te12 1.923007 1_555
O32 Te10 2.477321 1_554
O33 Te12 1.923007 1_555
O33 Te9 2.477321 1_555
O34 Te11 1.918512 1_555
O35 Te13 1.913260 1_555
O36 Te14 1.913260 1_555
O37 Te0 1.916863 1_565
O38 Te13 1.995166 1_555
O38 Te0 2.036287 1_565
O39 Te14 1.995166 1_555
O39 Te0 2.036287 1_565
