# generated using pymatgen
data_H8C3(NO)4
_symmetry_space_group_name_H-M   'P 1'
_cell_length_a   8.70894500
_cell_length_b   8.58795000
_cell_length_c   10.16718945
_cell_angle_alpha   89.13581849
_cell_angle_beta   90.00000000
_cell_angle_gamma   90.00000000
_symmetry_Int_Tables_number   1
_chemical_formula_structural   H8C3(NO)4
_chemical_formula_sum   'H32 C12 N16 O16'
_cell_volume   760.33777964
_cell_formula_units_Z   4
loop_
 _symmetry_equiv_pos_site_id
 _symmetry_equiv_pos_as_xyz
  1  'x, y, z'
loop_
 _atom_site_type_symbol
 _atom_site_label
 _atom_site_symmetry_multiplicity
 _atom_site_fract_x
 _atom_site_fract_y
 _atom_site_fract_z
 _atom_site_occupancy
  H  H0  1  0.46786400  0.31895900  0.41431400  1
  H  H1  1  0.96786400  0.18104100  0.58568600  1
  H  H2  1  0.53213600  0.68104100  0.58568600  1
  H  H3  1  0.03213600  0.81895900  0.41431400  1
  H  H4  1  0.45582300  0.22844000  0.57571400  1
  H  H5  1  0.95582300  0.27156000  0.42428600  1
  H  H6  1  0.54417700  0.77156000  0.42428600  1
  H  H7  1  0.04417700  0.72844000  0.57571400  1
  H  H8  1  0.60985200  0.36180100  0.53633100  1
  H  H9  1  0.10985200  0.13819900  0.46366900  1
  H  H10  1  0.39014800  0.63819900  0.46366900  1
  H  H11  1  0.89014800  0.86180100  0.53633100  1
  H  H12  1  0.66736200  0.00509800  0.11812400  1
  H  H13  1  0.16736200  0.49490200  0.88187600  1
  H  H14  1  0.33263800  0.99490200  0.88187600  1
  H  H15  1  0.83263800  0.50509800  0.11812400  1
  H  H16  1  0.82575200  0.87460500  0.16174300  1
  H  H17  1  0.32575200  0.62539500  0.83825700  1
  H  H18  1  0.17424800  0.12539500  0.83825700  1
  H  H19  1  0.67424800  0.37460500  0.16174300  1
  H  H20  1  0.29313400  0.28003000  0.23545100  1
  H  H21  1  0.79313400  0.21997000  0.76454900  1
  H  H22  1  0.70686600  0.71997000  0.76454900  1
  H  H23  1  0.20686600  0.78003000  0.23545100  1
  H  H24  1  0.29373200  0.07052600  0.22002600  1
  H  H25  1  0.79373200  0.42947400  0.77997400  1
  H  H26  1  0.70626800  0.92947400  0.77997400  1
  H  H27  1  0.20626800  0.57052600  0.22002600  1
  H  H28  1  0.34014700  0.19577600  0.08048100  1
  H  H29  1  0.84014700  0.30422400  0.91951900  1
  H  H30  1  0.65985300  0.80422400  0.91951900  1
  H  H31  1  0.15985300  0.69577600  0.08048100  1
  C  C0  1  0.77360400  0.98960000  0.17450700  1
  C  C1  1  0.27360400  0.51040000  0.82549300  1
  C  C2  1  0.22639600  0.01040000  0.82549300  1
  C  C3  1  0.72639600  0.48960000  0.17450700  1
  C  C4  1  0.53231700  0.27246300  0.49839000  1
  C  C5  1  0.03231700  0.22753700  0.50161000  1
  C  C6  1  0.46768300  0.72753700  0.50161000  1
  C  C7  1  0.96768300  0.77246300  0.49839000  1
  C  C8  1  0.27129400  0.18193800  0.17030300  1
  C  C9  1  0.77129400  0.31806200  0.82969700  1
  C  C10  1  0.72870600  0.81806200  0.82969700  1
  C  C11  1  0.22870600  0.68193800  0.17030300  1
  N  N0  1  0.62834800  0.13981600  0.45810400  1
  N  N1  1  0.12834800  0.36018400  0.54189600  1
  N  N2  1  0.37165200  0.86018400  0.54189600  1
  N  N3  1  0.87165200  0.63981600  0.45810400  1
  N  N4  1  0.10800000  0.19402400  0.13161300  1
  N  N5  1  0.60800000  0.30597600  0.86838700  1
  N  N6  1  0.89200000  0.80597600  0.86838700  1
  N  N7  1  0.39200000  0.69402400  0.13161300  1
  N  N8  1  0.64400700  0.12332100  0.33355800  1
  N  N9  1  0.14400700  0.37667900  0.66644200  1
  N  N10  1  0.35599300  0.87667900  0.66644200  1
  N  N11  1  0.85599300  0.62332100  0.33355800  1
  N  N12  1  0.02282000  0.07936000  0.16970000  1
  N  N13  1  0.52282000  0.42064000  0.83030000  1
  N  N14  1  0.97718000  0.92064000  0.83030000  1
  N  N15  1  0.47718000  0.57936000  0.16970000  1
  O  O0  1  0.87234500  0.11122400  0.12874800  1
  O  O1  1  0.37234500  0.38877600  0.87125200  1
  O  O2  1  0.12765500  0.88877600  0.87125200  1
  O  O3  1  0.62765500  0.61122400  0.12874800  1
  O  O4  1  0.74424000  0.99870600  0.31267100  1
  O  O5  1  0.24424000  0.50129400  0.68732900  1
  O  O6  1  0.25576000  0.00129400  0.68732900  1
  O  O7  1  0.75576000  0.49870600  0.31267100  1
  O  O8  1  0.69005600  0.05710900  0.54794200  1
  O  O9  1  0.19005600  0.44289100  0.45205800  1
  O  O10  1  0.30994400  0.94289100  0.45205800  1
  O  O11  1  0.80994400  0.55710900  0.54794200  1
  O  O12  1  0.06462900  0.31399200  0.06823100  1
  O  O13  1  0.56462900  0.18600800  0.93176900  1
  O  O14  1  0.93537100  0.68600800  0.93176900  1
  O  O15  1  0.43537100  0.81399200  0.06823100  1
loop_
_geom_bond_atom_site_label_1
_geom_bond_atom_site_label_2
_geom_bond_distance
_geom_bond_site_symmetry_2
C0 H12 1.095506 1_565
C0 H16 1.096476 1_555
C0 O0 1.425571 1_565
C0 O4 1.431125 1_555
C1 H13 1.095506 1_555
C1 H17 1.096476 1_555
C1 O1 1.425571 1_555
C1 O5 1.431125 1_555
C2 H14 1.095506 1_545
C2 H18 1.096476 1_555
C2 O2 1.425571 1_545
C2 O6 1.431125 1_555
C3 H15 1.095506 1_555
C3 H19 1.096476 1_555
C3 O3 1.425571 1_555
C3 O7 1.431125 1_555
C4 H0 1.093132 1_555
C4 H4 1.093539 1_555
C4 H8 1.096511 1_555
C4 N0 1.476139 1_555
C5 H1 1.093132 1_455
C5 H5 1.093539 1_455
C5 H9 1.096511 1_555
C5 N1 1.476139 1_555
C6 H2 1.093132 1_555
C6 H6 1.093539 1_555
C6 H10 1.096511 1_555
C6 N2 1.476139 1_555
C7 H3 1.093132 1_655
C7 H7 1.093539 1_655
C7 H11 1.096511 1_555
C7 N3 1.476139 1_555
C8 H24 1.092994 1_555
C8 H20 1.096083 1_555
C8 H28 1.097459 1_555
C8 N4 1.478750 1_555
C9 H25 1.092994 1_555
C9 H21 1.096083 1_555
C9 H29 1.097459 1_555
C9 N5 1.478750 1_555
C10 H26 1.092994 1_555
C10 H22 1.096083 1_555
C10 H30 1.097459 1_555
C10 N6 1.478750 1_555
C11 H27 1.092994 1_555
C11 H23 1.096083 1_555
C11 H31 1.097459 1_555
C11 N7 1.478750 1_555
N0 O8 1.268087 1_555
N0 N8 1.283568 1_555
N1 O9 1.268087 1_555
N1 N9 1.283568 1_555
N2 O10 1.268087 1_555
N3 O11 1.268087 1_555
N4 O12 1.264670 1_555
N5 O13 1.264670 1_555
N6 O14 1.264670 1_555
N7 O15 1.264670 1_555
N8 O4 1.399732 1_545
N9 O5 1.399732 1_555
N10 N2 1.283568 1_555
N10 O6 1.399732 1_565
N11 N3 1.283568 1_555
N11 O7 1.399732 1_555
N12 N4 1.287808 1_555
N12 O0 1.400771 1_455
N13 N5 1.287808 1_555
N13 O1 1.400771 1_555
N14 N6 1.287808 1_555
N14 O2 1.400771 1_655
N15 N7 1.287808 1_555
N15 O3 1.400771 1_555
