# generated using pymatgen
data_VOF
_symmetry_space_group_name_H-M   'P 1'
_cell_length_a   4.60788043
_cell_length_b   4.62936717
_cell_length_c   9.23318154
_cell_angle_alpha   90.00106146
_cell_angle_beta   89.84355214
_cell_angle_gamma   89.99983503
_symmetry_Int_Tables_number   1
_chemical_formula_structural   VOF
_chemical_formula_sum   'V6 O6 F6'
_cell_volume   196.95752774
_cell_formula_units_Z   6
loop_
 _symmetry_equiv_pos_site_id
 _symmetry_equiv_pos_as_xyz
  1  'x, y, z'
loop_
 _atom_site_type_symbol
 _atom_site_label
 _atom_site_symmetry_multiplicity
 _atom_site_fract_x
 _atom_site_fract_y
 _atom_site_fract_z
 _atom_site_occupancy
  V  V0  1  0.96938060  0.96458273  0.00046228  1
  V  V1  1  0.02737157  0.02195837  0.33294273  1
  V  V2  1  0.04141269  0.01036857  0.66755225  1
  V  V3  1  0.53055604  0.46456986  0.16628008  1
  V  V4  1  0.47259923  0.52194405  0.83365983  1
  V  V5  1  0.45864934  0.51043118  0.49908065  1
  O  O0  1  0.19790708  0.81656870  0.50015319  1
  O  O1  1  0.18756450  0.81065119  0.83367756  1
  O  O2  1  0.31244794  0.31064513  0.33302135  1
  O  O3  1  0.30214869  0.31656754  0.66644489  1
  O  O4  1  0.68542206  0.67598198  0.00015816  1
  O  O5  1  0.81444577  0.17593786  0.16651993  1
  F  F0  1  0.20842002  0.78524356  0.16683289  1
  F  F1  1  0.29154541  0.28527378  0.99994166  1
  F  F2  1  0.71261911  0.69677126  0.33345575  1
  F  F3  1  0.69539235  0.71785230  0.66580323  1
  F  F4  1  0.78748298  0.19691480  0.83322849  1
  F  F5  1  0.80463361  0.21773913  0.50078408  1
loop_
_geom_bond_atom_site_label_1
_geom_bond_atom_site_label_2
_geom_bond_distance
_geom_bond_site_symmetry_2
O0 V5 1.857975 1_555
O0 V2 1.925546 1_565
O0 V1 1.977831 1_565
O1 V4 1.873857 1_555
O1 V2 1.914886 1_565
O1 V0 1.970158 1_456
O2 V1 1.873931 1_555
O2 V5 1.914606 1_555
O2 V3 1.969679 1_555
O3 V2 1.858180 1_555
O3 V5 1.925466 1_555
O3 V4 1.977652 1_555
O4 V0 1.870046 1_555
O4 V3 1.952901 1_555
O4 V4 1.960032 1_554
O5 V3 1.869920 1_555
O5 V0 1.952388 1_545
O5 V1 1.959642 1_655
F0 V1 2.059633 1_565
F0 V0 2.066756 1_455
F0 V3 2.099309 1_555
F1 V4 2.060747 1_555
F1 V3 2.066363 1_556
F1 V0 2.099465 1_446
F2 V3 2.061287 1_555
F2 V1 2.090395 1_665
F2 V5 2.107730 1_555
F3 V4 2.066360 1_555
F3 V2 2.091973 1_665
F3 V5 2.119169 1_555
F4 V0 2.061721 1_546
F4 V4 2.090282 1_555
F4 V2 2.108336 1_655
F5 V1 2.065842 1_655
F5 V5 2.092364 1_555
F5 V2 2.119478 1_655
