# generated using pymatgen
data_SmZr4O9
_symmetry_space_group_name_H-M   'P 1'
_cell_length_a   9.94408067
_cell_length_b   9.94408067
_cell_length_c   9.94408067
_cell_angle_alpha   159.33234180
_cell_angle_beta   149.45043606
_cell_angle_gamma   37.17124968
_symmetry_Int_Tables_number   1
_chemical_formula_structural   SmZr4O9
_chemical_formula_sum   'Sm1 Zr4 O9'
_cell_volume   176.18544171
_cell_formula_units_Z   1
loop_
 _symmetry_equiv_pos_site_id
 _symmetry_equiv_pos_as_xyz
  1  'x, y, z'
loop_
 _atom_site_type_symbol
 _atom_site_label
 _atom_site_symmetry_multiplicity
 _atom_site_fract_x
 _atom_site_fract_y
 _atom_site_fract_z
 _atom_site_occupancy
  Sm  Sm0  1  0.01468700  0.00000000  0.01468700  1
  Zr  Zr0  1  0.37417300  0.39075900  0.98341400  1
  Zr  Zr1  1  0.18374100  0.19764500  0.98609700  1
  Zr  Zr2  1  0.59265600  0.60924100  0.98341400  1
  Zr  Zr3  1  0.78845200  0.80235500  0.98609700  1
  O  O0  1  0.12959700  0.89277200  0.23682600  1
  O  O1  1  0.39629400  0.50000000  0.89629400  1
  O  O2  1  0.34405400  0.10722800  0.23682600  1
  O  O3  1  0.93895000  0.70055200  0.23839900  1
  O  O4  1  0.63863100  0.90244000  0.73619100  1
  O  O5  1  0.03553700  0.29695400  0.73858300  1
  O  O6  1  0.83375100  0.09756000  0.73619100  1
  O  O7  1  0.53784700  0.29944800  0.23839900  1
  O  O8  1  0.44162900  0.70304600  0.73858300  1
loop_
_geom_bond_atom_site_label_1
_geom_bond_atom_site_label_2
_geom_bond_distance
_geom_bond_site_symmetry_2
O0 Zr3 2.151952 1_454
O0 Zr0 2.202872 1_565
O0 Zr0 2.202875 1_554
O0 Sm0 2.332499 1_565
O1 Zr0 2.109282 1_555
O1 Zr2 2.109291 1_555
O1 Sm0 2.679491 1_555
O1 Sm0 2.679491 1_566
O2 Zr1 2.151956 1_554
O2 Zr2 2.202872 1_555
O2 Zr2 2.202875 1_544
O2 Sm0 2.332492 1_555
O3 Zr2 2.178917 1_554
O3 Zr1 2.206642 1_654
O3 Zr1 2.206642 1_665
O3 Zr3 2.330329 1_554
O4 Zr0 2.232607 1_554
O4 Zr0 2.232607 1_565
O4 Zr3 2.296545 1_555
O4 Sm0 2.347658 1_666
O5 Zr0 2.184604 1_555
O5 Zr3 2.223146 1_444
O5 Zr3 2.223146 1_455
O5 Zr1 2.277388 1_555
O6 Zr2 2.232605 1_555
O6 Zr2 2.232608 1_544
O6 Zr1 2.296536 1_655
O6 Sm0 2.347658 1_656
O7 Zr0 2.178935 1_554
O7 Zr3 2.206642 1_555
O7 Zr3 2.206642 1_544
O7 Zr1 2.330332 1_554
O8 Zr2 2.184598 1_555
O8 Zr1 2.223147 1_554
O8 Zr1 2.223149 1_565
O8 Zr3 2.277382 1_555
