# generated using pymatgen
data_BaLu2O4
_symmetry_space_group_name_H-M   'P 1'
_cell_length_a   5.81721756
_cell_length_b   5.81721756
_cell_length_c   11.31706800
_cell_angle_alpha   90.00000000
_cell_angle_beta   90.00000000
_cell_angle_gamma   146.20075983
_symmetry_Int_Tables_number   1
_chemical_formula_structural   BaLu2O4
_chemical_formula_sum   'Ba2 Lu4 O8'
_cell_volume   213.04020560
_cell_formula_units_Z   2
loop_
 _symmetry_equiv_pos_site_id
 _symmetry_equiv_pos_as_xyz
  1  'x, y, z'
loop_
 _atom_site_type_symbol
 _atom_site_label
 _atom_site_symmetry_multiplicity
 _atom_site_fract_x
 _atom_site_fract_y
 _atom_site_fract_z
 _atom_site_occupancy
  Ba  Ba0  1  0.88965100  0.11034900  0.25000000  1
  Ba  Ba1  1  0.11034900  0.88965100  0.75000000  1
  Lu  Lu0  1  0.63568400  0.36431600  0.43004600  1
  Lu  Lu1  1  0.63568400  0.36431600  0.06995400  1
  Lu  Lu2  1  0.36431600  0.63568400  0.56995400  1
  Lu  Lu3  1  0.36431600  0.63568400  0.93004600  1
  O  O0  1  0.00000000  0.00000000  0.00000000  1
  O  O1  1  0.00000000  0.00000000  0.50000000  1
  O  O2  1  0.56938300  0.43061700  0.25000000  1
  O  O3  1  0.74044500  0.25955500  0.60014200  1
  O  O4  1  0.74044500  0.25955500  0.89985800  1
  O  O5  1  0.43061700  0.56938300  0.75000000  1
  O  O6  1  0.25955500  0.74044500  0.39985800  1
  O  O7  1  0.25955500  0.74044500  0.10014200  1
loop_
_geom_bond_atom_site_label_1
_geom_bond_atom_site_label_2
_geom_bond_distance
_geom_bond_site_symmetry_2
Ba0 O2 2.619682 1_655
Ba0 O2 2.619682 1_545
Ba0 O7 2.798794 1_655
Ba0 O7 2.798794 1_545
Ba0 O6 2.798794 1_655
Ba0 O6 2.798794 1_545
Ba0 O0 3.084434 1_655
Ba0 O1 3.084434 1_655
Ba1 O5 2.619682 1_455
Ba1 O5 2.619682 1_565
Ba1 O4 2.798794 1_455
Ba1 O3 2.798794 1_565
Ba1 O3 2.798794 1_455
Ba1 O4 2.798794 1_565
Ba1 O0 3.084434 1_566
Ba1 O1 3.084434 1_565
Lu0 O2 2.167146 1_555
Lu0 O6 2.208573 1_655
Lu0 O6 2.208573 1_545
Lu0 O3 2.250689 1_555
Lu0 O1 2.401621 1_665
Lu0 O1 2.401621 1_555
Lu1 O2 2.167146 1_555
Lu1 O7 2.208573 1_545
Lu1 O7 2.208573 1_655
Lu1 O4 2.250689 1_554
Lu1 O0 2.401621 1_555
Lu1 O0 2.401621 1_665
Lu2 O5 2.167146 1_555
Lu2 O3 2.208573 1_455
Lu2 O3 2.208573 1_565
Lu2 O6 2.250689 1_555
Lu2 O1 2.401621 1_665
Lu2 O1 2.401621 1_555
Lu3 O5 2.167146 1_555
Lu3 O4 2.208573 1_565
Lu3 O4 2.208573 1_455
Lu3 O7 2.250689 1_556
Lu3 O0 2.401621 1_666
Lu3 O0 2.401621 1_556
