# generated using pymatgen
data_Li2CrSi4O11
_symmetry_space_group_name_H-M   'P 1'
_cell_length_a   7.18642689
_cell_length_b   7.18642689
_cell_length_c   8.21263208
_cell_angle_alpha   81.12351740
_cell_angle_beta   81.12351740
_cell_angle_gamma   83.37731488
_symmetry_Int_Tables_number   1
_chemical_formula_structural   Li2CrSi4O11
_chemical_formula_sum   'Li4 Cr2 Si8 O22'
_cell_volume   412.21679369
_cell_formula_units_Z   2
loop_
 _symmetry_equiv_pos_site_id
 _symmetry_equiv_pos_as_xyz
  1  'x, y, z'
loop_
 _atom_site_type_symbol
 _atom_site_label
 _atom_site_symmetry_multiplicity
 _atom_site_fract_x
 _atom_site_fract_y
 _atom_site_fract_z
 _atom_site_occupancy
  Li  Li0  1  0.92204400  0.07795600  0.75000000  1
  Li  Li1  1  0.65058000  0.34942000  0.75000000  1
  Li  Li2  1  0.34942000  0.65058000  0.25000000  1
  Li  Li3  1  0.07795600  0.92204400  0.25000000  1
  Cr  Cr0  1  0.00000000  0.50000000  0.50000000  1
  Cr  Cr1  1  0.50000000  0.00000000  0.00000000  1
  Si  Si0  1  0.65760300  0.77601600  0.66199300  1
  Si  Si1  1  0.77601600  0.65760300  0.16199300  1
  Si  Si2  1  0.25210700  0.83898400  0.56327000  1
  Si  Si3  1  0.16101600  0.74789300  0.93673000  1
  Si  Si4  1  0.83898400  0.25210700  0.06327000  1
  Si  Si5  1  0.74789300  0.16101600  0.43673000  1
  Si  Si6  1  0.22398400  0.34239700  0.83800700  1
  Si  Si7  1  0.34239700  0.22398400  0.33800700  1
  O  O0  1  0.75582500  0.94532600  0.53356300  1
  O  O1  1  0.60608100  0.84714000  0.84151000  1
  O  O2  1  0.94532600  0.75582500  0.03356300  1
  O  O3  1  0.84714000  0.60608100  0.34151000  1
  O  O4  1  0.80116800  0.58457400  0.67618400  1
  O  O5  1  0.58457400  0.80116800  0.17618400  1
  O  O6  1  0.46369000  0.73958500  0.59001600  1
  O  O7  1  0.85057800  0.26904000  0.55218200  1
  O  O8  1  0.73958500  0.46369000  0.09001600  1
  O  O9  1  0.13350300  0.86649700  0.75000000  1
  O  O10  1  0.73096000  0.14942200  0.94781800  1
  O  O11  1  0.26904000  0.85057800  0.05218200  1
  O  O12  1  0.86649700  0.13350300  0.25000000  1
  O  O13  1  0.26041500  0.53631000  0.90998400  1
  O  O14  1  0.14942300  0.73096000  0.44781800  1
  O  O15  1  0.53631000  0.26041500  0.40998400  1
  O  O16  1  0.41542600  0.19883200  0.82381600  1
  O  O17  1  0.19883200  0.41542600  0.32381600  1
  O  O18  1  0.15286000  0.39391900  0.65849000  1
  O  O19  1  0.05467400  0.24417500  0.96643700  1
  O  O20  1  0.39391900  0.15286000  0.15849000  1
  O  O21  1  0.24417500  0.05467400  0.46643700  1
loop_
_geom_bond_atom_site_label_1
_geom_bond_atom_site_label_2
_geom_bond_distance
_geom_bond_site_symmetry_2
Li0 O9 2.021365 1_645
Li0 O10 2.048209 1_555
Li0 O7 2.048209 1_555
Li1 O4 2.073083 1_555
Li1 O16 2.073083 1_555
Li1 O10 2.101494 1_555
Li1 O7 2.101494 1_555
Li2 O5 2.073083 1_555
Li2 O17 2.073083 1_555
Li2 O14 2.101490 1_555
Li2 O11 2.101494 1_555
Li3 O12 2.021365 1_465
Li3 O11 2.048209 1_555
Li3 O14 2.048211 1_555
Cr0 O3 1.850404 1_455
Cr0 O18 1.850404 1_555
Cr0 O4 1.984384 1_455
Cr0 O17 1.984384 1_555
Cr0 O7 2.034983 1_455
Cr0 O14 2.034988 1_555
Cr1 O1 1.850404 1_544
Cr1 O20 1.850404 1_555
Cr1 O5 1.984384 1_545
Cr1 O16 1.984384 1_554
Cr1 O10 2.034983 1_554
Cr1 O11 2.034983 1_545
O0 Si5 1.628342 1_565
O0 Si0 1.632013 1_555
O1 Si0 1.610082 1_555
O2 Si3 1.628342 1_654
O2 Si1 1.632013 1_555
O3 Si1 1.610082 1_555
O4 Si0 1.622045 1_555
O5 Si1 1.622045 1_555
O6 Si2 1.635428 1_555
O6 Si0 1.657124 1_555
O7 Si5 1.619088 1_555
O8 Si4 1.635428 1_555
O8 Si1 1.657124 1_555
O9 Si2 1.663927 1_555
O9 Si3 1.663927 1_555
O10 Si4 1.619088 1_556
O11 Si3 1.619088 1_554
O12 Si4 1.663927 1_555
O12 Si5 1.663927 1_555
O13 Si3 1.635428 1_555
O13 Si6 1.657124 1_555
O14 Si2 1.619084 1_555
O15 Si5 1.635428 1_555
O15 Si7 1.657124 1_555
O16 Si6 1.622045 1_555
O17 Si7 1.622045 1_555
O18 Si6 1.610082 1_555
O19 Si4 1.628342 1_456
O19 Si6 1.632013 1_555
O20 Si7 1.610082 1_555
O21 Si2 1.628342 1_545
O21 Si7 1.632013 1_555
