# generated using pymatgen
data_Mn5Sb(PO4)6
_symmetry_space_group_name_H-M   'P 1'
_cell_length_a   8.70714974
_cell_length_b   8.70714974
_cell_length_c   8.70714974
_cell_angle_alpha   59.77628428
_cell_angle_beta   59.77628428
_cell_angle_gamma   59.77628225
_symmetry_Int_Tables_number   1
_chemical_formula_structural   Mn5Sb(PO4)6
_chemical_formula_sum   'Mn5 Sb1 P6 O24'
_cell_volume   464.40994170
_cell_formula_units_Z   1
loop_
 _symmetry_equiv_pos_site_id
 _symmetry_equiv_pos_as_xyz
  1  'x, y, z'
loop_
 _atom_site_type_symbol
 _atom_site_label
 _atom_site_symmetry_multiplicity
 _atom_site_fract_x
 _atom_site_fract_y
 _atom_site_fract_z
 _atom_site_occupancy
  Mn  Mn0  1  0.00569100  0.00569100  0.00569100  1
  Mn  Mn1  1  0.35452600  0.35452600  0.35452600  1
  Mn  Mn2  1  0.49934400  0.49934400  0.49934400  1
  Mn  Mn3  1  0.14592800  0.14592800  0.14592800  1
  Mn  Mn4  1  0.64402700  0.64402700  0.64402700  1
  Sb  Sb0  1  0.85587400  0.85587400  0.85587400  1
  P  P0  1  0.04455800  0.45425200  0.74756800  1
  P  P1  1  0.45425200  0.74756800  0.04455800  1
  P  P2  1  0.74756800  0.04455800  0.45425200  1
  P  P3  1  0.25328100  0.95516600  0.53918200  1
  P  P4  1  0.53918200  0.25328100  0.95516600  1
  P  P5  1  0.95516600  0.53918200  0.25328100  1
  O  O0  1  0.49366900  0.69196800  0.88597800  1
  O  O1  1  0.69196800  0.88597800  0.49366900  1
  O  O2  1  0.88597800  0.49366900  0.69196800  1
  O  O3  1  0.05654600  0.26576400  0.91583800  1
  O  O4  1  0.00945200  0.61524500  0.80817500  1
  O  O5  1  0.23770800  0.44352000  0.58828000  1
  O  O6  1  0.26576400  0.91583800  0.05654600  1
  O  O7  1  0.44352000  0.58828000  0.23770800  1
  O  O8  1  0.19412400  0.98728000  0.38571300  1
  O  O9  1  0.58828000  0.23770800  0.44352000  1
  O  O10  1  0.08217500  0.93814000  0.73930600  1
  O  O11  1  0.38571300  0.19412400  0.98728000  1
  O  O12  1  0.61524500  0.80817500  0.00945200  1
  O  O13  1  0.91583800  0.05654600  0.26576400  1
  O  O14  1  0.40999100  0.75871700  0.56363500  1
  O  O15  1  0.80817500  0.00945200  0.61524500  1
  O  O16  1  0.56363500  0.40999100  0.75871700  1
  O  O17  1  0.73930600  0.08217500  0.93814000  1
  O  O18  1  0.75871700  0.56363500  0.40999100  1
  O  O19  1  0.98728000  0.38571300  0.19412400  1
  O  O20  1  0.93814000  0.73930600  0.08217500  1
  O  O21  1  0.11080000  0.51577100  0.30279800  1
  O  O22  1  0.30279800  0.11080000  0.51577100  1
  O  O23  1  0.51577100  0.30279800  0.11080000  1
loop_
_geom_bond_atom_site_label_1
_geom_bond_atom_site_label_2
_geom_bond_distance
_geom_bond_site_symmetry_2
Mn0 O6 2.193901 1_545
Mn0 O13 2.193901 1_455
Mn0 O3 2.193901 1_554
Mn0 O17 2.365025 1_454
Mn0 O10 2.365025 1_544
Mn0 O20 2.365025 1_445
Mn1 O21 2.000910 1_555
Mn1 O23 2.000910 1_555
Mn1 O22 2.000910 1_555
Mn1 O9 2.118417 1_555
Mn1 O5 2.118417 1_555
Mn1 O7 2.118417 1_555
Mn2 O9 2.232823 1_555
Mn2 O7 2.232823 1_555
Mn2 O5 2.232823 1_555
Mn2 O14 2.254865 1_555
Mn2 O16 2.254865 1_555
Mn2 O18 2.254865 1_555
Mn3 O19 1.959155 1_455
Mn3 O8 1.959155 1_545
Mn3 O11 1.959155 1_554
Mn3 O6 2.087051 1_545
Mn3 O3 2.087051 1_554
Mn3 O13 2.087051 1_455
Mn4 O2 1.971008 1_555
Mn4 O0 1.971008 1_555
Mn4 O1 1.971008 1_555
Mn4 O14 2.079275 1_555
Mn4 O18 2.079275 1_555
Mn4 O16 2.079275 1_555
O0 P1 1.512388 1_556
O1 P2 1.512388 1_565
O2 P0 1.512388 1_655
O3 P0 1.552978 1_555
O4 P0 1.577306 1_555
O4 Sb0 1.961314 1_455
O5 P0 1.544251 1_555
O6 P1 1.552978 1_555
O7 P1 1.544251 1_555
O8 P3 1.516877 1_555
O9 P2 1.544251 1_555
O10 P3 1.620691 1_555
O10 Sb0 2.025204 1_455
O11 P4 1.516877 1_555
O12 P1 1.577306 1_555
O12 Sb0 1.961314 1_554
O13 P2 1.552978 1_555
O14 P3 1.552131 1_555
O15 P2 1.577306 1_555
O15 Sb0 1.961314 1_545
O16 P4 1.552131 1_555
O17 P4 1.620691 1_555
O17 Sb0 2.025204 1_545
O18 P5 1.552131 1_555
O19 P5 1.516877 1_555
O20 P5 1.620691 1_555
O20 Sb0 2.025204 1_554
O21 P5 1.511770 1_455
O22 P3 1.511770 1_545
O23 P4 1.511770 1_554
