# generated using pymatgen
data_Li9Bi5O13
_symmetry_space_group_name_H-M   'P 1'
_cell_length_a   5.28741500
_cell_length_b   13.63360700
_cell_length_c   22.13283831
_cell_angle_alpha   74.40973180
_cell_angle_beta   90.00000000
_cell_angle_gamma   90.00000000
_symmetry_Int_Tables_number   1
_chemical_formula_structural   Li9Bi5O13
_chemical_formula_sum   'Li36 Bi20 O52'
_cell_volume   1536.77917045
_cell_formula_units_Z   4
loop_
 _symmetry_equiv_pos_site_id
 _symmetry_equiv_pos_as_xyz
  1  'x, y, z'
loop_
 _atom_site_type_symbol
 _atom_site_label
 _atom_site_symmetry_multiplicity
 _atom_site_fract_x
 _atom_site_fract_y
 _atom_site_fract_z
 _atom_site_occupancy
  Li  Li0  1  0.27625200  0.80313900  0.10438400  1
  Li  Li1  1  0.17590200  0.72966000  0.22172700  1
  Li  Li2  1  0.17451500  0.58804500  0.35928800  1
  Li  Li3  1  0.66986200  0.48613800  0.32199300  1
  Li  Li4  1  0.18775500  0.66827800  0.04918900  1
  Li  Li5  1  0.68775500  0.33172200  0.45081100  1
  Li  Li6  1  0.33057600  0.11839000  0.80233800  1
  Li  Li7  1  0.82026100  0.26278200  0.57939800  1
  Li  Li8  1  0.16986200  0.51386200  0.17800700  1
  Li  Li9  1  0.83030600  0.12028300  0.70215800  1
  Li  Li10  1  0.17015600  0.20098800  0.50670800  1
  Li  Li11  1  0.67451500  0.41195500  0.14071200  1
  Li  Li12  1  0.67590200  0.27034000  0.27827300  1
  Li  Li13  1  0.67015600  0.79901200  0.99329200  1
  Li  Li14  1  0.77625200  0.19686100  0.39561600  1
  Li  Li15  1  0.33030600  0.87971700  0.79784200  1
  Li  Li16  1  0.32026100  0.73721800  0.92060200  1
  Li  Li17  1  0.83057600  0.88161000  0.69766200  1
  Li  Li18  1  0.16942400  0.11839000  0.30233800  1
  Li  Li19  1  0.67973900  0.26278200  0.07939800  1
  Li  Li20  1  0.66969400  0.12028300  0.20215800  1
  Li  Li21  1  0.22374800  0.80313900  0.60438400  1
  Li  Li22  1  0.32984400  0.20098800  0.00670800  1
  Li  Li23  1  0.32409800  0.72966000  0.72172700  1
  Li  Li24  1  0.32548500  0.58804500  0.85928800  1
  Li  Li25  1  0.82984400  0.79901200  0.49329200  1
  Li  Li26  1  0.16969400  0.87971700  0.29784200  1
  Li  Li27  1  0.83013800  0.48613800  0.82199300  1
  Li  Li28  1  0.17973900  0.73721800  0.42060200  1
  Li  Li29  1  0.66942400  0.88161000  0.19766200  1
  Li  Li30  1  0.31224500  0.66827800  0.54918900  1
  Li  Li31  1  0.81224500  0.33172200  0.95081100  1
  Li  Li32  1  0.33013800  0.51386200  0.67800700  1
  Li  Li33  1  0.82548500  0.41195500  0.64071200  1
  Li  Li34  1  0.82409800  0.27034000  0.77827300  1
  Li  Li35  1  0.72374800  0.19686100  0.89561600  1
  Bi  Bi0  1  0.24368900  0.41452900  0.52574300  1
  Bi  Bi1  1  0.70196700  0.65278200  0.14797900  1
  Bi  Bi2  1  0.30577100  0.26502300  0.67792900  1
  Bi  Bi3  1  0.25451200  0.95907600  0.95917800  1
  Bi  Bi4  1  0.20196700  0.34721800  0.35202100  1
  Bi  Bi5  1  0.75867700  0.97695600  0.85518200  1
  Bi  Bi6  1  0.25867700  0.02304400  0.64481800  1
  Bi  Bi7  1  0.25631100  0.41452900  0.02574300  1
  Bi  Bi8  1  0.75451200  0.04092400  0.54082200  1
  Bi  Bi9  1  0.19422900  0.26502300  0.17792900  1
  Bi  Bi10  1  0.80577100  0.73497700  0.82207100  1
  Bi  Bi11  1  0.24548800  0.95907600  0.45917800  1
  Bi  Bi12  1  0.74368900  0.58547100  0.97425700  1
  Bi  Bi13  1  0.74132300  0.97695600  0.35518200  1
  Bi  Bi14  1  0.24132300  0.02304400  0.14481800  1
  Bi  Bi15  1  0.79803300  0.65278200  0.64797900  1
  Bi  Bi16  1  0.74548800  0.04092400  0.04082200  1
  Bi  Bi17  1  0.69422900  0.73497700  0.32207100  1
  Bi  Bi18  1  0.29803300  0.34721800  0.85202100  1
  Bi  Bi19  1  0.75631100  0.58547100  0.47425700  1
  O  O0  1  0.78668000  0.72467000  0.23032700  1
  O  O1  1  0.79957700  0.58248200  0.36720300  1
  O  O2  1  0.29111600  0.65608100  0.14355700  1
  O  O3  1  0.83854400  0.40564300  0.52283400  1
  O  O4  1  0.80374400  0.67035500  0.04787400  1
  O  O5  1  0.70261200  0.26285900  0.66877700  1
  O  O6  1  0.29934200  0.49723700  0.31582500  1
  O  O7  1  0.20339200  0.24063200  0.58861900  1
  O  O8  1  0.79934200  0.50276300  0.18417500  1
  O  O9  1  0.69134900  0.13647900  0.82402300  1
  O  O10  1  0.66544300  0.96011500  0.96267500  1
  O  O11  1  0.30374400  0.32964500  0.45212600  1
  O  O12  1  0.79111600  0.34391900  0.35644300  1
  O  O13  1  0.20225300  0.10381400  0.72172400  1
  O  O14  1  0.34874900  0.96356700  0.85763300  1
  O  O15  1  0.29957700  0.41751800  0.13279700  1
  O  O16  1  0.28668000  0.27533000  0.26967300  1
  O  O17  1  0.79665400  0.19097500  0.48829000  1
  O  O18  1  0.29665400  0.80902500  0.01171000  1
  O  O19  1  0.84874900  0.03643300  0.64236700  1
  O  O20  1  0.66145600  0.40564300  0.02283400  1
  O  O21  1  0.70225300  0.89618600  0.77827600  1
  O  O22  1  0.79738800  0.26285900  0.16877700  1
  O  O23  1  0.16544300  0.03988500  0.53732500  1
  O  O24  1  0.19134900  0.86352100  0.67597700  1
  O  O25  1  0.70339200  0.75936800  0.91138100  1
  O  O26  1  0.29660800  0.24063200  0.08861900  1
  O  O27  1  0.80865100  0.13647900  0.32402300  1
  O  O28  1  0.83455700  0.96011500  0.46267500  1
  O  O29  1  0.20261200  0.73714100  0.83122300  1
  O  O30  1  0.29774700  0.10381400  0.22172400  1
  O  O31  1  0.33854400  0.59435700  0.97716600  1
  O  O32  1  0.15125100  0.96356700  0.35763300  1
  O  O33  1  0.70334600  0.19097500  0.98829000  1
  O  O34  1  0.20334600  0.80902500  0.51171000  1
  O  O35  1  0.71332000  0.72467000  0.73032700  1
  O  O36  1  0.70042300  0.58248200  0.86720300  1
  O  O37  1  0.65125100  0.03643300  0.14236700  1
  O  O38  1  0.79774700  0.89618600  0.27827600  1
  O  O39  1  0.20888400  0.65608100  0.64355700  1
  O  O40  1  0.69625600  0.67035500  0.54787400  1
  O  O41  1  0.33455700  0.03988500  0.03732500  1
  O  O42  1  0.30865100  0.86352100  0.17597700  1
  O  O43  1  0.20065800  0.49723700  0.81582500  1
  O  O44  1  0.79660800  0.75936800  0.41138100  1
  O  O45  1  0.70065800  0.50276300  0.68417500  1
  O  O46  1  0.29738800  0.73714100  0.33122300  1
  O  O47  1  0.19625600  0.32964500  0.95212600  1
  O  O48  1  0.16145600  0.59435700  0.47716600  1
  O  O49  1  0.70888400  0.34391900  0.85644300  1
  O  O50  1  0.20042300  0.41751800  0.63279700  1
  O  O51  1  0.21332000  0.27533000  0.76967300  1
loop_
_geom_bond_atom_site_label_1
_geom_bond_atom_site_label_2
_geom_bond_distance
_geom_bond_site_symmetry_2
Li0 O2 1.960427 1_555
Li0 O42 1.979651 1_555
Li0 O18 2.033906 1_555
Li1 O42 1.963499 1_555
Li1 O0 2.066198 1_455
Li1 O2 2.302961 1_555
Li1 O46 2.535551 1_555
Li2 O6 1.879860 1_555
Li2 O1 1.989829 1_455
Li2 O46 2.064261 1_555
Li2 O48 2.634313 1_555
Li3 O6 1.966844 1_555
Li3 O1 1.975715 1_555
Li3 O12 1.989296 1_555
Li4 O18 1.961170 1_555
Li4 O4 2.030722 1_455
Li4 O2 2.121797 1_555
Li4 O31 2.248541 1_554
Li5 O17 1.961170 1_555
Li5 O11 2.030722 1_555
Li5 O12 2.121797 1_555
Li5 O3 2.248541 1_555
Li6 O13 1.968213 1_555
Li6 O9 1.998391 1_555
Li6 O14 2.138674 1_545
Li6 O51 2.157248 1_555
Li7 O3 2.014837 1_555
Li7 O7 2.050237 1_655
Li7 O5 2.073980 1_555
Li7 O17 2.470079 1_555
Li8 O8 1.966844 1_455
Li8 O15 1.975715 1_555
Li8 O2 1.989296 1_555
Li9 O19 1.969966 1_555
Li9 O5 2.002055 1_555
Li9 O13 2.013293 1_655
Li10 O11 1.973839 1_555
Li10 O17 2.028495 1_455
Li10 O7 2.033812 1_555
Li10 O23 2.117554 1_555
Li11 O8 1.879860 1_555
Li11 O15 1.989829 1_555
Li11 O22 2.064261 1_555
Li11 O20 2.634313 1_555
Li12 O27 1.963499 1_555
Li12 O16 2.066198 1_555
Li12 O12 2.302961 1_555
Li12 O22 2.535551 1_555
Li13 O4 1.973839 1_556
Li13 O18 2.028495 1_556
Li13 O25 2.033812 1_555
Li13 O10 2.117554 1_555
Li14 O12 1.960427 1_555
Li14 O27 1.979651 1_555
Li14 O17 2.033906 1_555
Li15 O14 1.969966 1_555
Li15 O29 2.002055 1_555
Li15 O21 2.013293 1_555
Li16 O31 2.014837 1_555
Li16 O25 2.050237 1_555
Li16 O29 2.073980 1_555
Li16 O18 2.470079 1_556
Li17 O21 1.968213 1_555
Li17 O24 1.998391 1_655
Li17 O19 2.138674 1_565
Li17 O35 2.157248 1_555
Li18 O30 1.968213 1_555
Li18 O27 1.998391 1_455
Li18 O32 2.138674 1_545
Li18 O16 2.157248 1_555
Li19 O20 2.014837 1_555
Li19 O26 2.050237 1_555
Li19 O22 2.073980 1_555
Li19 O33 2.470079 1_554
Li20 O37 1.969966 1_555
Li20 O22 2.002055 1_555
Li20 O30 2.013293 1_555
Li21 O39 1.960427 1_555
Li21 O24 1.979651 1_555
Li21 O34 2.033906 1_555
Li22 O47 1.973839 1_554
Li22 O33 2.028495 1_554
Li22 O26 2.033812 1_555
Li22 O41 2.117554 1_555
Li23 O24 1.963499 1_555
Li23 O35 2.066198 1_555
Li23 O39 2.302961 1_555
Li23 O29 2.535551 1_555
Li24 O43 1.879860 1_555
Li24 O36 1.989829 1_555
Li24 O29 2.064261 1_555
Li24 O31 2.634313 1_555
Li25 O40 1.973839 1_555
Li25 O34 2.028495 1_655
Li25 O44 2.033812 1_555
Li25 O28 2.117554 1_555
Li26 O32 1.969966 1_555
Li26 O46 2.002055 1_555
Li26 O38 2.013293 1_455
Li27 O43 1.966844 1_655
Li27 O36 1.975715 1_555
Li27 O49 1.989296 1_555
Li28 O48 2.014837 1_555
Li28 O44 2.050237 1_455
Li28 O46 2.073980 1_555
Li28 O34 2.470079 1_555
Li29 O38 1.968213 1_555
Li29 O42 1.998391 1_555
Li29 O37 2.138674 1_565
Li29 O0 2.157248 1_555
Li30 O34 1.961170 1_555
Li30 O40 2.030722 1_555
Li30 O39 2.121797 1_555
Li30 O48 2.248541 1_555
Li31 O33 1.961170 1_555
Li31 O47 2.030722 1_655
Li31 O49 2.121797 1_555
Li31 O20 2.248541 1_556
Li32 O45 1.966844 1_555
Li32 O50 1.975715 1_555
Li32 O39 1.989296 1_555
Li33 O45 1.879860 1_555
Li33 O50 1.989829 1_655
Li33 O5 2.064261 1_555
Li33 O3 2.634313 1_555
Li34 O9 1.963499 1_555
Li34 O51 2.066198 1_655
Li34 O49 2.302961 1_555
Li34 O5 2.535551 1_555
Li35 O49 1.960427 1_555
Li35 O9 1.979651 1_555
Li35 O33 2.033906 1_555
Bi0 O3 2.147535 1_455
Bi0 O11 2.260187 1_555
Bi0 O50 2.391651 1_555
Bi0 O7 2.414433 1_555
Bi0 O48 2.437005 1_555
Bi1 O8 2.051682 1_555
Bi1 O2 2.174464 1_555
Bi1 O4 2.229481 1_555
Bi1 O0 2.333072 1_555
Bi2 O5 2.108986 1_555
Bi2 O50 2.124678 1_555
Bi2 O51 2.129607 1_555
Bi2 O7 2.159677 1_555
Bi2 O13 2.219147 1_555
Bi3 O18 2.075577 1_556
Bi3 O10 2.174323 1_555
Bi3 O14 2.286748 1_555
Bi3 O41 2.325668 1_566
Bi4 O6 2.051682 1_555
Bi4 O12 2.174464 1_455
Bi4 O11 2.229481 1_555
Bi4 O16 2.333072 1_555
Bi5 O9 2.127488 1_565
Bi5 O14 2.174585 1_555
Bi5 O21 2.281760 1_555
Bi5 O10 2.379570 1_555
Bi6 O24 2.127488 1_545
Bi6 O19 2.174585 1_455
Bi6 O13 2.281760 1_555
Bi6 O23 2.379570 1_555
Bi7 O20 2.147535 1_555
Bi7 O47 2.260187 1_554
Bi7 O15 2.391651 1_555
Bi7 O26 2.414433 1_555
Bi7 O31 2.437005 1_554
Bi8 O17 2.075577 1_555
Bi8 O23 2.174323 1_655
Bi8 O19 2.286748 1_555
Bi8 O28 2.325668 1_545
Bi9 O22 2.108986 1_455
Bi9 O15 2.124678 1_555
Bi9 O16 2.129607 1_555
Bi9 O26 2.159677 1_555
Bi9 O30 2.219147 1_555
Bi10 O29 2.108986 1_655
Bi10 O36 2.124678 1_555
Bi10 O35 2.129607 1_555
Bi10 O25 2.159677 1_555
Bi10 O21 2.219147 1_555
Bi11 O34 2.075577 1_555
Bi11 O28 2.174323 1_455
Bi11 O32 2.286748 1_555
Bi11 O23 2.325668 1_565
Bi12 O31 2.147535 1_555
Bi12 O4 2.260187 1_556
Bi12 O36 2.391651 1_555
Bi12 O25 2.414433 1_555
Bi12 O20 2.437005 1_556
Bi13 O27 2.127488 1_565
Bi13 O32 2.174585 1_655
Bi13 O38 2.281760 1_555
Bi13 O28 2.379570 1_555
Bi14 O42 2.127488 1_545
Bi14 O37 2.174585 1_555
Bi14 O30 2.281760 1_555
Bi14 O41 2.379570 1_555
Bi15 O45 2.051682 1_555
Bi15 O39 2.174464 1_655
Bi15 O40 2.229481 1_555
Bi15 O35 2.333072 1_555
Bi16 O33 2.075577 1_554
Bi16 O41 2.174323 1_555
Bi16 O37 2.286748 1_555
Bi16 O10 2.325668 1_544
Bi17 O46 2.108986 1_555
Bi17 O1 2.124678 1_555
Bi17 O0 2.129607 1_555
Bi17 O44 2.159677 1_555
Bi17 O38 2.219147 1_555
Bi18 O43 2.051682 1_555
Bi18 O49 2.174464 1_555
Bi18 O47 2.229481 1_555
Bi18 O51 2.333072 1_555
Bi19 O48 2.147535 1_655
Bi19 O40 2.260187 1_555
Bi19 O1 2.391651 1_555
Bi19 O44 2.414433 1_555
Bi19 O3 2.437005 1_555
