# generated using pymatgen
data_K2TeH6SeO10
_symmetry_space_group_name_H-M   'P 1'
_cell_length_a   6.72287840
_cell_length_b   6.72287840
_cell_length_c   14.10299599
_cell_angle_alpha   75.33571709
_cell_angle_beta   75.33571709
_cell_angle_gamma   58.13258137
_symmetry_Int_Tables_number   1
_chemical_formula_structural   K2TeH6SeO10
_chemical_formula_sum   'K4 Te2 H12 Se2 O20'
_cell_volume   518.13552212
_cell_formula_units_Z   2
loop_
 _symmetry_equiv_pos_site_id
 _symmetry_equiv_pos_as_xyz
  1  'x, y, z'
loop_
 _atom_site_type_symbol
 _atom_site_label
 _atom_site_symmetry_multiplicity
 _atom_site_fract_x
 _atom_site_fract_y
 _atom_site_fract_z
 _atom_site_occupancy
  K  K0  1  0.13516400  0.56475900  0.14443200  1
  K  K1  1  0.43524100  0.86483600  0.35556800  1
  K  K2  1  0.86483600  0.43524100  0.85556800  1
  K  K3  1  0.56475900  0.13516400  0.64443200  1
  Te  Te0  1  0.00000000  0.50000000  0.50000000  1
  Te  Te1  1  0.50000000  0.00000000  0.00000000  1
  H  H0  1  0.88080700  0.92526100  0.43297100  1
  H  H1  1  0.07473900  0.11919300  0.06702900  1
  H  H2  1  0.11919300  0.07473900  0.56702900  1
  H  H3  1  0.92526100  0.88080700  0.93297100  1
  H  H4  1  0.94258700  0.37510600  0.36359600  1
  H  H5  1  0.62489400  0.05741300  0.13640400  1
  H  H6  1  0.05741300  0.62489400  0.63640400  1
  H  H7  1  0.37510600  0.94258700  0.86359600  1
  H  H8  1  0.37951100  0.40490600  0.39099200  1
  H  H9  1  0.59509400  0.62048900  0.10900800  1
  H  H10  1  0.62048900  0.59509400  0.60900800  1
  H  H11  1  0.40490600  0.37951100  0.89099200  1
  Se  Se0  1  0.77917000  0.22083000  0.25000000  1
  Se  Se1  1  0.22083000  0.77917000  0.75000000  1
  O  O0  1  0.71119800  0.48408400  0.55764600  1
  O  O1  1  0.51591600  0.28880200  0.94235400  1
  O  O2  1  0.28880200  0.51591600  0.44235400  1
  O  O3  1  0.48408400  0.71119800  0.05764600  1
  O  O4  1  0.06305400  0.47613700  0.63279700  1
  O  O5  1  0.52386300  0.93694600  0.86720300  1
  O  O6  1  0.93694600  0.52386300  0.36720300  1
  O  O7  1  0.47613700  0.06305400  0.13279700  1
  O  O8  1  0.81531200  0.84467200  0.49144200  1
  O  O9  1  0.15532800  0.18468800  0.00855800  1
  O  O10  1  0.18468800  0.15532800  0.50855800  1
  O  O11  1  0.84467200  0.81531200  0.99144200  1
  O  O12  1  0.51374100  0.24789600  0.29896100  1
  O  O13  1  0.75210400  0.48625900  0.20103900  1
  O  O14  1  0.48625900  0.75210400  0.70103900  1
  O  O15  1  0.24789600  0.51374100  0.79896100  1
  O  O16  1  0.89248900  0.04558600  0.16163700  1
  O  O17  1  0.95441400  0.10751100  0.33836300  1
  O  O18  1  0.10751100  0.95441400  0.83836300  1
  O  O19  1  0.04558600  0.89248900  0.66163700  1
loop_
_geom_bond_atom_site_label_1
_geom_bond_atom_site_label_2
_geom_bond_distance
_geom_bond_site_symmetry_2
K0 O13 2.780049 1_455
K0 O16 2.792477 1_465
K0 O11 2.850686 1_454
K0 O3 2.888693 1_555
K0 O7 2.929818 1_555
K0 O6 3.090582 1_455
K0 O12 3.240056 1_555
K1 O12 2.780049 1_565
K1 O17 2.792477 1_465
K1 O10 2.850686 1_565
K1 O2 2.888693 1_555
K1 O6 2.929818 1_555
K1 O7 3.090582 1_565
K1 O13 3.240056 1_555
K2 O15 2.780049 1_655
K2 O18 2.792477 1_645
K2 O9 2.850686 1_656
K2 O1 2.888693 1_555
K2 O5 2.929818 1_555
K2 O4 3.090582 1_655
K2 O14 3.240056 1_555
K3 O14 2.780049 1_545
K3 O19 2.792477 1_645
K3 O8 2.850686 1_545
K3 O0 2.888693 1_555
K3 O4 2.929818 1_555
K3 O5 3.090582 1_545
K3 O15 3.240056 1_555
H0 O8 1.004620 1_555
H0 O17 1.733363 1_565
H1 O9 1.004620 1_555
H1 O16 1.733363 1_455
H2 O10 1.004620 1_555
H2 O19 1.733363 1_545
H3 O11 1.004620 1_555
H3 O18 1.733363 1_655
H4 O6 0.994440 1_555
H5 O7 0.994440 1_555
H6 O4 0.994440 1_555
H7 O5 0.994440 1_555
H8 O2 1.011458 1_555
H8 O12 1.645589 1_555
H9 O3 1.011458 1_555
H9 O13 1.645589 1_555
H10 O0 1.011458 1_555
H10 O14 1.645589 1_555
H11 O1 1.011458 1_555
H11 O15 1.645589 1_555
O0 Te0 1.954035 1_655
O1 Te1 1.954035 1_556
O2 Te0 1.954035 1_555
O3 Te1 1.954035 1_565
O4 Te0 1.972555 1_555
O5 Te1 1.972555 1_566
O6 Te0 1.972555 1_655
O7 Te1 1.972555 1_555
O8 Te0 1.954967 1_655
O9 Te1 1.954967 1_555
O10 Te0 1.954967 1_555
O11 Te1 1.954967 1_566
O12 Se0 1.670645 1_555
O13 Se0 1.670645 1_555
O14 Se1 1.670645 1_555
O15 Se1 1.670645 1_555
O16 Se0 1.684140 1_555
O17 Se0 1.684140 1_555
O18 Se1 1.684140 1_555
O19 Se1 1.684140 1_555
