# generated using pymatgen
data_Li4V2(PO4)3
_symmetry_space_group_name_H-M   'P 1'
_cell_length_a   8.42956142
_cell_length_b   8.42956142
_cell_length_c   8.42956067
_cell_angle_alpha   65.23244940
_cell_angle_beta   65.23244940
_cell_angle_gamma   65.23244612
_symmetry_Int_Tables_number   1
_chemical_formula_structural   Li4V2(PO4)3
_chemical_formula_sum   'Li8 V4 P6 O24'
_cell_volume   471.84083179
_cell_formula_units_Z   2
loop_
 _symmetry_equiv_pos_site_id
 _symmetry_equiv_pos_as_xyz
  1  'x, y, z'
loop_
 _atom_site_type_symbol
 _atom_site_label
 _atom_site_symmetry_multiplicity
 _atom_site_fract_x
 _atom_site_fract_y
 _atom_site_fract_z
 _atom_site_occupancy
  Li  Li0  1  0.34383300  0.75000000  0.15616700  1
  Li  Li1  1  0.84383300  0.65616700  0.25000000  1
  Li  Li2  1  0.50000000  0.50000000  0.50000000  1
  Li  Li3  1  0.75000000  0.15616700  0.34383300  1
  Li  Li4  1  0.25000000  0.84383300  0.65616700  1
  Li  Li5  1  0.15616700  0.34383300  0.75000000  1
  Li  Li6  1  0.00000000  0.00000000  0.00000000  1
  Li  Li7  1  0.65616700  0.25000000  0.84383300  1
  V  V0  1  0.14399600  0.14399600  0.14399600  1
  V  V1  1  0.64399600  0.64399600  0.64399600  1
  V  V2  1  0.35600400  0.35600400  0.35600400  1
  V  V3  1  0.85600400  0.85600400  0.85600400  1
  P  P0  1  0.05341100  0.75000000  0.44658900  1
  P  P1  1  0.75000000  0.44658900  0.05341100  1
  P  P2  1  0.55341100  0.94658900  0.25000000  1
  P  P3  1  0.44658900  0.05341100  0.75000000  1
  P  P4  1  0.25000000  0.55341100  0.94658900  1
  P  P5  1  0.94658900  0.25000000  0.55341100  1
  O  O0  1  0.81157800  0.60600900  0.02503400  1
  O  O1  1  0.31157800  0.52503400  0.10600900  1
  O  O2  1  0.24235800  0.59925400  0.42780300  1
  O  O3  1  0.07219700  0.90074600  0.25764200  1
  O  O4  1  0.02503400  0.81157800  0.60600900  1
  O  O5  1  0.89399100  0.68842200  0.47496600  1
  O  O6  1  0.90074600  0.25764200  0.07219700  1
  O  O7  1  0.74235800  0.92780300  0.09925400  1
  O  O8  1  0.57219700  0.75764200  0.40074600  1
  O  O9  1  0.52503400  0.10600900  0.31157800  1
  O  O10  1  0.39399100  0.97496600  0.18842200  1
  O  O11  1  0.59925400  0.42780300  0.24235800  1
  O  O12  1  0.40074600  0.57219700  0.75764200  1
  O  O13  1  0.60600900  0.02503400  0.81157800  1
  O  O14  1  0.47496600  0.89399100  0.68842200  1
  O  O15  1  0.42780300  0.24235800  0.59925400  1
  O  O16  1  0.25764200  0.07219700  0.90074600  1
  O  O17  1  0.09925400  0.74235800  0.92780300  1
  O  O18  1  0.10600900  0.31157800  0.52503400  1
  O  O19  1  0.97496600  0.18842200  0.39399100  1
  O  O20  1  0.92780300  0.09925400  0.74235800  1
  O  O21  1  0.75764200  0.40074600  0.57219700  1
  O  O22  1  0.68842200  0.47496600  0.89399100  1
  O  O23  1  0.18842200  0.39399100  0.97496600  1
loop_
_geom_bond_atom_site_label_1
_geom_bond_atom_site_label_2
_geom_bond_distance
_geom_bond_site_symmetry_2
Li0 O2 2.102661 1_555
Li0 O3 2.102661 1_555
Li0 O1 2.247008 1_555
Li0 O10 2.247008 1_555
Li1 O7 2.102661 1_555
Li1 O8 2.102661 1_555
Li1 O5 2.247008 1_555
Li1 O0 2.247008 1_555
Li2 O12 2.223843 1_555
Li2 O11 2.223843 1_555
Li2 O21 2.223843 1_555
Li2 O2 2.223843 1_555
Li2 O8 2.223843 1_555
Li2 O15 2.223843 1_555
Li3 O6 2.102661 1_555
Li3 O11 2.102661 1_555
Li3 O19 2.247008 1_555
Li3 O9 2.247008 1_555
Li4 O17 2.102661 1_555
Li4 O12 2.102661 1_555
Li4 O4 2.247008 1_555
Li4 O14 2.247008 1_555
Li5 O16 2.102661 1_555
Li5 O15 2.102661 1_555
Li5 O23 2.247008 1_555
Li5 O18 2.247008 1_555
Li6 O3 2.223843 1_545
Li6 O20 2.223843 1_454
Li6 O6 2.223843 1_455
Li6 O17 2.223843 1_544
Li6 O16 2.223843 1_554
Li6 O7 2.223843 1_445
Li7 O21 2.102661 1_555
Li7 O20 2.102661 1_555
Li7 O22 2.247008 1_555
Li7 O13 2.247008 1_555
O0 P1 1.530901 1_555
O0 V3 2.075971 1_554
O1 P4 1.530900 1_554
O1 V2 2.075971 1_555
O2 P0 1.561443 1_555
O2 V2 2.096832 1_555
O3 P0 1.561443 1_555
O3 V0 2.096832 1_565
O4 P0 1.530900 1_555
O4 V3 2.075971 1_455
O5 P0 1.530901 1_655
O5 V1 2.075971 1_555
O6 P1 1.561443 1_555
O6 V0 2.096832 1_655
O7 P2 1.561443 1_555
O7 V3 2.096832 1_554
O8 P2 1.561443 1_555
O8 V1 2.096832 1_555
O9 P2 1.530901 1_545
O9 V2 2.075971 1_555
O10 P2 1.530901 1_555
O10 V0 2.075971 1_565
O11 P1 1.561443 1_555
O11 V2 2.096832 1_555
O12 P4 1.561443 1_555
O12 V1 2.096832 1_555
O13 P3 1.530901 1_555
O13 V3 2.075971 1_545
O14 P3 1.530901 1_565
O14 V1 2.075971 1_555
O15 P3 1.561443 1_555
O15 V2 2.096832 1_555
O16 P3 1.561443 1_555
O16 V0 2.096832 1_556
O17 P4 1.561443 1_555
O17 V3 2.096832 1_455
O18 P5 1.530901 1_455
O18 V2 2.075971 1_555
O19 P5 1.530900 1_555
O19 V0 2.075971 1_655
O20 P5 1.561443 1_555
O20 V3 2.096832 1_545
O21 P5 1.561443 1_555
O21 V1 2.096832 1_555
O22 P1 1.530900 1_556
O22 V1 2.075971 1_555
O23 P4 1.530901 1_555
O23 V0 2.075971 1_556
