# generated using pymatgen
data_Li8MnFe7(BO3)8
_symmetry_space_group_name_H-M   'P 1'
_cell_length_a   5.21893100
_cell_length_b   5.22749128
_cell_length_c   20.80410641
_cell_angle_alpha   91.73514127
_cell_angle_beta   89.14278579
_cell_angle_gamma   119.89879494
_symmetry_Int_Tables_number   1
_chemical_formula_structural   Li8MnFe7(BO3)8
_chemical_formula_sum   'Li8 Mn1 Fe7 B8 O24'
_cell_volume   491.81002834
_cell_formula_units_Z   1
loop_
 _symmetry_equiv_pos_site_id
 _symmetry_equiv_pos_as_xyz
  1  'x, y, z'
loop_
 _atom_site_type_symbol
 _atom_site_label
 _atom_site_symmetry_multiplicity
 _atom_site_fract_x
 _atom_site_fract_y
 _atom_site_fract_z
 _atom_site_occupancy
  Li  Li0  1  0.01953900  0.67296300  0.33325800  1
  Li  Li1  1  0.98143800  0.65406600  0.08362700  1
  Li  Li2  1  0.01608000  0.67015700  0.83492000  1
  Li  Li3  1  0.97770200  0.65559700  0.58239500  1
  Li  Li4  1  0.01380700  0.35527300  0.20791200  1
  Li  Li5  1  0.98777700  0.34434900  0.45816300  1
  Li  Li6  1  0.01491100  0.34511900  0.70828600  1
  Li  Li7  1  0.98793600  0.33968200  0.95858900  1
  Mn  Mn0  1  0.32637600  0.32625200  0.56750400  1
  Fe  Fe0  1  0.65301000  0.67186900  0.43923200  1
  Fe  Fe1  1  0.65152300  0.67228300  0.94030600  1
  Fe  Fe2  1  0.32165600  0.31876100  0.06614000  1
  Fe  Fe3  1  0.68168200  0.00178300  0.31533800  1
  Fe  Fe4  1  0.67978000  0.00211900  0.81574100  1
  Fe  Fe5  1  0.34615500  0.01175400  0.19111100  1
  Fe  Fe6  1  0.33010700  0.99648500  0.69251600  1
  B  B0  1  0.66435500  0.99565400  0.06324900  1
  B  B1  1  0.65971900  0.99740400  0.56311400  1
  B  B2  1  0.66600600  0.67138500  0.18780400  1
  B  B3  1  0.66824400  0.66902000  0.68975800  1
  B  B4  1  0.33792900  0.33236500  0.31255400  1
  B  B5  1  0.33647900  0.33119700  0.81361000  1
  B  B6  1  0.33582000  0.00865000  0.43674800  1
  B  B7  1  0.33126600  0.00296500  0.93825300  1
  O  O0  1  0.67916400  0.93538300  0.20823800  1
  O  O1  1  0.68390500  0.93380700  0.70924600  1
  O  O2  1  0.67728500  0.74061000  0.04824900  1
  O  O3  1  0.39888700  0.97717700  0.08238600  1
  O  O4  1  0.68114800  0.74705400  0.54721700  1
  O  O5  1  0.39140900  0.96741900  0.58427800  1
  O  O6  1  0.39096100  0.42250600  0.17353800  1
  O  O7  1  0.08095800  0.73850400  0.42994200  1
  O  O8  1  0.39601000  0.41951800  0.67530400  1
  O  O9  1  0.07792800  0.73301200  0.93138200  1
  O  O10  1  0.92187600  0.65801100  0.18047900  1
  O  O11  1  0.92286600  0.65006100  0.68254500  1
  O  O12  1  0.08484300  0.35526300  0.30695900  1
  O  O13  1  0.08376300  0.35392400  0.80792800  1
  O  O14  1  0.91699100  0.27112800  0.05737700  1
  O  O15  1  0.60360100  0.57875100  0.33122600  1
  O  O16  1  0.90583000  0.27424300  0.55642800  1
  O  O17  1  0.60194300  0.57678700  0.83240500  1
  O  O18  1  0.61178200  0.03410400  0.42206200  1
  O  O19  1  0.60809100  0.02916800  0.92336700  1
  O  O20  1  0.32490800  0.25930600  0.45746500  1
  O  O21  1  0.32280900  0.25493100  0.95862300  1
  O  O22  1  0.32263900  0.06259100  0.29807400  1
  O  O23  1  0.32110200  0.06078900  0.79895200  1
loop_
_geom_bond_atom_site_label_1
_geom_bond_atom_site_label_2
_geom_bond_distance
_geom_bond_site_symmetry_2
Li0 O12 1.917643 1_555
Li0 O15 1.972860 1_455
Li0 O22 2.007518 1_565
Li0 O7 2.033232 1_555
Li1 O14 1.920063 1_555
Li1 O3 1.983034 1_655
Li1 O2 2.009260 1_555
Li1 O10 2.035212 1_555
Li2 O13 1.921680 1_555
Li2 O17 1.965336 1_455
Li2 O23 2.019918 1_565
Li2 O9 2.028087 1_555
Li3 O16 1.897906 1_555
Li3 O5 1.952005 1_655
Li3 O4 1.988035 1_555
Li3 O11 2.097950 1_555
Li4 O6 1.947489 1_555
Li4 O10 1.969837 1_455
Li4 O0 2.011702 1_445
Li4 O12 2.099127 1_555
Li5 O18 1.960238 1_555
Li5 O7 1.972915 1_655
Li5 O20 2.017969 1_655
Li5 O16 2.087916 1_555
Li6 O8 1.944756 1_555
Li6 O11 1.970139 1_455
Li6 O1 1.976436 1_445
Li6 O13 2.104385 1_555
Li7 O19 1.965975 1_555
Li7 O9 1.966830 1_655
Li7 O21 2.005650 1_655
Li7 O14 2.092582 1_556
Mn0 O16 2.088208 1_455
Mn0 O4 2.101801 1_555
Mn0 O5 2.105581 1_545
Mn0 O8 2.276166 1_555
Mn0 O20 2.304906 1_555
Fe0 O20 2.018831 1_555
Fe0 O18 2.051582 1_565
Fe0 O7 2.088652 1_655
Fe0 O4 2.263140 1_555
Fe0 O15 2.275582 1_555
Fe1 O19 2.029745 1_565
Fe1 O21 2.036556 1_555
Fe1 O9 2.091520 1_655
Fe1 O2 2.258587 1_556
Fe1 O17 2.275073 1_555
Fe2 O14 2.009962 1_455
Fe2 O3 2.055067 1_545
Fe2 O2 2.096409 1_555
Fe2 O21 2.251894 1_554
Fe2 O6 2.274284 1_555
Fe3 O12 2.001103 1_655
Fe3 O15 2.075436 1_545
Fe3 O22 2.088566 1_555
Fe3 O0 2.243806 1_545
Fe3 O18 2.259611 1_555
Fe4 O13 1.999014 1_655
Fe4 O23 2.078108 1_555
Fe4 O17 2.090650 1_545
Fe4 O1 2.234927 1_545
Fe4 O19 2.276374 1_555
Fe5 O0 2.006408 1_545
Fe5 O10 2.068638 1_445
Fe5 O6 2.084042 1_555
Fe5 O22 2.241883 1_555
Fe5 O3 2.287122 1_545
Fe6 O11 1.998250 1_455
Fe6 O1 2.065704 1_555
Fe6 O8 2.103049 1_565
Fe6 O23 2.232916 1_565
Fe6 O5 2.280835 1_555
B0 O3 1.392748 1_555
B0 O14 1.392845 1_565
B0 O2 1.394035 1_555
B1 O16 1.384618 1_565
B1 O5 1.395049 1_555
B1 O4 1.397563 1_555
B2 O10 1.377555 1_555
B2 O0 1.400297 1_555
B2 O6 1.403126 1_555
B3 O11 1.386588 1_555
B3 O1 1.393271 1_555
B3 O8 1.397056 1_555
B4 O12 1.391242 1_555
B4 O15 1.392015 1_555
B4 O22 1.395958 1_555
B5 O13 1.389004 1_555
B5 O17 1.390368 1_555
B5 O23 1.399681 1_555
B6 O7 1.380007 1_545
B6 O20 1.394759 1_555
B6 O18 1.408386 1_555
B7 O9 1.375973 1_545
B7 O21 1.392844 1_555
B7 O19 1.412024 1_555
