# generated using pymatgen
data_LiCuBO3
_symmetry_space_group_name_H-M   'P 1'
_cell_length_a   5.16818700
_cell_length_b   5.24498900
_cell_length_c   16.81835200
_cell_angle_alpha   90.00000000
_cell_angle_beta   90.00000000
_cell_angle_gamma   90.00000000
_symmetry_Int_Tables_number   1
_chemical_formula_structural   LiCuBO3
_chemical_formula_sum   'Li8 Cu8 B8 O24'
_cell_volume   455.89647982
_cell_formula_units_Z   8
loop_
 _symmetry_equiv_pos_site_id
 _symmetry_equiv_pos_as_xyz
  1  'x, y, z'
loop_
 _atom_site_type_symbol
 _atom_site_label
 _atom_site_symmetry_multiplicity
 _atom_site_fract_x
 _atom_site_fract_y
 _atom_site_fract_z
 _atom_site_occupancy
  Li  Li0  1  0.25103900  0.50626500  0.76421700  1
  Li  Li1  1  0.24896100  0.00626500  0.76421700  1
  Li  Li2  1  0.75103900  0.50626500  0.73578300  1
  Li  Li3  1  0.74896100  0.00626500  0.73578300  1
  Li  Li4  1  0.25103900  0.99373500  0.26421700  1
  Li  Li5  1  0.24896100  0.49373500  0.26421700  1
  Li  Li6  1  0.75103900  0.99373500  0.23578300  1
  Li  Li7  1  0.74896100  0.49373500  0.23578300  1
  Cu  Cu0  1  0.99526700  0.31101100  0.56860800  1
  Cu  Cu1  1  0.50473300  0.81101100  0.56860800  1
  Cu  Cu2  1  0.00473300  0.81101100  0.93139200  1
  Cu  Cu3  1  0.49526700  0.31101100  0.93139200  1
  Cu  Cu4  1  0.99526700  0.18898900  0.06860800  1
  Cu  Cu5  1  0.50473300  0.68898900  0.06860800  1
  Cu  Cu6  1  0.49526700  0.18898900  0.43139200  1
  Cu  Cu7  1  0.00473300  0.68898900  0.43139200  1
  B  B0  1  0.48716100  0.29644500  0.62545900  1
  B  B1  1  0.01283900  0.79644500  0.62545900  1
  B  B2  1  0.98716100  0.29644500  0.87454100  1
  B  B3  1  0.51283900  0.79644500  0.87454100  1
  B  B4  1  0.48716100  0.20355500  0.12545900  1
  B  B5  1  0.01283900  0.70355500  0.12545900  1
  B  B6  1  0.98716100  0.20355500  0.37454100  1
  B  B7  1  0.51283900  0.70355500  0.37454100  1
  O  O0  1  0.66570700  0.48604300  0.60203900  1
  O  O1  1  0.83429300  0.98604300  0.60203900  1
  O  O2  1  0.14758000  0.66284900  0.56500600  1
  O  O3  1  0.35242000  0.16284900  0.56500600  1
  O  O4  1  0.95422600  0.25178800  0.79545600  1
  O  O5  1  0.54577400  0.75178800  0.79545600  1
  O  O6  1  0.45422600  0.25178800  0.70454400  1
  O  O7  1  0.04577400  0.75178800  0.70454400  1
  O  O8  1  0.64758000  0.66284900  0.93499400  1
  O  O9  1  0.85242000  0.16284900  0.93499400  1
  O  O10  1  0.16570700  0.48604300  0.89796100  1
  O  O11  1  0.33429300  0.98604300  0.89796100  1
  O  O12  1  0.66570700  0.01395700  0.10203900  1
  O  O13  1  0.83429300  0.51395700  0.10203900  1
  O  O14  1  0.14758000  0.83715100  0.06500600  1
  O  O15  1  0.35242000  0.33715100  0.06500600  1
  O  O16  1  0.95422600  0.24821200  0.29545600  1
  O  O17  1  0.54577400  0.74821200  0.29545600  1
  O  O18  1  0.45422600  0.24821200  0.20454400  1
  O  O19  1  0.04577400  0.74821200  0.20454400  1
  O  O20  1  0.64758000  0.83715100  0.43499400  1
  O  O21  1  0.85242000  0.33715100  0.43499400  1
  O  O22  1  0.16570700  0.01395700  0.39796100  1
  O  O23  1  0.33429300  0.51395700  0.39796100  1
loop_
_geom_bond_atom_site_label_1
_geom_bond_atom_site_label_2
_geom_bond_distance
_geom_bond_site_symmetry_2
Li0 O7 1.947037 1_555
Li0 O6 1.972675 1_555
Li0 O5 2.062680 1_555
Li0 O4 2.100154 1_455
Li0 O10 2.294631 1_555
Li1 O6 1.947037 1_555
Li1 O7 1.972675 1_545
Li1 O4 2.062680 1_455
Li1 O5 2.100154 1_545
Li1 O11 2.294631 1_545
Li2 O5 1.947037 1_555
Li2 O4 1.972675 1_555
Li2 O7 2.062680 1_655
Li2 O6 2.100154 1_555
Li2 O0 2.294631 1_555
Li3 O4 1.947037 1_555
Li3 O5 1.972675 1_545
Li3 O6 2.062680 1_555
Li3 O7 2.100154 1_645
Li3 O1 2.294631 1_545
Li4 O19 1.947037 1_555
Li4 O18 1.972675 1_565
Li4 O17 2.062680 1_555
Li4 O16 2.100154 1_465
Li4 O22 2.294631 1_565
Li5 O18 1.947037 1_555
Li5 O19 1.972675 1_555
Li5 O16 2.062680 1_455
Li5 O17 2.100154 1_555
Li5 O23 2.294631 1_555
Li6 O17 1.947037 1_555
Li6 O16 1.972675 1_565
Li6 O19 2.062680 1_655
Li6 O18 2.100154 1_565
Li6 O12 2.294631 1_565
Li7 O16 1.947037 1_555
Li7 O17 1.972675 1_555
Li7 O18 2.062680 1_555
Li7 O19 2.100154 1_655
Li7 O13 2.294631 1_555
Cu0 O1 1.978237 1_545
Cu0 O3 2.003664 1_655
Cu0 O2 2.007181 1_655
Cu0 O0 2.014923 1_555
Cu0 O21 2.369301 1_555
Cu1 O0 1.978237 1_555
Cu1 O2 2.003664 1_555
Cu1 O3 2.007181 1_565
Cu1 O1 2.014923 1_555
Cu1 O20 2.369301 1_555
Cu2 O10 1.978237 1_555
Cu2 O8 2.003664 1_455
Cu2 O9 2.007181 1_465
Cu2 O11 2.014923 1_555
Cu2 O14 2.369301 1_556
Cu3 O11 1.978237 1_545
Cu3 O9 2.003664 1_555
Cu3 O8 2.007181 1_555
Cu3 O10 2.014923 1_555
Cu3 O15 2.369301 1_556
Cu4 O13 1.978237 1_555
Cu4 O15 2.003664 1_655
Cu4 O14 2.007181 1_645
Cu4 O12 2.014923 1_555
Cu4 O9 2.369301 1_554
Cu5 O12 1.978237 1_565
Cu5 O14 2.003664 1_555
Cu5 O15 2.007181 1_555
Cu5 O13 2.014923 1_555
Cu5 O8 2.369301 1_554
Cu6 O23 1.978237 1_555
Cu6 O21 2.003664 1_555
Cu6 O20 2.007181 1_545
Cu6 O22 2.014923 1_555
Cu6 O3 2.369301 1_555
Cu7 O22 1.978237 1_565
Cu7 O20 2.003664 1_455
Cu7 O21 2.007181 1_455
Cu7 O23 2.014923 1_555
Cu7 O2 2.369301 1_555
B0 O6 1.361229 1_555
B0 O0 1.412636 1_555
B0 O3 1.417618 1_555
B1 O7 1.361229 1_555
B1 O1 1.412636 1_455
B1 O2 1.417618 1_555
B2 O4 1.361229 1_555
B2 O10 1.412636 1_655
B2 O9 1.417618 1_555
B3 O5 1.361229 1_555
B3 O11 1.412636 1_555
B3 O8 1.417618 1_555
B4 O18 1.361229 1_555
B4 O12 1.412636 1_555
B4 O15 1.417618 1_555
B5 O19 1.361229 1_555
B5 O13 1.412636 1_455
B5 O14 1.417618 1_555
B6 O16 1.361229 1_555
B6 O22 1.412636 1_655
B6 O21 1.417618 1_555
B7 O17 1.361229 1_555
B7 O23 1.412636 1_555
B7 O20 1.417618 1_555
