# generated using pymatgen
data_Mn13Cu11O32
_symmetry_space_group_name_H-M   'P 1'
_cell_length_a   6.03267779
_cell_length_b   6.03267779
_cell_length_c   19.68232296
_cell_angle_alpha   83.52652893
_cell_angle_beta   83.52652893
_cell_angle_gamma   58.74643313
_symmetry_Int_Tables_number   1
_chemical_formula_structural   Mn13Cu11O32
_chemical_formula_sum   'Mn13 Cu11 O32'
_cell_volume   607.20619401
_cell_formula_units_Z   1
loop_
 _symmetry_equiv_pos_site_id
 _symmetry_equiv_pos_as_xyz
  1  'x, y, z'
loop_
 _atom_site_type_symbol
 _atom_site_label
 _atom_site_symmetry_multiplicity
 _atom_site_fract_x
 _atom_site_fract_y
 _atom_site_fract_z
 _atom_site_occupancy
  Mn  Mn0  1  0.62552300  0.12593000  0.62431100  1
  Mn  Mn1  1  0.75087900  0.75087900  0.75055100  1
  Mn  Mn2  1  0.12593000  0.62552300  0.62431100  1
  Mn  Mn3  1  0.37509700  0.37509700  0.37572500  1
  Mn  Mn4  1  0.62490300  0.62490300  0.62427500  1
  Mn  Mn5  1  0.87407000  0.37447700  0.37568900  1
  Mn  Mn6  1  0.37447700  0.87407000  0.37568900  1
  Mn  Mn7  1  0.24912100  0.24912100  0.24944900  1
  Mn  Mn8  1  0.62537400  0.12603200  0.12439600  1
  Mn  Mn9  1  0.12603200  0.62537400  0.12439600  1
  Mn  Mn10  1  0.00000000  0.00000000  0.00000000  1
  Mn  Mn11  1  0.87396800  0.37462600  0.87560400  1
  Mn  Mn12  1  0.37462600  0.87396800  0.87560400  1
  Cu  Cu0  1  0.09706300  0.09706300  0.71910000  1
  Cu  Cu1  1  0.15116300  0.15116300  0.53357700  1
  Cu  Cu2  1  0.39914900  0.39914900  0.78333400  1
  Cu  Cu3  1  0.84883700  0.84883700  0.46642300  1
  Cu  Cu4  1  0.50000000  0.50000000  0.50000000  1
  Cu  Cu5  1  0.90293700  0.90293700  0.28090000  1
  Cu  Cu6  1  0.12495600  0.12495600  0.12428700  1
  Cu  Cu7  1  0.60085100  0.60085100  0.21666600  1
  Cu  Cu8  1  0.34942300  0.34942300  0.96743700  1
  Cu  Cu9  1  0.65057700  0.65057700  0.03256300  1
  Cu  Cu10  1  0.87504400  0.87504400  0.87571300  1
  O  O0  1  0.77837300  0.31855700  0.56911300  1
  O  O1  1  0.31875400  0.31875400  0.56838100  1
  O  O2  1  0.47690800  0.92847700  0.68257400  1
  O  O3  1  0.93022000  0.93022000  0.68159500  1
  O  O4  1  0.92847700  0.47690800  0.68257400  1
  O  O5  1  0.81828300  0.81828300  0.56794600  1
  O  O6  1  0.68144300  0.22162700  0.43088700  1
  O  O7  1  0.18171700  0.18171700  0.43205400  1
  O  O8  1  0.31855700  0.77837300  0.56911300  1
  O  O9  1  0.43254200  0.43254200  0.68070900  1
  O  O10  1  0.06978000  0.06978000  0.31840500  1
  O  O11  1  0.52309200  0.07152300  0.31742600  1
  O  O12  1  0.22162700  0.68144300  0.43088700  1
  O  O13  1  0.68124600  0.68124600  0.43161900  1
  O  O14  1  0.31536500  0.31536500  0.06937900  1
  O  O15  1  0.56745800  0.56745800  0.31929100  1
  O  O16  1  0.43556900  0.97687000  0.18341100  1
  O  O17  1  0.07152300  0.52309200  0.31742600  1
  O  O18  1  0.81466000  0.27544800  0.06598400  1
  O  O19  1  0.93451400  0.93451400  0.17984300  1
  O  O20  1  0.27544800  0.81466000  0.06598400  1
  O  O21  1  0.81960000  0.81960000  0.06739000  1
  O  O22  1  0.18040000  0.18040000  0.93261000  1
  O  O23  1  0.43153400  0.43153400  0.18087600  1
  O  O24  1  0.72455200  0.18534000  0.93401600  1
  O  O25  1  0.97687000  0.43556900  0.18341100  1
  O  O26  1  0.06548600  0.06548600  0.82015700  1
  O  O27  1  0.18534000  0.72455200  0.93401600  1
  O  O28  1  0.68463500  0.68463500  0.93062100  1
  O  O29  1  0.56443100  0.02313000  0.81658900  1
  O  O30  1  0.56846600  0.56846600  0.81912400  1
  O  O31  1  0.02313000  0.56443100  0.81658900  1
loop_
_geom_bond_atom_site_label_1
_geom_bond_atom_site_label_2
_geom_bond_distance
_geom_bond_site_symmetry_2
Mn0 O1 1.981579 1_555
Mn0 O9 1.986454 1_555
Mn0 O3 1.989761 1_545
Mn0 O5 1.990330 1_545
Mn0 O0 1.995561 1_555
Mn0 O2 2.026336 1_545
Mn1 O31 1.971511 1_655
Mn1 O29 1.971511 1_565
Mn1 O2 2.001900 1_555
Mn1 O4 2.001900 1_555
Mn1 O3 2.176114 1_555
Mn1 O30 2.197798 1_555
Mn2 O1 1.981579 1_555
Mn2 O9 1.986454 1_555
Mn2 O3 1.989761 1_455
Mn2 O5 1.990330 1_455
Mn2 O8 1.995561 1_555
Mn2 O4 2.026336 1_455
Mn3 O6 1.975274 1_555
Mn3 O12 1.975274 1_555
Mn3 O17 2.003468 1_555
Mn3 O11 2.003468 1_555
Mn3 O15 2.177873 1_555
Mn3 O7 2.186322 1_555
Mn4 O0 1.975274 1_555
Mn4 O8 1.975274 1_555
Mn4 O4 2.003468 1_555
Mn4 O2 2.003468 1_555
Mn4 O9 2.177873 1_555
Mn4 O5 2.186322 1_555
Mn5 O13 1.981579 1_555
Mn5 O15 1.986454 1_555
Mn5 O10 1.989761 1_655
Mn5 O7 1.990330 1_655
Mn5 O6 1.995561 1_555
Mn5 O17 2.026336 1_655
Mn6 O13 1.981579 1_555
Mn6 O15 1.986454 1_555
Mn6 O10 1.989761 1_565
Mn6 O7 1.990330 1_565
Mn6 O12 1.995561 1_555
Mn6 O11 2.026336 1_565
Mn7 O25 1.971511 1_455
Mn7 O16 1.971511 1_545
Mn7 O11 2.001900 1_555
Mn7 O17 2.001900 1_555
Mn7 O10 2.176114 1_555
Mn7 O23 2.197798 1_555
Mn8 O23 1.983029 1_555
Mn8 O14 1.983935 1_555
Mn8 O19 1.985614 1_545
Mn8 O21 1.993193 1_545
Mn8 O18 1.994127 1_555
Mn8 O16 2.000898 1_545
Mn9 O23 1.983029 1_555
Mn9 O14 1.983935 1_555
Mn9 O19 1.985614 1_455
Mn9 O21 1.993193 1_455
Mn9 O20 1.994127 1_555
Mn9 O25 2.000898 1_455
Mn10 O20 1.982252 1_545
Mn10 O18 1.982252 1_455
Mn10 O27 1.982252 1_544
Mn10 O24 1.982252 1_454
Mn10 O22 2.169352 1_554
Mn10 O21 2.169352 1_445
Mn11 O30 1.983029 1_555
Mn11 O28 1.983935 1_555
Mn11 O26 1.985614 1_655
Mn11 O22 1.993193 1_655
Mn11 O24 1.994127 1_555
Mn11 O31 2.000898 1_655
Mn12 O30 1.983029 1_555
Mn12 O28 1.983935 1_555
Mn12 O26 1.985614 1_565
Mn12 O22 1.993193 1_565
Mn12 O27 1.994127 1_555
Mn12 O29 2.000898 1_565
Cu0 O26 1.973733 1_555
Cu0 O3 1.989301 1_445
Cu0 O4 2.043827 1_455
Cu0 O2 2.043827 1_545
Cu1 O1 1.971440 1_555
Cu1 O7 1.982408 1_555
Cu1 O8 2.003659 1_545
Cu1 O0 2.003659 1_455
Cu2 O30 1.997494 1_555
Cu2 O9 2.004934 1_555
Cu2 O31 2.008396 1_555
Cu2 O29 2.008396 1_555
Cu3 O13 1.971440 1_555
Cu3 O5 1.982408 1_555
Cu3 O12 2.003659 1_655
Cu3 O6 2.003659 1_565
Cu4 O8 2.034867 1_555
Cu4 O0 2.034867 1_555
Cu4 O12 2.034867 1_555
Cu4 O6 2.034867 1_555
Cu4 O1 2.186176 1_555
Cu4 O13 2.186176 1_555
Cu5 O19 1.973733 1_555
Cu5 O10 1.989301 1_665
Cu5 O11 2.043827 1_565
Cu5 O17 2.043827 1_655
Cu6 O20 2.032522 1_545
Cu6 O18 2.032522 1_455
Cu6 O25 2.045423 1_455
Cu6 O16 2.045423 1_545
Cu6 O14 2.148527 1_555
Cu6 O19 2.153736 1_445
Cu7 O23 1.997494 1_555
Cu7 O15 2.004934 1_555
Cu7 O25 2.008396 1_555
Cu7 O16 2.008396 1_555
Cu8 O22 1.985790 1_555
Cu8 O14 1.992030 1_556
Cu8 O27 2.005135 1_555
Cu8 O24 2.005135 1_555
Cu9 O21 1.985790 1_555
Cu9 O28 1.992030 1_554
Cu9 O20 2.005135 1_555
Cu9 O18 2.005135 1_555
Cu10 O27 2.032522 1_655
Cu10 O24 2.032522 1_565
Cu10 O31 2.045423 1_655
Cu10 O29 2.045423 1_565
Cu10 O28 2.148527 1_555
Cu10 O26 2.153736 1_665
