# generated using pymatgen
data_Ba3SrI8
_symmetry_space_group_name_H-M   'P 1'
_cell_length_a   8.27683435
_cell_length_b   10.13253565
_cell_length_c   8.27683435
_cell_angle_alpha   65.89384099
_cell_angle_beta   90.00000000
_cell_angle_gamma   114.10615901
_symmetry_Int_Tables_number   1
_chemical_formula_structural   Ba3SrI8
_chemical_formula_sum   'Ba3 Sr1 I8'
_cell_volume   566.63721978
_cell_formula_units_Z   1
loop_
 _symmetry_equiv_pos_site_id
 _symmetry_equiv_pos_as_xyz
  1  'x, y, z'
loop_
 _atom_site_type_symbol
 _atom_site_label
 _atom_site_symmetry_multiplicity
 _atom_site_fract_x
 _atom_site_fract_y
 _atom_site_fract_z
 _atom_site_occupancy
  Ba  Ba0  1  0.25000000  0.50000000  0.25000000  1
  Ba  Ba1  1  0.50000000  -0.00000000  0.50000000  1
  Ba  Ba2  1  0.75000000  0.50000000  0.75000000  1
  Sr  Sr0  1  -0.00000000  -0.00000000  0.00000000  1
  I  I0  1  0.87748391  0.24568540  0.12251609  1
  I  I1  1  0.36820049  0.24568540  0.12251609  1
  I  I2  1  0.63179951  0.75431560  0.36820049  1
  I  I3  1  0.12251609  0.75431560  0.36820049  1
  I  I4  1  0.87748391  0.24568540  0.63179951  1
  I  I5  1  0.36820049  0.24568540  0.63179951  1
  I  I6  1  0.12251609  0.75431560  0.87748391  1
  I  I7  1  0.63179951  0.75431560  0.87748391  1
loop_
_geom_bond_atom_site_label_1
_geom_bond_atom_site_label_2
_geom_bond_distance
_geom_bond_site_symmetry_2
Ba0 I1 3.604301 1_555
Ba0 I0 3.604306 1_455
Ba0 I5 3.604306 1_555
Ba0 I4 3.604311 1_455
Ba0 I7 3.604311 1_554
Ba0 I2 3.604311 1_555
Ba0 I6 3.604311 1_554
Ba0 I3 3.604311 1_555
Ba1 I0 3.607463 1_555
Ba1 I6 3.607463 1_545
Ba1 I3 3.607463 1_545
Ba1 I7 3.607463 1_545
Ba1 I2 3.607463 1_545
Ba1 I1 3.607468 1_555
Ba1 I4 3.607468 1_555
Ba1 I5 3.607472 1_555
Ba2 I4 3.604301 1_555
Ba2 I0 3.604306 1_556
Ba2 I5 3.604306 1_555
Ba2 I1 3.604311 1_556
Ba2 I3 3.604311 1_655
Ba2 I2 3.604311 1_555
Ba2 I6 3.604311 1_655
Ba2 I7 3.604311 1_555
I0 Sr0 3.518222 1_655
I1 Sr0 3.518217 1_555
I2 Sr0 3.518212 1_665
I3 Sr0 3.518212 1_565
I4 Sr0 3.518217 1_656
I5 Sr0 3.518212 1_556
I6 Sr0 3.518212 1_566
I7 Sr0 3.518212 1_666
