# generated using pymatgen
data_Li4Ti3Mn2V3O16
_symmetry_space_group_name_H-M   'P 1'
_cell_length_a   5.88139209
_cell_length_b   5.88139209
_cell_length_c   9.77697907
_cell_angle_alpha   89.71743911
_cell_angle_beta   89.71743911
_cell_angle_gamma   59.71668242
_symmetry_Int_Tables_number   1
_chemical_formula_structural   Li4Ti3Mn2V3O16
_chemical_formula_sum   'Li4 Ti3 Mn2 V3 O16'
_cell_volume   292.03950516
_cell_formula_units_Z   1
loop_
 _symmetry_equiv_pos_site_id
 _symmetry_equiv_pos_as_xyz
  1  'x, y, z'
loop_
 _atom_site_type_symbol
 _atom_site_label
 _atom_site_symmetry_multiplicity
 _atom_site_fract_x
 _atom_site_fract_y
 _atom_site_fract_z
 _atom_site_occupancy
  Li  Li0  1  0.32866400  0.32866400  0.89455400  1
  Li  Li1  1  0.00342000  0.00342000  0.99547300  1
  Li  Li2  1  0.00121300  0.00121300  0.49847000  1
  Li  Li3  1  0.66581000  0.66581000  0.39329900  1
  Ti  Ti0  1  0.66167100  0.16513900  0.21839300  1
  Ti  Ti1  1  0.16513900  0.66167100  0.21839300  1
  Ti  Ti2  1  0.83139100  0.83139100  0.72051100  1
  Mn  Mn0  1  0.32921200  0.32921200  0.49549200  1
  Mn  Mn1  1  0.66706100  0.66706100  0.99208500  1
  V  V0  1  0.16905800  0.16905800  0.20796600  1
  V  V1  1  0.34563000  0.81358700  0.71174800  1
  V  V2  1  0.81358700  0.34563000  0.71174800  1
  O  O0  1  0.67684000  0.16260700  0.60423900  1
  O  O1  1  0.48272900  0.48272900  0.33055300  1
  O  O2  1  0.33725200  0.33725200  0.10398600  1
  O  O3  1  0.00054100  0.00054100  0.31448700  1
  O  O4  1  0.99967100  0.99967100  0.81132500  1
  O  O5  1  0.16260700  0.67684000  0.60423900  1
  O  O6  1  0.48105000  0.03542500  0.33045700  1
  O  O7  1  0.03542500  0.48105000  0.33045700  1
  O  O8  1  0.84318300  0.84318300  0.10413000  1
  O  O9  1  0.15578800  0.15578800  0.60976600  1
  O  O10  1  0.95816600  0.51330200  0.83148900  1
  O  O11  1  0.51330200  0.95816600  0.83148900  1
  O  O12  1  0.66761600  0.66761600  0.60173300  1
  O  O13  1  0.84713100  0.32232000  0.10478300  1
  O  O14  1  0.51240500  0.51240500  0.83062500  1
  O  O15  1  0.32232000  0.84713100  0.10478300  1
loop_
_geom_bond_atom_site_label_1
_geom_bond_atom_site_label_2
_geom_bond_distance
_geom_bond_site_symmetry_2
Li0 O14 1.972501 1_555
Li0 O10 1.981862 1_455
Li0 O11 1.981862 1_545
Li0 O2 2.049983 1_556
Li1 O4 1.801035 1_445
Li1 O13 1.943241 1_456
Li1 O15 1.943241 1_546
Li1 O8 1.944442 1_446
Li2 O3 1.798850 1_555
Li2 O9 1.920965 1_555
Li2 O0 1.942627 1_455
Li2 O5 1.942627 1_545
Li3 O1 1.969161 1_555
Li3 O7 1.973556 1_655
Li3 O6 1.973556 1_565
Li3 O12 2.038043 1_555
Mn0 O5 2.064305 1_555
Mn0 O0 2.064305 1_555
Mn0 O9 2.087036 1_555
Mn0 O6 2.200824 1_555
Mn0 O7 2.200824 1_555
Mn0 O1 2.241517 1_555
Mn1 O13 2.066511 1_556
Mn1 O15 2.066511 1_556
Mn1 O8 2.109622 1_556
Mn1 O10 2.154159 1_555
Mn1 O11 2.154159 1_555
Mn1 O14 2.238175 1_555
O0 V2 1.950132 1_555
O0 Ti2 2.028740 1_545
O1 Ti0 1.955826 1_555
O1 Ti1 1.955826 1_555
O2 V0 1.989388 1_555
O2 Ti0 1.994585 1_555
O2 Ti1 1.994585 1_555
O3 Ti1 1.963569 1_545
O3 Ti0 1.963569 1_455
O3 V0 2.004891 1_555
O4 Ti2 1.937188 1_555
O4 V2 2.007674 1_565
O4 V1 2.007674 1_655
O5 V1 1.950132 1_555
O5 Ti2 2.028740 1_455
O6 Ti0 1.925768 1_555
O6 V0 1.994206 1_555
O7 Ti1 1.925768 1_555
O7 V0 1.994206 1_555
O8 Ti1 1.985841 1_655
O8 Ti0 1.985841 1_565
O9 V2 2.004059 1_455
O9 V1 2.004059 1_545
O10 Ti2 1.953017 1_555
O10 V2 1.983181 1_555
O11 Ti2 1.953017 1_555
O11 V1 1.983181 1_555
O12 V1 1.956914 1_555
O12 V2 1.956914 1_555
O12 Ti2 2.040099 1_555
O13 V0 1.924501 1_655
O13 Ti0 2.067135 1_555
O14 V1 1.920754 1_555
O14 V2 1.920754 1_555
O15 V0 1.924501 1_565
O15 Ti1 2.067135 1_555
