# generated using pymatgen
data_Cu10Bi25O48
_symmetry_space_group_name_H-M   'P 1'
_cell_length_a   8.51255100
_cell_length_b   8.51255100
_cell_length_c   18.13487300
_cell_angle_alpha   90.00000000
_cell_angle_beta   90.00000000
_cell_angle_gamma   90.00000000
_symmetry_Int_Tables_number   1
_chemical_formula_structural   Cu10Bi25O48
_chemical_formula_sum   'Cu10 Bi25 O48'
_cell_volume   1314.11681444
_cell_formula_units_Z   1
loop_
 _symmetry_equiv_pos_site_id
 _symmetry_equiv_pos_as_xyz
  1  'x, y, z'
loop_
 _atom_site_type_symbol
 _atom_site_label
 _atom_site_symmetry_multiplicity
 _atom_site_fract_x
 _atom_site_fract_y
 _atom_site_fract_z
 _atom_site_occupancy
  Cu  Cu0  1  0.00000000  0.00000000  0.17426800  1
  Cu  Cu1  1  0.00000000  0.00000000  0.52494700  1
  Cu  Cu2  1  0.00000000  0.00000000  0.69210400  1
  Cu  Cu3  1  0.00000000  0.00000000  0.86115300  1
  Cu  Cu4  1  0.50000000  0.50000000  0.14118800  1
  Cu  Cu5  1  0.50000000  0.50000000  0.30799100  1
  Cu  Cu6  1  0.50000000  0.50000000  0.47684200  1
  Cu  Cu7  1  0.50000000  0.50000000  0.64102400  1
  Cu  Cu8  1  0.50000000  0.50000000  0.80506100  1
  Cu  Cu9  1  0.50000000  0.50000000  0.97110300  1
  Bi  Bi0  1  0.83466200  0.31715200  0.07842100  1
  Bi  Bi1  1  0.81904500  0.65745200  0.24410800  1
  Bi  Bi2  1  0.82513000  0.33045000  0.41946000  1
  Bi  Bi3  1  0.82749600  0.32991400  0.75208700  1
  Bi  Bi4  1  0.82860300  0.67154300  0.58561100  1
  Bi  Bi5  1  0.83343800  0.66768100  0.91912500  1
  Bi  Bi6  1  0.00000000  0.00000000  0.32240500  1
  Bi  Bi7  1  0.16533800  0.68284800  0.07842100  1
  Bi  Bi8  1  0.18095500  0.34254800  0.24410800  1
  Bi  Bi9  1  0.17139700  0.32845700  0.58561100  1
  Bi  Bi10  1  0.17487000  0.66955000  0.41946000  1
  Bi  Bi11  1  0.16656200  0.33231900  0.91912500  1
  Bi  Bi12  1  0.17250400  0.67008600  0.75208700  1
  Bi  Bi13  1  0.34254800  0.81904500  0.24410800  1
  Bi  Bi14  1  0.31715200  0.16533800  0.07842100  1
  Bi  Bi15  1  0.33045000  0.17487000  0.41946000  1
  Bi  Bi16  1  0.33231900  0.83343800  0.91912500  1
  Bi  Bi17  1  0.32845700  0.82860300  0.58561100  1
  Bi  Bi18  1  0.32991400  0.17250400  0.75208700  1
  Bi  Bi19  1  0.65745200  0.18095500  0.24410800  1
  Bi  Bi20  1  0.67154300  0.17139700  0.58561100  1
  Bi  Bi21  1  0.66768100  0.16656200  0.91912500  1
  Bi  Bi22  1  0.68284800  0.83466200  0.07842100  1
  Bi  Bi23  1  0.66955000  0.82513000  0.41946000  1
  Bi  Bi24  1  0.67008600  0.82749600  0.75208700  1
  O  O0  1  0.79614700  0.89467700  0.19207500  1
  O  O1  1  0.76340700  0.10174900  0.03003900  1
  O  O2  1  0.79347900  0.89803000  0.52925200  1
  O  O3  1  0.77890400  0.10344800  0.36764300  1
  O  O4  1  0.79519900  0.10266400  0.69621300  1
  O  O5  1  0.79555300  0.89734700  0.86421900  1
  O  O6  1  0.89825100  0.76340700  0.03003900  1
  O  O7  1  0.89467700  0.20385300  0.19207500  1
  O  O8  1  0.89655200  0.77890400  0.36764300  1
  O  O9  1  0.89733600  0.79519900  0.69621300  1
  O  O10  1  0.89734700  0.20444700  0.86421900  1
  O  O11  1  0.89803000  0.20652100  0.52925200  1
  O  O12  1  0.10532300  0.79614700  0.19207500  1
  O  O13  1  0.10197000  0.79347900  0.52925200  1
  O  O14  1  0.10265300  0.79555300  0.86421900  1
  O  O15  1  0.10174900  0.23659300  0.03003900  1
  O  O16  1  0.10344800  0.22109600  0.36764300  1
  O  O17  1  0.10266400  0.20480100  0.69621300  1
  O  O18  1  0.23659300  0.89825100  0.03003900  1
  O  O19  1  0.20385300  0.10532300  0.19207500  1
  O  O20  1  0.22109600  0.89655200  0.36764300  1
  O  O21  1  0.20652100  0.10197000  0.52925200  1
  O  O22  1  0.20480100  0.89733600  0.69621300  1
  O  O23  1  0.20444700  0.10265300  0.86421900  1
  O  O24  1  0.29883000  0.40119200  0.13834900  1
  O  O25  1  0.29415600  0.40220900  0.47204100  1
  O  O26  1  0.29622500  0.40259800  0.80113200  1
  O  O27  1  0.29340000  0.59813600  0.30119700  1
  O  O28  1  0.29322400  0.59950800  0.63711900  1
  O  O29  1  0.29724700  0.59754700  0.96707100  1
  O  O30  1  0.40186400  0.29340000  0.30119700  1
  O  O31  1  0.40049200  0.29322400  0.63711900  1
  O  O32  1  0.40245300  0.29724700  0.96707100  1
  O  O33  1  0.40119200  0.70117000  0.13834900  1
  O  O34  1  0.40220900  0.70584400  0.47204100  1
  O  O35  1  0.40259800  0.70377500  0.80113200  1
  O  O36  1  0.59880800  0.29883000  0.13834900  1
  O  O37  1  0.59779100  0.29415600  0.47204100  1
  O  O38  1  0.59740200  0.29622500  0.80113200  1
  O  O39  1  0.59813600  0.70660000  0.30119700  1
  O  O40  1  0.59950800  0.70677600  0.63711900  1
  O  O41  1  0.59754700  0.70275300  0.96707100  1
  O  O42  1  0.70660000  0.40186400  0.30119700  1
  O  O43  1  0.70677600  0.40049200  0.63711900  1
  O  O44  1  0.70117000  0.59880800  0.13834900  1
  O  O45  1  0.70584400  0.59779100  0.47204100  1
  O  O46  1  0.70377500  0.59740200  0.80113200  1
  O  O47  1  0.70275300  0.40245300  0.96707100  1
loop_
_geom_bond_atom_site_label_1
_geom_bond_atom_site_label_2
_geom_bond_distance
_geom_bond_site_symmetry_2
Cu0 O19 1.979751 1_555
Cu0 O7 1.979751 1_455
Cu0 O0 1.979751 1_445
Cu0 O12 1.979751 1_545
Cu1 O11 1.962192 1_455
Cu1 O21 1.962192 1_555
Cu1 O2 1.962192 1_445
Cu1 O13 1.962192 1_545
Cu2 O17 1.951584 1_555
Cu2 O4 1.951584 1_455
Cu2 O22 1.951584 1_545
Cu2 O9 1.951584 1_445
Cu3 O10 1.948219 1_455
Cu3 O23 1.948219 1_555
Cu3 O5 1.948219 1_445
Cu3 O14 1.948219 1_545
Cu4 O24 1.908577 1_555
Cu4 O36 1.908577 1_555
Cu4 O33 1.908577 1_555
Cu4 O44 1.908577 1_555
Cu5 O39 1.950911 1_555
Cu5 O30 1.950911 1_555
Cu5 O27 1.950911 1_555
Cu5 O42 1.950911 1_555
Cu6 O34 1.941896 1_555
Cu6 O45 1.941896 1_555
Cu6 O37 1.941896 1_555
Cu6 O25 1.941896 1_555
Cu7 O40 1.954689 1_555
Cu7 O28 1.954689 1_555
Cu7 O43 1.954689 1_555
Cu7 O31 1.954689 1_555
Cu8 O46 1.923939 1_555
Cu8 O35 1.923939 1_555
Cu8 O38 1.923939 1_555
Cu8 O26 1.923939 1_555
Cu9 O41 1.916704 1_555
Cu9 O29 1.916704 1_555
Cu9 O47 1.916704 1_555
Cu9 O32 1.916704 1_555
Bi0 O1 2.121308 1_555
Bi0 O36 2.288311 1_555
Bi0 O7 2.332236 1_555
Bi0 O47 2.421936 1_554
Bi0 O15 2.531664 1_655
Bi1 O39 2.187045 1_555
Bi1 O44 2.221373 1_555
Bi1 O0 2.237484 1_555
Bi1 O8 2.554036 1_555
Bi1 O42 2.592637 1_555
Bi2 O37 2.179414 1_555
Bi2 O3 2.184470 1_555
Bi2 O11 2.337169 1_555
Bi2 O42 2.446896 1_555
Bi2 O45 2.668222 1_555
Bi2 O16 2.713422 1_655
Bi3 O38 2.170201 1_555
Bi3 O4 2.201023 1_555
Bi3 O10 2.372636 1_555
Bi3 O43 2.400818 1_555
Bi3 O46 2.661770 1_555
Bi3 O17 2.765457 1_655
Bi4 O40 2.183047 1_555
Bi4 O2 2.202527 1_555
Bi4 O9 2.339531 1_555
Bi4 O45 2.393329 1_555
Bi4 O43 2.696630 1_555
Bi4 O13 2.745395 1_655
Bi5 O41 2.208474 1_555
Bi5 O5 2.217576 1_555
Bi5 O6 2.239239 1_556
Bi5 O46 2.480906 1_555
Bi5 O47 2.662913 1_555
Bi5 O14 2.725478 1_655
Bi6 O16 2.234002 1_555
Bi6 O20 2.234002 1_545
Bi6 O3 2.234002 1_455
Bi6 O8 2.234002 1_445
Bi7 O18 2.121308 1_555
Bi7 O33 2.288311 1_555
Bi7 O12 2.332236 1_555
Bi7 O29 2.421936 1_554
Bi7 O6 2.531664 1_455
Bi8 O30 2.187045 1_555
Bi8 O24 2.221373 1_555
Bi8 O19 2.237484 1_555
Bi8 O16 2.554036 1_555
Bi8 O27 2.592637 1_555
Bi9 O31 2.183047 1_555
Bi9 O21 2.202527 1_555
Bi9 O17 2.339531 1_555
Bi9 O25 2.393329 1_555
Bi9 O28 2.696630 1_555
Bi9 O11 2.745395 1_455
Bi10 O34 2.179414 1_555
Bi10 O20 2.184470 1_555
Bi10 O13 2.337169 1_555
Bi10 O27 2.446896 1_555
Bi10 O25 2.668222 1_555
Bi10 O8 2.713422 1_455
Bi11 O32 2.208474 1_555
Bi11 O23 2.217576 1_555
Bi11 O15 2.239239 1_556
Bi11 O26 2.480906 1_555
Bi11 O29 2.662913 1_555
Bi11 O10 2.725478 1_455
Bi12 O35 2.170201 1_555
Bi12 O22 2.201023 1_555
Bi12 O14 2.372636 1_555
Bi12 O28 2.400818 1_555
Bi12 O26 2.661770 1_555
Bi12 O9 2.765457 1_455
Bi13 O27 2.187045 1_555
Bi13 O33 2.221373 1_555
Bi13 O12 2.237484 1_555
Bi13 O20 2.554036 1_555
Bi13 O39 2.592637 1_555
Bi14 O15 2.121308 1_555
Bi14 O24 2.288311 1_555
Bi14 O19 2.332236 1_555
Bi14 O32 2.421936 1_554
Bi14 O18 2.531664 1_545
Bi15 O25 2.179414 1_555
Bi15 O16 2.184470 1_555
Bi15 O21 2.337169 1_555
Bi15 O30 2.446896 1_555
Bi15 O37 2.668222 1_555
Bi15 O20 2.713422 1_545
Bi16 O29 2.208474 1_555
Bi16 O14 2.217576 1_555
Bi16 O18 2.239239 1_556
Bi16 O35 2.480906 1_555
Bi16 O41 2.662913 1_555
Bi16 O23 2.725478 1_565
Bi17 O28 2.183047 1_555
Bi17 O13 2.202527 1_555
Bi17 O22 2.339531 1_555
Bi17 O34 2.393329 1_555
Bi17 O40 2.696630 1_555
Bi17 O21 2.745395 1_565
Bi18 O26 2.170201 1_555
Bi18 O17 2.201023 1_555
Bi18 O23 2.372636 1_555
Bi18 O31 2.400818 1_555
Bi18 O38 2.661770 1_555
Bi18 O22 2.765457 1_545
Bi19 O42 2.187045 1_555
Bi19 O36 2.221373 1_555
Bi19 O7 2.237484 1_555
Bi19 O3 2.554036 1_555
Bi19 O30 2.592637 1_555
Bi20 O43 2.183047 1_555
Bi20 O11 2.202527 1_555
Bi20 O4 2.339531 1_555
Bi20 O37 2.393329 1_555
Bi20 O31 2.696630 1_555
Bi20 O2 2.745395 1_545
Bi21 O47 2.208474 1_555
Bi21 O10 2.217576 1_555
Bi21 O1 2.239239 1_556
Bi21 O38 2.480906 1_555
Bi21 O32 2.662913 1_555
Bi21 O5 2.725478 1_545
Bi22 O6 2.121308 1_555
Bi22 O44 2.288311 1_555
Bi22 O0 2.332236 1_555
Bi22 O41 2.421936 1_554
Bi22 O1 2.531664 1_565
Bi23 O45 2.179414 1_555
Bi23 O8 2.184470 1_555
Bi23 O2 2.337169 1_555
Bi23 O39 2.446896 1_555
Bi23 O34 2.668222 1_555
Bi23 O3 2.713422 1_565
Bi24 O46 2.170201 1_555
Bi24 O9 2.201023 1_555
Bi24 O5 2.372636 1_555
Bi24 O40 2.400818 1_555
Bi24 O35 2.661770 1_555
Bi24 O4 2.765457 1_565
