# generated using pymatgen
data_Li2Mn3(BO3)3
_symmetry_space_group_name_H-M   'P 1'
_cell_length_a   6.34822200
_cell_length_b   8.23226503
_cell_length_c   14.72675328
_cell_angle_alpha   90.00898127
_cell_angle_beta   102.34047637
_cell_angle_gamma   90.00467010
_symmetry_Int_Tables_number   1
_chemical_formula_structural   Li2Mn3(BO3)3
_chemical_formula_sum   'Li8 Mn12 B12 O36'
_cell_volume   751.84145109
_cell_formula_units_Z   4
loop_
 _symmetry_equiv_pos_site_id
 _symmetry_equiv_pos_as_xyz
  1  'x, y, z'
loop_
 _atom_site_type_symbol
 _atom_site_label
 _atom_site_symmetry_multiplicity
 _atom_site_fract_x
 _atom_site_fract_y
 _atom_site_fract_z
 _atom_site_occupancy
  Li  Li0  1  0.25332900  0.70891100  0.01064600  1
  Li  Li1  1  0.75445100  0.71075900  0.00923100  1
  Li  Li2  1  0.57293900  0.65698400  0.63932000  1
  Li  Li3  1  0.92457300  0.63038800  0.35046200  1
  Li  Li4  1  0.00751200  0.21066200  0.51060000  1
  Li  Li5  1  0.50595000  0.20790900  0.51005300  1
  Li  Li6  1  0.31932300  0.15859600  0.14048200  1
  Li  Li7  1  0.67370400  0.12957900  0.85052700  1
  Mn  Mn0  1  0.24810700  0.85790600  0.49420900  1
  Mn  Mn1  1  0.74535100  0.85767100  0.49414800  1
  Mn  Mn2  1  0.09792900  0.82807200  0.19010300  1
  Mn  Mn3  1  0.59529700  0.83049300  0.18898800  1
  Mn  Mn4  1  0.40241500  0.81341700  0.81571200  1
  Mn  Mn5  1  0.91178300  0.81475000  0.81702500  1
  Mn  Mn6  1  0.49808300  0.35649700  0.99470000  1
  Mn  Mn7  1  0.99988200  0.35831000  0.99343700  1
  Mn  Mn8  1  0.34149300  0.32986100  0.68854500  1
  Mn  Mn9  1  0.85183000  0.32891100  0.69041000  1
  Mn  Mn10  1  0.15813500  0.31378500  0.31611000  1
  Mn  Mn11  1  0.66004100  0.31320500  0.31588800  1
  B  B0  1  0.99975800  0.99610200  0.00036800  1
  B  B1  1  0.49915400  0.99382300  0.00020600  1
  B  B2  1  0.07827800  0.00412800  0.66308000  1
  B  B3  1  0.58305600  0.00104400  0.66582500  1
  B  B4  1  0.91962200  0.99707200  0.33495700  1
  B  B5  1  0.41650300  0.00624100  0.33564500  1
  B  B6  1  0.25231400  0.49546900  0.50095300  1
  B  B7  1  0.75185400  0.49463600  0.50099300  1
  B  B8  1  0.67021200  0.50052900  0.83289300  1
  B  B9  1  0.16959800  0.50110300  0.83777300  1
  B  B10  1  0.33070800  0.50431800  0.16405000  1
  B  B11  1  0.83531400  0.50224900  0.16525100  1
  O  O0  1  0.53362200  0.98760000  0.57036100  1
  O  O1  1  0.03397200  0.97848800  0.56809500  1
  O  O2  1  0.36983600  0.98640300  0.23859300  1
  O  O3  1  0.87417300  0.97518900  0.23947000  1
  O  O4  1  0.94740400  0.86040200  0.39212700  1
  O  O5  1  0.44628900  0.87492200  0.39312500  1
  O  O6  1  0.10985500  0.88023100  0.72639300  1
  O  O7  1  0.60860600  0.86231400  0.72033400  1
  O  O8  1  0.02301600  0.84478500  0.04450800  1
  O  O9  1  0.51952000  0.84234300  0.04413600  1
  O  O10  1  0.18812400  0.65912400  0.87326700  1
  O  O11  1  0.68642200  0.65522200  0.87024300  1
  O  O12  1  0.35037700  0.65966100  0.20036600  1
  O  O13  1  0.85237300  0.65838800  0.20258500  1
  O  O14  1  0.29526100  0.63473700  0.55219600  1
  O  O15  1  0.76192000  0.63414100  0.55206300  1
  O  O16  1  0.18185100  0.50168700  0.40567800  1
  O  O17  1  0.72317000  0.50078300  0.40573600  1
  O  O18  1  0.78577600  0.48094600  0.06980100  1
  O  O19  1  0.28081000  0.48527200  0.06858700  1
  O  O20  1  0.11734700  0.47742100  0.74215800  1
  O  O21  1  0.62497000  0.48039400  0.73560000  1
  O  O22  1  0.20167200  0.36880100  0.89586000  1
  O  O23  1  0.69761900  0.36402200  0.88903800  1
  O  O24  1  0.36077400  0.36683600  0.22003800  1
  O  O25  1  0.86895800  0.37476700  0.22708500  1
  O  O26  1  0.27869000  0.34369600  0.54476200  1
  O  O27  1  0.77114500  0.34274800  0.54558000  1
  O  O28  1  0.93688300  0.15210700  0.37283500  1
  O  O29  1  0.43201100  0.16470700  0.37159600  1
  O  O30  1  0.09233900  0.16457400  0.69410900  1
  O  O31  1  0.60755600  0.15341600  0.70813100  1
  O  O32  1  0.04357100  0.13589100  0.05158700  1
  O  O33  1  0.50747400  0.13314400  0.05187500  1
  O  O34  1  0.47152000  0.00151200  0.90492000  1
  O  O35  1  0.93229300  0.00405800  0.90506100  1
loop_
_geom_bond_atom_site_label_1
_geom_bond_atom_site_label_2
_geom_bond_distance
_geom_bond_site_symmetry_2
Li0 O9 1.987128 1_555
Li0 O8 1.987272 1_555
Li0 O10 2.018465 1_554
Li0 O19 2.021120 1_555
Li1 O9 1.997415 1_555
Li1 O8 2.003718 1_655
Li1 O11 2.051080 1_554
Li1 O18 2.083073 1_555
Li2 O15 1.945455 1_555
Li2 O14 1.954538 1_555
Li2 O21 2.008334 1_555
Li2 O7 2.053228 1_555
Li3 O17 1.969917 1_555
Li3 O16 1.970828 1_655
Li3 O4 1.986091 1_555
Li3 O13 2.139934 1_555
Li4 O27 2.007426 1_455
Li4 O26 2.011314 1_555
Li4 O28 2.039702 1_455
Li4 O1 2.082797 1_545
Li5 O26 1.976739 1_555
Li5 O27 1.990766 1_555
Li5 O0 2.010676 1_545
Li5 O29 2.023627 1_555
Li6 O32 1.957920 1_555
Li6 O33 1.959454 1_555
Li6 O2 2.000632 1_545
Li6 O24 2.061114 1_555
Li7 O34 1.959609 1_555
Li7 O35 1.960749 1_555
Li7 O23 2.008082 1_555
Li7 O31 2.058184 1_555
Mn0 O14 2.021243 1_555
Mn0 O5 2.149202 1_555
Mn0 O1 2.156241 1_555
Mn0 O4 2.162826 1_455
Mn0 O0 2.193921 1_555
Mn1 O15 2.021599 1_555
Mn1 O5 2.151905 1_555
Mn1 O1 2.163031 1_655
Mn1 O4 2.174128 1_555
Mn1 O0 2.203424 1_555
Mn2 O8 2.099211 1_555
Mn2 O12 2.100040 1_555
Mn2 O3 2.110553 1_455
Mn2 O13 2.130088 1_455
Mn2 O2 2.158895 1_555
Mn3 O9 2.086363 1_555
Mn3 O12 2.129402 1_555
Mn3 O3 2.131337 1_555
Mn3 O13 2.138127 1_555
Mn3 O2 2.162520 1_555
Mn4 O34 2.017169 1_565
Mn4 O6 2.106715 1_555
Mn4 O7 2.152734 1_555
Mn4 O10 2.162243 1_555
Mn4 O11 2.230095 1_555
Mn5 O35 2.013385 1_565
Mn5 O6 2.090597 1_655
Mn5 O7 2.171179 1_555
Mn5 O10 2.187345 1_655
Mn5 O11 2.205661 1_555
Mn6 O33 2.018016 1_556
Mn6 O22 2.121101 1_555
Mn6 O18 2.178135 1_556
Mn6 O19 2.202654 1_556
Mn6 O23 2.207308 1_555
Mn7 O32 2.015424 1_656
Mn7 O22 2.121377 1_655
Mn7 O19 2.157177 1_656
Mn7 O18 2.187368 1_556
Mn7 O23 2.187908 1_555
Mn8 O26 2.072386 1_555
Mn8 O30 2.101188 1_555
Mn8 O20 2.145677 1_555
Mn8 O21 2.172714 1_555
Mn8 O31 2.199586 1_555
Mn9 O30 2.032032 1_655
Mn9 O27 2.087488 1_555
Mn9 O20 2.089708 1_655
Mn9 O21 2.117022 1_555
Mn9 O31 2.175488 1_555
Mn10 O16 2.017364 1_555
Mn10 O25 2.076654 1_455
Mn10 O29 2.142444 1_555
Mn10 O24 2.150663 1_555
Mn10 O28 2.223444 1_455
Mn11 O17 2.017055 1_555
Mn11 O25 2.113656 1_555
Mn11 O24 2.156567 1_555
Mn11 O29 2.184183 1_555
Mn11 O28 2.218448 1_555
B0 O32 1.371352 1_665
B0 O35 1.378693 1_564
B0 O8 1.398332 1_655
B1 O33 1.371045 1_565
B1 O34 1.377936 1_564
B1 O9 1.398159 1_555
B2 O6 1.367585 1_545
B2 O1 1.382783 1_545
B2 O30 1.394179 1_555
B3 O0 1.377889 1_545
B3 O7 1.385522 1_545
B3 O31 1.394308 1_555
B4 O3 1.385505 1_555
B4 O28 1.387700 1_565
B4 O4 1.393796 1_555
B5 O5 1.361207 1_545
B5 O29 1.403315 1_555
B5 O2 1.405757 1_545
B6 O14 1.367477 1_555
B6 O16 1.379540 1_555
B6 O26 1.399812 1_555
B7 O15 1.366684 1_555
B7 O17 1.376400 1_555
B7 O27 1.405531 1_555
B8 O11 1.382186 1_555
B8 O23 1.384051 1_555
B8 O21 1.409584 1_555
B9 O22 1.373076 1_555
B9 O20 1.389617 1_555
B9 O10 1.397429 1_555
B10 O12 1.381386 1_555
B10 O19 1.382367 1_555
B10 O24 1.389342 1_555
B11 O25 1.376015 1_555
B11 O18 1.384384 1_555
B11 O13 1.393025 1_555
