# generated using pymatgen
data_Ba2SrI6
_symmetry_space_group_name_H-M   'P 1'
_cell_length_a   7.99448500
_cell_length_b   7.99448500
_cell_length_c   15.61652100
_cell_angle_alpha   90.00000000
_cell_angle_beta   90.00000000
_cell_angle_gamma   90.00000000
_symmetry_Int_Tables_number   1
_chemical_formula_structural   Ba2SrI6
_chemical_formula_sum   'Ba4 Sr2 I12'
_cell_volume   998.07981717
_cell_formula_units_Z   2
loop_
 _symmetry_equiv_pos_site_id
 _symmetry_equiv_pos_as_xyz
  1  'x, y, z'
loop_
 _atom_site_type_symbol
 _atom_site_label
 _atom_site_symmetry_multiplicity
 _atom_site_fract_x
 _atom_site_fract_y
 _atom_site_fract_z
 _atom_site_occupancy
  Ba  Ba0  1  0.00000000  0.00000000  0.83342500  1
  Ba  Ba1  1  0.00000000  0.00000000  0.16657500  1
  Ba  Ba2  1  0.50000000  0.50000000  0.33342500  1
  Ba  Ba3  1  0.50000000  0.50000000  0.66657500  1
  Sr  Sr0  1  0.00000000  0.00000000  0.50000000  1
  Sr  Sr1  1  0.50000000  0.50000000  0.00000000  1
  I  I0  1  0.20544100  0.79455900  0.00000000  1
  I  I1  1  0.19236900  0.80763100  0.65968400  1
  I  I2  1  0.19236900  0.80763100  0.34031600  1
  I  I3  1  0.30763100  0.30763100  0.84031600  1
  I  I4  1  0.30763100  0.30763100  0.15968400  1
  I  I5  1  0.29455900  0.29455900  0.50000000  1
  I  I6  1  0.70544100  0.70544100  0.50000000  1
  I  I7  1  0.69236900  0.69236900  0.15968400  1
  I  I8  1  0.69236900  0.69236900  0.84031600  1
  I  I9  1  0.80763100  0.19236900  0.34031600  1
  I  I10  1  0.80763100  0.19236900  0.65968400  1
  I  I11  1  0.79455900  0.20544100  0.00000000  1
loop_
_geom_bond_atom_site_label_1
_geom_bond_atom_site_label_2
_geom_bond_distance
_geom_bond_site_symmetry_2
Ba0 I1 3.477332 1_545
Ba0 I10 3.477332 1_455
Ba0 I8 3.479713 1_445
Ba0 I3 3.479713 1_555
Ba0 I0 3.487377 1_546
Ba0 I11 3.487377 1_456
Ba1 I2 3.477332 1_545
Ba1 I9 3.477332 1_455
Ba1 I7 3.479713 1_445
Ba1 I4 3.479713 1_555
Ba1 I0 3.487377 1_545
Ba1 I11 3.487377 1_455
Ba2 I7 3.477332 1_555
Ba2 I4 3.477332 1_555
Ba2 I9 3.479713 1_555
Ba2 I2 3.479713 1_555
Ba2 I5 3.487377 1_555
Ba2 I6 3.487377 1_555
Ba3 I8 3.477332 1_555
Ba3 I3 3.477332 1_555
Ba3 I10 3.479713 1_555
Ba3 I1 3.479713 1_555
Ba3 I5 3.487377 1_555
Ba3 I6 3.487377 1_555
I0 Sr1 3.330257 1_555
I1 Sr0 3.308897 1_565
I2 Sr0 3.308897 1_565
I3 Sr1 3.308897 1_556
I4 Sr1 3.308897 1_555
I5 Sr0 3.330257 1_555
I6 Sr0 3.330257 1_665
I7 Sr1 3.308897 1_555
I8 Sr1 3.308897 1_556
I9 Sr0 3.308897 1_655
I10 Sr0 3.308897 1_655
I11 Sr1 3.330257 1_555
