# generated using pymatgen
data_K5Li3Ti8(AsO5)8
_symmetry_space_group_name_H-M   'P 1'
_cell_length_a   6.68700200
_cell_length_b   10.89391915
_cell_length_c   13.19611449
_cell_angle_alpha   89.97530317
_cell_angle_beta   89.94866609
_cell_angle_gamma   89.62594685
_symmetry_Int_Tables_number   1
_chemical_formula_structural   K5Li3Ti8(AsO5)8
_chemical_formula_sum   'K5 Li3 Ti8 As8 O40'
_cell_volume   961.28509214
_cell_formula_units_Z   1
loop_
 _symmetry_equiv_pos_site_id
 _symmetry_equiv_pos_as_xyz
  1  'x, y, z'
loop_
 _atom_site_type_symbol
 _atom_site_label
 _atom_site_symmetry_multiplicity
 _atom_site_fract_x
 _atom_site_fract_y
 _atom_site_fract_z
 _atom_site_occupancy
  K  K0  1  0.31084300  0.92170800  0.10501400  1
  K  K1  1  0.71280000  0.18243800  0.10935600  1
  K  K2  1  0.19915200  0.68072100  0.39270000  1
  K  K3  1  0.80092300  0.18081200  0.60858900  1
  K  K4  1  0.29881500  0.67664900  0.88597700  1
  Li  Li0  1  0.56156400  0.45910900  0.39641600  1
  Li  Li1  1  0.43757200  0.95966300  0.60334700  1
  Li  Li2  1  0.93710000  0.45974500  0.89641200  1
  Ti  Ti0  1  0.98514500  0.48844100  0.13128000  1
  Ti  Ti1  1  0.73120900  0.74314700  0.24295000  1
  Ti  Ti2  1  0.22320500  0.24262800  0.25811900  1
  Ti  Ti3  1  0.48657000  0.98850400  0.36799700  1
  Ti  Ti4  1  0.51501600  0.48935200  0.63299000  1
  Ti  Ti5  1  0.77764600  0.74439300  0.74290900  1
  Ti  Ti6  1  0.27568300  0.24370300  0.75793300  1
  Ti  Ti7  1  0.01248500  0.99040500  0.87027700  1
  As  As0  1  0.17000800  0.23176000  0.00326500  1
  As  As1  1  0.48455000  0.48482400  0.18317300  1
  As  As2  1  0.98399300  0.98492700  0.31686300  1
  As  As3  1  0.66852500  0.73063700  0.49663200  1
  As  As4  1  0.33097100  0.23192800  0.50471700  1
  As  As5  1  0.01515100  0.48456700  0.68245400  1
  As  As6  1  0.51543900  0.98435500  0.81687400  1
  As  As7  1  0.83106900  0.73260700  0.99468400  1
  O  O0  1  0.95636400  0.59262500  0.99957700  1
  O  O1  1  0.00056600  0.35014500  0.00752600  1
  O  O2  1  0.66574800  0.75103600  0.09507900  1
  O  O3  1  0.28452200  0.51570700  0.10657100  1
  O  O4  1  0.31550500  0.22161400  0.11075400  1
  O  O5  1  0.68972100  0.44470300  0.11272100  1
  O  O6  1  0.93547600  0.61376600  0.21313500  1
  O  O7  1  0.04077800  0.35932700  0.22031300  1
  O  O8  1  0.94463900  0.86635600  0.23164000  1
  O  O9  1  0.02636200  0.10987500  0.23934500  1
  O  O10  1  0.53011900  0.60572400  0.26533800  1
  O  O11  1  0.44285900  0.37040600  0.27308700  1
  O  O12  1  0.53821900  0.85919800  0.27697100  1
  O  O13  1  0.43554600  0.11078000  0.28385800  1
  O  O14  1  0.19081400  0.94501900  0.38640800  1
  O  O15  1  0.81278800  0.72327400  0.38916000  1
  O  O16  1  0.78311800  0.01406800  0.39368000  1
  O  O17  1  0.16958600  0.24899500  0.40406800  1
  O  O18  1  0.49840700  0.84829100  0.49283100  1
  O  O19  1  0.45868200  0.09319400  0.50056200  1
  O  O20  1  0.54027700  0.59274000  0.49979800  1
  O  O21  1  0.50195000  0.34830300  0.50721100  1
  O  O22  1  0.83184600  0.74759600  0.59624700  1
  O  O23  1  0.21501400  0.51475200  0.60592500  1
  O  O24  1  0.18549300  0.22523900  0.61172600  1
  O  O25  1  0.81054900  0.44456500  0.61228600  1
  O  O26  1  0.56309900  0.61287800  0.71389600  1
  O  O27  1  0.45928900  0.35832900  0.72100700  1
  O  O28  1  0.55580500  0.87079500  0.72641400  1
  O  O29  1  0.47005900  0.10475200  0.73414500  1
  O  O30  1  0.97010300  0.60483000  0.76560200  1
  O  O31  1  0.05603800  0.37075100  0.77314700  1
  O  O32  1  0.95810900  0.85905900  0.77945100  1
  O  O33  1  0.06548800  0.11203200  0.78687200  1
  O  O34  1  0.31347400  0.94404300  0.88957100  1
  O  O35  1  0.68317400  0.72469300  0.88809000  1
  O  O36  1  0.71307200  0.01438000  0.89503000  1
  O  O37  1  0.33360900  0.24971900  0.90319100  1
  O  O38  1  0.00586300  0.84516100  0.98898800  1
  O  O39  1  0.04183700  0.09518100  0.99774900  1
loop_
_geom_bond_atom_site_label_1
_geom_bond_atom_site_label_2
_geom_bond_distance
_geom_bond_site_symmetry_2
K0 O38 2.688436 1_554
K0 O12 2.813535 1_555
K0 O34 2.853347 1_554
K0 O39 2.961189 1_564
K0 O2 3.008071 1_555
K0 O8 3.027125 1_455
K0 O13 3.246204 1_565
K0 O4 3.268415 1_565
K0 O9 3.302921 1_565
K1 O4 2.688069 1_555
K1 O39 2.807480 1_654
K1 O9 2.819126 1_655
K1 O5 2.860614 1_555
K1 O1 2.980876 1_655
K1 O13 3.059256 1_555
K1 O7 3.275778 1_655
K1 O36 3.369777 1_554
K2 O15 2.622349 1_455
K2 O20 2.845258 1_555
K2 O14 2.880579 1_555
K2 O10 2.891585 1_555
K2 O18 3.022806 1_555
K2 O6 3.046554 1_455
K3 O24 2.620237 1_655
K3 O19 2.866410 1_555
K3 O25 2.874881 1_555
K3 O29 2.888427 1_555
K3 O21 3.011806 1_555
K3 O33 3.035600 1_655
K4 O35 2.626479 1_555
K4 O30 2.827866 1_455
K4 O0 2.889481 1_455
K4 O34 2.915665 1_555
K4 O26 2.956440 1_555
K4 O38 3.000968 1_555
Li0 O21 1.938396 1_555
Li0 O20 1.999832 1_555
Li0 O11 2.055770 1_555
Li0 O10 2.362439 1_555
Li1 O18 1.938666 1_555
Li1 O19 1.994083 1_565
Li1 O28 2.047118 1_555
Li1 O29 2.352046 1_565
Li2 O1 1.936138 1_656
Li2 O0 1.992458 1_555
Li2 O31 2.051181 1_655
Li2 O30 2.351182 1_555
As0 O1 1.712051 1_555
As0 O39 1.723522 1_554
As0 O4 1.723869 1_555
As0 O37 1.725992 1_554
As1 O3 1.708918 1_555
As1 O5 1.711118 1_555
As1 O10 1.734999 1_555
As1 O11 1.744097 1_555
As2 O16 1.710244 1_565
As2 O14 1.714069 1_655
As2 O9 1.727072 1_665
As2 O8 1.734567 1_555
As3 O18 1.708918 1_555
As3 O15 1.716106 1_555
As3 O22 1.720548 1_555
As3 O20 1.735119 1_555
As4 O21 1.713067 1_555
As4 O24 1.715833 1_555
As4 O17 1.721333 1_555
As4 O19 1.731954 1_555
As5 O23 1.707988 1_555
As5 O25 1.711602 1_455
As5 O30 1.733957 1_455
As5 O31 1.743362 1_555
As6 O36 1.710442 1_565
As6 O34 1.715275 1_555
As6 O29 1.731572 1_565
As6 O28 1.739142 1_555
As7 O38 1.701113 1_655
As7 O35 1.722734 1_555
As7 O2 1.735600 1_556
As7 O0 1.736366 1_555
O0 Ti0 2.083694 1_556
O1 Ti0 2.224219 1_455
O2 Ti1 2.001888 1_555
O3 Ti0 2.051536 1_455
O4 Ti2 2.052167 1_555
O5 Ti0 2.050091 1_555
O6 Ti0 1.770812 1_555
O6 Ti1 1.995381 1_555
O7 Ti2 1.825800 1_555
O7 Ti0 1.868072 1_455
O8 Ti1 1.971099 1_555
O9 Ti2 1.977685 1_555
O10 Ti1 2.040073 1_555
O11 Ti2 2.039998 1_555
O12 Ti1 1.855662 1_555
O12 Ti3 1.881701 1_555
O13 Ti3 1.765521 1_545
O13 Ti2 2.041676 1_555
O14 Ti3 2.050876 1_555
O15 Ti1 2.016691 1_555
O16 Ti3 2.033046 1_545
O17 Ti2 1.959909 1_555
O18 Ti3 2.247129 1_555
O19 Ti3 2.096197 1_545
O20 Ti4 2.094409 1_555
O21 Ti4 2.264471 1_555
O22 Ti5 1.969030 1_555
O23 Ti4 2.054889 1_555
O24 Ti6 2.032398 1_555
O25 Ti4 2.050546 1_555
O26 Ti4 1.749746 1_555
O26 Ti5 2.070227 1_555
O27 Ti6 1.822802 1_555
O27 Ti4 1.878826 1_555
O28 Ti5 2.029242 1_555
O29 Ti6 2.013291 1_555
O30 Ti5 2.008052 1_555
O31 Ti6 2.021471 1_555
O32 Ti5 1.808436 1_555
O32 Ti7 1.903992 1_655
O33 Ti7 1.759766 1_545
O33 Ti6 2.050343 1_555
O34 Ti7 2.087694 1_555
O35 Ti5 2.028492 1_555
O36 Ti7 2.043451 1_645
O37 Ti6 1.957137 1_555
O38 Ti7 2.226704 1_555
O39 Ti7 2.043555 1_545
