# generated using pymatgen
data_LiMn(PO4)2
_symmetry_space_group_name_H-M   'P 1'
_cell_length_a   8.37366300
_cell_length_b   4.86264400
_cell_length_c   7.91602325
_cell_angle_alpha   55.91771861
_cell_angle_beta   90.00000000
_cell_angle_gamma   90.00000000
_symmetry_Int_Tables_number   1
_chemical_formula_structural   LiMn(PO4)2
_chemical_formula_sum   'Li2 Mn2 P4 O16'
_cell_volume   266.96104755
_cell_formula_units_Z   2
loop_
 _symmetry_equiv_pos_site_id
 _symmetry_equiv_pos_as_xyz
  1  'x, y, z'
loop_
 _atom_site_type_symbol
 _atom_site_label
 _atom_site_symmetry_multiplicity
 _atom_site_fract_x
 _atom_site_fract_y
 _atom_site_fract_z
 _atom_site_occupancy
  Li  Li0  1  0.50000000  0.00000000  0.00000000  1
  Li  Li1  1  0.00000000  0.00000000  0.50000000  1
  Mn  Mn0  1  0.50000000  0.50000000  0.50000000  1
  Mn  Mn1  1  0.00000000  0.50000000  0.00000000  1
  P  P0  1  0.17283900  0.78544000  0.24056000  1
  P  P1  1  0.67283900  0.21456000  0.25944000  1
  P  P2  1  0.32716100  0.78544000  0.74056000  1
  P  P3  1  0.82716100  0.21456000  0.75944000  1
  O  O0  1  0.35789000  0.79374500  0.26780700  1
  O  O1  1  0.09642300  0.69971900  0.44091800  1
  O  O2  1  0.37027800  0.52140700  0.69645600  1
  O  O3  1  0.13002900  0.13395000  0.05135000  1
  O  O4  1  0.87027800  0.47859300  0.80354400  1
  O  O5  1  0.63002900  0.86605000  0.44865000  1
  O  O6  1  0.59642300  0.30028100  0.05908200  1
  O  O7  1  0.85789000  0.20625500  0.23219300  1
  O  O8  1  0.14211000  0.79374500  0.76780700  1
  O  O9  1  0.40357700  0.69971900  0.94091800  1
  O  O10  1  0.36997100  0.13395000  0.55135000  1
  O  O11  1  0.12972200  0.52140700  0.19645600  1
  O  O12  1  0.86997100  0.86605000  0.94865000  1
  O  O13  1  0.62972200  0.47859300  0.30354400  1
  O  O14  1  0.90357700  0.30028100  0.55908200  1
  O  O15  1  0.64211000  0.20625500  0.73219300  1
loop_
_geom_bond_atom_site_label_1
_geom_bond_atom_site_label_2
_geom_bond_distance
_geom_bond_site_symmetry_2
Li0 O9 1.941160 1_544
Li0 O6 1.941160 1_555
Li0 O15 2.129138 1_554
Li0 O0 2.129138 1_545
Li0 O13 2.560083 1_545
Li0 O2 2.560083 1_554
Li1 O14 1.941160 1_455
Li1 O1 1.941160 1_545
Li1 O8 2.129138 1_545
Li1 O7 2.129138 1_455
Li1 O4 2.560083 1_445
Li1 O11 2.560083 1_555
Mn0 O5 1.925653 1_555
Mn0 O10 1.925653 1_555
Mn0 O2 1.946971 1_555
Mn0 O13 1.946971 1_555
Mn0 O15 1.972877 1_555
Mn0 O0 1.972877 1_555
Mn1 O12 1.925653 1_454
Mn1 O3 1.925653 1_555
Mn1 O11 1.946971 1_555
Mn1 O4 1.946971 1_454
Mn1 O8 1.972877 1_554
Mn1 O7 1.972877 1_455
O0 P0 1.568131 1_555
O1 P0 1.535502 1_555
O2 P2 1.550167 1_555
O3 P0 1.548874 1_545
O4 P3 1.550167 1_555
O5 P1 1.548874 1_565
O6 P1 1.535502 1_555
O7 P1 1.568131 1_555
O8 P2 1.568131 1_555
O9 P2 1.535502 1_555
O10 P2 1.548874 1_545
O11 P0 1.550167 1_555
O12 P3 1.548874 1_565
O13 P1 1.550167 1_555
O14 P3 1.535502 1_555
O15 P3 1.568131 1_555
