# generated using pymatgen
data_V3FeSb2(PO4)6
_symmetry_space_group_name_H-M   'P 1'
_cell_length_a   8.89795620
_cell_length_b   8.89795620
_cell_length_c   8.89795538
_cell_angle_alpha   58.57228881
_cell_angle_beta   58.57228881
_cell_angle_gamma   58.57228861
_symmetry_Int_Tables_number   1
_chemical_formula_structural   V3FeSb2(PO4)6
_chemical_formula_sum   'V3 Fe1 Sb2 P6 O24'
_cell_volume   481.88211723
_cell_formula_units_Z   1
loop_
 _symmetry_equiv_pos_site_id
 _symmetry_equiv_pos_as_xyz
  1  'x, y, z'
loop_
 _atom_site_type_symbol
 _atom_site_label
 _atom_site_symmetry_multiplicity
 _atom_site_fract_x
 _atom_site_fract_y
 _atom_site_fract_z
 _atom_site_occupancy
  V  V0  1  0.35361300  0.35361300  0.35361300  1
  V  V1  1  0.14567400  0.14567400  0.14567400  1
  V  V2  1  0.64661200  0.64661200  0.64661200  1
  Fe  Fe0  1  0.84970300  0.84970300  0.84970300  1
  Sb  Sb0  1  0.99470300  0.99470300  0.99470300  1
  Sb  Sb1  1  0.50041300  0.50041300  0.50041300  1
  P  P0  1  0.04086700  0.45893200  0.75075500  1
  P  P1  1  0.45893200  0.75075500  0.04086700  1
  P  P2  1  0.75075500  0.04086700  0.45893200  1
  P  P3  1  0.24985300  0.96090900  0.53985600  1
  P  P4  1  0.53985600  0.24985300  0.96090900  1
  P  P5  1  0.96090900  0.53985600  0.24985300  1
  O  O0  1  0.49203500  0.69839500  0.88516600  1
  O  O1  1  0.69839500  0.88516600  0.49203500  1
  O  O2  1  0.88516600  0.49203500  0.69839500  1
  O  O3  1  0.06271400  0.26782200  0.91507000  1
  O  O4  1  0.00954200  0.61630500  0.80127500  1
  O  O5  1  0.23319300  0.43937700  0.58367300  1
  O  O6  1  0.26782200  0.91507000  0.06271400  1
  O  O7  1  0.43937700  0.58367300  0.23319300  1
  O  O8  1  0.19791600  0.99281300  0.38573100  1
  O  O9  1  0.58367300  0.23319300  0.43937700  1
  O  O10  1  0.08269400  0.93968300  0.73471500  1
  O  O11  1  0.38573100  0.19791600  0.99281300  1
  O  O12  1  0.61630500  0.80127500  0.00954200  1
  O  O13  1  0.91507000  0.06271400  0.26782200  1
  O  O14  1  0.41514600  0.76713900  0.56256000  1
  O  O15  1  0.80127500  0.00954200  0.61630500  1
  O  O16  1  0.56256000  0.41514600  0.76713900  1
  O  O17  1  0.73471500  0.08269400  0.93968300  1
  O  O18  1  0.76713900  0.56256000  0.41514600  1
  O  O19  1  0.99281300  0.38573100  0.19791600  1
  O  O20  1  0.93968300  0.73471500  0.08269400  1
  O  O21  1  0.11564800  0.50747900  0.30202000  1
  O  O22  1  0.30202000  0.11564800  0.50747900  1
  O  O23  1  0.50747900  0.30202000  0.11564800  1
loop_
_geom_bond_atom_site_label_1
_geom_bond_atom_site_label_2
_geom_bond_distance
_geom_bond_site_symmetry_2
Fe0 O15 1.932698 1_565
Fe0 O4 1.932698 1_655
Fe0 O12 1.932698 1_556
Fe0 O20 2.156488 1_556
Fe0 O17 2.156488 1_565
Fe0 O10 2.156488 1_655
O0 P1 1.525667 1_556
O0 V2 1.980941 1_555
O1 P2 1.525667 1_565
O1 V2 1.980941 1_555
O2 P0 1.525667 1_655
O2 V2 1.980941 1_555
O3 P0 1.557564 1_555
O3 V1 2.086548 1_556
O3 Sb0 2.462705 1_445
O4 P0 1.536016 1_555
O5 P0 1.573261 1_555
O5 V0 2.099980 1_555
O5 Sb1 2.363767 1_555
O6 P1 1.557565 1_555
O6 V1 2.086548 1_565
O6 Sb0 2.462705 1_454
O7 P1 1.573260 1_555
O7 V0 2.099980 1_555
O7 Sb1 2.363767 1_555
O8 P3 1.514267 1_555
O8 V1 1.993737 1_565
O9 P2 1.573261 1_555
O9 V0 2.099980 1_555
O9 Sb1 2.363767 1_555
O10 P3 1.586273 1_555
O10 Sb0 2.257616 1_455
O11 P4 1.514267 1_555
O11 V1 1.993738 1_556
O12 P1 1.536016 1_555
O13 P2 1.557564 1_555
O13 V1 2.086548 1_655
O13 Sb0 2.462705 1_544
O14 P3 1.574429 1_555
O14 V2 2.101858 1_555
O14 Sb1 2.359526 1_555
O15 P2 1.536016 1_555
O16 P4 1.574428 1_555
O16 V2 2.101858 1_555
O16 Sb1 2.359526 1_555
O17 P4 1.586273 1_555
O17 Sb0 2.257616 1_545
O18 P5 1.574428 1_555
O18 V2 2.101858 1_555
O18 Sb1 2.359526 1_555
O19 P5 1.514267 1_555
O19 V1 1.993738 1_655
O20 P5 1.586273 1_555
O20 Sb0 2.257616 1_554
O21 P5 1.519075 1_455
O21 V0 1.975773 1_555
O22 P3 1.519075 1_545
O22 V0 1.975773 1_555
O23 P4 1.519075 1_554
O23 V0 1.975772 1_555
