# generated using pymatgen
data_Li2MnVP2(O4F)2
_symmetry_space_group_name_H-M   'P 1'
_cell_length_a   5.23900300
_cell_length_b   7.50051296
_cell_length_c   14.74787962
_cell_angle_alpha   93.30659547
_cell_angle_beta   94.21628672
_cell_angle_gamma   105.27384925
_symmetry_Int_Tables_number   1
_chemical_formula_structural   Li2MnVP2(O4F)2
_chemical_formula_sum   'Li6 Mn3 V3 P6 O24 F6'
_cell_volume   555.74725241
_cell_formula_units_Z   3
loop_
 _symmetry_equiv_pos_site_id
 _symmetry_equiv_pos_as_xyz
  1  'x, y, z'
loop_
 _atom_site_type_symbol
 _atom_site_label
 _atom_site_symmetry_multiplicity
 _atom_site_fract_x
 _atom_site_fract_y
 _atom_site_fract_z
 _atom_site_occupancy
  Li  Li0  1  0.06005100  0.33077400  0.14269800  1
  Li  Li1  1  0.39160700  0.66641900  0.47708100  1
  Li  Li2  1  0.72840800  0.99518800  0.80847400  1
  Li  Li3  1  0.27359200  0.00167900  0.18978000  1
  Li  Li4  1  0.60526400  0.33589300  0.52571700  1
  Li  Li5  1  0.93779500  0.66743500  0.85679100  1
  Mn  Mn0  1  0.99570000  0.99694300  0.50041300  1
  Mn  Mn1  1  0.66535800  0.66580600  0.66674200  1
  Mn  Mn2  1  0.66862200  0.66900800  0.16627000  1
  V  V0  1  0.00406600  0.00257500  0.99950300  1
  V  V1  1  0.33431000  0.33280400  0.83385900  1
  V  V2  1  0.33342600  0.33335000  0.33331200  1
  P  P0  1  0.26266300  0.94123500  0.70678000  1
  P  P1  1  0.06945700  0.38892200  0.62683600  1
  P  P2  1  0.40590400  0.72407700  0.96021200  1
  P  P3  1  0.59728900  0.27875900  0.04095600  1
  P  P4  1  0.92768600  0.61132800  0.37189300  1
  P  P5  1  0.73880100  0.05607500  0.29348900  1
  O  O0  1  0.08417600  0.77920200  0.43943800  1
  O  O1  1  0.23100000  0.86028700  0.94628200  1
  O  O2  1  0.24154200  0.99244000  0.60788300  1
  O  O3  1  0.08949900  0.33882300  0.72534000  1
  O  O4  1  0.10072400  0.47326200  0.38391900  1
  O  O5  1  0.25140700  0.55365900  0.89512200  1
  O  O6  1  0.01769900  0.14411000  0.26087500  1
  O  O7  1  0.43787800  0.80444500  0.72144200  1
  O  O8  1  0.35025900  0.47679700  0.59350300  1
  O  O9  1  0.42533200  0.67322100  0.05920400  1
  O  O10  1  0.58281800  0.88822000  0.22620400  1
  O  O11  1  0.68628200  0.81472400  0.92747100  1
  O  O12  1  0.31665500  0.18924900  0.07344100  1
  O  O13  1  0.41513300  0.11156300  0.77217400  1
  O  O14  1  0.57591200  0.32769100  0.94210200  1
  O  O15  1  0.64925700  0.52277400  0.40457300  1
  O  O16  1  0.56525900  0.19365300  0.28150900  1
  O  O17  1  0.98126300  0.85301400  0.74031600  1
  O  O18  1  0.75110100  0.44808600  0.10722900  1
  O  O19  1  0.89235300  0.52503800  0.61337200  1
  O  O20  1  0.91143700  0.66369500  0.27315600  1
  O  O21  1  0.75637000  0.00498800  0.39259000  1
  O  O22  1  0.77277000  0.14295700  0.05337400  1
  O  O23  1  0.91675000  0.22001800  0.55982500  1
  F  F0  1  0.02435400  0.15141700  0.88742700  1
  F  F1  1  0.34388900  0.47614900  0.22518900  1
  F  F2  1  0.32316300  0.19089200  0.44153700  1
  F  F3  1  0.67306200  0.81678200  0.55244800  1
  F  F4  1  0.64336800  0.50749100  0.78351200  1
  F  F5  1  0.98928700  0.85708600  0.10873500  1
loop_
_geom_bond_atom_site_label_1
_geom_bond_atom_site_label_2
_geom_bond_distance
_geom_bond_site_symmetry_2
Li0 O18 2.084860 1_455
Li0 O22 2.088641 1_455
Li0 O12 2.192263 1_555
Li0 O6 2.285101 1_555
Li1 O0 2.063606 1_555
Li1 O4 2.146698 1_555
Li1 O15 2.229778 1_555
Li1 O8 2.278560 1_555
Li2 O7 2.089169 1_555
Li2 O13 2.102783 1_565
Li2 O17 2.172287 1_555
Li2 O11 2.265903 1_555
Li3 O10 2.070848 1_545
Li3 O16 2.133175 1_555
Li3 O6 2.206797 1_555
Li3 O12 2.267629 1_555
Li4 O19 2.079499 1_555
Li4 O23 2.085283 1_555
Li4 O8 2.172455 1_555
Li4 O15 2.321449 1_555
Li5 O5 2.098837 1_655
Li5 O1 2.122454 1_655
Li5 O11 2.208929 1_555
Li5 O17 2.259731 1_555
Mn0 O21 1.965234 1_565
Mn0 O2 1.975096 1_655
Mn0 O0 1.995362 1_655
Mn0 O23 1.996778 1_565
Mn1 O7 1.962126 1_555
Mn1 O19 1.962620 1_555
Mn1 O17 2.055216 1_555
Mn1 O8 2.056633 1_555
Mn2 O20 1.960560 1_555
Mn2 O9 1.962107 1_555
Mn2 O18 1.989160 1_555
Mn2 O10 1.991719 1_555
O0 P4 1.562444 1_455
O1 P2 1.554146 1_555
O1 V0 1.969174 1_565
O2 P0 1.533073 1_555
O3 P1 1.524457 1_555
O3 V1 1.986300 1_555
O4 P4 1.554940 1_455
O4 V2 1.965213 1_555
O5 P2 1.552284 1_555
O5 V1 2.003284 1_555
O6 P5 1.560116 1_455
O6 V2 2.054319 1_555
O7 P0 1.560344 1_555
O8 P1 1.572622 1_555
O9 P2 1.532997 1_554
O10 P5 1.559533 1_565
O11 P2 1.571327 1_555
O11 V0 2.053510 1_665
O12 P3 1.569233 1_555
O12 V0 2.045625 1_554
O13 P0 1.551526 1_545
O13 V1 2.003314 1_555
O14 P3 1.527105 1_556
O14 V1 1.971668 1_555
O15 P4 1.559189 1_555
O15 V2 2.048021 1_555
O16 P5 1.553828 1_555
O16 V2 1.967574 1_555
O17 P0 1.576989 1_655
O18 P3 1.555448 1_555
O19 P1 1.561420 1_655
O20 P4 1.532089 1_555
O21 P5 1.534526 1_555
O22 P3 1.551253 1_555
O22 V0 1.981296 1_654
O23 P1 1.557882 1_655
F0 Li2 1.937204 1_445
F0 V0 2.041037 1_555
F0 V1 2.064132 1_555
F1 Li0 1.899188 1_555
F1 V2 1.967696 1_555
F1 Mn2 2.192633 1_555
F2 Li4 1.906816 1_555
F2 V2 1.967533 1_555
F2 Mn0 2.205270 1_445
F3 Li1 1.849290 1_555
F3 Mn1 2.081176 1_555
F3 Mn0 2.092603 1_555
F4 Li5 1.901790 1_555
F4 V1 2.015191 1_555
F4 Mn1 2.140549 1_555
F5 Li3 1.887043 1_665
F5 V0 1.992122 1_664
F5 Mn2 2.152060 1_555
