# generated using pymatgen
data_KRbO
_symmetry_space_group_name_H-M   'P 1'
_cell_length_a   8.93466485
_cell_length_b   8.93466485
_cell_length_c   8.93466485
_cell_angle_alpha   95.94387543
_cell_angle_beta   95.94387543
_cell_angle_gamma   142.45655916
_symmetry_Int_Tables_number   1
_chemical_formula_structural   KRbO
_chemical_formula_sum   'K4 Rb4 O4'
_cell_volume   411.50273231
_cell_formula_units_Z   4
loop_
 _symmetry_equiv_pos_site_id
 _symmetry_equiv_pos_as_xyz
  1  'x, y, z'
loop_
 _atom_site_type_symbol
 _atom_site_label
 _atom_site_symmetry_multiplicity
 _atom_site_fract_x
 _atom_site_fract_y
 _atom_site_fract_z
 _atom_site_occupancy
  K  K0  1  0.16475900  0.83524100  0.00000000  1
  K  K1  1  0.16475900  0.16475900  0.32951700  1
  K  K2  1  0.83524100  0.16475900  0.00000000  1
  K  K3  1  0.83524100  0.83524100  0.67048300  1
  Rb  Rb0  1  0.50000000  0.85429700  0.35429700  1
  Rb  Rb1  1  0.14570300  0.50000000  0.64570300  1
  Rb  Rb2  1  0.85429700  0.50000000  0.35429700  1
  Rb  Rb3  1  0.50000000  0.14570300  0.64570300  1
  O  O0  1  0.00000000  0.30002100  0.30002100  1
  O  O1  1  0.00000000  0.69997900  0.69997900  1
  O  O2  1  0.30002100  0.00000000  0.30002100  1
  O  O3  1  0.69997900  0.00000000  0.69997900  1
loop_
_geom_bond_atom_site_label_1
_geom_bond_atom_site_label_2
_geom_bond_distance
_geom_bond_site_symmetry_2
K0 O2 2.550239 1_565
K0 O1 2.550239 1_554
K1 O2 2.550238 1_555
K1 O0 2.550238 1_555
K2 O0 2.550239 1_655
K2 O3 2.550239 1_554
K3 O1 2.550238 1_655
K3 O3 2.550238 1_565
O0 Rb0 2.947571 1_445
O0 Rb0 2.947571 1_555
O0 Rb1 2.960093 1_555
O0 Rb2 2.960093 1_455
O1 Rb3 2.947571 1_455
O1 Rb3 2.947571 1_565
O1 Rb1 2.960093 1_555
O1 Rb2 2.960093 1_455
O2 Rb2 2.947571 1_555
O2 Rb2 2.947571 1_445
O2 Rb3 2.960093 1_555
O2 Rb0 2.960093 1_545
O3 Rb1 2.947571 1_545
O3 Rb1 2.947571 1_655
O3 Rb3 2.960093 1_555
O3 Rb0 2.960093 1_545
