# generated using pymatgen
data_FeOF
_symmetry_space_group_name_H-M   'P 1'
_cell_length_a   3.11859500
_cell_length_b   14.16493400
_cell_length_c   14.24144402
_cell_angle_alpha   89.93552463
_cell_angle_beta   90.00000000
_cell_angle_gamma   90.00000000
_symmetry_Int_Tables_number   1
_chemical_formula_structural   FeOF
_chemical_formula_sum   'Fe18 O18 F18'
_cell_volume   629.11100972
_cell_formula_units_Z   18
loop_
 _symmetry_equiv_pos_site_id
 _symmetry_equiv_pos_as_xyz
  1  'x, y, z'
loop_
 _atom_site_type_symbol
 _atom_site_label
 _atom_site_symmetry_multiplicity
 _atom_site_fract_x
 _atom_site_fract_y
 _atom_site_fract_z
 _atom_site_occupancy
  Fe  Fe0  1  0.00000000  0.98702200  0.00361200  1
  Fe  Fe1  1  0.00000000  0.98780800  0.66767600  1
  Fe  Fe2  1  0.00000000  0.99349300  0.34131800  1
  Fe  Fe3  1  0.50000000  0.84825700  0.83456800  1
  Fe  Fe4  1  0.50000000  0.84762800  0.50134700  1
  Fe  Fe5  1  0.50000000  0.85162200  0.17478500  1
  Fe  Fe6  1  0.00000000  0.66022600  0.00848600  1
  Fe  Fe7  1  0.00000000  0.65430100  0.66927900  1
  Fe  Fe8  1  0.00000000  0.65492400  0.33612500  1
  Fe  Fe9  1  0.50000000  0.51289300  0.50213700  1
  Fe  Fe10  1  0.50000000  0.49500700  0.81740300  1
  Fe  Fe11  1  0.50000000  0.51183800  0.17023000  1
  Fe  Fe12  1  0.00000000  0.31986200  0.00262000  1
  Fe  Fe13  1  0.00000000  0.32697100  0.67545100  1
  Fe  Fe14  1  0.00000000  0.31923400  0.33691900  1
  Fe  Fe15  1  0.50000000  0.17919500  0.83496000  1
  Fe  Fe16  1  0.50000000  0.16097100  0.48453700  1
  Fe  Fe17  1  0.50000000  0.17941800  0.16981500  1
  O  O0  1  0.50000000  0.93576600  0.73042200  1
  O  O1  1  0.50000000  0.93310700  0.39700400  1
  O  O2  1  0.50000000  0.93603500  0.06622600  1
  O  O3  1  0.00000000  0.89707000  0.89916600  1
  O  O4  1  0.00000000  0.89925800  0.56426400  1
  O  O5  1  0.00000000  0.90098900  0.23457000  1
  O  O6  1  0.50000000  0.60489100  0.73483700  1
  O  O7  1  0.50000000  0.60206200  0.39776100  1
  O  O8  1  0.50000000  0.60162900  0.06268300  1
  O  O9  1  0.00000000  0.56421100  0.56585400  1
  O  O10  1  0.00000000  0.56634400  0.23002700  1
  O  O11  1  0.00000000  0.43274200  0.76552800  1
  O  O12  1  0.50000000  0.26380900  0.72636900  1
  O  O13  1  0.50000000  0.27067200  0.40061400  1
  O  O14  1  0.50000000  0.26862400  0.06445200  1
  O  O15  1  0.00000000  0.23292800  0.89654300  1
  O  O16  1  0.00000000  0.23244600  0.23138100  1
  O  O17  1  0.00000000  0.09994600  0.43241600  1
  F  F0  1  0.00000000  0.76857700  0.76772100  1
  F  F1  1  0.00000000  0.76749700  0.43310100  1
  F  F2  1  0.00000000  0.76843600  0.10183400  1
  F  F3  1  0.50000000  0.72977500  0.93445200  1
  F  F4  1  0.50000000  0.73274700  0.26746900  1
  F  F5  1  0.50000000  0.73239700  0.60077400  1
  F  F6  1  0.00000000  0.56566000  0.89831500  1
  F  F7  1  0.00000000  0.43584900  0.43297100  1
  F  F8  1  0.00000000  0.43514300  0.10096200  1
  F  F9  1  0.50000000  0.40314700  0.93676400  1
  F  F10  1  0.50000000  0.39477800  0.59576200  1
  F  F11  1  0.50000000  0.39961700  0.26696100  1
  F  F12  1  0.00000000  0.23010400  0.56327700  1
  F  F13  1  0.00000000  0.10041900  0.76839100  1
  F  F14  1  0.00000000  0.10198000  0.09940400  1
  F  F15  1  0.50000000  0.06546000  0.93381900  1
  F  F16  1  0.50000000  0.06865300  0.60366300  1
  F  F17  1  0.50000000  0.06656100  0.26297800  1
loop_
_geom_bond_atom_site_label_1
_geom_bond_atom_site_label_2
_geom_bond_distance
_geom_bond_site_symmetry_2
Fe0 O2 1.935646 1_455
Fe0 O2 1.935646 1_555
Fe0 O3 1.959669 1_554
Fe1 O4 1.935559 1_555
Fe1 O0 1.942127 1_555
Fe1 O0 1.942127 1_455
Fe2 O1 1.946909 1_555
Fe2 O1 1.946909 1_455
Fe2 O17 1.990308 1_565
Fe2 O5 2.008121 1_555
Fe3 O0 1.931895 1_555
Fe3 O3 1.938366 1_555
Fe3 O3 1.938366 1_655
Fe4 O1 1.915771 1_555
Fe4 O4 1.941804 1_655
Fe4 O4 1.941804 1_555
Fe5 O5 1.909624 1_555
Fe5 O5 1.909624 1_655
Fe5 O2 1.953402 1_555
Fe6 O8 1.927342 1_455
Fe6 O8 1.927342 1_555
Fe7 O6 1.947169 1_455
Fe7 O6 1.947169 1_555
Fe7 O9 1.949925 1_555
Fe8 O7 1.939360 1_455
Fe8 O7 1.939360 1_555
Fe8 O10 1.965121 1_555
Fe9 O9 1.945434 1_555
Fe9 O9 1.945434 1_655
Fe9 O7 1.949540 1_555
Fe10 O11 1.938183 1_555
Fe10 O11 1.938183 1_655
Fe10 O6 1.949671 1_555
Fe11 O10 1.937576 1_655
Fe11 O10 1.937576 1_555
Fe11 O8 1.989768 1_555
Fe12 O14 1.931877 1_455
Fe12 O14 1.931877 1_555
Fe12 O15 1.950064 1_554
Fe13 O12 1.938104 1_555
Fe13 O12 1.938104 1_455
Fe13 O11 1.973497 1_555
Fe14 O13 1.930292 1_455
Fe14 O13 1.930292 1_555
Fe14 O16 1.942807 1_555
Fe15 O15 1.944583 1_555
Fe15 O15 1.944583 1_655
Fe15 O12 1.955504 1_555
Fe16 O17 1.931591 1_655
Fe16 O17 1.931591 1_555
Fe16 O13 1.959315 1_555
Fe17 O16 1.940582 1_555
Fe17 O16 1.940582 1_655
Fe17 O14 1.960606 1_555
F0 Fe7 2.142619 1_555
F0 Fe3 2.148023 1_455
F0 Fe3 2.148023 1_555
F1 Fe8 2.110698 1_555
F1 Fe4 2.160292 1_455
F1 Fe4 2.160292 1_555
F2 Fe6 2.030112 1_555
F2 Fe5 2.214042 1_455
F2 Fe5 2.214042 1_555
F3 Fe6 2.123973 1_556
F3 Fe6 2.123973 1_656
F3 Fe3 2.198811 1_555
F4 Fe5 2.138375 1_555
F4 Fe8 2.144806 1_555
F4 Fe8 2.144806 1_655
F5 Fe7 2.145816 1_555
F5 Fe7 2.145816 1_655
F5 Fe4 2.159633 1_555
F6 Fe6 2.064168 1_556
F6 Fe10 2.182521 1_555
F6 Fe10 2.182521 1_455
F7 Fe9 2.143615 1_455
F7 Fe9 2.143615 1_555
F7 Fe14 2.145898 1_555
F8 Fe11 2.141770 1_455
F8 Fe11 2.141770 1_555
F8 Fe12 2.152477 1_555
F9 Fe10 2.139553 1_555
F9 Fe12 2.168018 1_656
F9 Fe12 2.168018 1_556
F10 Fe9 2.138235 1_555
F10 Fe13 2.153938 1_555
F10 Fe13 2.153938 1_655
F11 Fe11 2.102299 1_555
F11 Fe14 2.172080 1_655
F11 Fe14 2.172080 1_555
F12 Fe13 2.107060 1_555
F12 Fe16 2.156458 1_455
F12 Fe16 2.156458 1_555
F13 Fe15 2.139557 1_555
F13 Fe15 2.139557 1_455
F13 Fe1 2.146363 1_545
F14 Fe0 2.125484 1_545
F14 Fe17 2.154669 1_555
F14 Fe17 2.154669 1_455
F15 Fe15 2.138350 1_555
F15 Fe0 2.156697 1_546
F15 Fe0 2.156697 1_646
F16 Fe1 2.138117 1_545
F16 Fe1 2.138117 1_645
F16 Fe16 2.140848 1_555
F17 Fe17 2.076324 1_555
F17 Fe2 2.178250 1_545
F17 Fe2 2.178250 1_645
