# generated using pymatgen
data_Li4Cr3CoO8
_symmetry_space_group_name_H-M   'P 1'
_cell_length_a   5.91431400
_cell_length_b   5.11070500
_cell_length_c   5.11535411
_cell_angle_alpha   70.77084856
_cell_angle_beta   90.00000000
_cell_angle_gamma   90.00000000
_symmetry_Int_Tables_number   1
_chemical_formula_structural   Li4Cr3CoO8
_chemical_formula_sum   'Li4 Cr3 Co1 O8'
_cell_volume   145.99197888
_cell_formula_units_Z   1
loop_
 _symmetry_equiv_pos_site_id
 _symmetry_equiv_pos_as_xyz
  1  'x, y, z'
loop_
 _atom_site_type_symbol
 _atom_site_label
 _atom_site_symmetry_multiplicity
 _atom_site_fract_x
 _atom_site_fract_y
 _atom_site_fract_z
 _atom_site_occupancy
  Li  Li0  1  0.24644700  0.00000000  0.00000000  1
  Li  Li1  1  0.75355300  0.00000000  0.00000000  1
  Li  Li2  1  0.00000000  0.50000000  0.00000000  1
  Li  Li3  1  0.50000000  0.50000000  0.00000000  1
  Cr  Cr0  1  0.50000000  0.00000000  0.50000000  1
  Cr  Cr1  1  0.25021000  0.50000000  0.50000000  1
  Cr  Cr2  1  0.74979000  0.50000000  0.50000000  1
  Co  Co0  1  0.00000000  0.00000000  0.50000000  1
  O  O0  1  0.25014300  0.75727100  0.72688700  1
  O  O1  1  0.74985700  0.75727100  0.72688700  1
  O  O2  1  0.00000000  0.74405700  0.27473600  1
  O  O3  1  0.00000000  0.25594300  0.72526400  1
  O  O4  1  0.50000000  0.74090100  0.27413700  1
  O  O5  1  0.25014300  0.24272900  0.27311300  1
  O  O6  1  0.50000000  0.25909900  0.72586300  1
  O  O7  1  0.74985700  0.24272900  0.27311300  1
loop_
_geom_bond_atom_site_label_1
_geom_bond_atom_site_label_2
_geom_bond_distance
_geom_bond_site_symmetry_2
Li0 O3 2.144687 1_554
Li0 O2 2.144687 1_545
Li0 O5 2.152379 1_555
Li0 O0 2.152379 1_544
Li0 O6 2.178430 1_554
Li0 O4 2.178430 1_545
Li1 O3 2.144687 1_654
Li1 O2 2.144687 1_645
Li1 O7 2.152379 1_555
Li1 O1 2.152379 1_544
Li1 O6 2.178430 1_554
Li1 O4 2.178430 1_545
Li2 O0 2.158547 1_554
Li2 O7 2.158547 1_455
Li2 O5 2.158547 1_555
Li2 O1 2.158547 1_454
Li2 O2 2.164596 1_555
Li2 O3 2.164596 1_554
Li3 O6 2.149298 1_554
Li3 O4 2.149298 1_555
Li3 O1 2.157388 1_554
Li3 O7 2.157388 1_555
Li3 O5 2.157388 1_555
Li3 O0 2.157388 1_554
Cr0 O4 2.023876 1_545
Cr0 O6 2.023876 1_555
Cr0 O0 2.030081 1_545
Cr0 O5 2.030081 1_555
Cr0 O1 2.030081 1_545
Cr0 O7 2.030081 1_555
Cr1 O0 2.020143 1_555
Cr1 O5 2.020143 1_555
Cr1 O6 2.023913 1_555
Cr1 O4 2.023913 1_555
Cr1 O2 2.031432 1_555
Cr1 O3 2.031432 1_555
Cr2 O1 2.020143 1_555
Cr2 O7 2.020143 1_555
Cr2 O6 2.023913 1_555
Cr2 O4 2.023913 1_555
Cr2 O2 2.031432 1_655
Cr2 O3 2.031432 1_655
Co0 O3 2.007892 1_555
Co0 O2 2.007892 1_545
Co0 O1 2.031312 1_445
Co0 O0 2.031312 1_545
Co0 O5 2.031312 1_555
Co0 O7 2.031312 1_455
