# generated using pymatgen
data_K2Sn2O3
_symmetry_space_group_name_H-M   'P 1'
_cell_length_a   5.87213430
_cell_length_b   5.87213549
_cell_length_c   5.87213452
_cell_angle_alpha   61.64375596
_cell_angle_beta   61.64374503
_cell_angle_gamma   61.64375371
_symmetry_Int_Tables_number   1
_chemical_formula_structural   K2Sn2O3
_chemical_formula_sum   'K2 Sn2 O3'
_cell_volume   148.45452751
_cell_formula_units_Z   1
loop_
 _symmetry_equiv_pos_site_id
 _symmetry_equiv_pos_as_xyz
  1  'x, y, z'
loop_
 _atom_site_type_symbol
 _atom_site_label
 _atom_site_symmetry_multiplicity
 _atom_site_fract_x
 _atom_site_fract_y
 _atom_site_fract_z
 _atom_site_occupancy
  K  K0  1  0.50000000  0.50000000  0.50000000  1
  K  K1  1  -0.00000000  0.00000000  -0.00000000  1
  Sn  Sn0  1  0.24228268  0.24228268  0.24228268  1
  Sn  Sn1  1  0.75771732  0.75771732  0.75771732  1
  O  O0  1  -0.00000000  0.50000000  -0.00000000  1
  O  O1  1  -0.00000000  0.00000000  0.50000000  1
  O  O2  1  0.50000000  0.00000000  -0.00000000  1
loop_
_geom_bond_atom_site_label_1
_geom_bond_atom_site_label_2
_geom_bond_distance
_geom_bond_site_symmetry_2
K0 O0 3.008710 1_655
K0 O0 3.008710 1_556
K0 O1 3.008710 1_655
K0 O1 3.008710 1_565
K0 O2 3.008711 1_556
K0 O2 3.008711 1_565
K0 Sn0 3.660218 1_555
K0 Sn1 3.660218 1_555
K1 O2 2.936067 1_455
K1 O2 2.936067 1_555
K1 O1 2.936067 1_555
K1 O1 2.936067 1_554
K1 O0 2.936068 1_555
K1 O0 2.936068 1_545
O0 Sn1 2.042248 1_454
O0 Sn0 2.042248 1_555
O1 Sn1 2.042248 1_445
O1 Sn0 2.042248 1_555
O2 Sn1 2.042248 1_544
O2 Sn0 2.042248 1_555
