# generated using pymatgen
data_Zn(NO3)2
_symmetry_space_group_name_H-M   'P 1'
_cell_length_a   7.48371387
_cell_length_b   7.48371387
_cell_length_c   7.48371387
_cell_angle_alpha   90.00000000
_cell_angle_beta   90.00000000
_cell_angle_gamma   90.00000000
_symmetry_Int_Tables_number   1
_chemical_formula_structural   Zn(NO3)2
_chemical_formula_sum   'Zn4 N8 O24'
_cell_volume   419.13267910
_cell_formula_units_Z   4
loop_
 _symmetry_equiv_pos_site_id
 _symmetry_equiv_pos_as_xyz
  1  'x, y, z'
loop_
 _atom_site_type_symbol
 _atom_site_label
 _atom_site_symmetry_multiplicity
 _atom_site_fract_x
 _atom_site_fract_y
 _atom_site_fract_z
 _atom_site_occupancy
  Zn  Zn0  1  0.50000000  0.50000000  0.50000000  1
  Zn  Zn1  1  0.50000000  -0.00000000  0.00000000  1
  Zn  Zn2  1  0.00000000  0.50000000  0.00000000  1
  Zn  Zn3  1  0.00000000  -0.00000000  0.50000000  1
  N  N0  1  0.67742692  0.17742692  0.32257308  1
  N  N1  1  0.67742692  0.32257308  0.82257308  1
  N  N2  1  0.82257308  0.82257308  0.82257308  1
  N  N3  1  0.82257308  0.67742692  0.32257308  1
  N  N4  1  0.17742692  0.17742692  0.17742692  1
  N  N5  1  0.17742692  0.32257308  0.67742692  1
  N  N6  1  0.32257308  0.67742692  0.17742692  1
  N  N7  1  0.32257308  0.82257308  0.67742692  1
  O  O0  1  0.55611234  0.20680913  0.81632380  1
  O  O1  1  0.55611234  0.29319087  0.31632380  1
  O  O2  1  0.68367620  0.44388766  0.70680913  1
  O  O3  1  0.68367620  0.05611234  0.20680913  1
  O  O4  1  0.70680913  0.68367620  0.44388766  1
  O  O5  1  0.70680913  0.81632380  0.94388766  1
  O  O6  1  0.79319087  0.31632380  0.94388766  1
  O  O7  1  0.79319087  0.18367620  0.44388766  1
  O  O8  1  0.81632380  0.94388766  0.70680913  1
  O  O9  1  0.81632380  0.55611234  0.20680913  1
  O  O10  1  0.94388766  0.70680913  0.81632380  1
  O  O11  1  0.94388766  0.79319087  0.31632380  1
  O  O12  1  0.05611234  0.20680913  0.68367620  1
  O  O13  1  0.05611234  0.29319087  0.18367620  1
  O  O14  1  0.18367620  0.44388766  0.79319087  1
  O  O15  1  0.18367620  0.05611234  0.29319087  1
  O  O16  1  0.20680913  0.68367620  0.05611234  1
  O  O17  1  0.20680913  0.81632380  0.55611234  1
  O  O18  1  0.29319087  0.18367620  0.05611234  1
  O  O19  1  0.29319087  0.31632380  0.55611234  1
  O  O20  1  0.31632380  0.55611234  0.29319087  1
  O  O21  1  0.31632380  0.94388766  0.79319087  1
  O  O22  1  0.44388766  0.70680913  0.68367620  1
  O  O23  1  0.44388766  0.79319087  0.18367620  1
loop_
_geom_bond_atom_site_label_1
_geom_bond_atom_site_label_2
_geom_bond_distance
_geom_bond_site_symmetry_2
N0 O7 1.255784 1_555
N0 O3 1.255784 1_555
N0 O1 1.255784 1_555
N1 O2 1.255784 1_555
N1 O6 1.255784 1_555
N1 O0 1.255784 1_555
N2 O8 1.255784 1_555
N2 O10 1.255784 1_555
N2 O5 1.255784 1_555
N3 O4 1.255784 1_555
N3 O11 1.255784 1_555
N3 O9 1.255784 1_555
N4 O15 1.255784 1_555
N4 O18 1.255784 1_555
N4 O13 1.255784 1_555
N5 O12 1.255784 1_555
N5 O14 1.255784 1_555
N5 O19 1.255784 1_555
N6 O16 1.255784 1_555
N6 O23 1.255784 1_555
N6 O20 1.255784 1_555
N7 O22 1.255784 1_555
N7 O21 1.255784 1_555
N7 O17 1.255784 1_555
O0 Zn1 2.112152 1_556
O1 Zn0 2.112152 1_555
O2 Zn0 2.112152 1_555
O3 Zn1 2.112152 1_555
O4 Zn0 2.112152 1_555
O5 Zn1 2.112152 1_566
O6 Zn2 2.112152 1_656
O7 Zn3 2.112152 1_655
O8 Zn3 2.112152 1_665
O9 Zn2 2.112152 1_655
O10 Zn2 2.112152 1_656
O11 Zn3 2.112152 1_665
O12 Zn3 2.112152 1_555
O13 Zn2 2.112152 1_555
O14 Zn2 2.112152 1_556
O15 Zn3 2.112152 1_555
O16 Zn2 2.112152 1_555
O17 Zn3 2.112152 1_565
O18 Zn1 2.112152 1_555
O19 Zn0 2.112152 1_555
O20 Zn0 2.112152 1_555
O21 Zn1 2.112152 1_566
O22 Zn0 2.112152 1_555
O23 Zn1 2.112152 1_565
