# generated using pymatgen
data_InFe11O16
_symmetry_space_group_name_H-M   'P 1'
_cell_length_a   10.51338500
_cell_length_b   10.51338500
_cell_length_c   6.10917000
_cell_angle_alpha   90.00000000
_cell_angle_beta   90.00000000
_cell_angle_gamma   108.57815350
_symmetry_Int_Tables_number   1
_chemical_formula_structural   InFe11O16
_chemical_formula_sum   'In2 Fe22 O32'
_cell_volume   640.06675420
_cell_formula_units_Z   2
loop_
 _symmetry_equiv_pos_site_id
 _symmetry_equiv_pos_as_xyz
  1  'x, y, z'
loop_
 _atom_site_type_symbol
 _atom_site_label
 _atom_site_symmetry_multiplicity
 _atom_site_fract_x
 _atom_site_fract_y
 _atom_site_fract_z
 _atom_site_occupancy
  In  In0  1  0.81310600  0.18689400  0.75000000  1
  In  In1  1  0.18689400  0.81310600  0.25000000  1
  Fe  Fe0  1  0.00000000  0.00000000  0.50000000  1
  Fe  Fe1  1  0.00000000  0.00000000  0.00000000  1
  Fe  Fe2  1  0.31254100  0.18737200  0.25000000  1
  Fe  Fe3  1  0.81262800  0.68745900  0.25000000  1
  Fe  Fe4  1  0.25190400  0.00145400  0.75000000  1
  Fe  Fe5  1  0.99854600  0.74809600  0.75000000  1
  Fe  Fe6  1  0.50000000  0.00000000  0.50000000  1
  Fe  Fe7  1  0.00000000  0.50000000  0.00000000  1
  Fe  Fe8  1  0.50000000  0.00000000  0.00000000  1
  Fe  Fe9  1  0.00000000  0.50000000  0.50000000  1
  Fe  Fe10  1  0.31412900  0.68587100  0.75000000  1
  Fe  Fe11  1  0.50545300  0.74757700  0.25000000  1
  Fe  Fe12  1  0.25242300  0.49454700  0.25000000  1
  Fe  Fe13  1  0.74809600  0.99854600  0.25000000  1
  Fe  Fe14  1  0.00145400  0.25190400  0.25000000  1
  Fe  Fe15  1  0.18737200  0.31254100  0.75000000  1
  Fe  Fe16  1  0.68745900  0.81262800  0.75000000  1
  Fe  Fe17  1  0.50000000  0.50000000  0.00000000  1
  Fe  Fe18  1  0.50000000  0.50000000  0.50000000  1
  Fe  Fe19  1  0.74757700  0.50545300  0.75000000  1
  Fe  Fe20  1  0.49454700  0.25242300  0.75000000  1
  Fe  Fe21  1  0.68587100  0.31412900  0.25000000  1
  O  O0  1  0.88487000  0.11513000  0.48268500  1
  O  O1  1  0.88487000  0.11513000  0.01731500  1
  O  O2  1  0.11845300  0.11485800  0.25000000  1
  O  O3  1  0.88514200  0.88154700  0.25000000  1
  O  O4  1  0.11485800  0.11845300  0.75000000  1
  O  O5  1  0.88154700  0.88514200  0.75000000  1
  O  O6  1  0.11513000  0.88487000  0.51731500  1
  O  O7  1  0.11513000  0.88487000  0.98268500  1
  O  O8  1  0.38112800  0.12594500  0.50895200  1
  O  O9  1  0.87405500  0.61887200  0.99104800  1
  O  O10  1  0.87405500  0.61887200  0.50895200  1
  O  O11  1  0.38112800  0.12594500  0.99104800  1
  O  O12  1  0.60387000  0.12298200  0.75000000  1
  O  O13  1  0.37598900  0.87911900  0.75000000  1
  O  O14  1  0.12088100  0.62401100  0.75000000  1
  O  O15  1  0.87701800  0.39613000  0.75000000  1
  O  O16  1  0.39613000  0.87701800  0.25000000  1
  O  O17  1  0.62401100  0.12088100  0.25000000  1
  O  O18  1  0.12298200  0.60387000  0.25000000  1
  O  O19  1  0.87911900  0.37598900  0.25000000  1
  O  O20  1  0.61887200  0.87405500  0.00895200  1
  O  O21  1  0.12594500  0.38112800  0.00895200  1
  O  O22  1  0.61887200  0.87405500  0.49104800  1
  O  O23  1  0.12594500  0.38112800  0.49104800  1
  O  O24  1  0.37858200  0.62141800  0.47987500  1
  O  O25  1  0.37858200  0.62141800  0.02012500  1
  O  O26  1  0.37193500  0.38034700  0.25000000  1
  O  O27  1  0.61965300  0.62806500  0.25000000  1
  O  O28  1  0.62806500  0.61965300  0.75000000  1
  O  O29  1  0.38034700  0.37193500  0.75000000  1
  O  O30  1  0.62141800  0.37858200  0.52012500  1
  O  O31  1  0.62141800  0.37858200  0.97987500  1
loop_
_geom_bond_atom_site_label_1
_geom_bond_atom_site_label_2
_geom_bond_distance
_geom_bond_site_symmetry_2
In0 O0 2.041601 1_555
In0 O1 2.041601 1_556
In0 O12 2.085349 1_555
In0 O15 2.085349 1_555
In1 O6 2.041601 1_555
In1 O7 2.041601 1_554
In1 O18 2.085349 1_555
In1 O16 2.085349 1_555
Fe0 O6 1.968476 1_545
Fe0 O0 1.968476 1_455
Fe0 O2 2.093668 1_555
Fe0 O4 2.093668 1_555
Fe0 O3 2.093668 1_445
Fe0 O5 2.093668 1_445
Fe1 O1 1.968476 1_455
Fe1 O7 1.968476 1_544
Fe1 O2 2.093668 1_555
Fe1 O4 2.093668 1_554
Fe1 O3 2.093668 1_445
Fe1 O5 2.093668 1_444
Fe2 O26 1.923224 1_555
Fe2 O8 1.932982 1_555
Fe2 O11 1.932982 1_554
Fe2 O2 1.937445 1_555
Fe3 O27 1.923224 1_555
Fe3 O10 1.932982 1_555
Fe3 O9 1.932982 1_554
Fe3 O3 1.937445 1_555
Fe4 O13 2.103611 1_545
Fe4 O7 2.113691 1_545
Fe4 O6 2.113691 1_545
Fe4 O11 2.143431 1_555
Fe4 O8 2.143431 1_555
Fe4 O4 2.172161 1_555
Fe5 O14 2.103611 1_655
Fe5 O7 2.113691 1_655
Fe5 O6 2.113691 1_655
Fe5 O9 2.143431 1_555
Fe5 O10 2.143431 1_555
Fe5 O5 2.172161 1_555
Fe6 O12 2.072968 1_555
Fe6 O16 2.072968 1_545
Fe6 O22 2.091065 1_545
Fe6 O8 2.091065 1_555
Fe6 O17 2.142842 1_555
Fe6 O13 2.142842 1_545
Fe7 O15 2.072968 1_454
Fe7 O18 2.072968 1_555
Fe7 O9 2.091065 1_454
Fe7 O21 2.091065 1_555
Fe7 O14 2.142842 1_554
Fe7 O19 2.142842 1_455
Fe8 O12 2.072968 1_554
Fe8 O16 2.072968 1_545
Fe8 O20 2.091065 1_545
Fe8 O11 2.091065 1_554
Fe8 O17 2.142842 1_555
Fe8 O13 2.142842 1_544
Fe9 O15 2.072968 1_455
Fe9 O18 2.072968 1_555
Fe9 O10 2.091065 1_455
Fe9 O23 2.091065 1_555
Fe9 O14 2.142842 1_555
Fe9 O19 2.142842 1_455
Fe10 O13 1.925822 1_555
Fe10 O14 1.925822 1_555
Fe10 O25 1.983483 1_556
Fe10 O24 1.983483 1_555
Fe11 O27 1.995367 1_555
Fe11 O16 2.041963 1_555
Fe11 O22 2.085242 1_555
Fe11 O20 2.085242 1_555
Fe11 O24 2.093622 1_555
Fe11 O25 2.093622 1_555
Fe12 O26 1.995367 1_555
Fe12 O18 2.041963 1_555
Fe12 O23 2.085242 1_555
Fe12 O21 2.085242 1_555
Fe12 O25 2.093622 1_555
Fe12 O24 2.093622 1_555
Fe13 O17 2.103611 1_565
Fe13 O1 2.113691 1_565
Fe13 O0 2.113691 1_565
Fe13 O20 2.143431 1_555
Fe13 O22 2.143431 1_555
Fe13 O3 2.172161 1_555
Fe14 O19 2.103611 1_455
Fe14 O0 2.113691 1_455
Fe14 O1 2.113691 1_455
Fe14 O23 2.143431 1_555
Fe14 O21 2.143431 1_555
Fe14 O2 2.172161 1_555
Fe15 O29 1.923224 1_555
Fe15 O23 1.932982 1_555
Fe15 O21 1.932982 1_556
Fe15 O4 1.937445 1_555
Fe16 O28 1.923224 1_555
Fe16 O22 1.932982 1_555
Fe16 O20 1.932982 1_556
Fe16 O5 1.937445 1_555
Fe17 O31 2.076631 1_554
Fe17 O25 2.076631 1_555
Fe17 O27 2.156070 1_555
Fe17 O28 2.156070 1_554
Fe17 O29 2.156070 1_554
Fe17 O26 2.156070 1_555
Fe18 O24 2.076631 1_555
Fe18 O30 2.076631 1_555
Fe18 O28 2.156070 1_555
Fe18 O27 2.156070 1_555
Fe18 O29 2.156070 1_555
Fe18 O26 2.156070 1_555
Fe19 O28 1.995367 1_555
Fe19 O15 2.041963 1_555
Fe19 O9 2.085242 1_555
Fe19 O10 2.085242 1_555
Fe19 O31 2.093622 1_555
Fe19 O30 2.093622 1_555
Fe20 O29 1.995367 1_555
Fe20 O12 2.041963 1_555
Fe20 O11 2.085242 1_555
Fe20 O8 2.085242 1_555
Fe20 O31 2.093622 1_555
Fe20 O30 2.093622 1_555
Fe21 O19 1.925822 1_555
Fe21 O17 1.925822 1_555
Fe21 O30 1.983483 1_555
Fe21 O31 1.983483 1_554
