# generated using pymatgen
data_Li3FeF5
_symmetry_space_group_name_H-M   'P 1'
_cell_length_a   5.83336584
_cell_length_b   10.80891281
_cell_length_c   12.27078474
_cell_angle_alpha   90.00000000
_cell_angle_beta   90.00000000
_cell_angle_gamma   90.00000000
_symmetry_Int_Tables_number   1
_chemical_formula_structural   Li3FeF5
_chemical_formula_sum   'Li24 Fe8 F40'
_cell_volume   773.70172528
_cell_formula_units_Z   8
loop_
 _symmetry_equiv_pos_site_id
 _symmetry_equiv_pos_as_xyz
  1  'x, y, z'
loop_
 _atom_site_type_symbol
 _atom_site_label
 _atom_site_symmetry_multiplicity
 _atom_site_fract_x
 _atom_site_fract_y
 _atom_site_fract_z
 _atom_site_occupancy
  Li  Li0  1  0.01742690  0.30234924  0.33319387  1
  Li  Li1  1  0.01742690  0.19765076  0.83319387  1
  Li  Li2  1  0.12404529  0.07872356  0.59926286  1
  Li  Li3  1  0.12404529  0.42127644  0.09926286  1
  Li  Li4  1  0.24417894  0.53831519  0.31387744  1
  Li  Li5  1  0.24417894  0.96168481  0.81387744  1
  Li  Li6  1  0.25582106  0.03831519  0.31387744  1
  Li  Li7  1  0.25582106  0.46168481  0.81387744  1
  Li  Li8  1  0.37595471  0.92127644  0.09926286  1
  Li  Li9  1  0.37595471  0.57872356  0.59926286  1
  Li  Li10  1  0.48257310  0.69765076  0.83319387  1
  Li  Li11  1  0.48257310  0.80234924  0.33319387  1
  Li  Li12  1  0.51742690  0.30234924  0.16680613  1
  Li  Li13  1  0.51742690  0.19765076  0.66680613  1
  Li  Li14  1  0.62404529  0.42127644  0.40073714  1
  Li  Li15  1  0.62404529  0.07872356  0.90073714  1
  Li  Li16  1  0.74417894  0.53831519  0.18612256  1
  Li  Li17  1  0.74417894  0.96168481  0.68612256  1
  Li  Li18  1  0.75582106  0.46168481  0.68612256  1
  Li  Li19  1  0.75582106  0.03831519  0.18612256  1
  Li  Li20  1  0.87595471  0.92127644  0.40073714  1
  Li  Li21  1  0.87595471  0.57872356  0.90073714  1
  Li  Li22  1  0.98257310  0.80234924  0.16680613  1
  Li  Li23  1  0.98257310  0.69765076  0.66680613  1
  Fe  Fe0  1  0.17826133  0.15809576  0.06272418  1
  Fe  Fe1  1  0.17826133  0.34190424  0.56272418  1
  Fe  Fe2  1  0.32173867  0.65809576  0.06272418  1
  Fe  Fe3  1  0.32173867  0.84190424  0.56272418  1
  Fe  Fe4  1  0.67826133  0.15809576  0.43727582  1
  Fe  Fe5  1  0.67826133  0.34190424  0.93727582  1
  Fe  Fe6  1  0.82173867  0.65809576  0.43727582  1
  Fe  Fe7  1  0.82173867  0.84190424  0.93727582  1
  F  F0  1  0.00468357  0.61579387  0.12336349  1
  F  F1  1  0.00468357  0.88420613  0.62336349  1
  F  F2  1  0.13428686  0.66995839  0.51030876  1
  F  F3  1  0.13428686  0.83004161  0.01030876  1
  F  F4  1  0.09138430  0.49086200  0.67461107  1
  F  F5  1  0.09138430  0.00913800  0.17461107  1
  F  F6  1  0.16790369  0.27842182  0.19683841  1
  F  F7  1  0.16790369  0.22157818  0.69683841  1
  F  F8  1  0.28866393  0.10322342  0.91018172  1
  F  F9  1  0.28866393  0.39677658  0.41018172  1
  F  F10  1  0.21133607  0.60322342  0.91018172  1
  F  F11  1  0.21133607  0.89677658  0.41018172  1
  F  F12  1  0.33209631  0.77842182  0.19683841  1
  F  F13  1  0.33209631  0.72157818  0.69683841  1
  F  F14  1  0.40861570  0.99086200  0.67461107  1
  F  F15  1  0.40861570  0.50913800  0.17461107  1
  F  F16  1  0.36571314  0.16995839  0.51030876  1
  F  F17  1  0.36571314  0.33004161  0.01030876  1
  F  F18  1  0.49531643  0.11579387  0.12336349  1
  F  F19  1  0.49531643  0.38420613  0.62336349  1
  F  F20  1  0.50468357  0.88420613  0.87663651  1
  F  F21  1  0.50468357  0.61579387  0.37663651  1
  F  F22  1  0.63428686  0.66995839  0.98969124  1
  F  F23  1  0.63428686  0.83004161  0.48969124  1
  F  F24  1  0.59138430  0.49086200  0.82538893  1
  F  F25  1  0.59138430  0.00913800  0.32538893  1
  F  F26  1  0.66790369  0.22157818  0.80316159  1
  F  F27  1  0.66790369  0.27842182  0.30316159  1
  F  F28  1  0.78866393  0.39677658  0.08981828  1
  F  F29  1  0.78866393  0.10322342  0.58981828  1
  F  F30  1  0.71133607  0.60322342  0.58981828  1
  F  F31  1  0.71133607  0.89677658  0.08981828  1
  F  F32  1  0.83209631  0.77842182  0.30316159  1
  F  F33  1  0.83209631  0.72157818  0.80316159  1
  F  F34  1  0.90861570  0.50913800  0.32538893  1
  F  F35  1  0.90861570  0.99086200  0.82538893  1
  F  F36  1  0.86571314  0.33004161  0.48969124  1
  F  F37  1  0.86571314  0.16995839  0.98969124  1
  F  F38  1  0.99531643  0.11579387  0.37663651  1
  F  F39  1  0.99531643  0.38420613  0.87663651  1
loop_
_geom_bond_atom_site_label_1
_geom_bond_atom_site_label_2
_geom_bond_distance
_geom_bond_site_symmetry_2
F0 Li16 1.898326 1_455
F0 Fe2 2.045332 1_555
F0 Li22 2.089717 1_455
F0 Li3 2.234472 1_555
F1 Li17 1.898326 1_455
F1 Fe3 2.045332 1_555
F1 Li23 2.089717 1_455
F1 Li2 2.234472 1_565
F2 Fe6 2.035596 1_455
F2 Li9 2.037474 1_555
F2 Li23 2.135545 1_455
F2 Fe3 2.250237 1_555
F3 Fe7 2.035596 1_454
F3 Li8 2.037474 1_555
F3 Li22 2.135545 1_455
F3 Fe2 2.250237 1_555
F4 Li7 1.984925 1_555
F4 Li18 1.987731 1_455
F4 Li9 2.124234 1_555
F4 Fe1 2.175805 1_555
F4 Li23 2.325513 1_455
F5 Li6 1.984925 1_555
F5 Li19 1.987731 1_455
F5 Li8 2.124234 1_545
F5 Fe0 2.175805 1_555
F5 Li22 2.325513 1_445
F6 Li0 1.907081 1_555
F6 Li3 1.970610 1_555
F6 Li12 2.088012 1_555
F6 Fe0 2.098447 1_555
F7 Li1 1.907081 1_555
F7 Li2 1.970610 1_555
F7 Li13 2.088012 1_555
F7 Fe1 2.098447 1_555
F8 Li5 1.950474 1_545
F8 Li15 1.977642 1_555
F8 Fe0 2.066454 1_556
F8 Li1 2.106570 1_555
F9 Li4 1.950474 1_555
F9 Li14 1.977642 1_555
F9 Fe1 2.066454 1_555
F9 Li0 2.106570 1_555
F10 Li7 1.950474 1_555
F10 Li21 1.977642 1_455
F10 Fe2 2.066454 1_556
F10 Li10 2.106570 1_555
F11 Li6 1.950474 1_565
F11 Li20 1.977642 1_455
F11 Fe3 2.066454 1_555
F11 Li11 2.106570 1_555
F12 Li11 1.907081 1_555
F12 Li8 1.970610 1_555
F12 Li22 2.088012 1_455
F12 Fe2 2.098447 1_555
F13 Li10 1.907081 1_555
F13 Li9 1.970610 1_555
F13 Li23 2.088012 1_455
F13 Fe3 2.098447 1_555
F14 Li5 1.984925 1_555
F14 Li17 1.987731 1_555
F14 Li2 2.124234 1_565
F14 Fe3 2.175805 1_555
F14 Li13 2.325513 1_565
F15 Li4 1.984925 1_555
F15 Li16 1.987731 1_555
F15 Li3 2.124234 1_555
F15 Fe2 2.175805 1_555
F15 Li12 2.325513 1_555
F16 Fe4 2.035596 1_555
F16 Li2 2.037474 1_555
F16 Li13 2.135545 1_555
F16 Fe1 2.250237 1_555
F17 Fe5 2.035596 1_554
F17 Li3 2.037474 1_555
F17 Li12 2.135545 1_555
F17 Fe0 2.250237 1_555
F18 Li19 1.898326 1_555
F18 Fe0 2.045332 1_555
F18 Li12 2.089717 1_555
F18 Li8 2.234472 1_545
F19 Li18 1.898326 1_555
F19 Fe1 2.045332 1_555
F19 Li13 2.089717 1_555
F19 Li9 2.234472 1_555
F20 Li5 1.898326 1_555
F20 Fe7 2.045332 1_555
F20 Li10 2.089717 1_555
F20 Li15 2.234472 1_565
F21 Li4 1.898326 1_555
F21 Fe6 2.045332 1_555
F21 Li11 2.089717 1_555
F21 Li14 2.234472 1_555
F22 Fe2 2.035596 1_556
F22 Li21 2.037474 1_555
F22 Li10 2.135545 1_555
F22 Fe7 2.250237 1_555
F23 Fe3 2.035596 1_555
F23 Li20 2.037474 1_555
F23 Li11 2.135545 1_555
F23 Fe6 2.250237 1_555
F24 Li18 1.984925 1_555
F24 Li7 1.987731 1_555
F24 Li21 2.124234 1_555
F24 Fe5 2.175805 1_555
F24 Li10 2.325513 1_555
F25 Li19 1.984925 1_555
F25 Li6 1.987731 1_555
F25 Li20 2.124234 1_545
F25 Fe4 2.175805 1_555
F25 Li11 2.325513 1_545
F26 Li13 1.907081 1_555
F26 Li15 1.970610 1_555
F26 Li1 2.088012 1_655
F26 Fe5 2.098447 1_555
F27 Li12 1.907081 1_555
F27 Li14 1.970610 1_555
F27 Li0 2.088012 1_655
F27 Fe4 2.098447 1_555
F28 Li16 1.950474 1_555
F28 Li3 1.977642 1_655
F28 Fe5 2.066454 1_554
F28 Li12 2.106570 1_555
F29 Li17 1.950474 1_545
F29 Li2 1.977642 1_655
F29 Fe4 2.066454 1_555
F29 Li13 2.106570 1_555
F30 Li18 1.950474 1_555
F30 Li9 1.977642 1_555
F30 Fe6 2.066454 1_555
F30 Li23 2.106570 1_555
F31 Li19 1.950474 1_565
F31 Li8 1.977642 1_555
F31 Fe7 2.066454 1_554
F31 Li22 2.106570 1_555
F32 Li22 1.907081 1_555
F32 Li20 1.970610 1_555
F32 Li11 2.088012 1_555
F32 Fe6 2.098447 1_555
F33 Li23 1.907081 1_555
F33 Li21 1.970610 1_555
F33 Li10 2.088012 1_555
F33 Fe7 2.098447 1_555
F34 Li16 1.984925 1_555
F34 Li4 1.987731 1_655
F34 Li14 2.124234 1_555
F34 Fe6 2.175805 1_555
F34 Li0 2.325513 1_655
F35 Li17 1.984925 1_555
F35 Li5 1.987731 1_655
F35 Li15 2.124234 1_565
F35 Fe7 2.175805 1_555
F35 Li1 2.325513 1_665
F36 Fe1 2.035596 1_655
F36 Li14 2.037474 1_555
F36 Li0 2.135545 1_655
F36 Fe4 2.250237 1_555
F37 Fe0 2.035596 1_656
F37 Li15 2.037474 1_555
F37 Li1 2.135545 1_655
F37 Fe5 2.250237 1_555
F38 Li6 1.898326 1_655
F38 Fe4 2.045332 1_555
F38 Li0 2.089717 1_655
F38 Li20 2.234472 1_545
F39 Li7 1.898326 1_655
F39 Fe5 2.045332 1_555
F39 Li1 2.089717 1_655
F39 Li21 2.234472 1_555
