# generated using pymatgen
data_Cd(BO2)2
_symmetry_space_group_name_H-M   'P 1'
_cell_length_a   5.08324400
_cell_length_b   8.30027700
_cell_length_c   14.00446600
_cell_angle_alpha   90.00000000
_cell_angle_beta   90.00000000
_cell_angle_gamma   90.00000000
_symmetry_Int_Tables_number   1
_chemical_formula_structural   Cd(BO2)2
_chemical_formula_sum   'Cd8 B16 O32'
_cell_volume   590.88109658
_cell_formula_units_Z   8
loop_
 _symmetry_equiv_pos_site_id
 _symmetry_equiv_pos_as_xyz
  1  'x, y, z'
loop_
 _atom_site_type_symbol
 _atom_site_label
 _atom_site_symmetry_multiplicity
 _atom_site_fract_x
 _atom_site_fract_y
 _atom_site_fract_z
 _atom_site_occupancy
  Cd  Cd0  1  0.61445800  0.11785300  0.14602100  1
  Cd  Cd1  1  0.11445800  0.11785300  0.35397900  1
  Cd  Cd2  1  0.11445800  0.38214700  0.14602100  1
  Cd  Cd3  1  0.61445800  0.38214700  0.35397900  1
  Cd  Cd4  1  0.38554200  0.61785300  0.64602100  1
  Cd  Cd5  1  0.88554200  0.61785300  0.85397900  1
  Cd  Cd6  1  0.88554200  0.88214700  0.64602100  1
  Cd  Cd7  1  0.38554200  0.88214700  0.85397900  1
  B  B0  1  0.37632300  0.03443800  0.63864900  1
  B  B1  1  0.87632300  0.03443800  0.86135100  1
  B  B2  1  0.63480100  0.24373600  0.55099900  1
  B  B3  1  0.13480100  0.24373600  0.94900100  1
  B  B4  1  0.13480100  0.25626400  0.55099900  1
  B  B5  1  0.63480100  0.25626400  0.94900100  1
  B  B6  1  0.87632300  0.46556200  0.63864900  1
  B  B7  1  0.37632300  0.46556200  0.86135100  1
  B  B8  1  0.62367700  0.53443800  0.13864900  1
  B  B9  1  0.12367700  0.53443800  0.36135100  1
  B  B10  1  0.36519900  0.74373600  0.05099900  1
  B  B11  1  0.86519900  0.74373600  0.44900100  1
  B  B12  1  0.86519900  0.75626400  0.05099900  1
  B  B13  1  0.36519900  0.75626400  0.44900100  1
  B  B14  1  0.12367700  0.96556200  0.13864900  1
  B  B15  1  0.62367700  0.96556200  0.36135100  1
  O  O0  1  0.61508900  0.09410400  0.60937900  1
  O  O1  1  0.11508900  0.09410400  0.89062100  1
  O  O2  1  0.13492500  0.10839400  0.18830500  1
  O  O3  1  0.63492500  0.10839400  0.31169500  1
  O  O4  1  0.14823600  0.11387700  0.61607200  1
  O  O5  1  0.64823600  0.11387700  0.88392800  1
  O  O6  1  0.38510400  0.23974200  0.00644700  1
  O  O7  1  0.88510400  0.23974200  0.49355300  1
  O  O8  1  0.88510400  0.26025800  0.00644700  1
  O  O9  1  0.38510400  0.26025800  0.49355300  1
  O  O10  1  0.64823600  0.38612300  0.61607200  1
  O  O11  1  0.14823600  0.38612300  0.88392800  1
  O  O12  1  0.63492500  0.39160600  0.18830500  1
  O  O13  1  0.13492500  0.39160600  0.31169500  1
  O  O14  1  0.11508900  0.40589600  0.60937900  1
  O  O15  1  0.61508900  0.40589600  0.89062100  1
  O  O16  1  0.38491100  0.59410400  0.10937900  1
  O  O17  1  0.88491100  0.59410400  0.39062100  1
  O  O18  1  0.86507500  0.60839400  0.68830500  1
  O  O19  1  0.36507500  0.60839400  0.81169500  1
  O  O20  1  0.85176400  0.61387700  0.11607200  1
  O  O21  1  0.35176400  0.61387700  0.38392800  1
  O  O22  1  0.61489600  0.73974200  0.50644700  1
  O  O23  1  0.11489600  0.73974200  0.99355300  1
  O  O24  1  0.11489600  0.76025800  0.50644700  1
  O  O25  1  0.61489600  0.76025800  0.99355300  1
  O  O26  1  0.35176400  0.88612300  0.11607200  1
  O  O27  1  0.85176400  0.88612300  0.38392800  1
  O  O28  1  0.36507500  0.89160600  0.68830500  1
  O  O29  1  0.86507500  0.89160600  0.81169500  1
  O  O30  1  0.88491100  0.90589600  0.10937900  1
  O  O31  1  0.38491100  0.90589600  0.39062100  1
loop_
_geom_bond_atom_site_label_1
_geom_bond_atom_site_label_2
_geom_bond_distance
_geom_bond_site_symmetry_2
Cd0 O30 2.290957 1_545
Cd0 O3 2.323834 1_555
Cd0 O12 2.350424 1_555
Cd0 O26 2.378780 1_545
Cd0 O6 2.490681 1_555
Cd0 O2 2.509708 1_555
Cd0 O8 2.666558 1_555
Cd0 O2 2.712258 1_655
Cd1 O31 2.290957 1_545
Cd1 O2 2.323834 1_555
Cd1 O13 2.350424 1_555
Cd1 O27 2.378780 1_445
Cd1 O7 2.490681 1_455
Cd1 O3 2.509708 1_455
Cd1 O9 2.666558 1_555
Cd1 O3 2.712258 1_555
Cd2 O16 2.290957 1_555
Cd2 O13 2.323834 1_555
Cd2 O2 2.350424 1_555
Cd2 O20 2.378780 1_455
Cd2 O8 2.490681 1_455
Cd2 O12 2.509708 1_455
Cd2 O6 2.666558 1_555
Cd2 O12 2.712258 1_555
Cd3 O17 2.290957 1_555
Cd3 O12 2.323834 1_555
Cd3 O3 2.350424 1_555
Cd3 O21 2.378780 1_555
Cd3 O9 2.490681 1_555
Cd3 O13 2.509708 1_555
Cd3 O7 2.666558 1_555
Cd3 O13 2.712258 1_655
Cd4 O14 2.290957 1_555
Cd4 O19 2.323834 1_555
Cd4 O28 2.350424 1_555
Cd4 O10 2.378780 1_555
Cd4 O22 2.490681 1_555
Cd4 O18 2.509708 1_555
Cd4 O24 2.666558 1_555
Cd4 O18 2.712258 1_455
Cd5 O15 2.290957 1_555
Cd5 O18 2.323834 1_555
Cd5 O29 2.350424 1_555
Cd5 O11 2.378780 1_655
Cd5 O23 2.490681 1_655
Cd5 O19 2.509708 1_655
Cd5 O25 2.666558 1_555
Cd5 O19 2.712258 1_555
Cd6 O0 2.290957 1_565
Cd6 O29 2.323834 1_555
Cd6 O18 2.350424 1_555
Cd6 O4 2.378780 1_665
Cd6 O24 2.490681 1_655
Cd6 O28 2.509708 1_655
Cd6 O22 2.666558 1_555
Cd6 O28 2.712258 1_555
Cd7 O1 2.290957 1_565
Cd7 O28 2.323834 1_555
Cd7 O19 2.350424 1_555
Cd7 O5 2.378780 1_565
Cd7 O25 2.490681 1_555
Cd7 O29 2.509708 1_555
Cd7 O23 2.666558 1_555
Cd7 O29 2.712258 1_455
B0 O4 1.370763 1_555
B0 O0 1.373454 1_555
B0 O28 1.375636 1_545
B1 O5 1.370763 1_555
B1 O1 1.373454 1_655
B1 O29 1.375636 1_545
B2 O0 1.490305 1_555
B2 O10 1.493964 1_555
B2 O7 1.505722 1_555
B2 O9 1.508998 1_555
B3 O1 1.490305 1_555
B3 O11 1.493964 1_555
B3 O6 1.505722 1_556
B3 O8 1.508998 1_456
B4 O14 1.490305 1_555
B4 O4 1.493964 1_555
B4 O9 1.505722 1_555
B4 O7 1.508998 1_455
B5 O15 1.490305 1_555
B5 O5 1.493964 1_555
B5 O8 1.505722 1_556
B5 O6 1.508998 1_556
B6 O10 1.370763 1_555
B6 O14 1.373454 1_655
B6 O18 1.375636 1_555
B7 O11 1.370763 1_555
B7 O15 1.373454 1_555
B7 O19 1.375636 1_555
B8 O20 1.370763 1_555
B8 O16 1.373454 1_555
B8 O12 1.375636 1_555
B9 O21 1.370763 1_555
B9 O17 1.373454 1_455
B9 O13 1.375636 1_555
B10 O16 1.490305 1_555
B10 O26 1.493964 1_555
B10 O23 1.505722 1_554
B10 O25 1.508998 1_554
B11 O17 1.490305 1_555
B11 O27 1.493964 1_555
B11 O22 1.505722 1_555
B11 O24 1.508998 1_655
B12 O30 1.490305 1_555
B12 O20 1.493964 1_555
B12 O25 1.505722 1_554
B12 O23 1.508998 1_654
B13 O31 1.490305 1_555
B13 O21 1.493964 1_555
B13 O24 1.505722 1_555
B13 O22 1.508998 1_555
B14 O26 1.370763 1_555
B14 O30 1.373454 1_455
B14 O2 1.375636 1_565
B15 O27 1.370763 1_555
B15 O31 1.373454 1_555
B15 O3 1.375636 1_565
