# generated using pymatgen
data_LiSnPO4
_symmetry_space_group_name_H-M   'P 1'
_cell_length_a   9.03547863
_cell_length_b   9.03547863
_cell_length_c   9.03547890
_cell_angle_alpha   107.28062755
_cell_angle_beta   107.28062755
_cell_angle_gamma   107.28061624
_symmetry_Int_Tables_number   1
_chemical_formula_structural   LiSnPO4
_chemical_formula_sum   'Li6 Sn6 P6 O24'
_cell_volume   609.56257157
_cell_formula_units_Z   6
loop_
 _symmetry_equiv_pos_site_id
 _symmetry_equiv_pos_as_xyz
  1  'x, y, z'
loop_
 _atom_site_type_symbol
 _atom_site_label
 _atom_site_symmetry_multiplicity
 _atom_site_fract_x
 _atom_site_fract_y
 _atom_site_fract_z
 _atom_site_occupancy
  Li  Li0  1  0.88772300  0.13249200  0.72202800  1
  Li  Li1  1  0.41877600  0.21636500  0.61175700  1
  Li  Li2  1  0.61175700  0.41877600  0.21636500  1
  Li  Li3  1  0.13249200  0.72202800  0.88772300  1
  Li  Li4  1  0.21636500  0.61175700  0.41877600  1
  Li  Li5  1  0.72202800  0.88772300  0.13249200  1
  Sn  Sn0  1  0.44575800  0.05519900  0.22307600  1
  Sn  Sn1  1  0.77392200  0.54155400  0.93879300  1
  Sn  Sn2  1  0.05519900  0.22307600  0.44575800  1
  Sn  Sn3  1  0.93879300  0.77392200  0.54155400  1
  Sn  Sn4  1  0.22307600  0.44575800  0.05519900  1
  Sn  Sn5  1  0.54155400  0.93879300  0.77392200  1
  P  P0  1  0.27846700  0.10579000  0.86231600  1
  P  P1  1  0.78638300  0.38134100  0.58251700  1
  P  P2  1  0.86231600  0.27846700  0.10579000  1
  P  P3  1  0.38134100  0.58251700  0.78638300  1
  P  P4  1  0.58251700  0.78638300  0.38134100  1
  P  P5  1  0.10579000  0.86231600  0.27846700  1
  O  O0  1  0.90166600  0.25598100  0.94625900  1
  O  O1  1  0.38860500  0.10565800  0.75802800  1
  O  O2  1  0.10332800  0.10011500  0.76023100  1
  O  O3  1  0.89512300  0.27493300  0.59015000  1
  O  O4  1  0.27316100  0.03597400  0.37509700  1
  O  O5  1  0.76023100  0.10332800  0.10011500  1
  O  O6  1  0.66053700  0.32757800  0.66431700  1
  O  O7  1  0.68174100  0.34265800  0.39479800  1
  O  O8  1  0.34265800  0.39479800  0.68174100  1
  O  O9  1  0.90628400  0.57536600  0.69056800  1
  O  O10  1  0.75802800  0.38860500  0.10565800  1
  O  O11  1  0.57536600  0.69056800  0.90628400  1
  O  O12  1  0.37509700  0.27316100  0.03597400  1
  O  O13  1  0.27493300  0.59015000  0.89512300  1
  O  O14  1  0.03597400  0.37509700  0.27316100  1
  O  O15  1  0.66431700  0.66053700  0.32757800  1
  O  O16  1  0.32757800  0.66431700  0.66053700  1
  O  O17  1  0.39479800  0.68174100  0.34265800  1
  O  O18  1  0.69056800  0.90628400  0.57536600  1
  O  O19  1  0.25598100  0.94625900  0.90166600  1
  O  O20  1  0.94625900  0.90166600  0.25598100  1
  O  O21  1  0.10565800  0.75802800  0.38860500  1
  O  O22  1  0.59015000  0.89512300  0.27493300  1
  O  O23  1  0.10011500  0.76023100  0.10332800  1
loop_
_geom_bond_atom_site_label_1
_geom_bond_atom_site_label_2
_geom_bond_distance
_geom_bond_site_symmetry_2
Li0 O0 1.946141 1_555
Li0 O18 1.982981 1_545
Li0 O3 1.997019 1_555
Li0 O2 1.999718 1_655
Li1 O1 1.912866 1_555
Li1 O8 1.945150 1_555
Li1 O6 1.950149 1_555
Li1 O4 1.985961 1_555
Li2 O10 1.912866 1_555
Li2 O7 1.945150 1_555
Li2 O15 1.950149 1_555
Li2 O12 1.985961 1_555
Li3 O19 1.946141 1_555
Li3 O9 1.982981 1_455
Li3 O13 1.997019 1_555
Li3 O23 1.999718 1_556
Li4 O21 1.912866 1_555
Li4 O17 1.945150 1_555
Li4 O16 1.950149 1_555
Li4 O14 1.985961 1_555
Li5 O20 1.946141 1_555
Li5 O11 1.982981 1_554
Li5 O22 1.997019 1_555
Li5 O5 1.999718 1_565
O0 P2 1.555263 1_556
O0 Sn4 2.585231 1_656
O1 P0 1.560570 1_555
O1 Sn5 2.335002 1_545
O2 P0 1.553748 1_555
O2 Sn3 2.644383 1_445
O3 P1 1.566789 1_555
O3 Sn2 2.274675 1_655
O4 P5 1.582159 1_545
O4 Sn0 2.366934 1_555
O5 P2 1.553749 1_555
O5 Sn5 2.644383 1_544
O6 P1 1.568323 1_555
O6 Sn1 2.324475 1_555
O7 P1 1.546509 1_555
O7 Sn0 2.459674 1_555
O8 P3 1.546509 1_555
O8 Sn2 2.459673 1_555
O9 P1 1.557771 1_555
O9 Sn3 2.544539 1_555
O10 P2 1.560570 1_555
O10 Sn1 2.335002 1_554
O11 P3 1.557771 1_555
O11 Sn1 2.544539 1_555
O12 P0 1.582159 1_554
O12 Sn4 2.366933 1_555
O13 P3 1.566790 1_555
O13 Sn4 2.274675 1_556
O14 P2 1.582159 1_455
O14 Sn2 2.366934 1_555
O15 P4 1.568323 1_555
O15 Sn3 2.324475 1_555
O16 P3 1.568323 1_555
O16 Sn5 2.324475 1_555
O17 P4 1.546510 1_555
O17 Sn4 2.459673 1_555
O18 P4 1.557771 1_555
O18 Sn5 2.544539 1_555
O19 P0 1.555263 1_565
O19 Sn0 2.585231 1_566
O20 P5 1.555263 1_655
O20 Sn2 2.585231 1_665
O21 P5 1.560570 1_555
O21 Sn3 2.335002 1_455
O22 P4 1.566790 1_555
O22 Sn0 2.274674 1_565
O23 P5 1.553748 1_555
O23 Sn1 2.644383 1_454
