# generated using pymatgen
data_SN4O5
_symmetry_space_group_name_H-M   'P 1'
_cell_length_a   8.29723700
_cell_length_b   8.49623300
_cell_length_c   10.72805000
_cell_angle_alpha   90.00000000
_cell_angle_beta   90.00000000
_cell_angle_gamma   90.00000000
_symmetry_Int_Tables_number   1
_chemical_formula_structural   SN4O5
_chemical_formula_sum   'S4 N16 O20'
_cell_volume   756.27666126
_cell_formula_units_Z   4
loop_
 _symmetry_equiv_pos_site_id
 _symmetry_equiv_pos_as_xyz
  1  'x, y, z'
loop_
 _atom_site_type_symbol
 _atom_site_label
 _atom_site_symmetry_multiplicity
 _atom_site_fract_x
 _atom_site_fract_y
 _atom_site_fract_z
 _atom_site_occupancy
  S  S0  1  0.25000000  0.83768100  0.49490600  1
  S  S1  1  0.25000000  0.33768100  0.00509400  1
  S  S2  1  0.75000000  0.16231900  0.50509400  1
  S  S3  1  0.75000000  0.66231900  0.99490600  1
  N  N0  1  0.25000000  0.07815200  0.53948600  1
  N  N1  1  0.25000000  0.57815200  0.96051400  1
  N  N2  1  0.75000000  0.92184800  0.46051400  1
  N  N3  1  0.75000000  0.42184800  0.03948600  1
  N  N4  1  0.25000000  0.25252100  0.40565100  1
  N  N5  1  0.25000000  0.75252100  0.09434900  1
  N  N6  1  0.75000000  0.74747900  0.59434900  1
  N  N7  1  0.75000000  0.24747900  0.90565100  1
  N  N8  1  0.99024300  0.55090400  0.30696700  1
  N  N9  1  0.50975700  0.05090400  0.19303300  1
  N  N10  1  0.49024300  0.44909600  0.69303300  1
  N  N11  1  0.00975700  0.94909600  0.80696700  1
  N  N12  1  0.00975700  0.44909600  0.69303300  1
  N  N13  1  0.49024300  0.94909600  0.80696700  1
  N  N14  1  0.50975700  0.55090400  0.30696700  1
  N  N15  1  0.99024300  0.05090400  0.19303300  1
  O  O0  1  0.25000000  0.86322300  0.36182500  1
  O  O1  1  0.25000000  0.36322300  0.13817500  1
  O  O2  1  0.75000000  0.13677700  0.63817500  1
  O  O3  1  0.75000000  0.63677700  0.86182500  1
  O  O4  1  0.10081400  0.78797200  0.55363200  1
  O  O5  1  0.39918600  0.28797200  0.94636800  1
  O  O6  1  0.60081400  0.21202800  0.44636800  1
  O  O7  1  0.89918600  0.71202800  0.05363200  1
  O  O8  1  0.89918600  0.21202800  0.44636800  1
  O  O9  1  0.60081400  0.71202800  0.05363200  1
  O  O10  1  0.39918600  0.78797200  0.55363200  1
  O  O11  1  0.10081400  0.28797200  0.94636800  1
  O  O12  1  0.25000000  0.13128600  0.63976700  1
  O  O13  1  0.25000000  0.63128600  0.86023300  1
  O  O14  1  0.75000000  0.86871400  0.36023300  1
  O  O15  1  0.75000000  0.36871400  0.13976700  1
  O  O16  1  0.25000000  0.36691300  0.46130400  1
  O  O17  1  0.25000000  0.86691300  0.03869600  1
  O  O18  1  0.75000000  0.63308700  0.53869600  1
  O  O19  1  0.75000000  0.13308700  0.96130400  1
loop_
_geom_bond_atom_site_label_1
_geom_bond_atom_site_label_2
_geom_bond_distance
_geom_bond_site_symmetry_2
N0 O12 1.166698 1_555
N0 S0 2.098327 1_545
N1 O13 1.166698 1_555
N1 S1 2.098327 1_556
N2 O14 1.166698 1_555
N2 S2 2.098327 1_565
N3 O15 1.166698 1_555
N3 S3 2.098327 1_554
N4 O16 1.140639 1_555
N5 O17 1.140639 1_555
N6 O18 1.140639 1_555
N7 O19 1.140639 1_555
O0 S0 1.444098 1_555
O1 S1 1.444098 1_555
O2 S2 1.444098 1_555
O3 S3 1.444098 1_555
O4 S0 1.451729 1_555
O5 S1 1.451729 1_556
O6 S2 1.451729 1_555
O7 S3 1.451729 1_554
O8 S2 1.451729 1_555
O9 S3 1.451729 1_554
O10 S0 1.451729 1_555
O11 S1 1.451729 1_556
