# generated using pymatgen
data_Li4AlCr3O8
_symmetry_space_group_name_H-M   'P 1'
_cell_length_a   5.06630209
_cell_length_b   8.83631088
_cell_length_c   6.60893469
_cell_angle_alpha   82.23711906
_cell_angle_beta   97.34437861
_cell_angle_gamma   84.53787266
_symmetry_Int_Tables_number   1
_chemical_formula_structural   Li4AlCr3O8
_chemical_formula_sum   'Li8 Al2 Cr6 O16'
_cell_volume   288.83845223
_cell_formula_units_Z   2
loop_
 _symmetry_equiv_pos_site_id
 _symmetry_equiv_pos_as_xyz
  1  'x, y, z'
loop_
 _atom_site_type_symbol
 _atom_site_label
 _atom_site_symmetry_multiplicity
 _atom_site_fract_x
 _atom_site_fract_y
 _atom_site_fract_z
 _atom_site_occupancy
  Li  Li0  1  0.00220600  0.49907800  0.49951600  1
  Li  Li1  1  0.00213000  0.99907900  0.99951600  1
  Li  Li2  1  0.49784600  0.87592500  0.87546900  1
  Li  Li3  1  0.49778400  0.37592800  0.37543200  1
  Li  Li4  1  0.49872500  0.12446500  0.12379900  1
  Li  Li5  1  0.49869700  0.62446900  0.62383200  1
  Li  Li6  1  0.00131700  0.25055200  0.25111800  1
  Li  Li7  1  0.00130200  0.75054900  0.75116800  1
  Al  Al0  1  0.24995600  0.68748500  0.18750800  1
  Al  Al1  1  0.25002300  0.18747800  0.68749500  1
  Cr  Cr0  1  0.25006100  0.43747900  0.93748900  1
  Cr  Cr1  1  0.75022500  0.81091400  0.31169800  1
  Cr  Cr2  1  0.74971700  0.06408700  0.56330300  1
  Cr  Cr3  1  0.24995200  0.93747700  0.43755400  1
  Cr  Cr4  1  0.75029100  0.31099400  0.81158000  1
  Cr  Cr5  1  0.74976000  0.56405900  0.06337500  1
  O  O0  1  0.12680200  0.22457200  0.94614600  1
  O  O1  1  0.12678000  0.72453100  0.44623000  1
  O  O2  1  0.37322800  0.65043500  0.92886100  1
  O  O3  1  0.37317200  0.15043200  0.42881800  1
  O  O4  1  0.37407000  0.38984900  0.67034200  1
  O  O5  1  0.37403700  0.88981700  0.17042400  1
  O  O6  1  0.12597000  0.48513700  0.20462600  1
  O  O7  1  0.12590800  0.98516100  0.70465200  1
  O  O8  1  0.62410100  0.35215100  0.08027700  1
  O  O9  1  0.62403600  0.85217500  0.58035400  1
  O  O10  1  0.87597000  0.52290400  0.79466900  1
  O  O11  1  0.87589900  0.02283000  0.29466300  1
  O  O12  1  0.60597000  0.60406700  0.32596700  1
  O  O13  1  0.60602900  0.10417000  0.82587600  1
  O  O14  1  0.89398600  0.77084800  0.04918000  1
  O  O15  1  0.89404600  0.27090000  0.54906300  1
loop_
_geom_bond_atom_site_label_1
_geom_bond_atom_site_label_2
_geom_bond_distance
_geom_bond_site_symmetry_2
Li0 O15 2.133219 1_455
Li0 O6 2.137560 1_555
Li0 O4 2.138034 1_555
Li0 O1 2.144238 1_555
Li0 O10 2.159313 1_455
Li0 O12 2.230560 1_455
Li1 O14 2.133679 1_456
Li1 O7 2.137393 1_555
Li1 O5 2.138481 1_556
Li1 O0 2.144811 1_565
Li1 O11 2.159139 1_466
Li1 O13 2.230458 1_465
Li2 O13 2.133841 1_565
Li2 O5 2.137997 1_556
Li2 O7 2.138321 1_555
Li2 O2 2.144687 1_555
Li2 O9 2.158851 1_555
Li2 O14 2.230744 1_556
Li3 O12 2.132908 1_555
Li3 O4 2.137557 1_555
Li3 O6 2.137740 1_555
Li3 O3 2.144721 1_555
Li3 O8 2.159408 1_555
Li3 O15 2.230940 1_555
Li4 O0 2.132597 1_554
Li4 O13 2.134237 1_554
Li4 O11 2.140281 1_555
Li4 O8 2.160470 1_555
Li4 O5 2.218019 1_545
Li4 O3 2.223940 1_555
Li5 O1 2.132343 1_555
Li5 O12 2.133984 1_555
Li5 O10 2.140448 1_555
Li5 O9 2.160548 1_555
Li5 O4 2.217627 1_555
Li5 O2 2.223835 1_555
Li6 O3 2.132479 1_555
Li6 O15 2.134403 1_455
Li6 O8 2.140310 1_455
Li6 O11 2.160861 1_455
Li6 O6 2.217381 1_555
Li6 O0 2.223531 1_554
Li7 O2 2.132726 1_555
Li7 O14 2.134834 1_456
Li7 O9 2.140508 1_455
Li7 O10 2.160034 1_455
Li7 O7 2.217521 1_555
Li7 O1 2.223369 1_555
Al0 O14 1.942798 1_455
Al0 O12 1.943354 1_555
Al0 O6 1.944657 1_555
Al0 O5 1.944731 1_555
Al0 O2 1.950488 1_554
Al0 O1 1.950742 1_555
Al1 O13 1.942944 1_555
Al1 O15 1.943152 1_455
Al1 O7 1.944666 1_545
Al1 O4 1.944972 1_555
Al1 O3 1.950406 1_555
Al1 O0 1.950505 1_555
Cr0 O4 2.030527 1_555
Cr0 O6 2.030705 1_556
Cr0 O8 2.031901 1_556
Cr0 O10 2.032368 1_455
Cr0 O0 2.033785 1_555
Cr0 O2 2.034022 1_555
Cr1 O14 2.026285 1_555
Cr1 O5 2.026439 1_555
Cr1 O12 2.027092 1_555
Cr1 O11 2.028024 1_565
Cr1 O9 2.028514 1_555
Cr1 O1 2.029388 1_655
Cr2 O13 2.026493 1_555
Cr2 O7 2.026637 1_645
Cr2 O15 2.026988 1_555
Cr2 O9 2.028002 1_545
Cr2 O11 2.028391 1_555
Cr2 O3 2.029185 1_555
Cr3 O7 2.030436 1_555
Cr3 O5 2.030655 1_555
Cr3 O9 2.032060 1_555
Cr3 O11 2.032205 1_465
Cr3 O1 2.033930 1_555
Cr3 O3 2.034080 1_565
Cr4 O15 2.026329 1_555
Cr4 O4 2.026429 1_555
Cr4 O13 2.026914 1_555
Cr4 O10 2.028008 1_555
Cr4 O8 2.028525 1_556
Cr4 O0 2.029337 1_655
Cr5 O6 2.026521 1_655
Cr5 O14 2.026564 1_555
Cr5 O12 2.026673 1_555
Cr5 O8 2.027952 1_555
Cr5 O10 2.028618 1_554
Cr5 O2 2.029243 1_554
