# generated using pymatgen
data_LiLa14(Cu3O14)2
_symmetry_space_group_name_H-M   'P 1'
_cell_length_a   11.69650298
_cell_length_b   17.10833347
_cell_length_c   7.08580885
_cell_angle_alpha   83.22692170
_cell_angle_beta   105.07434252
_cell_angle_gamma   102.99030015
_symmetry_Int_Tables_number   1
_chemical_formula_structural   LiLa14(Cu3O14)2
_chemical_formula_sum   'Li2 La28 Cu12 O56'
_cell_volume   1331.42591680
_cell_formula_units_Z   2
loop_
 _symmetry_equiv_pos_site_id
 _symmetry_equiv_pos_as_xyz
  1  'x, y, z'
loop_
 _atom_site_type_symbol
 _atom_site_label
 _atom_site_symmetry_multiplicity
 _atom_site_fract_x
 _atom_site_fract_y
 _atom_site_fract_z
 _atom_site_occupancy
  Li  Li0  1  0.14286801  0.21427733  0.14286734  1
  Li  Li1  1  0.14284701  0.71429902  0.14285120  1
  La  La0  1  0.99226305  0.16139664  0.71651017  1
  La  La1  1  0.56085647  0.01698231  0.28171114  1
  La  La2  1  0.87205661  0.12696236  0.14693164  1
  La  La3  1  0.58434910  0.19163027  0.86332628  1
  La  La4  1  0.15560229  0.05084932  0.43236037  1
  La  La5  1  0.70135427  0.23690671  0.42237821  1
  La  La6  1  0.27056784  0.09547311  0.99629142  1
  La  La7  1  0.41365016  0.30158587  0.13876428  1
  La  La8  1  0.84810520  0.44620328  0.56781918  1
  La  La9  1  0.72485268  0.41156800  0.00409485  1
  La  La10  1  0.29343403  0.26714687  0.56919634  1
  La  La11  1  0.01514888  0.33308972  0.28946302  1
  La  La12  1  0.87486568  0.62223346  0.14901223  1
  La  La13  1  0.44035059  0.47692570  0.72176864  1
  La  La14  1  0.98973073  0.66615602  0.71476770  1
  La  La15  1  0.55871267  0.52262612  0.27869611  1
  La  La16  1  0.13013590  0.37772587  0.85333213  1
  La  La17  1  0.27262378  0.59033022  0.99760789  1
  La  La18  1  0.70476035  0.73151081  0.42547206  1
  La  La19  1  0.58095678  0.69709364  0.86024407  1
  La  La20  1  0.15291138  0.55627677  0.42864078  1
  La  La21  1  0.29600262  0.76245261  0.57095760  1
  La  La22  1  0.72699403  0.90595687  0.00693526  1
  La  La23  1  0.84532183  0.95164708  0.56399187  1
  La  La24  1  0.41085426  0.80636011  0.13671272  1
  La  La25  1  0.13280835  0.87228645  0.85709290  1
  La  La26  1  0.43764612  0.98236520  0.71784971  1
  La  La27  1  0.01310247  0.83824760  0.28808177  1
  Cu  Cu0  1  0.71457705  0.07131677  0.71416969  1
  Cu  Cu1  1  0.85835577  0.28569781  0.85744698  1
  Cu  Cu2  1  0.99973960  0.00005618  0.00030626  1
  Cu  Cu3  1  0.42735270  0.14287886  0.42820112  1
  Cu  Cu4  1  0.57115541  0.35727706  0.57157749  1
  Cu  Cu5  1  0.71373225  0.57147676  0.71361264  1
  Cu  Cu6  1  0.28600885  0.42852509  0.28541573  1
  Cu  Cu7  1  0.00077032  0.50036297  -0.00000875  1
  Cu  Cu8  1  0.85774988  0.78606634  0.85834752  1
  Cu  Cu9  1  0.42796138  0.64250923  0.42735548  1
  Cu  Cu10  1  0.57197829  0.85708785  0.57209288  1
  Cu  Cu11  1  0.28487904  0.92821288  0.28566541  1
  O  O0  1  0.85462999  0.03449500  0.86906665  1
  O  O1  1  0.79835732  0.08747216  0.42894152  1
  O  O2  1  0.62953231  0.05487328  0.99755329  1
  O  O3  1  0.78860010  0.17913602  0.77500089  1
  O  O4  1  0.35924634  0.03550428  0.34546375  1
  O  O5  1  0.57288325  0.10842855  0.55845999  1
  O  O6  1  0.78232143  0.24914724  0.15276976  1
  O  O7  1  0.35476349  0.10635960  0.72627212  1
  O  O8  1  0.93095539  0.32221588  0.55946691  1
  O  O9  1  0.50339007  0.17942744  0.13292946  1
  O  O10  1  0.07316903  0.03751087  0.70191719  1
  O  O11  1  0.49716855  0.24951546  0.51076027  1
  O  O12  1  0.92647174  0.39306671  0.94025592  1
  O  O13  1  0.28360140  0.17732557  0.29700687  1
  O  O14  1  0.71278477  0.32014535  0.72720749  1
  O  O15  1  0.06761748  0.10436696  0.08043552  1
  O  O16  1  0.65617256  0.37369843  0.28820562  1
  O  O17  1  0.22512091  0.23052772  0.86048230  1
  O  O18  1  0.91517171  0.48418963  0.28467009  1
  O  O19  1  0.48738236  0.34110272  0.85675324  1
  O  O20  1  0.06058800  0.19804813  0.42523242  1
  O  O21  1  0.64586556  0.46524513  0.63162252  1
  O  O22  1  0.21811506  0.32421455  0.20530881  1
  O  O23  1  0.43115063  0.39405597  0.41672460  1
  O  O24  1  0.85967077  0.53705829  0.84647275  1
  O  O25  1  0.00207821  0.25125300  0.98868609  1
  O  O26  1  0.63944813  0.53427361  0.00774146  1
  O  O27  1  0.21255643  0.39106583  0.58378011  1
  O  O28  1  0.78802353  0.60821133  0.41816507  1
  O  O29  1  0.36076093  0.46548630  0.99075621  1
  O  O30  1  0.35336225  0.53335633  0.36671911  1
  O  O31  1  0.56685349  0.60644227  0.58117378  1
  O  O32  1  0.99586781  0.74990319  0.00920049  1
  O  O33  1  0.78248132  0.67728418  0.79630512  1
  O  O34  1  0.14076830  0.46307855  0.15423734  1
  O  O35  1  0.51388147  0.65859204  0.14380077  1
  O  O36  1  0.08343308  0.51634263  0.71304947  1
  O  O37  1  0.94166744  0.80165934  0.57114140  1
  O  O38  1  0.77182270  0.76997322  0.14190870  1
  O  O39  1  0.34405578  0.62690795  0.71455434  1
  O  O40  1  0.93237544  0.89526664  0.91899654  1
  O  O41  1  0.50316263  0.75118774  0.48934329  1
  O  O42  1  0.07397113  0.60700751  0.06071614  1
  O  O43  1  0.71884328  0.82213615  0.70453617  1
  O  O44  1  0.28992595  0.67864557  0.27659927  1
  O  O45  1  0.49768047  0.82034922  0.86759008  1
  O  O46  1  0.07012944  0.67895982  0.43523483  1
  O  O47  1  0.92494604  0.96308019  0.29498452  1
  O  O48  1  0.64627127  0.89429622  0.27792705  1
  O  O49  1  0.21558092  0.74960610  0.85048496  1
  O  O50  1  0.21172450  0.82152518  0.22499163  1
  O  O51  1  0.63984378  0.96331474  0.65409696  1
  O  O52  1  0.42602318  0.89152249  0.43922425  1
  O  O53  1  0.37053868  0.94437759  0.00103989  1
  O  O54  1  0.20227876  0.91222946  0.57267283  1
  O  O55  1  0.14491777  0.96550255  0.13145078  1
loop_
_geom_bond_atom_site_label_1
_geom_bond_atom_site_label_2
_geom_bond_distance
_geom_bond_site_symmetry_2
Li0 O13 1.916245 1_555
Li0 O25 1.917040 1_554
Li0 O15 1.938003 1_555
Li0 O22 1.938422 1_555
Li0 O17 2.399253 1_554
Li0 O20 2.399336 1_555
Li1 O50 1.922648 1_555
Li1 O42 1.923635 1_555
Li1 O32 1.926455 1_455
Li1 O44 1.927970 1_555
Li1 O49 2.402265 1_554
Li1 O46 2.402317 1_555
La0 O20 2.370459 1_655
La0 O10 2.530355 1_655
La0 O25 2.569185 1_655
La0 O3 2.608968 1_555
La0 O15 2.643760 1_656
La0 O17 2.692365 1_655
La0 O0 2.693314 1_555
La0 O1 2.794632 1_555
La0 O8 3.012005 1_555
La1 O2 2.327851 1_554
La1 O48 2.524755 1_545
La1 O4 2.605584 1_555
La1 O5 2.606556 1_555
La1 O52 2.677424 1_545
La1 O51 2.683462 1_545
La1 O53 2.736848 1_545
La1 O1 2.746424 1_555
La1 O9 3.011165 1_555
La2 O1 2.346981 1_555
La2 O6 2.549979 1_555
La2 O15 2.569947 1_655
La2 O0 2.608004 1_554
La2 O25 2.638650 1_654
La2 O3 2.682134 1_554
La2 O20 2.707146 1_655
La2 O2 2.803844 1_554
La2 O47 3.015407 1_545
La3 O9 2.312514 1_556
La3 O2 2.535267 1_555
La3 O14 2.605715 1_555
La3 O11 2.609024 1_555
La3 O3 2.680236 1_555
La3 O5 2.683195 1_555
La3 O7 2.738419 1_555
La3 O6 2.741897 1_556
La3 O19 3.012682 1_555
La4 O10 2.320798 1_555
La4 O13 2.577650 1_555
La4 O54 2.579615 1_545
La4 O15 2.581865 1_555
La4 O4 2.683975 1_555
La4 O55 2.684691 1_545
La4 O7 2.759378 1_555
La4 O47 2.763756 1_445
La4 O20 2.962871 1_555
La5 O6 2.312542 1_555
La5 O16 2.535729 1_555
La5 O5 2.605381 1_555
La5 O3 2.608830 1_555
La5 O11 2.680290 1_555
La5 O14 2.683474 1_555
La5 O8 2.738832 1_555
La5 O9 2.741699 1_555
La5 O1 3.012329 1_555
La6 O7 2.340682 1_555
La6 O17 2.511761 1_555
La6 O55 2.604243 1_546
La6 O4 2.606683 1_556
La6 O15 2.633168 1_556
La6 O13 2.638844 1_556
La6 O9 2.759423 1_556
La6 O10 2.760195 1_555
La6 O53 3.060805 1_546
La7 O19 2.347238 1_554
La7 O9 2.549593 1_555
La7 O22 2.570014 1_555
La7 O23 2.608361 1_555
La7 O13 2.638476 1_555
La7 O11 2.682132 1_555
La7 O17 2.706891 1_554
La7 O16 2.804003 1_555
La7 O29 3.015640 1_554
La8 O18 2.311924 1_555
La8 O8 2.534899 1_555
La8 O24 2.612172 1_555
La8 O21 2.616017 1_555
La8 O12 2.679839 1_555
La8 O14 2.693044 1_555
La8 O36 2.721816 1_655
La8 O16 2.741931 1_555
La8 O28 3.015855 1_555
La9 O16 2.327533 1_555
La9 O26 2.524787 1_555
La9 O12 2.605823 1_554
La9 O14 2.606944 1_554
La9 O24 2.678023 1_554
La9 O21 2.684034 1_554
La9 O18 2.736572 1_555
La9 O19 2.746159 1_554
La9 O6 3.010648 1_555
La10 O17 2.370396 1_555
La10 O27 2.530676 1_555
La10 O13 2.568798 1_555
La10 O11 2.609002 1_555
La10 O22 2.643680 1_555
La10 O20 2.692101 1_555
La10 O23 2.693625 1_555
La10 O19 2.795035 1_555
La10 O7 3.011635 1_555
La11 O8 2.340591 1_455
La11 O20 2.511464 1_555
La11 O34 2.604483 1_555
La11 O12 2.606928 1_454
La11 O22 2.633290 1_555
La11 O25 2.638934 1_554
La11 O6 2.759462 1_455
La11 O27 2.760079 1_555
La11 O18 3.060857 1_455
La12 O28 2.348773 1_555
La12 O18 2.540322 1_555
La12 O32 2.566019 1_555
La12 O33 2.607371 1_554
La12 O42 2.636630 1_655
La12 O24 2.678222 1_554
La12 O46 2.707360 1_655
La12 O26 2.812015 1_555
La12 O38 3.025194 1_555
La13 O29 2.300162 1_555
La13 O19 2.528601 1_555
La13 O30 2.614168 1_555
La13 O31 2.619868 1_555
La13 O23 2.688291 1_555
La13 O21 2.696471 1_555
La13 O27 2.727075 1_555
La13 O26 2.734782 1_556
La13 O39 3.015572 1_555
La14 O46 2.372642 1_655
La14 O37 2.541221 1_555
La14 O42 2.571124 1_656
La14 O24 2.608637 1_555
La14 O32 2.644156 1_556
La14 O33 2.684807 1_555
La14 O49 2.692283 1_655
La14 O28 2.797640 1_555
La14 O36 3.007955 1_655
La15 O26 2.320732 1_555
La15 O35 2.522457 1_555
La15 O23 2.607142 1_555
La15 O21 2.607981 1_555
La15 O30 2.682576 1_555
La15 O31 2.686340 1_555
La15 O29 2.734040 1_554
La15 O28 2.740705 1_555
La15 O16 3.003520 1_555
La16 O27 2.320674 1_555
La16 O25 2.577948 1_555
La16 O36 2.579617 1_555
La16 O22 2.582115 1_556
La16 O12 2.684270 1_455
La16 O34 2.684901 1_556
La16 O8 2.759316 1_455
La16 O29 2.763478 1_555
La16 O17 2.962640 1_555
La17 O39 2.335140 1_555
La17 O42 2.559062 1_556
La17 O44 2.567273 1_556
La17 O29 2.582139 1_555
La17 O34 2.675969 1_556
La17 O30 2.685196 1_556
La17 O36 2.754369 1_555
La17 O35 2.771862 1_556
La17 O49 2.956820 1_555
La18 O38 2.315456 1_555
La18 O28 2.525171 1_555
La18 O43 2.603850 1_555
La18 O41 2.612691 1_555
La18 O33 2.674567 1_555
La18 O31 2.686003 1_555
La18 O37 2.737423 1_555
La18 O35 2.746223 1_555
La18 O48 3.019095 1_555
La19 O35 2.315559 1_556
La19 O45 2.524626 1_555
La19 O31 2.604120 1_555
La19 O33 2.612857 1_555
La19 O41 2.674420 1_555
La19 O43 2.685625 1_555
La19 O39 2.737551 1_555
La19 O38 2.745877 1_556
La19 O26 3.019597 1_556
La20 O36 2.337937 1_555
La20 O46 2.511060 1_555
La20 O34 2.613213 1_555
La20 O30 2.613867 1_555
La20 O44 2.639982 1_555
La20 O42 2.641398 1_555
La20 O39 2.751355 1_555
La20 O18 2.752016 1_455
La20 O27 3.072271 1_555
La21 O49 2.372696 1_555
La21 O39 2.541781 1_555
La21 O50 2.570847 1_555
La21 O52 2.608174 1_555
La21 O44 2.644566 1_555
La21 O41 2.684739 1_555
La21 O46 2.692753 1_555
La21 O45 2.797358 1_555
La21 O54 3.007507 1_555
La22 O48 2.320862 1_555
La22 O38 2.522847 1_555
La22 O0 2.606709 1_564
La22 O51 2.607327 1_554
La22 O40 2.682442 1_554
La22 O43 2.685880 1_554
La22 O47 2.734410 1_555
La22 O45 2.740718 1_554
La22 O2 3.003512 1_564
La23 O47 2.300545 1_555
La23 O1 2.528477 1_565
La23 O40 2.613783 1_555
La23 O43 2.619515 1_555
La23 O0 2.687884 1_565
La23 O51 2.695846 1_555
La23 O10 2.727498 1_665
La23 O48 2.734844 1_555
La23 O37 3.016076 1_555
La24 O45 2.348514 1_554
La24 O53 2.539961 1_555
La24 O44 2.566371 1_555
La24 O41 2.607425 1_555
La24 O50 2.636508 1_555
La24 O52 2.677998 1_555
La24 O49 2.707566 1_554
La24 O48 2.811799 1_555
La24 O35 3.025554 1_555
La25 O54 2.337981 1_555
La25 O49 2.510975 1_555
La25 O55 2.613273 1_556
La25 O40 2.613989 1_455
La25 O32 2.639891 1_456
La25 O50 2.641346 1_556
La25 O37 2.751465 1_455
La25 O53 2.751918 1_556
La25 O10 3.072511 1_565
La26 O53 2.312435 1_556
La26 O7 2.535339 1_565
La26 O52 2.611682 1_555
La26 O51 2.615437 1_555
La26 O4 2.679607 1_565
La26 O5 2.692603 1_565
La26 O54 2.722113 1_555
La26 O2 2.742022 1_565
La26 O45 3.015900 1_555
La27 O37 2.335214 1_455
La27 O50 2.558917 1_555
La27 O32 2.567164 1_455
La27 O47 2.582173 1_455
La27 O55 2.675774 1_555
La27 O40 2.685270 1_454
La27 O54 2.754381 1_555
La27 O38 2.772104 1_455
La27 O46 2.956985 1_555
Cu0 O3 1.900901 1_555
Cu0 O51 1.904011 1_545
Cu0 O0 1.910661 1_555
Cu0 O5 1.929738 1_555
Cu0 O2 2.424992 1_555
Cu0 O1 2.428586 1_555
Cu1 O25 1.881741 1_655
Cu1 O14 1.898314 1_555
Cu1 O3 1.914477 1_555
Cu1 O12 1.925200 1_555
Cu1 O8 2.439768 1_555
Cu1 O6 2.443410 1_556
Cu2 O15 1.872165 1_655
Cu2 O40 1.881294 1_544
Cu2 O0 1.895268 1_554
Cu2 O55 1.896684 1_645
Cu2 O47 2.432107 1_545
Cu2 O10 2.448713 1_654
Cu3 O13 1.881967 1_555
Cu3 O5 1.897968 1_555
Cu3 O11 1.915958 1_555
Cu3 O4 1.925117 1_555
Cu3 O7 2.440303 1_555
Cu3 O9 2.443093 1_555
Cu4 O11 1.899921 1_555
Cu4 O21 1.903399 1_555
Cu4 O23 1.909790 1_555
Cu4 O14 1.929127 1_555
Cu4 O16 2.424750 1_555
Cu4 O19 2.428169 1_555
Cu5 O33 1.901954 1_555
Cu5 O21 1.905607 1_555
Cu5 O24 1.905786 1_555
Cu5 O31 1.918580 1_555
Cu5 O26 2.425708 1_556
Cu5 O28 2.433738 1_555
Cu6 O22 1.872137 1_555
Cu6 O30 1.881903 1_555
Cu6 O23 1.895927 1_555
Cu6 O34 1.897347 1_555
Cu6 O29 2.431711 1_554
Cu6 O27 2.448696 1_555
Cu7 O42 1.881039 1_555
Cu7 O12 1.891769 1_454
Cu7 O34 1.912338 1_555
Cu7 O24 1.916267 1_454
Cu7 O36 2.432305 1_554
Cu7 O18 2.437678 1_455
Cu8 O32 1.878920 1_556
Cu8 O43 1.891935 1_555
Cu8 O33 1.920163 1_555
Cu8 O40 1.923022 1_555
Cu8 O38 2.432805 1_556
Cu8 O37 2.443235 1_555
Cu9 O44 1.877743 1_555
Cu9 O31 1.891796 1_555
Cu9 O41 1.918350 1_555
Cu9 O30 1.922221 1_555
Cu9 O35 2.432727 1_555
Cu9 O39 2.443093 1_555
Cu10 O41 1.903596 1_555
Cu10 O51 1.905563 1_555
Cu10 O52 1.906087 1_555
Cu10 O43 1.918345 1_555
Cu10 O48 2.426011 1_555
Cu10 O45 2.434108 1_555
Cu11 O50 1.881523 1_555
Cu11 O4 1.891940 1_565
Cu11 O55 1.911975 1_555
Cu11 O52 1.916727 1_555
Cu11 O54 2.432300 1_555
Cu11 O53 2.437770 1_555
