# generated using pymatgen
data_Tm2TiO5
_symmetry_space_group_name_H-M   'P 1'
_cell_length_a   3.62264530
_cell_length_b   10.18658303
_cell_length_c   11.12635398
_cell_angle_alpha   90.00000000
_cell_angle_beta   90.00000000
_cell_angle_gamma   90.00000000
_symmetry_Int_Tables_number   1
_chemical_formula_structural   Tm2TiO5
_chemical_formula_sum   'Tm8 Ti4 O20'
_cell_volume   410.58891073
_cell_formula_units_Z   4
loop_
 _symmetry_equiv_pos_site_id
 _symmetry_equiv_pos_as_xyz
  1  'x, y, z'
loop_
 _atom_site_type_symbol
 _atom_site_label
 _atom_site_symmetry_multiplicity
 _atom_site_fract_x
 _atom_site_fract_y
 _atom_site_fract_z
 _atom_site_occupancy
  Tm  Tm0  1  0.25000000  0.11974075  0.27519012  1
  Tm  Tm1  1  0.25000000  0.13526987  0.94338915  1
  Tm  Tm2  1  0.75000000  0.36473013  0.44338915  1
  Tm  Tm3  1  0.75000000  0.38025925  0.77519012  1
  Tm  Tm4  1  0.25000000  0.61974075  0.22480988  1
  Tm  Tm5  1  0.25000000  0.63526987  0.55661085  1
  Tm  Tm6  1  0.75000000  0.86473013  0.05661085  1
  Tm  Tm7  1  0.75000000  0.88025925  0.72480988  1
  Ti  Ti0  1  0.25000000  0.17011193  0.61693861  1
  Ti  Ti1  1  0.75000000  0.32988807  0.11693861  1
  Ti  Ti2  1  0.25000000  0.67011193  0.88306139  1
  Ti  Ti3  1  0.75000000  0.82988807  0.38306139  1
  O  O0  1  0.75000000  0.00506325  0.89441576  1
  O  O1  1  0.25000000  -0.00027571  0.65309289  1
  O  O2  1  0.25000000  0.22564015  0.45378921  1
  O  O3  1  0.75000000  0.23675889  0.61427685  1
  O  O4  1  0.75000000  0.24808474  0.27046002  1
  O  O5  1  0.25000000  0.25191526  0.77046002  1
  O  O6  1  0.25000000  0.26324111  0.11427685  1
  O  O7  1  0.75000000  0.27435985  0.95378921  1
  O  O8  1  0.75000000  0.50027571  0.15309289  1
  O  O9  1  0.25000000  0.49493675  0.39441576  1
  O  O10  1  0.75000000  0.50506325  0.60558424  1
  O  O11  1  0.25000000  0.49972429  0.84690711  1
  O  O12  1  0.25000000  0.72564015  0.04621079  1
  O  O13  1  0.75000000  0.73675889  0.88572315  1
  O  O14  1  0.75000000  0.74808474  0.22953998  1
  O  O15  1  0.25000000  0.75191526  0.72953998  1
  O  O16  1  0.25000000  0.76324111  0.38572315  1
  O  O17  1  0.75000000  0.77435985  0.54621079  1
  O  O18  1  0.75000000  0.00027571  0.34690711  1
  O  O19  1  0.25000000  0.99493675  0.10558424  1
loop_
_geom_bond_atom_site_label_1
_geom_bond_atom_site_label_2
_geom_bond_distance
_geom_bond_site_symmetry_2
O0 Tm7 2.275390 1_545
O0 Tm6 2.302225 1_546
O0 Tm1 2.310202 1_655
O0 Tm1 2.310202 1_555
O1 Ti0 1.781673 1_555
O1 Tm7 2.323479 1_545
O1 Tm7 2.323479 1_445
O2 Ti0 1.901345 1_555
O2 Tm0 2.261084 1_555
O2 Tm2 2.302553 1_555
O2 Tm2 2.302553 1_455
O3 Ti0 1.934600 1_555
O3 Ti0 1.934600 1_655
O3 Tm2 2.305321 1_555
O3 Tm3 2.311331 1_555
O4 Ti1 1.900553 1_555
O4 Tm0 2.234484 1_555
O4 Tm0 2.234484 1_655
O4 Tm2 2.261396 1_555
O5 Ti0 1.900553 1_555
O5 Tm3 2.234484 1_555
O5 Tm3 2.234484 1_455
O5 Tm1 2.261396 1_555
O6 Ti1 1.934600 1_455
O6 Ti1 1.934600 1_555
O6 Tm1 2.305321 1_554
O6 Tm0 2.311331 1_555
O7 Ti1 1.901345 1_556
O7 Tm3 2.261084 1_555
O7 Tm1 2.302553 1_655
O7 Tm1 2.302553 1_555
O8 Ti1 1.781673 1_555
O8 Tm4 2.323479 1_555
O8 Tm4 2.323479 1_655
O9 Tm4 2.275390 1_555
O9 Tm5 2.302225 1_555
O9 Tm2 2.310202 1_555
O9 Tm2 2.310202 1_455
O10 Tm3 2.275390 1_555
O10 Tm2 2.302225 1_555
O10 Tm5 2.310202 1_655
O10 Tm5 2.310202 1_555
O11 Ti2 1.781673 1_555
O11 Tm3 2.323479 1_555
O11 Tm3 2.323479 1_455
O12 Ti2 1.901345 1_554
O12 Tm4 2.261084 1_555
O12 Tm6 2.302553 1_455
O12 Tm6 2.302553 1_555
O13 Ti2 1.934600 1_655
O13 Ti2 1.934600 1_555
O13 Tm6 2.305321 1_556
O13 Tm7 2.311331 1_555
O14 Ti3 1.900553 1_555
O14 Tm4 2.234484 1_555
O14 Tm4 2.234484 1_655
O14 Tm6 2.261396 1_555
O15 Ti2 1.900553 1_555
O15 Tm7 2.234484 1_555
O15 Tm7 2.234484 1_455
O15 Tm5 2.261396 1_555
O16 Ti3 1.934600 1_455
O16 Ti3 1.934600 1_555
O16 Tm5 2.305321 1_555
O16 Tm4 2.311331 1_555
O17 Ti3 1.901345 1_555
O17 Tm7 2.261084 1_555
O17 Tm5 2.302553 1_555
O17 Tm5 2.302553 1_655
O18 Ti3 1.781673 1_545
O18 Tm0 2.323479 1_555
O18 Tm0 2.323479 1_655
O19 Tm0 2.275390 1_565
O19 Tm1 2.302225 1_564
O19 Tm6 2.310202 1_555
O19 Tm6 2.310202 1_455
