# generated using pymatgen
data_BaSr2I6
_symmetry_space_group_name_H-M   'P 1'
_cell_length_a   7.84742552
_cell_length_b   7.84742552
_cell_length_c   15.22499365
_cell_angle_alpha   90.00000000
_cell_angle_beta   90.00000000
_cell_angle_gamma   90.00000000
_symmetry_Int_Tables_number   1
_chemical_formula_structural   BaSr2I6
_chemical_formula_sum   'Ba2 Sr4 I12'
_cell_volume   937.58688797
_cell_formula_units_Z   2
loop_
 _symmetry_equiv_pos_site_id
 _symmetry_equiv_pos_as_xyz
  1  'x, y, z'
loop_
 _atom_site_type_symbol
 _atom_site_label
 _atom_site_symmetry_multiplicity
 _atom_site_fract_x
 _atom_site_fract_y
 _atom_site_fract_z
 _atom_site_occupancy
  Ba  Ba0  1  -0.00000000  -0.00000000  0.00000000  1
  Ba  Ba1  1  0.50000000  0.50000000  0.50000000  1
  Sr  Sr0  1  -0.00000000  -0.00000000  0.33263984  1
  Sr  Sr1  1  -0.00000000  -0.00000000  0.66736016  1
  Sr  Sr2  1  0.50000000  0.50000000  0.16736016  1
  Sr  Sr3  1  0.50000000  0.50000000  0.83263984  1
  I  I0  1  0.20168245  0.79831755  0.17353286  1
  I  I1  1  0.20168245  0.79831755  0.82646714  1
  I  I2  1  0.18907113  0.81092887  0.50000000  1
  I  I3  1  0.31092887  0.31092887  0.00000000  1
  I  I4  1  0.29831755  0.29831755  0.32646714  1
  I  I5  1  0.29831755  0.29831755  0.67353286  1
  I  I6  1  0.70168245  0.70168245  0.32646714  1
  I  I7  1  0.70168245  0.70168245  0.67353286  1
  I  I8  1  0.68907113  0.68907113  0.00000000  1
  I  I9  1  0.81092887  0.18907113  0.50000000  1
  I  I10  1  0.79831755  0.20168245  0.17353286  1
  I  I11  1  0.79831755  0.20168245  0.82646714  1
loop_
_geom_bond_atom_site_label_1
_geom_bond_atom_site_label_2
_geom_bond_distance
_geom_bond_site_symmetry_2
Ba0 I8 3.450669 1_445
Ba0 I3 3.450669 1_555
Ba0 I10 3.462681 1_455
Ba0 I1 3.462681 1_544
Ba0 I0 3.462681 1_545
Ba0 I11 3.462681 1_454
Ba1 I2 3.450669 1_555
Ba1 I9 3.450669 1_555
Ba1 I5 3.462681 1_555
Ba1 I6 3.462681 1_555
Ba1 I7 3.462681 1_555
Ba1 I4 3.462681 1_555
I0 Sr0 3.298157 1_565
I0 Sr2 3.312043 1_555
I1 Sr1 3.298157 1_565
I1 Sr3 3.312043 1_555
I2 Sr1 3.300827 1_565
I2 Sr0 3.300827 1_565
I3 Sr3 3.300827 1_554
I3 Sr2 3.300827 1_555
I4 Sr2 3.298157 1_555
I4 Sr0 3.312043 1_555
I5 Sr3 3.298157 1_555
I5 Sr1 3.312043 1_555
I6 Sr2 3.298157 1_555
I6 Sr0 3.312043 1_665
I7 Sr3 3.298157 1_555
I7 Sr1 3.312043 1_665
I8 Sr3 3.300827 1_554
I8 Sr2 3.300827 1_555
I9 Sr1 3.300827 1_655
I9 Sr0 3.300827 1_655
I10 Sr0 3.298157 1_655
I10 Sr2 3.312043 1_555
I11 Sr1 3.298157 1_655
I11 Sr3 3.312043 1_555
