# generated using pymatgen
data_Mn6O7F5
_symmetry_space_group_name_H-M   'P 1'
_cell_length_a   4.56245200
_cell_length_b   5.64424585
_cell_length_c   15.29040541
_cell_angle_alpha   89.79260511
_cell_angle_beta   89.64903018
_cell_angle_gamma   89.37962871
_symmetry_Int_Tables_number   1
_chemical_formula_structural   Mn6O7F5
_chemical_formula_sum   'Mn12 O14 F10'
_cell_volume   393.71946217
_cell_formula_units_Z   2
loop_
 _symmetry_equiv_pos_site_id
 _symmetry_equiv_pos_as_xyz
  1  'x, y, z'
loop_
 _atom_site_type_symbol
 _atom_site_label
 _atom_site_symmetry_multiplicity
 _atom_site_fract_x
 _atom_site_fract_y
 _atom_site_fract_z
 _atom_site_occupancy
  Mn  Mn0  1  0.01493100  0.15153300  0.40557500  1
  Mn  Mn1  1  0.02255000  0.83614400  0.24276800  1
  Mn  Mn2  1  0.99674700  0.15470900  0.07954000  1
  Mn  Mn3  1  0.02368800  0.16555800  0.74618900  1
  Mn  Mn4  1  0.99376000  0.84826300  0.57529100  1
  Mn  Mn5  1  0.05147100  0.85379300  0.91363600  1
  Mn  Mn6  1  0.50616100  0.34740900  0.59015000  1
  Mn  Mn7  1  0.48772800  0.35399400  0.92538200  1
  Mn  Mn8  1  0.50204200  0.36677000  0.25970800  1
  Mn  Mn9  1  0.50284500  0.64816700  0.08642200  1
  Mn  Mn10  1  0.49738400  0.65195900  0.42026600  1
  Mn  Mn11  1  0.49459300  0.63808100  0.75542000  1
  O  O0  1  0.23782800  0.11325900  0.30008300  1
  O  O1  1  0.21605300  0.11097800  0.63555800  1
  O  O2  1  0.23708900  0.11597000  0.97170100  1
  O  O3  1  0.21404600  0.88489100  0.13378800  1
  O  O4  1  0.21943100  0.88923400  0.46637000  1
  O  O5  1  0.23797400  0.89013800  0.80513300  1
  O  O6  1  0.27806200  0.60322100  0.31301000  1
  O  O7  1  0.28750100  0.39728400  0.81732000  1
  O  O8  1  0.28524400  0.61118700  0.97813700  1
  O  O9  1  0.72100300  0.37752100  0.03015200  1
  O  O10  1  0.72455500  0.61199200  0.19482400  1
  O  O11  1  0.72495800  0.38273900  0.36162400  1
  O  O12  1  0.71300200  0.61880500  0.52980600  1
  O  O13  1  0.72448300  0.38323100  0.69661500  1
  F  F0  1  0.25535500  0.38123000  0.15322000  1
  F  F1  1  0.25479000  0.37966800  0.48484400  1
  F  F2  1  0.23668800  0.61135500  0.64546100  1
  F  F3  1  0.76385400  0.61780000  0.86791900  1
  F  F4  1  0.74750600  0.12753800  0.19088300  1
  F  F5  1  0.75533700  0.11918700  0.51195900  1
  F  F6  1  0.77406900  0.87557700  0.34718400  1
  F  F7  1  0.77804000  0.87948900  0.01419600  1
  F  F8  1  0.77059400  0.12699300  0.85889300  1
  F  F9  1  0.74863500  0.87433500  0.69097200  1
loop_
_geom_bond_atom_site_label_1
_geom_bond_atom_site_label_2
_geom_bond_distance
_geom_bond_site_symmetry_2
Mn0 O0 1.913206 1_555
Mn0 O11 1.967755 1_455
Mn0 O4 1.974138 1_545
Mn1 O3 1.897315 1_555
Mn1 O10 2.010651 1_455
Mn1 O6 2.052519 1_555
Mn1 O0 2.057399 1_565
Mn2 O9 1.924859 1_555
Mn2 O2 1.986045 1_654
Mn2 O3 1.989585 1_645
Mn3 O1 1.925201 1_555
Mn3 O13 1.979184 1_455
Mn3 O5 2.037761 1_545
Mn3 O7 2.098269 1_555
Mn4 O12 1.963468 1_555
Mn4 O4 1.966889 1_655
Mn4 O1 2.032355 1_665
Mn5 O5 1.871528 1_555
Mn5 O2 1.934190 1_565
Mn5 O8 1.989174 1_555
Mn6 O13 1.926060 1_555
Mn6 O1 2.008754 1_555
Mn6 O12 2.024553 1_555
Mn7 O8 1.892552 1_555
Mn7 O2 1.905417 1_555
Mn7 O7 1.906594 1_555
Mn7 O9 1.934476 1_556
Mn8 O6 1.859510 1_555
Mn8 O11 1.869046 1_555
Mn8 O0 1.975732 1_555
Mn8 O10 1.984634 1_555
Mn9 O8 1.948781 1_554
Mn9 O10 1.955982 1_555
Mn9 O3 2.000778 1_555
Mn9 O9 2.007636 1_555
Mn10 O6 1.948296 1_555
Mn10 O12 1.955002 1_555
Mn10 O4 1.964132 1_555
Mn10 O11 2.038471 1_555
Mn11 O7 1.908741 1_555
Mn11 O5 1.983293 1_555
Mn11 O13 1.985654 1_555
F0 Mn8 1.985972 1_555
F0 Mn2 2.086959 1_455
F0 Mn9 2.144712 1_555
F1 Mn6 1.989244 1_555
F1 Mn0 2.093508 1_555
F1 Mn10 2.138812 1_555
F2 Mn4 2.034628 1_455
F2 Mn11 2.064964 1_555
F2 Mn6 2.098326 1_555
F3 Mn5 2.010143 1_655
F3 Mn11 2.121944 1_555
F3 Mn7 2.143312 1_555
F4 Mn8 2.036677 1_555
F4 Mn2 2.047739 1_555
F4 Mn1 2.206173 1_645
F5 Mn0 2.015201 1_655
F5 Mn6 2.084208 1_555
F5 Mn4 2.103696 1_545
F6 Mn1 1.964363 1_655
F6 Mn10 2.107678 1_555
F6 Mn0 2.118942 1_665
F7 Mn5 1.978826 1_654
F7 Mn2 2.112831 1_565
F7 Mn9 2.123400 1_555
F8 Mn7 2.073226 1_555
F8 Mn3 2.080590 1_655
F8 Mn5 2.163711 1_645
F9 Mn11 2.025490 1_555
F9 Mn4 2.091693 1_555
F9 Mn3 2.248821 1_665
