# generated using pymatgen
data_Li3VF5
_symmetry_space_group_name_H-M   'P 1'
_cell_length_a   6.95836300
_cell_length_b   7.73927000
_cell_length_c   7.87444503
_cell_angle_alpha   88.14693193
_cell_angle_beta   90.00000000
_cell_angle_gamma   90.00000000
_symmetry_Int_Tables_number   1
_chemical_formula_structural   Li3VF5
_chemical_formula_sum   'Li12 V4 F20'
_cell_volume   423.83796543
_cell_formula_units_Z   4
loop_
 _symmetry_equiv_pos_site_id
 _symmetry_equiv_pos_as_xyz
  1  'x, y, z'
loop_
 _atom_site_type_symbol
 _atom_site_label
 _atom_site_symmetry_multiplicity
 _atom_site_fract_x
 _atom_site_fract_y
 _atom_site_fract_z
 _atom_site_occupancy
  Li  Li0  1  0.55188400  0.00275400  0.78235600  1
  Li  Li1  1  0.05188400  0.99724600  0.71764400  1
  Li  Li2  1  0.94811600  0.00275400  0.28235600  1
  Li  Li3  1  0.44811600  0.99724600  0.21764400  1
  Li  Li4  1  0.27837800  0.73372800  0.96767200  1
  Li  Li5  1  0.22162200  0.73372800  0.46767200  1
  Li  Li6  1  0.01488300  0.53549500  0.81270600  1
  Li  Li7  1  0.48511700  0.53549500  0.31270600  1
  Li  Li8  1  0.51488300  0.46450500  0.68729400  1
  Li  Li9  1  0.98511700  0.46450500  0.18729400  1
  Li  Li10  1  0.77837800  0.26627200  0.53232800  1
  Li  Li11  1  0.72162200  0.26627200  0.03232800  1
  V  V0  1  0.76425500  0.74759800  0.59378000  1
  V  V1  1  0.73574500  0.74759800  0.09378000  1
  V  V2  1  0.26425500  0.25240200  0.90622000  1
  V  V3  1  0.23574500  0.25240200  0.40622000  1
  F  F0  1  0.27487100  0.97682600  0.88360600  1
  F  F1  1  0.22512900  0.97682600  0.38360600  1
  F  F2  1  0.63966600  0.77112500  0.83995900  1
  F  F3  1  0.05524700  0.76150700  0.66275400  1
  F  F4  1  0.86033400  0.77112500  0.33995900  1
  F  F5  1  0.44475300  0.76150700  0.16275400  1
  F  F6  1  0.48488900  0.67917900  0.52349500  1
  F  F7  1  0.01511100  0.67917900  0.02349500  1
  F  F8  1  0.29980700  0.51695800  0.84604000  1
  F  F9  1  0.20019300  0.51695800  0.34604000  1
  F  F10  1  0.79980700  0.48304200  0.65396000  1
  F  F11  1  0.70019300  0.48304200  0.15396000  1
  F  F12  1  0.98488900  0.32082100  0.97650500  1
  F  F13  1  0.51511100  0.32082100  0.47650500  1
  F  F14  1  0.55524700  0.23849300  0.83724600  1
  F  F15  1  0.13966600  0.22887500  0.66004100  1
  F  F16  1  0.94475300  0.23849300  0.33724600  1
  F  F17  1  0.36033400  0.22887500  0.16004100  1
  F  F18  1  0.77487100  0.02317400  0.61639400  1
  F  F19  1  0.72512900  0.02317400  0.11639400  1
loop_
_geom_bond_atom_site_label_1
_geom_bond_atom_site_label_2
_geom_bond_distance
_geom_bond_site_symmetry_2
F0 Li4 1.974317 1_555
F0 Li1 2.031511 1_555
F0 Li0 2.093099 1_565
F0 V2 2.147180 1_565
F1 Li5 1.974317 1_555
F1 Li3 2.031511 1_555
F1 Li2 2.093099 1_465
F1 V3 2.147180 1_565
F2 Li0 1.933860 1_565
F2 V1 2.109829 1_556
F2 V0 2.136687 1_555
F3 Li1 1.888645 1_555
F3 Li5 1.941040 1_555
F3 Li6 2.097418 1_555
F3 V0 2.100069 1_455
F4 Li2 1.933860 1_565
F4 V0 2.109829 1_555
F4 V1 2.136687 1_555
F5 Li3 1.888645 1_555
F5 Li4 1.941040 1_554
F5 Li7 2.097418 1_555
F5 V1 2.100069 1_555
F6 Li5 1.927521 1_555
F6 Li7 2.027567 1_555
F6 Li8 2.080610 1_555
F6 V0 2.093923 1_555
F7 Li4 1.927521 1_554
F7 Li6 2.027567 1_554
F7 Li9 2.080610 1_455
F7 V1 2.093923 1_455
F8 Li4 1.964175 1_555
F8 Li8 1.999987 1_555
F8 Li6 2.004437 1_555
F8 V2 2.101226 1_555
F9 Li5 1.964175 1_555
F9 Li9 1.999987 1_455
F9 Li7 2.004437 1_555
F9 V3 2.101226 1_555
F10 Li10 1.964175 1_555
F10 Li6 1.999987 1_655
F10 Li8 2.004437 1_555
F10 V0 2.101226 1_555
F11 Li11 1.964175 1_555
F11 Li7 1.999987 1_555
F11 Li9 2.004437 1_555
F11 V1 2.101226 1_555
F12 Li11 1.927521 1_556
F12 Li9 2.027567 1_556
F12 Li6 2.080610 1_655
F12 V2 2.093923 1_655
F13 Li10 1.927521 1_555
F13 Li8 2.027567 1_555
F13 Li7 2.080610 1_555
F13 V3 2.093923 1_555
F14 Li0 1.888645 1_555
F14 Li11 1.941040 1_556
F14 Li8 2.097418 1_555
F14 V2 2.100069 1_555
F15 Li1 1.933860 1_545
F15 V3 2.109829 1_555
F15 V2 2.136687 1_555
F16 Li2 1.888645 1_555
F16 Li10 1.941040 1_555
F16 Li9 2.097418 1_555
F16 V3 2.100069 1_655
F17 Li3 1.933860 1_545
F17 V2 2.109829 1_554
F17 V3 2.136687 1_555
F18 Li10 1.974317 1_555
F18 Li0 2.031511 1_555
F18 Li1 2.093099 1_645
F18 V0 2.147180 1_545
F19 Li11 1.974317 1_555
F19 Li2 2.031511 1_555
F19 Li3 2.093099 1_545
F19 V1 2.147180 1_545
