# generated using pymatgen
data_Li4Ti4V(Fe2O9)2
_symmetry_space_group_name_H-M   'P 1'
_cell_length_a   2.95209600
_cell_length_b   9.23969400
_cell_length_c   25.46873200
_cell_angle_alpha   90.00000000
_cell_angle_beta   90.00000000
_cell_angle_gamma   90.00000000
_symmetry_Int_Tables_number   1
_chemical_formula_structural   Li4Ti4V(Fe2O9)2
_chemical_formula_sum   'Li8 Ti8 V2 Fe8 O36'
_cell_volume   694.69694385
_cell_formula_units_Z   2
loop_
 _symmetry_equiv_pos_site_id
 _symmetry_equiv_pos_as_xyz
  1  'x, y, z'
loop_
 _atom_site_type_symbol
 _atom_site_label
 _atom_site_symmetry_multiplicity
 _atom_site_fract_x
 _atom_site_fract_y
 _atom_site_fract_z
 _atom_site_occupancy
  Li  Li0  1  0.00000000  0.19769800  0.48871100  1
  Li  Li1  1  0.00000000  0.19613800  0.68405700  1
  Li  Li2  1  0.00000000  0.30386200  0.18405700  1
  Li  Li3  1  0.00000000  0.30230200  0.98871100  1
  Li  Li4  1  0.00000000  0.69769800  0.01128900  1
  Li  Li5  1  0.00000000  0.69613800  0.81594300  1
  Li  Li6  1  0.00000000  0.80386200  0.31594300  1
  Li  Li7  1  0.00000000  0.80230200  0.51128900  1
  Ti  Ti0  1  0.00000000  0.99908800  0.59971500  1
  Ti  Ti1  1  0.50000000  0.15827400  0.30979500  1
  Ti  Ti2  1  0.50000000  0.34172600  0.80979500  1
  Ti  Ti3  1  0.00000000  0.50091200  0.09971500  1
  Ti  Ti4  1  0.00000000  0.49908800  0.90028500  1
  Ti  Ti5  1  0.50000000  0.65827400  0.19020500  1
  Ti  Ti6  1  0.50000000  0.84172600  0.69020500  1
  Ti  Ti7  1  0.00000000  0.00091200  0.40028500  1
  V  V0  1  0.00000000  0.00000000  0.00000000  1
  V  V1  1  0.00000000  0.50000000  0.50000000  1
  Fe  Fe0  1  0.00000000  0.99916700  0.80567300  1
  Fe  Fe1  1  0.50000000  0.15147700  0.08613900  1
  Fe  Fe2  1  0.50000000  0.34852300  0.58613900  1
  Fe  Fe3  1  0.00000000  0.50083300  0.30567300  1
  Fe  Fe4  1  0.00000000  0.49916700  0.69432700  1
  Fe  Fe5  1  0.50000000  0.65147700  0.41386100  1
  Fe  Fe6  1  0.50000000  0.84852300  0.91386100  1
  Fe  Fe7  1  0.00000000  0.00083300  0.19432700  1
  O  O0  1  0.00000000  0.99287800  0.92556400  1
  O  O1  1  0.00000000  0.00712200  0.07443600  1
  O  O2  1  0.50000000  0.06156700  0.44324000  1
  O  O3  1  0.50000000  0.04331900  0.65591300  1
  O  O4  1  0.50000000  0.12739100  0.16492600  1
  O  O5  1  0.00000000  0.10221600  0.26142800  1
  O  O6  1  0.50000000  0.14792400  0.00328000  1
  O  O7  1  0.50000000  0.13915300  0.79145400  1
  O  O8  1  0.00000000  0.18699000  0.35851500  1
  O  O9  1  0.00000000  0.19890300  0.58268200  1
  O  O10  1  0.00000000  0.30109700  0.08268200  1
  O  O11  1  0.00000000  0.31301000  0.85851500  1
  O  O12  1  0.50000000  0.36084700  0.29145400  1
  O  O13  1  0.50000000  0.35207600  0.50328000  1
  O  O14  1  0.00000000  0.39778400  0.76142800  1
  O  O15  1  0.50000000  0.37260900  0.66492600  1
  O  O16  1  0.50000000  0.45668100  0.15591300  1
  O  O17  1  0.50000000  0.43843300  0.94324000  1
  O  O18  1  0.00000000  0.49287800  0.57443600  1
  O  O19  1  0.00000000  0.50712200  0.42556400  1
  O  O20  1  0.50000000  0.56156700  0.05676000  1
  O  O21  1  0.50000000  0.54331900  0.84408700  1
  O  O22  1  0.50000000  0.62739100  0.33507400  1
  O  O23  1  0.00000000  0.60221600  0.23857200  1
  O  O24  1  0.50000000  0.64792400  0.49672000  1
  O  O25  1  0.50000000  0.63915300  0.70854600  1
  O  O26  1  0.00000000  0.68699000  0.14148500  1
  O  O27  1  0.00000000  0.69890300  0.91731800  1
  O  O28  1  0.00000000  0.80109700  0.41731800  1
  O  O29  1  0.00000000  0.81301000  0.64148500  1
  O  O30  1  0.50000000  0.86084700  0.20854600  1
  O  O31  1  0.50000000  0.85207600  0.99672000  1
  O  O32  1  0.00000000  0.89778400  0.73857200  1
  O  O33  1  0.50000000  0.87260900  0.83507400  1
  O  O34  1  0.50000000  0.95668100  0.34408700  1
  O  O35  1  0.50000000  0.93843300  0.55676000  1
loop_
_geom_bond_atom_site_label_1
_geom_bond_atom_site_label_2
_geom_bond_distance
_geom_bond_site_symmetry_2
Li0 O13 2.085913 1_455
Li0 O13 2.085913 1_555
Li0 O2 2.258754 1_455
Li0 O2 2.258754 1_555
Li0 O9 2.393348 1_555
Li1 O3 2.164776 1_455
Li1 O3 2.164776 1_555
Li1 O15 2.252727 1_555
Li1 O15 2.252727 1_455
Li1 O9 2.582019 1_555
Li2 O16 2.164776 1_455
Li2 O16 2.164776 1_555
Li2 O4 2.252727 1_555
Li2 O4 2.252727 1_455
Li2 O10 2.582019 1_555
Li3 O6 2.085913 1_456
Li3 O6 2.085913 1_556
Li3 O17 2.258754 1_455
Li3 O17 2.258754 1_555
Li3 O10 2.393348 1_556
Li4 O31 2.085913 1_454
Li4 O31 2.085913 1_554
Li4 O20 2.258754 1_455
Li4 O20 2.258754 1_555
Li4 O27 2.393348 1_554
Li5 O21 2.164776 1_455
Li5 O21 2.164776 1_555
Li5 O33 2.252727 1_555
Li5 O33 2.252727 1_455
Li5 O27 2.582019 1_555
Li6 O34 2.164776 1_555
Li6 O34 2.164776 1_455
Li6 O22 2.252727 1_455
Li6 O22 2.252727 1_555
Li6 O28 2.582019 1_555
Li7 O24 2.085913 1_455
Li7 O24 2.085913 1_555
Li7 O35 2.258754 1_455
Li7 O35 2.258754 1_555
Li7 O28 2.393348 1_555
Fe0 O32 1.948872 1_555
Fe0 O7 1.995700 1_565
Fe0 O7 1.995700 1_465
Fe0 O33 2.026530 1_455
Fe0 O33 2.026530 1_555
Fe1 O1 2.011609 1_555
Fe1 O1 2.011609 1_655
Fe1 O4 2.018908 1_555
Fe1 O10 2.024257 1_655
Fe1 O10 2.024257 1_555
Fe1 O6 2.110569 1_555
Fe2 O18 2.011609 1_555
Fe2 O18 2.011609 1_655
Fe2 O15 2.018908 1_555
Fe2 O9 2.024257 1_555
Fe2 O9 2.024257 1_655
Fe2 O13 2.110569 1_555
Fe3 O23 1.948872 1_555
Fe3 O12 1.995700 1_555
Fe3 O12 1.995700 1_455
Fe3 O22 2.026530 1_455
Fe3 O22 2.026530 1_555
Fe4 O14 1.948872 1_555
Fe4 O25 1.995700 1_455
Fe4 O25 1.995700 1_555
Fe4 O15 2.026530 1_555
Fe4 O15 2.026530 1_455
Fe5 O19 2.011609 1_555
Fe5 O19 2.011609 1_655
Fe5 O22 2.018908 1_555
Fe5 O28 2.024257 1_555
Fe5 O28 2.024257 1_655
Fe5 O24 2.110569 1_555
Fe6 O0 2.011609 1_555
Fe6 O0 2.011609 1_655
Fe6 O33 2.018908 1_555
Fe6 O27 2.024257 1_555
Fe6 O27 2.024257 1_655
Fe6 O31 2.110569 1_555
Fe7 O5 1.948872 1_555
Fe7 O30 1.995700 1_445
Fe7 O30 1.995700 1_545
Fe7 O4 2.026530 1_455
Fe7 O4 2.026530 1_555
O0 V0 1.896932 1_566
O1 V0 1.896932 1_555
O2 Ti7 1.920849 1_555
O2 Ti7 1.920849 1_655
O3 Ti6 2.057249 1_545
O3 Ti0 2.096267 1_545
O3 Ti0 2.096267 1_645
O5 Ti1 1.991091 1_555
O5 Ti1 1.991091 1_455
O6 V0 2.013396 1_555
O6 V0 2.013396 1_655
O7 Ti2 1.929122 1_555
O8 Ti1 1.946482 1_455
O8 Ti1 1.946482 1_555
O8 Ti7 2.021815 1_555
O9 Ti0 1.896511 1_545
O10 Ti3 1.896511 1_555
O11 Ti2 1.946482 1_455
O11 Ti2 1.946482 1_555
O11 Ti4 2.021815 1_555
O12 Ti1 1.929122 1_555
O13 V1 2.013396 1_555
O13 V1 2.013396 1_655
O14 Ti2 1.991091 1_555
O14 Ti2 1.991091 1_455
O16 Ti5 2.057249 1_555
O16 Ti3 2.096267 1_555
O16 Ti3 2.096267 1_655
O17 Ti4 1.920849 1_655
O17 Ti4 1.920849 1_555
O18 V1 1.896932 1_555
O19 V1 1.896932 1_555
O20 Ti3 1.920849 1_555
O20 Ti3 1.920849 1_655
O21 Ti2 2.057249 1_555
O21 Ti4 2.096267 1_555
O21 Ti4 2.096267 1_655
O23 Ti5 1.991091 1_455
O23 Ti5 1.991091 1_555
O24 V1 2.013396 1_555
O24 V1 2.013396 1_655
O25 Ti6 1.929122 1_555
O26 Ti5 1.946482 1_555
O26 Ti5 1.946482 1_455
O26 Ti3 2.021815 1_555
O27 Ti4 1.896511 1_555
O28 Ti7 1.896511 1_565
O29 Ti6 1.946482 1_455
O29 Ti6 1.946482 1_555
O29 Ti0 2.021815 1_555
O30 Ti5 1.929122 1_555
O31 V0 2.013396 1_666
O31 V0 2.013396 1_566
O32 Ti6 1.991091 1_455
O32 Ti6 1.991091 1_555
O34 Ti1 2.057249 1_565
O34 Ti7 2.096267 1_565
O34 Ti7 2.096267 1_665
O35 Ti0 1.920849 1_655
O35 Ti0 1.920849 1_555
