# generated using pymatgen
data_Li2CoSiO4
_symmetry_space_group_name_H-M   'P 1'
_cell_length_a   7.39594813
_cell_length_b   7.39864897
_cell_length_c   7.95305756
_cell_angle_alpha   115.12987269
_cell_angle_beta   115.04480152
_cell_angle_gamma   95.06907443
_symmetry_Int_Tables_number   1
_chemical_formula_structural   Li2CoSiO4
_chemical_formula_sum   'Li8 Co4 Si4 O16'
_cell_volume   337.34304097
_cell_formula_units_Z   4
loop_
 _symmetry_equiv_pos_site_id
 _symmetry_equiv_pos_as_xyz
  1  'x, y, z'
loop_
 _atom_site_type_symbol
 _atom_site_label
 _atom_site_symmetry_multiplicity
 _atom_site_fract_x
 _atom_site_fract_y
 _atom_site_fract_z
 _atom_site_occupancy
  Li  Li0  1  0.54513000  0.21337400  0.25132300  1
  Li  Li1  1  0.04515600  0.71329000  0.25132600  1
  Li  Li2  1  0.46200600  0.79408500  0.24900900  1
  Li  Li3  1  0.96202600  0.29418000  0.24901300  1
  Li  Li4  1  0.79388400  0.46182600  0.74782300  1
  Li  Li5  1  0.29379500  0.96189200  0.74783300  1
  Li  Li6  1  0.71403400  0.04595200  0.75243600  1
  Li  Li7  1  0.21395400  0.54590700  0.75244200  1
  Co  Co0  1  0.33299500  0.17364500  0.49971100  1
  Co  Co1  1  0.67391000  0.83343400  0.00074800  1
  Co  Co2  1  0.83300800  0.67360900  0.49968400  1
  Co  Co3  1  0.17393800  0.33347500  0.00075400  1
  Si  Si0  1  0.91400500  0.08718000  0.50066000  1
  Si  Si1  1  0.41398100  0.58711100  0.50041400  1
  Si  Si2  1  0.58669200  0.41357600  0.99987400  1
  Si  Si3  1  0.08673900  0.91367100  0.99973200  1
  O  O0  1  0.61036000  0.49504900  0.49963000  1
  O  O1  1  0.11034200  0.99498700  0.49971000  1
  O  O2  1  0.49511400  0.61068600  0.00062400  1
  O  O3  1  0.99534800  0.11069200  0.00053100  1
  O  O4  1  0.74852200  0.92169900  0.50058100  1
  O  O5  1  0.24857100  0.42171100  0.50051900  1
  O  O6  1  0.92125400  0.74813400  0.99976400  1
  O  O7  1  0.42121700  0.24804400  0.99981200  1
  O  O8  1  0.32251400  0.00381500  0.21805300  1
  O  O9  1  0.82243600  0.50379100  0.21812400  1
  O  O10  1  0.78570800  0.10488300  0.28246600  1
  O  O11  1  0.28566000  0.60455400  0.28217200  1
  O  O12  1  0.00472200  0.32284400  0.71935700  1
  O  O13  1  0.50461700  0.82293500  0.71915600  1
  O  O14  1  0.60401000  0.28557700  0.78133500  1
  O  O15  1  0.10385200  0.78559400  0.78109200  1
loop_
_geom_bond_atom_site_label_1
_geom_bond_atom_site_label_2
_geom_bond_distance
_geom_bond_site_symmetry_2
Li0 O7 1.957573 1_554
Li0 O10 1.979821 1_555
Li0 O0 1.998981 1_555
Li0 O8 2.004082 1_555
Li1 O6 1.958706 1_454
Li1 O11 1.980512 1_555
Li1 O1 1.999438 1_555
Li1 O9 2.004627 1_455
Li2 O4 1.958907 1_555
Li2 O8 1.981191 1_565
Li2 O2 1.998764 1_555
Li2 O11 2.004786 1_555
Li3 O5 1.958878 1_655
Li3 O9 1.980679 1_555
Li3 O3 2.000473 1_555
Li3 O10 2.005069 1_555
Li4 O6 1.957984 1_555
Li4 O12 1.981083 1_655
Li4 O0 2.000426 1_555
Li4 O14 2.007981 1_555
Li5 O7 1.957377 1_565
Li5 O13 1.981261 1_555
Li5 O1 1.999295 1_555
Li5 O15 2.007153 1_555
Li6 O4 1.957626 1_545
Li6 O14 1.981252 1_555
Li6 O3 1.999227 1_556
Li6 O13 2.005470 1_545
Li7 O5 1.958659 1_555
Li7 O15 1.982147 1_555
Li7 O2 1.998772 1_556
Li7 O12 2.005672 1_555
Co0 O5 1.988548 1_555
Co0 O8 2.011915 1_555
Co0 O14 2.012546 1_555
Co0 O1 2.018484 1_545
Co1 O6 1.989169 1_554
Co1 O13 2.012504 1_554
Co1 O10 2.013286 1_565
Co1 O2 2.019176 1_555
Co2 O4 1.988718 1_555
Co2 O9 2.010925 1_555
Co2 O15 2.010982 1_655
Co2 O0 2.017771 1_555
Co3 O7 1.989012 1_554
Co3 O12 2.010651 1_554
Co3 O11 2.010802 1_555
Co3 O3 2.017995 1_455
O0 Si1 1.659022 1_555
O1 Si0 1.659474 1_465
O2 Si2 1.660162 1_554
O3 Si3 1.658811 1_644
O4 Si0 1.652524 1_565
O5 Si1 1.652674 1_555
O6 Si3 1.653368 1_655
O7 Si2 1.652824 1_555
O8 Si3 1.657662 1_544
O9 Si2 1.657216 1_554
O10 Si0 1.658232 1_555
O11 Si1 1.657473 1_555
O12 Si0 1.656796 1_455
O13 Si1 1.657706 1_555
O14 Si2 1.657106 1_555
O15 Si3 1.656990 1_555
