# generated using pymatgen
data_Li4Mn2V3Sn3O16
_symmetry_space_group_name_H-M   'P 1'
_cell_length_a   6.12509100
_cell_length_b   6.13301773
_cell_length_c   10.00356427
_cell_angle_alpha   89.92085029
_cell_angle_beta   89.85949766
_cell_angle_gamma   60.38835483
_symmetry_Int_Tables_number   1
_chemical_formula_structural   Li4Mn2V3Sn3O16
_chemical_formula_sum   'Li4 Mn2 V3 Sn3 O16'
_cell_volume   326.70600424
_cell_formula_units_Z   1
loop_
 _symmetry_equiv_pos_site_id
 _symmetry_equiv_pos_as_xyz
  1  'x, y, z'
loop_
 _atom_site_type_symbol
 _atom_site_label
 _atom_site_symmetry_multiplicity
 _atom_site_fract_x
 _atom_site_fract_y
 _atom_site_fract_z
 _atom_site_occupancy
  Li  Li0  1  0.67309400  0.65028000  0.88814900  1
  Li  Li1  1  0.98973900  0.02737300  0.99505100  1
  Li  Li2  1  0.98882100  0.01625100  0.50079100  1
  Li  Li3  1  0.33848300  0.32694400  0.39346200  1
  Mn  Mn0  1  0.66502200  0.66380200  0.50109400  1
  Mn  Mn1  1  0.33583400  0.33335800  0.99699700  1
  V  V0  1  0.83234300  0.33897800  0.21698500  1
  V  V1  1  0.17785000  0.16041400  0.71736500  1
  V  V2  1  0.66604100  0.16687200  0.71321700  1
  Sn  Sn0  1  0.83156000  0.83296700  0.21477200  1
  Sn  Sn1  1  0.33703000  0.83216500  0.21515600  1
  Sn  Sn2  1  0.16831500  0.65841800  0.71497900  1
  O  O0  1  0.84039000  0.84794100  0.60382200  1
  O  O1  1  0.51941600  0.96934200  0.33549400  1
  O  O2  1  0.67116900  0.65865200  0.10016700  1
  O  O3  1  0.99496800  0.01090400  0.31954400  1
  O  O4  1  0.99610000  0.00497300  0.81467400  1
  O  O5  1  0.30301000  0.86624100  0.60410500  1
  O  O6  1  0.96762500  0.49723200  0.32753600  1
  O  O7  1  0.52270700  0.50758600  0.32987400  1
  O  O8  1  0.14844800  0.69728400  0.09625300  1
  O  O9  1  0.83294600  0.30867900  0.61330000  1
  O  O10  1  0.48901600  0.47362000  0.82976200  1
  O  O11  1  0.03737900  0.45412100  0.82824600  1
  O  O12  1  0.34205400  0.31872100  0.60456900  1
  O  O13  1  0.68950800  0.17655100  0.10726000  1
  O  O14  1  0.49258000  0.03262800  0.81949900  1
  O  O15  1  0.14885200  0.16770300  0.10571600  1
loop_
_geom_bond_atom_site_label_1
_geom_bond_atom_site_label_2
_geom_bond_distance
_geom_bond_site_symmetry_2
Li0 O10 1.999619 1_555
Li0 O11 2.031673 1_655
Li0 O2 2.121491 1_556
Li0 O14 2.151729 1_565
Li1 O4 1.808687 1_555
Li1 O15 1.937239 1_656
Li1 O13 1.951612 1_556
Li1 O8 2.030421 1_646
Li2 O3 1.813420 1_555
Li2 O9 1.924301 1_555
Li2 O0 1.968322 1_545
Li2 O5 1.968620 1_645
Li3 O1 1.993209 1_545
Li3 O7 2.033529 1_555
Li3 O6 2.084839 1_455
Li3 O12 2.112264 1_555
Mn0 O0 2.166250 1_555
Mn0 O5 2.189008 1_555
Mn0 O9 2.201479 1_555
Mn0 O1 2.323409 1_555
Mn0 O7 2.334235 1_555
Mn0 O6 2.368815 1_555
Mn1 O15 2.160416 1_556
Mn1 O8 2.180322 1_556
Mn1 O13 2.187303 1_556
Mn1 O10 2.281449 1_555
Mn1 O11 2.326748 1_555
Mn1 O14 2.393128 1_555
O0 V2 2.024820 1_565
O0 Sn2 2.078957 1_655
O1 Sn0 2.055369 1_555
O1 Sn1 2.084017 1_555
O2 V0 2.066549 1_555
O2 Sn0 2.114060 1_555
O2 Sn1 2.117508 1_555
O3 V0 2.027789 1_555
O3 Sn0 2.092585 1_545
O3 Sn1 2.098702 1_645
O4 V2 2.031397 1_555
O4 V1 2.033865 1_655
O4 Sn2 2.099960 1_645
O5 V1 1.939323 1_565
O5 Sn2 2.136864 1_555
O6 V0 1.911511 1_555
O6 Sn0 2.123475 1_555
O7 V0 1.999032 1_555
O7 Sn1 2.082269 1_555
O8 Sn0 2.064163 1_455
O8 Sn1 2.094529 1_555
O9 V2 1.916191 1_555
O9 V1 2.117381 1_655
O10 V2 2.014491 1_555
O10 Sn2 2.066130 1_555
O11 V1 1.919522 1_555
O11 Sn2 2.116984 1_555
O12 V2 2.041579 1_555
O12 V1 2.045440 1_555
O12 Sn2 2.121886 1_555
O13 V0 1.957442 1_555
O13 Sn0 2.130850 1_545
O14 V2 1.947712 1_555
O14 V1 1.971984 1_555
O15 V0 2.020125 1_455
O15 Sn1 2.101861 1_545
