# generated using pymatgen
data_LiMn3Al2(HO2)6
_symmetry_space_group_name_H-M   'P 1'
_cell_length_a   5.88321500
_cell_length_b   7.95033381
_cell_length_c   10.12917101
_cell_angle_alpha   97.21771408
_cell_angle_beta   106.72386100
_cell_angle_gamma   100.91639683
_symmetry_Int_Tables_number   1
_chemical_formula_structural   LiMn3Al2(HO2)6
_chemical_formula_sum   'Li2 Mn6 Al4 H12 O24'
_cell_volume   437.27648256
_cell_formula_units_Z   2
loop_
 _symmetry_equiv_pos_site_id
 _symmetry_equiv_pos_as_xyz
  1  'x, y, z'
loop_
 _atom_site_type_symbol
 _atom_site_label
 _atom_site_symmetry_multiplicity
 _atom_site_fract_x
 _atom_site_fract_y
 _atom_site_fract_z
 _atom_site_occupancy
  Li  Li0  1  0.65798100  0.65450300  0.50017100  1
  Li  Li1  1  0.34201900  0.34549700  0.49982900  1
  Mn  Mn0  1  0.67067700  0.66457400  0.00632100  1
  Mn  Mn1  1  0.17107500  0.66477200  0.00648700  1
  Mn  Mn2  1  0.82892500  0.33522800  0.99351300  1
  Mn  Mn3  1  0.32932300  0.33542600  0.99367900  1
  Mn  Mn4  1  0.00000000  0.00000000  0.00000000  1
  Mn  Mn5  1  0.50000000  0.00000000  0.00000000  1
  Al  Al0  1  0.16830100  0.65994100  0.49882700  1
  Al  Al1  1  0.50000000  0.00000000  0.50000000  1
  Al  Al2  1  0.83169900  0.34005900  0.50117300  1
  Al  Al3  1  0.00000000  0.00000000  0.50000000  1
  H  H0  1  0.10402200  0.83635500  0.28807200  1
  H  H1  1  0.54654600  0.83026600  0.70431400  1
  H  H2  1  0.60851400  0.84912300  0.29577200  1
  H  H3  1  0.25281200  0.51723500  0.29087400  1
  H  H4  1  0.07034600  0.82571600  0.69914800  1
  H  H5  1  0.78342500  0.50043600  0.29149800  1
  H  H6  1  0.21657500  0.49956400  0.70850200  1
  H  H7  1  0.92965400  0.17428400  0.30085200  1
  H  H8  1  0.39148600  0.15087700  0.70422800  1
  H  H9  1  0.74718800  0.48276500  0.70912600  1
  H  H10  1  0.45345400  0.16973400  0.29568600  1
  H  H11  1  0.89597800  0.16364500  0.71192800  1
  O  O0  1  0.16202500  0.86917900  0.39330200  1
  O  O1  1  0.00406400  0.78058600  0.11436000  1
  O  O2  1  0.48630500  0.81150600  0.60148800  1
  O  O3  1  0.66933400  0.85401400  0.90339300  1
  O  O4  1  0.50391000  0.78154900  0.11281300  1
  O  O5  1  0.31489400  0.54623300  0.39286000  1
  O  O6  1  0.67041800  0.88382700  0.39925500  1
  O  O7  1  0.01681800  0.80848700  0.59650700  1
  O  O8  1  0.16908700  0.85618100  0.90426500  1
  O  O9  1  0.83497100  0.53540000  0.90016600  1
  O  O10  1  0.66588200  0.46424500  0.10133200  1
  O  O11  1  0.84458900  0.52046000  0.39444700  1
  O  O12  1  0.15541100  0.47954000  0.60555300  1
  O  O13  1  0.33411800  0.53575500  0.89866800  1
  O  O14  1  0.16502900  0.46460000  0.09983400  1
  O  O15  1  0.98318200  0.19151300  0.40349300  1
  O  O16  1  0.83091300  0.14381900  0.09573500  1
  O  O17  1  0.49609000  0.21845100  0.88718700  1
  O  O18  1  0.68510600  0.45376700  0.60714000  1
  O  O19  1  0.32958200  0.11617300  0.60074500  1
  O  O20  1  0.33066600  0.14598600  0.09660700  1
  O  O21  1  0.51369500  0.18849400  0.39851200  1
  O  O22  1  0.83797500  0.13082100  0.60669800  1
  O  O23  1  0.99593600  0.21941400  0.88564000  1
loop_
_geom_bond_atom_site_label_1
_geom_bond_atom_site_label_2
_geom_bond_distance
_geom_bond_site_symmetry_2
Li0 O5 1.959783 1_555
Li0 O18 2.043984 1_555
Li0 O11 2.078649 1_555
Li0 O2 2.093690 1_555
Li0 O7 2.107861 1_655
Li0 O6 2.198892 1_555
Li1 O18 1.959783 1_555
Li1 O5 2.043984 1_555
Li1 O12 2.078649 1_555
Li1 O21 2.093690 1_555
Li1 O15 2.107861 1_455
Li1 O19 2.198892 1_555
Mn0 O4 1.921881 1_555
Mn0 O1 1.929042 1_655
Mn0 O3 1.936422 1_554
Mn0 O9 1.960046 1_554
Mn0 O10 1.961473 1_555
Mn0 O13 1.966529 1_554
Mn1 O4 1.924228 1_555
Mn1 O1 1.927401 1_555
Mn1 O8 1.945178 1_554
Mn1 O14 1.950379 1_555
Mn1 O9 1.963030 1_454
Mn1 O13 1.964434 1_554
Mn2 O17 1.924228 1_555
Mn2 O23 1.927401 1_555
Mn2 O16 1.945178 1_556
Mn2 O9 1.950379 1_555
Mn2 O14 1.963030 1_656
Mn2 O10 1.964434 1_556
Mn3 O17 1.921881 1_555
Mn3 O23 1.929042 1_455
Mn3 O20 1.936422 1_556
Mn3 O14 1.960046 1_556
Mn3 O13 1.961473 1_555
Mn3 O10 1.966529 1_556
Mn4 O20 1.962902 1_555
Mn4 O3 1.962902 1_444
Mn4 O16 1.986121 1_455
Mn4 O8 1.986121 1_544
Mn4 O23 2.212011 1_454
Mn4 O1 2.212011 1_545
Mn5 O16 1.956950 1_555
Mn5 O8 1.956950 1_544
Mn5 O20 2.002674 1_555
Mn5 O3 2.002674 1_544
Mn5 O17 2.195750 1_554
Mn5 O4 2.195750 1_545
Al0 O5 1.815868 1_555
Al0 O12 1.904487 1_555
Al0 O11 1.929042 1_455
Al0 O2 1.935243 1_555
Al0 O7 1.944334 1_555
Al0 O0 2.087700 1_555
Al1 O19 1.897986 1_555
Al1 O6 1.897986 1_545
Al1 O21 1.923036 1_555
Al1 O2 1.923036 1_545
Al1 O22 1.975080 1_555
Al1 O0 1.975080 1_545
Al2 O18 1.815868 1_555
Al2 O11 1.904487 1_555
Al2 O12 1.929042 1_655
Al2 O21 1.935243 1_555
Al2 O15 1.944334 1_555
Al2 O22 2.087700 1_555
Al3 O19 1.897427 1_555
Al3 O6 1.897427 1_445
Al3 O15 1.912864 1_455
Al3 O7 1.912864 1_545
Al3 O0 1.960712 1_545
Al3 O22 1.960712 1_455
H0 O0 1.003852 1_555
H0 O1 1.657755 1_555
H1 O2 0.980389 1_555
H2 O6 0.988457 1_555
H2 O4 1.752145 1_555
H3 O5 0.972022 1_555
H4 O7 0.978924 1_555
H5 O11 0.981258 1_555
H6 O12 0.981258 1_555
H7 O15 0.978924 1_555
H8 O19 0.988457 1_555
H8 O17 1.752145 1_555
H9 O18 0.972022 1_555
H10 O21 0.980389 1_555
H11 O22 1.003852 1_555
H11 O23 1.657755 1_555
