# generated using pymatgen
data_Li6Ti15Co3O32
_symmetry_space_group_name_H-M   'P 1'
_cell_length_a   8.47032534
_cell_length_b   8.46934689
_cell_length_c   8.46895131
_cell_angle_alpha   90.12966480
_cell_angle_beta   90.12310582
_cell_angle_gamma   89.86966300
_symmetry_Int_Tables_number   1
_chemical_formula_structural   Li6Ti15Co3O32
_chemical_formula_sum   'Li6 Ti15 Co3 O32'
_cell_volume   607.54215232
_cell_formula_units_Z   1
loop_
 _symmetry_equiv_pos_site_id
 _symmetry_equiv_pos_as_xyz
  1  'x, y, z'
loop_
 _atom_site_type_symbol
 _atom_site_label
 _atom_site_symmetry_multiplicity
 _atom_site_fract_x
 _atom_site_fract_y
 _atom_site_fract_z
 _atom_site_occupancy
  Li  Li0  1  0.24871700  0.74866500  0.75099600  1
  Li  Li1  1  0.25152600  0.25209700  0.24989900  1
  Li  Li2  1  0.50119200  0.00132300  0.49894400  1
  Li  Li3  1  0.75029500  0.75164800  0.24799200  1
  Li  Li4  1  0.75211700  0.25031700  0.74826700  1
  Li  Li5  1  0.87540700  0.37509400  0.12437700  1
  Ti  Ti0  1  0.11674000  0.61821200  0.12548100  1
  Ti  Ti1  1  0.11854700  0.37462100  0.88344000  1
  Ti  Ti2  1  0.12570600  0.87766900  0.37699900  1
  Ti  Ti3  1  0.12616400  0.12207700  0.62179200  1
  Ti  Ti4  1  0.37760500  0.87810400  0.12613100  1
  Ti  Ti5  1  0.37751600  0.12307700  0.87450900  1
  Ti  Ti6  1  0.37813800  0.62625300  0.37786800  1
  Ti  Ti7  1  0.37796400  0.37408600  0.62228300  1
  Ti  Ti8  1  0.62196700  0.87842000  0.87375300  1
  Ti  Ti9  1  0.62734000  0.12864000  0.12487200  1
  Ti  Ti10  1  0.62308600  0.62560600  0.62223200  1
  Ti  Ti11  1  0.62868600  0.37543400  0.37267500  1
  Ti  Ti12  1  0.87479900  0.61638100  0.88192000  1
  Ti  Ti13  1  0.87402300  0.87737900  0.62179400  1
  Ti  Ti14  1  0.87503700  0.12729900  0.37160600  1
  Co  Co0  1  0.99955400  0.49801700  0.50014600  1
  Co  Co1  1  0.49971300  0.49976500  0.00181600  1
  Co  Co2  1  0.99802100  0.99928200  0.00043400  1
  O  O0  1  0.11351500  0.11355700  0.38622100  1
  O  O1  1  0.11245300  0.61253000  0.88750000  1
  O  O2  1  0.11337500  0.88648600  0.61313500  1
  O  O3  1  0.13370700  0.13493500  0.86583300  1
  O  O4  1  0.12607200  0.39118500  0.10926500  1
  O  O5  1  0.13423600  0.63378300  0.36518200  1
  O  O6  1  0.13805400  0.36428600  0.63723600  1
  O  O7  1  0.13721500  0.86319700  0.13495800  1
  O  O8  1  0.36232700  0.13735700  0.63807200  1
  O  O9  1  0.36277800  0.63813000  0.13568200  1
  O  O10  1  0.36334400  0.36522700  0.86289100  1
  O  O11  1  0.38712000  0.61344100  0.61365500  1
  O  O12  1  0.36198600  0.86252200  0.36290000  1
  O  O13  1  0.38777200  0.11137500  0.11288900  1
  O  O14  1  0.38857000  0.38769400  0.38945300  1
  O  O15  1  0.38644100  0.88691500  0.88664500  1
  O  O16  1  0.61140400  0.38721200  0.61203700  1
  O  O17  1  0.61043500  0.88861000  0.11239700  1
  O  O18  1  0.61375100  0.61378200  0.38629400  1
  O  O19  1  0.62407600  0.36121600  0.13947000  1
  O  O20  1  0.61356900  0.11387000  0.88647800  1
  O  O21  1  0.63738100  0.86202400  0.63753000  1
  O  O22  1  0.63771300  0.13786700  0.36240700  1
  O  O23  1  0.63516300  0.63436500  0.86613000  1
  O  O24  1  0.86135600  0.36043000  0.37529200  1
  O  O25  1  0.86405700  0.86272500  0.86173300  1
  O  O26  1  0.86024700  0.12385400  0.13884400  1
  O  O27  1  0.88726600  0.88767600  0.38863300  1
  O  O28  1  0.86519700  0.63706000  0.63669800  1
  O  O29  1  0.89125400  0.39078700  0.87421800  1
  O  O30  1  0.88754700  0.11047100  0.61134300  1
  O  O31  1  0.89075100  0.62598400  0.10877600  1
loop_
_geom_bond_atom_site_label_1
_geom_bond_atom_site_label_2
_geom_bond_distance
_geom_bond_site_symmetry_2
Li0 O1 2.003944 1_555
Li0 O11 2.008121 1_555
Li0 O2 2.008524 1_555
Li0 O15 2.011461 1_555
Li1 O4 1.982573 1_555
Li1 O14 2.014248 1_555
Li1 O13 2.022838 1_555
Li1 O0 2.023448 1_555
Li2 O22 2.007369 1_555
Li2 O8 2.023082 1_555
Li2 O12 2.023373 1_545
Li2 O21 2.023450 1_545
Li3 O31 1.983125 1_555
Li3 O17 2.015342 1_555
Li3 O27 2.021363 1_555
Li3 O18 2.022638 1_555
Li4 O29 1.984271 1_555
Li4 O30 2.014133 1_555
Li4 O16 2.022317 1_555
Li4 O20 2.025076 1_555
Li5 O29 2.127595 1_554
Li5 O4 2.132030 1_655
Li5 O24 2.132488 1_555
Li5 O31 2.133551 1_555
Li5 O26 2.135811 1_555
Li5 O19 2.136482 1_555
Co0 O24 1.959972 1_555
Co0 O5 1.986846 1_655
Co0 O6 2.000267 1_655
Co0 O28 2.003167 1_555
Co1 O19 1.959821 1_555
Co1 O23 1.988434 1_554
Co1 O9 1.999332 1_555
Co1 O10 2.002729 1_554
Co2 O26 1.960532 1_565
Co2 O3 1.989437 1_664
Co2 O25 1.999773 1_554
Co2 O7 2.002598 1_655
O0 Ti3 1.998833 1_555
O0 Ti2 2.001606 1_545
O0 Ti14 2.026606 1_455
O1 Ti12 2.013652 1_455
O1 Ti1 2.015695 1_555
O1 Ti0 2.016166 1_556
O2 Ti3 1.999657 1_565
O2 Ti2 2.003988 1_555
O2 Ti13 2.030520 1_455
O3 Ti1 2.038893 1_555
O3 Ti5 2.068510 1_555
O3 Ti3 2.070249 1_555
O4 Ti1 1.918256 1_554
O4 Ti0 1.928812 1_555
O5 Ti0 2.039094 1_555
O5 Ti2 2.068857 1_555
O5 Ti6 2.069336 1_555
O6 Ti7 2.038220 1_555
O6 Ti3 2.057903 1_555
O6 Ti1 2.093597 1_555
O7 Ti4 2.041918 1_555
O7 Ti2 2.055726 1_555
O7 Ti0 2.083842 1_555
O8 Ti3 2.009273 1_555
O8 Ti5 2.010124 1_555
O8 Ti7 2.014375 1_555
O9 Ti4 2.038384 1_555
O9 Ti6 2.057578 1_555
O9 Ti0 2.092804 1_555
O10 Ti7 2.043280 1_555
O10 Ti5 2.056655 1_555
O10 Ti1 2.082498 1_555
O11 Ti6 2.001334 1_555
O11 Ti10 2.002750 1_555
O11 Ti7 2.030326 1_555
O12 Ti2 2.008975 1_555
O12 Ti6 2.009675 1_555
O12 Ti4 2.014473 1_555
O13 Ti4 1.981165 1_545
O13 Ti5 2.023154 1_554
O13 Ti9 2.037108 1_555
O14 Ti7 1.977698 1_555
O14 Ti6 2.024761 1_555
O14 Ti11 2.041513 1_555
O15 Ti8 1.999324 1_555
O15 Ti5 2.004255 1_565
O15 Ti4 2.031283 1_556
O16 Ti7 1.982785 1_555
O16 Ti10 2.023328 1_555
O16 Ti11 2.034942 1_555
O17 Ti4 1.978038 1_555
O17 Ti8 2.025268 1_554
O17 Ti9 2.040741 1_565
O18 Ti6 1.999401 1_555
O18 Ti10 2.001830 1_555
O18 Ti11 2.025366 1_555
O19 Ti9 1.973498 1_555
O19 Ti11 1.978704 1_555
O20 Ti8 1.997887 1_545
O20 Ti5 2.003146 1_555
O20 Ti9 2.025664 1_556
O21 Ti8 2.009566 1_555
O21 Ti10 2.010109 1_555
O21 Ti13 2.013664 1_555
O22 Ti14 2.013348 1_555
O22 Ti9 2.014749 1_555
O22 Ti11 2.015004 1_555
O23 Ti12 2.039281 1_555
O23 Ti10 2.069043 1_555
O23 Ti8 2.070621 1_555
O24 Ti11 1.974675 1_555
O24 Ti14 1.977782 1_555
O25 Ti13 2.038040 1_555
O25 Ti8 2.057307 1_555
O25 Ti12 2.095505 1_555
O26 Ti14 1.975112 1_555
O26 Ti9 1.976419 1_555
O27 Ti13 1.980183 1_555
O27 Ti2 2.023851 1_655
O27 Ti14 2.037277 1_565
O28 Ti13 2.041089 1_555
O28 Ti10 2.056649 1_555
O28 Ti12 2.085936 1_555
O29 Ti12 1.916368 1_555
O29 Ti1 1.931222 1_655
O30 Ti13 1.979908 1_545
O30 Ti3 2.025510 1_655
O30 Ti14 2.038151 1_555
O31 Ti0 1.920108 1_655
O31 Ti12 1.927235 1_554
