# generated using pymatgen
data_RbMgH12(ClO2)3
_symmetry_space_group_name_H-M   'P 1'
_cell_length_a   6.62072600
_cell_length_b   6.73152029
_cell_length_c   13.52300627
_cell_angle_alpha   89.51897763
_cell_angle_beta   88.09738305
_cell_angle_gamma   87.93457868
_symmetry_Int_Tables_number   1
_chemical_formula_structural   RbMgH12(ClO2)3
_chemical_formula_sum   'Rb2 Mg2 H24 Cl6 O12'
_cell_volume   601.94804683
_cell_formula_units_Z   2
loop_
 _symmetry_equiv_pos_site_id
 _symmetry_equiv_pos_as_xyz
  1  'x, y, z'
loop_
 _atom_site_type_symbol
 _atom_site_label
 _atom_site_symmetry_multiplicity
 _atom_site_fract_x
 _atom_site_fract_y
 _atom_site_fract_z
 _atom_site_occupancy
  Rb  Rb0  1  0.98447300  0.02121400  0.99092600  1
  Rb  Rb1  1  0.00958800  0.00914000  0.49667500  1
  Mg  Mg0  1  0.49889500  0.52435200  0.75484600  1
  Mg  Mg1  1  0.50293400  0.51748000  0.24398900  1
  H  H0  1  0.56686500  0.86077300  0.13918200  1
  H  H1  1  0.28993800  0.87374600  0.72014700  1
  H  H2  1  0.45585500  0.87022800  0.63351700  1
  H  H3  1  0.73103700  0.85878100  0.22134800  1
  H  H4  1  0.46488300  0.74886900  0.41755400  1
  H  H5  1  0.17518500  0.74996700  0.19847700  1
  H  H6  1  0.83582000  0.75035500  0.77416400  1
  H  H7  1  0.43382700  0.71406600  0.92955200  1
  H  H8  1  0.31296200  0.57181000  0.42428900  1
  H  H9  1  0.84353700  0.57599500  0.85423300  1
  H  H10  1  0.08898700  0.54462200  0.22232900  1
  H  H11  1  0.25399800  0.56403500  0.92711100  1
  H  H12  1  0.70066100  0.45493000  0.06386300  1
  H  H13  1  0.74274500  0.47948900  0.57991100  1
  H  H14  1  0.84464100  0.45986300  0.35893400  1
  H  H15  1  0.16348400  0.46607900  0.64691300  1
  H  H16  1  0.12462100  0.33870000  0.74283100  1
  H  H17  1  0.85527200  0.30008700  0.27326300  1
  H  H18  1  0.53060700  0.29452600  0.07002500  1
  H  H19  1  0.59865400  0.29901400  0.59133900  1
  H  H20  1  0.70894800  0.16605700  0.78170400  1
  H  H21  1  0.44091200  0.17009000  0.34919900  1
  H  H22  1  0.53142800  0.16371700  0.86293100  1
  H  H23  1  0.27543200  0.17351800  0.26703400  1
  Cl  Cl0  1  0.47638800  0.00483300  0.00460200  1
  Cl  Cl1  1  0.97285900  0.50696100  0.98706500  1
  Cl  Cl2  1  0.01493100  0.51406000  0.49380000  1
  Cl  Cl3  1  0.51622700  0.02639300  0.49131200  1
  Cl  Cl4  1  0.99206300  0.01918600  0.74292100  1
  Cl  Cl5  1  0.99954400  0.02485700  0.23961800  1
  O  O0  1  0.60713100  0.79396200  0.20123200  1
  O  O1  1  0.41740200  0.80586800  0.69666900  1
  O  O2  1  0.43146500  0.62177000  0.38693400  1
  O  O3  1  0.77312700  0.62539000  0.79427900  1
  O  O4  1  0.21238700  0.60728800  0.19685700  1
  O  O5  1  0.38242200  0.60124800  0.89309000  1
  O  O6  1  0.80198500  0.43587300  0.29076900  1
  O  O7  1  0.62279300  0.43195600  0.61716100  1
  O  O8  1  0.58329400  0.40952500  0.10448100  1
  O  O9  1  0.21340500  0.43886100  0.71322100  1
  O  O10  1  0.39045600  0.24641600  0.29209400  1
  O  O11  1  0.58478700  0.23930800  0.80590700  1
loop_
_geom_bond_atom_site_label_1
_geom_bond_atom_site_label_2
_geom_bond_distance
_geom_bond_site_symmetry_2
Mg0 O3 2.050072 1_555
Mg0 O5 2.061377 1_555
Mg0 O9 2.091697 1_555
Mg0 O11 2.099300 1_555
Mg0 O7 2.099453 1_555
Mg0 O1 2.104909 1_555
Mg1 O8 2.073355 1_555
Mg1 O0 2.078960 1_555
Mg1 O10 2.086388 1_555
Mg1 O2 2.095594 1_555
Mg1 O4 2.112626 1_555
Mg1 O6 2.149661 1_555
H0 O0 0.988587 1_555
H1 O1 0.989244 1_555
H2 O1 0.984448 1_555
H3 O0 0.989932 1_555
H4 O2 0.988982 1_555
H5 O4 0.983131 1_555
H6 O3 0.983734 1_555
H7 O5 0.985778 1_555
H8 O2 0.986757 1_555
H9 O3 0.997294 1_555
H10 O4 0.983768 1_555
H11 O5 0.992369 1_555
H12 O8 0.992420 1_555
H13 O7 0.987865 1_555
H14 O6 0.989251 1_555
H15 O9 0.979492 1_555
H16 O9 0.984306 1_555
H17 O6 0.995406 1_555
H18 O8 0.987097 1_555
H19 O7 0.983660 1_555
H20 O11 0.990774 1_555
H21 O10 0.984891 1_555
H22 O11 0.983186 1_555
H23 O10 0.991190 1_555
Cl0 Rb0 3.266053 1_454
Cl0 Rb0 3.368563 1_554
Cl1 H11 2.053204 1_655
Cl1 H9 2.057940 1_555
Cl1 H12 2.089040 1_556
Cl1 Rb0 3.267967 1_555
Cl1 Rb0 3.466197 1_565
Cl2 Rb1 3.332093 1_565
Cl2 Rb1 3.400220 1_555
Cl3 Rb1 3.267478 1_655
Cl3 Rb1 3.358866 1_555
Cl4 Rb1 3.329325 1_655
Cl4 Rb0 3.352616 1_555
Cl5 Rb0 3.368174 1_554
Cl5 Rb1 3.479674 1_655
