# generated using pymatgen
data_ZrH7CN4F5
_symmetry_space_group_name_H-M   'P 1'
_cell_length_a   6.75764600
_cell_length_b   7.00543600
_cell_length_c   16.43293200
_cell_angle_alpha   90.00000000
_cell_angle_beta   90.00000000
_cell_angle_gamma   90.00000000
_symmetry_Int_Tables_number   1
_chemical_formula_structural   ZrH7CN4F5
_chemical_formula_sum   'Zr4 H28 C4 N16 F20'
_cell_volume   777.93921697
_cell_formula_units_Z   4
loop_
 _symmetry_equiv_pos_site_id
 _symmetry_equiv_pos_as_xyz
  1  'x, y, z'
loop_
 _atom_site_type_symbol
 _atom_site_label
 _atom_site_symmetry_multiplicity
 _atom_site_fract_x
 _atom_site_fract_y
 _atom_site_fract_z
 _atom_site_occupancy
  Zr  Zr0  1  0.56114200  0.25000000  0.29204500  1
  Zr  Zr1  1  0.06114200  0.25000000  0.20795500  1
  Zr  Zr2  1  0.43885800  0.75000000  0.70795500  1
  Zr  Zr3  1  0.93885800  0.75000000  0.79204500  1
  H  H0  1  0.57107900  0.25000000  0.82312200  1
  H  H1  1  0.07107900  0.25000000  0.67687800  1
  H  H2  1  0.42892100  0.75000000  0.17687800  1
  H  H3  1  0.92892100  0.75000000  0.32312200  1
  H  H4  1  0.74367600  0.36634800  0.65117500  1
  H  H5  1  0.24367600  0.13365200  0.84882500  1
  H  H6  1  0.25632400  0.86634800  0.34882500  1
  H  H7  1  0.75632400  0.63365200  0.15117500  1
  H  H8  1  0.25632400  0.63365200  0.34882500  1
  H  H9  1  0.75632400  0.86634800  0.15117500  1
  H  H10  1  0.74367600  0.13365200  0.65117500  1
  H  H11  1  0.24367600  0.36634800  0.84882500  1
  H  H12  1  0.86957000  0.25000000  0.88632600  1
  H  H13  1  0.36957000  0.25000000  0.61367400  1
  H  H14  1  0.13043000  0.75000000  0.11367400  1
  H  H15  1  0.63043000  0.75000000  0.38632600  1
  H  H16  1  0.89203300  0.25000000  0.99246600  1
  H  H17  1  0.39203300  0.25000000  0.50753400  1
  H  H18  1  0.10796700  0.75000000  0.00753400  1
  H  H19  1  0.60796700  0.75000000  0.49246600  1
  H  H20  1  0.58969300  0.25000000  0.07163700  1
  H  H21  1  0.08969300  0.25000000  0.42836300  1
  H  H22  1  0.41030700  0.75000000  0.92836300  1
  H  H23  1  0.91030700  0.75000000  0.57163700  1
  H  H24  1  0.36234800  0.25000000  0.01929300  1
  H  H25  1  0.86234800  0.25000000  0.48070700  1
  H  H26  1  0.63765200  0.75000000  0.98070700  1
  H  H27  1  0.13765200  0.75000000  0.51929300  1
  C  C0  1  0.60659000  0.25000000  0.94711300  1
  C  C1  1  0.10659000  0.25000000  0.55288700  1
  C  C2  1  0.39341000  0.75000000  0.05288700  1
  C  C3  1  0.89341000  0.75000000  0.44711300  1
  N  N0  1  0.50089100  0.25000000  0.87797700  1
  N  N1  1  0.00089100  0.25000000  0.62202300  1
  N  N2  1  0.49910900  0.75000000  0.12202300  1
  N  N3  1  0.99910900  0.75000000  0.37797700  1
  N  N4  1  0.79378400  0.25000000  0.61965100  1
  N  N5  1  0.29378400  0.25000000  0.88034900  1
  N  N6  1  0.20621600  0.75000000  0.38034900  1
  N  N7  1  0.70621600  0.75000000  0.11965100  1
  N  N8  1  0.80409700  0.25000000  0.94198600  1
  N  N9  1  0.30409700  0.25000000  0.55801400  1
  N  N10  1  0.19590300  0.75000000  0.05801400  1
  N  N11  1  0.69590300  0.75000000  0.44198600  1
  N  N12  1  0.51340800  0.25000000  0.01862300  1
  N  N13  1  0.01340800  0.25000000  0.48137700  1
  N  N14  1  0.48659200  0.75000000  0.98137700  1
  N  N15  1  0.98659200  0.75000000  0.51862300  1
  F  F0  1  0.87028800  0.25000000  0.31673600  1
  F  F1  1  0.37028800  0.25000000  0.18326400  1
  F  F2  1  0.12971200  0.75000000  0.68326400  1
  F  F3  1  0.62971200  0.75000000  0.81673600  1
  F  F4  1  0.74724200  0.25000000  0.17960500  1
  F  F5  1  0.24724200  0.25000000  0.32039500  1
  F  F6  1  0.25275800  0.75000000  0.82039500  1
  F  F7  1  0.75275800  0.75000000  0.67960500  1
  F  F8  1  0.56112200  0.25000000  0.41415000  1
  F  F9  1  0.06112200  0.25000000  0.08585000  1
  F  F10  1  0.43887800  0.75000000  0.58585000  1
  F  F11  1  0.93887800  0.75000000  0.91415000  1
  F  F12  1  0.55373400  0.53674700  0.28264400  1
  F  F13  1  0.05373400  0.96325300  0.21735600  1
  F  F14  1  0.44626600  0.03674700  0.71735600  1
  F  F15  1  0.94626600  0.46325300  0.78264400  1
  F  F16  1  0.44626600  0.46325300  0.71735600  1
  F  F17  1  0.94626600  0.03674700  0.78264400  1
  F  F18  1  0.55373400  0.96325300  0.28264400  1
  F  F19  1  0.05373400  0.53674700  0.21735600  1
loop_
_geom_bond_atom_site_label_1
_geom_bond_atom_site_label_2
_geom_bond_distance
_geom_bond_site_symmetry_2
H0 N0 1.018597 1_555
H1 N1 1.018597 1_555
H2 N2 1.018597 1_555
H3 N3 1.018597 1_555
H4 N4 1.023402 1_555
H5 N5 1.023402 1_555
H6 N6 1.023402 1_555
H7 N7 1.023402 1_555
H8 N6 1.023402 1_555
H9 N7 1.023402 1_555
H10 N4 1.023402 1_555
H11 N5 1.023402 1_555
H12 N8 1.016048 1_555
H13 N9 1.016048 1_555
H14 N10 1.016048 1_555
H15 N11 1.016048 1_555
H16 N8 1.020416 1_555
H17 N9 1.020416 1_555
H18 N10 1.020416 1_555
H19 N11 1.020416 1_555
H20 N12 1.012272 1_555
H21 N13 1.012272 1_555
H22 N14 1.012272 1_555
H23 N15 1.012272 1_555
H24 N12 1.020869 1_555
H25 N13 1.020869 1_655
H26 N14 1.020869 1_555
H27 N15 1.020869 1_455
C0 N12 1.333197 1_556
C0 N8 1.337339 1_555
C0 N0 1.341987 1_555
C1 N13 1.333197 1_555
C1 N9 1.337339 1_555
C1 N1 1.341987 1_555
C2 N14 1.333197 1_554
C2 N10 1.337339 1_555
C2 N2 1.341987 1_555
C3 N15 1.333197 1_555
C3 N11 1.337339 1_555
C3 N3 1.341987 1_555
N0 N5 1.400098 1_555
N1 N4 1.400098 1_455
N2 N7 1.400098 1_555
N3 N6 1.400098 1_655
F0 Zr0 2.128137 1_555
F0 Zr1 2.204284 1_655
F1 Zr1 2.128137 1_555
F1 Zr0 2.204284 1_555
F2 Zr2 2.128137 1_555
F2 Zr3 2.204284 1_455
F3 Zr3 2.128137 1_555
F3 Zr2 2.204284 1_555
F4 Zr1 2.171781 1_655
F4 Zr0 2.235088 1_555
F5 Zr0 2.171781 1_555
F5 Zr1 2.235088 1_555
F6 Zr3 2.171781 1_455
F6 Zr2 2.235088 1_555
F7 Zr2 2.171781 1_555
F7 Zr3 2.235088 1_555
F8 Zr0 2.006543 1_555
F9 Zr1 2.006543 1_555
F10 Zr2 2.006543 1_555
F11 Zr3 2.006543 1_555
F12 Zr0 2.015341 1_555
F13 Zr1 2.015341 1_565
F14 Zr2 2.015341 1_545
F15 Zr3 2.015341 1_555
F16 Zr2 2.015341 1_555
F17 Zr3 2.015341 1_545
F18 Zr0 2.015341 1_565
F19 Zr1 2.015341 1_555
