# generated using pymatgen
data_Fe2CuO4
_symmetry_space_group_name_H-M   'P 1'
_cell_length_a   5.91298585
_cell_length_b   5.91297117
_cell_length_c   5.91282995
_cell_angle_alpha   119.65944999
_cell_angle_beta   119.65924351
_cell_angle_gamma   90.58389376
_symmetry_Int_Tables_number   1
_chemical_formula_structural   Fe2CuO4
_chemical_formula_sum   'Fe4 Cu2 O8'
_cell_volume   146.93518114
_cell_formula_units_Z   2
loop_
 _symmetry_equiv_pos_site_id
 _symmetry_equiv_pos_as_xyz
  1  'x, y, z'
loop_
 _atom_site_type_symbol
 _atom_site_label
 _atom_site_symmetry_multiplicity
 _atom_site_fract_x
 _atom_site_fract_y
 _atom_site_fract_z
 _atom_site_occupancy
  Fe  Fe0  1  0.87499983  0.62499648  0.24999593  1
  Fe  Fe1  1  0.37499819  0.12500086  0.74999886  1
  Fe  Fe2  1  0.37500288  0.62499949  0.25000097  1
  Fe  Fe3  1  0.37500009  0.62500185  0.75000338  1
  Cu  Cu0  1  -0.00000695  0.00000561  0.99999373  1
  Cu  Cu1  1  0.75000600  0.24999434  0.50000628  1
  O  O0  1  0.61226296  0.38331327  0.22895527  1
  O  O1  1  0.61663274  0.84567857  0.22895999  1
  O  O2  1  0.61667665  0.38773278  0.77103573  1
  O  O3  1  0.13337412  0.40432340  0.27104603  1
  O  O4  1  0.13773948  0.86668491  0.27104457  1
  O  O5  1  0.15431900  0.38336778  0.77104056  1
  O  O6  1  0.59567766  0.86663360  0.72896084  1
  O  O7  1  0.13331836  0.86226605  0.72895787  1
loop_
_geom_bond_atom_site_label_1
_geom_bond_atom_site_label_2
_geom_bond_distance
_geom_bond_site_symmetry_2
Fe0 O0 2.014637 1_555
Fe0 O4 2.014639 1_655
Fe0 O2 2.016102 1_554
Fe0 O7 2.016107 1_655
Fe0 O3 2.016262 1_655
Fe0 O1 2.016267 1_555
Fe1 O2 2.014612 1_555
Fe1 O7 2.014613 1_545
Fe1 O4 2.016075 1_545
Fe1 O0 2.016082 1_556
Fe1 O5 2.016254 1_555
Fe1 O6 2.016256 1_545
Fe2 O1 2.014470 1_555
Fe2 O3 2.014471 1_555
Fe2 O0 2.015831 1_555
Fe2 O4 2.015842 1_555
Fe2 O5 2.016064 1_554
Fe2 O6 2.016064 1_555
Fe3 O6 2.014478 1_555
Fe3 O5 2.014479 1_555
Fe3 O2 2.015827 1_555
Fe3 O7 2.015831 1_555
Fe3 O1 2.016050 1_556
Fe3 O3 2.016053 1_555
Cu0 O6 1.955682 1_445
Cu0 O3 1.955685 1_556
Cu0 O7 1.955710 1_545
Cu0 O4 1.955763 1_546
Cu1 O5 1.955670 1_655
Cu1 O1 1.955676 1_545
Cu1 O2 1.955698 1_555
Cu1 O0 1.955755 1_555
