# generated using pymatgen
data_Li4Bi2C4SO16
_symmetry_space_group_name_H-M   'P 1'
_cell_length_a   10.29571136
_cell_length_b   10.05380480
_cell_length_c   9.59276912
_cell_angle_alpha   63.15678721
_cell_angle_beta   60.60789405
_cell_angle_gamma   56.23531874
_symmetry_Int_Tables_number   1
_chemical_formula_structural   Li4Bi2C4SO16
_chemical_formula_sum   'Li8 Bi4 C8 S2 O32'
_cell_volume   696.96635817
_cell_formula_units_Z   2
loop_
 _symmetry_equiv_pos_site_id
 _symmetry_equiv_pos_as_xyz
  1  'x, y, z'
loop_
 _atom_site_type_symbol
 _atom_site_label
 _atom_site_symmetry_multiplicity
 _atom_site_fract_x
 _atom_site_fract_y
 _atom_site_fract_z
 _atom_site_occupancy
  Li  Li0  1  0.93993700  0.56006300  0.93993700  1
  Li  Li1  1  0.94785500  0.55214500  0.55214500  1
  Li  Li2  1  0.69785500  0.30214500  0.30214500  1
  Li  Li3  1  0.68993700  0.31006300  0.68993700  1
  Li  Li4  1  0.56006300  0.93993700  0.56006300  1
  Li  Li5  1  0.55214500  0.94785500  0.94785500  1
  Li  Li6  1  0.30214500  0.69785500  0.69785500  1
  Li  Li7  1  0.31006300  0.68993700  0.31006300  1
  Bi  Bi0  1  0.12500000  0.62500000  0.12500000  1
  Bi  Bi1  1  0.62500000  0.12500000  0.12500000  1
  Bi  Bi2  1  0.12500000  0.12500000  0.12500000  1
  Bi  Bi3  1  0.12500000  0.12500000  0.62500000  1
  C  C0  1  0.87468100  0.30587900  0.91698600  1
  C  C1  1  0.94412100  0.37531900  0.34754500  1
  C  C2  1  0.91698600  0.90245500  0.87468100  1
  C  C3  1  0.90245500  0.91698600  0.30587900  1
  C  C4  1  0.34754500  0.33301400  0.94412100  1
  C  C5  1  0.33301400  0.34754500  0.37531900  1
  C  C6  1  0.30587900  0.87468100  0.90245500  1
  C  C7  1  0.37531900  0.94412100  0.33301400  1
  S  S0  1  0.50000000  0.50000000  0.50000000  1
  S  S1  1  0.75000000  0.75000000  0.75000000  1
  O  O0  1  0.99864400  0.31254800  0.91452900  1
  O  O1  1  0.55706600  0.55038000  0.31534400  1
  O  O2  1  0.75633400  0.29332700  0.05332800  1
  O  O3  1  0.95667300  0.49366600  0.35299000  1
  O  O4  1  0.05332800  0.89701000  0.75633400  1
  O  O5  1  0.94280700  0.37548600  0.21215500  1
  O  O6  1  0.31534400  0.57720900  0.55706600  1
  O  O7  1  0.55038000  0.55706600  0.57720900  1
  O  O8  1  0.46955100  0.21215500  0.37548600  1
  O  O9  1  0.89701000  0.05332800  0.29332700  1
  O  O10  1  0.93745200  0.25135600  0.47572100  1
  O  O11  1  0.57720900  0.31534400  0.55038000  1
  O  O12  1  0.91452900  0.77427900  0.99864400  1
  O  O13  1  0.77427900  0.91452900  0.31254800  1
  O  O14  1  0.87451400  0.30719300  0.78044900  1
  O  O15  1  0.21215500  0.46955100  0.94280700  1
  O  O16  1  0.03784500  0.78044900  0.30719300  1
  O  O17  1  0.37548600  0.94280700  0.46955100  1
  O  O18  1  0.47572100  0.33547100  0.93745200  1
  O  O19  1  0.33547100  0.47572100  0.25135600  1
  O  O20  1  0.67279100  0.93465600  0.69962000  1
  O  O21  1  0.31254800  0.99864400  0.77427900  1
  O  O22  1  0.35299000  0.19667200  0.95667300  1
  O  O23  1  0.78044900  0.03784500  0.87451400  1
  O  O24  1  0.69962000  0.69293400  0.67279100  1
  O  O25  1  0.93465600  0.67279100  0.69293400  1
  O  O26  1  0.30719300  0.87451400  0.03784500  1
  O  O27  1  0.19667200  0.35299000  0.49366600  1
  O  O28  1  0.29332700  0.75633400  0.89701000  1
  O  O29  1  0.49366600  0.95667300  0.19667200  1
  O  O30  1  0.69293400  0.69962000  0.93465600  1
  O  O31  1  0.25135600  0.93745200  0.33547100  1
loop_
_geom_bond_atom_site_label_1
_geom_bond_atom_site_label_2
_geom_bond_distance
_geom_bond_site_symmetry_2
Li0 O30 2.129427 1_555
Li0 O25 2.129427 1_555
Li0 O0 2.312671 1_555
Li0 O12 2.312671 1_555
Li0 O15 2.429405 1_655
Li0 O5 2.429408 1_556
Li1 O24 2.104697 1_555
Li1 O25 2.104703 1_555
Li1 O3 2.188270 1_555
Li1 O27 2.188276 1_655
Li2 O11 2.104695 1_555
Li2 O1 2.104695 1_555
Li2 O9 2.188276 1_555
Li2 O2 2.188279 1_555
Li3 O7 2.129430 1_555
Li3 O11 2.129436 1_555
Li3 O18 2.312671 1_555
Li3 O10 2.312671 1_555
Li3 O23 2.429409 1_555
Li3 O14 2.429415 1_555
Li4 O24 2.129430 1_555
Li4 O20 2.129436 1_555
Li4 O13 2.312671 1_555
Li4 O21 2.312671 1_555
Li4 O8 2.429409 1_565
Li4 O17 2.429415 1_555
Li5 O20 2.104695 1_555
Li5 O30 2.104695 1_555
Li5 O22 2.188276 1_565
Li5 O29 2.188279 1_556
Li6 O7 2.104697 1_555
Li6 O6 2.104703 1_555
Li6 O28 2.188270 1_555
Li6 O4 2.188276 1_555
Li7 O1 2.129427 1_555
Li7 O6 2.129427 1_555
Li7 O31 2.312671 1_555
Li7 O19 2.312671 1_555
Li7 O16 2.429405 1_555
Li7 O26 2.429408 1_555
Bi0 O16 2.381353 1_555
Bi0 O15 2.381353 1_554
Bi0 O19 2.395321 1_555
Bi0 O12 2.395321 1_454
Bi0 O28 2.396952 1_554
Bi0 O3 2.396952 1_455
Bi1 O8 2.381345 1_555
Bi1 O23 2.381345 1_554
Bi1 O13 2.395321 1_545
Bi1 O18 2.395321 1_554
Bi1 O2 2.396949 1_555
Bi1 O29 2.396949 1_545
Bi2 O5 2.381345 1_455
Bi2 O26 2.381345 1_545
Bi2 O31 2.395321 1_545
Bi2 O0 2.395321 1_454
Bi2 O22 2.396957 1_554
Bi2 O9 2.396957 1_455
Bi3 O17 2.381349 1_545
Bi3 O14 2.381349 1_455
Bi3 O21 2.395321 1_545
Bi3 O10 2.395321 1_455
Bi3 O27 2.396958 1_555
Bi3 O4 2.396958 1_545
C0 O2 1.291816 1_556
C0 O0 1.303122 1_555
C0 O14 1.304695 1_555
C1 O3 1.291826 1_555
C1 O10 1.303127 1_555
C1 O5 1.304695 1_555
C2 O4 1.291813 1_655
C2 O12 1.303128 1_555
C2 O23 1.304695 1_565
C3 O9 1.291806 1_565
C3 O13 1.303132 1_555
C3 O16 1.304695 1_655
C4 O22 1.291806 1_555
C4 O18 1.303132 1_555
C4 O15 1.304695 1_555
C5 O27 1.291813 1_555
C5 O19 1.303128 1_555
C5 O8 1.304695 1_555
C6 O28 1.291826 1_555
C6 O21 1.303127 1_555
C6 O26 1.304695 1_556
C7 O29 1.291816 1_555
C7 O31 1.303122 1_555
C7 O17 1.304695 1_555
O1 S0 1.496142 1_555
O6 S0 1.496142 1_555
O7 S0 1.496134 1_555
O11 S0 1.496142 1_555
O20 S1 1.496142 1_555
O24 S1 1.496134 1_555
O25 S1 1.496142 1_555
O30 S1 1.496142 1_555
