# generated using pymatgen
data_Li4V3P8O29
_symmetry_space_group_name_H-M   'P 1'
_cell_length_a   9.80166786
_cell_length_b   9.80166786
_cell_length_c   14.10619946
_cell_angle_alpha   89.96518687
_cell_angle_beta   89.96518687
_cell_angle_gamma   59.74016782
_symmetry_Int_Tables_number   1
_chemical_formula_structural   Li4V3P8O29
_chemical_formula_sum   'Li8 V6 P16 O58'
_cell_volume   1170.57018187
_cell_formula_units_Z   2
loop_
 _symmetry_equiv_pos_site_id
 _symmetry_equiv_pos_as_xyz
  1  'x, y, z'
loop_
 _atom_site_type_symbol
 _atom_site_label
 _atom_site_symmetry_multiplicity
 _atom_site_fract_x
 _atom_site_fract_y
 _atom_site_fract_z
 _atom_site_occupancy
  Li  Li0  1  0.68845700  0.22381200  0.05687900  1
  Li  Li1  1  0.68552900  0.08684700  0.56115600  1
  Li  Li2  1  0.22381200  0.68845700  0.55687900  1
  Li  Li3  1  0.08684700  0.68552900  0.06115600  1
  Li  Li4  1  0.22789300  0.09611400  0.05785300  1
  Li  Li5  1  0.09611400  0.22789300  0.55785300  1
  Li  Li6  1  0.77500500  0.31578500  0.44023300  1
  Li  Li7  1  0.31578500  0.77500500  0.94023300  1
  V  V0  1  0.99696400  0.56848200  0.25183000  1
  V  V1  1  0.00012500  0.43369500  0.75260700  1
  V  V2  1  0.56848200  0.99696400  0.75183000  1
  V  V3  1  0.43369500  0.00012500  0.25260700  1
  V  V4  1  0.56813800  0.43103800  0.24908300  1
  V  V5  1  0.43103800  0.56813800  0.74908300  1
  P  P0  1  0.68053200  0.23038900  0.84013500  1
  P  P1  1  0.68201300  0.08568500  0.34484900  1
  P  P2  1  0.23038900  0.68053200  0.34013500  1
  P  P3  1  0.33262900  0.33214100  0.12883200  1
  P  P4  1  0.33214100  0.33262900  0.62883200  1
  P  P5  1  0.08568500  0.68201300  0.84484900  1
  P  P6  1  0.91474800  0.76950900  0.66068800  1
  P  P7  1  0.23088700  0.08741000  0.84124500  1
  P  P8  1  0.76950900  0.91474800  0.16068800  1
  P  P9  1  0.08741000  0.23088700  0.34124500  1
  P  P10  1  0.91460000  0.31644500  0.15822800  1
  P  P11  1  0.66737100  0.66498400  0.37076000  1
  P  P12  1  0.66498400  0.66737100  0.87076000  1
  P  P13  1  0.77033100  0.32028500  0.65963100  1
  P  P14  1  0.31644500  0.91460000  0.65822800  1
  P  P15  1  0.32028500  0.77033100  0.15963100  1
  O  O0  1  0.76332600  0.23979000  0.57054600  1
  O  O1  1  0.66578600  0.25100100  0.33845600  1
  O  O2  1  0.76311900  0.00824500  0.07649900  1
  O  O3  1  0.65703000  0.08551600  0.82937500  1
  O  O4  1  0.51978500  0.38306600  0.82049100  1
  O  O5  1  0.48518400  0.32684800  0.16717800  1
  O  O6  1  0.38306600  0.51978500  0.32049100  1
  O  O7  1  0.23979000  0.76332600  0.07054600  1
  O  O8  1  0.25100100  0.66578600  0.83845600  1
  O  O9  1  0.48529200  0.18301000  0.67020100  1
  O  O10  1  0.51933300  0.09859500  0.32130500  1
  O  O11  1  0.32684800  0.48518400  0.66717800  1
  O  O12  1  0.32608300  0.33031100  0.02337800  1
  O  O13  1  0.33031100  0.32608300  0.52337800  1
  O  O14  1  0.18301000  0.48529200  0.17020100  1
  O  O15  1  0.38264100  0.09645800  0.82231200  1
  O  O16  1  0.32905900  0.18326700  0.17190300  1
  O  O17  1  0.08551600  0.65703000  0.32937500  1
  O  O18  1  0.98986800  0.79414700  0.75713300  1
  O  O19  1  0.00824500  0.76311900  0.57649900  1
  O  O20  1  0.00598800  0.74669000  0.93659400  1
  O  O21  1  0.09859500  0.51933300  0.82130500  1
  O  O22  1  0.18326700  0.32905900  0.67190300  1
  O  O23  1  0.91556900  0.74443000  0.16042900  1
  O  O24  1  0.09645800  0.38264100  0.32231200  1
  O  O25  1  0.25494900  0.08572000  0.33485800  1
  O  O26  1  0.79414700  0.98986800  0.25713300  1
  O  O27  1  0.74669000  0.00598800  0.43659400  1
  O  O28  1  0.23009100  0.00940500  0.57483700  1
  O  O29  1  0.74443000  0.91556900  0.66042900  1
  O  O30  1  0.90678800  0.61683200  0.67752800  1
  O  O31  1  0.08572000  0.25494900  0.83485800  1
  O  O32  1  0.81606400  0.66486800  0.32365400  1
  O  O33  1  0.90507700  0.47706700  0.17696900  1
  O  O34  1  0.00940500  0.23009100  0.07483700  1
  O  O35  1  0.00253300  0.24310600  0.43211800  1
  O  O36  1  0.99132500  0.21390400  0.25490900  1
  O  O37  1  0.92057900  0.33606400  0.66137800  1
  O  O38  1  0.66486800  0.81606400  0.82365400  1
  O  O39  1  0.61683200  0.90678800  0.17752800  1
  O  O40  1  0.81489900  0.51955300  0.82441200  1
  O  O41  1  0.66985100  0.67125600  0.97530800  1
  O  O42  1  0.67125600  0.66985100  0.47530800  1
  O  O43  1  0.67213000  0.51191700  0.33301300  1
  O  O44  1  0.47706700  0.90507700  0.67696900  1
  O  O45  1  0.51955300  0.81489900  0.32441200  1
  O  O46  1  0.74606600  0.33867700  0.15895400  1
  O  O47  1  0.79221700  0.21052100  0.75070400  1
  O  O48  1  0.75207900  0.23499000  0.93136400  1
  O  O49  1  0.62307000  0.48113200  0.67711000  1
  O  O50  1  0.51191700  0.67213000  0.83301300  1
  O  O51  1  0.48113200  0.62307000  0.17711000  1
  O  O52  1  0.33606400  0.92057900  0.16137800  1
  O  O53  1  0.24310600  0.00253300  0.93211800  1
  O  O54  1  0.21390400  0.99132500  0.75490900  1
  O  O55  1  0.33867700  0.74606600  0.65895400  1
  O  O56  1  0.23499000  0.75207900  0.43136400  1
  O  O57  1  0.21052100  0.79221700  0.25070400  1
loop_
_geom_bond_atom_site_label_1
_geom_bond_atom_site_label_2
_geom_bond_distance
_geom_bond_site_symmetry_2
Li0 O2 1.875556 1_555
Li0 O48 1.898151 1_554
Li0 O46 2.074462 1_555
Li0 O5 2.319624 1_555
Li1 O27 1.896436 1_555
Li1 O0 1.999689 1_555
Li1 O29 2.033232 1_545
Li1 O9 2.289147 1_555
Li2 O19 1.875556 1_555
Li2 O56 1.898151 1_555
Li2 O55 2.074462 1_555
Li2 O11 2.319624 1_555
Li3 O20 1.896436 1_554
Li3 O7 1.999689 1_555
Li3 O23 2.033232 1_455
Li3 O14 2.289147 1_555
Li4 O34 1.879769 1_555
Li4 O53 1.968045 1_554
Li4 O52 2.092200 1_545
Li4 O16 2.271253 1_555
Li5 O28 1.879769 1_555
Li5 O35 1.968045 1_555
Li5 O37 2.092200 1_455
Li5 O22 2.271253 1_555
Li6 O35 1.973015 1_655
Li6 O0 2.007741 1_555
Li6 O1 2.073288 1_555
Li6 O43 2.246034 1_555
Li7 O53 1.973015 1_565
Li7 O7 2.007741 1_556
Li7 O8 2.073288 1_555
Li7 O50 2.246034 1_555
O0 P13 1.504091 1_555
O1 P1 1.548913 1_555
O1 V4 1.978896 1_555
O2 P8 1.481568 1_545
O3 P0 1.556430 1_555
O3 V2 1.861372 1_545
O4 P0 1.556414 1_555
O4 V5 1.862921 1_555
O5 P3 1.566508 1_555
O5 V4 1.969353 1_555
O6 P2 1.556414 1_555
O6 V4 1.862921 1_555
O7 P15 1.504091 1_555
O8 P5 1.548913 1_555
O8 V5 1.978896 1_555
O9 P4 1.589319 1_555
O9 V2 1.953494 1_545
O10 P1 1.570380 1_555
O10 V3 1.842246 1_555
O11 P4 1.566508 1_555
O11 V5 1.969353 1_555
O12 P3 1.489486 1_555
O13 P4 1.489486 1_555
O14 P3 1.589319 1_555
O14 V0 1.953494 1_455
O15 P7 1.556957 1_555
O15 V2 1.861782 1_545
O16 P3 1.596880 1_555
O16 V3 1.927093 1_555
O17 P2 1.556430 1_555
O17 V0 1.861372 1_455
O18 P5 1.606390 1_655
O18 P6 1.622396 1_555
O19 P6 1.481568 1_455
O20 P5 1.479072 1_555
O21 P5 1.570380 1_555
O21 V1 1.842246 1_555
O22 P4 1.596880 1_555
O22 V1 1.927093 1_555
O23 P8 1.558129 1_555
O23 V0 1.971016 1_555
O24 P9 1.556957 1_555
O24 V0 1.861782 1_455
O25 P9 1.540924 1_555
O25 V3 1.907061 1_555
O26 P1 1.606390 1_565
O26 P8 1.622396 1_555
O27 P1 1.479072 1_555
O28 P14 1.473381 1_545
O29 P6 1.558129 1_555
O29 V2 1.971016 1_555
O30 P6 1.555383 1_555
O30 V1 1.877387 1_655
O31 P7 1.540924 1_555
O31 V1 1.907061 1_555
O32 P11 1.600883 1_555
O32 V0 1.836762 1_555
O33 P10 1.552286 1_555
O33 V0 1.882762 1_555
O34 P10 1.473381 1_455
O35 P9 1.499377 1_555
O36 P9 1.599231 1_655
O36 P10 1.635079 1_555
O37 P13 1.556572 1_555
O37 V1 1.983541 1_655
O38 P12 1.600883 1_555
O38 V2 1.836762 1_555
O39 P8 1.555383 1_555
O39 V3 1.877387 1_565
O40 P12 1.593780 1_555
O40 V1 1.867954 1_655
O41 P12 1.476710 1_555
O42 P11 1.476710 1_555
O43 P11 1.570681 1_555
O43 V4 1.971320 1_555
O44 P14 1.552286 1_555
O44 V2 1.882762 1_555
O45 P11 1.593780 1_555
O45 V3 1.867954 1_565
O46 P10 1.553576 1_555
O46 V4 1.971030 1_555
O47 P0 1.616019 1_555
O47 P13 1.618643 1_555
O48 P0 1.477486 1_555
O49 P13 1.528509 1_555
O49 V5 1.918803 1_555
O50 P12 1.570681 1_555
O50 V5 1.971320 1_555
O51 P15 1.528509 1_555
O51 V4 1.918803 1_555
O52 P15 1.556572 1_555
O52 V3 1.983541 1_565
O53 P7 1.499377 1_555
O54 P7 1.599231 1_565
O54 P14 1.635079 1_555
O55 P14 1.553576 1_555
O55 V5 1.971030 1_555
O56 P2 1.477486 1_555
O57 P2 1.616019 1_555
O57 P15 1.618643 1_555
