# generated using pymatgen
data_Li2FeF4
_symmetry_space_group_name_H-M   'P 1'
_cell_length_a   5.10095100
_cell_length_b   10.02655200
_cell_length_c   12.52602100
_cell_angle_alpha   90.00000000
_cell_angle_beta   90.00000000
_cell_angle_gamma   90.00000000
_symmetry_Int_Tables_number   1
_chemical_formula_structural   Li2FeF4
_chemical_formula_sum   'Li16 Fe8 F32'
_cell_volume   640.64272339
_cell_formula_units_Z   8
loop_
 _symmetry_equiv_pos_site_id
 _symmetry_equiv_pos_as_xyz
  1  'x, y, z'
loop_
 _atom_site_type_symbol
 _atom_site_label
 _atom_site_symmetry_multiplicity
 _atom_site_fract_x
 _atom_site_fract_y
 _atom_site_fract_z
 _atom_site_occupancy
  Li  Li0  1  0.00000000  0.00000000  0.31873800  1
  Li  Li1  1  0.00000000  0.00000000  0.68776100  1
  Li  Li2  1  0.50000000  0.00000000  0.56257600  1
  Li  Li3  1  0.00000000  0.00000000  0.98119100  1
  Li  Li4  1  0.98068200  0.29586100  0.84491800  1
  Li  Li5  1  0.01928200  0.24849500  0.18922100  1
  Li  Li6  1  0.51928200  0.25150500  0.68922100  1
  Li  Li7  1  0.48068200  0.20413900  0.34491800  1
  Li  Li8  1  0.50000000  0.50000000  0.48119100  1
  Li  Li9  1  0.00000000  0.50000000  0.06257600  1
  Li  Li10  1  0.50000000  0.50000000  0.18776100  1
  Li  Li11  1  0.50000000  0.50000000  0.81873800  1
  Li  Li12  1  0.51931800  0.79586100  0.34491800  1
  Li  Li13  1  0.48071800  0.74849500  0.68922100  1
  Li  Li14  1  0.98071800  0.75150500  0.18922100  1
  Li  Li15  1  0.01931800  0.70413900  0.84491800  1
  Fe  Fe0  1  0.50000000  0.00000000  0.13556500  1
  Fe  Fe1  1  0.50000000  0.00000000  0.84702100  1
  Fe  Fe2  1  0.02072600  0.22954000  0.49762700  1
  Fe  Fe3  1  0.52072600  0.27046000  0.99762700  1
  Fe  Fe4  1  0.00000000  0.50000000  0.34702100  1
  Fe  Fe5  1  0.00000000  0.50000000  0.63556500  1
  Fe  Fe6  1  0.47927400  0.72954000  0.99762700  1
  Fe  Fe7  1  0.97927400  0.77046000  0.49762700  1
  F  F0  1  0.29962000  0.10228600  0.73019600  1
  F  F1  1  0.26991400  0.11017800  0.23777600  1
  F  F2  1  0.31283800  0.09946200  0.99455600  1
  F  F3  1  0.77177900  0.14194400  0.10629200  1
  F  F4  1  0.79738300  0.12654400  0.87644500  1
  F  F5  1  0.32404600  0.11458500  0.46875600  1
  F  F6  1  0.78671300  0.13321000  0.60941600  1
  F  F7  1  0.83195900  0.15894000  0.36108800  1
  F  F8  1  0.33195900  0.34106000  0.86108800  1
  F  F9  1  0.28671300  0.36679100  0.10941600  1
  F  F10  1  0.82404600  0.38541500  0.96875600  1
  F  F11  1  0.29738300  0.37345600  0.37644500  1
  F  F12  1  0.27177900  0.35805600  0.60629200  1
  F  F13  1  0.81283800  0.40053800  0.49455600  1
  F  F14  1  0.76991400  0.38982200  0.73777600  1
  F  F15  1  0.79962000  0.39771400  0.23019600  1
  F  F16  1  0.20038000  0.60228600  0.23019600  1
  F  F17  1  0.23008600  0.61017800  0.73777600  1
  F  F18  1  0.18716200  0.59946200  0.49455600  1
  F  F19  1  0.70261700  0.62654400  0.37644500  1
  F  F20  1  0.72822100  0.64194400  0.60629200  1
  F  F21  1  0.17595400  0.61458500  0.96875600  1
  F  F22  1  0.71328700  0.63320900  0.10941600  1
  F  F23  1  0.66804100  0.65894000  0.86108800  1
  F  F24  1  0.16804100  0.84106000  0.36108800  1
  F  F25  1  0.21328700  0.86679100  0.60941600  1
  F  F26  1  0.67595400  0.88541500  0.46875600  1
  F  F27  1  0.20261700  0.87345600  0.87644500  1
  F  F28  1  0.22822100  0.85805600  0.10629200  1
  F  F29  1  0.68716200  0.90053800  0.99455600  1
  F  F30  1  0.73008600  0.88982200  0.23777600  1
  F  F31  1  0.70038000  0.89771400  0.73019600  1
loop_
_geom_bond_atom_site_label_1
_geom_bond_atom_site_label_2
_geom_bond_distance
_geom_bond_site_symmetry_2
F0 Li1 1.915773 1_555
F0 Li6 1.938398 1_555
F0 Fe1 2.058629 1_555
F1 Li7 1.960758 1_555
F1 Li5 1.981844 1_555
F1 Li0 2.035796 1_555
F1 Fe0 2.058399 1_555
F2 Li3 1.889191 1_555
F2 Fe3 2.016324 1_555
F2 Fe0 2.241816 1_556
F2 Fe1 2.306771 1_555
F3 Li5 1.953023 1_655
F3 Fe0 2.020368 1_555
F3 Fe3 2.270040 1_554
F3 Li3 2.415843 1_654
F4 Li4 1.977939 1_555
F4 Fe1 2.011663 1_555
F4 Li3 2.097507 1_655
F4 Fe3 2.525436 1_555
F5 Li2 1.872590 1_555
F5 Li7 1.962361 1_555
F5 Fe2 1.962948 1_555
F6 Li1 1.982586 1_655
F6 Li6 2.065672 1_555
F6 Li2 2.065695 1_555
F6 Fe2 2.078108 1_655
F7 Li7 1.859333 1_555
F7 Li0 1.885675 1_655
F7 Fe2 2.086466 1_655
F8 Li4 1.859333 1_455
F8 Li11 1.885675 1_555
F8 Fe3 2.086466 1_555
F9 Li10 1.982579 1_555
F9 Li5 2.065678 1_555
F9 Li9 2.065689 1_555
F9 Fe3 2.078113 1_554
F10 Li9 1.872590 1_656
F10 Li4 1.962361 1_555
F10 Fe3 1.962948 1_555
F11 Li7 1.977939 1_555
F11 Fe4 2.011663 1_555
F11 Li8 2.097507 1_555
F11 Fe2 2.525436 1_555
F12 Li6 1.953023 1_555
F12 Fe5 2.020368 1_555
F12 Fe2 2.270040 1_555
F12 Li8 2.415843 1_555
F13 Li8 1.889191 1_555
F13 Fe2 2.016324 1_655
F13 Fe5 2.241816 1_655
F13 Fe4 2.306771 1_655
F14 Li4 1.960758 1_555
F14 Li6 1.981844 1_555
F14 Li11 2.035796 1_555
F14 Fe5 2.058399 1_655
F15 Li10 1.915773 1_555
F15 Li5 1.938398 1_655
F15 Fe4 2.058629 1_655
F16 Li10 1.915773 1_555
F16 Li14 1.938398 1_455
F16 Fe4 2.058629 1_555
F17 Li15 1.960758 1_555
F17 Li13 1.981844 1_555
F17 Li11 2.035796 1_555
F17 Fe5 2.058399 1_555
F18 Li8 1.889191 1_555
F18 Fe7 2.016324 1_455
F18 Fe5 2.241816 1_555
F18 Fe4 2.306771 1_555
F19 Li12 1.977939 1_555
F19 Fe4 2.011663 1_655
F19 Li8 2.097507 1_555
F19 Fe7 2.525436 1_555
F20 Li13 1.953023 1_555
F20 Fe5 2.020368 1_655
F20 Fe7 2.270040 1_555
F20 Li8 2.415843 1_555
F21 Li9 1.872590 1_556
F21 Li15 1.962361 1_555
F21 Fe6 1.962948 1_555
F22 Li10 1.982579 1_555
F22 Li14 2.065678 1_555
F22 Li9 2.065689 1_655
F22 Fe6 2.078113 1_554
F23 Li15 1.859333 1_655
F23 Li11 1.885675 1_555
F23 Fe6 2.086466 1_555
F24 Li12 1.859333 1_555
F24 Li0 1.885675 1_565
F24 Fe7 2.086466 1_455
F25 Li1 1.982579 1_565
F25 Li13 2.065678 1_555
F25 Li2 2.065689 1_565
F25 Fe7 2.078113 1_455
F26 Li2 1.872590 1_565
F26 Li12 1.962361 1_555
F26 Fe7 1.962948 1_555
F27 Li15 1.977939 1_555
F27 Fe1 2.011663 1_565
F27 Li3 2.097507 1_565
F27 Fe6 2.525436 1_555
F28 Li14 1.953023 1_455
F28 Fe0 2.020368 1_565
F28 Fe6 2.270040 1_554
F28 Li3 2.415843 1_564
F29 Li3 1.889191 1_665
F29 Fe6 2.016324 1_555
F29 Fe0 2.241816 1_566
F29 Fe1 2.306771 1_565
F30 Li12 1.960758 1_555
F30 Li14 1.981844 1_555
F30 Li0 2.035796 1_665
F30 Fe0 2.058399 1_565
F31 Li1 1.915773 1_665
F31 Li13 1.938398 1_555
F31 Fe1 2.058629 1_565
