# generated using pymatgen
data_LiVBO4
_symmetry_space_group_name_H-M   'P 1'
_cell_length_a   4.38560600
_cell_length_b   6.06722100
_cell_length_c   10.10121600
_cell_angle_alpha   90.00000000
_cell_angle_beta   90.00000000
_cell_angle_gamma   90.00000000
_symmetry_Int_Tables_number   1
_chemical_formula_structural   LiVBO4
_chemical_formula_sum   'Li4 V4 B4 O16'
_cell_volume   268.77760816
_cell_formula_units_Z   4
loop_
 _symmetry_equiv_pos_site_id
 _symmetry_equiv_pos_as_xyz
  1  'x, y, z'
loop_
 _atom_site_type_symbol
 _atom_site_label
 _atom_site_symmetry_multiplicity
 _atom_site_fract_x
 _atom_site_fract_y
 _atom_site_fract_z
 _atom_site_occupancy
  Li  Li0  1  0.48050000  0.25000000  0.72349700  1
  Li  Li1  1  0.98050000  0.75000000  0.77650300  1
  Li  Li2  1  0.01950000  0.25000000  0.22349700  1
  Li  Li3  1  0.51950000  0.75000000  0.27650300  1
  V  V0  1  0.00000000  0.50000000  0.50000000  1
  V  V1  1  0.00000000  0.00000000  0.50000000  1
  V  V2  1  0.50000000  0.50000000  0.00000000  1
  V  V3  1  0.50000000  0.00000000  0.00000000  1
  B  B0  1  0.40673200  0.75000000  0.58282000  1
  B  B1  1  0.90673200  0.25000000  0.91718000  1
  B  B2  1  0.09326800  0.75000000  0.08282000  1
  B  B3  1  0.59326800  0.25000000  0.41718000  1
  O  O0  1  0.74721300  0.25000000  0.56117000  1
  O  O1  1  0.73509700  0.75000000  0.57466900  1
  O  O2  1  0.27110200  0.95173200  0.64220300  1
  O  O3  1  0.27110200  0.54826800  0.64220300  1
  O  O4  1  0.77110200  0.04826800  0.85779700  1
  O  O5  1  0.77110200  0.45173200  0.85779700  1
  O  O6  1  0.23509700  0.25000000  0.92533100  1
  O  O7  1  0.24721300  0.75000000  0.93883000  1
  O  O8  1  0.75278700  0.25000000  0.06117000  1
  O  O9  1  0.76490300  0.75000000  0.07466900  1
  O  O10  1  0.22889800  0.54826800  0.14220300  1
  O  O11  1  0.22889800  0.95173200  0.14220300  1
  O  O12  1  0.72889800  0.04826800  0.35779700  1
  O  O13  1  0.72889800  0.45173200  0.35779700  1
  O  O14  1  0.26490300  0.25000000  0.42533100  1
  O  O15  1  0.25278700  0.75000000  0.43883000  1
loop_
_geom_bond_atom_site_label_1
_geom_bond_atom_site_label_2
_geom_bond_distance
_geom_bond_site_symmetry_2
Li0 O0 2.014152 1_555
Li0 O3 2.189183 1_555
Li0 O2 2.189183 1_545
Li0 O5 2.227705 1_555
Li0 O4 2.227705 1_555
Li0 O6 2.305401 1_555
Li1 O7 2.014152 1_655
Li1 O4 2.189183 1_565
Li1 O5 2.189183 1_555
Li1 O2 2.227705 1_655
Li1 O3 2.227705 1_655
Li1 O1 2.305401 1_555
Li2 O8 2.014152 1_455
Li2 O10 2.189183 1_555
Li2 O11 2.189183 1_545
Li2 O13 2.227705 1_455
Li2 O12 2.227705 1_455
Li2 O14 2.305401 1_555
Li3 O15 2.014152 1_555
Li3 O12 2.189183 1_565
Li3 O13 2.189183 1_555
Li3 O11 2.227705 1_555
Li3 O10 2.227705 1_555
Li3 O9 2.305401 1_555
B0 O1 1.442431 1_555
B0 O2 1.487172 1_555
B0 O3 1.487172 1_555
B0 O15 1.603531 1_555
B1 O6 1.442431 1_655
B1 O5 1.487172 1_555
B1 O4 1.487172 1_555
B1 O8 1.603531 1_556
B2 O9 1.442431 1_455
B2 O11 1.487172 1_555
B2 O10 1.487172 1_555
B2 O7 1.603531 1_554
B3 O14 1.442431 1_555
B3 O13 1.487172 1_555
B3 O12 1.487172 1_555
B3 O0 1.603531 1_555
O0 V1 1.977760 1_655
O0 V0 1.977760 1_655
O1 V0 2.054087 1_655
O1 V1 2.054087 1_665
O2 V1 1.887503 1_565
O3 V0 1.887503 1_555
O4 V3 1.887503 1_556
O5 V2 1.887503 1_556
O6 V2 2.054087 1_556
O6 V3 2.054087 1_556
O7 V2 1.977760 1_556
O7 V3 1.977760 1_566
O8 V2 1.977760 1_555
O8 V3 1.977760 1_555
O9 V2 2.054087 1_555
O9 V3 2.054087 1_565
O10 V2 1.887503 1_555
O11 V3 1.887503 1_565
O12 V1 1.887503 1_655
O13 V0 1.887503 1_655
O14 V0 2.054087 1_555
O14 V1 2.054087 1_555
O15 V0 1.977760 1_555
O15 V1 1.977760 1_565
