# generated using pymatgen
data_Li7Ni13O24
_symmetry_space_group_name_H-M   'P 1'
_cell_length_a   7.60634169
_cell_length_b   8.64763859
_cell_length_c   7.60634180
_cell_angle_alpha   72.92885127
_cell_angle_beta   69.27226846
_cell_angle_gamma   105.94517580
_symmetry_Int_Tables_number   1
_chemical_formula_structural   Li7Ni13O24
_chemical_formula_sum   'Li7 Ni13 O24'
_cell_volume   405.23054863
_cell_formula_units_Z   1
loop_
 _symmetry_equiv_pos_site_id
 _symmetry_equiv_pos_as_xyz
  1  'x, y, z'
loop_
 _atom_site_type_symbol
 _atom_site_label
 _atom_site_symmetry_multiplicity
 _atom_site_fract_x
 _atom_site_fract_y
 _atom_site_fract_z
 _atom_site_occupancy
  Li  Li0  1  0.05029400  0.12500000  0.57470600  1
  Li  Li1  1  0.12389500  0.37782600  0.74606900  1
  Li  Li2  1  0.21055200  0.62500000  0.91444800  1
  Li  Li3  1  0.37500000  0.12500000  0.25000000  1
  Li  Li4  1  0.53944800  0.62500000  0.58555200  1
  Li  Li5  1  0.62610500  0.87217400  0.75393100  1
  Li  Li6  1  0.69970600  0.12500000  0.92529400  1
  Ni  Ni0  1  0.08150000  0.24939200  0.15958900  1
  Ni  Ni1  1  0.16568700  0.49807300  0.33599300  1
  Ni  Ni2  1  0.25094900  0.75562300  0.49532700  1
  Ni  Ni3  1  0.49905100  0.49437700  0.00467300  1
  Ni  Ni4  1  0.99965300  0.99554800  0.00410500  1
  Ni  Ni5  1  0.58431300  0.75192700  0.16400700  1
  Ni  Ni6  1  0.34101900  0.00060800  0.66789200  1
  Ni  Ni7  1  0.40898100  0.24939200  0.83210800  1
  Ni  Ni8  1  0.87500000  0.62500000  0.25000000  1
  Ni  Ni9  1  0.66850000  0.00060800  0.34041100  1
  Ni  Ni10  1  0.75034700  0.25445200  0.49589500  1
  Ni  Ni11  1  0.83406700  0.49807300  0.66761400  1
  Ni  Ni12  1  0.91593300  0.75192700  0.83238600  1
  O  O0  1  0.05101600  0.65870100  0.39231500  1
  O  O1  1  0.16128100  0.92883000  0.56079900  1
  O  O2  1  0.02756200  0.57816700  0.75981600  1
  O  O3  1  0.17782700  0.06717200  0.11065500  1
  O  O4  1  0.08678700  0.81894400  0.95200400  1
  O  O5  1  0.41201700  0.67183300  0.05060300  1
  O  O6  1  0.26037000  0.32117000  0.26754800  1
  O  O7  1  0.48963000  0.92883000  0.23245200  1
  O  O8  1  0.33798300  0.57816700  0.44939700  1
  O  O9  1  0.44658900  0.82574900  0.62084000  1
  O  O10  1  0.21846400  0.16394200  0.74059700  1
  O  O11  1  0.30341100  0.42425100  0.87916000  1
  O  O12  1  0.69898400  0.59129900  0.10768500  1
  O  O13  1  0.77094900  0.81894400  0.26784300  1
  O  O14  1  0.57217300  0.18282800  0.38934500  1
  O  O15  1  0.66321300  0.43105600  0.54799600  1
  O  O16  1  0.53153600  0.08605800  0.75940300  1
  O  O17  1  0.72243800  0.67183300  0.74018400  1
  O  O18  1  0.58871900  0.32117000  0.93920100  1
  O  O19  1  0.90453800  0.16394200  0.05452200  1
  O  O20  1  0.82543400  0.94302900  0.88240500  1
  O  O21  1  0.97905100  0.43105600  0.23215700  1
  O  O22  1  0.84546200  0.08605800  0.44547800  1
  O  O23  1  0.92456600  0.30697100  0.61759500  1
loop_
_geom_bond_atom_site_label_1
_geom_bond_atom_site_label_2
_geom_bond_distance
_geom_bond_site_symmetry_2
Li0 O20 2.098732 1_445
Li0 O23 2.098733 1_455
Li0 O1 2.104915 1_545
Li0 O6 2.104919 1_555
Li0 O22 2.120650 1_455
Li0 O10 2.120657 1_555
Li1 O11 1.991576 1_555
Li1 O8 2.073377 1_555
Li1 O2 2.073386 1_555
Li1 O23 2.125804 1_455
Li1 O10 2.166830 1_555
Li1 O19 2.166831 1_456
Li2 O9 2.097074 1_555
Li2 O11 2.097074 1_555
Li2 O5 2.147909 1_556
Li2 O2 2.147921 1_555
Li2 O4 2.176950 1_555
Li2 O21 2.176952 1_456
Li3 O18 2.125812 1_554
Li3 O1 2.125812 1_545
Li3 O6 2.125816 1_555
Li3 O7 2.125816 1_545
Li3 O3 2.155714 1_555
Li3 O14 2.155714 1_555
Li4 O11 2.097074 1_555
Li4 O9 2.097074 1_555
Li4 O8 2.147909 1_555
Li4 O17 2.147921 1_555
Li4 O15 2.176950 1_555
Li4 O13 2.176952 1_555
Li5 O9 1.991576 1_555
Li5 O5 2.073377 1_556
Li5 O17 2.073386 1_555
Li5 O20 2.125804 1_555
Li5 O16 2.166830 1_565
Li5 O22 2.166831 1_565
Li6 O23 2.098732 1_555
Li6 O20 2.098733 1_545
Li6 O18 2.104915 1_555
Li6 O7 2.104919 1_546
Li6 O19 2.120650 1_556
Li6 O16 2.120657 1_555
Ni0 O6 1.880638 1_555
Ni0 O19 1.886320 1_455
Ni0 O11 1.959807 1_554
Ni0 O3 1.985978 1_555
Ni0 O22 1.996736 1_455
Ni0 O21 2.063277 1_455
Ni1 O21 1.893504 1_455
Ni1 O8 1.895668 1_555
Ni1 O0 1.903769 1_555
Ni1 O6 1.984318 1_555
Ni1 O5 2.034629 1_555
Ni1 O23 2.039222 1_455
Ni2 O2 1.903799 1_555
Ni2 O8 1.903801 1_555
Ni2 O1 1.927564 1_555
Ni2 O7 1.927569 1_555
Ni2 O0 2.039083 1_555
Ni2 O9 2.084077 1_555
Ni3 O17 1.903799 1_554
Ni3 O5 1.903801 1_555
Ni3 O18 1.927564 1_554
Ni3 O6 1.927569 1_555
Ni3 O12 2.039083 1_555
Ni3 O11 2.084077 1_554
Ni4 O3 1.867668 1_665
Ni4 O10 1.871188 1_664
Ni4 O19 1.871192 1_565
Ni4 O20 1.898349 1_554
Ni4 O13 1.911602 1_555
Ni4 O4 1.911604 1_654
Ni5 O13 1.893504 1_555
Ni5 O5 1.895668 1_555
Ni5 O12 1.903769 1_555
Ni5 O7 1.984318 1_555
Ni5 O8 2.034629 1_555
Ni5 O20 2.039222 1_554
Ni6 O1 1.880650 1_545
Ni6 O16 1.886314 1_555
Ni6 O9 1.959807 1_545
Ni6 O14 1.985978 1_555
Ni6 O10 1.996739 1_555
Ni6 O4 2.063273 1_545
Ni7 O18 1.880650 1_555
Ni7 O10 1.886314 1_555
Ni7 O11 1.959807 1_555
Ni7 O3 1.985978 1_556
Ni7 O16 1.996739 1_555
Ni7 O15 2.063273 1_555
Ni8 O12 2.011454 1_555
Ni8 O0 2.011454 1_655
Ni8 O21 2.060239 1_555
Ni8 O13 2.060239 1_555
Ni8 O15 2.060243 1_555
Ni8 O4 2.060243 1_654
Ni9 O7 1.880638 1_545
Ni9 O22 1.886320 1_555
Ni9 O9 1.959807 1_545
Ni9 O14 1.985978 1_555
Ni9 O19 1.996736 1_555
Ni9 O13 2.063277 1_545
Ni10 O14 1.867668 1_555
Ni10 O16 1.871188 1_555
Ni10 O22 1.871192 1_555
Ni10 O23 1.898349 1_555
Ni10 O21 1.911602 1_555
Ni10 O15 1.911604 1_555
Ni11 O15 1.893504 1_555
Ni11 O2 1.895649 1_655
Ni11 O0 1.903766 1_655
Ni11 O18 1.984321 1_555
Ni11 O17 2.034625 1_555
Ni11 O23 2.039218 1_555
Ni12 O4 1.893504 1_655
Ni12 O17 1.895649 1_555
Ni12 O12 1.903766 1_556
Ni12 O1 1.984321 1_655
Ni12 O2 2.034625 1_655
Ni12 O20 2.039218 1_555
