# generated using pymatgen
data_NaLi2V3O9
_symmetry_space_group_name_H-M   'P 1'
_cell_length_a   10.17544558
_cell_length_b   10.17544558
_cell_length_c   10.06577082
_cell_angle_alpha   73.19435534
_cell_angle_beta   73.19435534
_cell_angle_gamma   52.73533387
_symmetry_Int_Tables_number   1
_chemical_formula_structural   NaLi2V3O9
_chemical_formula_sum   'Na4 Li8 V12 O36'
_cell_volume   785.06371247
_cell_formula_units_Z   4
loop_
 _symmetry_equiv_pos_site_id
 _symmetry_equiv_pos_as_xyz
  1  'x, y, z'
loop_
 _atom_site_type_symbol
 _atom_site_label
 _atom_site_symmetry_multiplicity
 _atom_site_fract_x
 _atom_site_fract_y
 _atom_site_fract_z
 _atom_site_occupancy
  Na  Na0  1  0.46223200  0.20653900  0.16656100  1
  Na  Na1  1  0.20530500  0.79469500  0.00000000  1
  Na  Na2  1  0.79346100  0.53776800  0.83343900  1
  Na  Na3  1  0.12787700  0.87212300  0.50000000  1
  Li  Li0  1  0.49913000  0.83162200  0.33600200  1
  Li  Li1  1  0.85318000  0.48376300  0.33459900  1
  Li  Li2  1  0.83721300  0.83134500  0.16430300  1
  Li  Li3  1  0.83390200  0.16609800  0.00000000  1
  Li  Li4  1  0.16865500  0.16278700  0.83569700  1
  Li  Li5  1  0.51623700  0.14682000  0.66540100  1
  Li  Li6  1  0.16837800  0.50087000  0.66399800  1
  Li  Li7  1  0.50505600  0.49494400  0.50000000  1
  V  V0  1  0.10427700  0.08821400  0.19488800  1
  V  V1  1  0.56065900  0.91448200  0.97373500  1
  V  V2  1  0.08551800  0.43934100  0.02626500  1
  V  V3  1  0.41991300  0.77053600  0.69108300  1
  V  V4  1  0.24947400  0.22671700  0.47673700  1
  V  V5  1  0.77328300  0.75052600  0.52326300  1
  V  V6  1  0.22946400  0.58008700  0.30891700  1
  V  V7  1  0.75134400  0.10525900  0.36330600  1
  V  V8  1  0.58632000  0.55826700  0.14425900  1
  V  V9  1  0.91178600  0.89572300  0.80511200  1
  V  V10  1  0.44173300  0.41368000  0.85574100  1
  V  V11  1  0.89474100  0.24865600  0.63669400  1
  O  O0  1  0.57012200  0.72315900  0.00156900  1
  O  O1  1  0.38213700  0.07838000  0.91613400  1
  O  O2  1  0.28323500  0.92269200  0.24992400  1
  O  O3  1  0.62837800  0.57033400  0.28999500  1
  O  O4  1  0.09229400  0.28007100  0.17317400  1
  O  O5  1  0.92162000  0.61786300  0.08386600  1
  O  O6  1  0.58022300  0.94266500  0.12234700  1
  O  O7  1  0.27684100  0.42987800  0.99843100  1
  O  O8  1  0.93884400  0.91558400  0.95695100  1
  O  O9  1  0.05527900  0.24371300  0.49796800  1
  O  O10  1  0.75966200  0.71194200  0.37865700  1
  O  O11  1  0.40863400  0.04869000  0.41682100  1
  O  O12  1  0.23944700  0.38923100  0.33462000  1
  O  O13  1  0.72523600  0.08572600  0.21371500  1
  O  O14  1  0.25551000  0.94847800  0.74786400  1
  O  O15  1  0.05152200  0.74449000  0.25213600  1
  O  O16  1  0.91427400  0.27476400  0.78628500  1
  O  O17  1  0.39475700  0.56841000  0.17108900  1
  O  O18  1  0.61076900  0.76055300  0.66538000  1
  O  O19  1  0.08441600  0.06115600  0.04304900  1
  O  O20  1  0.95131000  0.59136600  0.58317900  1
  O  O21  1  0.74575100  0.38287000  0.08055400  1
  O  O22  1  0.28805800  0.24033800  0.62134300  1
  O  O23  1  0.75628700  0.94472100  0.50203200  1
  O  O24  1  0.58844200  0.28519400  0.41879200  1
  O  O25  1  0.24673100  0.60698400  0.46093900  1
  O  O26  1  0.94318500  0.09424300  0.33711500  1
  O  O27  1  0.05733500  0.41977700  0.87765300  1
  O  O28  1  0.71992900  0.90770600  0.82682600  1
  O  O29  1  0.42966600  0.37162200  0.71000500  1
  O  O30  1  0.07730800  0.71676500  0.75007600  1
  O  O31  1  0.90575700  0.05681500  0.66288500  1
  O  O32  1  0.39301600  0.75326900  0.53906100  1
  O  O33  1  0.71480600  0.41155800  0.58120800  1
  O  O34  1  0.61713000  0.25424900  0.91944600  1
  O  O35  1  0.43159000  0.60524300  0.82891100  1
loop_
_geom_bond_atom_site_label_1
_geom_bond_atom_site_label_2
_geom_bond_distance
_geom_bond_site_symmetry_2
Na0 O13 2.304677 1_555
Na0 O6 2.308051 1_545
Na0 O12 2.440087 1_555
Na0 O7 2.453123 1_554
Na0 O34 2.620766 1_554
Na0 O11 2.673885 1_555
Na1 O8 2.320469 1_454
Na1 O19 2.320469 1_565
Na1 O17 2.497042 1_555
Na1 O35 2.497042 1_554
Na1 O15 2.659443 1_555
Na1 O14 2.659443 1_554
Na2 O16 2.304677 1_555
Na2 O27 2.308051 1_655
Na2 O18 2.440087 1_555
Na2 O0 2.453123 1_556
Na2 O21 2.620766 1_556
Na2 O20 2.673885 1_555
Na3 O32 2.298495 1_555
Na3 O25 2.298495 1_555
Na3 O31 2.413194 1_465
Na3 O26 2.413194 1_465
Na3 O30 2.652395 1_555
Na3 O2 2.652395 1_555
Li0 O11 2.128654 1_565
Li0 O2 2.146297 1_555
Li0 O32 2.191631 1_555
Li0 O3 2.266776 1_555
Li0 O10 2.267503 1_555
Li0 O6 2.297923 1_555
Li1 O3 2.033476 1_555
Li1 O10 2.041775 1_555
Li1 O4 2.531871 1_655
Li1 O9 2.539556 1_655
Li1 O5 2.619088 1_555
Li1 O33 2.619402 1_555
Li2 O5 2.113655 1_555
Li2 O15 2.155747 1_655
Li2 O8 2.225141 1_554
Li2 O6 2.252667 1_555
Li2 O13 2.256283 1_565
Li2 O10 2.326995 1_555
Li3 O34 2.131912 1_554
Li3 O21 2.131912 1_555
Li3 O19 2.213759 1_655
Li3 O8 2.213759 1_544
Li3 O13 2.285051 1_555
Li3 O16 2.285051 1_554
Li4 O1 2.113655 1_555
Li4 O14 2.155747 1_545
Li4 O19 2.225141 1_556
Li4 O27 2.252667 1_555
Li4 O16 2.256283 1_455
Li4 O22 2.326995 1_555
Li5 O29 2.033476 1_555
Li5 O22 2.041775 1_555
Li5 O28 2.531871 1_545
Li5 O23 2.539556 1_545
Li5 O1 2.619088 1_555
Li5 O24 2.619402 1_555
Li6 O20 2.128654 1_455
Li6 O30 2.146297 1_555
Li6 O25 2.191631 1_555
Li6 O29 2.266776 1_555
Li6 O22 2.267503 1_555
Li6 O27 2.297923 1_555
Li7 O33 2.087604 1_555
Li7 O24 2.087604 1_555
Li7 O32 2.252358 1_555
Li7 O25 2.252358 1_555
Li7 O29 2.307757 1_555
Li7 O3 2.307757 1_555
O0 V8 1.820368 1_555
O0 V1 1.830567 1_554
O1 V1 1.672871 1_545
O2 V0 1.670107 1_565
O3 V8 1.697341 1_555
O4 V0 1.831461 1_555
O4 V2 1.831881 1_555
O5 V2 1.672871 1_655
O6 V1 1.687887 1_554
O7 V10 1.820368 1_555
O7 V2 1.830567 1_556
O8 V9 1.715198 1_555
O9 V11 1.800827 1_455
O9 V4 1.828545 1_555
O10 V5 1.674828 1_555
O11 V4 1.668023 1_555
O12 V4 1.817562 1_555
O12 V6 1.826075 1_555
O13 V7 1.686912 1_555
O14 V3 1.667647 1_555
O15 V6 1.667647 1_555
O16 V11 1.686912 1_555
O17 V6 1.808795 1_555
O17 V8 1.830630 1_555
O18 V5 1.817562 1_555
O18 V3 1.826075 1_555
O19 V0 1.715198 1_555
O20 V5 1.668023 1_555
O21 V8 1.668014 1_555
O22 V4 1.674828 1_555
O23 V7 1.800827 1_565
O23 V5 1.828545 1_555
O24 V7 1.671084 1_555
O25 V6 1.703884 1_555
O26 V0 1.819961 1_655
O26 V7 1.829524 1_555
O27 V2 1.687887 1_556
O28 V9 1.831461 1_555
O28 V1 1.831881 1_555
O29 V10 1.697341 1_555
O30 V9 1.670107 1_455
O31 V9 1.819961 1_545
O31 V11 1.829524 1_555
O32 V3 1.703884 1_555
O33 V11 1.671084 1_555
O34 V10 1.668014 1_555
O35 V3 1.808795 1_555
O35 V10 1.830630 1_555
