# generated using pymatgen
data_Mn12O7F17
_symmetry_space_group_name_H-M   'P 1'
_cell_length_a   4.79785100
_cell_length_b   5.82774328
_cell_length_c   15.76528726
_cell_angle_alpha   89.83738898
_cell_angle_beta   89.47784566
_cell_angle_gamma   88.99904761
_symmetry_Int_Tables_number   1
_chemical_formula_structural   Mn12O7F17
_chemical_formula_sum   'Mn12 O7 F17'
_cell_volume   440.72043448
_cell_formula_units_Z   1
loop_
 _symmetry_equiv_pos_site_id
 _symmetry_equiv_pos_as_xyz
  1  'x, y, z'
loop_
 _atom_site_type_symbol
 _atom_site_label
 _atom_site_symmetry_multiplicity
 _atom_site_fract_x
 _atom_site_fract_y
 _atom_site_fract_z
 _atom_site_occupancy
  Mn  Mn0  1  0.97470300  0.86479500  0.41306000  1
  Mn  Mn1  1  0.00890300  0.16144500  0.24551500  1
  Mn  Mn2  1  0.99929700  0.83427500  0.07361200  1
  Mn  Mn3  1  0.99036300  0.84669500  0.75384700  1
  Mn  Mn4  1  0.96572200  0.15680300  0.58061700  1
  Mn  Mn5  1  0.97644000  0.14745000  0.91398500  1
  Mn  Mn6  1  0.49690800  0.63775900  0.58565000  1
  Mn  Mn7  1  0.50761500  0.66775100  0.92672900  1
  Mn  Mn8  1  0.50941300  0.67839600  0.25391800  1
  Mn  Mn9  1  0.46057000  0.36199800  0.09112200  1
  Mn  Mn10  1  0.51613800  0.32906900  0.41710400  1
  Mn  Mn11  1  0.52625000  0.32419600  0.75003400  1
  O  O0  1  0.79525300  0.91402300  0.30386300  1
  O  O1  1  0.79528800  0.87885800  0.96978300  1
  O  O2  1  0.77327800  0.10579100  0.47393400  1
  O  O3  1  0.78520400  0.11151600  0.80563200  1
  O  O4  1  0.71240300  0.36653300  0.63961200  1
  O  O5  1  0.27857100  0.62048900  0.03091200  1
  O  O6  1  0.27276100  0.38494700  0.19791400  1
  F  F0  1  0.75925100  0.86781900  0.64383100  1
  F  F1  1  0.76310100  0.11571000  0.13349600  1
  F  F2  1  0.74177000  0.61856400  0.14350100  1
  F  F3  1  0.75734400  0.40095500  0.30637600  1
  F  F4  1  0.73312000  0.60763500  0.47224200  1
  F  F5  1  0.73326800  0.60739300  0.81552500  1
  F  F6  1  0.71545500  0.37652200  0.98537000  1
  F  F7  1  0.26581900  0.63145200  0.36632800  1
  F  F8  1  0.25615400  0.38628500  0.52467300  1
  F  F9  1  0.27921600  0.37169900  0.86079800  1
  F  F10  1  0.26605400  0.60555700  0.70298500  1
  F  F11  1  0.22797900  0.89540400  0.18189700  1
  F  F12  1  0.20980500  0.88178700  0.52603200  1
  F  F13  1  0.25214100  0.11857200  0.35310800  1
  F  F14  1  0.22406700  0.12701100  0.01835500  1
  F  F15  1  0.25431900  0.88207000  0.85515900  1
  F  F16  1  0.21605500  0.11277500  0.68347900  1
loop_
_geom_bond_atom_site_label_1
_geom_bond_atom_site_label_2
_geom_bond_distance
_geom_bond_site_symmetry_2
Mn0 O2 1.941855 1_565
Mn0 O0 1.950077 1_555
Mn1 O6 1.974103 1_555
Mn1 O0 2.000738 1_445
Mn2 O1 1.929479 1_554
Mn2 O5 1.931522 1_655
Mn3 O3 1.989131 1_565
Mn4 O4 1.941662 1_555
Mn4 O2 1.952018 1_555
Mn5 O3 1.959850 1_555
Mn5 O1 2.001281 1_545
Mn6 O4 2.059714 1_555
Mn7 O5 1.989050 1_556
Mn7 O1 1.990081 1_555
Mn8 O0 2.116129 1_555
Mn8 O6 2.255661 1_555
Mn9 O6 1.906247 1_555
Mn9 O5 1.973284 1_555
Mn10 O2 1.993829 1_555
Mn11 O3 1.951410 1_555
Mn11 O4 1.966213 1_555
F0 Mn3 2.069303 1_555
F0 Mn6 2.076091 1_555
F0 Mn4 2.200352 1_565
F1 Mn9 2.133697 1_555
F1 Mn1 2.152266 1_655
F1 Mn2 2.188584 1_545
F2 Mn2 2.083883 1_555
F2 Mn8 2.085454 1_555
F2 Mn9 2.198985 1_555
F3 Mn1 2.062337 1_655
F3 Mn10 2.130275 1_555
F3 Mn8 2.157849 1_555
F4 Mn6 2.114174 1_555
F4 Mn0 2.119676 1_555
F4 Mn10 2.135045 1_555
F5 Mn7 2.079673 1_555
F5 Mn3 2.107715 1_555
F5 Mn11 2.204996 1_555
F6 Mn9 2.061042 1_556
F6 Mn5 2.130974 1_555
F6 Mn7 2.162948 1_555
F7 Mn0 2.064812 1_455
F7 Mn8 2.133552 1_555
F7 Mn10 2.263656 1_555
F8 Mn10 2.119706 1_555
F8 Mn6 2.119798 1_555
F8 Mn4 2.131696 1_455
F9 Mn11 2.117611 1_555
F9 Mn5 2.135220 1_455
F9 Mn7 2.314073 1_555
F10 Mn3 2.071119 1_455
F10 Mn6 2.156800 1_555
F10 Mn11 2.176168 1_555
F11 Mn2 2.072753 1_455
F11 Mn1 2.108837 1_565
F11 Mn8 2.161474 1_555
F12 Mn0 2.120322 1_455
F12 Mn4 2.145824 1_465
F12 Mn6 2.179650 1_555
F13 Mn10 2.052239 1_555
F13 Mn1 2.079678 1_555
F13 Mn0 2.211419 1_445
F14 Mn5 2.040271 1_454
F14 Mn9 2.136801 1_555
F14 Mn2 2.207031 1_445
F15 Mn3 2.060405 1_455
F15 Mn7 2.067356 1_555
F15 Mn5 2.223286 1_465
F16 Mn4 2.039730 1_455
F16 Mn3 2.198806 1_445
F16 Mn11 2.221226 1_555
