# generated using pymatgen
data_LiVP2(HO4)2
_symmetry_space_group_name_H-M   'P 1'
_cell_length_a   5.38461100
_cell_length_b   7.96638700
_cell_length_c   6.93609600
_cell_angle_alpha   89.99981563
_cell_angle_beta   89.99875392
_cell_angle_gamma   89.99901427
_symmetry_Int_Tables_number   1
_chemical_formula_structural   LiVP2(HO4)2
_chemical_formula_sum   'Li2 V2 P4 H4 O16'
_cell_volume   297.53004616
_cell_formula_units_Z   2
loop_
 _symmetry_equiv_pos_site_id
 _symmetry_equiv_pos_as_xyz
  1  'x, y, z'
loop_
 _atom_site_type_symbol
 _atom_site_label
 _atom_site_symmetry_multiplicity
 _atom_site_fract_x
 _atom_site_fract_y
 _atom_site_fract_z
 _atom_site_occupancy
  Li  Li0  1  0.66653900  0.50001600  0.00001300  1
  Li  Li1  1  0.83346000  0.99999500  0.50000600  1
  V  V0  1  0.99213000  0.99991300  0.99999700  1
  V  V1  1  0.50785300  0.50007200  0.50002300  1
  P  P0  1  0.01274900  0.65404000  0.28171500  1
  P  P1  1  0.01273100  0.34594300  0.71829800  1
  P  P2  1  0.48726400  0.15405200  0.21829800  1
  P  P3  1  0.48726400  0.84595700  0.78170700  1
  H  H0  1  0.18738500  0.21289300  0.48557100  1
  H  H1  1  0.18737500  0.78708000  0.51443400  1
  H  H2  1  0.31261800  0.28711600  0.98556900  1
  H  H3  1  0.31261500  0.71293100  0.01443400  1
  O  O0  1  0.01526900  0.21358900  0.54521800  1
  O  O1  1  0.02291200  0.74619100  0.08554500  1
  O  O2  1  0.02289500  0.25384400  0.91447700  1
  O  O3  1  0.01529300  0.78639300  0.45479800  1
  O  O4  1  0.24527700  0.45533100  0.69871600  1
  O  O5  1  0.24529600  0.54467000  0.30126100  1
  O  O6  1  0.25471200  0.04467500  0.19870800  1
  O  O7  1  0.25472200  0.95533600  0.80125000  1
  O  O8  1  0.47707900  0.24615100  0.41448300  1
  O  O9  1  0.48472100  0.28641100  0.04520900  1
  O  O10  1  0.48471400  0.71360900  0.95478600  1
  O  O11  1  0.47711100  0.75380900  0.58555100  1
  O  O12  1  0.73002500  0.05193800  0.20750300  1
  O  O13  1  0.73002300  0.94804900  0.79246500  1
  O  O14  1  0.76997400  0.44805200  0.70749900  1
  O  O15  1  0.76999400  0.55194500  0.29246700  1
loop_
_geom_bond_atom_site_label_1
_geom_bond_atom_site_label_2
_geom_bond_distance
_geom_bond_site_symmetry_2
Li0 O10 1.988023 1_554
Li0 O9 1.988074 1_555
Li0 O15 2.143896 1_555
Li0 O14 2.144289 1_554
Li1 O0 1.988001 1_665
Li1 O3 1.988079 1_655
Li1 O13 2.143904 1_555
Li1 O12 2.144204 1_565
H0 O0 1.014935 1_555
H0 O8 1.657273 1_555
H1 O3 1.014753 1_555
H1 O11 1.657574 1_555
H2 O9 1.014868 1_556
H2 O2 1.657466 1_555
H3 O10 1.014854 1_554
H3 O1 1.657360 1_555
O0 P1 1.597848 1_555
O1 P0 1.547024 1_555
O1 V0 2.113052 1_454
O2 P1 1.546884 1_555
O2 V0 2.114586 1_445
O3 P0 1.597859 1_555
O4 P1 1.531598 1_555
O4 V1 2.006316 1_555
O5 P0 1.531479 1_555
O5 V1 2.006404 1_555
O6 P2 1.531585 1_555
O6 V0 2.006498 1_444
O7 P3 1.531491 1_555
O7 V0 2.006395 1_455
O8 P2 1.546927 1_555
O8 V1 2.114558 1_555
O9 P2 1.597916 1_555
O10 P3 1.597807 1_555
O11 P3 1.546932 1_555
O11 V1 2.113112 1_555
O12 P2 1.541434 1_555
O12 V0 2.057926 1_544
O13 P3 1.541346 1_555
O13 V0 2.057854 1_555
O14 P1 1.541398 1_655
O14 V1 2.057872 1_555
O15 P0 1.541335 1_655
O15 V1 2.058066 1_555
