# generated using pymatgen
data_Li9Mn4(BO3)8
_symmetry_space_group_name_H-M   'P 1'
_cell_length_a   5.28091300
_cell_length_b   8.72878511
_cell_length_c   9.81036874
_cell_angle_alpha   90.28307333
_cell_angle_beta   93.22414361
_cell_angle_gamma   90.07314928
_symmetry_Int_Tables_number   1
_chemical_formula_structural   Li9Mn4(BO3)8
_chemical_formula_sum   'Li9 Mn4 B8 O24'
_cell_volume   451.49646397
_cell_formula_units_Z   1
loop_
 _symmetry_equiv_pos_site_id
 _symmetry_equiv_pos_as_xyz
  1  'x, y, z'
loop_
 _atom_site_type_symbol
 _atom_site_label
 _atom_site_symmetry_multiplicity
 _atom_site_fract_x
 _atom_site_fract_y
 _atom_site_fract_z
 _atom_site_occupancy
  Li  Li0  1  0.18687300  0.65500000  0.63054300  1
  Li  Li1  1  0.17449600  0.98155800  0.10922400  1
  Li  Li2  1  0.31509600  0.15725200  0.86825500  1
  Li  Li3  1  0.32490800  0.48406300  0.38831800  1
  Li  Li4  1  0.67738500  0.51988600  0.61245900  1
  Li  Li5  1  0.67077500  0.83325800  0.12234800  1
  Li  Li6  1  0.82221600  0.01709200  0.87689100  1
  Li  Li7  1  0.81203600  0.35722400  0.36893000  1
  Li  Li8  1  0.85969200  0.02604400  0.34395000  1
  Mn  Mn0  1  0.13244500  0.30892100  0.12925900  1
  Mn  Mn1  1  0.36870800  0.80078800  0.37427700  1
  Mn  Mn2  1  0.62756300  0.19678300  0.62383600  1
  Mn  Mn3  1  0.87267800  0.69502200  0.87206400  1
  B  B0  1  0.17478300  0.31521300  0.61537500  1
  B  B1  1  0.15841800  0.65389100  0.12910300  1
  B  B2  1  0.32464700  0.81904700  0.88149100  1
  B  B3  1  0.33810700  0.15291600  0.36845100  1
  B  B4  1  0.65962500  0.84696900  0.63091700  1
  B  B5  1  0.67330000  0.18316700  0.12537800  1
  B  B6  1  0.83995600  0.34739200  0.86936100  1
  B  B7  1  0.82756300  0.68127400  0.38222700  1
  O  O0  1  0.06686400  0.30939600  0.93723000  1
  O  O1  1  0.08653600  0.66436800  0.40549100  1
  O  O2  1  0.16404400  0.93791800  0.90412300  1
  O  O3  1  0.22508300  0.67635300  0.84253900  1
  O  O4  1  0.19649700  0.28177200  0.32587900  1
  O  O5  1  0.22744400  0.01412600  0.34967200  1
  O  O6  1  0.27497800  0.17279000  0.65296700  1
  O  O7  1  0.33817700  0.43304900  0.59567900  1
  O  O8  1  0.25321700  0.51188800  0.15675400  1
  O  O9  1  0.30687800  0.77761300  0.17595600  1
  O  O10  1  0.42840400  0.81152000  0.56850400  1
  O  O11  1  0.41433300  0.17197400  0.09695400  1
  O  O12  1  0.58520600  0.83310600  0.90355100  1
  O  O13  1  0.58636400  0.17468300  0.42516000  1
  O  O14  1  0.68740100  0.22480200  0.82102200  1
  O  O15  1  0.75445800  0.49110600  0.83921000  1
  O  O16  1  0.66742900  0.56278000  0.40262400  1
  O  O17  1  0.72998000  0.82451500  0.34321200  1
  O  O18  1  0.75391000  0.99146400  0.65456500  1
  O  O19  1  0.81461700  0.72571300  0.67724300  1
  O  O20  1  0.77852000  0.32597300  0.15854600  1
  O  O21  1  0.82481200  0.05626900  0.12257400  1
  O  O22  1  0.91519800  0.33019400  0.59257200  1
  O  O23  1  0.92607300  0.68437400  0.06362000  1
loop_
_geom_bond_atom_site_label_1
_geom_bond_atom_site_label_2
_geom_bond_distance
_geom_bond_site_symmetry_2
Li0 O10 1.988720 1_555
Li0 O3 2.085599 1_555
Li0 O7 2.130010 1_555
Li0 O19 2.134728 1_455
Li0 O1 2.243284 1_555
Li1 O21 1.970276 1_465
Li1 O9 2.012367 1_555
Li1 O2 2.043684 1_554
Li1 O11 2.096423 1_565
Li1 O5 2.375354 1_565
Li2 O0 2.008814 1_555
Li2 O2 2.111835 1_545
Li2 O6 2.115804 1_555
Li2 O14 2.128423 1_555
Li2 O11 2.278094 1_556
Li3 O16 1.931572 1_555
Li3 O4 1.972940 1_555
Li3 O1 2.028865 1_555
Li3 O7 2.081950 1_555
Li3 O8 2.296087 1_555
Li4 O7 1.942324 1_555
Li4 O19 2.022513 1_555
Li4 O16 2.091914 1_555
Li4 O22 2.094412 1_555
Li4 O15 2.254142 1_555
Li5 O23 1.980644 1_555
Li5 O9 2.078290 1_555
Li5 O21 2.108729 1_565
Li5 O12 2.168511 1_554
Li5 O17 2.173455 1_555
Li6 O2 1.938649 1_645
Li6 O14 2.015855 1_555
Li6 O12 2.061547 1_545
Li6 O18 2.200871 1_545
Li6 O21 2.431978 1_556
Li7 O16 1.984393 1_555
Li7 O20 2.078179 1_555
Li7 O13 2.083547 1_555
Li7 O4 2.198043 1_655
Li7 O22 2.244357 1_555
Li8 O17 1.886785 1_545
Li8 O5 1.942654 1_655
Li8 O13 2.127314 1_555
Li8 O21 2.186539 1_555
Mn0 O8 1.895081 1_555
Mn0 O0 1.896217 1_554
Mn0 O20 1.912782 1_455
Mn0 O11 1.949167 1_555
Mn0 O4 1.955151 1_555
Mn1 O10 1.915580 1_555
Mn1 O1 1.944892 1_555
Mn1 O17 1.959761 1_555
Mn1 O9 1.964023 1_555
Mn1 O5 2.017484 1_565
Mn2 O6 1.911000 1_555
Mn2 O18 1.932296 1_545
Mn2 O22 1.951633 1_555
Mn2 O14 1.956579 1_555
Mn2 O13 1.957539 1_555
Mn3 O23 1.887289 1_556
Mn3 O15 1.905437 1_555
Mn3 O3 1.906513 1_655
Mn3 O19 1.938574 1_555
Mn3 O12 1.976511 1_555
B0 O7 1.363187 1_555
B0 O22 1.382973 1_455
B0 O6 1.394895 1_555
B1 O8 1.360234 1_555
B1 O23 1.379443 1_455
B1 O9 1.394493 1_555
B2 O2 1.366158 1_555
B2 O12 1.386020 1_555
B2 O3 1.394592 1_555
B3 O5 1.351665 1_555
B3 O4 1.403714 1_555
B3 O13 1.407363 1_555
B4 O10 1.369196 1_555
B4 O18 1.369321 1_555
B4 O19 1.400664 1_555
B5 O21 1.368324 1_555
B5 O11 1.383502 1_555
B5 O20 1.393678 1_555
B6 O15 1.362015 1_555
B6 O0 1.379364 1_655
B6 O14 1.403128 1_555
B7 O16 1.357870 1_555
B7 O1 1.382017 1_655
B7 O17 1.399839 1_555
