# generated using pymatgen
data_Li2TiFeO4
_symmetry_space_group_name_H-M   'P 1'
_cell_length_a   6.03475306
_cell_length_b   10.35864732
_cell_length_c   6.03671680
_cell_angle_alpha   90.67416979
_cell_angle_beta   59.90555486
_cell_angle_gamma   73.91856289
_symmetry_Int_Tables_number   1
_chemical_formula_structural   Li2TiFeO4
_chemical_formula_sum   'Li8 Ti4 Fe4 O16'
_cell_volume   308.52642351
_cell_formula_units_Z   4
loop_
 _symmetry_equiv_pos_site_id
 _symmetry_equiv_pos_as_xyz
  1  'x, y, z'
loop_
 _atom_site_type_symbol
 _atom_site_label
 _atom_site_symmetry_multiplicity
 _atom_site_fract_x
 _atom_site_fract_y
 _atom_site_fract_z
 _atom_site_occupancy
  Li  Li0  1  0.00942900  0.24833500  0.74398000  1
  Li  Li1  1  0.00951100  0.74894300  0.24486300  1
  Li  Li2  1  0.50481700  0.24797700  0.24815500  1
  Li  Li3  1  0.50347300  0.74973500  0.75022300  1
  Li  Li4  1  0.51002700  0.49560100  0.99815300  1
  Li  Li5  1  0.50979600  0.99562200  0.49816800  1
  Li  Li6  1  0.51080900  0.24812100  0.75086100  1
  Li  Li7  1  0.50999300  0.74713000  0.25075300  1
  Ti  Ti0  1  0.00475100  0.49914800  0.49673000  1
  Ti  Ti1  1  0.00469300  0.99914100  0.99678800  1
  Ti  Ti2  1  0.00560300  0.24887000  0.24502300  1
  Ti  Ti3  1  0.00349000  0.74898300  0.74842100  1
  Fe  Fe0  1  0.00560300  0.99922600  0.49713000  1
  Fe  Fe1  1  0.50487600  0.99913700  0.99798800  1
  Fe  Fe2  1  0.00563100  0.49916600  0.99718900  1
  Fe  Fe3  1  0.50476200  0.49904100  0.49810100  1
  O  O0  1  0.77443100  0.36883800  0.13624800  1
  O  O1  1  0.77419700  0.87009200  0.63700300  1
  O  O2  1  0.77607200  0.11453600  0.88405000  1
  O  O3  1  0.77429600  0.61451100  0.38598300  1
  O  O4  1  0.23407300  0.38484400  0.60807200  1
  O  O5  1  0.23227800  0.88492000  0.11003000  1
  O  O6  1  0.23446500  0.12919100  0.35736700  1
  O  O7  1  0.23428100  0.63045400  0.85808800  1
  O  O8  1  0.22742500  0.12746400  0.89486100  1
  O  O9  1  0.22633100  0.62722100  0.39588900  1
  O  O10  1  0.77539300  0.12714200  0.34676300  1
  O  O11  1  0.77475500  0.62705500  0.84799400  1
  O  O12  1  0.23544400  0.37162600  0.14636700  1
  O  O13  1  0.23485200  0.87155400  0.64752700  1
  O  O14  1  0.78311000  0.37145400  0.59931300  1
  O  O15  1  0.78210300  0.87118800  0.10020300  1
loop_
_geom_bond_atom_site_label_1
_geom_bond_atom_site_label_2
_geom_bond_distance
_geom_bond_site_symmetry_2
Li0 O8 2.108055 1_555
Li0 O4 2.117640 1_555
Li0 O14 2.124127 1_455
Li0 O2 2.129274 1_455
Li0 O6 2.153961 1_555
Li0 O0 2.181446 1_456
Li1 O5 2.105333 1_555
Li1 O9 2.107709 1_555
Li1 O15 2.124753 1_455
Li1 O3 2.142444 1_455
Li1 O7 2.152214 1_554
Li1 O1 2.183311 1_455
Li2 O10 2.108862 1_555
Li2 O4 2.117638 1_555
Li2 O2 2.118523 1_554
Li2 O12 2.127773 1_555
Li2 O6 2.159416 1_555
Li2 O0 2.171909 1_555
Li3 O5 2.109749 1_556
Li3 O11 2.116016 1_555
Li3 O13 2.120730 1_555
Li3 O3 2.126804 1_555
Li3 O7 2.158665 1_555
Li3 O1 2.172396 1_555
Li4 O12 2.216902 1_556
Li4 O14 2.222715 1_555
Li4 O11 2.238313 1_555
Li4 O9 2.249950 1_556
Li4 O0 2.272471 1_556
Li4 O7 2.363549 1_555
Li5 O13 2.219455 1_555
Li5 O15 2.219894 1_555
Li5 O10 2.242843 1_565
Li5 O8 2.246107 1_565
Li5 O1 2.270788 1_555
Li5 O6 2.359645 1_565
Li6 O14 2.202815 1_555
Li6 O12 2.206820 1_556
Li6 O8 2.227386 1_555
Li6 O10 2.232505 1_555
Li6 O2 2.283318 1_555
Li6 O4 2.387435 1_555
Li7 O15 2.207677 1_555
Li7 O13 2.215524 1_555
Li7 O9 2.222672 1_555
Li7 O11 2.223375 1_554
Li7 O3 2.283840 1_555
Li7 O5 2.387206 1_555
Fe0 O6 2.078462 1_565
Fe0 O1 2.081198 1_455
Fe0 O5 2.136763 1_555
Fe0 O2 2.138728 1_465
Fe0 O13 2.182096 1_555
Fe0 O10 2.186977 1_465
Fe1 O6 2.085037 1_566
Fe1 O1 2.086414 1_555
Fe1 O5 2.131848 1_556
Fe1 O2 2.134191 1_565
Fe1 O15 2.182283 1_556
Fe1 O8 2.188559 1_565
Fe2 O7 2.088806 1_555
Fe2 O0 2.090345 1_456
Fe2 O4 2.145507 1_555
Fe2 O3 2.146885 1_456
Fe2 O12 2.178351 1_556
Fe2 O11 2.184337 1_455
Fe3 O7 2.093327 1_555
Fe3 O0 2.094932 1_555
Fe3 O4 2.123667 1_555
Fe3 O3 2.127762 1_555
Fe3 O14 2.181730 1_555
Fe3 O9 2.188604 1_555
O0 Ti2 1.974621 1_655
O1 Ti3 1.983032 1_655
O2 Ti1 1.960261 1_645
O3 Ti0 1.959503 1_655
O4 Ti0 1.952604 1_555
O5 Ti1 1.952907 1_554
O6 Ti2 1.978608 1_555
O7 Ti3 1.970282 1_555
O8 Ti2 2.002210 1_556
O8 Ti1 2.032703 1_545
O9 Ti3 2.013791 1_555
O9 Ti0 2.025867 1_555
O10 Ti2 2.007549 1_655
O10 Ti1 2.030308 1_644
O11 Ti3 2.003379 1_655
O11 Ti0 2.035164 1_655
O12 Ti2 2.015442 1_555
O12 Ti0 2.029532 1_555
O13 Ti3 2.019881 1_555
O13 Ti1 2.025299 1_555
O14 Ti0 2.022607 1_655
O14 Ti2 2.025124 1_655
O15 Ti3 2.012862 1_654
O15 Ti1 2.028721 1_654
