# generated using pymatgen
data_Li6Fe5CoO12
_symmetry_space_group_name_H-M   'P 1'
_cell_length_a   5.09645948
_cell_length_b   5.09645948
_cell_length_c   10.10334336
_cell_angle_alpha   85.82519042
_cell_angle_beta   85.82519042
_cell_angle_gamma   120.12439452
_symmetry_Int_Tables_number   1
_chemical_formula_structural   Li6Fe5CoO12
_chemical_formula_sum   'Li6 Fe5 Co1 O12'
_cell_volume   224.55181352
_cell_formula_units_Z   1
loop_
 _symmetry_equiv_pos_site_id
 _symmetry_equiv_pos_as_xyz
  1  'x, y, z'
loop_
 _atom_site_type_symbol
 _atom_site_label
 _atom_site_symmetry_multiplicity
 _atom_site_fract_x
 _atom_site_fract_y
 _atom_site_fract_z
 _atom_site_occupancy
  Li  Li0  1  0.73432000  0.05809500  0.75802100  1
  Li  Li1  1  0.05809500  0.73432000  0.75802100  1
  Li  Li2  1  0.61982300  0.61982300  0.24169300  1
  Li  Li3  1  0.38017700  0.38017700  0.75830700  1
  Li  Li4  1  0.94190500  0.26568000  0.24197900  1
  Li  Li5  1  0.26568000  0.94190500  0.24197900  1
  Fe  Fe0  1  0.50000000  0.50000000  0.50000000  1
  Fe  Fe1  1  0.33335200  0.66664800  0.00000000  1
  Fe  Fe2  1  0.66664800  0.33335200  0.00000000  1
  Fe  Fe3  1  0.83280200  0.16719800  0.50000000  1
  Fe  Fe4  1  0.16719800  0.83280200  0.50000000  1
  Co  Co0  1  0.00000000  0.00000000  0.00000000  1
  O  O0  1  0.87072500  0.87072500  0.38509000  1
  O  O1  1  0.70879500  0.70879500  0.89073600  1
  O  O2  1  0.79640700  0.46308300  0.61549700  1
  O  O3  1  0.46308300  0.79640700  0.61549700  1
  O  O4  1  0.03009300  0.35248200  0.89041200  1
  O  O5  1  0.35248200  0.03009300  0.89041200  1
  O  O6  1  0.64751800  0.96990700  0.10958800  1
  O  O7  1  0.96990700  0.64751800  0.10958800  1
  O  O8  1  0.53691700  0.20359300  0.38450300  1
  O  O9  1  0.20359300  0.53691700  0.38450300  1
  O  O10  1  0.29120500  0.29120500  0.10926400  1
  O  O11  1  0.12927500  0.12927500  0.61491000  1
loop_
_geom_bond_atom_site_label_1
_geom_bond_atom_site_label_2
_geom_bond_distance
_geom_bond_site_symmetry_2
Li0 O1 2.092495 1_545
Li0 O3 2.117074 1_545
Li0 O4 2.151292 1_655
Li0 O5 2.216071 1_555
Li0 O11 2.245175 1_655
Li0 O2 2.297633 1_555
Li1 O1 2.092495 1_455
Li1 O2 2.117074 1_455
Li1 O5 2.151292 1_565
Li1 O4 2.216071 1_555
Li1 O11 2.245175 1_565
Li1 O3 2.297633 1_555
Li2 O0 2.065773 1_555
Li2 O7 2.087522 1_555
Li2 O6 2.087522 1_555
Li2 O10 2.288467 1_555
Li2 O9 2.307856 1_555
Li2 O8 2.307856 1_555
Li3 O11 2.065773 1_555
Li3 O4 2.087522 1_555
Li3 O5 2.087522 1_555
Li3 O1 2.288467 1_555
Li3 O3 2.307856 1_555
Li3 O2 2.307856 1_555
Li4 O10 2.092495 1_655
Li4 O9 2.117074 1_655
Li4 O6 2.151292 1_545
Li4 O7 2.216071 1_555
Li4 O0 2.245175 1_545
Li4 O8 2.297633 1_555
Li5 O10 2.092495 1_565
Li5 O8 2.117074 1_565
Li5 O7 2.151292 1_455
Li5 O6 2.216071 1_555
Li5 O0 2.245175 1_455
Li5 O9 2.297633 1_555
Fe0 O8 2.046714 1_555
Fe0 O9 2.046714 1_555
Fe0 O2 2.046714 1_555
Fe0 O3 2.046714 1_555
Fe0 O0 2.065301 1_555
Fe0 O11 2.065301 1_555
Fe1 O7 2.042247 1_455
Fe1 O5 2.042247 1_564
Fe1 O10 2.042399 1_555
Fe1 O1 2.042399 1_554
Fe1 O6 2.049779 1_555
Fe1 O4 2.049779 1_554
Fe2 O6 2.042247 1_545
Fe2 O4 2.042247 1_654
Fe2 O10 2.042399 1_555
Fe2 O1 2.042399 1_554
Fe2 O7 2.049779 1_555
Fe2 O5 2.049779 1_554
Fe3 O2 2.043400 1_555
Fe3 O8 2.043400 1_555
Fe3 O0 2.045505 1_545
Fe3 O11 2.045505 1_655
Fe3 O3 2.065875 1_545
Fe3 O9 2.065875 1_655
Fe4 O3 2.043400 1_555
Fe4 O9 2.043400 1_555
Fe4 O0 2.045505 1_455
Fe4 O11 2.045505 1_565
Fe4 O2 2.065875 1_455
Fe4 O8 2.065875 1_565
Co0 O5 1.971205 1_554
Co0 O4 1.971205 1_554
Co0 O6 1.971205 1_445
Co0 O7 1.971205 1_445
Co0 O10 1.972327 1_555
Co0 O1 1.972327 1_444
