# generated using pymatgen
data_LiCrCO3F2
_symmetry_space_group_name_H-M   'P 1'
_cell_length_a   5.51881200
_cell_length_b   6.60507900
_cell_length_c   9.48367600
_cell_angle_alpha   90.00000000
_cell_angle_beta   90.00000000
_cell_angle_gamma   90.00000000
_symmetry_Int_Tables_number   1
_chemical_formula_structural   LiCrCO3F2
_chemical_formula_sum   'Li4 Cr4 C4 O12 F8'
_cell_volume   345.70075230
_cell_formula_units_Z   4
loop_
 _symmetry_equiv_pos_site_id
 _symmetry_equiv_pos_as_xyz
  1  'x, y, z'
loop_
 _atom_site_type_symbol
 _atom_site_label
 _atom_site_symmetry_multiplicity
 _atom_site_fract_x
 _atom_site_fract_y
 _atom_site_fract_z
 _atom_site_occupancy
  Li  Li0  1  0.71651400  0.25000000  0.25922800  1
  Li  Li1  1  0.21651400  0.25000000  0.24077200  1
  Li  Li2  1  0.28348600  0.75000000  0.74077200  1
  Li  Li3  1  0.78348600  0.75000000  0.75922800  1
  Cr  Cr0  1  0.03347500  0.25000000  0.62537400  1
  Cr  Cr1  1  0.53347500  0.25000000  0.87462600  1
  Cr  Cr2  1  0.46652500  0.75000000  0.12537400  1
  Cr  Cr3  1  0.96652500  0.75000000  0.37462600  1
  C  C0  1  0.47409000  0.25000000  0.55728100  1
  C  C1  1  0.97409000  0.25000000  0.94271900  1
  C  C2  1  0.02591000  0.75000000  0.05728100  1
  C  C3  1  0.52591000  0.75000000  0.44271900  1
  O  O0  1  0.80557600  0.25000000  0.03649000  1
  O  O1  1  0.30557600  0.25000000  0.46351000  1
  O  O2  1  0.69797200  0.25000000  0.53096400  1
  O  O3  1  0.19797200  0.25000000  0.96903600  1
  O  O4  1  0.88073700  0.25000000  0.81371200  1
  O  O5  1  0.38073700  0.25000000  0.68628800  1
  O  O6  1  0.80202800  0.75000000  0.03096400  1
  O  O7  1  0.11926300  0.75000000  0.18628800  1
  O  O8  1  0.61926300  0.75000000  0.31371200  1
  O  O9  1  0.30202800  0.75000000  0.46903600  1
  O  O10  1  0.69442400  0.75000000  0.53649000  1
  O  O11  1  0.19442400  0.75000000  0.96351000  1
  F  F0  1  0.45543200  0.04036500  0.16146400  1
  F  F1  1  0.95543200  0.04036500  0.33853600  1
  F  F2  1  0.45543200  0.45963500  0.16146400  1
  F  F3  1  0.95543200  0.45963500  0.33853600  1
  F  F4  1  0.54456800  0.54036500  0.83853600  1
  F  F5  1  0.04456800  0.54036500  0.66146400  1
  F  F6  1  0.04456800  0.95963500  0.66146400  1
  F  F7  1  0.54456800  0.95963500  0.83853600  1
loop_
_geom_bond_atom_site_label_1
_geom_bond_atom_site_label_2
_geom_bond_distance
_geom_bond_site_symmetry_2
Li0 O0 2.168805 1_555
Li1 O1 2.168805 1_555
Li2 O11 2.168805 1_555
Li3 O10 2.168805 1_555
Cr0 F5 1.949146 1_555
Cr0 F6 1.949146 1_545
Cr0 O4 1.975049 1_455
Cr0 O5 2.001648 1_555
Cr0 O2 2.056696 1_455
Cr0 O1 2.147429 1_555
Cr1 F4 1.949146 1_555
Cr1 F7 1.949146 1_545
Cr1 O5 1.975049 1_555
Cr1 O4 2.001648 1_555
Cr1 O3 2.056696 1_555
Cr1 O0 2.147429 1_556
Cr2 F0 1.949146 1_565
Cr2 F2 1.949146 1_555
Cr2 O8 1.975049 1_555
Cr2 O7 2.001648 1_555
Cr2 O6 2.056696 1_555
Cr2 O11 2.147429 1_554
Cr3 F1 1.949146 1_565
Cr3 F3 1.949146 1_555
Cr3 O7 1.975049 1_655
Cr3 O8 2.001648 1_555
Cr3 O9 2.056696 1_655
Cr3 O10 2.147429 1_555
C0 O2 1.260518 1_555
C0 O1 1.286755 1_555
C0 O5 1.327511 1_555
C1 O3 1.260518 1_655
C1 O0 1.286755 1_556
C1 O4 1.327511 1_555
C2 O6 1.260518 1_455
C2 O11 1.286755 1_554
C2 O7 1.327511 1_555
C3 O9 1.260518 1_555
C3 O10 1.286755 1_555
C3 O8 1.327511 1_555
F0 Li1 2.054636 1_555
F0 Li0 2.202949 1_555
F1 Li0 2.054636 1_555
F1 Li1 2.202949 1_655
F2 Li1 2.054636 1_555
F2 Li0 2.202949 1_555
F3 Li0 2.054636 1_555
F3 Li1 2.202949 1_655
F4 Li3 2.054636 1_555
F4 Li2 2.202949 1_555
F5 Li2 2.054636 1_555
F5 Li3 2.202949 1_455
F6 Li2 2.054636 1_555
F6 Li3 2.202949 1_455
F7 Li3 2.054636 1_555
F7 Li2 2.202949 1_555
