# generated using pymatgen
data_LiPWO5
_symmetry_space_group_name_H-M   'P 1'
_cell_length_a   6.65924600
_cell_length_b   7.54117800
_cell_length_c   7.61360000
_cell_angle_alpha   90.00000000
_cell_angle_beta   90.00000000
_cell_angle_gamma   90.00000000
_symmetry_Int_Tables_number   1
_chemical_formula_structural   LiPWO5
_chemical_formula_sum   'Li4 P4 W4 O20'
_cell_volume   382.34402409
_cell_formula_units_Z   4
loop_
 _symmetry_equiv_pos_site_id
 _symmetry_equiv_pos_as_xyz
  1  'x, y, z'
loop_
 _atom_site_type_symbol
 _atom_site_label
 _atom_site_symmetry_multiplicity
 _atom_site_fract_x
 _atom_site_fract_y
 _atom_site_fract_z
 _atom_site_occupancy
  Li  Li0  1  0.00000000  0.00000000  0.00000000  1
  Li  Li1  1  0.50000000  0.00000000  0.00000000  1
  Li  Li2  1  0.00000000  0.50000000  0.50000000  1
  Li  Li3  1  0.50000000  0.50000000  0.50000000  1
  P  P0  1  0.75000000  0.12496100  0.63004100  1
  P  P1  1  0.25000000  0.37503900  0.13004100  1
  P  P2  1  0.75000000  0.62496100  0.86995900  1
  P  P3  1  0.25000000  0.87503900  0.36995900  1
  W  W0  1  0.25000000  0.14445400  0.72953200  1
  W  W1  1  0.75000000  0.35554600  0.22953200  1
  W  W2  1  0.25000000  0.64445400  0.77046800  1
  W  W3  1  0.75000000  0.85554600  0.27046800  1
  O  O0  1  0.25000000  0.04789300  0.47576600  1
  O  O1  1  0.75000000  0.10030800  0.17548400  1
  O  O2  1  0.93478700  0.13071200  0.75381700  1
  O  O3  1  0.56521300  0.13071200  0.75381700  1
  O  O4  1  0.25000000  0.20697200  0.00914800  1
  O  O5  1  0.75000000  0.29302800  0.50914800  1
  O  O6  1  0.06521300  0.36928800  0.25381700  1
  O  O7  1  0.43478700  0.36928800  0.25381700  1
  O  O8  1  0.25000000  0.39969200  0.67548400  1
  O  O9  1  0.75000000  0.45210700  0.97576600  1
  O  O10  1  0.25000000  0.54789300  0.02423400  1
  O  O11  1  0.75000000  0.60030800  0.32451600  1
  O  O12  1  0.56521300  0.63071200  0.74618300  1
  O  O13  1  0.93478700  0.63071200  0.74618300  1
  O  O14  1  0.25000000  0.70697200  0.49085200  1
  O  O15  1  0.75000000  0.79302800  0.99085200  1
  O  O16  1  0.06521300  0.86928800  0.24618300  1
  O  O17  1  0.43478700  0.86928800  0.24618300  1
  O  O18  1  0.25000000  0.89969200  0.82451600  1
  O  O19  1  0.75000000  0.95210700  0.52423400  1
loop_
_geom_bond_atom_site_label_1
_geom_bond_atom_site_label_2
_geom_bond_distance
_geom_bond_site_symmetry_2
Li0 O2 2.161801 1_454
Li0 O16 2.161801 1_545
Li0 O1 2.264701 1_455
Li0 O18 2.264701 1_544
Li0 O4 2.283109 1_555
Li0 O15 2.283109 1_444
Li1 O3 2.161801 1_554
Li1 O17 2.161801 1_545
Li1 O1 2.264701 1_555
Li1 O18 2.264701 1_544
Li1 O4 2.283109 1_555
Li1 O15 2.283109 1_544
Li2 O6 2.161801 1_555
Li2 O13 2.161801 1_455
Li2 O11 2.264701 1_455
Li2 O8 2.264701 1_555
Li2 O5 2.283109 1_455
Li2 O14 2.283109 1_555
Li3 O7 2.161801 1_555
Li3 O12 2.161801 1_555
Li3 O8 2.264701 1_555
Li3 O11 2.264701 1_555
Li3 O5 2.283109 1_555
Li3 O14 2.283109 1_555
O0 P3 1.532357 1_545
O0 W0 2.064741 1_555
O1 W1 1.968291 1_555
O1 W3 1.982405 1_545
O2 P0 1.550547 1_555
O2 W0 2.109755 1_655
O3 P0 1.550547 1_555
O3 W0 2.109755 1_555
O4 P1 1.566383 1_555
O4 W0 2.180464 1_554
O5 P0 1.566383 1_555
O5 W1 2.180464 1_555
O6 P1 1.550547 1_555
O6 W1 2.109755 1_455
O7 P1 1.550547 1_555
O7 W1 2.109755 1_555
O8 W0 1.968291 1_555
O8 W2 1.982405 1_555
O9 P2 1.532357 1_555
O9 W1 2.064741 1_556
O10 P1 1.532357 1_555
O10 W2 2.064741 1_554
O11 W3 1.968291 1_555
O11 W1 1.982405 1_555
O12 P2 1.550547 1_555
O12 W2 2.109755 1_555
O13 P2 1.550547 1_555
O13 W2 2.109755 1_655
O14 P3 1.566383 1_555
O14 W2 2.180464 1_555
O15 P2 1.566383 1_555
O15 W3 2.180464 1_556
O16 P3 1.550547 1_555
O16 W3 2.109755 1_455
O17 P3 1.550547 1_555
O17 W3 2.109755 1_555
O18 W2 1.968291 1_555
O18 W0 1.982405 1_565
O19 P0 1.532357 1_565
O19 W3 2.064741 1_555
