# generated using pymatgen
data_Cr3(CoO6)2
_symmetry_space_group_name_H-M   'P 1'
_cell_length_a   8.94938900
_cell_length_b   9.03438800
_cell_length_c   12.58216700
_cell_angle_alpha   90.00000000
_cell_angle_beta   90.00000000
_cell_angle_gamma   90.00000000
_symmetry_Int_Tables_number   1
_chemical_formula_structural   Cr3(CoO6)2
_chemical_formula_sum   'Cr12 Co8 O48'
_cell_volume   1017.29654440
_cell_formula_units_Z   4
loop_
 _symmetry_equiv_pos_site_id
 _symmetry_equiv_pos_as_xyz
  1  'x, y, z'
loop_
 _atom_site_type_symbol
 _atom_site_label
 _atom_site_symmetry_multiplicity
 _atom_site_fract_x
 _atom_site_fract_y
 _atom_site_fract_z
 _atom_site_occupancy
  Cr  Cr0  1  0.25000000  0.96915700  0.00000000  1
  Cr  Cr1  1  0.75000000  0.03084300  0.00000000  1
  Cr  Cr2  1  0.60372500  0.60255200  0.14409000  1
  Cr  Cr3  1  0.10372500  0.39744800  0.14409000  1
  Cr  Cr4  1  0.10372500  0.89744800  0.35591000  1
  Cr  Cr5  1  0.60372500  0.10255200  0.35591000  1
  Cr  Cr6  1  0.75000000  0.53084300  0.50000000  1
  Cr  Cr7  1  0.25000000  0.46915700  0.50000000  1
  Cr  Cr8  1  0.39627500  0.89744800  0.64409000  1
  Cr  Cr9  1  0.89627500  0.10255200  0.64409000  1
  Cr  Cr10  1  0.89627500  0.60255200  0.85591000  1
  Cr  Cr11  1  0.39627500  0.39744800  0.85591000  1
  Co  Co0  1  0.97074100  0.74918900  0.12284600  1
  Co  Co1  1  0.47074100  0.25081100  0.12284600  1
  Co  Co2  1  0.47074100  0.75081100  0.37715400  1
  Co  Co3  1  0.97074100  0.24918900  0.37715400  1
  Co  Co4  1  0.02925900  0.75081100  0.62284600  1
  Co  Co5  1  0.52925900  0.24918900  0.62284600  1
  Co  Co6  1  0.52925900  0.74918900  0.87715400  1
  Co  Co7  1  0.02925900  0.25081100  0.87715400  1
  O  O0  1  0.55912200  0.65523300  0.02325800  1
  O  O1  1  0.05912200  0.34476700  0.02325800  1
  O  O2  1  0.36313500  0.07784700  0.07150700  1
  O  O3  1  0.86313500  0.92215300  0.07150700  1
  O  O4  1  0.15511900  0.86292200  0.08292700  1
  O  O5  1  0.65511900  0.13707800  0.08292700  1
  O  O6  1  0.08871100  0.58444100  0.15611200  1
  O  O7  1  0.58871100  0.41555900  0.15611200  1
  O  O8  1  0.77742600  0.65154900  0.17103300  1
  O  O9  1  0.27742600  0.34845100  0.17103300  1
  O  O10  1  0.48351200  0.67722600  0.22921100  1
  O  O11  1  0.98351200  0.32277400  0.22921100  1
  O  O12  1  0.98351200  0.82277400  0.27078900  1
  O  O13  1  0.48351200  0.17722600  0.27078900  1
  O  O14  1  0.77742600  0.15154900  0.32896700  1
  O  O15  1  0.27742600  0.84845100  0.32896700  1
  O  O16  1  0.58871100  0.91555900  0.34388800  1
  O  O17  1  0.08871100  0.08444100  0.34388800  1
  O  O18  1  0.65511900  0.63707800  0.41707300  1
  O  O19  1  0.15511900  0.36292200  0.41707300  1
  O  O20  1  0.36313500  0.57784700  0.42849300  1
  O  O21  1  0.86313500  0.42215300  0.42849300  1
  O  O22  1  0.55912200  0.15523300  0.47674200  1
  O  O23  1  0.05912200  0.84476700  0.47674200  1
  O  O24  1  0.44087800  0.84476700  0.52325800  1
  O  O25  1  0.94087800  0.15523300  0.52325800  1
  O  O26  1  0.13686500  0.57784700  0.57150700  1
  O  O27  1  0.63686500  0.42215300  0.57150700  1
  O  O28  1  0.84488100  0.63707800  0.58292700  1
  O  O29  1  0.34488100  0.36292200  0.58292700  1
  O  O30  1  0.91128900  0.91555900  0.65611200  1
  O  O31  1  0.41128900  0.08444100  0.65611200  1
  O  O32  1  0.22257400  0.84845100  0.67103300  1
  O  O33  1  0.72257400  0.15154900  0.67103300  1
  O  O34  1  0.51648800  0.82277400  0.72921100  1
  O  O35  1  0.01648800  0.17722600  0.72921100  1
  O  O36  1  0.01648800  0.67722600  0.77078900  1
  O  O37  1  0.51648800  0.32277400  0.77078900  1
  O  O38  1  0.72257400  0.65154900  0.82896700  1
  O  O39  1  0.22257400  0.34845100  0.82896700  1
  O  O40  1  0.41128900  0.58444100  0.84388800  1
  O  O41  1  0.91128900  0.41555900  0.84388800  1
  O  O42  1  0.34488100  0.86292200  0.91707300  1
  O  O43  1  0.84488100  0.13707800  0.91707300  1
  O  O44  1  0.63686500  0.92215300  0.92849300  1
  O  O45  1  0.13686500  0.07784700  0.92849300  1
  O  O46  1  0.94087800  0.65523300  0.97674200  1
  O  O47  1  0.44087800  0.34476700  0.97674200  1
loop_
_geom_bond_atom_site_label_1
_geom_bond_atom_site_label_2
_geom_bond_distance
_geom_bond_site_symmetry_2
Cr0 O42 1.652531 1_554
Cr0 O4 1.652531 1_555
Cr0 O2 1.672973 1_565
Cr0 O45 1.672973 1_564
Cr1 O43 1.652531 1_554
Cr1 O5 1.652531 1_555
Cr1 O3 1.672973 1_545
Cr1 O44 1.672973 1_544
Cr2 O0 1.642332 1_555
Cr2 O8 1.651482 1_555
Cr2 O10 1.661205 1_555
Cr2 O7 1.701440 1_555
Cr3 O1 1.642332 1_555
Cr3 O9 1.651482 1_555
Cr3 O11 1.661205 1_455
Cr3 O6 1.701440 1_555
Cr4 O23 1.642332 1_555
Cr4 O15 1.651482 1_555
Cr4 O12 1.661205 1_455
Cr4 O17 1.701440 1_565
Cr5 O22 1.642332 1_555
Cr5 O14 1.651482 1_555
Cr5 O13 1.661205 1_555
Cr5 O16 1.701440 1_545
Cr6 O18 1.652531 1_555
Cr6 O28 1.652531 1_555
Cr6 O27 1.672973 1_555
Cr6 O21 1.672973 1_555
Cr7 O29 1.652531 1_555
Cr7 O19 1.652531 1_555
Cr7 O20 1.672973 1_555
Cr7 O26 1.672973 1_555
Cr8 O24 1.642332 1_555
Cr8 O32 1.651482 1_555
Cr8 O34 1.661205 1_555
Cr8 O31 1.701440 1_565
Cr9 O25 1.642332 1_555
Cr9 O33 1.651482 1_555
Cr9 O35 1.661205 1_655
Cr9 O30 1.701440 1_545
Cr10 O46 1.642332 1_555
Cr10 O38 1.651482 1_555
Cr10 O36 1.661205 1_655
Cr10 O41 1.701440 1_555
Cr11 O47 1.642332 1_555
Cr11 O39 1.651482 1_555
Cr11 O37 1.661205 1_555
Cr11 O40 1.701440 1_555
Co0 O6 1.872203 1_655
Co0 O3 1.945877 1_555
Co0 O12 1.979896 1_555
Co0 O4 2.007680 1_655
Co0 O8 2.034405 1_555
Co0 O46 2.042379 1_554
Co1 O7 1.872203 1_555
Co1 O2 1.945877 1_555
Co1 O13 1.979896 1_555
Co1 O5 2.007680 1_555
Co1 O9 2.034405 1_555
Co1 O47 2.042379 1_554
Co2 O16 1.872203 1_555
Co2 O20 1.945877 1_555
Co2 O10 1.979896 1_555
Co2 O18 2.007680 1_555
Co2 O15 2.034405 1_555
Co2 O24 2.042379 1_555
Co3 O17 1.872203 1_655
Co3 O21 1.945877 1_555
Co3 O11 1.979896 1_555
Co3 O19 2.007680 1_655
Co3 O14 2.034405 1_555
Co3 O25 2.042379 1_555
Co4 O30 1.872203 1_455
Co4 O26 1.945877 1_555
Co4 O36 1.979896 1_555
Co4 O28 2.007680 1_455
Co4 O32 2.034405 1_555
Co4 O23 2.042379 1_555
Co5 O31 1.872203 1_555
Co5 O27 1.945877 1_555
Co5 O37 1.979896 1_555
Co5 O29 2.007680 1_555
Co5 O33 2.034405 1_555
Co5 O22 2.042379 1_555
Co6 O40 1.872203 1_555
Co6 O44 1.945877 1_555
Co6 O34 1.979896 1_555
Co6 O42 2.007680 1_555
Co6 O38 2.034405 1_555
Co6 O0 2.042379 1_556
Co7 O41 1.872203 1_455
Co7 O45 1.945877 1_555
Co7 O35 1.979896 1_555
Co7 O43 2.007680 1_455
Co7 O39 2.034405 1_555
Co7 O1 2.042379 1_556
