# generated using pymatgen
data_Li3V3(PO4)4
_symmetry_space_group_name_H-M   'P 1'
_cell_length_a   8.56369700
_cell_length_b   9.11185274
_cell_length_c   9.16457419
_cell_angle_alpha   104.19335437
_cell_angle_beta   115.04002002
_cell_angle_gamma   102.13025615
_symmetry_Int_Tables_number   1
_chemical_formula_structural   Li3V3(PO4)4
_chemical_formula_sum   'Li6 V6 P8 O32'
_cell_volume   586.64698046
_cell_formula_units_Z   2
loop_
 _symmetry_equiv_pos_site_id
 _symmetry_equiv_pos_as_xyz
  1  'x, y, z'
loop_
 _atom_site_type_symbol
 _atom_site_label
 _atom_site_symmetry_multiplicity
 _atom_site_fract_x
 _atom_site_fract_y
 _atom_site_fract_z
 _atom_site_occupancy
  Li  Li0  1  0.79762600  0.53510500  0.99020700  1
  Li  Li1  1  0.80929300  0.16265900  0.05077800  1
  Li  Li2  1  0.59046000  0.30685200  0.12065400  1
  Li  Li3  1  0.40954000  0.69314800  0.87934600  1
  Li  Li4  1  0.19070700  0.83734100  0.94922200  1
  Li  Li5  1  0.20237400  0.46489500  0.00979300  1
  V  V0  1  0.00185500  0.80352300  0.50233200  1
  V  V1  1  0.35697300  0.81302400  0.38165500  1
  V  V2  1  0.28877500  0.26212200  0.22248000  1
  V  V3  1  0.71122500  0.73787800  0.77752000  1
  V  V4  1  0.64302700  0.18697600  0.61834500  1
  V  V5  1  0.99814500  0.19647700  0.49766800  1
  P  P0  1  0.56316800  0.63040300  0.33087800  1
  P  P1  1  0.01810800  0.92454900  0.19381300  1
  P  P2  1  0.55482800  0.02831400  0.22816400  1
  P  P3  1  0.04796400  0.47055100  0.30428500  1
  P  P4  1  0.95203600  0.52944900  0.69571500  1
  P  P5  1  0.44517200  0.97168600  0.77183600  1
  P  P6  1  0.98189200  0.07545100  0.80618700  1
  P  P7  1  0.43683200  0.36959700  0.66912200  1
  O  O0  1  0.83347400  0.79089200  0.04775400  1
  O  O1  1  0.45570500  0.87442200  0.07114100  1
  O  O2  1  0.84706300  0.41721200  0.15947700  1
  O  O3  1  0.39502700  0.66556400  0.20930600  1
  O  O4  1  0.73502500  0.71023900  0.32306800  1
  O  O5  1  0.17660100  0.86326800  0.19717100  1
  O  O6  1  0.51138400  0.44509000  0.26177300  1
  O  O7  1  0.75766400  0.11194800  0.27821100  1
  O  O8  1  0.15959400  0.41979800  0.21490200  1
  O  O9  1  0.44778800  0.14465800  0.19569500  1
  O  O10  1  0.57330800  0.70740200  0.51015200  1
  O  O11  1  0.03109400  0.96114100  0.37637500  1
  O  O12  1  0.13261300  0.66325400  0.39000800  1
  O  O13  1  0.92901000  0.61007000  0.56383800  1
  O  O14  1  0.04877500  0.08888900  0.16987000  1
  O  O15  1  0.43616000  0.99726900  0.60167400  1
  O  O16  1  0.56384000  0.00273100  0.39832600  1
  O  O17  1  0.95122500  0.91111100  0.83013000  1
  O  O18  1  0.07099000  0.38993000  0.43616200  1
  O  O19  1  0.86738700  0.33674600  0.60999200  1
  O  O20  1  0.96890600  0.03885900  0.62362500  1
  O  O21  1  0.42669200  0.29259800  0.48984800  1
  O  O22  1  0.55221200  0.85534200  0.80430500  1
  O  O23  1  0.84040600  0.58020200  0.78509800  1
  O  O24  1  0.24233600  0.88805200  0.72178900  1
  O  O25  1  0.48861600  0.55491000  0.73822700  1
  O  O26  1  0.82339900  0.13673200  0.80282900  1
  O  O27  1  0.26497500  0.28976100  0.67693200  1
  O  O28  1  0.60497300  0.33443600  0.79069400  1
  O  O29  1  0.15293700  0.58278800  0.84052300  1
  O  O30  1  0.54429500  0.12557800  0.92885900  1
  O  O31  1  0.16652600  0.20910800  0.95224600  1
loop_
_geom_bond_atom_site_label_1
_geom_bond_atom_site_label_2
_geom_bond_distance
_geom_bond_site_symmetry_2
Li0 O28 1.986846 1_555
Li0 O2 2.047455 1_556
Li0 O23 2.175992 1_555
Li0 O0 2.182654 1_556
Li1 O30 1.964383 1_554
Li1 O2 2.180756 1_555
Li1 O14 2.212100 1_655
Li1 O26 2.283652 1_554
Li1 O7 2.433094 1_555
Li2 O30 1.920339 1_554
Li2 O6 2.004688 1_555
Li2 O2 2.049558 1_555
Li2 O9 2.144930 1_555
Li3 O1 1.920339 1_556
Li3 O25 2.004688 1_555
Li3 O29 2.049558 1_555
Li3 O22 2.144930 1_555
Li4 O1 1.964383 1_556
Li4 O29 2.180756 1_555
Li4 O17 2.212100 1_455
Li4 O5 2.283652 1_556
Li4 O24 2.433094 1_555
Li5 O3 1.986846 1_555
Li5 O29 2.047455 1_554
Li5 O8 2.175992 1_555
Li5 O31 2.182654 1_554
O0 P1 1.540998 1_655
O0 V3 2.113962 1_554
O1 P2 1.494609 1_565
O2 P3 1.535224 1_655
O3 P0 1.558275 1_555
O3 V1 1.996344 1_555
O4 P0 1.537876 1_555
O4 V0 1.991004 1_655
O5 P1 1.564145 1_555
O5 V1 1.979937 1_555
O6 P0 1.540154 1_555
O6 V2 2.081373 1_555
O7 P2 1.551203 1_555
O7 V5 1.986704 1_555
O8 P3 1.568969 1_555
O8 V2 1.986123 1_555
O9 P2 1.544292 1_555
O9 V2 1.956226 1_555
O10 P0 1.577176 1_555
O10 V3 2.134196 1_555
O10 V1 2.281134 1_555
O11 P1 1.573582 1_555
O11 V0 2.089111 1_555
O11 V5 2.294422 1_465
O12 P3 1.591324 1_555
O12 V1 2.152576 1_555
O12 V0 2.208884 1_555
O13 P4 1.527666 1_555
O13 V0 2.033918 1_655
O14 P1 1.550512 1_545
O14 V2 2.091111 1_555
O15 P5 1.605045 1_555
O15 V1 2.011987 1_555
O15 V4 2.122289 1_565
O16 P2 1.605045 1_555
O16 V4 2.011987 1_555
O16 V1 2.122289 1_545
O17 P6 1.550512 1_565
O17 V3 2.091111 1_555
O18 P3 1.527666 1_555
O18 V5 2.033918 1_455
O19 P4 1.591324 1_555
O19 V4 2.152576 1_555
O19 V5 2.208884 1_555
O20 P6 1.573582 1_555
O20 V5 2.089111 1_555
O20 V0 2.294422 1_645
O21 P7 1.577176 1_555
O21 V2 2.134196 1_555
O21 V4 2.281134 1_555
O22 P5 1.544292 1_555
O22 V3 1.956226 1_555
O23 P4 1.568969 1_555
O23 V3 1.986123 1_555
O24 P5 1.551203 1_555
O24 V0 1.986704 1_555
O25 P7 1.540154 1_555
O25 V3 2.081373 1_555
O26 P6 1.564145 1_555
O26 V4 1.979937 1_555
O27 P7 1.537876 1_555
O27 V5 1.991004 1_455
O28 P7 1.558275 1_555
O28 V4 1.996344 1_555
O29 P4 1.535224 1_455
O30 P5 1.494609 1_545
O31 P6 1.540998 1_455
O31 V2 2.113962 1_556
