# generated using pymatgen
data_Li3Cr(NiO2)4
_symmetry_space_group_name_H-M   'P 1'
_cell_length_a   5.87346856
_cell_length_b   5.87346856
_cell_length_c   5.90182771
_cell_angle_alpha   59.81624481
_cell_angle_beta   59.81624481
_cell_angle_gamma   60.05370825
_symmetry_Int_Tables_number   1
_chemical_formula_structural   Li3Cr(NiO2)4
_chemical_formula_sum   'Li3 Cr1 Ni4 O8'
_cell_volume   143.62299328
_cell_formula_units_Z   1
loop_
 _symmetry_equiv_pos_site_id
 _symmetry_equiv_pos_as_xyz
  1  'x, y, z'
loop_
 _atom_site_type_symbol
 _atom_site_label
 _atom_site_symmetry_multiplicity
 _atom_site_fract_x
 _atom_site_fract_y
 _atom_site_fract_z
 _atom_site_occupancy
  Li  Li0  1  0.00000000  0.50000000  0.00000000  1
  Li  Li1  1  0.00000000  0.00000000  0.50000000  1
  Li  Li2  1  0.50000000  0.00000000  0.00000000  1
  Cr  Cr0  1  0.50000000  0.50000000  0.00000000  1
  Ni  Ni0  1  0.50000000  0.50000000  0.50000000  1
  Ni  Ni1  1  0.00000000  0.00000000  0.00000000  1
  Ni  Ni2  1  0.00000000  0.50000000  0.50000000  1
  Ni  Ni3  1  0.50000000  0.00000000  0.50000000  1
  O  O0  1  0.26904900  0.26904900  0.24042400  1
  O  O1  1  0.26151700  0.73764400  0.76229400  1
  O  O2  1  0.73764400  0.26151700  0.76229400  1
  O  O3  1  0.75022300  0.75022300  0.27689800  1
  O  O4  1  0.24977700  0.24977700  0.72310200  1
  O  O5  1  0.26235600  0.73848300  0.23770600  1
  O  O6  1  0.73848300  0.26235600  0.23770600  1
  O  O7  1  0.73095100  0.73095100  0.75957600  1
loop_
_geom_bond_atom_site_label_1
_geom_bond_atom_site_label_2
_geom_bond_distance
_geom_bond_site_symmetry_2
Li0 O1 2.068894 1_554
Li0 O6 2.068894 1_455
Li0 O7 2.128334 1_454
Li0 O0 2.128334 1_555
Li0 O4 2.198758 1_554
Li0 O3 2.198758 1_455
Li1 O2 2.181616 1_455
Li1 O6 2.181616 1_455
Li1 O1 2.181616 1_545
Li1 O5 2.181616 1_545
Li1 O0 2.228405 1_555
Li1 O7 2.228405 1_445
Li2 O5 2.068894 1_545
Li2 O2 2.068894 1_554
Li2 O7 2.128334 1_544
Li2 O0 2.128334 1_555
Li2 O3 2.198758 1_545
Li2 O4 2.198758 1_554
Cr0 O0 1.913019 1_555
Cr0 O7 1.913019 1_554
Cr0 O6 1.983280 1_555
Cr0 O2 1.983280 1_554
Cr0 O5 1.983280 1_555
Cr0 O1 1.983280 1_554
Ni0 O4 2.078055 1_555
Ni0 O3 2.078055 1_555
Ni0 O1 2.084945 1_555
Ni0 O5 2.084945 1_555
Ni0 O2 2.084945 1_555
Ni0 O6 2.084945 1_555
Ni1 O3 2.074210 1_445
Ni1 O4 2.074210 1_554
Ni1 O6 2.084670 1_455
Ni1 O1 2.084670 1_544
Ni1 O5 2.084670 1_545
Ni1 O2 2.084670 1_454
Ni2 O4 1.972274 1_555
Ni2 O3 1.972274 1_455
Ni2 O0 2.049236 1_555
Ni2 O7 2.049236 1_455
Ni2 O2 2.075761 1_455
Ni2 O5 2.075761 1_555
Ni3 O4 1.972274 1_555
Ni3 O3 1.972274 1_545
Ni3 O0 2.049236 1_555
Ni3 O7 2.049236 1_545
Ni3 O6 2.075761 1_555
Ni3 O1 2.075761 1_545
