# generated using pymatgen
data_Na7AlH2C4(O3F)4
_symmetry_space_group_name_H-M   'P 1'
_cell_length_a   6.54311600
_cell_length_b   6.76234834
_cell_length_c   8.91758590
_cell_angle_alpha   80.39139147
_cell_angle_beta   82.65973746
_cell_angle_gamma   61.55583374
_symmetry_Int_Tables_number   1
_chemical_formula_structural   Na7AlH2C4(O3F)4
_chemical_formula_sum   'Na7 Al1 H2 C4 O12 F4'
_cell_volume   341.54482671
_cell_formula_units_Z   1
loop_
 _symmetry_equiv_pos_site_id
 _symmetry_equiv_pos_as_xyz
  1  'x, y, z'
loop_
 _atom_site_type_symbol
 _atom_site_label
 _atom_site_symmetry_multiplicity
 _atom_site_fract_x
 _atom_site_fract_y
 _atom_site_fract_z
 _atom_site_occupancy
  Na  Na0  1  0.00000000  0.00000000  0.00000000  1
  Na  Na1  1  0.00000000  0.50000000  0.00000000  1
  Na  Na2  1  0.50000000  0.00000000  0.00000000  1
  Na  Na3  1  0.33986400  0.38512500  0.64192900  1
  Na  Na4  1  0.66013600  0.61487500  0.35807100  1
  Na  Na5  1  0.65716300  0.11947700  0.35506900  1
  Na  Na6  1  0.34283700  0.88052300  0.64493100  1
  Al  Al0  1  0.50000000  0.50000000  0.00000000  1
  H  H0  1  0.99683900  0.22777400  0.49049500  1
  H  H1  1  0.00316100  0.77222600  0.50950500  1
  C  C0  1  0.17576000  0.11109400  0.29851900  1
  C  C1  1  0.82424000  0.88890600  0.70148100  1
  C  C2  1  0.81527100  0.38703700  0.71474200  1
  C  C3  1  0.18472900  0.61296300  0.28525800  1
  O  O0  1  0.35754900  0.99290200  0.37375700  1
  O  O1  1  0.64245100  0.00709800  0.62624300  1
  O  O2  1  0.96919700  0.22873400  0.37871800  1
  O  O3  1  0.03080300  0.77126600  0.62128200  1
  O  O4  1  0.16513900  0.13133700  0.15587300  1
  O  O5  1  0.83486100  0.86866300  0.84412700  1
  O  O6  1  0.02439900  0.25649700  0.66185800  1
  O  O7  1  0.97560100  0.74350300  0.33814200  1
  O  O8  1  0.78292600  0.39238700  0.86398100  1
  O  O9  1  0.21707400  0.60761300  0.13601900  1
  O  O10  1  0.64702300  0.50525500  0.62647900  1
  O  O11  1  0.35297700  0.49474500  0.37352100  1
  F  F0  1  0.35890200  0.39372900  0.89175000  1
  F  F1  1  0.64109800  0.60627100  0.10825000  1
  F  F2  1  0.63512700  0.21387000  0.10561800  1
  F  F3  1  0.36487300  0.78613000  0.89438200  1
loop_
_geom_bond_atom_site_label_1
_geom_bond_atom_site_label_2
_geom_bond_distance
_geom_bond_site_symmetry_2
Na0 O4 2.366126 1_555
Na0 O5 2.366126 1_444
Na0 O8 2.510987 1_454
Na0 O9 2.510987 1_545
Na1 O9 2.395354 1_555
Na1 O8 2.395354 1_454
Na1 O5 2.444521 1_454
Na1 O4 2.444521 1_555
Na2 O4 2.302554 1_555
Na2 O5 2.302554 1_544
Na3 O1 2.387805 1_555
Na3 O11 2.387833 1_555
Na3 O3 2.417891 1_555
Na3 O10 2.482998 1_555
Na3 O6 2.571729 1_555
Na4 O0 2.387805 1_555
Na4 O10 2.387833 1_555
Na4 O2 2.417891 1_555
Na4 O11 2.482998 1_555
Na4 O7 2.571729 1_555
Na5 O11 2.381727 1_555
Na5 O7 2.414461 1_545
Na5 O1 2.414803 1_555
Na5 O0 2.463937 1_545
Na5 O2 2.521465 1_555
Na6 O10 2.381727 1_555
Na6 O6 2.414461 1_565
Na6 O0 2.414803 1_555
Na6 O1 2.463937 1_565
Na6 O3 2.521465 1_555
Al0 F2 1.840497 1_555
Al0 F3 1.840497 1_554
Al0 F0 1.841731 1_554
Al0 F1 1.841731 1_555
Al0 O9 1.966074 1_555
Al0 O8 1.966074 1_554
H0 O2 1.033980 1_555
H0 O6 1.615035 1_655
H1 O3 1.033980 1_555
H1 O7 1.615035 1_455
C0 O4 1.263762 1_555
C0 O0 1.274000 1_545
C0 O2 1.374689 1_455
C1 O5 1.263762 1_555
C1 O1 1.274000 1_565
C1 O3 1.374689 1_655
C2 O10 1.281993 1_555
C2 O6 1.302866 1_655
C2 O8 1.324415 1_555
C3 O11 1.281993 1_555
C3 O7 1.302866 1_455
C3 O9 1.324415 1_555
F0 Na1 2.237790 1_556
F0 Na3 2.259000 1_555
F0 Na2 2.429274 1_556
F1 Na1 2.237790 1_655
F1 Na4 2.259000 1_555
F1 Na2 2.429274 1_565
F2 Na5 2.212894 1_555
F2 Na0 2.295536 1_655
F2 Na2 2.376159 1_555
F3 Na6 2.212894 1_555
F3 Na0 2.295536 1_566
F3 Na2 2.376159 1_566
