# generated using pymatgen
data_H13Se2N3O8
_symmetry_space_group_name_H-M   'P 1'
_cell_length_a   6.44978521
_cell_length_b   6.44978521
_cell_length_c   17.10277711
_cell_angle_alpha   75.05317073
_cell_angle_beta   75.05317073
_cell_angle_gamma   62.70258541
_symmetry_Int_Tables_number   1
_chemical_formula_structural   H13Se2N3O8
_chemical_formula_sum   'H26 Se4 N6 O16'
_cell_volume   602.71554439
_cell_formula_units_Z   2
loop_
 _symmetry_equiv_pos_site_id
 _symmetry_equiv_pos_as_xyz
  1  'x, y, z'
loop_
 _atom_site_type_symbol
 _atom_site_label
 _atom_site_symmetry_multiplicity
 _atom_site_fract_x
 _atom_site_fract_y
 _atom_site_fract_z
 _atom_site_occupancy
  H  H0  1  0.13294400  0.42418800  0.12556200  1
  H  H1  1  0.42418800  0.13294400  0.62556200  1
  H  H2  1  0.35553400  0.50719000  0.00666600  1
  H  H3  1  0.50719000  0.35553400  0.50666600  1
  H  H4  1  0.59863900  0.44835600  0.86355900  1
  H  H5  1  0.44835600  0.59863900  0.36355900  1
  H  H6  1  0.77057900  0.45679300  0.78059000  1
  H  H7  1  0.45679300  0.77057900  0.28059000  1
  H  H8  1  0.23863200  0.13499700  0.34330300  1
  H  H9  1  0.13499700  0.23863200  0.84330300  1
  H  H10  1  0.39463600  0.27683700  0.35186900  1
  H  H11  1  0.27683600  0.39463600  0.85186900  1
  H  H12  1  0.28396500  0.32850300  0.26275700  1
  H  H13  1  0.32850300  0.28396500  0.76275700  1
  H  H14  1  0.09294000  0.43395300  0.34647200  1
  H  H15  1  0.43395300  0.09294000  0.84647200  1
  H  H16  1  0.77281200  0.78561500  0.69992800  1
  H  H17  1  0.78561500  0.77281200  0.19992800  1
  H  H18  1  0.87334900  0.59947400  0.63550400  1
  H  H19  1  0.59947400  0.87334900  0.13550400  1
  H  H20  1  0.73580200  0.68901800  0.91552500  1
  H  H21  1  0.68901800  0.73580200  0.41552500  1
  H  H22  1  0.58838000  0.70250200  0.67646300  1
  H  H23  1  0.70250200  0.58838000  0.17646300  1
  H  H24  1  0.96825500  0.10049300  0.00728700  1
  H  H25  1  0.10049300  0.96825500  0.50728700  1
  Se  Se0  1  0.86032700  0.00794700  0.39000200  1
  Se  Se1  1  0.00794700  0.86032700  0.89000200  1
  Se  Se2  1  0.03175200  0.11339700  0.13061000  1
  Se  Se3  1  0.11339700  0.03175200  0.63061000  1
  N  N0  1  0.42827600  0.60454400  0.02347700  1
  N  N1  1  0.60454400  0.42827600  0.52347700  1
  N  N2  1  0.24732200  0.29695700  0.32561000  1
  N  N3  1  0.29695700  0.24732200  0.82561000  1
  N  N4  1  0.75754800  0.64678700  0.68758600  1
  N  N5  1  0.64678700  0.75754800  0.18758600  1
  O  O0  1  0.90778000  0.92329400  0.48838800  1
  O  O1  1  0.92329400  0.90778000  0.98838800  1
  O  O2  1  0.81204500  0.76371500  0.37176900  1
  O  O3  1  0.76371500  0.81204500  0.87176900  1
  O  O4  1  0.58389100  0.23304300  0.39726900  1
  O  O5  1  0.23304300  0.58389100  0.89726900  1
  O  O6  1  0.36163700  0.76203900  0.33790600  1
  O  O7  1  0.76203900  0.36163700  0.83790600  1
  O  O8  1  0.00554400  0.22215100  0.02528300  1
  O  O9  1  0.22215100  0.00554400  0.52528300  1
  O  O10  1  0.21532000  0.25199200  0.13921200  1
  O  O11  1  0.25199200  0.21532000  0.63921200  1
  O  O12  1  0.76475800  0.26788500  0.17693800  1
  O  O13  1  0.26788500  0.76475800  0.67693800  1
  O  O14  1  0.34745400  0.63378800  0.09480700  1
  O  O15  1  0.63378800  0.34745400  0.59480700  1
loop_
_geom_bond_atom_site_label_1
_geom_bond_atom_site_label_2
_geom_bond_distance
_geom_bond_site_symmetry_2
H0 O10 0.979428 1_555
H1 O11 0.979428 1_555
H2 N0 1.063006 1_555
H3 N1 1.063006 1_555
H4 O7 0.981541 1_555
H5 O6 0.981541 1_555
H6 O7 1.016578 1_555
H7 O6 1.016578 1_555
H8 N2 1.033348 1_555
H9 N3 1.033348 1_555
H10 N2 1.094653 1_555
H10 O4 1.494060 1_555
H11 N3 1.094651 1_555
H11 O5 1.494062 1_555
H12 N2 1.026170 1_555
H13 N3 1.026170 1_555
H14 N2 1.035324 1_555
H15 N3 1.035324 1_555
H16 N4 1.022292 1_555
H17 N5 1.022292 1_555
H18 N4 1.016059 1_555
H19 N5 1.016059 1_555
H20 O3 0.988581 1_555
H21 O2 0.988581 1_555
H22 N4 1.033438 1_555
H23 N5 1.033438 1_555
H24 O8 1.050779 1_655
H24 O1 1.523060 1_544
H25 O9 1.050779 1_565
H25 O0 1.523060 1_455
N0 O14 1.223127 1_555
N1 O15 1.223127 1_555
O0 Se0 1.691638 1_565
O1 Se1 1.691638 1_655
O2 Se0 1.851764 1_565
O3 Se1 1.851764 1_655
O4 Se0 1.704897 1_555
O5 Se1 1.704897 1_555
O8 Se2 1.778228 1_555
O9 Se3 1.778228 1_555
O10 Se2 1.830561 1_555
O11 Se3 1.830561 1_555
O12 Se2 1.647934 1_655
O13 Se3 1.647934 1_565
