# generated using pymatgen
data_SrSc2O4
_symmetry_space_group_name_H-M   'P 1'
_cell_length_a   6.59780831
_cell_length_b   6.59780831
_cell_length_c   6.59780831
_cell_angle_alpha   60.00000000
_cell_angle_beta   60.00000000
_cell_angle_gamma   60.00000000
_symmetry_Int_Tables_number   1
_chemical_formula_structural   SrSc2O4
_chemical_formula_sum   'Sr2 Sc4 O8'
_cell_volume   203.08791632
_cell_formula_units_Z   2
loop_
 _symmetry_equiv_pos_site_id
 _symmetry_equiv_pos_as_xyz
  1  'x, y, z'
loop_
 _atom_site_type_symbol
 _atom_site_label
 _atom_site_symmetry_multiplicity
 _atom_site_fract_x
 _atom_site_fract_y
 _atom_site_fract_z
 _atom_site_occupancy
  Sr  Sr0  1  0.50000000  0.50000000  0.50000000  1
  Sr  Sr1  1  0.75000000  0.75000000  0.75000000  1
  Sc  Sc0  1  0.62500000  0.12500000  0.12500000  1
  Sc  Sc1  1  0.12500000  0.12500000  0.12500000  1
  Sc  Sc2  1  0.12500000  0.12500000  0.62500000  1
  Sc  Sc3  1  0.12500000  0.62500000  0.12500000  1
  O  O0  1  0.89490100  0.89490100  0.89490100  1
  O  O1  1  0.93470200  0.35509900  0.35509900  1
  O  O2  1  0.35509900  0.93470200  0.35509900  1
  O  O3  1  0.35509900  0.35509900  0.93470200  1
  O  O4  1  0.89490100  0.89490100  0.31529800  1
  O  O5  1  0.89490100  0.31529800  0.89490100  1
  O  O6  1  0.31529800  0.89490100  0.89490100  1
  O  O7  1  0.35509900  0.35509900  0.35509900  1
loop_
_geom_bond_atom_site_label_1
_geom_bond_atom_site_label_2
_geom_bond_distance
_geom_bond_site_symmetry_2
O0 Sc2 2.162988 1_665
O0 Sc3 2.162988 1_656
O0 Sc0 2.162988 1_566
O0 Sr1 2.341783 1_555
O1 Sc1 2.162987 1_655
O1 Sc3 2.162992 1_655
O1 Sc2 2.162992 1_655
O1 Sr0 2.341778 1_555
O2 Sc1 2.162987 1_565
O2 Sc2 2.162992 1_565
O2 Sc0 2.162992 1_565
O2 Sr0 2.341778 1_555
O3 Sc1 2.162987 1_556
O3 Sc0 2.162992 1_556
O3 Sc3 2.162992 1_556
O3 Sr0 2.341778 1_555
O4 Sc1 2.162987 1_665
O4 Sc0 2.162992 1_565
O4 Sc3 2.162992 1_655
O4 Sr1 2.341778 1_555
O5 Sc1 2.162987 1_656
O5 Sc0 2.162992 1_556
O5 Sc2 2.162992 1_655
O5 Sr1 2.341778 1_555
O6 Sc1 2.162987 1_566
O6 Sc2 2.162992 1_565
O6 Sc3 2.162992 1_556
O6 Sr1 2.341778 1_555
O7 Sc0 2.162988 1_555
O7 Sc2 2.162988 1_555
O7 Sc3 2.162988 1_555
O7 Sr0 2.341783 1_555
