# generated using pymatgen
data_Li2FeNi3O8
_symmetry_space_group_name_H-M   'P 1'
_cell_length_a   5.68544765
_cell_length_b   5.68544765
_cell_length_c   9.09588300
_cell_angle_alpha   90.00000000
_cell_angle_beta   90.00000000
_cell_angle_gamma   119.99999597
_symmetry_Int_Tables_number   1
_chemical_formula_structural   Li2FeNi3O8
_chemical_formula_sum   'Li4 Fe2 Ni6 O16'
_cell_volume   254.62722989
_cell_formula_units_Z   2
loop_
 _symmetry_equiv_pos_site_id
 _symmetry_equiv_pos_as_xyz
  1  'x, y, z'
loop_
 _atom_site_type_symbol
 _atom_site_label
 _atom_site_symmetry_multiplicity
 _atom_site_fract_x
 _atom_site_fract_y
 _atom_site_fract_z
 _atom_site_occupancy
  Li  Li0  1  0.33333300  0.66666700  0.89443700  1
  Li  Li1  1  0.00000000  0.00000000  0.99595700  1
  Li  Li2  1  0.00000000  0.00000000  0.49595700  1
  Li  Li3  1  0.66666700  0.33333300  0.39443700  1
  Fe  Fe0  1  0.33333300  0.66666700  0.49114000  1
  Fe  Fe1  1  0.66666700  0.33333300  0.99114000  1
  Ni  Ni0  1  0.17023800  0.82976200  0.21347000  1
  Ni  Ni1  1  0.17023800  0.34047700  0.21347000  1
  Ni  Ni2  1  0.65952300  0.82976200  0.21347000  1
  Ni  Ni3  1  0.34047700  0.17023800  0.71347000  1
  Ni  Ni4  1  0.82976200  0.65952300  0.71347000  1
  Ni  Ni5  1  0.82976200  0.17023800  0.71347000  1
  O  O0  1  0.16792000  0.83208000  0.59198700  1
  O  O1  1  0.04244700  0.52122300  0.34667400  1
  O  O2  1  0.33333300  0.66666700  0.11165000  1
  O  O3  1  0.00000000  0.00000000  0.30429900  1
  O  O4  1  0.00000000  0.00000000  0.80429900  1
  O  O5  1  0.16792000  0.33583900  0.59198700  1
  O  O6  1  0.47877700  0.95755300  0.34667400  1
  O  O7  1  0.47877700  0.52122300  0.34667400  1
  O  O8  1  0.33583900  0.16792000  0.09198700  1
  O  O9  1  0.66416100  0.83208000  0.59198700  1
  O  O10  1  0.52122300  0.47877700  0.84667400  1
  O  O11  1  0.52122300  0.04244700  0.84667400  1
  O  O12  1  0.66666700  0.33333300  0.61165000  1
  O  O13  1  0.83208000  0.66416100  0.09198700  1
  O  O14  1  0.95755300  0.47877700  0.84667400  1
  O  O15  1  0.83208000  0.16792000  0.09198700  1
loop_
_geom_bond_atom_site_label_1
_geom_bond_atom_site_label_2
_geom_bond_distance
_geom_bond_site_symmetry_2
Li0 O10 1.900565 1_555
Li0 O11 1.900565 1_565
Li0 O14 1.900565 1_455
Li0 O2 1.975744 1_556
Li1 O4 1.743299 1_555
Li1 O8 1.870108 1_556
Li1 O13 1.870108 1_446
Li1 O15 1.870113 1_456
Li2 O3 1.743299 1_555
Li2 O9 1.870108 1_445
Li2 O5 1.870108 1_555
Li2 O0 1.870113 1_545
Li3 O7 1.900565 1_555
Li3 O1 1.900565 1_655
Li3 O6 1.900565 1_545
Li3 O12 1.975744 1_555
Fe0 O0 1.869424 1_555
Fe0 O5 1.869433 1_555
Fe0 O9 1.869433 1_555
Fe0 O6 1.943721 1_555
Fe0 O1 1.943721 1_555
Fe0 O7 1.943728 1_555
Fe1 O15 1.869424 1_556
Fe1 O8 1.869433 1_556
Fe1 O13 1.869433 1_556
Fe1 O11 1.943721 1_555
Fe1 O14 1.943721 1_555
Fe1 O10 1.943728 1_555
Ni0 O2 1.853974 1_555
Ni0 O3 1.868937 1_565
Ni0 O6 1.948980 1_555
Ni0 O1 1.948980 1_555
Ni0 O13 1.998409 1_455
Ni0 O8 1.998409 1_565
Ni1 O2 1.853974 1_555
Ni1 O3 1.868942 1_555
Ni1 O1 1.948972 1_555
Ni1 O7 1.948979 1_555
Ni1 O8 1.998409 1_555
Ni1 O15 1.998409 1_455
Ni2 O2 1.853974 1_555
Ni2 O3 1.868942 1_665
Ni2 O6 1.948972 1_555
Ni2 O7 1.948979 1_555
Ni2 O13 1.998409 1_555
Ni2 O15 1.998409 1_565
Ni3 O12 1.853974 1_555
Ni3 O4 1.868942 1_555
Ni3 O11 1.948972 1_555
Ni3 O10 1.948979 1_555
Ni3 O5 1.998409 1_555
Ni3 O0 1.998409 1_545
Ni4 O12 1.853974 1_555
Ni4 O4 1.868942 1_665
Ni4 O14 1.948972 1_555
Ni4 O10 1.948979 1_555
Ni4 O9 1.998409 1_555
Ni4 O0 1.998409 1_655
Ni5 O12 1.853974 1_555
Ni5 O4 1.868937 1_655
Ni5 O11 1.948980 1_555
Ni5 O14 1.948980 1_555
Ni5 O9 1.998409 1_545
Ni5 O5 1.998409 1_655
