# generated using pymatgen
data_Li9(FeO4)2
_symmetry_space_group_name_H-M   'P 1'
_cell_length_a   5.53851200
_cell_length_b   6.77415571
_cell_length_c   10.87106174
_cell_angle_alpha   90.69319437
_cell_angle_beta   101.51839965
_cell_angle_gamma   90.51974250
_symmetry_Int_Tables_number   1
_chemical_formula_structural   Li9(FeO4)2
_chemical_formula_sum   'Li18 Fe4 O16'
_cell_volume   399.59763799
_cell_formula_units_Z   2
loop_
 _symmetry_equiv_pos_site_id
 _symmetry_equiv_pos_as_xyz
  1  'x, y, z'
loop_
 _atom_site_type_symbol
 _atom_site_label
 _atom_site_symmetry_multiplicity
 _atom_site_fract_x
 _atom_site_fract_y
 _atom_site_fract_z
 _atom_site_occupancy
  Li  Li0  1  0.11960700  0.83438600  0.71147000  1
  Li  Li1  1  0.04336500  0.74716700  0.33793300  1
  Li  Li2  1  0.09047300  0.46591000  0.19820000  1
  Li  Li3  1  0.28838600  0.04201100  0.93073900  1
  Li  Li4  1  0.21151900  0.52333800  0.56992000  1
  Li  Li5  1  0.30295400  0.47901100  0.94190800  1
  Li  Li6  1  0.39784100  0.29647400  0.78412200  1
  Li  Li7  1  0.51404000  0.74803000  0.84227000  1
  Li  Li8  1  0.54187600  0.02462700  0.68695000  1
  Li  Li9  1  0.46052500  0.23771300  0.17977700  1
  Li  Li10  1  0.57720800  0.74676500  0.22928100  1
  Li  Li11  1  0.81340300  0.01597100  0.44421900  1
  Li  Li12  1  0.80050700  0.45730200  0.42843700  1
  Li  Li13  1  0.68579400  0.52154200  0.07249100  1
  Li  Li14  1  0.90508000  0.54505900  0.80297800  1
  Li  Li15  1  0.71507000  0.97128200  0.07805600  1
  Li  Li16  1  0.97834700  0.23641600  0.66504500  1
  Li  Li17  1  0.90053200  0.20832400  0.28303600  1
  Fe  Fe0  1  0.81805300  0.24660500  0.93430400  1
  Fe  Fe1  1  0.17031800  0.76104400  0.06456100  1
  Fe  Fe2  1  0.32593000  0.22322600  0.43880800  1
  Fe  Fe3  1  0.67928900  0.73322100  0.56806100  1
  O  O0  1  0.09362400  0.27518900  0.85416700  1
  O  O1  1  0.15625700  0.74694300  0.88663800  1
  O  O2  1  0.11626400  0.02273600  0.38039900  1
  O  O3  1  0.12230500  0.44630800  0.37916500  1
  O  O4  1  0.32249200  0.24263100  0.60964700  1
  O  O5  1  0.42373100  0.74275200  0.65039000  1
  O  O6  1  0.36518400  0.53025700  0.12209200  1
  O  O7  1  0.39256100  0.96831000  0.11439700  1
  O  O8  1  0.58987900  0.04213100  0.86967000  1
  O  O9  1  0.62797300  0.48115500  0.88834500  1
  O  O10  1  0.60500400  0.22735100  0.36582000  1
  O  O11  1  0.71399500  0.73612900  0.40571500  1
  O  O12  1  0.83022000  0.97322000  0.62002700  1
  O  O13  1  0.88134300  0.52228500  0.61999000  1
  O  O14  1  0.84282800  0.25665500  0.11119400  1
  O  O15  1  0.90029300  0.73342200  0.14882900  1
loop_
_geom_bond_atom_site_label_1
_geom_bond_atom_site_label_2
_geom_bond_distance
_geom_bond_site_symmetry_2
Li0 O12 1.963481 1_455
Li0 O1 1.973171 1_555
Li0 O5 2.029550 1_555
Li1 O2 1.936987 1_565
Li1 O15 2.050901 1_455
Li1 O11 2.100481 1_455
Li1 O3 2.122683 1_555
Li2 O6 1.920656 1_555
Li2 O3 1.946058 1_555
Li2 O14 2.049253 1_455
Li2 O15 2.124589 1_455
Li3 O8 1.916185 1_555
Li3 O0 2.013880 1_555
Li3 O7 2.034133 1_546
Li3 O1 2.137963 1_545
Li4 O5 1.970313 1_555
Li4 O13 2.009425 1_455
Li4 O4 2.028608 1_555
Li4 O3 2.092042 1_555
Li5 O0 1.912539 1_555
Li5 O6 1.946259 1_556
Li5 O9 1.999512 1_555
Li5 O1 2.042938 1_555
Li6 O4 1.889221 1_555
Li6 O9 1.957928 1_555
Li6 O0 1.987504 1_555
Li6 O8 2.154466 1_555
Li7 O9 1.958005 1_555
Li7 O8 2.038345 1_565
Li7 O5 2.045433 1_555
Li7 O1 2.130938 1_555
Li8 O12 1.915443 1_545
Li8 O8 1.952740 1_555
Li8 O4 2.004569 1_555
Li8 O5 2.021707 1_545
Li9 O7 1.956197 1_545
Li9 O10 2.023318 1_555
Li9 O6 2.125131 1_555
Li9 O14 2.384015 1_555
Li10 O11 1.918850 1_555
Li10 O6 2.066111 1_555
Li10 O7 2.102639 1_555
Li10 O15 2.145021 1_555
Li11 O12 1.920441 1_545
Li11 O2 1.939396 1_655
Li11 O10 1.943104 1_555
Li11 O11 1.985402 1_545
Li12 O10 1.926578 1_555
Li12 O11 1.959253 1_555
Li12 O3 1.962571 1_655
Li12 O13 2.081457 1_555
Li13 O15 1.925271 1_555
Li13 O6 1.957262 1_555
Li13 O9 1.978381 1_554
Li13 O14 2.013386 1_555
Li14 O13 1.971308 1_555
Li14 O9 1.992640 1_555
Li14 O1 2.015651 1_655
Li14 O0 2.137618 1_655
Li15 O7 1.904843 1_555
Li15 O15 1.996346 1_555
Li15 O14 2.055262 1_565
Li15 O8 2.290870 1_564
Li16 O12 1.970638 1_545
Li16 O0 2.040403 1_655
Li16 O13 2.053142 1_555
Li16 O4 2.110705 1_655
Li17 O14 1.864782 1_555
Li17 O2 1.919080 1_655
Li17 O10 2.023582 1_555
Li17 O3 2.147199 1_655
Fe0 O8 1.897218 1_555
Fe0 O14 1.900686 1_556
Fe0 O0 1.911967 1_655
Fe0 O9 1.929237 1_555
Fe1 O7 1.861156 1_555
Fe1 O15 1.912345 1_455
Fe1 O1 1.921354 1_554
Fe1 O6 1.945469 1_555
Fe2 O2 1.803408 1_555
Fe2 O4 1.864162 1_555
Fe2 O10 1.873217 1_555
Fe2 O3 1.933543 1_555
Fe3 O11 1.813386 1_555
Fe3 O5 1.820649 1_555
Fe3 O13 1.846361 1_555
Fe3 O12 1.850850 1_555
