# generated using pymatgen
data_Sn2N2O
_symmetry_space_group_name_H-M   'P 1'
_cell_length_a   8.72918009
_cell_length_b   8.73849328
_cell_length_c   8.73701093
_cell_angle_alpha   109.41760769
_cell_angle_beta   109.24852187
_cell_angle_gamma   109.24751863
_symmetry_Int_Tables_number   1
_chemical_formula_structural   Sn2N2O
_chemical_formula_sum   'Sn16 N16 O8'
_cell_volume   516.18020828
_cell_formula_units_Z   8
loop_
 _symmetry_equiv_pos_site_id
 _symmetry_equiv_pos_as_xyz
  1  'x, y, z'
loop_
 _atom_site_type_symbol
 _atom_site_label
 _atom_site_symmetry_multiplicity
 _atom_site_fract_x
 _atom_site_fract_y
 _atom_site_fract_z
 _atom_site_occupancy
  Sn  Sn0  1  0.97410353  0.22361381  0.26240566  1
  Sn  Sn1  1  0.99055511  0.99726394  0.49034148  1
  Sn  Sn2  1  0.72983372  0.75737515  0.97521217  1
  Sn  Sn3  1  0.77999216  0.24038682  0.53046829  1
  Sn  Sn4  1  0.25334480  0.53354878  0.78668140  1
  Sn  Sn5  1  0.25268892  0.03284741  0.28218932  1
  Sn  Sn6  1  0.53782501  0.28703192  0.75205004  1
  Sn  Sn7  1  0.51464596  0.50439896  0.50190942  1
  Sn  Sn8  1  0.48860519  0.99023384  0.99111462  1
  Sn  Sn9  1  0.00671924  0.50542985  0.01029174  1
  Sn  Sn10  1  0.46540053  0.71465392  0.24981980  1
  Sn  Sn11  1  0.75018715  0.47266721  0.20834778  1
  Sn  Sn12  1  0.73609997  0.95367179  0.70482539  1
  Sn  Sn13  1  0.20769884  0.73316738  0.46218073  1
  Sn  Sn14  1  0.29581645  0.25532952  0.03012728  1
  Sn  Sn15  1  0.03399476  0.78645771  0.74988429  1
  N  N0  1  0.04148509  0.27990036  0.54425242  1
  N  N1  1  0.54175113  0.26353720  0.50102243  1
  N  N2  1  0.22482245  0.45421626  0.99185749  1
  N  N3  1  0.51491811  0.76958573  0.03907694  1
  N  N4  1  0.99471818  0.44928163  0.23077824  1
  N  N5  1  0.72444420  0.96161909  0.45900253  1
  N  N6  1  0.50076092  0.22160392  0.94932935  1
  N  N7  1  0.77919906  0.73854242  0.74386210  1
  N  N8  1  0.23394584  0.77627776  0.23599343  1
  N  N9  1  0.26027059  0.00299087  0.03726439  1
  N  N10  1  0.77202576  0.54267958  0.99574588  1
  N  N11  1  0.45627676  0.72545942  0.50778679  1
  N  N12  1  0.26032398  0.75444485  0.72638227  1
  N  N13  1  0.97025287  0.97056892  0.22723937  1
  N  N14  1  0.95853331  0.73607653  0.46118999  1
  N  N15  1  0.54611353  0.50013474  0.26987831  1
  O  O0  1  0.44786543  0.48276241  0.71702048  1
  O  O1  1  0.04093783  0.05290874  0.77074223  1
  O  O2  1  0.71733873  0.21446478  0.26505431  1
  O  O3  1  0.77576986  0.22543969  0.77938916  1
  O  O4  1  0.73365591  0.01616014  0.95811924  1
  O  O5  1  0.97809287  0.53329019  0.76656392  1
  O  O6  1  0.27054774  0.05374172  0.55162628  1
  O  O7  1  0.23843749  0.28623407  0.28297707  1
loop_
_geom_bond_atom_site_label_1
_geom_bond_atom_site_label_2
_geom_bond_distance
_geom_bond_site_symmetry_2
N0 Sn4 2.100614 1_555
N0 Sn3 2.148381 1_455
N0 Sn0 2.168118 1_455
N0 Sn1 2.209979 1_445
N1 Sn3 2.095536 1_555
N1 Sn6 2.146716 1_555
N1 Sn7 2.191983 1_555
N1 Sn5 2.233621 1_555
N2 Sn14 2.115716 1_556
N2 Sn9 2.137033 1_556
N2 Sn4 2.182398 1_555
N2 Sn10 2.233180 1_556
N3 Sn2 2.150542 1_554
N3 Sn8 2.170669 1_554
N3 Sn10 2.187037 1_555
N3 Sn4 2.209437 1_554
N4 Sn0 2.039278 1_555
N4 Sn11 2.162152 1_555
N4 Sn9 2.165717 1_655
N4 Sn13 2.200959 1_655
N5 Sn10 2.132165 1_555
N5 Sn3 2.137618 1_565
N5 Sn12 2.141912 1_555
N5 Sn1 2.148230 1_555
N6 Sn6 2.074474 1_555
N6 Sn8 2.146439 1_545
N6 Sn14 2.197194 1_556
N6 Sn11 2.230688 1_556
N7 Sn15 2.102181 1_655
N7 Sn12 2.144743 1_555
N7 Sn2 2.167563 1_555
N7 Sn7 2.185938 1_555
N8 Sn5 2.080701 1_565
N8 Sn9 2.155778 1_555
N8 Sn13 2.199184 1_555
N8 Sn10 2.232996 1_555
N9 Sn5 2.094090 1_555
N9 Sn14 2.148381 1_555
N9 Sn8 2.189575 1_544
N9 Sn15 2.212051 1_544
N10 Sn2 2.079286 1_555
N10 Sn9 2.148186 1_656
N10 Sn6 2.158667 1_555
N10 Sn11 2.184756 1_556
N11 Sn13 2.101388 1_555
N11 Sn7 2.143374 1_555
N11 Sn12 2.154129 1_555
N11 Sn10 2.253210 1_555
N12 Sn13 2.129121 1_555
N12 Sn15 2.148803 1_555
N12 Sn4 2.151074 1_555
N12 Sn8 2.156729 1_555
N13 Sn2 2.090828 1_554
N13 Sn0 2.116017 1_565
N13 Sn1 2.171996 1_555
N13 Sn5 2.183183 1_665
N14 Sn1 2.120897 1_555
N14 Sn11 2.167042 1_555
N14 Sn13 2.180729 1_655
N14 Sn15 2.228189 1_655
N15 Sn11 2.085069 1_555
N15 Sn7 2.123745 1_555
N15 Sn14 2.158530 1_555
N15 Sn10 2.246984 1_555
O0 Sn4 2.109320 1_555
O0 Sn6 2.170454 1_555
O0 Sn7 2.189470 1_555
O0 Sn2 2.398171 1_555
O1 Sn14 2.151824 1_556
O1 Sn1 2.188206 1_445
O1 Sn15 2.252952 1_545
O1 Sn12 2.302315 1_445
O2 Sn3 2.112037 1_555
O2 Sn8 2.169336 1_544
O2 Sn0 2.224376 1_555
O2 Sn11 2.414327 1_555
O3 Sn12 2.112954 1_545
O3 Sn9 2.214714 1_656
O3 Sn3 2.233122 1_555
O3 Sn6 2.270758 1_555
O4 Sn12 2.105103 1_545
O4 Sn8 2.200146 1_545
O4 Sn2 2.305514 1_545
O4 Sn0 2.316777 1_556
O5 Sn9 2.165700 1_656
O5 Sn15 2.168673 1_655
O5 Sn3 2.239657 1_555
O5 Sn4 2.349827 1_655
O6 Sn6 2.112480 1_555
O6 Sn1 2.161039 1_445
O6 Sn5 2.247840 1_555
O6 Sn13 2.451050 1_545
O7 Sn0 2.117696 1_455
O7 Sn7 2.147243 1_555
O7 Sn5 2.256174 1_555
O7 Sn14 2.371962 1_555
