# generated using pymatgen
data_Li13V24O52
_symmetry_space_group_name_H-M   'P 1'
_cell_length_a   8.52092100
_cell_length_b   11.17317200
_cell_length_c   11.68691274
_cell_angle_alpha   110.13299176
_cell_angle_beta   103.60717590
_cell_angle_gamma   97.83840962
_symmetry_Int_Tables_number   1
_chemical_formula_structural   Li13V24O52
_chemical_formula_sum   'Li13 V24 O52'
_cell_volume   986.12776003
_cell_formula_units_Z   1
loop_
 _symmetry_equiv_pos_site_id
 _symmetry_equiv_pos_as_xyz
  1  'x, y, z'
loop_
 _atom_site_type_symbol
 _atom_site_label
 _atom_site_symmetry_multiplicity
 _atom_site_fract_x
 _atom_site_fract_y
 _atom_site_fract_z
 _atom_site_occupancy
  Li  Li0  1  0.12023600  0.41129500  0.15360800  1
  Li  Li1  1  0.00250500  0.00016300  0.00278800  1
  Li  Li2  1  0.75228200  0.00012200  0.25032400  1
  Li  Li3  1  0.49876000  0.99945400  0.49697400  1
  Li  Li4  1  0.25296700  0.01834800  0.75693100  1
  Li  Li5  1  0.38006100  0.58659100  0.34488100  1
  Li  Li6  1  0.62886200  0.58681800  0.09410500  1
  Li  Li7  1  0.13027100  0.58363900  0.59518200  1
  Li  Li8  1  0.97492000  0.80888000  0.54716200  1
  Li  Li9  1  0.61949600  0.41125100  0.65471000  1
  Li  Li10  1  0.36953700  0.41248800  0.90420400  1
  Li  Li11  1  0.87048200  0.41301800  0.40489500  1
  Li  Li12  1  0.88096200  0.58672000  0.84686600  1
  V  V0  1  0.31931300  0.63459800  0.11775100  1
  V  V1  1  0.06947800  0.62937900  0.36342300  1
  V  V2  1  0.17985100  0.00378900  0.50629500  1
  V  V3  1  0.68082100  0.99729400  0.00887500  1
  V  V4  1  0.43220300  0.99840000  0.25357400  1
  V  V5  1  0.07746100  0.00154700  0.24592900  1
  V  V6  1  0.42943000  0.36455400  0.13009900  1
  V  V7  1  0.17983000  0.36507600  0.38104200  1
  V  V8  1  0.46481300  0.63495900  0.60617300  1
  V  V9  1  0.21728800  0.63622000  0.85755900  1
  V  V10  1  0.96676500  0.63648200  0.10802500  1
  V  V11  1  0.71359900  0.62961300  0.35375300  1
  V  V12  1  0.78181800  0.36372000  0.14071100  1
  V  V13  1  0.28368200  0.36562300  0.64355400  1
  V  V14  1  0.53166100  0.36412500  0.39197300  1
  V  V15  1  0.03146400  0.36477700  0.89285500  1
  V  V16  1  0.81555500  0.62927700  0.61947100  1
  V  V17  1  0.56966700  0.63405200  0.86909100  1
  V  V18  1  0.92389900  0.00184500  0.76003400  1
  V  V19  1  0.82123900  0.00250100  0.49608700  1
  V  V20  1  0.57066500  0.99888300  0.74452200  1
  V  V21  1  0.32179800  0.00123500  0.99081200  1
  V  V22  1  0.93050100  0.36571500  0.63170600  1
  V  V23  1  0.68170000  0.36552400  0.88220600  1
  O  O0  1  0.00590900  0.80147900  0.16438000  1
  O  O1  1  0.03827700  0.99468700  0.62035800  1
  O  O2  1  0.54413300  0.99986500  0.11346700  1
  O  O3  1  0.28053800  0.00079300  0.36925300  1
  O  O4  1  0.16679900  0.60800100  0.22100200  1
  O  O5  1  0.24731100  0.41676800  0.03157300  1
  O  O6  1  0.37504700  0.80149700  0.18322800  1
  O  O7  1  0.12125000  0.79803600  0.43642200  1
  O  O8  1  0.12382300  0.19822800  0.31333000  1
  O  O9  1  0.37559200  0.19825500  0.06398000  1
  O  O10  1  0.87632200  0.99918400  0.12583700  1
  O  O11  1  0.62694500  0.99795900  0.37391800  1
  O  O12  1  0.36932900  0.00138300  0.62116800  1
  O  O13  1  0.12417000  0.00081400  0.87611600  1
  O  O14  1  0.00197700  0.58277800  0.71850700  1
  O  O15  1  0.25173600  0.58322100  0.46693500  1
  O  O16  1  0.50234900  0.58377200  0.21793400  1
  O  O17  1  0.33443900  0.39142400  0.27839300  1
  O  O18  1  0.58280200  0.39194500  0.02900100  1
  O  O19  1  0.08509600  0.39211200  0.52910900  1
  O  O20  1  0.22623900  0.99996800  0.12129100  1
  O  O21  1  0.76138900  0.79673000  0.41715300  1
  O  O22  1  0.25548800  0.80052800  0.91223700  1
  O  O23  1  0.50229400  0.79936300  0.66158100  1
  O  O24  1  0.90131700  0.40444600  0.02212500  1
  O  O25  1  0.15005100  0.40410800  0.77118000  1
  O  O26  1  0.65128800  0.40659500  0.27174400  1
  O  O27  1  0.39946400  0.40384500  0.52023800  1
  O  O28  1  0.84805100  0.59439300  0.22715200  1
  O  O29  1  0.59840700  0.59437500  0.47830800  1
  O  O30  1  0.09961000  0.59617100  0.97906300  1
  O  O31  1  0.34897600  0.59492300  0.72869500  1
  O  O32  1  0.49704900  0.19885600  0.33551400  1
  O  O33  1  0.74605000  0.19995300  0.08830000  1
  O  O34  1  0.24540500  0.20041200  0.58694700  1
  O  O35  1  0.77614300  0.00038900  0.87887300  1
  O  O36  1  0.91909700  0.61134100  0.47402000  1
  O  O37  1  0.66443500  0.60780100  0.72078600  1
  O  O38  1  0.41504200  0.60769700  0.97020200  1
  O  O39  1  0.99708300  0.41903600  0.28259600  1
  O  O40  1  0.74747400  0.41915200  0.53193900  1
  O  O41  1  0.49802400  0.41693400  0.78217000  1
  O  O42  1  0.87624800  0.79898600  0.68228900  1
  O  O43  1  0.62564800  0.80056100  0.93543700  1
  O  O44  1  0.87286700  0.19974400  0.56426500  1
  O  O45  1  0.62379600  0.20037800  0.81557800  1
  O  O46  1  0.75328000  0.58351900  0.96877800  1
  O  O47  1  0.83434700  0.39255400  0.77910500  1
  O  O48  1  0.45537100  0.99930100  0.88000200  1
  O  O49  1  0.71703700  0.00011400  0.63406800  1
  O  O50  1  0.97644600  0.00071100  0.39036900  1
  O  O51  1  0.99345500  0.19954000  0.83838800  1
loop_
_geom_bond_atom_site_label_1
_geom_bond_atom_site_label_2
_geom_bond_distance
_geom_bond_site_symmetry_2
Li0 O5 1.994713 1_555
Li0 O4 2.007903 1_555
Li0 O39 2.015062 1_455
Li0 O24 2.092405 1_455
Li0 O17 2.142065 1_555
Li1 O10 1.989809 1_445
Li1 O13 1.998470 1_554
Li1 O20 2.076867 1_545
Li1 O35 2.122992 1_454
Li2 O10 1.987441 1_545
Li2 O11 1.992588 1_545
Li2 O2 2.089161 1_545
Li2 O50 2.201230 1_555
Li3 O11 1.997276 1_555
Li3 O12 2.015348 1_565
Li3 O3 2.098291 1_565
Li3 O49 2.147647 1_565
Li4 O13 2.007858 1_555
Li4 O12 2.030008 1_555
Li4 O1 2.041508 1_545
Li4 O48 2.057222 1_545
Li5 O17 1.992555 1_555
Li5 O15 1.997849 1_555
Li5 O16 1.998020 1_555
Li5 O29 2.097152 1_555
Li5 O4 2.138810 1_555
Li6 O18 1.989913 1_555
Li6 O46 1.993670 1_554
Li6 O16 2.003881 1_555
Li6 O28 2.100717 1_555
Li6 O38 2.139588 1_554
Li7 O19 1.954942 1_555
Li7 O14 2.005116 1_555
Li7 O15 2.010990 1_555
Li7 O31 2.087046 1_555
Li7 O36 2.143235 1_455
Li8 O1 1.894113 1_655
Li8 O42 1.983087 1_555
Li8 O7 1.984158 1_655
Li8 O36 2.012944 1_555
Li8 O21 2.031595 1_555
Li9 O41 1.993139 1_555
Li9 O37 2.007439 1_555
Li9 O40 2.013158 1_555
Li9 O27 2.115082 1_555
Li9 O47 2.137709 1_555
Li10 O38 1.993233 1_555
Li10 O5 1.999196 1_556
Li10 O41 2.000951 1_555
Li10 O25 2.099373 1_555
Li10 O18 2.139928 1_556
Li11 O39 1.995744 1_555
Li11 O40 1.997393 1_555
Li11 O36 2.023430 1_555
Li11 O26 2.105733 1_555
Li11 O19 2.146379 1_655
Li12 O47 1.981333 1_555
Li12 O46 1.992178 1_555
Li12 O14 2.002582 1_655
Li12 O30 2.085384 1_655
Li12 O37 2.170019 1_555
O0 V10 1.684261 1_455
O0 V5 2.040898 1_565
O1 V2 2.014728 1_565
O1 V18 2.073857 1_465
O1 V19 2.098715 1_465
O2 V3 1.872529 1_555
O2 V4 2.083278 1_555
O2 V21 2.095083 1_564
O3 V5 1.977495 1_555
O3 V2 1.979843 1_555
O3 V4 2.074886 1_545
O4 V1 1.986193 1_555
O4 V0 2.027964 1_555
O4 V10 2.031770 1_455
O5 V6 1.985693 1_555
O5 V15 2.001426 1_554
O5 V0 2.220117 1_555
O6 V0 1.701077 1_555
O6 V4 2.006853 1_555
O7 V1 1.721331 1_555
O7 V2 2.098541 1_565
O8 V7 1.700993 1_555
O8 V5 2.007716 1_555
O9 V6 1.694801 1_555
O9 V21 2.007915 1_554
O10 V3 1.882307 1_555
O10 V5 1.933457 1_665
O11 V19 1.896576 1_565
O11 V4 1.908019 1_555
O12 V2 1.851097 1_555
O12 V20 1.974670 1_545
O13 V21 1.887846 1_555
O13 V18 1.918209 1_455
O14 V16 1.976567 1_455
O14 V9 1.998430 1_555
O14 V22 2.212405 1_455
O15 V1 1.976165 1_555
O15 V8 1.988616 1_555
O15 V7 2.223244 1_555
O16 V11 1.966339 1_555
O16 V0 1.991453 1_555
O16 V6 2.234523 1_555
O17 V14 2.011981 1_555
O17 V6 2.029054 1_555
O17 V7 2.035281 1_555
O18 V6 2.015923 1_555
O18 V12 2.016734 1_555
O18 V23 2.034693 1_554
O19 V13 2.020901 1_555
O19 V7 2.025147 1_555
O19 V22 2.034851 1_455
O20 V21 1.893267 1_564
O20 V4 2.054457 1_555
O20 V5 2.141614 1_565
O21 V11 1.702816 1_555
O21 V19 2.096614 1_565
O22 V9 1.678142 1_555
O22 V21 2.045507 1_565
O23 V8 1.679106 1_555
O23 V20 2.034977 1_555
O24 V12 2.033805 1_555
O24 V15 2.042086 1_654
O24 V23 2.052712 1_554
O24 V10 2.364487 1_555
O25 V13 2.048741 1_555
O25 V22 2.050778 1_455
O25 V15 2.054612 1_555
O25 V9 2.365059 1_555
O26 V14 2.059009 1_555
O26 V12 2.062377 1_555
O26 V6 2.069961 1_555
O26 V11 2.272726 1_555
O27 V14 2.045921 1_555
O27 V7 2.048841 1_555
O27 V13 2.051948 1_555
O27 V8 2.355041 1_555
O28 V10 2.041150 1_555
O28 V11 2.043590 1_555
O28 V1 2.050712 1_655
O28 V12 2.350402 1_555
O29 V11 2.049101 1_555
O29 V8 2.051645 1_555
O29 V16 2.054602 1_555
O29 V14 2.346038 1_555
O30 V0 2.046966 1_556
O30 V9 2.051126 1_555
O30 V10 2.056758 1_456
O30 V15 2.357680 1_555
O31 V9 2.048933 1_555
O31 V8 2.051883 1_555
O31 V17 2.061483 1_555
O31 V13 2.336517 1_555
O32 V14 1.689181 1_555
O32 V4 2.043458 1_545
O33 V12 1.674731 1_555
O33 V3 2.065152 1_545
O34 V13 1.686738 1_555
O34 V2 2.004716 1_555
O35 V3 1.891669 1_546
O35 V20 2.052172 1_545
O35 V18 2.084959 1_555
O36 V11 2.054352 1_555
O36 V16 2.056095 1_555
O36 V1 2.059469 1_655
O37 V16 1.986560 1_555
O37 V17 2.028638 1_555
O37 V8 2.031766 1_555
O38 V9 2.016311 1_555
O38 V17 2.021209 1_555
O38 V0 2.025129 1_556
O39 V7 2.000651 1_655
O39 V12 2.012520 1_555
O39 V1 2.144381 1_655
O40 V14 2.004821 1_555
O40 V22 2.006438 1_555
O40 V16 2.142649 1_555
O41 V13 1.992897 1_555
O41 V23 1.998207 1_555
O41 V17 2.213008 1_555
O42 V16 1.731335 1_555
O42 V18 2.070141 1_565
O43 V17 1.697300 1_555
O43 V3 2.004738 1_556
O44 V22 1.692506 1_555
O44 V19 2.011734 1_555
O45 V23 1.684147 1_555
O45 V20 2.054550 1_545
O46 V10 1.989502 1_556
O46 V17 1.989982 1_555
O46 V23 2.221769 1_555
O47 V15 2.015017 1_655
O47 V22 2.025883 1_555
O47 V23 2.028712 1_555
O48 V21 1.911534 1_565
O48 V20 2.049437 1_555
O48 V3 2.152424 1_556
O49 V20 1.996794 1_545
O49 V18 2.006163 1_555
O49 V19 2.021462 1_555
O50 V2 1.920280 1_655
O50 V19 2.008722 1_555
O50 V5 2.069500 1_655
O51 V15 1.688048 1_655
O51 V18 2.015954 1_555
