# generated using pymatgen
data_Mn11Cu7O24
_symmetry_space_group_name_H-M   'P 1'
_cell_length_a   6.06400700
_cell_length_b   8.35604617
_cell_length_c   10.36797451
_cell_angle_alpha   113.75536097
_cell_angle_beta   105.04584716
_cell_angle_gamma   89.80344930
_symmetry_Int_Tables_number   1
_chemical_formula_structural   Mn11Cu7O24
_chemical_formula_sum   'Mn11 Cu7 O24'
_cell_volume   461.31118742
_cell_formula_units_Z   1
loop_
 _symmetry_equiv_pos_site_id
 _symmetry_equiv_pos_as_xyz
  1  'x, y, z'
loop_
 _atom_site_type_symbol
 _atom_site_label
 _atom_site_symmetry_multiplicity
 _atom_site_fract_x
 _atom_site_fract_y
 _atom_site_fract_z
 _atom_site_occupancy
  Mn  Mn0  1  0.25460200  0.87746900  0.50190900  1
  Mn  Mn1  1  0.08906700  0.70939300  0.16689400  1
  Mn  Mn2  1  0.08272100  0.70942100  0.66712200  1
  Mn  Mn3  1  0.75182500  0.37637100  0.50110700  1
  Mn  Mn4  1  0.91664800  0.54215900  0.83231100  1
  Mn  Mn5  1  0.58116500  0.20932400  0.16701100  1
  Mn  Mn6  1  0.24997200  0.37560300  0.99953800  1
  Mn  Mn7  1  0.74964900  0.37668700  0.00012500  1
  Mn  Mn8  1  0.91943000  0.04313100  0.33408300  1
  Mn  Mn9  1  0.41834000  0.04241500  0.33325700  1
  Mn  Mn10  1  0.41058800  0.04272000  0.83316000  1
  Cu  Cu0  1  0.99665200  0.99775200  0.99637800  1
  Cu  Cu1  1  0.67214600  0.66866000  0.33789200  1
  Cu  Cu2  1  0.58254400  0.70909900  0.66697400  1
  Cu  Cu3  1  0.49941700  0.75164500  0.99692600  1
  Cu  Cu4  1  0.16928200  0.42149200  0.33732600  1
  Cu  Cu5  1  0.33973200  0.33531700  0.66648000  1
  Cu  Cu6  1  0.82555600  0.08163700  0.66674500  1
  O  O0  1  0.58125700  0.97703400  0.17907700  1
  O  O1  1  0.09798900  0.95571700  0.18309900  1
  O  O2  1  0.40710900  0.80923300  0.34049800  1
  O  O3  1  0.94771200  0.80635900  0.33560700  1
  O  O4  1  0.55103000  0.95490200  0.66822900  1
  O  O5  1  0.09981100  0.94704300  0.66476200  1
  O  O6  1  0.39576500  0.79820700  0.81747300  1
  O  O7  1  0.09171900  0.46734700  0.15565300  1
  O  O8  1  0.24812000  0.64736600  0.51434200  1
  O  O9  1  0.91693600  0.77181600  0.81960100  1
  O  O10  1  0.77121400  0.62103200  0.51676400  1
  O  O11  1  0.57126500  0.44095800  0.14969500  1
  O  O12  1  0.07044900  0.47410000  0.67211200  1
  O  O13  1  0.61431600  0.46343700  0.66676500  1
  O  O14  1  0.76743300  0.61138700  0.99389700  1
  O  O15  1  0.90144800  0.28181100  0.33906400  1
  O  O16  1  0.22735800  0.61248300  0.99791100  1
  O  O17  1  0.43439400  0.27861200  0.32992300  1
  O  O18  1  0.92890000  0.31187600  0.85134100  1
  O  O19  1  0.73770300  0.12717100  0.48231400  1
  O  O20  1  0.40842500  0.28578700  0.84594200  1
  O  O21  1  0.25628900  0.10742400  0.48727200  1
  O  O22  1  0.26222400  0.13755500  0.99491200  1
  O  O23  1  0.72435400  0.13776200  0.00111900  1
loop_
_geom_bond_atom_site_label_1
_geom_bond_atom_site_label_2
_geom_bond_distance
_geom_bond_site_symmetry_2
Mn0 O8 1.979386 1_555
Mn0 O21 1.987769 1_565
Mn0 O2 2.003029 1_555
Mn0 O5 2.024398 1_555
Mn0 O4 2.030548 1_555
Mn0 O3 2.074967 1_455
Mn1 O7 1.978732 1_555
Mn1 O1 1.996287 1_555
Mn1 O16 2.010882 1_554
Mn1 O3 2.020600 1_455
Mn1 O2 2.157366 1_555
Mn1 O14 2.168659 1_454
Mn2 O9 1.984749 1_455
Mn2 O8 1.985824 1_555
Mn2 O12 1.989905 1_555
Mn2 O5 1.998934 1_555
Mn2 O10 2.024111 1_455
Mn2 O6 2.031134 1_555
Mn3 O13 1.976671 1_555
Mn3 O10 1.985977 1_555
Mn3 O15 1.996779 1_555
Mn3 O19 2.011730 1_555
Mn3 O17 2.142793 1_555
Mn3 O12 2.146924 1_655
Mn4 O9 1.975830 1_555
Mn4 O14 1.990656 1_555
Mn4 O12 1.997894 1_655
Mn4 O18 2.011093 1_555
Mn4 O13 2.050544 1_555
Mn4 O16 2.087677 1_655
Mn5 O17 1.992328 1_555
Mn5 O0 1.994698 1_545
Mn5 O23 2.003242 1_555
Mn5 O11 2.013886 1_555
Mn5 O22 2.153643 1_554
Mn5 O15 2.158684 1_555
Mn6 O20 1.961908 1_555
Mn6 O22 1.971921 1_555
Mn6 O7 1.982465 1_556
Mn6 O16 1.990194 1_555
Mn6 O18 2.056673 1_455
Mn6 O11 2.065294 1_556
Mn7 O14 1.992249 1_554
Mn7 O23 2.007242 1_555
Mn7 O18 2.011925 1_554
Mn7 O11 2.014766 1_555
Mn7 O20 2.174647 1_554
Mn7 O7 2.183318 1_655
Mn8 O15 1.977555 1_555
Mn8 O3 1.991353 1_545
Mn8 O19 2.018398 1_555
Mn8 O1 2.027263 1_645
Mn8 O21 2.149311 1_655
Mn8 O0 2.162109 1_545
Mn9 O21 1.980595 1_555
Mn9 O2 1.981985 1_545
Mn9 O0 1.985547 1_545
Mn9 O17 1.991002 1_555
Mn9 O19 2.052838 1_555
Mn9 O1 2.062306 1_545
Mn10 O20 1.981635 1_555
Mn10 O4 1.982098 1_545
Mn10 O6 1.983680 1_545
Mn10 O22 1.989375 1_555
Mn10 O5 2.101548 1_545
Mn10 O23 2.111704 1_556
Cu0 O9 1.978805 1_555
Cu0 O22 1.999583 1_665
Cu0 O23 2.019956 1_566
Cu0 O1 2.043892 1_656
Cu1 O2 1.986848 1_555
Cu1 O10 1.993283 1_555
Cu1 O3 2.042682 1_555
Cu1 O11 2.049122 1_555
Cu2 O4 2.057287 1_555
Cu2 O13 2.060311 1_555
Cu2 O6 2.061006 1_555
Cu2 O10 2.066849 1_555
Cu2 O9 2.136290 1_555
Cu2 O8 2.136883 1_555
Cu3 O6 1.995628 1_555
Cu3 O14 1.999948 1_555
Cu3 O0 2.003532 1_556
Cu3 O16 2.026209 1_555
Cu4 O8 1.979662 1_555
Cu4 O17 1.998222 1_555
Cu4 O7 2.009027 1_555
Cu4 O15 2.011377 1_455
Cu5 O13 1.981353 1_555
Cu5 O12 1.999172 1_555
Cu5 O21 2.000619 1_555
Cu5 O20 2.005916 1_555
Cu6 O4 1.982817 1_545
Cu6 O5 2.004358 1_645
Cu6 O19 2.034916 1_555
Cu6 O18 2.043541 1_555
