# generated using pymatgen
data_Li2Cu(PO3)3
_symmetry_space_group_name_H-M   'P 1'
_cell_length_a   8.44726400
_cell_length_b   8.78795700
_cell_length_c   9.44362200
_cell_angle_alpha   90.00000000
_cell_angle_beta   90.00000000
_cell_angle_gamma   90.00000000
_symmetry_Int_Tables_number   1
_chemical_formula_structural   Li2Cu(PO3)3
_chemical_formula_sum   'Li8 Cu4 P12 O36'
_cell_volume   701.03965627
_cell_formula_units_Z   4
loop_
 _symmetry_equiv_pos_site_id
 _symmetry_equiv_pos_as_xyz
  1  'x, y, z'
loop_
 _atom_site_type_symbol
 _atom_site_label
 _atom_site_symmetry_multiplicity
 _atom_site_fract_x
 _atom_site_fract_y
 _atom_site_fract_z
 _atom_site_occupancy
  Li  Li0  1  0.54750000  0.52902600  0.93136500  1
  Li  Li1  1  0.66436800  0.13103100  0.36795800  1
  Li  Li2  1  0.83563200  0.86896900  0.86795800  1
  Li  Li3  1  0.95250000  0.47097400  0.43136500  1
  Li  Li4  1  0.04750000  0.97097400  0.06863500  1
  Li  Li5  1  0.16436800  0.36896900  0.63204200  1
  Li  Li6  1  0.33563200  0.63103100  0.13204200  1
  Li  Li7  1  0.45250000  0.02902600  0.56863500  1
  Cu  Cu0  1  0.62756700  0.86176100  0.15912600  1
  Cu  Cu1  1  0.87243300  0.13823900  0.65912600  1
  Cu  Cu2  1  0.12756700  0.63823900  0.84087400  1
  Cu  Cu3  1  0.37243300  0.36176100  0.34087400  1
  P  P0  1  0.52376000  0.31852600  0.68470700  1
  P  P1  1  0.68489100  0.47515400  0.19109800  1
  P  P2  1  0.70478300  0.81047300  0.57086500  1
  P  P3  1  0.79521700  0.18952700  0.07086500  1
  P  P4  1  0.81510900  0.52484600  0.69109800  1
  P  P5  1  0.97624000  0.68147400  0.18470700  1
  P  P6  1  0.02376000  0.18147400  0.31529300  1
  P  P7  1  0.18489100  0.02484600  0.80890200  1
  P  P8  1  0.20478300  0.68952700  0.42913500  1
  P  P9  1  0.29521700  0.31047300  0.92913500  1
  P  P10  1  0.31510900  0.97515400  0.30890200  1
  P  P11  1  0.47624000  0.81852600  0.81529300  1
  O  O0  1  0.53642900  0.77992400  0.65620000  1
  O  O1  1  0.58675200  0.59861200  0.12333900  1
  O  O2  1  0.60681500  0.87853300  0.90539200  1
  O  O3  1  0.63047500  0.38600600  0.31752200  1
  O  O4  1  0.61617900  0.18422900  0.62824500  1
  O  O5  1  0.64352600  0.45523300  0.73662500  1
  O  O6  1  0.65690400  0.86684300  0.42812200  1
  O  O7  1  0.68539900  0.10051100  0.16353600  1
  O  O8  1  0.73192300  0.36518000  0.05835100  1
  O  O9  1  0.76807700  0.63482000  0.55835100  1
  O  O10  1  0.81460100  0.89948900  0.66353600  1
  O  O11  1  0.84309600  0.13315700  0.92812200  1
  O  O12  1  0.85647400  0.54476700  0.23662500  1
  O  O13  1  0.88382100  0.81577100  0.12824500  1
  O  O14  1  0.86952500  0.61399400  0.81752200  1
  O  O15  1  0.89318500  0.12146700  0.40539200  1
  O  O16  1  0.91324800  0.40138800  0.62333900  1
  O  O17  1  0.96357100  0.22007600  0.15620000  1
  O  O18  1  0.03642900  0.72007600  0.34380000  1
  O  O19  1  0.08675200  0.90138800  0.87666100  1
  O  O20  1  0.10681500  0.62146700  0.09460800  1
  O  O21  1  0.13047500  0.11399400  0.68247800  1
  O  O22  1  0.11617900  0.31577100  0.37175500  1
  O  O23  1  0.14352600  0.04476700  0.26337500  1
  O  O24  1  0.15690400  0.63315700  0.57187800  1
  O  O25  1  0.18539900  0.39948900  0.83646400  1
  O  O26  1  0.23192300  0.13482000  0.94164900  1
  O  O27  1  0.26807700  0.86518000  0.44164900  1
  O  O28  1  0.31460100  0.60051100  0.33646400  1
  O  O29  1  0.34309600  0.36684300  0.07187800  1
  O  O30  1  0.35647400  0.95523300  0.76337500  1
  O  O31  1  0.38382100  0.68422900  0.87175500  1
  O  O32  1  0.36952500  0.88600600  0.18247800  1
  O  O33  1  0.39318500  0.37853300  0.59460800  1
  O  O34  1  0.41324800  0.09861200  0.37666100  1
  O  O35  1  0.46357100  0.27992400  0.84380000  1
loop_
_geom_bond_atom_site_label_1
_geom_bond_atom_site_label_2
_geom_bond_distance
_geom_bond_site_symmetry_2
Li0 O1 1.941806 1_556
Li0 O31 2.022092 1_555
Li0 O5 2.112019 1_555
Li0 O8 2.436860 1_556
Li0 O35 2.445118 1_555
Li0 O29 2.602594 1_556
Li1 O7 1.957106 1_555
Li1 O15 1.966736 1_555
Li1 O34 2.141900 1_555
Li1 O3 2.308594 1_555
Li1 O6 2.391015 1_545
Li1 O4 2.535011 1_555
Li2 O10 1.957106 1_555
Li2 O2 1.966736 1_555
Li2 O19 2.141900 1_655
Li2 O14 2.308594 1_555
Li2 O11 2.391015 1_565
Li2 O13 2.535011 1_556
Li3 O16 1.941806 1_555
Li3 O22 2.022092 1_655
Li3 O12 2.112019 1_555
Li3 O9 2.436860 1_555
Li3 O18 2.445118 1_655
Li3 O24 2.602594 1_655
Li4 O19 1.941806 1_554
Li4 O13 2.022092 1_455
Li4 O23 2.112019 1_565
Li4 O26 2.436860 1_564
Li4 O17 2.445118 1_465
Li4 O11 2.602594 1_464
Li5 O25 1.957106 1_555
Li5 O33 1.966736 1_555
Li5 O16 2.141900 1_455
Li5 O21 2.308594 1_555
Li5 O24 2.391015 1_555
Li5 O22 2.535011 1_555
Li6 O28 1.957106 1_555
Li6 O20 1.966736 1_555
Li6 O1 2.141900 1_555
Li6 O32 2.308594 1_555
Li6 O29 2.391015 1_555
Li6 O31 2.535011 1_554
Li7 O34 1.941806 1_555
Li7 O4 2.022092 1_555
Li7 O30 2.112019 1_545
Li7 O27 2.436860 1_545
Li7 O0 2.445118 1_545
Li7 O6 2.602594 1_545
Cu0 O7 2.154650 1_565
Cu0 O32 2.201212 1_555
Cu0 O13 2.221279 1_555
Cu0 O1 2.362401 1_555
Cu0 O2 2.407088 1_554
Cu0 O6 2.552746 1_555
Cu1 O10 2.154650 1_545
Cu1 O21 2.201212 1_655
Cu1 O4 2.221279 1_555
Cu1 O16 2.362401 1_555
Cu1 O15 2.407088 1_555
Cu1 O11 2.552746 1_555
Cu2 O25 2.154650 1_555
Cu2 O14 2.201212 1_455
Cu2 O31 2.221279 1_555
Cu2 O19 2.362401 1_555
Cu2 O20 2.407088 1_556
Cu2 O24 2.552746 1_555
Cu3 O28 2.154650 1_555
Cu3 O3 2.201212 1_555
Cu3 O22 2.221279 1_555
Cu3 O34 2.362401 1_555
Cu3 O33 2.407088 1_555
Cu3 O29 2.552746 1_555
O0 P11 1.621984 1_555
O0 P2 1.656489 1_555
O1 P1 1.507917 1_555
O2 P11 1.489518 1_555
O3 P1 1.500151 1_555
O4 P0 1.512166 1_555
O5 P4 1.630912 1_555
O5 P0 1.645362 1_555
O6 P2 1.492015 1_555
O7 P3 1.496124 1_555
O8 P1 1.631994 1_555
O8 P3 1.637872 1_555
O9 P4 1.631994 1_555
O9 P2 1.637872 1_555
O10 P2 1.496124 1_555
O11 P3 1.492015 1_556
O12 P1 1.630912 1_555
O12 P5 1.645362 1_555
O13 P5 1.512166 1_555
O14 P4 1.500151 1_555
O15 P6 1.489518 1_655
O16 P4 1.507917 1_555
O17 P6 1.621984 1_655
O17 P3 1.656489 1_555
O18 P5 1.621984 1_455
O18 P8 1.656489 1_555
O19 P7 1.507917 1_565
O20 P5 1.489518 1_455
O21 P7 1.500151 1_555
O22 P6 1.512166 1_555
O23 P10 1.630912 1_545
O23 P6 1.645362 1_555
O24 P8 1.492015 1_555
O25 P9 1.496124 1_555
O26 P7 1.631994 1_555
O26 P9 1.637872 1_555
O27 P10 1.631994 1_555
O27 P8 1.637872 1_555
O28 P8 1.496124 1_555
O29 P9 1.492015 1_554
O30 P7 1.630912 1_565
O30 P11 1.645362 1_555
O31 P11 1.512166 1_555
O32 P10 1.500151 1_555
O33 P0 1.489518 1_555
O34 P10 1.507917 1_545
O35 P0 1.621984 1_555
O35 P9 1.656489 1_555
