# generated using pymatgen
data_Li(CoO2)2
_symmetry_space_group_name_H-M   'P 1'
_cell_length_a   5.66894802
_cell_length_b   5.66894802
_cell_length_c   9.11001700
_cell_angle_alpha   90.00000000
_cell_angle_beta   90.00000000
_cell_angle_gamma   120.00000019
_symmetry_Int_Tables_number   1
_chemical_formula_structural   Li(CoO2)2
_chemical_formula_sum   'Li4 Co8 O16'
_cell_volume   253.54483474
_cell_formula_units_Z   4
loop_
 _symmetry_equiv_pos_site_id
 _symmetry_equiv_pos_as_xyz
  1  'x, y, z'
loop_
 _atom_site_type_symbol
 _atom_site_label
 _atom_site_symmetry_multiplicity
 _atom_site_fract_x
 _atom_site_fract_y
 _atom_site_fract_z
 _atom_site_occupancy
  Li  Li0  1  0.33333300  0.66666700  0.89409900  1
  Li  Li1  1  0.00000000  0.00000000  0.99830100  1
  Li  Li2  1  0.00000000  0.00000000  0.49830100  1
  Li  Li3  1  0.66666700  0.33333300  0.39409900  1
  Co  Co0  1  0.16567300  0.83432700  0.21058300  1
  Co  Co1  1  0.33333300  0.66666700  0.48290500  1
  Co  Co2  1  0.16567300  0.33134700  0.21058300  1
  Co  Co3  1  0.66865300  0.83432700  0.21058300  1
  Co  Co4  1  0.33134700  0.16567300  0.71058300  1
  Co  Co5  1  0.66666700  0.33333300  0.98290500  1
  Co  Co6  1  0.83432700  0.66865300  0.71058300  1
  Co  Co7  1  0.83432700  0.16567300  0.71058300  1
  O  O0  1  0.16181700  0.83818300  0.60314700  1
  O  O1  1  0.04118900  0.52059400  0.33762700  1
  O  O2  1  0.33333300  0.66666700  0.10637700  1
  O  O3  1  0.00000000  0.00000000  0.30866200  1
  O  O4  1  0.00000000  0.00000000  0.80866200  1
  O  O5  1  0.16181700  0.32363500  0.60314700  1
  O  O6  1  0.47940600  0.95881100  0.33762700  1
  O  O7  1  0.47940600  0.52059400  0.33762700  1
  O  O8  1  0.32363500  0.16181700  0.10314700  1
  O  O9  1  0.67636500  0.83818300  0.60314700  1
  O  O10  1  0.52059400  0.47940600  0.83762700  1
  O  O11  1  0.52059400  0.04118900  0.83762700  1
  O  O12  1  0.66666700  0.33333300  0.60637700  1
  O  O13  1  0.83818300  0.67636500  0.10314700  1
  O  O14  1  0.95881100  0.47940600  0.83762700  1
  O  O15  1  0.83818300  0.16181700  0.10314700  1
loop_
_geom_bond_atom_site_label_1
_geom_bond_atom_site_label_2
_geom_bond_distance
_geom_bond_site_symmetry_2
Li0 O11 1.909314 1_565
Li0 O14 1.909314 1_455
Li0 O10 1.909314 1_555
Li0 O2 1.933856 1_556
Li1 O4 1.727615 1_555
Li1 O15 1.853862 1_456
Li1 O13 1.853866 1_446
Li1 O8 1.853866 1_556
Li2 O3 1.727615 1_555
Li2 O0 1.853862 1_545
Li2 O9 1.853866 1_445
Li2 O5 1.853866 1_555
Li3 O1 1.909314 1_655
Li3 O6 1.909314 1_545
Li3 O7 1.909314 1_555
Li3 O12 1.933856 1_555
Co0 O3 1.855960 1_565
Co0 O13 1.882558 1_455
Co0 O8 1.882558 1_565
Co0 O2 1.900343 1_555
Co0 O1 1.935357 1_555
Co0 O6 1.935357 1_555
Co1 O1 1.951598 1_555
Co1 O6 1.951598 1_555
Co1 O7 1.951605 1_555
Co1 O5 2.009006 1_555
Co1 O9 2.009006 1_555
Co1 O0 2.009006 1_555
Co2 O3 1.855964 1_555
Co2 O15 1.882558 1_455
Co2 O8 1.882566 1_555
Co2 O2 1.900343 1_555
Co2 O1 1.935348 1_555
Co2 O7 1.935355 1_555
Co3 O3 1.855964 1_665
Co3 O15 1.882558 1_565
Co3 O13 1.882566 1_555
Co3 O2 1.900343 1_555
Co3 O6 1.935348 1_555
Co3 O7 1.935355 1_555
Co4 O4 1.855964 1_555
Co4 O0 1.882558 1_545
Co4 O5 1.882566 1_555
Co4 O12 1.900343 1_555
Co4 O11 1.935348 1_555
Co4 O10 1.935355 1_555
Co5 O14 1.951598 1_555
Co5 O11 1.951598 1_555
Co5 O10 1.951605 1_555
Co5 O13 2.009006 1_556
Co5 O8 2.009006 1_556
Co5 O15 2.009006 1_556
Co6 O4 1.855964 1_665
Co6 O0 1.882558 1_655
Co6 O9 1.882566 1_555
Co6 O12 1.900343 1_555
Co6 O14 1.935348 1_555
Co6 O10 1.935355 1_555
Co7 O4 1.855960 1_655
Co7 O9 1.882558 1_545
Co7 O5 1.882558 1_655
Co7 O12 1.900343 1_555
Co7 O11 1.935357 1_555
Co7 O14 1.935357 1_555
