# generated using pymatgen
data_Li10Fe(SiO5)2
_symmetry_space_group_name_H-M   'P 1'
_cell_length_a   15.33846705
_cell_length_b   15.33846705
_cell_length_c   5.16096556
_cell_angle_alpha   81.06344763
_cell_angle_beta   81.06344763
_cell_angle_gamma   23.21584785
_symmetry_Int_Tables_number   1
_chemical_formula_structural   Li10Fe(SiO5)2
_chemical_formula_sum   'Li20 Fe2 Si4 O20'
_cell_volume   472.58112051
_cell_formula_units_Z   2
loop_
 _symmetry_equiv_pos_site_id
 _symmetry_equiv_pos_as_xyz
  1  'x, y, z'
loop_
 _atom_site_type_symbol
 _atom_site_label
 _atom_site_symmetry_multiplicity
 _atom_site_fract_x
 _atom_site_fract_y
 _atom_site_fract_z
 _atom_site_occupancy
  Li  Li0  1  0.49047300  0.49047300  0.25923400  1
  Li  Li1  1  0.22493000  0.63971300  0.89544900  1
  Li  Li2  1  0.63971300  0.22493000  0.89544900  1
  Li  Li3  1  0.86779500  0.86779500  0.78011200  1
  Li  Li4  1  0.08391800  0.65302600  0.23994800  1
  Li  Li5  1  0.65302600  0.08391800  0.23994800  1
  Li  Li6  1  0.32514800  0.32514800  0.93407700  1
  Li  Li7  1  0.04817500  0.56124900  0.60251700  1
  Li  Li8  1  0.56124900  0.04817500  0.60251700  1
  Li  Li9  1  0.26966300  0.26966300  0.32432800  1
  Li  Li10  1  0.73033700  0.73033700  0.67567200  1
  Li  Li11  1  0.95182500  0.43875100  0.39748300  1
  Li  Li12  1  0.43875100  0.95182500  0.39748300  1
  Li  Li13  1  0.67485200  0.67485200  0.06592300  1
  Li  Li14  1  0.34697400  0.91608200  0.76005200  1
  Li  Li15  1  0.91608200  0.34697400  0.76005200  1
  Li  Li16  1  0.13220500  0.13220500  0.21988800  1
  Li  Li17  1  0.77507000  0.36028700  0.10455100  1
  Li  Li18  1  0.36028700  0.77507000  0.10455100  1
  Li  Li19  1  0.50952700  0.50952700  0.74076600  1
  Fe  Fe0  1  0.96367600  0.96367600  0.17513800  1
  Fe  Fe1  1  0.03632400  0.03632400  0.82486200  1
  Si  Si0  1  0.39922900  0.39922900  0.50825300  1
  Si  Si1  1  0.78072200  0.78072200  0.12860000  1
  Si  Si2  1  0.21927800  0.21927800  0.87140000  1
  Si  Si3  1  0.60077100  0.60077100  0.49174700  1
  O  O0  1  0.44946900  0.44946900  0.60039500  1
  O  O1  1  0.90729100  0.90729100  0.05364400  1
  O  O2  1  0.40300300  0.40300300  0.18302900  1
  O  O3  1  0.15525700  0.58646700  0.62610300  1
  O  O4  1  0.58646700  0.15525700  0.62610300  1
  O  O5  1  0.03099000  0.58146300  0.21677000  1
  O  O6  1  0.58146300  0.03099000  0.21677000  1
  O  O7  1  0.78624300  0.78624300  0.80595100  1
  O  O8  1  0.27172300  0.27172300  0.71992200  1
  O  O9  1  0.72827700  0.72827700  0.28007800  1
  O  O10  1  0.21375700  0.21375700  0.19404900  1
  O  O11  1  0.96901000  0.41853700  0.78323000  1
  O  O12  1  0.41853700  0.96901000  0.78323000  1
  O  O13  1  0.41353300  0.84474300  0.37389700  1
  O  O14  1  0.84474300  0.41353300  0.37389700  1
  O  O15  1  0.59699700  0.59699700  0.81697100  1
  O  O16  1  0.09270900  0.09270900  0.94635600  1
  O  O17  1  0.55053100  0.55053100  0.39960500  1
  O  O18  1  0.24944000  0.75056000  0.00000000  1
  O  O19  1  0.75056000  0.24944000  0.00000000  1
loop_
_geom_bond_atom_site_label_1
_geom_bond_atom_site_label_2
_geom_bond_distance
_geom_bond_site_symmetry_2
Li0 O0 1.982484 1_555
Li0 O19 2.035300 1_555
Li0 O18 2.035300 1_555
Li0 O17 2.048534 1_555
Li1 O0 1.993547 1_555
Li1 O2 2.050133 1_556
Li1 O1 2.073583 1_456
Li1 O18 2.201399 1_556
Li1 O3 2.481921 1_555
Li2 O0 1.993547 1_555
Li2 O2 2.050133 1_556
Li2 O1 2.073583 1_546
Li2 O19 2.201399 1_556
Li2 O4 2.481921 1_555
Li3 O4 1.923190 1_565
Li3 O3 1.923190 1_655
Li3 O1 1.983139 1_556
Li3 O7 2.433015 1_555
Li4 O5 1.893978 1_555
Li4 O1 1.923020 1_455
Li4 O2 2.037498 1_555
Li4 O3 2.050236 1_555
Li5 O6 1.893978 1_555
Li5 O1 1.923020 1_545
Li5 O2 2.037498 1_555
Li5 O4 2.050236 1_555
Li6 O8 2.088452 1_555
Li6 O6 2.252804 1_556
Li6 O5 2.252804 1_556
Li6 O4 2.343498 1_555
Li6 O3 2.343498 1_555
Li7 O7 1.866530 1_455
Li7 O8 1.914889 1_555
Li7 O5 1.987473 1_555
Li7 O3 2.026486 1_555
Li8 O7 1.866530 1_545
Li8 O8 1.914889 1_555
Li8 O6 1.987473 1_555
Li8 O4 2.026486 1_555
Li9 O10 1.905926 1_555
Li9 O6 2.051397 1_555
Li9 O5 2.051397 1_555
Li9 O8 2.052374 1_555
Li10 O7 1.905926 1_555
Li10 O12 2.051397 1_555
Li10 O11 2.051397 1_555
Li10 O9 2.052374 1_555
Li11 O10 1.866530 1_655
Li11 O9 1.914889 1_555
Li11 O11 1.987473 1_555
Li11 O14 2.026486 1_555
Li12 O10 1.866530 1_565
Li12 O9 1.914889 1_555
Li12 O12 1.987473 1_555
Li12 O13 2.026486 1_555
Li13 O9 2.088452 1_555
Li13 O11 2.252804 1_554
Li13 O12 2.252804 1_554
Li13 O14 2.343498 1_555
Li13 O13 2.343498 1_555
Li14 O12 1.893978 1_555
Li14 O16 1.923020 1_565
Li14 O15 2.037498 1_555
Li14 O13 2.050236 1_555
Li15 O11 1.893978 1_555
Li15 O16 1.923020 1_655
Li15 O15 2.037498 1_555
Li15 O14 2.050236 1_555
Li16 O13 1.923190 1_545
Li16 O14 1.923190 1_455
Li16 O16 1.983139 1_554
Li16 O10 2.433015 1_555
Li17 O17 1.993547 1_555
Li17 O15 2.050133 1_554
Li17 O16 2.073583 1_654
Li17 O19 2.201399 1_555
Li17 O14 2.481921 1_555
Li18 O17 1.993547 1_555
Li18 O15 2.050133 1_554
Li18 O16 2.073583 1_564
Li18 O18 2.201399 1_555
Li18 O13 2.481921 1_555
Li19 O17 1.982484 1_555
Li19 O19 2.035300 1_556
Li19 O18 2.035300 1_556
Li19 O0 2.048534 1_555
Fe0 O1 1.897608 1_555
Fe0 O19 2.016472 1_565
Fe0 O18 2.016472 1_655
Fe1 O16 1.897608 1_555
Fe1 O18 2.016472 1_546
Fe1 O19 2.016472 1_456
O0 Si0 1.653178 1_555
O2 Si0 1.664256 1_555
O3 Si0 1.644158 1_555
O4 Si0 1.644158 1_555
O5 Si1 1.682217 1_455
O6 Si1 1.682217 1_545
O7 Si1 1.647036 1_556
O8 Si2 1.644389 1_555
O9 Si1 1.644389 1_555
O10 Si2 1.647036 1_554
O11 Si2 1.682217 1_655
O12 Si2 1.682217 1_565
O13 Si3 1.644158 1_555
O14 Si3 1.644158 1_555
O15 Si3 1.664256 1_555
O17 Si3 1.653178 1_555
