# generated using pymatgen
data_Li3Co4O4F3
_symmetry_space_group_name_H-M   'P 1'
_cell_length_a   15.07856279
_cell_length_b   15.07856279
_cell_length_c   15.07856279
_cell_angle_alpha   168.69159229
_cell_angle_beta   168.69159229
_cell_angle_gamma   16.01867807
_symmetry_Int_Tables_number   1
_chemical_formula_structural   Li3Co4O4F3
_chemical_formula_sum   'Li3 Co4 O4 F3'
_cell_volume   131.81658329
_cell_formula_units_Z   1
loop_
 _symmetry_equiv_pos_site_id
 _symmetry_equiv_pos_as_xyz
  1  'x, y, z'
loop_
 _atom_site_type_symbol
 _atom_site_label
 _atom_site_symmetry_multiplicity
 _atom_site_fract_x
 _atom_site_fract_y
 _atom_site_fract_z
 _atom_site_occupancy
  Li  Li0  1  0.56870600  0.56870600  0.00000000  1
  Li  Li1  1  0.43129400  0.43129400  0.00000000  1
  Li  Li2  1  0.00000000  0.00000000  0.00000000  1
  Co  Co0  1  0.14081000  0.14081000  0.00000000  1
  Co  Co1  1  0.71828600  0.71828600  0.00000000  1
  Co  Co2  1  0.28171400  0.28171400  0.00000000  1
  Co  Co3  1  0.85919000  0.85919000  0.00000000  1
  O  O0  1  0.64125600  0.64125600  0.00000000  1
  O  O1  1  0.21284400  0.21284400  0.00000000  1
  O  O2  1  0.78715600  0.78715600  0.00000000  1
  O  O3  1  0.35874400  0.35874400  0.00000000  1
  F  F0  1  0.06653200  0.06653200  0.00000000  1
  F  F1  1  0.93346800  0.93346800  0.00000000  1
  F  F2  1  0.50000000  0.50000000  0.00000000  1
loop_
_geom_bond_atom_site_label_1
_geom_bond_atom_site_label_2
_geom_bond_distance
_geom_bond_site_symmetry_2
Li0 O0 2.166557 1_555
Li1 O3 2.166557 1_555
Co0 O0 2.101006 1_556
Co0 O0 2.101006 1_545
Co0 O0 2.101006 1_444
Co0 O0 2.101006 1_455
Co0 O1 2.151148 1_555
Co0 F0 2.218160 1_555
Co1 O2 2.056662 1_555
Co1 O1 2.107240 1_565
Co1 O1 2.107240 1_655
Co1 O1 2.107240 1_666
Co1 O1 2.107240 1_554
Co1 O0 2.300343 1_555
Co2 O1 2.056662 1_555
Co2 O2 2.107240 1_455
Co2 O2 2.107240 1_556
Co2 O2 2.107240 1_444
Co2 O2 2.107240 1_545
Co2 O3 2.300343 1_555
Co3 O3 2.101006 1_565
Co3 O3 2.101006 1_554
Co3 O3 2.101006 1_666
Co3 O3 2.101006 1_655
Co3 O2 2.151148 1_555
Co3 F1 2.218160 1_555
F0 Li2 1.986842 1_555
F0 Li0 2.101967 1_455
F0 Li0 2.101967 1_556
F0 Li0 2.101967 1_545
F0 Li0 2.101967 1_444
F1 Li2 1.986842 1_665
F1 Li1 2.101967 1_565
F1 Li1 2.101967 1_655
F1 Li1 2.101967 1_666
F1 Li1 2.101967 1_554
F2 Li0 2.051764 1_555
F2 Li1 2.051764 1_555
F2 Li2 2.100964 1_554
F2 Li2 2.100964 1_565
F2 Li2 2.100964 1_655
F2 Li2 2.100964 1_666
