# generated using pymatgen
data_Ti3Sn7O20
_symmetry_space_group_name_H-M   'P 1'
_cell_length_a   4.77474592
_cell_length_b   4.77474592
_cell_length_c   15.86641300
_cell_angle_alpha   90.00000000
_cell_angle_beta   90.00000000
_cell_angle_gamma   90.04140733
_symmetry_Int_Tables_number   1
_chemical_formula_structural   Ti3Sn7O20
_chemical_formula_sum   'Ti3 Sn7 O20'
_cell_volume   361.72554061
_cell_formula_units_Z   1
loop_
 _symmetry_equiv_pos_site_id
 _symmetry_equiv_pos_as_xyz
  1  'x, y, z'
loop_
 _atom_site_type_symbol
 _atom_site_label
 _atom_site_symmetry_multiplicity
 _atom_site_fract_x
 _atom_site_fract_y
 _atom_site_fract_z
 _atom_site_occupancy
  Ti  Ti0  1  0.00000000  0.00000000  0.79992800  1
  Ti  Ti1  1  0.00000000  0.00000000  0.20007200  1
  Ti  Ti2  1  0.50000000  0.50000000  0.50000000  1
  Sn  Sn0  1  0.00000000  0.00000000  0.40038000  1
  Sn  Sn1  1  0.00000000  0.00000000  0.59962000  1
  Sn  Sn2  1  0.00000000  0.00000000  0.00000000  1
  Sn  Sn3  1  0.50000000  0.50000000  0.89769600  1
  Sn  Sn4  1  0.50000000  0.50000000  0.69988600  1
  Sn  Sn5  1  0.50000000  0.50000000  0.30011400  1
  Sn  Sn6  1  0.50000000  0.50000000  0.10230400  1
  O  O0  1  0.18982200  0.81017800  0.89537400  1
  O  O1  1  0.20295300  0.79704700  0.50000000  1
  O  O2  1  0.19000800  0.80999200  0.70400300  1
  O  O3  1  0.18982200  0.81017800  0.10462600  1
  O  O4  1  0.19000800  0.80999200  0.29599700  1
  O  O5  1  0.31003900  0.31003900  0.40422100  1
  O  O6  1  0.31003900  0.31003900  0.59577900  1
  O  O7  1  0.29687500  0.29687500  0.20069500  1
  O  O8  1  0.29687500  0.29687500  0.79930500  1
  O  O9  1  0.30613700  0.30613700  0.00000000  1
  O  O10  1  0.68996100  0.68996100  0.40422100  1
  O  O11  1  0.68996100  0.68996100  0.59577900  1
  O  O12  1  0.70312500  0.70312500  0.79930500  1
  O  O13  1  0.69386300  0.69386300  0.00000000  1
  O  O14  1  0.70312500  0.70312500  0.20069500  1
  O  O15  1  0.79704700  0.20295300  0.50000000  1
  O  O16  1  0.81017800  0.18982200  0.89537400  1
  O  O17  1  0.80999200  0.19000800  0.70400300  1
  O  O18  1  0.80999200  0.19000800  0.29599700  1
  O  O19  1  0.81017800  0.18982200  0.10462600  1
loop_
_geom_bond_atom_site_label_1
_geom_bond_atom_site_label_2
_geom_bond_distance
_geom_bond_site_symmetry_2
O0 Ti0 1.984313 1_565
O0 Sn3 2.095561 1_555
O0 Sn2 2.097586 1_566
O1 Ti2 2.006538 1_555
O1 Sn0 2.092320 1_565
O1 Sn1 2.092320 1_565
O2 Ti0 1.990929 1_565
O2 Sn4 2.094999 1_555
O2 Sn1 2.095305 1_565
O3 Ti1 1.984313 1_565
O3 Sn6 2.095561 1_555
O3 Sn2 2.097586 1_565
O4 Ti1 1.990929 1_565
O4 Sn5 2.094999 1_555
O4 Sn0 2.095305 1_565
O5 Ti2 1.988356 1_555
O5 Sn5 2.091082 1_555
O5 Sn0 2.093672 1_555
O6 Ti2 1.988356 1_555
O6 Sn4 2.091082 1_555
O6 Sn1 2.093672 1_555
O7 Ti1 2.003951 1_555
O7 Sn6 2.077741 1_555
O7 Sn5 2.090024 1_555
O8 Ti0 2.003951 1_555
O8 Sn3 2.077741 1_555
O8 Sn4 2.090024 1_555
O9 Sn2 2.066446 1_555
O9 Sn6 2.084988 1_555
O9 Sn3 2.084988 1_554
O10 Ti2 1.988356 1_555
O10 Sn5 2.091082 1_555
O10 Sn0 2.093672 1_665
O11 Ti2 1.988356 1_555
O11 Sn4 2.091082 1_555
O11 Sn1 2.093672 1_665
O12 Ti0 2.003951 1_665
O12 Sn3 2.077741 1_555
O12 Sn4 2.090024 1_555
O13 Sn2 2.066446 1_665
O13 Sn6 2.084988 1_555
O13 Sn3 2.084988 1_554
O14 Ti1 2.003951 1_665
O14 Sn6 2.077741 1_555
O14 Sn5 2.090024 1_555
O15 Ti2 2.006538 1_555
O15 Sn0 2.092320 1_655
O15 Sn1 2.092320 1_655
O16 Ti0 1.984313 1_655
O16 Sn3 2.095561 1_555
O16 Sn2 2.097586 1_656
O17 Ti0 1.990929 1_655
O17 Sn4 2.094999 1_555
O17 Sn1 2.095305 1_655
O18 Ti1 1.990929 1_655
O18 Sn5 2.094999 1_555
O18 Sn0 2.095305 1_655
O19 Ti1 1.984313 1_655
O19 Sn6 2.095561 1_555
O19 Sn2 2.097586 1_655
