# generated using pymatgen
data_Li3Al2FeO6
_symmetry_space_group_name_H-M   'P 1'
_cell_length_a   10.21703900
_cell_length_b   5.88693900
_cell_length_c   9.97053028
_cell_angle_alpha   54.43130744
_cell_angle_beta   90.00000000
_cell_angle_gamma   90.00000000
_symmetry_Int_Tables_number   1
_chemical_formula_structural   Li3Al2FeO6
_chemical_formula_sum   'Li12 Al8 Fe4 O24'
_cell_volume   487.80585399
_cell_formula_units_Z   4
loop_
 _symmetry_equiv_pos_site_id
 _symmetry_equiv_pos_as_xyz
  1  'x, y, z'
loop_
 _atom_site_type_symbol
 _atom_site_label
 _atom_site_symmetry_multiplicity
 _atom_site_fract_x
 _atom_site_fract_y
 _atom_site_fract_z
 _atom_site_occupancy
  Li  Li0  1  0.50488700  0.20435800  0.13918900  1
  Li  Li1  1  0.84662500  0.19179400  0.12376000  1
  Li  Li2  1  0.49917600  0.74026700  0.61428800  1
  Li  Li3  1  0.34662500  0.80820600  0.37624000  1
  Li  Li4  1  0.99917600  0.25973300  0.88571200  1
  Li  Li5  1  0.00488700  0.79564200  0.36081100  1
  Li  Li6  1  0.99511300  0.20435800  0.63918900  1
  Li  Li7  1  0.00082400  0.74026700  0.11428800  1
  Li  Li8  1  0.65337500  0.19179400  0.62376000  1
  Li  Li9  1  0.50082400  0.25973300  0.38571200  1
  Li  Li10  1  0.15337500  0.80820600  0.87624000  1
  Li  Li11  1  0.49511300  0.79564200  0.86081100  1
  Al  Al0  1  0.16765900  0.21272100  0.12089200  1
  Al  Al1  1  0.83868900  0.70207800  0.62626500  1
  Al  Al2  1  0.66765900  0.78727900  0.37910800  1
  Al  Al3  1  0.33868900  0.29792200  0.87373500  1
  Al  Al4  1  0.66131100  0.70207800  0.12626500  1
  Al  Al5  1  0.33234100  0.21272100  0.62089200  1
  Al  Al6  1  0.16131100  0.29792200  0.37373500  1
  Al  Al7  1  0.83234100  0.78727900  0.87910800  1
  Fe  Fe0  1  0.16404100  0.71086600  0.62633500  1
  Fe  Fe1  1  0.66404100  0.28913400  0.87366500  1
  Fe  Fe2  1  0.33595900  0.71086600  0.12633500  1
  Fe  Fe3  1  0.83595900  0.28913400  0.37366500  1
  O  O0  1  0.17356500  0.98858100  0.37392400  1
  O  O1  1  0.82258000  0.49102100  0.86300100  1
  O  O2  1  0.51993300  0.93604500  0.37752300  1
  O  O3  1  0.49742500  0.43389800  0.87153900  1
  O  O4  1  0.18987800  0.46540600  0.87742600  1
  O  O5  1  0.82361500  0.93925800  0.38714800  1
  O  O6  1  0.32361500  0.06074200  0.11285200  1
  O  O7  1  0.68987800  0.53459400  0.62257400  1
  O  O8  1  0.99742500  0.56610200  0.62846100  1
  O  O9  1  0.01993300  0.06395500  0.12247700  1
  O  O10  1  0.67356500  0.01141900  0.12607600  1
  O  O11  1  0.32258000  0.50897900  0.63699900  1
  O  O12  1  0.67742000  0.49102100  0.36300100  1
  O  O13  1  0.32643500  0.98858100  0.87392400  1
  O  O14  1  0.98006700  0.93604500  0.87752300  1
  O  O15  1  0.00257500  0.43389800  0.37153900  1
  O  O16  1  0.31012200  0.46540600  0.37742600  1
  O  O17  1  0.67638500  0.93925800  0.88714800  1
  O  O18  1  0.17638500  0.06074200  0.61285200  1
  O  O19  1  0.81012200  0.53459400  0.12257400  1
  O  O20  1  0.50257500  0.56610200  0.12846100  1
  O  O21  1  0.48006700  0.06395500  0.62247700  1
  O  O22  1  0.17742000  0.50897900  0.13699900  1
  O  O23  1  0.82643500  0.01141900  0.62607600  1
loop_
_geom_bond_atom_site_label_1
_geom_bond_atom_site_label_2
_geom_bond_distance
_geom_bond_site_symmetry_2
Li0 O2 1.949054 1_545
Li0 O20 2.069311 1_555
Li0 O10 2.109505 1_555
Li0 O6 2.114751 1_555
Li0 O3 2.181317 1_554
Li1 O9 1.926941 1_655
Li1 O19 2.045475 1_555
Li1 O10 2.055709 1_555
Li1 O1 2.143570 1_554
Li1 O5 2.149420 1_545
Li2 O2 1.944447 1_555
Li2 O21 1.963882 1_565
Li2 O3 2.109579 1_555
Li2 O11 2.191334 1_555
Li2 O7 2.269968 1_555
Li3 O2 1.926941 1_555
Li3 O16 2.045475 1_555
Li3 O0 2.055709 1_555
Li3 O11 2.143570 1_555
Li3 O6 2.149420 1_565
Li4 O9 1.944447 1_656
Li4 O14 1.963882 1_545
Li4 O8 2.109579 1_555
Li4 O1 2.191334 1_555
Li4 O4 2.269968 1_655
Li5 O9 1.949054 1_565
Li5 O15 2.069311 1_555
Li5 O0 2.109505 1_555
Li5 O5 2.114751 1_455
Li5 O8 2.181317 1_455
Li6 O14 1.949054 1_545
Li6 O8 2.069311 1_555
Li6 O23 2.109505 1_555
Li6 O18 2.114751 1_655
Li6 O15 2.181317 1_655
Li7 O14 1.944447 1_454
Li7 O9 1.963882 1_565
Li7 O15 2.109579 1_555
Li7 O22 2.191334 1_555
Li7 O19 2.269968 1_455
Li8 O21 1.926941 1_555
Li8 O7 2.045475 1_555
Li8 O23 2.055709 1_555
Li8 O12 2.143570 1_555
Li8 O17 2.149420 1_545
Li9 O21 1.944447 1_555
Li9 O2 1.963882 1_545
Li9 O20 2.109579 1_555
Li9 O12 2.191334 1_555
Li9 O16 2.269968 1_555
Li10 O14 1.926941 1_455
Li10 O4 2.045475 1_555
Li10 O13 2.055709 1_555
Li10 O22 2.143570 1_556
Li10 O18 2.149420 1_565
Li11 O21 1.949054 1_565
Li11 O3 2.069311 1_555
Li11 O13 2.109505 1_555
Li11 O17 2.114751 1_555
Li11 O20 2.181317 1_556
Al0 O9 1.740456 1_555
Al0 O22 1.844803 1_555
Al0 O6 1.851833 1_555
Al0 O4 1.989003 1_554
Al0 O0 2.058359 1_545
Al1 O8 1.803091 1_555
Al1 O7 1.824100 1_555
Al1 O23 1.824277 1_565
Al1 O1 1.931436 1_555
Al1 O5 1.945419 1_555
Al2 O2 1.740456 1_555
Al2 O12 1.844803 1_555
Al2 O5 1.851833 1_555
Al2 O7 1.989003 1_555
Al2 O10 2.058359 1_565
Al3 O3 1.803091 1_555
Al3 O4 1.824100 1_555
Al3 O13 1.824277 1_545
Al3 O11 1.931436 1_555
Al3 O6 1.945419 1_556
Al4 O20 1.803091 1_555
Al4 O19 1.824100 1_555
Al4 O10 1.824277 1_565
Al4 O12 1.931436 1_555
Al4 O17 1.945419 1_554
Al5 O21 1.740456 1_555
Al5 O11 1.844803 1_555
Al5 O18 1.851833 1_555
Al5 O16 1.989003 1_555
Al5 O13 2.058359 1_545
Al6 O15 1.803091 1_555
Al6 O16 1.824100 1_555
Al6 O0 1.824277 1_545
Al6 O22 1.931436 1_555
Al6 O18 1.945419 1_555
Al7 O14 1.740456 1_555
Al7 O1 1.844803 1_555
Al7 O17 1.851833 1_555
Al7 O19 1.989003 1_556
Al7 O23 2.058359 1_565
Fe0 O8 1.898317 1_455
Fe0 O11 1.974985 1_555
Fe0 O18 1.988521 1_565
Fe0 O4 2.053471 1_555
Fe0 O0 2.056540 1_555
Fe1 O3 1.898317 1_555
Fe1 O1 1.974985 1_555
Fe1 O17 1.988521 1_545
Fe1 O7 2.053471 1_555
Fe1 O10 2.056540 1_556
Fe2 O20 1.898317 1_555
Fe2 O22 1.974985 1_555
Fe2 O6 1.988521 1_565
Fe2 O16 2.053471 1_555
Fe2 O13 2.056540 1_554
Fe3 O15 1.898317 1_655
Fe3 O12 1.974985 1_555
Fe3 O5 1.988521 1_545
Fe3 O19 2.053471 1_555
Fe3 O23 2.056540 1_555
