# generated using pymatgen
data_BaRe2(H2O3)4
_symmetry_space_group_name_H-M   'P 1'
_cell_length_a   12.65177300
_cell_length_b   7.49871400
_cell_length_c   14.39722162
_cell_angle_alpha   60.14625163
_cell_angle_beta   90.00000000
_cell_angle_gamma   90.00000000
_symmetry_Int_Tables_number   1
_chemical_formula_structural   BaRe2(H2O3)4
_chemical_formula_sum   'Ba4 Re8 H32 O48'
_cell_volume   1184.63797430
_cell_formula_units_Z   4
loop_
 _symmetry_equiv_pos_site_id
 _symmetry_equiv_pos_as_xyz
  1  'x, y, z'
loop_
 _atom_site_type_symbol
 _atom_site_label
 _atom_site_symmetry_multiplicity
 _atom_site_fract_x
 _atom_site_fract_y
 _atom_site_fract_z
 _atom_site_occupancy
  Ba  Ba0  1  0.75018600  0.17841800  0.06964200  1
  Ba  Ba1  1  0.74981400  0.17841800  0.56964200  1
  Ba  Ba2  1  0.24981400  0.82158200  0.93035800  1
  Ba  Ba3  1  0.25018600  0.82158200  0.43035800  1
  Re  Re0  1  0.88589400  0.83642900  0.40806300  1
  Re  Re1  1  0.61410600  0.83642900  0.90806300  1
  Re  Re2  1  0.11410600  0.16357100  0.59193700  1
  Re  Re3  1  0.38589400  0.16357100  0.09193700  1
  Re  Re4  1  0.57251900  0.71367400  0.53763800  1
  Re  Re5  1  0.92748100  0.71367400  0.03763800  1
  Re  Re6  1  0.42748100  0.28632600  0.46236200  1
  Re  Re7  1  0.07251900  0.28632600  0.96236200  1
  H  H0  1  0.59362300  0.31107300  0.21834400  1
  H  H1  1  0.90637700  0.31107300  0.71834400  1
  H  H2  1  0.40637700  0.68892700  0.78165600  1
  H  H3  1  0.09362300  0.68892700  0.28165600  1
  H  H4  1  0.64597800  0.10411300  0.30189500  1
  H  H5  1  0.85402200  0.10411300  0.80189500  1
  H  H6  1  0.35402200  0.89588700  0.69810500  1
  H  H7  1  0.14597800  0.89588700  0.19810500  1
  H  H8  1  0.61323100  0.80683600  0.28546500  1
  H  H9  1  0.88676900  0.80683600  0.78546500  1
  H  H10  1  0.38676900  0.19316400  0.71453500  1
  H  H11  1  0.11323100  0.19316400  0.21453500  1
  H  H12  1  0.69832100  0.69159200  0.25776700  1
  H  H13  1  0.80167900  0.69159200  0.75776700  1
  H  H14  1  0.30167900  0.30840800  0.74223300  1
  H  H15  1  0.19832100  0.30840800  0.24223300  1
  H  H16  1  0.77570000  0.36335300  0.80061000  1
  H  H17  1  0.72430000  0.36335300  0.30061000  1
  H  H18  1  0.22430000  0.63664700  0.19939000  1
  H  H19  1  0.27570000  0.63664700  0.69939000  1
  H  H20  1  0.66546200  0.44017900  0.81358100  1
  H  H21  1  0.83453800  0.44017900  0.31358100  1
  H  H22  1  0.33453800  0.55982100  0.18641900  1
  H  H23  1  0.16546200  0.55982100  0.68641900  1
  H  H24  1  0.50823100  0.39002700  0.89645800  1
  H  H25  1  0.99176900  0.39002700  0.39645800  1
  H  H26  1  0.49176900  0.60997300  0.10354200  1
  H  H27  1  0.00823100  0.60997300  0.60354200  1
  H  H28  1  0.45744500  0.36317700  0.80552700  1
  H  H29  1  0.04255500  0.36317700  0.30552700  1
  H  H30  1  0.54255500  0.63682300  0.19447300  1
  H  H31  1  0.95744500  0.63682300  0.69447300  1
  O  O0  1  0.86172300  0.95105300  0.27039000  1
  O  O1  1  0.63827700  0.95105300  0.77039000  1
  O  O2  1  0.13827700  0.04894700  0.72961000  1
  O  O3  1  0.36172300  0.04894700  0.22961000  1
  O  O4  1  0.81254400  0.60909700  0.47667700  1
  O  O5  1  0.68745600  0.60909700  0.97667700  1
  O  O6  1  0.18745600  0.39090300  0.52332300  1
  O  O7  1  0.31254400  0.39090300  0.02332300  1
  O  O8  1  0.02076600  0.77465800  0.43766600  1
  O  O9  1  0.47923400  0.77465800  0.93766600  1
  O  O10  1  0.97923400  0.22534200  0.56233400  1
  O  O11  1  0.52076600  0.22534200  0.06233400  1
  O  O12  1  0.84736500  0.00348800  0.45421100  1
  O  O13  1  0.65263500  0.00348800  0.95421100  1
  O  O14  1  0.15263500  0.99651200  0.54578900  1
  O  O15  1  0.34736500  0.99651200  0.04578900  1
  O  O16  1  0.59783300  0.44989100  0.59002600  1
  O  O17  1  0.90216700  0.44989100  0.09002600  1
  O  O18  1  0.40216700  0.55010900  0.40997400  1
  O  O19  1  0.09783300  0.55010900  0.90997400  1
  O  O20  1  0.65031800  0.80877400  0.60338300  1
  O  O21  1  0.84968200  0.80877400  0.10338300  1
  O  O22  1  0.34968200  0.19122600  0.39661700  1
  O  O23  1  0.15031800  0.19122600  0.89661700  1
  O  O24  1  0.43846200  0.75064600  0.55505800  1
  O  O25  1  0.06153800  0.75064600  0.05505800  1
  O  O26  1  0.56153800  0.24935400  0.44494200  1
  O  O27  1  0.93846200  0.24935400  0.94494200  1
  O  O28  1  0.60202400  0.84854800  0.39998600  1
  O  O29  1  0.89797600  0.84854800  0.89998600  1
  O  O30  1  0.39797600  0.15145200  0.60001400  1
  O  O31  1  0.10202400  0.15145200  0.10001400  1
  O  O32  1  0.66182100  0.23668200  0.23698000  1
  O  O33  1  0.83817900  0.23668200  0.73698000  1
  O  O34  1  0.33817900  0.76331800  0.76302000  1
  O  O35  1  0.16182100  0.76331800  0.26302000  1
  O  O36  1  0.64127800  0.79612700  0.22439200  1
  O  O37  1  0.85872200  0.79612700  0.72439200  1
  O  O38  1  0.35872200  0.20387300  0.77560800  1
  O  O39  1  0.14127800  0.20387300  0.27560800  1
  O  O40  1  0.73964700  0.43287400  0.83545800  1
  O  O41  1  0.76035300  0.43287400  0.33545800  1
  O  O42  1  0.26035300  0.56712600  0.16454200  1
  O  O43  1  0.23964700  0.56712600  0.66454200  1
  O  O44  1  0.50317500  0.45700100  0.81823900  1
  O  O45  1  0.99682500  0.45700100  0.31823900  1
  O  O46  1  0.49682500  0.54299900  0.18176100  1
  O  O47  1  0.00317500  0.54299900  0.68176100  1
loop_
_geom_bond_atom_site_label_1
_geom_bond_atom_site_label_2
_geom_bond_distance
_geom_bond_site_symmetry_2
Ba0 O21 2.857130 1_545
Ba0 O13 2.859391 1_554
Ba0 O27 2.868702 1_554
Ba0 O32 2.879747 1_555
Ba0 O0 2.888882 1_545
Ba0 O17 2.919288 1_555
Ba0 O11 2.919407 1_555
Ba0 O5 2.923662 1_554
Ba0 O40 2.936225 1_554
Ba0 O36 2.953248 1_545
Ba1 O20 2.857130 1_545
Ba1 O12 2.859391 1_555
Ba1 O26 2.868702 1_555
Ba1 O33 2.879747 1_555
Ba1 O1 2.888882 1_545
Ba1 O16 2.919288 1_555
Ba1 O10 2.919407 1_555
Ba1 O4 2.923662 1_555
Ba1 O41 2.936225 1_555
Ba1 O37 2.953248 1_545
Ba2 O23 2.857130 1_565
Ba2 O15 2.859391 1_556
Ba2 O25 2.868702 1_556
Ba2 O34 2.879747 1_555
Ba2 O2 2.888882 1_565
Ba2 O19 2.919288 1_555
Ba2 O9 2.919407 1_555
Ba2 O7 2.923662 1_556
Ba2 O42 2.936225 1_556
Ba2 O38 2.953248 1_565
Ba3 O22 2.857130 1_565
Ba3 O14 2.859391 1_555
Ba3 O24 2.868702 1_555
Ba3 O35 2.879747 1_555
Ba3 O3 2.888882 1_565
Ba3 O18 2.919288 1_555
Ba3 O8 2.919407 1_555
Ba3 O6 2.923662 1_555
Ba3 O43 2.936225 1_555
Ba3 O39 2.953248 1_565
H0 O32 0.989257 1_555
H1 O33 0.989257 1_555
H2 O34 0.989257 1_555
H3 O35 0.989257 1_555
H4 O32 0.988386 1_555
H5 O33 0.988386 1_555
H6 O34 0.988386 1_555
H7 O35 0.988386 1_555
H8 O36 0.987824 1_555
H9 O37 0.987824 1_555
H10 O38 0.987824 1_555
H11 O39 0.987824 1_555
H12 O36 0.995592 1_555
H13 O37 0.995592 1_555
H14 O38 0.995592 1_555
H15 O39 0.995592 1_555
H16 O40 0.995964 1_555
H17 O41 0.995964 1_555
H18 O42 0.995964 1_555
H19 O43 0.995964 1_555
H20 O40 0.982825 1_555
H21 O41 0.982825 1_555
H22 O42 0.982825 1_555
H23 O43 0.982825 1_555
H24 O44 0.980527 1_555
H25 O45 0.980527 1_555
H26 O46 0.980527 1_555
H27 O47 0.980527 1_555
H28 O44 0.995702 1_555
H29 O45 0.995702 1_455
H30 O46 0.995702 1_555
H31 O47 0.995702 1_655
O0 Re0 1.750691 1_555
O1 Re1 1.750691 1_555
O2 Re2 1.750691 1_555
O3 Re3 1.750691 1_555
O4 Re0 1.751144 1_555
O5 Re1 1.751144 1_555
O6 Re2 1.751144 1_555
O7 Re3 1.751144 1_555
O8 Re0 1.763904 1_455
O9 Re1 1.763904 1_555
O10 Re2 1.763904 1_655
O11 Re3 1.763904 1_555
O12 Re0 1.754140 1_545
O13 Re1 1.754140 1_545
O14 Re2 1.754140 1_565
O15 Re3 1.754140 1_565
O16 Re4 1.760327 1_555
O17 Re5 1.760327 1_555
O18 Re6 1.760327 1_555
O19 Re7 1.760327 1_555
O20 Re4 1.745095 1_555
O21 Re5 1.745095 1_555
O22 Re6 1.745095 1_555
O23 Re7 1.745095 1_555
O24 Re4 1.756589 1_555
O25 Re5 1.756589 1_455
O26 Re6 1.756589 1_555
O27 Re7 1.756589 1_655
O28 Re4 1.759062 1_555
O29 Re5 1.759062 1_556
O30 Re6 1.759062 1_555
O31 Re7 1.759062 1_554
