# generated using pymatgen
data_Li3VSiBO7
_symmetry_space_group_name_H-M   'P 1'
_cell_length_a   5.11376805
_cell_length_b   16.71779632
_cell_length_c   6.43185100
_cell_angle_alpha   90.00131054
_cell_angle_beta   90.00007565
_cell_angle_gamma   85.44384483
_symmetry_Int_Tables_number   1
_chemical_formula_structural   Li3VSiBO7
_chemical_formula_sum   'Li12 V4 Si4 B4 O28'
_cell_volume   548.12734424
_cell_formula_units_Z   4
loop_
 _symmetry_equiv_pos_site_id
 _symmetry_equiv_pos_as_xyz
  1  'x, y, z'
loop_
 _atom_site_type_symbol
 _atom_site_label
 _atom_site_symmetry_multiplicity
 _atom_site_fract_x
 _atom_site_fract_y
 _atom_site_fract_z
 _atom_site_occupancy
  Li  Li0  1  0.75682800  0.05334800  0.25000500  1
  Li  Li1  1  0.75739100  0.55338200  0.25000200  1
  Li  Li2  1  0.24283500  0.44663900  0.75001000  1
  Li  Li3  1  0.24280600  0.94662600  0.75000200  1
  Li  Li4  1  0.23741100  0.11589700  0.99456200  1
  Li  Li5  1  0.23786700  0.61592200  0.99449500  1
  Li  Li6  1  0.23736900  0.11585700  0.50553900  1
  Li  Li7  1  0.23786300  0.61592000  0.50547600  1
  Li  Li8  1  0.76256700  0.38411200  0.49452100  1
  Li  Li9  1  0.76225300  0.88402400  0.49470100  1
  Li  Li10  1  0.76261300  0.38412200  0.00551800  1
  Li  Li11  1  0.76226600  0.88403000  0.00529200  1
  V  V0  1  0.79524100  0.66256600  0.74998800  1
  V  V1  1  0.20486600  0.33752500  0.24995100  1
  V  V2  1  0.79524800  0.16242900  0.75001000  1
  V  V3  1  0.20451400  0.83745900  0.25000500  1
  Si  Si0  1  0.73070100  0.21343100  0.25000900  1
  Si  Si1  1  0.73054000  0.71347700  0.24999300  1
  Si  Si2  1  0.26958400  0.28648600  0.74997900  1
  Si  Si3  1  0.26921400  0.78654100  0.74999600  1
  B  B0  1  0.72132700  0.01911400  0.74999500  1
  B  B1  1  0.72118600  0.51914300  0.74999700  1
  B  B2  1  0.27899100  0.48089600  0.25000100  1
  B  B3  1  0.27851500  0.98085300  0.25000100  1
  O  O0  1  0.35619200  0.05610900  0.25001300  1
  O  O1  1  0.35662500  0.55616600  0.24998600  1
  O  O2  1  0.64359300  0.44389600  0.75002800  1
  O  O3  1  0.64346300  0.94388300  0.74999100  1
  O  O4  1  0.97684700  0.04275900  0.74997800  1
  O  O5  1  0.97667100  0.54283700  0.75000100  1
  O  O6  1  0.02346700  0.45724100  0.25002000  1
  O  O7  1  0.02299500  0.95718200  0.24999300  1
  O  O8  1  0.53272700  0.08700500  0.75001600  1
  O  O9  1  0.53265100  0.58706100  0.74995400  1
  O  O10  1  0.46747400  0.41298600  0.24997700  1
  O  O11  1  0.46701700  0.91294800  0.25000400  1
  O  O12  1  0.41508700  0.23891400  0.24994200  1
  O  O13  1  0.41486100  0.73881800  0.25000100  1
  O  O14  1  0.58518800  0.26116300  0.75005000  1
  O  O15  1  0.58496800  0.76121500  0.74996600  1
  O  O16  1  0.13189400  0.20064600  0.75002500  1
  O  O17  1  0.13195100  0.70060200  0.75000400  1
  O  O18  1  0.86826700  0.29934400  0.25007700  1
  O  O19  1  0.86782300  0.79939000  0.24998000  1
  O  O20  1  0.82286600  0.15468200  0.05517500  1
  O  O21  1  0.82262000  0.65473900  0.05506700  1
  O  O22  1  0.82278900  0.15467800  0.44485400  1
  O  O23  1  0.82266100  0.65473900  0.44490000  1
  O  O24  1  0.17756500  0.34531300  0.55511300  1
  O  O25  1  0.17710500  0.84528700  0.55511500  1
  O  O26  1  0.17749900  0.34530700  0.94483900  1
  O  O27  1  0.17713900  0.84528900  0.94488500  1
loop_
_geom_bond_atom_site_label_1
_geom_bond_atom_site_label_2
_geom_bond_distance
_geom_bond_site_symmetry_2
Li0 O7 2.022284 1_645
Li0 O0 2.045611 1_555
Li0 O22 2.155169 1_555
Li0 O20 2.155283 1_555
Li1 O6 2.021690 1_655
Li1 O1 2.046253 1_555
Li1 O23 2.154942 1_555
Li1 O21 2.155081 1_555
Li2 O5 2.022671 1_455
Li2 O2 2.046251 1_555
Li2 O26 2.154469 1_555
Li2 O24 2.154524 1_555
Li3 O4 2.021226 1_465
Li3 O3 2.045735 1_555
Li3 O27 2.155107 1_555
Li3 O25 2.155141 1_555
Li4 O0 1.992773 1_556
Li4 O16 2.156606 1_555
Li4 O20 2.201805 1_456
Li4 O8 2.207257 1_555
Li4 O4 2.450295 1_455
Li5 O1 1.992699 1_556
Li5 O17 2.156060 1_555
Li5 O21 2.205247 1_456
Li5 O9 2.205335 1_555
Li5 O5 2.451330 1_455
Li6 O0 1.992872 1_555
Li6 O16 2.156704 1_555
Li6 O22 2.202190 1_455
Li6 O8 2.206987 1_555
Li6 O4 2.449246 1_455
Li7 O1 1.992647 1_555
Li7 O17 2.156205 1_555
Li7 O23 2.205047 1_455
Li7 O9 2.205068 1_555
Li7 O5 2.451466 1_455
Li8 O2 1.993264 1_555
Li8 O18 2.156511 1_555
Li8 O24 2.204012 1_655
Li8 O10 2.206451 1_555
Li8 O6 2.450912 1_655
Li9 O3 1.992462 1_555
Li9 O19 2.156253 1_555
Li9 O25 2.202883 1_655
Li9 O11 2.207777 1_555
Li9 O7 2.451557 1_655
Li10 O2 1.993192 1_554
Li10 O18 2.157157 1_555
Li10 O26 2.203627 1_654
Li10 O10 2.206178 1_555
Li10 O6 2.450650 1_655
Li11 O3 1.992527 1_554
Li11 O19 2.156195 1_555
Li11 O27 2.202986 1_654
Li11 O11 2.207861 1_555
Li11 O7 2.451397 1_655
B0 O3 1.349040 1_545
B0 O4 1.394884 1_555
B0 O8 1.429848 1_555
B1 O2 1.348784 1_555
B1 O5 1.395006 1_555
B1 O9 1.429979 1_555
B2 O1 1.349229 1_555
B2 O6 1.394964 1_555
B2 O10 1.429717 1_555
B3 O0 1.349086 1_565
B3 O7 1.395040 1_555
B3 O11 1.429715 1_555
O4 V2 2.137688 1_555
O5 V0 2.138266 1_555
O6 V1 2.138013 1_555
O7 V3 2.138339 1_555
O8 V2 1.913397 1_555
O9 V0 1.914631 1_555
O10 V1 1.914175 1_555
O11 V3 1.914104 1_555
O12 Si0 1.636208 1_555
O12 V1 1.895220 1_555
O13 Si1 1.636098 1_555
O13 V3 1.895954 1_555
O14 Si2 1.635674 1_555
O14 V2 1.896506 1_555
O15 Si3 1.636424 1_555
O15 V0 1.895876 1_555
O16 Si2 1.647936 1_555
O16 V2 1.883243 1_455
O17 Si3 1.648352 1_555
O17 V0 1.882307 1_455
O18 Si0 1.648726 1_555
O18 V1 1.882769 1_655
O19 Si1 1.648009 1_555
O19 V3 1.882442 1_655
O20 Si0 1.638149 1_555
O20 V2 1.971374 1_554
O21 Si1 1.638391 1_555
O21 V0 1.970823 1_554
O22 Si0 1.638180 1_555
O22 V2 1.971288 1_555
O23 Si1 1.638381 1_555
O23 V0 1.970889 1_555
O24 Si2 1.638913 1_555
O24 V1 1.971283 1_555
O25 Si3 1.638316 1_555
O25 V3 1.971027 1_555
O26 Si2 1.638873 1_555
O26 V1 1.970985 1_556
O27 Si3 1.638299 1_555
O27 V3 1.971087 1_556
