# generated using pymatgen
data_CeTh3O8
_symmetry_space_group_name_H-M   'P 1'
_cell_length_a   3.93489349
_cell_length_b   6.81165660
_cell_length_c   6.81165660
_cell_angle_alpha   70.52020889
_cell_angle_beta   90.00000000
_cell_angle_gamma   90.00000000
_symmetry_Int_Tables_number   1
_chemical_formula_structural   CeTh3O8
_chemical_formula_sum   'Ce1 Th3 O8'
_cell_volume   172.12313096
_cell_formula_units_Z   1
loop_
 _symmetry_equiv_pos_site_id
 _symmetry_equiv_pos_as_xyz
  1  'x, y, z'
loop_
 _atom_site_type_symbol
 _atom_site_label
 _atom_site_symmetry_multiplicity
 _atom_site_fract_x
 _atom_site_fract_y
 _atom_site_fract_z
 _atom_site_occupancy
  Ce  Ce0  1  0.00000000  0.50000000  0.50000000  1
  Th  Th0  1  0.50000000  0.50000000  0.00000000  1
  Th  Th1  1  0.50000000  -0.00000000  0.50000000  1
  Th  Th2  1  0.00000000  -0.00000000  0.00000000  1
  O  O0  1  0.50000000  0.87468680  0.87468680  1
  O  O1  1  0.00000000  0.37683527  0.87104476  1
  O  O2  1  0.50000000  0.62245131  0.62245131  1
  O  O3  1  -0.00000000  0.87104476  0.37683527  1
  O  O4  1  0.00000000  0.12895524  0.62316473  1
  O  O5  1  0.50000000  0.37754869  0.37754869  1
  O  O6  1  -0.00000000  0.62316473  0.12895524  1
  O  O7  1  0.50000000  0.12531320  0.12531320  1
loop_
_geom_bond_atom_site_label_1
_geom_bond_atom_site_label_2
_geom_bond_distance
_geom_bond_site_symmetry_2
Ce0 O3 2.382760 1_555
Ce0 O1 2.382760 1_555
Ce0 O6 2.382760 1_555
Ce0 O4 2.382760 1_555
Ce0 O2 2.392966 1_555
Ce0 O5 2.392966 1_455
Ce0 O2 2.392966 1_455
Ce0 O5 2.392966 1_555
O0 Th1 2.406147 1_565
O0 Th0 2.406147 1_556
O0 Th2 2.411230 1_566
O0 Th2 2.411230 1_666
O1 Th0 2.416149 1_456
O1 Th0 2.416149 1_556
O1 Th2 2.420046 1_556
O2 Th1 2.424638 1_565
O2 Th0 2.424638 1_556
O3 Th1 2.416149 1_565
O3 Th1 2.416149 1_465
O3 Th2 2.420046 1_565
O4 Th1 2.416149 1_555
O4 Th1 2.416149 1_455
O4 Th2 2.420046 1_556
O5 Th1 2.424638 1_555
O5 Th0 2.424638 1_555
O6 Th0 2.416149 1_555
O6 Th0 2.416149 1_455
O6 Th2 2.420046 1_565
O7 Th1 2.406147 1_555
O7 Th0 2.406147 1_555
O7 Th2 2.411230 1_655
O7 Th2 2.411230 1_555
