# generated using pymatgen
data_Li32Ti3Cr13O48
_symmetry_space_group_name_H-M   'P 1'
_cell_length_a   5.06372700
_cell_length_b   8.73273661
_cell_length_c   19.55448821
_cell_angle_alpha   98.39642951
_cell_angle_beta   94.94190422
_cell_angle_gamma   90.07561594
_symmetry_Int_Tables_number   1
_chemical_formula_structural   Li32Ti3Cr13O48
_chemical_formula_sum   'Li32 Ti3 Cr13 O48'
_cell_volume   852.17011236
_cell_formula_units_Z   1
loop_
 _symmetry_equiv_pos_site_id
 _symmetry_equiv_pos_as_xyz
  1  'x, y, z'
loop_
 _atom_site_type_symbol
 _atom_site_label
 _atom_site_symmetry_multiplicity
 _atom_site_fract_x
 _atom_site_fract_y
 _atom_site_fract_z
 _atom_site_occupancy
  Li  Li0  1  0.99223000  0.16989500  0.24907000  1
  Li  Li1  1  0.87314100  0.37510200  0.37564100  1
  Li  Li2  1  0.74678800  0.25227300  0.00024900  1
  Li  Li3  1  0.74282500  0.92148300  0.00021800  1
  Li  Li4  1  0.99131700  0.16999100  0.74979800  1
  Li  Li5  1  0.75446500  0.57839100  0.50003600  1
  Li  Li6  1  0.87303900  0.37523100  0.87571100  1
  Li  Li7  1  0.74200000  0.25313700  0.50045600  1
  Li  Li8  1  0.74489700  0.92197800  0.50042500  1
  Li  Li9  1  0.62453700  0.12716000  0.12538600  1
  Li  Li10  1  0.75403000  0.57872100  0.00003700  1
  Li  Li11  1  0.51049000  0.33314800  0.24999500  1
  Li  Li12  1  0.62548800  0.12609500  0.62516600  1
  Li  Li13  1  0.50224600  0.99960500  0.25047800  1
  Li  Li14  1  0.48458700  0.66638600  0.24953000  1
  Li  Li15  1  0.51546200  0.33416400  0.75062200  1
  Li  Li16  1  0.37435500  0.87387600  0.37474800  1
  Li  Li17  1  0.50019400  0.99986700  0.75003200  1
  Li  Li18  1  0.25740600  0.74743100  0.99975000  1
  Li  Li19  1  0.48523700  0.66594000  0.74941800  1
  Li  Li20  1  0.24448800  0.42117800  0.00022300  1
  Li  Li21  1  0.37446500  0.87430700  0.87481800  1
  Li  Li22  1  0.25495200  0.07791100  0.49935400  1
  Li  Li23  1  0.25828800  0.74678000  0.49928500  1
  Li  Li24  1  0.12680100  0.62260400  0.12452300  1
  Li  Li25  1  0.24571600  0.42134100  0.49976100  1
  Li  Li26  1  0.00917600  0.83062000  0.25033300  1
  Li  Li27  1  0.25531200  0.07903400  0.00007700  1
  Li  Li28  1  0.12590300  0.62447200  0.62433000  1
  Li  Li29  1  0.00314300  0.49950100  0.24937300  1
  Li  Li30  1  0.00846400  0.82992100  0.75029900  1
  Li  Li31  1  0.99964500  0.49988100  0.74999000  1
  Ti  Ti0  1  0.87227500  0.71080100  0.37371200  1
  Ti  Ti1  1  0.87150000  0.71118600  0.87364900  1
  Ti  Ti2  1  0.12762800  0.28888400  0.62546400  1
  Cr  Cr0  1  0.87699200  0.04724200  0.37516700  1
  Cr  Cr1  1  0.87806600  0.04731600  0.87536600  1
  Cr  Cr2  1  0.62409300  0.79727500  0.12463400  1
  Cr  Cr3  1  0.62806000  0.46200600  0.12520800  1
  Cr  Cr4  1  0.62465500  0.79752200  0.62482100  1
  Cr  Cr5  1  0.62657800  0.46234700  0.62510100  1
  Cr  Cr6  1  0.37191100  0.53776200  0.37473000  1
  Cr  Cr7  1  0.37659900  0.20263000  0.37557800  1
  Cr  Cr8  1  0.37064200  0.53849700  0.87485300  1
  Cr  Cr9  1  0.37826800  0.20350400  0.87601000  1
  Cr  Cr10  1  0.12388800  0.95182200  0.12492900  1
  Cr  Cr11  1  0.12764000  0.28764200  0.12550800  1
  Cr  Cr12  1  0.12371300  0.95288400  0.62469300  1
  O  O0  1  0.96740300  0.10464600  0.06976900  1
  O  O1  1  0.93470500  0.78825200  0.06843500  1
  O  O2  1  0.91808000  0.42687500  0.06812600  1
  O  O3  1  0.96362900  0.10305700  0.56865900  1
  O  O4  1  0.81442300  0.96144500  0.18153500  1
  O  O5  1  0.83178300  0.32241000  0.18253800  1
  O  O6  1  0.93637700  0.78775200  0.56877000  1
  O  O7  1  0.92073700  0.42830300  0.56771300  1
  O  O8  1  0.78280500  0.64389000  0.18019500  1
  O  O9  1  0.71272800  0.86007600  0.31846500  1
  O  O10  1  0.81574500  0.96088000  0.68166400  1
  O  O11  1  0.82418800  0.32212600  0.68337400  1
  O  O12  1  0.67337200  0.53357400  0.31878900  1
  O  O13  1  0.68621000  0.17490300  0.31780300  1
  O  O14  1  0.78299800  0.64397700  0.68021200  1
  O  O15  1  0.71231300  0.85987800  0.81853800  1
  O  O16  1  0.46233700  0.61040200  0.06922100  1
  O  O17  1  0.56941400  0.71369800  0.43131500  1
  O  O18  1  0.56557300  0.07565100  0.43270000  1
  O  O19  1  0.67452700  0.53299500  0.81901400  1
  O  O20  1  0.68591600  0.17458300  0.81784200  1
  O  O21  1  0.43614100  0.92503000  0.06745700  1
  O  O22  1  0.42128400  0.28687400  0.06913600  1
  O  O23  1  0.53734100  0.38926500  0.43098400  1
  O  O24  1  0.46480600  0.60898900  0.56932600  1
  O  O25  1  0.56848300  0.71309500  0.93117900  1
  O  O26  1  0.56547800  0.07509200  0.93273700  1
  O  O27  1  0.31612800  0.82627100  0.18251700  1
  O  O28  1  0.32805600  0.46504000  0.18116600  1
  O  O29  1  0.43401200  0.92357200  0.56724300  1
  O  O30  1  0.42896600  0.28496500  0.56831500  1
  O  O31  1  0.53690000  0.38865600  0.93130200  1
  O  O32  1  0.28488500  0.14120600  0.18096000  1
  O  O33  1  0.21735300  0.35750600  0.32026000  1
  O  O34  1  0.31395000  0.82506900  0.68202400  1
  O  O35  1  0.32771300  0.46602000  0.68133500  1
  O  O36  1  0.17417200  0.67860600  0.31621600  1
  O  O37  1  0.18483700  0.03962300  0.31838700  1
  O  O38  1  0.28689200  0.14027600  0.68156200  1
  O  O39  1  0.21666000  0.35914400  0.81993100  1
  O  O40  1  0.08032000  0.57143000  0.43236700  1
  O  O41  1  0.06353100  0.21203200  0.43134100  1
  O  O42  1  0.17335300  0.67924000  0.81617600  1
  O  O43  1  0.18495700  0.04053100  0.81856300  1
  O  O44  1  0.03602500  0.89670200  0.43118900  1
  O  O45  1  0.08030600  0.57100500  0.93239400  1
  O  O46  1  0.06327200  0.21210600  0.93126600  1
  O  O47  1  0.03532500  0.89654100  0.93143800  1
loop_
_geom_bond_atom_site_label_1
_geom_bond_atom_site_label_2
_geom_bond_distance
_geom_bond_site_symmetry_2
Li0 O32 2.067921 1_655
Li0 O37 2.075619 1_655
Li0 O5 2.110299 1_555
Li0 O13 2.133416 1_555
Li0 O4 2.226447 1_545
Li0 O33 2.230967 1_655
Li1 O23 2.087183 1_555
Li1 O41 2.102230 1_655
Li1 O12 2.105611 1_555
Li1 O13 2.113141 1_555
Li1 O40 2.123637 1_655
Li1 O33 2.124086 1_655
Li2 O2 2.011481 1_555
Li2 O26 2.042226 1_554
Li2 O31 2.142699 1_554
Li2 O46 2.178690 1_654
Li2 O22 2.210792 1_555
Li2 O0 2.238752 1_555
Li3 O47 2.075727 1_654
Li3 O1 2.076072 1_555
Li3 O21 2.116943 1_555
Li3 O26 2.159417 1_564
Li3 O0 2.189700 1_565
Li3 O25 2.233054 1_554
Li4 O43 2.065775 1_655
Li4 O38 2.081317 1_655
Li4 O11 2.118000 1_555
Li4 O20 2.121951 1_555
Li4 O39 2.230513 1_655
Li4 O10 2.231879 1_545
Li5 O24 2.072754 1_555
Li5 O17 2.080802 1_555
Li5 O7 2.120289 1_555
Li5 O40 2.197778 1_655
Li5 O23 2.201803 1_555
Li5 O6 2.249949 1_555
Li6 O31 2.091585 1_555
Li6 O19 2.096529 1_555
Li6 O46 2.100626 1_655
Li6 O20 2.116694 1_555
Li6 O45 2.120001 1_655
Li6 O39 2.126022 1_655
Li7 O7 2.022992 1_555
Li7 O18 2.036802 1_555
Li7 O23 2.136582 1_555
Li7 O30 2.146274 1_555
Li7 O41 2.201196 1_655
Li7 O3 2.238827 1_555
Li8 O44 2.076631 1_655
Li8 O6 2.082649 1_555
Li8 O29 2.129490 1_555
Li8 O3 2.152257 1_565
Li8 O18 2.166651 1_565
Li8 O17 2.234981 1_555
Li9 O32 2.106592 1_555
Li9 O22 2.114529 1_555
Li9 O5 2.119967 1_555
Li9 O0 2.121212 1_555
Li9 O4 2.123702 1_545
Li9 O21 2.129421 1_545
Li10 O25 2.078259 1_554
Li10 O16 2.079544 1_555
Li10 O2 2.132870 1_555
Li10 O45 2.198772 1_654
Li10 O31 2.204398 1_554
Li10 O1 2.245891 1_555
Li11 O28 2.057376 1_555
Li11 O33 2.098410 1_555
Li11 O12 2.161196 1_555
Li11 O5 2.174798 1_555
Li11 O13 2.189672 1_555
Li11 O32 2.237282 1_555
Li12 O30 2.101050 1_555
Li12 O3 2.110734 1_555
Li12 O38 2.111314 1_555
Li12 O11 2.113663 1_555
Li12 O10 2.125117 1_545
Li12 O29 2.138251 1_545
Li13 O27 2.034331 1_555
Li13 O13 2.034890 1_565
Li13 O9 2.149527 1_555
Li13 O4 2.159808 1_555
Li13 O37 2.168530 1_565
Li13 O32 2.196633 1_565
Li14 O12 2.081299 1_555
Li14 O8 2.105457 1_555
Li14 O36 2.120263 1_555
Li14 O28 2.152739 1_555
Li14 O27 2.176965 1_555
Li14 O9 2.252402 1_555
Li15 O35 2.074119 1_555
Li15 O39 2.107508 1_555
Li15 O11 2.120954 1_555
Li15 O19 2.141204 1_555
Li15 O20 2.181172 1_555
Li15 O38 2.255635 1_555
Li16 O17 2.103102 1_555
Li16 O9 2.109114 1_555
Li16 O44 2.110770 1_555
Li16 O36 2.114462 1_555
Li16 O37 2.125550 1_565
Li16 O18 2.133040 1_565
Li17 O20 2.039882 1_565
Li17 O34 2.043359 1_555
Li17 O15 2.162531 1_555
Li17 O10 2.166320 1_555
Li17 O38 2.167142 1_565
Li17 O43 2.168204 1_565
Li18 O45 2.028036 1_555
Li18 O21 2.041467 1_556
Li18 O16 2.142283 1_556
Li18 O25 2.148688 1_555
Li18 O1 2.200232 1_456
Li18 O47 2.235532 1_555
Li19 O19 2.087656 1_555
Li19 O14 2.101926 1_555
Li19 O42 2.126779 1_555
Li19 O35 2.142720 1_555
Li19 O34 2.182015 1_555
Li19 O15 2.252974 1_555
Li20 O22 2.061413 1_555
Li20 O31 2.079085 1_554
Li20 O45 2.117079 1_554
Li20 O16 2.203520 1_555
Li20 O2 2.203742 1_455
Li20 O46 2.248806 1_554
Li21 O25 2.105244 1_555
Li21 O15 2.106709 1_555
Li21 O42 2.116033 1_555
Li21 O47 2.116220 1_555
Li21 O26 2.125918 1_565
Li21 O43 2.127487 1_565
Li22 O41 2.077489 1_555
Li22 O3 2.078316 1_455
Li22 O18 2.125794 1_555
Li22 O44 2.152811 1_545
Li22 O29 2.172423 1_545
Li22 O30 2.223347 1_555
Li23 O40 2.019223 1_555
Li23 O29 2.033408 1_555
Li23 O17 2.140542 1_555
Li23 O24 2.157593 1_555
Li23 O6 2.207372 1_455
Li23 O44 2.238015 1_555
Li24 O16 2.085902 1_555
Li24 O28 2.100711 1_555
Li24 O2 2.121015 1_455
Li24 O8 2.126589 1_455
Li24 O1 2.127176 1_455
Li24 O27 2.141871 1_555
Li25 O23 2.073918 1_555
Li25 O30 2.081169 1_555
Li25 O40 2.115009 1_555
Li25 O7 2.197894 1_455
Li25 O24 2.202431 1_555
Li25 O41 2.247398 1_555
Li26 O4 2.076263 1_455
Li26 O9 2.083280 1_455
Li26 O36 2.106414 1_555
Li26 O27 2.125204 1_555
Li26 O8 2.219262 1_455
Li26 O37 2.230653 1_565
Li27 O0 2.070466 1_455
Li27 O46 2.083462 1_554
Li27 O26 2.131935 1_554
Li27 O47 2.166838 1_544
Li27 O21 2.167036 1_545
Li27 O22 2.215593 1_555
Li28 O24 2.096746 1_555
Li28 O6 2.100221 1_455
Li28 O35 2.111747 1_555
Li28 O34 2.116959 1_555
Li28 O7 2.117301 1_455
Li28 O14 2.124015 1_455
Li29 O5 2.015795 1_455
Li29 O36 2.027110 1_555
Li29 O28 2.199668 1_555
Li29 O33 2.209547 1_555
Li29 O8 2.215055 1_455
Li29 O12 2.234593 1_455
Li30 O10 2.070522 1_455
Li30 O15 2.083685 1_455
Li30 O42 2.097781 1_555
Li30 O34 2.125231 1_555
Li30 O14 2.212263 1_455
Li30 O43 2.244189 1_565
Li31 O11 2.025406 1_555
Li31 O42 2.027373 1_655
Li31 O39 2.196381 1_655
Li31 O19 2.210393 1_555
Li31 O14 2.212671 1_555
Li31 O35 2.217912 1_655
Cr0 O41 1.877699 1_655
Cr0 O13 1.901511 1_555
Cr0 O44 1.961687 1_645
Cr0 O9 1.975098 1_545
Cr0 O37 1.985974 1_655
Cr0 O18 2.009767 1_555
Cr1 O46 1.872358 1_655
Cr1 O20 1.904358 1_555
Cr1 O47 1.960596 1_645
Cr1 O15 1.980674 1_545
Cr1 O43 1.982588 1_655
Cr1 O26 2.012546 1_555
Cr2 O4 1.888915 1_555
Cr2 O21 1.893227 1_555
Cr2 O16 1.958395 1_555
Cr2 O8 1.974309 1_555
Cr2 O1 1.990124 1_555
Cr2 O27 1.999648 1_555
Cr3 O8 1.909392 1_555
Cr3 O2 1.918433 1_555
Cr3 O28 1.945215 1_555
Cr3 O16 1.959867 1_555
Cr3 O22 1.986405 1_555
Cr3 O5 2.002560 1_555
Cr4 O10 1.885433 1_555
Cr4 O29 1.894402 1_555
Cr4 O24 1.966423 1_555
Cr4 O14 1.972657 1_555
Cr4 O6 1.992814 1_555
Cr4 O34 2.002513 1_555
Cr5 O14 1.911796 1_555
Cr5 O24 1.938346 1_555
Cr5 O7 1.938599 1_555
Cr5 O35 1.943462 1_555
Cr5 O30 1.983928 1_555
Cr5 O11 2.003361 1_555
Cr6 O33 1.894302 1_555
Cr6 O40 1.930794 1_555
Cr6 O12 1.950478 1_555
Cr6 O23 1.963191 1_555
Cr6 O17 1.973288 1_555
Cr6 O36 2.010337 1_555
Cr7 O37 1.887926 1_555
Cr7 O18 1.890324 1_555
Cr7 O23 1.954886 1_555
Cr7 O33 1.982282 1_555
Cr7 O41 1.995225 1_555
Cr7 O13 2.004799 1_555
Cr8 O39 1.890966 1_555
Cr8 O45 1.923770 1_555
Cr8 O19 1.958774 1_555
Cr8 O25 1.963911 1_555
Cr8 O31 1.975871 1_555
Cr8 O42 2.010665 1_555
Cr9 O26 1.889857 1_555
Cr9 O43 1.893560 1_555
Cr9 O31 1.940349 1_555
Cr9 O46 1.997717 1_555
Cr9 O39 2.000781 1_555
Cr9 O20 2.001721 1_555
Cr10 O1 1.879276 1_455
Cr10 O27 1.895348 1_555
Cr10 O0 1.961718 1_465
Cr10 O32 1.978290 1_565
Cr10 O4 1.989965 1_455
Cr10 O21 2.012006 1_555
Cr11 O32 1.924571 1_555
Cr11 O22 1.925202 1_555
Cr11 O0 1.932786 1_455
Cr11 O5 1.941758 1_455
Cr11 O28 1.981801 1_555
Cr11 O2 2.014988 1_455
Cr12 O6 1.879458 1_455
Cr12 O34 1.900747 1_555
Cr12 O3 1.961365 1_465
Cr12 O38 1.975858 1_565
Cr12 O10 1.988664 1_455
Cr12 O29 2.004409 1_555
O3 Ti2 1.966722 1_655
O7 Ti2 2.014012 1_655
O9 Ti0 1.944947 1_555
O11 Ti2 1.983054 1_655
O12 Ti0 1.971618 1_555
O15 Ti1 1.938805 1_555
O17 Ti0 1.977564 1_555
O19 Ti1 1.970904 1_555
O25 Ti1 1.977927 1_555
O30 Ti2 1.964977 1_555
O35 Ti2 1.981056 1_555
O36 Ti0 1.971053 1_455
O38 Ti2 1.950382 1_555
O40 Ti0 2.027204 1_455
O42 Ti1 1.970462 1_455
O44 Ti0 1.972129 1_455
O45 Ti1 2.034932 1_455
O47 Ti1 1.971284 1_455
