# generated using pymatgen
data_NaNiBO3
_symmetry_space_group_name_H-M   'P 1'
_cell_length_a   5.02700561
_cell_length_b   8.81908074
_cell_length_c   5.60011482
_cell_angle_alpha   90.00507191
_cell_angle_beta   101.13980032
_cell_angle_gamma   89.95330106
_symmetry_Int_Tables_number   1
_chemical_formula_structural   NaNiBO3
_chemical_formula_sum   'Na4 Ni4 B4 O12'
_cell_volume   243.59520247
_cell_formula_units_Z   4
loop_
 _symmetry_equiv_pos_site_id
 _symmetry_equiv_pos_as_xyz
  1  'x, y, z'
loop_
 _atom_site_type_symbol
 _atom_site_label
 _atom_site_symmetry_multiplicity
 _atom_site_fract_x
 _atom_site_fract_y
 _atom_site_fract_z
 _atom_site_occupancy
  Na  Na0  1  0.49987400  0.16437600  0.74966800  1
  Na  Na1  1  0.99987300  0.66437900  0.74966800  1
  Na  Na2  1  0.49891400  0.83448100  0.24734300  1
  Na  Na3  1  0.99891400  0.33447800  0.24734300  1
  Ni  Ni0  1  0.50027000  0.49868000  0.49850700  1
  Ni  Ni1  1  0.49944900  0.49840100  0.99829000  1
  Ni  Ni2  1  0.00026700  0.99868000  0.49850700  1
  Ni  Ni3  1  0.99945000  0.99840100  0.99829000  1
  B  B0  1  0.00012100  0.33009300  0.74796200  1
  B  B1  1  0.50012500  0.83009300  0.74796400  1
  B  B2  1  0.49960300  0.16686500  0.24868000  1
  B  B3  1  0.99960600  0.66686500  0.24868200  1
  O  O0  1  0.49749700  0.67271500  0.74835000  1
  O  O1  1  0.99749900  0.17271700  0.74834900  1
  O  O2  1  0.00463100  0.82417100  0.24985500  1
  O  O3  1  0.50463300  0.32417300  0.24985400  1
  O  O4  1  0.22462200  0.40650700  0.69932800  1
  O  O5  1  0.72463100  0.90652000  0.69935600  1
  O  O6  1  0.27862400  0.90946200  0.79679000  1
  O  O7  1  0.77861900  0.40944400  0.79681400  1
  O  O8  1  0.22024600  0.58675000  0.19939900  1
  O  O9  1  0.72024100  0.08673200  0.19942300  1
  O  O10  1  0.27383500  0.09120400  0.29601100  1
  O  O11  1  0.77384500  0.59121700  0.29604000  1
loop_
_geom_bond_atom_site_label_1
_geom_bond_atom_site_label_2
_geom_bond_distance
_geom_bond_site_symmetry_2
Na0 O1 2.504142 1_555
Na0 O1 2.525037 1_455
Na0 O4 2.529518 1_555
Na0 O6 2.545243 1_545
Na0 O7 2.562461 1_555
Na0 O5 2.577980 1_545
Na0 O9 2.638323 1_556
Na0 O10 2.654680 1_555
Na1 O0 2.504134 1_655
Na1 O0 2.525042 1_555
Na1 O5 2.529565 1_555
Na1 O7 2.545441 1_555
Na1 O6 2.562588 1_655
Na1 O4 2.578116 1_655
Na1 O8 2.638179 1_656
Na1 O11 2.654503 1_555
Na2 O2 2.489255 1_555
Na2 O9 2.525545 1_565
Na2 O11 2.537072 1_555
Na2 O2 2.541115 1_655
Na2 O10 2.568143 1_565
Na2 O8 2.582099 1_555
Na2 O6 2.636154 1_554
Na2 O5 2.643817 1_555
Na3 O3 2.489242 1_555
Na3 O8 2.525745 1_655
Na3 O10 2.537120 1_655
Na3 O3 2.541124 1_655
Na3 O11 2.568276 1_555
Na3 O9 2.582225 1_555
Na3 O7 2.636009 1_554
Na3 O4 2.643648 1_655
Ni0 O3 2.078306 1_555
Ni0 O0 2.078614 1_555
Ni0 O11 2.108903 1_555
Ni0 O4 2.109462 1_555
Ni0 O7 2.112632 1_555
Ni0 O8 2.116108 1_555
Ni1 O0 2.077870 1_555
Ni1 O3 2.081446 1_556
Ni1 O8 2.110526 1_556
Ni1 O11 2.113274 1_556
Ni1 O7 2.113741 1_555
Ni1 O4 2.115730 1_555
Ni2 O2 2.078316 1_555
Ni2 O1 2.078619 1_465
Ni2 O10 2.108940 1_565
Ni2 O5 2.109476 1_455
Ni2 O6 2.112504 1_555
Ni2 O9 2.115966 1_465
Ni3 O1 2.077887 1_565
Ni3 O2 2.081465 1_656
Ni3 O9 2.110580 1_566
Ni3 O10 2.113094 1_666
Ni3 O6 2.113787 1_655
Ni3 O5 2.115561 1_555
B0 O7 1.385943 1_455
B0 O4 1.386373 1_555
B0 O1 1.387991 1_455
B1 O6 1.385967 1_555
B1 O5 1.386398 1_555
B1 O0 1.388009 1_555
B2 O10 1.386031 1_555
B2 O9 1.386591 1_555
B2 O3 1.387555 1_555
B3 O11 1.385998 1_555
B3 O8 1.386570 1_655
B3 O2 1.387537 1_655
