# generated using pymatgen
data_LiVSiO5
_symmetry_space_group_name_H-M   'P 1'
_cell_length_a   4.49654500
_cell_length_b   8.99516100
_cell_length_c   9.32152100
_cell_angle_alpha   90.00000000
_cell_angle_beta   90.00000000
_cell_angle_gamma   90.00000000
_symmetry_Int_Tables_number   1
_chemical_formula_structural   LiVSiO5
_chemical_formula_sum   'Li4 V4 Si4 O20'
_cell_volume   377.02892287
_cell_formula_units_Z   4
loop_
 _symmetry_equiv_pos_site_id
 _symmetry_equiv_pos_as_xyz
  1  'x, y, z'
loop_
 _atom_site_type_symbol
 _atom_site_label
 _atom_site_symmetry_multiplicity
 _atom_site_fract_x
 _atom_site_fract_y
 _atom_site_fract_z
 _atom_site_occupancy
  Li  Li0  1  0.63435600  0.00000000  0.01008000  1
  Li  Li1  1  0.36564400  0.00000000  0.51008000  1
  Li  Li2  1  0.99291700  0.50000000  0.75344000  1
  Li  Li3  1  0.00708300  0.50000000  0.25344000  1
  V  V0  1  0.96158700  0.00000000  0.29047400  1
  V  V1  1  0.03841300  0.00000000  0.79047400  1
  V  V2  1  0.58239800  0.50000000  0.49737600  1
  V  V3  1  0.41760200  0.50000000  0.99737600  1
  Si  Si0  1  0.50068000  0.24979600  0.24841300  1
  Si  Si1  1  0.49932000  0.24979600  0.74841300  1
  Si  Si2  1  0.49932000  0.75020400  0.74841300  1
  Si  Si3  1  0.50068000  0.75020400  0.24841300  1
  O  O0  1  0.78974900  0.00000000  0.44545300  1
  O  O1  1  0.21025100  0.00000000  0.94545300  1
  O  O2  1  0.74696900  0.13946400  0.17284600  1
  O  O3  1  0.25303100  0.13946400  0.67284600  1
  O  O4  1  0.25255600  0.14441500  0.32903800  1
  O  O5  1  0.74744400  0.14441500  0.82903800  1
  O  O6  1  0.31371100  0.35738700  0.13878100  1
  O  O7  1  0.68628900  0.35738700  0.63878100  1
  O  O8  1  0.69062000  0.35837600  0.35665100  1
  O  O9  1  0.30938000  0.35837600  0.85665100  1
  O  O10  1  0.21949900  0.50000000  0.49455400  1
  O  O11  1  0.78050100  0.50000000  0.99455400  1
  O  O12  1  0.69062000  0.64162400  0.35665100  1
  O  O13  1  0.30938000  0.64162400  0.85665100  1
  O  O14  1  0.31371100  0.64261300  0.13878100  1
  O  O15  1  0.68628900  0.64261300  0.63878100  1
  O  O16  1  0.25255600  0.85558500  0.32903800  1
  O  O17  1  0.74744400  0.85558500  0.82903800  1
  O  O18  1  0.25303100  0.86053600  0.67284600  1
  O  O19  1  0.74696900  0.86053600  0.17284600  1
loop_
_geom_bond_atom_site_label_1
_geom_bond_atom_site_label_2
_geom_bond_distance
_geom_bond_site_symmetry_2
Li0 O1 1.999897 1_554
Li0 O2 2.032771 1_555
Li0 O19 2.032771 1_545
Li0 O5 2.189525 1_554
Li0 O17 2.189525 1_544
Li1 O0 1.999897 1_555
Li1 O3 2.032771 1_555
Li1 O18 2.032771 1_545
Li1 O4 2.189525 1_555
Li1 O16 2.189525 1_545
Li2 O9 2.138552 1_655
Li2 O13 2.138552 1_655
Li2 O7 2.165402 1_555
Li2 O15 2.165402 1_555
Li2 O11 2.442082 1_555
Li2 O10 2.619469 1_655
Li3 O12 2.138552 1_455
Li3 O8 2.138552 1_455
Li3 O14 2.165402 1_555
Li3 O6 2.165402 1_555
Li3 O10 2.442082 1_555
Li3 O11 2.619469 1_454
O0 V0 1.638296 1_555
O1 V1 1.638296 1_555
O2 Si0 1.645475 1_555
O2 V0 1.925441 1_555
O3 Si1 1.645475 1_555
O3 V1 1.925441 1_555
O4 Si0 1.645650 1_555
O4 V0 1.878433 1_455
O5 Si1 1.645650 1_555
O5 V1 1.878433 1_655
O6 Si0 1.639448 1_555
O6 V3 1.897706 1_554
O7 Si1 1.639448 1_555
O7 V2 1.897706 1_555
O8 Si0 1.643575 1_555
O8 V2 1.892207 1_555
O9 Si1 1.643575 1_555
O9 V3 1.892207 1_555
O10 V2 1.632004 1_555
O11 V3 1.632004 1_555
O12 Si3 1.643575 1_555
O12 V2 1.892207 1_555
O13 Si2 1.643575 1_555
O13 V3 1.892207 1_555
O14 Si3 1.639448 1_555
O14 V3 1.897706 1_554
O15 Si2 1.639448 1_555
O15 V2 1.897706 1_555
O16 Si3 1.645650 1_555
O16 V0 1.878433 1_465
O17 Si2 1.645650 1_555
O17 V1 1.878433 1_665
O18 Si2 1.645475 1_555
O18 V1 1.925441 1_565
O19 Si3 1.645475 1_555
O19 V0 1.925441 1_565
