# generated using pymatgen
data_Li5FeO4
_symmetry_space_group_name_H-M   'P 1'
_cell_length_a   5.19471700
_cell_length_b   9.98670200
_cell_length_c   15.84571500
_cell_angle_alpha   90.00000000
_cell_angle_beta   90.00000000
_cell_angle_gamma   90.00000000
_symmetry_Int_Tables_number   1
_chemical_formula_structural   Li5FeO4
_chemical_formula_sum   'Li40 Fe8 O32'
_cell_volume   822.04543924
_cell_formula_units_Z   8
loop_
 _symmetry_equiv_pos_site_id
 _symmetry_equiv_pos_as_xyz
  1  'x, y, z'
loop_
 _atom_site_type_symbol
 _atom_site_label
 _atom_site_symmetry_multiplicity
 _atom_site_fract_x
 _atom_site_fract_y
 _atom_site_fract_z
 _atom_site_occupancy
  Li  Li0  1  0.90648300  0.92903400  0.42879000  1
  Li  Li1  1  0.59351700  0.92903400  0.92879000  1
  Li  Li2  1  0.41785000  0.94304200  0.76036700  1
  Li  Li3  1  0.08215000  0.94304200  0.26036700  1
  Li  Li4  1  0.11724400  0.81454500  0.99284900  1
  Li  Li5  1  0.38275600  0.81454500  0.49284900  1
  Li  Li6  1  0.91731700  0.80552100  0.82295800  1
  Li  Li7  1  0.58268300  0.80552100  0.32295800  1
  Li  Li8  1  0.42730700  0.80141100  0.15634000  1
  Li  Li9  1  0.07269300  0.80141100  0.65634000  1
  Li  Li10  1  0.92730700  0.69858900  0.15634000  1
  Li  Li11  1  0.57269300  0.69858900  0.65634000  1
  Li  Li12  1  0.41731700  0.69447900  0.82295800  1
  Li  Li13  1  0.08268300  0.69447900  0.32295800  1
  Li  Li14  1  0.61724400  0.68545500  0.99284900  1
  Li  Li15  1  0.88275600  0.68545500  0.49284900  1
  Li  Li16  1  0.58215000  0.55695800  0.26036700  1
  Li  Li17  1  0.91785000  0.55695800  0.76036700  1
  Li  Li18  1  0.09351700  0.57096600  0.92879000  1
  Li  Li19  1  0.40648300  0.57096600  0.42879000  1
  Li  Li20  1  0.90648300  0.42903400  0.07121000  1
  Li  Li21  1  0.59351700  0.42903400  0.57121000  1
  Li  Li22  1  0.41785000  0.44304200  0.73963300  1
  Li  Li23  1  0.08215000  0.44304200  0.23963300  1
  Li  Li24  1  0.38275600  0.31454500  0.00715100  1
  Li  Li25  1  0.11724400  0.31454500  0.50715100  1
  Li  Li26  1  0.58268300  0.30552100  0.17704200  1
  Li  Li27  1  0.91731700  0.30552100  0.67704200  1
  Li  Li28  1  0.42730700  0.30141100  0.34366000  1
  Li  Li29  1  0.07269300  0.30141100  0.84366000  1
  Li  Li30  1  0.92730700  0.19858900  0.34366000  1
  Li  Li31  1  0.57269300  0.19858900  0.84366000  1
  Li  Li32  1  0.41731700  0.19447900  0.67704200  1
  Li  Li33  1  0.08268300  0.19447900  0.17704200  1
  Li  Li34  1  0.88275600  0.18545500  0.00715100  1
  Li  Li35  1  0.61724400  0.18545500  0.50715100  1
  Li  Li36  1  0.91785000  0.05695800  0.73963300  1
  Li  Li37  1  0.58215000  0.05695800  0.23963300  1
  Li  Li38  1  0.09351700  0.07096600  0.57121000  1
  Li  Li39  1  0.40648300  0.07096600  0.07121000  1
  Fe  Fe0  1  0.85683000  0.95467300  0.11691000  1
  Fe  Fe1  1  0.64317000  0.95467300  0.61691000  1
  Fe  Fe2  1  0.35683000  0.54532700  0.11691000  1
  Fe  Fe3  1  0.14317000  0.54532700  0.61691000  1
  Fe  Fe4  1  0.85683000  0.45467300  0.38309000  1
  Fe  Fe5  1  0.64317000  0.45467300  0.88309000  1
  Fe  Fe6  1  0.35683000  0.04532700  0.38309000  1
  Fe  Fe7  1  0.14317000  0.04532700  0.88309000  1
  O  O0  1  0.21311400  0.95009000  0.13515100  1
  O  O1  1  0.28688600  0.95009000  0.63515100  1
  O  O2  1  0.74157600  0.86076200  0.21638900  1
  O  O3  1  0.75842400  0.86076200  0.71638900  1
  O  O4  1  0.75296700  0.85431200  0.02401300  1
  O  O5  1  0.74703300  0.85431200  0.52401300  1
  O  O6  1  0.23279000  0.86275200  0.37311500  1
  O  O7  1  0.26721000  0.86275200  0.87311500  1
  O  O8  1  0.73279000  0.63724800  0.37311500  1
  O  O9  1  0.76721000  0.63724800  0.87311500  1
  O  O10  1  0.25296700  0.64568800  0.02401300  1
  O  O11  1  0.24703300  0.64568800  0.52401300  1
  O  O12  1  0.24157600  0.63923800  0.21638900  1
  O  O13  1  0.25842400  0.63923800  0.71638900  1
  O  O14  1  0.71311400  0.54991000  0.13515100  1
  O  O15  1  0.78688600  0.54991000  0.63515100  1
  O  O16  1  0.28688600  0.45009000  0.86484900  1
  O  O17  1  0.21311400  0.45009000  0.36484900  1
  O  O18  1  0.74157600  0.36076200  0.28361100  1
  O  O19  1  0.75842400  0.36076200  0.78361100  1
  O  O20  1  0.74703300  0.35431200  0.97598700  1
  O  O21  1  0.75296700  0.35431200  0.47598700  1
  O  O22  1  0.26721000  0.36275200  0.62688500  1
  O  O23  1  0.23279000  0.36275200  0.12688500  1
  O  O24  1  0.76721000  0.13724800  0.62688500  1
  O  O25  1  0.73279000  0.13724800  0.12688500  1
  O  O26  1  0.25296700  0.14568800  0.47598700  1
  O  O27  1  0.24703300  0.14568800  0.97598700  1
  O  O28  1  0.25842400  0.13923800  0.78361100  1
  O  O29  1  0.24157600  0.13923800  0.28361100  1
  O  O30  1  0.71311400  0.04991000  0.36484900  1
  O  O31  1  0.78688600  0.04991000  0.86484900  1
loop_
_geom_bond_atom_site_label_1
_geom_bond_atom_site_label_2
_geom_bond_distance
_geom_bond_site_symmetry_2
Li0 O30 1.868900 1_565
Li0 O5 1.876070 1_555
Li0 O6 2.022308 1_655
Li1 O31 1.868900 1_565
Li1 O4 1.876070 1_556
Li1 O7 2.022308 1_555
Li2 O3 2.071433 1_555
Li2 O1 2.098712 1_555
Li2 O7 2.108823 1_555
Li2 O28 2.158839 1_565
Li3 O2 2.071433 1_455
Li3 O0 2.098712 1_555
Li3 O6 2.108823 1_555
Li3 O29 2.158839 1_565
Li4 O10 1.893312 1_556
Li4 O4 1.995604 1_456
Li4 O7 2.106727 1_555
Li5 O11 1.893312 1_555
Li5 O5 1.995604 1_555
Li5 O6 2.106727 1_555
Li6 O3 1.958882 1_555
Li6 O9 2.015875 1_555
Li6 O7 2.064458 1_655
Li7 O2 1.958882 1_555
Li7 O8 2.015875 1_555
Li7 O6 2.064458 1_555
Li8 O0 1.885587 1_555
Li8 O2 1.980376 1_555
Li8 O12 2.111702 1_555
Li9 O1 1.885587 1_555
Li9 O3 1.980376 1_455
Li9 O13 2.111702 1_555
Li10 O14 1.885587 1_555
Li10 O12 1.980376 1_655
Li10 O2 2.111702 1_555
Li11 O15 1.885587 1_555
Li11 O13 1.980376 1_555
Li11 O3 2.111702 1_555
Li12 O13 1.958882 1_555
Li12 O7 2.015875 1_555
Li12 O9 2.064458 1_555
Li13 O12 1.958882 1_555
Li13 O6 2.015875 1_555
Li13 O8 2.064458 1_455
Li14 O4 1.893312 1_556
Li14 O10 1.995604 1_556
Li14 O9 2.106727 1_555
Li15 O5 1.893312 1_555
Li15 O11 1.995604 1_655
Li15 O8 2.106727 1_555
Li16 O12 2.071433 1_555
Li16 O14 2.098712 1_555
Li16 O8 2.108823 1_555
Li16 O18 2.158839 1_555
Li17 O13 2.071433 1_655
Li17 O15 2.098712 1_555
Li17 O9 2.108823 1_555
Li17 O19 2.158839 1_555
Li18 O16 1.868900 1_555
Li18 O10 1.876070 1_556
Li18 O9 2.022308 1_455
Li19 O17 1.868900 1_555
Li19 O11 1.876070 1_555
Li19 O8 2.022308 1_555
Li20 O14 1.868900 1_555
Li20 O20 1.876070 1_554
Li20 O23 2.022308 1_655
Li21 O15 1.868900 1_555
Li21 O21 1.876070 1_555
Li21 O22 2.022308 1_555
Li22 O19 2.071433 1_555
Li22 O16 2.098712 1_555
Li22 O22 2.108823 1_555
Li22 O13 2.158839 1_555
Li23 O18 2.071433 1_455
Li23 O17 2.098712 1_555
Li23 O23 2.108823 1_555
Li23 O12 2.158839 1_555
Li24 O27 1.893312 1_554
Li24 O20 1.995604 1_554
Li24 O23 2.106727 1_555
Li25 O26 1.893312 1_555
Li25 O21 1.995604 1_455
Li25 O22 2.106727 1_555
Li26 O18 1.958882 1_555
Li26 O25 2.015875 1_555
Li26 O23 2.064458 1_555
Li27 O19 1.958882 1_555
Li27 O24 2.015875 1_555
Li27 O22 2.064458 1_655
Li28 O17 1.885587 1_555
Li28 O18 1.980376 1_555
Li28 O29 2.111702 1_555
Li29 O16 1.885587 1_555
Li29 O19 1.980376 1_455
Li29 O28 2.111702 1_555
Li30 O30 1.885587 1_555
Li30 O29 1.980376 1_655
Li30 O18 2.111702 1_555
Li31 O31 1.885587 1_555
Li31 O28 1.980376 1_555
Li31 O19 2.111702 1_555
Li32 O28 1.958882 1_555
Li32 O22 2.015875 1_555
Li32 O24 2.064458 1_555
Li33 O29 1.958882 1_555
Li33 O23 2.015875 1_555
Li33 O25 2.064458 1_455
Li34 O20 1.893312 1_554
Li34 O27 1.995604 1_654
Li34 O25 2.106727 1_555
Li35 O21 1.893312 1_555
Li35 O26 1.995604 1_555
Li35 O24 2.106727 1_555
Li36 O28 2.071433 1_655
Li36 O31 2.098712 1_555
Li36 O24 2.108823 1_555
Li36 O3 2.158839 1_545
Li37 O29 2.071433 1_555
Li37 O30 2.098712 1_555
Li37 O25 2.108823 1_555
Li37 O2 2.158839 1_545
Li38 O1 1.868900 1_545
Li38 O26 1.876070 1_555
Li38 O24 2.022308 1_455
Li39 O0 1.868900 1_545
Li39 O27 1.876070 1_554
Li39 O25 2.022308 1_555
Fe0 O4 1.860779 1_555
Fe0 O0 1.873788 1_655
Fe0 O2 1.929459 1_555
Fe0 O25 1.940278 1_565
Fe1 O5 1.860779 1_555
Fe1 O1 1.873788 1_555
Fe1 O3 1.929459 1_555
Fe1 O24 1.940278 1_565
Fe2 O10 1.860779 1_555
Fe2 O14 1.873788 1_555
Fe2 O12 1.929459 1_555
Fe2 O23 1.940278 1_555
Fe3 O11 1.860779 1_555
Fe3 O15 1.873788 1_455
Fe3 O13 1.929459 1_555
Fe3 O22 1.940278 1_555
Fe4 O21 1.860779 1_555
Fe4 O17 1.873788 1_655
Fe4 O18 1.929459 1_555
Fe4 O8 1.940278 1_555
Fe5 O20 1.860779 1_555
Fe5 O16 1.873788 1_555
Fe5 O19 1.929459 1_555
Fe5 O9 1.940278 1_555
Fe6 O26 1.860779 1_555
Fe6 O30 1.873788 1_555
Fe6 O29 1.929459 1_555
Fe6 O6 1.940278 1_545
Fe7 O27 1.860779 1_555
Fe7 O31 1.873788 1_455
Fe7 O28 1.929459 1_555
Fe7 O7 1.940278 1_545
