# generated using pymatgen
data_Na2GeH12S2O7
_symmetry_space_group_name_H-M   'P 1'
_cell_length_a   10.80787600
_cell_length_b   13.93373500
_cell_length_c   14.13237900
_cell_angle_alpha   90.00000000
_cell_angle_beta   90.00000000
_cell_angle_gamma   90.00000000
_symmetry_Int_Tables_number   1
_chemical_formula_structural   Na2GeH12S2O7
_chemical_formula_sum   'Na16 Ge8 H96 S16 O56'
_cell_volume   2128.25261509
_cell_formula_units_Z   8
loop_
 _symmetry_equiv_pos_site_id
 _symmetry_equiv_pos_as_xyz
  1  'x, y, z'
loop_
 _atom_site_type_symbol
 _atom_site_label
 _atom_site_symmetry_multiplicity
 _atom_site_fract_x
 _atom_site_fract_y
 _atom_site_fract_z
 _atom_site_occupancy
  Na  Na0  1  0.00000000  0.50000000  0.50000000  1
  Na  Na1  1  0.50000000  0.00000000  0.00000000  1
  Na  Na2  1  0.50000000  0.00000000  0.50000000  1
  Na  Na3  1  0.00000000  0.50000000  0.00000000  1
  Na  Na4  1  0.49915800  0.51363700  0.87659000  1
  Na  Na5  1  0.00084200  0.98636300  0.37659000  1
  Na  Na6  1  0.99915800  0.98636300  0.12341000  1
  Na  Na7  1  0.50084200  0.51363700  0.62341000  1
  Na  Na8  1  0.50084200  0.48636300  0.12341000  1
  Na  Na9  1  0.99915800  0.01363700  0.62341000  1
  Na  Na10  1  0.00084200  0.01363700  0.87659000  1
  Na  Na11  1  0.49915800  0.48636300  0.37659000  1
  Na  Na12  1  0.00000000  0.44827400  0.75000000  1
  Na  Na13  1  0.50000000  0.05172600  0.25000000  1
  Na  Na14  1  0.00000000  0.55172600  0.25000000  1
  Na  Na15  1  0.50000000  0.94827400  0.75000000  1
  Ge  Ge0  1  0.18837500  0.64797600  0.85584900  1
  Ge  Ge1  1  0.31162500  0.85202400  0.35584900  1
  Ge  Ge2  1  0.68837500  0.85202400  0.14415100  1
  Ge  Ge3  1  0.81162500  0.64797600  0.64415100  1
  Ge  Ge4  1  0.81162500  0.35202400  0.14415100  1
  Ge  Ge5  1  0.68837500  0.14797600  0.64415100  1
  Ge  Ge6  1  0.31162500  0.14797600  0.85584900  1
  Ge  Ge7  1  0.18837500  0.35202400  0.35584900  1
  H  H0  1  0.96724100  0.63132600  0.84240600  1
  H  H1  1  0.53275900  0.86867400  0.34240600  1
  H  H2  1  0.46724100  0.86867400  0.15759400  1
  H  H3  1  0.03275900  0.63132600  0.65759400  1
  H  H4  1  0.03275900  0.36867400  0.15759400  1
  H  H5  1  0.46724100  0.13132600  0.65759400  1
  H  H6  1  0.53275900  0.13132600  0.84240600  1
  H  H7  1  0.96724100  0.36867400  0.34240600  1
  H  H8  1  0.25857100  0.49116200  0.81925100  1
  H  H9  1  0.24142900  0.00883800  0.31925100  1
  H  H10  1  0.75857100  0.00883800  0.18074900  1
  H  H11  1  0.74142900  0.49116200  0.68074900  1
  H  H12  1  0.74142900  0.50883800  0.18074900  1
  H  H13  1  0.75857100  0.99116200  0.68074900  1
  H  H14  1  0.24142900  0.99116200  0.81925100  1
  H  H15  1  0.25857100  0.50883800  0.31925100  1
  H  H16  1  0.54946500  0.81987100  0.92769500  1
  H  H17  1  0.95053500  0.68012900  0.42769500  1
  H  H18  1  0.04946500  0.68012900  0.07230500  1
  H  H19  1  0.45053500  0.81987100  0.57230500  1
  H  H20  1  0.45053500  0.18012900  0.07230500  1
  H  H21  1  0.04946500  0.31987100  0.57230500  1
  H  H22  1  0.95053500  0.31987100  0.92769500  1
  H  H23  1  0.54946500  0.18012900  0.42769500  1
  H  H24  1  0.40456400  0.81951400  0.91813700  1
  H  H25  1  0.09543600  0.68048600  0.41813700  1
  H  H26  1  0.90456400  0.68048600  0.08186300  1
  H  H27  1  0.59543600  0.81951400  0.58186300  1
  H  H28  1  0.59543600  0.18048600  0.08186300  1
  H  H29  1  0.90456400  0.31951400  0.58186300  1
  H  H30  1  0.09543600  0.31951400  0.91813700  1
  H  H31  1  0.40456400  0.18048600  0.41813700  1
  H  H32  1  0.55450600  0.66455400  0.02374100  1
  H  H33  1  0.94549400  0.83544600  0.52374100  1
  H  H34  1  0.05450600  0.83544600  0.97625900  1
  H  H35  1  0.44549400  0.66455400  0.47625900  1
  H  H36  1  0.44549400  0.33544600  0.97625900  1
  H  H37  1  0.05450600  0.16455400  0.47625900  1
  H  H38  1  0.94549400  0.16455400  0.02374100  1
  H  H39  1  0.55450600  0.33544600  0.52374100  1
  H  H40  1  0.41009600  0.65301400  0.01204400  1
  H  H41  1  0.08990400  0.84698600  0.51204400  1
  H  H42  1  0.91009600  0.84698600  0.98795600  1
  H  H43  1  0.58990400  0.65301400  0.48795600  1
  H  H44  1  0.58990400  0.34698600  0.98795600  1
  H  H45  1  0.91009600  0.15301400  0.48795600  1
  H  H46  1  0.08990400  0.15301400  0.01204400  1
  H  H47  1  0.41009600  0.34698600  0.51204400  1
  H  H48  1  0.22517600  0.45325900  0.65701900  1
  H  H49  1  0.27482400  0.04674100  0.15701900  1
  H  H50  1  0.72517600  0.04674100  0.34298100  1
  H  H51  1  0.77482400  0.45325900  0.84298100  1
  H  H52  1  0.77482400  0.54674100  0.34298100  1
  H  H53  1  0.72517600  0.95325900  0.84298100  1
  H  H54  1  0.27482400  0.95325900  0.65701900  1
  H  H55  1  0.22517600  0.54674100  0.15701900  1
  H  H56  1  0.22873400  0.35678300  0.71891600  1
  H  H57  1  0.27126600  0.14321700  0.21891600  1
  H  H58  1  0.72873400  0.14321700  0.28108400  1
  H  H59  1  0.77126600  0.35678300  0.78108400  1
  H  H60  1  0.77126600  0.64321700  0.28108400  1
  H  H61  1  0.72873400  0.85678300  0.78108400  1
  H  H62  1  0.27126600  0.85678300  0.71891600  1
  H  H63  1  0.22873400  0.64321700  0.21891600  1
  H  H64  1  0.24630500  0.40881600  0.06576100  1
  H  H65  1  0.25369500  0.09118400  0.56576100  1
  H  H66  1  0.74630500  0.09118400  0.93423900  1
  H  H67  1  0.75369500  0.40881600  0.43423900  1
  H  H68  1  0.75369500  0.59118400  0.93423900  1
  H  H69  1  0.74630500  0.90881600  0.43423900  1
  H  H70  1  0.25369500  0.90881600  0.06576100  1
  H  H71  1  0.24630500  0.59118400  0.56576100  1
  H  H72  1  0.26215400  0.49197700  0.98783400  1
  H  H73  1  0.23784600  0.00802300  0.48783400  1
  H  H74  1  0.76215400  0.00802300  0.01216600  1
  H  H75  1  0.73784600  0.49197700  0.51216600  1
  H  H76  1  0.73784600  0.50802300  0.01216600  1
  H  H77  1  0.76215400  0.99197700  0.51216600  1
  H  H78  1  0.23784600  0.99197700  0.98783400  1
  H  H79  1  0.26215400  0.50802300  0.48783400  1
  H  H80  1  0.42650000  0.67011900  0.74317000  1
  H  H81  1  0.07350000  0.82988100  0.24317000  1
  H  H82  1  0.92650000  0.82988100  0.25683000  1
  H  H83  1  0.57350000  0.67011900  0.75683000  1
  H  H84  1  0.57350000  0.32988100  0.25683000  1
  H  H85  1  0.92650000  0.17011900  0.75683000  1
  H  H86  1  0.07350000  0.17011900  0.74317000  1
  H  H87  1  0.42650000  0.32988100  0.24317000  1
  H  H88  1  0.07030600  0.84758900  0.74256400  1
  H  H89  1  0.42969400  0.65241100  0.24256400  1
  H  H90  1  0.57030600  0.65241100  0.25743600  1
  H  H91  1  0.92969400  0.84758900  0.75743600  1
  H  H92  1  0.92969400  0.15241100  0.25743600  1
  H  H93  1  0.57030600  0.34758900  0.75743600  1
  H  H94  1  0.42969400  0.34758900  0.74256400  1
  H  H95  1  0.07030600  0.15241100  0.24256400  1
  S  S0  1  0.21226700  0.70747400  0.71413500  1
  S  S1  1  0.28773300  0.79252600  0.21413500  1
  S  S2  1  0.71226700  0.79252600  0.28586500  1
  S  S3  1  0.78773300  0.70747400  0.78586500  1
  S  S4  1  0.78773300  0.29252600  0.28586500  1
  S  S5  1  0.71226700  0.20747400  0.78586500  1
  S  S6  1  0.28773300  0.20747400  0.71413500  1
  S  S7  1  0.21226700  0.29252600  0.21413500  1
  S  S8  1  0.22430200  0.73673700  0.97969900  1
  S  S9  1  0.27569800  0.76326300  0.47969900  1
  S  S10  1  0.72430200  0.76326300  0.02030100  1
  S  S11  1  0.77569800  0.73673700  0.52030100  1
  S  S12  1  0.77569800  0.26326300  0.02030100  1
  S  S13  1  0.72430200  0.23673700  0.52030100  1
  S  S14  1  0.27569800  0.23673700  0.97969900  1
  S  S15  1  0.22430200  0.26326300  0.47969900  1
  O  O0  1  0.03564800  0.58896700  0.86313500  1
  O  O1  1  0.46435200  0.91103300  0.36313500  1
  O  O2  1  0.53564800  0.91103300  0.13686500  1
  O  O3  1  0.96435200  0.58896700  0.63686500  1
  O  O4  1  0.96435200  0.41103300  0.13686500  1
  O  O5  1  0.53564800  0.08896700  0.63686500  1
  O  O6  1  0.46435200  0.08896700  0.86313500  1
  O  O7  1  0.03564800  0.41103300  0.36313500  1
  O  O8  1  0.27885700  0.53598200  0.87254500  1
  O  O9  1  0.22114300  0.96401800  0.37254500  1
  O  O10  1  0.77885700  0.96401800  0.12745500  1
  O  O11  1  0.72114300  0.53598200  0.62745500  1
  O  O12  1  0.72114300  0.46401800  0.12745500  1
  O  O13  1  0.77885700  0.03598200  0.62745500  1
  O  O14  1  0.22114300  0.03598200  0.87254500  1
  O  O15  1  0.27885700  0.46401800  0.37254500  1
  O  O16  1  0.47921400  0.85670800  0.90129300  1
  O  O17  1  0.02078600  0.64329200  0.40129300  1
  O  O18  1  0.97921400  0.64329200  0.09870700  1
  O  O19  1  0.52078600  0.85670800  0.59870700  1
  O  O20  1  0.52078600  0.14329200  0.09870700  1
  O  O21  1  0.97921400  0.35670800  0.59870700  1
  O  O22  1  0.02078600  0.35670800  0.90129300  1
  O  O23  1  0.47921400  0.14329200  0.40129300  1
  O  O24  1  0.48835600  0.61620000  0.01391000  1
  O  O25  1  0.01164400  0.88380000  0.51391000  1
  O  O26  1  0.98835600  0.88380000  0.98609000  1
  O  O27  1  0.51164400  0.61620000  0.48609000  1
  O  O28  1  0.51164400  0.38380000  0.98609000  1
  O  O29  1  0.98835600  0.11620000  0.48609000  1
  O  O30  1  0.01164400  0.11620000  0.01391000  1
  O  O31  1  0.48835600  0.38380000  0.51391000  1
  O  O32  1  0.20929700  0.42651400  0.72124300  1
  O  O33  1  0.29070300  0.07348600  0.22124300  1
  O  O34  1  0.70929700  0.07348600  0.27875700  1
  O  O35  1  0.79070300  0.42651400  0.77875700  1
  O  O36  1  0.79070300  0.57348600  0.27875700  1
  O  O37  1  0.70929700  0.92651400  0.77875700  1
  O  O38  1  0.29070300  0.92651400  0.72124300  1
  O  O39  1  0.20929700  0.57348600  0.22124300  1
  O  O40  1  0.24365400  0.47862900  0.05585900  1
  O  O41  1  0.25634600  0.02137100  0.55585900  1
  O  O42  1  0.74365400  0.02137100  0.94414100  1
  O  O43  1  0.75634600  0.47862900  0.44414100  1
  O  O44  1  0.75634600  0.52137100  0.94414100  1
  O  O45  1  0.74365400  0.97862900  0.44414100  1
  O  O46  1  0.25634600  0.97862900  0.05585900  1
  O  O47  1  0.24365400  0.52137100  0.55585900  1
  O  O48  1  0.50000000  0.62859600  0.75000000  1
  O  O49  1  0.00000000  0.87140400  0.25000000  1
  O  O50  1  0.50000000  0.37140400  0.25000000  1
  O  O51  1  0.00000000  0.12859600  0.75000000  1
  O  O52  1  0.00000000  0.89203900  0.75000000  1
  O  O53  1  0.50000000  0.60796100  0.25000000  1
  O  O54  1  0.00000000  0.10796100  0.25000000  1
  O  O55  1  0.50000000  0.39203900  0.75000000  1
loop_
_geom_bond_atom_site_label_1
_geom_bond_atom_site_label_2
_geom_bond_distance
_geom_bond_site_symmetry_2
Na0 O3 2.329462 1_455
Na0 O7 2.329462 1_555
Na0 O17 2.445972 1_555
Na0 O21 2.445972 1_455
Na0 O47 2.765241 1_555
Na0 O43 2.765241 1_455
Na1 O2 2.329462 1_545
Na1 O6 2.329462 1_554
Na1 O16 2.445972 1_544
Na1 O20 2.445972 1_555
Na1 O46 2.765241 1_545
Na1 O42 2.765241 1_554
Na2 O1 2.329462 1_545
Na2 O5 2.329462 1_555
Na2 O19 2.445972 1_545
Na2 O23 2.445972 1_555
Na2 O41 2.765241 1_555
Na2 O45 2.765241 1_545
Na3 O4 2.329462 1_455
Na3 O0 2.329462 1_554
Na3 O22 2.445972 1_554
Na3 O18 2.445972 1_455
Na3 O44 2.765241 1_454
Na3 O40 2.765241 1_555
Na4 O28 2.384502 1_555
Na4 O48 2.401345 1_555
Na4 O8 2.401937 1_555
Na4 O24 2.412897 1_556
Na4 O55 2.464015 1_555
Na5 O29 2.384502 1_465
Na5 O49 2.401345 1_555
Na5 O9 2.401937 1_555
Na5 O25 2.412897 1_555
Na5 O54 2.464015 1_565
Na6 O30 2.384502 1_665
Na6 O49 2.401345 1_655
Na6 O10 2.401937 1_555
Na6 O26 2.412897 1_554
Na6 O54 2.464015 1_665
Na7 O31 2.384502 1_555
Na7 O48 2.401345 1_555
Na7 O11 2.401937 1_555
Na7 O27 2.412897 1_555
Na7 O55 2.464015 1_555
Na8 O24 2.384502 1_555
Na8 O50 2.401345 1_555
Na8 O12 2.401937 1_555
Na8 O28 2.412897 1_554
Na8 O53 2.464015 1_555
Na9 O25 2.384502 1_645
Na9 O51 2.401345 1_655
Na9 O13 2.401937 1_555
Na9 O29 2.412897 1_555
Na9 O52 2.464015 1_645
Na10 O26 2.384502 1_445
Na10 O51 2.401345 1_555
Na10 O14 2.401937 1_555
Na10 O30 2.412897 1_556
Na10 O52 2.464015 1_545
Na11 O27 2.384502 1_555
Na11 O50 2.401345 1_555
Na11 O15 2.401937 1_555
Na11 O31 2.412897 1_555
Na11 O53 2.464015 1_555
Na12 O35 2.318187 1_455
Na12 O32 2.318187 1_555
Na12 O21 2.499976 1_455
Na12 O22 2.499976 1_555
Na12 O0 2.558887 1_555
Na12 O3 2.558887 1_455
Na13 O34 2.318187 1_555
Na13 O33 2.318187 1_555
Na13 O20 2.499976 1_555
Na13 O23 2.499976 1_555
Na13 O2 2.558887 1_545
Na13 O1 2.558887 1_545
Na14 O39 2.318187 1_555
Na14 O36 2.318187 1_455
Na14 O18 2.499976 1_455
Na14 O17 2.499976 1_555
Na14 O7 2.558887 1_555
Na14 O4 2.558887 1_455
Na15 O37 2.318187 1_555
Na15 O38 2.318187 1_555
Na15 O19 2.499976 1_555
Na15 O16 2.499976 1_555
Na15 O5 2.558887 1_565
Na15 O6 2.558887 1_565
Ge0 O0 1.846971 1_555
Ge0 O8 1.856648 1_555
Ge0 S8 2.178052 1_555
Ge0 S0 2.182888 1_555
Ge1 O1 1.846971 1_555
Ge1 O9 1.856648 1_555
Ge1 S9 2.178052 1_555
Ge1 S1 2.182888 1_555
Ge2 O2 1.846971 1_555
Ge2 O10 1.856648 1_555
Ge2 S10 2.178052 1_555
Ge2 S2 2.182888 1_555
Ge3 O3 1.846971 1_555
Ge3 O11 1.856648 1_555
Ge3 S11 2.178052 1_555
Ge3 S3 2.182888 1_555
Ge4 O4 1.846971 1_555
Ge4 O12 1.856648 1_555
Ge4 S12 2.178052 1_555
Ge4 S4 2.182888 1_555
Ge5 O5 1.846971 1_555
Ge5 O13 1.856648 1_555
Ge5 S13 2.178052 1_555
Ge5 S5 2.182888 1_555
Ge6 O6 1.846971 1_555
Ge6 O14 1.856648 1_555
Ge6 S14 2.178052 1_555
Ge6 S6 2.182888 1_555
Ge7 O7 1.846971 1_555
Ge7 O15 1.856648 1_555
Ge7 S15 2.178052 1_555
Ge7 S7 2.182888 1_555
H0 O0 0.990350 1_655
H1 O1 0.990350 1_555
H2 O2 0.990350 1_555
H3 O3 0.990350 1_455
H4 O4 0.990350 1_455
H5 O5 0.990350 1_555
H6 O6 0.990350 1_555
H7 O7 0.990350 1_655
H8 O8 1.002671 1_555
H9 O9 1.002671 1_545
H10 O10 1.002671 1_545
H11 O11 1.002671 1_555
H12 O12 1.002671 1_555
H13 O13 1.002671 1_565
H14 O14 1.002671 1_565
H15 O15 1.002671 1_555
H16 O16 0.989523 1_555
H17 O17 0.989523 1_655
H18 O18 0.989523 1_455
H19 O19 0.989523 1_555
H20 O20 0.989523 1_555
H21 O21 0.989523 1_455
H22 O22 0.989523 1_655
H23 O23 0.989523 1_555
H24 O16 0.988023 1_555
H25 O17 0.988023 1_555
H26 O18 0.988023 1_555
H27 O19 0.988023 1_555
H28 O20 0.988023 1_555
H29 O21 0.988023 1_555
H30 O22 0.988023 1_555
H31 O23 0.988023 1_555
H32 O24 0.992162 1_555
H33 O25 0.992162 1_655
H34 O26 0.992162 1_455
H35 O27 0.992162 1_555
H36 O28 0.992162 1_555
H37 O29 0.992162 1_455
H38 O30 0.992162 1_655
H39 O31 0.992162 1_555
H40 O24 0.989565 1_555
H41 O25 0.989565 1_555
H42 O26 0.989565 1_555
H43 O27 0.989565 1_555
H44 O28 0.989565 1_555
H45 O29 0.989565 1_555
H46 O30 0.989565 1_555
H47 O31 0.989565 1_555
H48 O32 0.996059 1_555
H49 O33 0.996059 1_555
H50 O34 0.996059 1_555
H51 O35 0.996059 1_555
H52 O36 0.996059 1_555
H53 O37 0.996059 1_555
H54 O38 0.996059 1_555
H55 O39 0.996059 1_555
H56 O32 0.994608 1_555
H57 O33 0.994608 1_555
H58 O34 0.994608 1_555
H59 O35 0.994608 1_555
H60 O36 0.994608 1_555
H61 O37 0.994608 1_555
H62 O38 0.994608 1_555
H63 O39 0.994608 1_555
H64 O40 0.983188 1_555
H65 O41 0.983188 1_555
H66 O42 0.983188 1_555
H67 O43 0.983188 1_555
H68 O44 0.983188 1_555
H69 O45 0.983188 1_555
H70 O46 0.983188 1_555
H71 O47 0.983188 1_555
H72 O40 0.999386 1_556
H73 O41 0.999386 1_555
H74 O42 0.999386 1_554
H75 O43 0.999386 1_555
H76 O44 0.999386 1_554
H77 O45 0.999386 1_555
H78 O46 0.999386 1_556
H79 O47 0.999386 1_555
H80 O48 0.987471 1_555
H81 O49 0.987471 1_555
H82 O49 0.987471 1_655
H83 O48 0.987471 1_555
H84 O50 0.987471 1_555
H85 O51 0.987471 1_655
H86 O51 0.987471 1_555
H87 O50 0.987471 1_555
H88 O52 0.985915 1_555
H89 O53 0.985915 1_555
H90 O53 0.985915 1_555
H91 O52 0.985915 1_655
H92 O54 0.985915 1_655
H93 O55 0.985915 1_555
H94 O55 0.985915 1_555
H95 O54 0.985915 1_555
