# generated using pymatgen
data_AgBrO4
_symmetry_space_group_name_H-M   'P 1'
_cell_length_a   7.50417182
_cell_length_b   7.50417182
_cell_length_c   7.50417182
_cell_angle_alpha   139.60777778
_cell_angle_beta   139.60777778
_cell_angle_gamma   58.44931904
_symmetry_Int_Tables_number   1
_chemical_formula_structural   AgBrO4
_chemical_formula_sum   'Ag2 Br2 O8'
_cell_volume   175.81974131
_cell_formula_units_Z   2
loop_
 _symmetry_equiv_pos_site_id
 _symmetry_equiv_pos_as_xyz
  1  'x, y, z'
loop_
 _atom_site_type_symbol
 _atom_site_label
 _atom_site_symmetry_multiplicity
 _atom_site_fract_x
 _atom_site_fract_y
 _atom_site_fract_z
 _atom_site_occupancy
  Ag  Ag0  1  0.00000000  0.00000000  0.00000000  1
  Ag  Ag1  1  0.75000000  0.25000000  0.50000000  1
  Br  Br0  1  0.50000000  0.50000000  0.00000000  1
  Br  Br1  1  0.25000000  0.75000000  0.50000000  1
  O  O0  1  0.66187100  0.29864500  0.10190800  1
  O  O1  1  0.55326300  0.69003700  0.60190800  1
  O  O2  1  0.30996300  0.91187100  0.86322600  1
  O  O3  1  0.70135500  0.80326300  0.36322600  1
  O  O4  1  0.44003700  0.33812900  0.63677400  1
  O  O5  1  0.04864500  0.44673700  0.13677400  1
  O  O6  1  0.08812900  0.95135500  0.39809200  1
  O  O7  1  0.19673700  0.55996300  0.89809200  1
loop_
_geom_bond_atom_site_label_1
_geom_bond_atom_site_label_2
_geom_bond_distance
_geom_bond_site_symmetry_2
Ag0 O3 2.537673 1_444
Ag0 O7 2.537673 1_544
Ag0 O0 2.537673 1_455
Ag0 O4 2.537673 1_555
Ag0 O2 2.809619 1_544
Ag0 O5 2.809619 1_555
Ag0 O6 2.809619 1_545
Ag0 O1 2.809619 1_444
Ag1 O5 2.537673 1_656
Ag1 O6 2.537673 1_645
Ag1 O1 2.537673 1_555
Ag1 O2 2.537673 1_544
Ag1 O4 2.809619 1_555
Ag1 O7 2.809619 1_655
Ag1 O0 2.809619 1_555
Ag1 O3 2.809619 1_545
Br0 O3 1.663679 1_555
Br0 O7 1.663679 1_554
Br0 O0 1.663679 1_555
Br0 O4 1.663679 1_554
Br1 O1 1.663679 1_555
Br1 O6 1.663679 1_555
Br1 O5 1.663679 1_555
Br1 O2 1.663679 1_555
