# generated using pymatgen
data_Li4B4Sb2SO16
_symmetry_space_group_name_H-M   'P 1'
_cell_length_a   9.83845420
_cell_length_b   9.74520954
_cell_length_c   9.46974812
_cell_angle_alpha   61.57727004
_cell_angle_beta   60.58959802
_cell_angle_gamma   57.83313193
_symmetry_Int_Tables_number   1
_chemical_formula_structural   Li4B4Sb2SO16
_chemical_formula_sum   'Li8 B8 Sb4 S2 O32'
_cell_volume   640.55951730
_cell_formula_units_Z   2
loop_
 _symmetry_equiv_pos_site_id
 _symmetry_equiv_pos_as_xyz
  1  'x, y, z'
loop_
 _atom_site_type_symbol
 _atom_site_label
 _atom_site_symmetry_multiplicity
 _atom_site_fract_x
 _atom_site_fract_y
 _atom_site_fract_z
 _atom_site_occupancy
  Li  Li0  1  0.94981600  0.55018400  0.94981600  1
  Li  Li1  1  0.95163800  0.54836200  0.54836200  1
  Li  Li2  1  0.70163800  0.29836200  0.29836200  1
  Li  Li3  1  0.69981600  0.30018400  0.69981600  1
  Li  Li4  1  0.55018400  0.94981600  0.55018400  1
  Li  Li5  1  0.54836200  0.95163800  0.95163800  1
  Li  Li6  1  0.29836200  0.70163800  0.70163800  1
  Li  Li7  1  0.30018400  0.69981600  0.30018400  1
  B  B0  1  0.89657500  0.27258400  0.91889600  1
  B  B1  1  0.97741600  0.35342500  0.33805600  1
  B  B2  1  0.91889600  0.91194400  0.89657500  1
  B  B3  1  0.91194400  0.91889600  0.27258400  1
  B  B4  1  0.33805600  0.33110400  0.97741600  1
  B  B5  1  0.33110400  0.33805600  0.35342500  1
  B  B6  1  0.27258400  0.89657500  0.91194400  1
  B  B7  1  0.35342500  0.97741600  0.33110400  1
  Sb  Sb0  1  0.12500000  0.62500000  0.12500000  1
  Sb  Sb1  1  0.62500000  0.12500000  0.12500000  1
  Sb  Sb2  1  0.12500000  0.12500000  0.12500000  1
  Sb  Sb3  1  0.12500000  0.12500000  0.62500000  1
  S  S0  1  0.50000000  0.50000000  0.50000000  1
  S  S1  1  0.75000000  0.75000000  0.75000000  1
  O  O0  1  0.02634400  0.27548700  0.93626500  1
  O  O1  1  0.55753200  0.55533800  0.30995900  1
  O  O2  1  0.75143300  0.26673400  0.05281800  1
  O  O3  1  0.98326600  0.49856700  0.32098500  1
  O  O4  1  0.05281800  0.92901500  0.75143300  1
  O  O5  1  0.97299800  0.33396600  0.20452000  1
  O  O6  1  0.30995900  0.57717100  0.55753200  1
  O  O7  1  0.55533800  0.55753200  0.57717100  1
  O  O8  1  0.48851600  0.20452000  0.33396600  1
  O  O9  1  0.92901500  0.05281800  0.26673400  1
  O  O10  1  0.97451300  0.22365600  0.48809600  1
  O  O11  1  0.57717100  0.30995900  0.55533800  1
  O  O12  1  0.93626500  0.76190400  0.02634400  1
  O  O13  1  0.76190400  0.93626500  0.27548700  1
  O  O14  1  0.91603400  0.27700200  0.76148400  1
  O  O15  1  0.20452000  0.48851600  0.97299800  1
  O  O16  1  0.04548000  0.76148400  0.27700200  1
  O  O17  1  0.33396600  0.97299800  0.48851600  1
  O  O18  1  0.48809600  0.31373500  0.97451300  1
  O  O19  1  0.31373500  0.48809600  0.22365600  1
  O  O20  1  0.67282900  0.94004100  0.69466200  1
  O  O21  1  0.27548700  0.02634400  0.76190400  1
  O  O22  1  0.32098500  0.19718200  0.98326600  1
  O  O23  1  0.76148400  0.04548000  0.91603400  1
  O  O24  1  0.69466200  0.69246800  0.67282900  1
  O  O25  1  0.94004100  0.67282900  0.69246800  1
  O  O26  1  0.27700200  0.91603400  0.04548000  1
  O  O27  1  0.19718200  0.32098500  0.49856700  1
  O  O28  1  0.26673400  0.75143300  0.92901500  1
  O  O29  1  0.49856700  0.98326600  0.19718200  1
  O  O30  1  0.69246800  0.69466200  0.94004100  1
  O  O31  1  0.22365600  0.97451300  0.31373500  1
loop_
_geom_bond_atom_site_label_1
_geom_bond_atom_site_label_2
_geom_bond_distance
_geom_bond_site_symmetry_2
Li0 O30 2.170681 1_555
Li0 O25 2.170681 1_555
Li0 O15 2.345216 1_655
Li0 O5 2.345216 1_556
Li0 O12 2.415698 1_556
Li0 O0 2.415698 1_655
Li1 O25 2.149881 1_555
Li1 O24 2.149881 1_555
Li1 O27 2.268134 1_655
Li1 O3 2.268134 1_555
Li1 O16 2.529910 1_655
Li1 O14 2.529910 1_555
Li2 O1 2.149881 1_555
Li2 O11 2.149881 1_555
Li2 O2 2.268134 1_555
Li2 O9 2.268134 1_555
Li2 O8 2.529910 1_555
Li2 O5 2.529910 1_555
Li3 O7 2.170681 1_555
Li3 O11 2.170681 1_555
Li3 O14 2.345216 1_555
Li3 O23 2.345216 1_555
Li3 O18 2.415698 1_555
Li3 O10 2.415698 1_555
Li4 O20 2.170681 1_555
Li4 O24 2.170681 1_555
Li4 O8 2.345216 1_565
Li4 O17 2.345216 1_555
Li4 O21 2.415698 1_565
Li4 O13 2.415698 1_555
Li5 O30 2.149881 1_555
Li5 O20 2.149881 1_555
Li5 O29 2.268134 1_556
Li5 O22 2.268134 1_565
Li5 O23 2.529910 1_565
Li5 O26 2.529910 1_556
Li6 O6 2.149881 1_555
Li6 O7 2.149881 1_555
Li6 O4 2.268134 1_555
Li6 O28 2.268134 1_555
Li6 O15 2.529910 1_555
Li6 O17 2.529910 1_555
Li7 O1 2.170681 1_555
Li7 O6 2.170681 1_555
Li7 O26 2.345216 1_555
Li7 O16 2.345216 1_555
Li7 O31 2.415698 1_555
Li7 O19 2.415698 1_555
B0 O2 1.374762 1_556
B0 O0 1.380947 1_655
B0 O14 1.388507 1_555
B1 O3 1.374758 1_555
B1 O10 1.380941 1_555
B1 O5 1.388516 1_555
B2 O4 1.374763 1_655
B2 O12 1.380941 1_556
B2 O23 1.388511 1_565
B3 O9 1.374768 1_565
B3 O13 1.380937 1_555
B3 O16 1.388511 1_655
B4 O22 1.374768 1_555
B4 O18 1.380937 1_555
B4 O15 1.388511 1_555
B5 O27 1.374763 1_555
B5 O19 1.380941 1_555
B5 O8 1.388511 1_555
B6 O28 1.374758 1_555
B6 O21 1.380941 1_565
B6 O26 1.388516 1_556
B7 O29 1.374762 1_555
B7 O31 1.380947 1_555
B7 O17 1.388507 1_555
O0 Sb2 1.995027 1_556
O1 S0 1.500208 1_555
O2 Sb1 2.004470 1_555
O3 Sb0 2.004470 1_655
O4 Sb3 2.004470 1_565
O5 Sb2 2.015345 1_655
O6 S0 1.500208 1_555
O7 S0 1.500208 1_555
O8 Sb1 2.015345 1_555
O9 Sb2 2.004470 1_655
O10 Sb3 1.995027 1_655
O11 S0 1.500208 1_555
O12 Sb0 1.995027 1_655
O13 Sb1 1.995027 1_565
O14 Sb3 2.015345 1_655
O15 Sb0 2.015345 1_556
O16 Sb0 2.015345 1_555
O17 Sb3 2.015345 1_565
O18 Sb1 1.995027 1_556
O19 Sb0 1.995027 1_555
O20 S1 1.500208 1_555
O21 Sb3 1.995027 1_555
O22 Sb2 2.004470 1_556
O23 Sb1 2.015345 1_556
O24 S1 1.500208 1_555
O25 S1 1.500208 1_555
O26 Sb2 2.015345 1_565
O27 Sb3 2.004470 1_555
O28 Sb0 2.004470 1_556
O29 Sb1 2.004470 1_565
O30 S1 1.500208 1_555
O31 Sb2 1.995027 1_565
