# generated using pymatgen
data_LiCoPO4
_symmetry_space_group_name_H-M   'P 1'
_cell_length_a   4.72232400
_cell_length_b   10.33990700
_cell_length_c   6.23001801
_cell_angle_alpha   90.00310943
_cell_angle_beta   89.99598948
_cell_angle_gamma   89.99903819
_symmetry_Int_Tables_number   1
_chemical_formula_structural   LiCoPO4
_chemical_formula_sum   'Li4 Co4 P4 O16'
_cell_volume   304.20175412
_cell_formula_units_Z   4
loop_
 _symmetry_equiv_pos_site_id
 _symmetry_equiv_pos_as_xyz
  1  'x, y, z'
loop_
 _atom_site_type_symbol
 _atom_site_label
 _atom_site_symmetry_multiplicity
 _atom_site_fract_x
 _atom_site_fract_y
 _atom_site_fract_z
 _atom_site_occupancy
  Li  Li0  1  0.49441100  0.21499700  0.74998300  1
  Li  Li1  1  0.99440800  0.28502900  0.24998700  1
  Li  Li2  1  0.00559100  0.71497100  0.75001200  1
  Li  Li3  1  0.50558800  0.78500300  0.25001600  1
  Co  Co0  1  0.00000000  0.00000000  0.50000000  1
  Co  Co1  1  0.50000000  0.50000000  0.00000000  1
  Co  Co2  1  0.00000000  0.00000000  0.00000000  1
  Co  Co3  1  0.50000000  0.50000000  0.50000000  1
  P  P0  1  0.41716900  0.09323500  0.25013800  1
  P  P1  1  0.91717400  0.40677600  0.75013200  1
  P  P2  1  0.08282600  0.59322400  0.24986800  1
  P  P3  1  0.58283100  0.90676500  0.74986200  1
  O  O0  1  0.72194200  0.04749600  0.74987800  1
  O  O1  1  0.22193800  0.45249000  0.24985600  1
  O  O2  1  0.77806200  0.54751000  0.75014400  1
  O  O3  1  0.27805900  0.95250400  0.25012200  1
  O  O4  1  0.74700100  0.08567300  0.25006900  1
  O  O5  1  0.24701000  0.41433300  0.75008600  1
  O  O6  1  0.75298900  0.58566700  0.24991400  1
  O  O7  1  0.25300000  0.91432700  0.74993100  1
  O  O8  1  0.29690500  0.15782700  0.04526000  1
  O  O9  1  0.29652900  0.15788500  0.45501400  1
  O  O10  1  0.79692600  0.34219000  0.54525700  1
  O  O11  1  0.79652000  0.34212100  0.95500800  1
  O  O12  1  0.20348000  0.65787900  0.04499200  1
  O  O13  1  0.20307400  0.65781000  0.45474300  1
  O  O14  1  0.70347100  0.84211400  0.54498600  1
  O  O15  1  0.70309500  0.84217300  0.95474000  1
loop_
_geom_bond_atom_site_label_1
_geom_bond_atom_site_label_2
_geom_bond_distance
_geom_bond_site_symmetry_2
Li0 O0 2.038153 1_555
Li0 O9 2.144550 1_555
Li0 O8 2.145530 1_556
Li0 O11 2.322667 1_555
Li0 O10 2.323195 1_555
Li0 O5 2.369190 1_555
Li1 O1 2.037830 1_655
Li1 O11 2.144605 1_554
Li1 O10 2.145354 1_555
Li1 O9 2.322877 1_655
Li1 O8 2.323093 1_655
Li1 O4 2.369418 1_555
Li2 O2 2.037827 1_455
Li2 O12 2.144612 1_556
Li2 O13 2.145351 1_555
Li2 O14 2.322865 1_455
Li2 O15 2.323093 1_455
Li2 O7 2.369422 1_555
Li3 O3 2.038148 1_555
Li3 O14 2.144554 1_555
Li3 O15 2.145526 1_554
Li3 O12 2.322661 1_555
Li3 O13 2.323195 1_555
Li3 O6 2.369190 1_555
Co0 O0 2.094857 1_455
Co0 O3 2.094860 1_545
Co0 O4 2.153369 1_455
Co0 O7 2.153372 1_545
Co0 O9 2.169006 1_555
Co0 O14 2.169013 1_445
Co1 O2 2.094851 1_554
Co1 O1 2.094851 1_555
Co1 O6 2.153188 1_555
Co1 O5 2.153191 1_554
Co1 O12 2.168878 1_555
Co1 O11 2.168878 1_554
Co2 O0 2.096163 1_454
Co2 O3 2.096166 1_545
Co2 O4 2.153801 1_455
Co2 O7 2.153803 1_544
Co2 O8 2.169925 1_555
Co2 O15 2.169925 1_444
Co3 O1 2.096281 1_555
Co3 O2 2.096281 1_555
Co3 O6 2.153911 1_555
Co3 O5 2.153914 1_555
Co3 O13 2.169842 1_555
Co3 O10 2.169842 1_555
O0 P3 1.596569 1_545
O1 P2 1.596579 1_555
O2 P1 1.596579 1_555
O3 P0 1.596567 1_565
O4 P0 1.559534 1_555
O5 P1 1.559553 1_455
O6 P2 1.559557 1_655
O7 P3 1.559529 1_555
O8 P0 1.548534 1_555
O9 P0 1.549309 1_555
O10 P1 1.548413 1_555
O11 P1 1.549424 1_555
O12 P2 1.549424 1_555
O13 P2 1.548413 1_555
O14 P3 1.549314 1_555
O15 P3 1.548534 1_555
