# generated using pymatgen
data_RbFeSe2O7
_symmetry_space_group_name_H-M   'P 1'
_cell_length_a   14.34834847
_cell_length_b   14.34834847
_cell_length_c   14.34834858
_cell_angle_alpha   22.18170226
_cell_angle_beta   22.18170226
_cell_angle_gamma   22.18170246
_symmetry_Int_Tables_number   1
_chemical_formula_structural   RbFeSe2O7
_chemical_formula_sum   'Rb2 Fe2 Se4 O14'
_cell_volume   369.20070126
_cell_formula_units_Z   2
loop_
 _symmetry_equiv_pos_site_id
 _symmetry_equiv_pos_as_xyz
  1  'x, y, z'
loop_
 _atom_site_type_symbol
 _atom_site_label
 _atom_site_symmetry_multiplicity
 _atom_site_fract_x
 _atom_site_fract_y
 _atom_site_fract_z
 _atom_site_occupancy
  Rb  Rb0  1  0.00000000  0.00000000  0.00000000  1
  Rb  Rb1  1  0.50000000  0.50000000  0.50000000  1
  Fe  Fe0  1  0.09883800  0.09883800  0.09883800  1
  Fe  Fe1  1  0.90116200  0.90116200  0.90116200  1
  Se  Se0  1  0.38618300  0.38618300  0.38618300  1
  Se  Se1  1  0.22830700  0.22830700  0.22830700  1
  Se  Se2  1  0.61381700  0.61381700  0.61381700  1
  Se  Se3  1  0.77169300  0.77169300  0.77169300  1
  O  O0  1  0.23382200  0.23382200  0.73133300  1
  O  O1  1  0.04877400  0.52831200  0.04877400  1
  O  O2  1  0.95122600  0.47168800  0.95122600  1
  O  O3  1  0.95122600  0.95122600  0.47168800  1
  O  O4  1  0.04877400  0.04877400  0.52831200  1
  O  O5  1  0.26866700  0.76617800  0.76617800  1
  O  O6  1  0.47168800  0.95122600  0.95122600  1
  O  O7  1  0.65287600  0.65287600  0.65287600  1
  O  O8  1  0.73133300  0.23382200  0.23382200  1
  O  O9  1  0.76617800  0.26866700  0.76617800  1
  O  O10  1  0.23382200  0.73133300  0.23382200  1
  O  O11  1  0.52831200  0.04877400  0.04877400  1
  O  O12  1  0.34712400  0.34712400  0.34712400  1
  O  O13  1  0.76617800  0.76617800  0.26866700  1
loop_
_geom_bond_atom_site_label_1
_geom_bond_atom_site_label_2
_geom_bond_distance
_geom_bond_site_symmetry_2
Fe0 O2 1.982645 1_454
Fe0 O6 1.982645 1_544
Fe0 O3 1.982645 1_445
Fe0 O8 2.103978 1_455
Fe0 O10 2.103978 1_545
Fe0 O0 2.103978 1_554
Fe1 O11 1.982645 1_566
Fe1 O1 1.982645 1_656
Fe1 O4 1.982645 1_665
Fe1 O9 2.103978 1_565
Fe1 O5 2.103978 1_655
Fe1 O13 2.103978 1_556
O0 Se0 1.683477 1_555
O0 Rb0 3.211477 1_556
O1 Se1 1.737393 1_555
O1 Rb1 3.274576 1_455
O1 Rb1 3.274576 1_554
O2 Se3 1.737393 1_555
O2 Rb1 3.274576 1_655
O2 Rb1 3.274576 1_556
O3 Se3 1.737393 1_555
O3 Rb1 3.274576 1_655
O3 Rb1 3.274576 1_565
O4 Se1 1.737393 1_555
O4 Rb1 3.274576 1_455
O4 Rb1 3.274576 1_545
O5 Se2 1.683477 1_555
O5 Rb0 3.211477 1_566
O6 Se3 1.737393 1_555
O6 Rb1 3.274576 1_565
O6 Rb1 3.274576 1_556
O7 Se2 1.639295 1_555
O7 Rb0 3.239245 1_665
O7 Rb0 3.239245 1_656
O7 Rb0 3.239245 1_566
O8 Se0 1.683477 1_555
O8 Rb0 3.211477 1_655
O9 Se2 1.683477 1_555
O9 Rb0 3.211477 1_656
O10 Se0 1.683477 1_555
O10 Rb0 3.211477 1_565
O11 Se1 1.737393 1_555
O11 Rb1 3.274576 1_545
O11 Rb1 3.274576 1_554
O12 Se0 1.639295 1_555
O12 Rb0 3.239245 1_556
O12 Rb0 3.239245 1_565
O12 Rb0 3.239245 1_655
O13 Se2 1.683477 1_555
O13 Rb0 3.211477 1_665
