# generated using pymatgen
data_TbErO3
_symmetry_space_group_name_H-M   'P 1'
_cell_length_a   5.68178400
_cell_length_b   5.93756100
_cell_length_c   8.40251400
_cell_angle_alpha   90.00000000
_cell_angle_beta   90.00000000
_cell_angle_gamma   90.00000000
_symmetry_Int_Tables_number   1
_chemical_formula_structural   TbErO3
_chemical_formula_sum   'Tb4 Er4 O12'
_cell_volume   283.46670050
_cell_formula_units_Z   4
loop_
 _symmetry_equiv_pos_site_id
 _symmetry_equiv_pos_as_xyz
  1  'x, y, z'
loop_
 _atom_site_type_symbol
 _atom_site_label
 _atom_site_symmetry_multiplicity
 _atom_site_fract_x
 _atom_site_fract_y
 _atom_site_fract_z
 _atom_site_occupancy
  Tb  Tb0  1  0.01667600  0.94661100  0.75000000  1
  Tb  Tb1  1  0.48332400  0.44661100  0.75000000  1
  Tb  Tb2  1  0.51667600  0.55338900  0.25000000  1
  Tb  Tb3  1  0.98332400  0.05338900  0.25000000  1
  Er  Er0  1  0.00000000  0.50000000  0.00000000  1
  Er  Er1  1  0.00000000  0.50000000  0.50000000  1
  Er  Er2  1  0.50000000  0.00000000  0.00000000  1
  Er  Er3  1  0.50000000  0.00000000  0.50000000  1
  O  O0  1  0.14565500  0.42526800  0.25000000  1
  O  O1  1  0.18177600  0.18536500  0.57675700  1
  O  O2  1  0.18177600  0.18536500  0.92324300  1
  O  O3  1  0.31822400  0.68536500  0.92324300  1
  O  O4  1  0.31822400  0.68536500  0.57675700  1
  O  O5  1  0.35434500  0.92526800  0.25000000  1
  O  O6  1  0.64565500  0.07473200  0.75000000  1
  O  O7  1  0.68177600  0.31463500  0.07675700  1
  O  O8  1  0.68177600  0.31463500  0.42324300  1
  O  O9  1  0.81822400  0.81463500  0.07675700  1
  O  O10  1  0.81822400  0.81463500  0.42324300  1
  O  O11  1  0.85434500  0.57473200  0.75000000  1
loop_
_geom_bond_atom_site_label_1
_geom_bond_atom_site_label_2
_geom_bond_distance
_geom_bond_site_symmetry_2
Er0 O3 2.212797 1_554
Er0 O7 2.212797 1_455
Er0 O2 2.229956 1_554
Er0 O9 2.229956 1_455
Er0 O11 2.300961 1_454
Er0 O0 2.300961 1_555
Er1 O4 2.212797 1_555
Er1 O8 2.212797 1_455
Er1 O1 2.229956 1_555
Er1 O10 2.229956 1_455
Er1 O11 2.300961 1_455
Er1 O0 2.300961 1_555
Er2 O2 2.212797 1_554
Er2 O9 2.212797 1_545
Er2 O3 2.229956 1_544
Er2 O7 2.229956 1_555
Er2 O5 2.300961 1_545
Er2 O6 2.300961 1_554
Er3 O1 2.212797 1_555
Er3 O10 2.212797 1_545
Er3 O8 2.229956 1_555
Er3 O4 2.229956 1_545
Er3 O6 2.300961 1_555
Er3 O5 2.300961 1_545
O0 Tb2 2.241122 1_555
O0 Tb3 2.392947 1_455
O1 Tb0 2.237988 1_545
O1 Tb1 2.731411 1_555
O1 Tb3 3.069798 1_455
O2 Tb0 2.237988 1_545
O2 Tb1 2.731411 1_555
O2 Tb3 3.069798 1_456
O3 Tb1 2.237988 1_555
O3 Tb0 2.731411 1_555
O3 Tb2 3.069798 1_556
O4 Tb1 2.237988 1_555
O4 Tb0 2.731411 1_555
O4 Tb2 3.069798 1_555
O5 Tb3 2.241122 1_465
O5 Tb2 2.392947 1_555
O6 Tb0 2.241122 1_645
O6 Tb1 2.392947 1_555
O7 Tb2 2.237988 1_555
O7 Tb3 2.731411 1_555
O7 Tb1 3.069798 1_554
O8 Tb2 2.237988 1_555
O8 Tb3 2.731411 1_555
O8 Tb1 3.069798 1_555
O9 Tb3 2.237988 1_565
O9 Tb2 2.731411 1_555
O9 Tb0 3.069798 1_654
O10 Tb3 2.237988 1_565
O10 Tb2 2.731411 1_555
O10 Tb0 3.069798 1_655
O11 Tb1 2.241122 1_555
O11 Tb0 2.392947 1_655
