# generated using pymatgen
data_K2NiPCO7
_symmetry_space_group_name_H-M   'P 1'
_cell_length_a   7.04686000
_cell_length_b   5.42835800
_cell_length_c   9.58949017
_cell_angle_alpha   89.70960305
_cell_angle_beta   90.00000000
_cell_angle_gamma   90.00000000
_symmetry_Int_Tables_number   1
_chemical_formula_structural   K2NiPCO7
_chemical_formula_sum   'K4 Ni2 P2 C2 O14'
_cell_volume   366.82089416
_cell_formula_units_Z   2
loop_
 _symmetry_equiv_pos_site_id
 _symmetry_equiv_pos_as_xyz
  1  'x, y, z'
loop_
 _atom_site_type_symbol
 _atom_site_label
 _atom_site_symmetry_multiplicity
 _atom_site_fract_x
 _atom_site_fract_y
 _atom_site_fract_z
 _atom_site_occupancy
  K  K0  1  0.52628400  0.75411900  0.74609500  1
  K  K1  1  0.97371600  0.75411900  0.74609500  1
  K  K2  1  0.47371600  0.24588100  0.25390500  1
  K  K3  1  0.02628400  0.24588100  0.25390500  1
  Ni  Ni0  1  0.25000000  0.22647400  0.64092700  1
  Ni  Ni1  1  0.75000000  0.77352600  0.35907300  1
  P  P0  1  0.75000000  0.28084600  0.57102100  1
  P  P1  1  0.25000000  0.71915400  0.42897900  1
  C  C0  1  0.25000000  0.27201700  0.89803000  1
  C  C1  1  0.75000000  0.72798300  0.10197000  1
  O  O0  1  0.75000000  0.70589000  0.97215300  1
  O  O1  1  0.25000000  0.06042600  0.83518300  1
  O  O2  1  0.25000000  0.45912400  0.81220000  1
  O  O3  1  0.92989000  0.23695900  0.66068600  1
  O  O4  1  0.57011000  0.23695900  0.66068600  1
  O  O5  1  0.25000000  0.88468500  0.55952600  1
  O  O6  1  0.75000000  0.55891400  0.52560200  1
  O  O7  1  0.25000000  0.44108600  0.47439800  1
  O  O8  1  0.75000000  0.11531500  0.44047400  1
  O  O9  1  0.42989000  0.76304100  0.33931400  1
  O  O10  1  0.07011000  0.76304100  0.33931400  1
  O  O11  1  0.75000000  0.54087600  0.18780000  1
  O  O12  1  0.75000000  0.93957400  0.16481700  1
  O  O13  1  0.25000000  0.29411000  0.02784700  1
loop_
_geom_bond_atom_site_label_1
_geom_bond_atom_site_label_2
_geom_bond_distance
_geom_bond_site_symmetry_2
K0 O2 2.597382 1_555
K0 O0 2.692100 1_555
K0 O1 2.701761 1_565
K0 O5 2.735128 1_555
K0 O4 2.759387 1_565
K0 O6 2.846339 1_555
K0 O4 2.944587 1_555
K1 O2 2.597382 1_655
K1 O0 2.692100 1_555
K1 O1 2.701761 1_665
K1 O5 2.735128 1_655
K1 O3 2.759387 1_565
K1 O6 2.846339 1_555
K1 O3 2.944587 1_555
K2 O11 2.597382 1_555
K2 O13 2.692100 1_555
K2 O12 2.701761 1_545
K2 O8 2.735128 1_555
K2 O9 2.759387 1_545
K2 O7 2.846339 1_555
K2 O9 2.944587 1_555
K3 O11 2.597382 1_455
K3 O13 2.692100 1_555
K3 O12 2.701761 1_445
K3 O8 2.735128 1_455
K3 O10 2.759387 1_545
K3 O7 2.846339 1_555
K3 O10 2.944587 1_555
Ni0 O7 1.971934 1_555
Ni0 O5 2.016518 1_545
Ni0 O1 2.065315 1_555
Ni0 O2 2.076898 1_555
Ni0 O4 2.264454 1_555
Ni0 O3 2.264454 1_455
Ni1 O6 1.971934 1_555
Ni1 O8 2.016518 1_565
Ni1 O12 2.065315 1_555
Ni1 O11 2.076898 1_555
Ni1 O9 2.264454 1_555
Ni1 O10 2.264454 1_655
C0 O13 1.251247 1_556
C0 O1 1.299804 1_555
C0 O2 1.304062 1_555
C1 O0 1.251247 1_554
C1 O12 1.299804 1_555
C1 O11 1.304062 1_555
O3 P0 1.549506 1_555
O4 P0 1.549506 1_555
O5 P1 1.544674 1_555
O6 P0 1.568911 1_555
O7 P1 1.568911 1_555
O8 P0 1.544674 1_555
O9 P1 1.549506 1_555
O10 P1 1.549506 1_555
