# generated using pymatgen
data_Li4La3Nb12O36
_symmetry_space_group_name_H-M   'P 1'
_cell_length_a   9.80564201
_cell_length_b   9.80564201
_cell_length_c   11.30989432
_cell_angle_alpha   72.87821340
_cell_angle_beta   72.87821340
_cell_angle_gamma   47.96133305
_symmetry_Int_Tables_number   1
_chemical_formula_structural   Li4La3Nb12O36
_chemical_formula_sum   'Li4 La3 Nb12 O36'
_cell_volume   764.56912553
_cell_formula_units_Z   1
loop_
 _symmetry_equiv_pos_site_id
 _symmetry_equiv_pos_as_xyz
  1  'x, y, z'
loop_
 _atom_site_type_symbol
 _atom_site_label
 _atom_site_symmetry_multiplicity
 _atom_site_fract_x
 _atom_site_fract_y
 _atom_site_fract_z
 _atom_site_occupancy
  Li  Li0  1  0.50000000  0.50000000  0.50000000  1
  Li  Li1  1  0.83365300  0.83365300  0.83269300  1
  Li  Li2  1  0.00000000  0.00000000  0.00000000  1
  Li  Li3  1  0.16634700  0.16634700  0.16730700  1
  La  La0  1  0.00000000  0.00000000  0.50000000  1
  La  La1  1  0.66675500  0.66675500  0.16773100  1
  La  La2  1  0.33324500  0.33324500  0.83226900  1
  Nb  Nb0  1  0.74694500  0.24902900  0.24949700  1
  Nb  Nb1  1  0.24902900  0.74694500  0.24949700  1
  Nb  Nb2  1  0.25305500  0.75097100  0.75050300  1
  Nb  Nb3  1  0.41626900  0.91384100  0.91364100  1
  Nb  Nb4  1  0.91956000  0.41920400  0.41930400  1
  Nb  Nb5  1  0.58079600  0.08044000  0.58069600  1
  Nb  Nb6  1  0.41920400  0.91956000  0.41930400  1
  Nb  Nb7  1  0.75097100  0.25305500  0.75050300  1
  Nb  Nb8  1  0.91384100  0.41626900  0.91364100  1
  Nb  Nb9  1  0.08044000  0.58079600  0.58069600  1
  Nb  Nb10  1  0.58373100  0.08615900  0.08635900  1
  Nb  Nb11  1  0.08615900  0.58373100  0.08635900  1
  O  O0  1  0.33270600  0.83380000  0.33246000  1
  O  O1  1  0.15672000  0.15672000  0.41233800  1
  O  O2  1  0.50933600  0.50933600  0.25336500  1
  O  O3  1  0.66035400  0.66035400  0.40440300  1
  O  O4  1  0.00545000  0.00545000  0.25814900  1
  O  O5  1  0.83380000  0.33270600  0.33246000  1
  O  O6  1  0.32016100  0.83114400  0.57502100  1
  O  O7  1  0.49780800  0.98617400  0.24227400  1
  O  O8  1  0.98617400  0.49780800  0.24227400  1
  O  O9  1  0.67983900  0.16885600  0.42497900  1
  O  O10  1  0.83114400  0.32016100  0.57502100  1
  O  O11  1  0.16885600  0.67983900  0.42497900  1
  O  O12  1  0.32065800  0.83986400  0.83950300  1
  O  O13  1  0.50000000  0.00000000  0.50000000  1
  O  O14  1  0.00000000  0.50000000  0.50000000  1
  O  O15  1  0.83986400  0.32065800  0.83950300  1
  O  O16  1  0.99455000  0.99455000  0.74185100  1
  O  O17  1  0.49066400  0.49066400  0.74663500  1
  O  O18  1  0.16620000  0.66729400  0.66754000  1
  O  O19  1  0.33964600  0.33964600  0.59559700  1
  O  O20  1  0.66729400  0.16620000  0.66754000  1
  O  O21  1  0.84328000  0.84328000  0.58766200  1
  O  O22  1  0.50219200  0.01382600  0.75772600  1
  O  O23  1  0.65789400  0.16208400  0.91024700  1
  O  O24  1  0.83791600  0.34210600  0.08975300  1
  O  O25  1  0.16208400  0.65789400  0.91024700  1
  O  O26  1  0.01382600  0.50219200  0.75772600  1
  O  O27  1  0.34210600  0.83791600  0.08975300  1
  O  O28  1  0.67934200  0.16013600  0.16049700  1
  O  O29  1  0.16013600  0.67934200  0.16049700  1
  O  O30  1  0.32773000  0.32773000  0.07197400  1
  O  O31  1  0.82577700  0.82577700  0.07828400  1
  O  O32  1  0.50000000  0.00000000  0.00000000  1
  O  O33  1  0.17422300  0.17422300  0.92171600  1
  O  O34  1  0.00000000  0.50000000  0.00000000  1
  O  O35  1  0.67227000  0.67227000  0.92802600  1
loop_
_geom_bond_atom_site_label_1
_geom_bond_atom_site_label_2
_geom_bond_distance
_geom_bond_site_symmetry_2
Li2 O15 2.711529 1_454
Li2 O29 2.711529 1_545
Li2 O12 2.711529 1_544
Li2 O28 2.711529 1_455
La0 O21 2.659824 1_445
La0 O1 2.659824 1_555
La0 O6 2.663989 1_545
La0 O10 2.663989 1_455
La0 O9 2.663989 1_455
La0 O11 2.663989 1_545
La0 O16 2.705423 1_445
La0 O4 2.705423 1_555
La0 O5 2.819137 1_455
La0 O0 2.819137 1_545
La0 O20 2.819137 1_455
La0 O18 2.819137 1_545
La1 O3 2.642010 1_555
La1 O7 2.654926 1_555
La1 O8 2.654926 1_555
La1 O2 2.670937 1_555
La1 O35 2.680829 1_554
La1 O31 2.699082 1_555
La1 O27 2.711955 1_555
La1 O24 2.711955 1_555
La1 O5 2.810934 1_555
La1 O0 2.810934 1_555
La1 O34 2.823252 1_655
La1 O32 2.823252 1_565
La2 O19 2.642010 1_555
La2 O22 2.654926 1_555
La2 O26 2.654926 1_555
La2 O17 2.670937 1_555
La2 O30 2.680829 1_556
La2 O33 2.699082 1_555
La2 O23 2.711955 1_555
La2 O25 2.711955 1_555
La2 O20 2.810934 1_555
La2 O18 2.810934 1_555
La2 O32 2.823252 1_556
La2 O34 2.823252 1_556
Nb0 O28 1.973764 1_555
Nb0 O2 1.996649 1_555
Nb0 O9 1.998783 1_555
Nb0 O4 2.009899 1_655
Nb0 O24 2.015771 1_555
Nb0 O5 2.034381 1_555
Nb1 O29 1.973764 1_555
Nb1 O2 1.996649 1_555
Nb1 O11 1.998783 1_555
Nb1 O4 2.009899 1_565
Nb1 O27 2.015771 1_555
Nb1 O0 2.034381 1_555
Nb2 O12 1.973764 1_555
Nb2 O17 1.996649 1_555
Nb2 O6 1.998783 1_555
Nb2 O16 2.009899 1_455
Nb2 O25 2.015771 1_555
Nb2 O18 2.034381 1_555
Nb3 O12 1.959597 1_555
Nb3 O35 1.997224 1_555
Nb3 O22 1.998528 1_565
Nb3 O27 2.012335 1_556
Nb3 O33 2.013526 1_565
Nb3 O32 2.056415 1_566
Nb4 O14 1.941469 1_655
Nb4 O10 2.004492 1_555
Nb4 O8 2.006254 1_555
Nb4 O1 2.008528 1_655
Nb4 O3 2.012072 1_555
Nb4 O5 2.079266 1_555
Nb5 O13 1.941469 1_555
Nb5 O9 2.004492 1_555
Nb5 O22 2.006254 1_555
Nb5 O21 2.008528 1_545
Nb5 O19 2.012072 1_555
Nb5 O20 2.079266 1_555
Nb6 O13 1.941469 1_565
Nb6 O6 2.004492 1_555
Nb6 O7 2.006254 1_555
Nb6 O1 2.008528 1_565
Nb6 O3 2.012072 1_555
Nb6 O0 2.079266 1_555
Nb7 O15 1.973764 1_555
Nb7 O17 1.996649 1_555
Nb7 O10 1.998783 1_555
Nb7 O16 2.009899 1_545
Nb7 O23 2.015771 1_555
Nb7 O20 2.034381 1_555
Nb8 O15 1.959597 1_555
Nb8 O35 1.997224 1_555
Nb8 O26 1.998528 1_655
Nb8 O24 2.012335 1_556
Nb8 O33 2.013526 1_655
Nb8 O34 2.056415 1_656
Nb9 O14 1.941469 1_555
Nb9 O11 2.004492 1_555
Nb9 O26 2.006254 1_555
Nb9 O21 2.008528 1_455
Nb9 O19 2.012072 1_555
Nb9 O18 2.079266 1_555
Nb10 O28 1.959597 1_555
Nb10 O30 1.997224 1_555
Nb10 O7 1.998528 1_545
Nb10 O23 2.012335 1_554
Nb10 O31 2.013526 1_545
Nb10 O32 2.056415 1_555
Nb11 O29 1.959597 1_555
Nb11 O30 1.997224 1_555
Nb11 O8 1.998528 1_455
Nb11 O25 2.012335 1_554
Nb11 O31 2.013526 1_455
Nb11 O34 2.056415 1_555
