# generated using pymatgen
data_Na3Mg3In(SO4)6
_symmetry_space_group_name_H-M   'P 1'
_cell_length_a   8.78295400
_cell_length_b   8.99651155
_cell_length_c   15.23411692
_cell_angle_alpha   106.35238444
_cell_angle_beta   89.98568933
_cell_angle_gamma   119.19734395
_symmetry_Int_Tables_number   1
_chemical_formula_structural   Na3Mg3In(SO4)6
_chemical_formula_sum   'Na6 Mg6 In2 S12 O48'
_cell_volume   994.69415789
_cell_formula_units_Z   2
loop_
 _symmetry_equiv_pos_site_id
 _symmetry_equiv_pos_as_xyz
  1  'x, y, z'
loop_
 _atom_site_type_symbol
 _atom_site_label
 _atom_site_symmetry_multiplicity
 _atom_site_fract_x
 _atom_site_fract_y
 _atom_site_fract_z
 _atom_site_occupancy
  Na  Na0  1  0.00051400  0.99757900  0.00084900  1
  Na  Na1  1  0.51242600  0.02396200  0.49208600  1
  Na  Na2  1  0.73396300  0.02016600  0.23749100  1
  Na  Na3  1  0.03646400  0.83593300  0.44177900  1
  Na  Na4  1  0.23095100  0.96950200  0.76139100  1
  Na  Na5  1  0.49495400  0.47249000  0.62049500  1
  Mg  Mg0  1  0.53002600  0.69969000  0.18045600  1
  Mg  Mg1  1  0.72013500  0.28718700  0.57415400  1
  Mg  Mg2  1  0.03254600  0.70936500  0.67541200  1
  Mg  Mg3  1  0.97339300  0.30554900  0.32439000  1
  Mg  Mg4  1  0.27544700  0.70410800  0.41885100  1
  Mg  Mg5  1  0.47163300  0.29316800  0.82557900  1
  In  In0  1  0.22346000  0.29407000  0.07545100  1
  In  In1  1  0.77606800  0.69968300  0.92602500  1
  S  S0  1  0.27375200  0.79391700  0.22610900  1
  S  S1  1  0.83061700  0.50741200  0.37482600  1
  S  S2  1  0.76985000  0.19688300  0.02461600  1
  S  S3  1  0.72831200  0.79582500  0.47800800  1
  S  S4  1  0.67544400  0.49911300  0.12780400  1
  S  S5  1  0.76882200  0.79276000  0.72278800  1
  S  S6  1  0.22526700  0.20115800  0.27608100  1
  S  S7  1  0.32459900  0.50029600  0.87307900  1
  S  S8  1  0.27439600  0.20073700  0.52435600  1
  S  S9  1  0.23102700  0.79916300  0.97704600  1
  S  S10  1  0.16952600  0.49598300  0.62635200  1
  S  S11  1  0.73013200  0.20864900  0.77140100  1
  O  O0  1  0.16882100  0.18579800  0.19846500  1
  O  O1  1  0.19266500  0.60595800  0.98525100  1
  O  O2  1  0.50535200  0.36899000  0.10450900  1
  O  O3  1  0.36309900  0.39833800  0.25601100  1
  O  O4  1  0.35037100  0.79069400  0.05724700  1
  O  O5  1  0.19806500  0.97205200  0.13628500  1
  O  O6  1  0.64714400  0.61047200  0.14816000  1
  O  O7  1  0.43872200  0.81619400  0.21281600  1
  O  O8  1  0.73702100  0.34886900  0.45604300  1
  O  O9  1  0.68335900  0.19929600  0.69379000  1
  O  O10  1  0.72676900  0.65899500  0.29475200  1
  O  O11  1  0.69890400  0.01223600  0.11150200  1
  O  O12  1  0.71417500  0.60068300  0.49569100  1
  O  O13  1  0.55111200  0.79837400  0.46882300  1
  O  O14  1  0.99346600  0.37709200  0.60471200  1
  O  O15  1  0.86720600  0.40523300  0.75431300  1
  O  O16  1  0.94036300  0.18495200  0.03036800  1
  O  O17  1  0.80292700  0.98073200  0.39058400  1
  O  O18  1  0.84297400  0.80274800  0.55659600  1
  O  O19  1  0.78136800  0.35084800  0.20640800  1
  O  O20  1  0.70172300  0.97510700  0.63735200  1
  O  O21  1  0.76970000  0.66399200  0.04520300  1
  O  O22  1  0.15813900  0.62226400  0.64511000  1
  O  O23  1  0.93521400  0.80884600  0.71351400  1
  O  O24  1  0.06165400  0.17914700  0.29146600  1
  O  O25  1  0.85326700  0.39258200  0.35362700  1
  O  O26  1  0.22891400  0.33429100  0.95494700  1
  O  O27  1  0.29186600  0.01599200  0.36323400  1
  O  O28  1  0.22064300  0.65051700  0.79483500  1
  O  O29  1  0.15163100  0.18998100  0.44738100  1
  O  O30  1  0.20310800  0.02134400  0.61270400  1
  O  O31  1  0.05961400  0.81356700  0.96943600  1
  O  O32  1  0.13923900  0.59483600  0.24513000  1
  O  O33  1  0.00565300  0.63404800  0.39682000  1
  O  O34  1  0.44654400  0.19012800  0.53326400  1
  O  O35  1  0.30114200  0.40217300  0.50647100  1
  O  O36  1  0.30186600  0.98365800  0.88944700  1
  O  O37  1  0.27673900  0.34503600  0.70494800  1
  O  O38  1  0.31728100  0.81408900  0.29990800  1
  O  O39  1  0.26527000  0.65178100  0.54404200  1
  O  O40  1  0.56305800  0.19453500  0.78137800  1
  O  O41  1  0.35165200  0.39035200  0.85138100  1
  O  O42  1  0.79798900  0.02601200  0.86072100  1
  O  O43  1  0.65037500  0.20736200  0.94377600  1
  O  O44  1  0.63086200  0.59441900  0.74009100  1
  O  O45  1  0.49514400  0.62603900  0.89813300  1
  O  O46  1  0.80773400  0.38941100  0.01686800  1
  O  O47  1  0.81587200  0.80058900  0.80211100  1
loop_
_geom_bond_atom_site_label_1
_geom_bond_atom_site_label_2
_geom_bond_distance
_geom_bond_site_symmetry_2
Na0 O31 1.905563 1_554
Na0 O16 1.940315 1_465
Na0 O5 2.824464 1_555
Na0 O42 2.922294 1_464
Na1 O34 1.810751 1_555
Na1 O13 2.151199 1_545
Na1 O27 2.719936 1_555
Na2 O11 1.919765 1_555
Na2 O7 2.280866 1_545
Na2 O17 2.570667 1_545
Na3 O33 1.631329 1_555
Na3 O18 2.415404 1_455
Na3 O27 2.575386 1_565
Na3 O30 2.622803 1_565
Na3 S3 2.630298 1_455
Na3 S8 2.775964 1_565
Na4 O36 1.998292 1_555
Na4 O30 2.472751 1_565
Na5 O44 1.883037 1_555
Na5 O35 2.155754 1_555
Na5 S8 2.288958 1_555
Na5 O37 2.308389 1_555
Na5 O34 2.333535 1_555
Na5 O12 2.778227 1_555
Mg0 O7 1.585423 1_555
Mg0 O6 1.589756 1_555
Mg1 O8 2.012282 1_555
Mg1 O14 2.127951 1_555
Mg1 O34 2.138214 1_555
Mg1 O9 2.147845 1_555
Mg1 Na1 2.149000 1_555
Mg2 O23 1.523937 1_455
Mg2 O22 1.638076 1_555
Mg3 O25 1.591850 1_555
Mg3 O24 1.638401 1_655
Mg4 O39 2.081186 1_555
Mg4 O33 2.132836 1_555
Mg4 O13 2.189715 1_555
Mg4 O38 2.247629 1_555
Mg5 O40 1.498012 1_555
Mg5 O41 1.653656 1_555
In0 O26 1.964784 1_554
In0 O16 2.203976 1_455
In0 O2 2.232598 1_555
In0 O0 2.293988 1_555
In0 Na0 2.332190 1_545
In1 O21 1.926972 1_556
In1 O31 2.195209 1_655
In1 O45 2.225849 1_555
In1 O47 2.272619 1_555
In1 Na0 2.344012 1_656
O0 S6 1.226549 1_555
O0 O5 2.029074 1_545
O1 O4 1.616191 1_556
O1 S9 1.643571 1_555
O1 S7 2.307708 1_555
O2 S4 1.337245 1_555
O3 S6 1.707591 1_555
O4 S9 1.651745 1_554
O5 S6 2.426730 1_565
O6 S4 1.108876 1_555
O7 S0 1.385623 1_555
O9 S11 1.218300 1_555
O11 S2 2.264420 1_555
O12 O18 1.577870 1_555
O12 S3 1.795472 1_555
O12 S1 2.259789 1_555
O13 S3 1.574495 1_555
O14 S10 1.353476 1_655
O15 S11 1.681299 1_555
O16 S2 1.556992 1_555
O17 S3 2.270245 1_555
O18 S3 1.532587 1_555
O22 S10 1.144723 1_555
O23 S5 1.407729 1_555
O24 S6 1.381112 1_555
O25 S1 1.106216 1_555
O27 O38 1.920586 1_545
O29 S8 1.543374 1_555
O29 O35 1.663180 1_555
O30 S8 2.246110 1_555
O31 S9 1.579774 1_555
O32 S0 1.707387 1_555
O33 S1 1.360200 1_455
O34 S8 1.569000 1_555
O35 S8 1.810035 1_555
O35 S10 2.338107 1_555
O36 S9 2.272057 1_555
O38 S0 1.122810 1_555
O40 S11 1.421783 1_555
O41 S7 1.090511 1_555
O42 O47 2.055685 1_545
O42 S5 2.424341 1_545
O43 O46 1.611786 1_556
O43 S2 1.670091 1_556
O44 S5 1.696153 1_555
O45 S7 1.331551 1_555
O46 S2 1.636327 1_555
O46 S4 2.314907 1_555
O47 S5 1.248968 1_555
