# generated using pymatgen
data_MnPH2CO6
_symmetry_space_group_name_H-M   'P 1'
_cell_length_a   6.12234872
_cell_length_b   9.28055692
_cell_length_c   9.28056031
_cell_angle_alpha   110.99853078
_cell_angle_beta   83.56776130
_cell_angle_gamma   83.56790495
_symmetry_Int_Tables_number   1
_chemical_formula_structural   MnPH2CO6
_chemical_formula_sum   'Mn4 P4 H8 C4 O24'
_cell_volume   482.56679719
_cell_formula_units_Z   4
loop_
 _symmetry_equiv_pos_site_id
 _symmetry_equiv_pos_as_xyz
  1  'x, y, z'
loop_
 _atom_site_type_symbol
 _atom_site_label
 _atom_site_symmetry_multiplicity
 _atom_site_fract_x
 _atom_site_fract_y
 _atom_site_fract_z
 _atom_site_occupancy
  Mn  Mn0  1  0.24999700  0.94203300  0.55788200  1
  Mn  Mn1  1  0.75001500  0.05795800  0.44209100  1
  Mn  Mn2  1  0.75000800  0.44203500  0.05796600  1
  Mn  Mn3  1  0.25001400  0.55797100  0.94206600  1
  P  P0  1  0.99998400  0.32942300  0.67061200  1
  P  P1  1  0.50002300  0.82939900  0.17058500  1
  P  P2  1  0.49997400  0.17060900  0.82941700  1
  P  P3  1  0.00002100  0.67058100  0.32939700  1
  H  H0  1  0.68706100  0.49252700  0.68215500  1
  H  H1  1  0.18706700  0.99249200  0.18217100  1
  H  H2  1  0.81293800  0.81784600  0.00747200  1
  H  H3  1  0.31293100  0.31782900  0.50750900  1
  H  H4  1  0.18706000  0.18215800  0.99253000  1
  H  H5  1  0.68706700  0.68217200  0.49249200  1
  H  H6  1  0.31294100  0.50747000  0.31784300  1
  H  H7  1  0.81292900  0.00751100  0.81782900  1
  C  C0  1  0.37648600  0.72043700  0.72043600  1
  C  C1  1  0.87648200  0.22043600  0.22044000  1
  C  C2  1  0.62351100  0.27956000  0.27956600  1
  C  C3  1  0.12351300  0.77956400  0.77956100  1
  O  O0  1  0.46967400  0.62510500  0.77301500  1
  O  O1  1  0.96968600  0.12506300  0.27305300  1
  O  O2  1  0.96967100  0.27301500  0.12510700  1
  O  O3  1  0.46968500  0.77305500  0.62506100  1
  O  O4  1  0.03032200  0.72698400  0.87489700  1
  O  O5  1  0.53031200  0.22694700  0.37493500  1
  O  O6  1  0.53032600  0.37489600  0.22698200  1
  O  O7  1  0.03031200  0.87493300  0.72694500  1
  O  O8  1  0.51611500  0.65103400  0.09740800  1
  O  O9  1  0.01606900  0.15104100  0.59742400  1
  O  O10  1  0.98388600  0.40258900  0.84896200  1
  O  O11  1  0.48392800  0.90257400  0.34895300  1
  O  O12  1  0.01611600  0.59740700  0.15103600  1
  O  O13  1  0.51607400  0.09742800  0.65104600  1
  O  O14  1  0.48388100  0.34896600  0.90258900  1
  O  O15  1  0.98392800  0.84895300  0.40257300  1
  O  O16  1  0.29085300  0.89323000  0.11339600  1
  O  O17  1  0.79083600  0.39324100  0.61339900  1
  O  O18  1  0.20914500  0.38660300  0.60676900  1
  O  O19  1  0.70915900  0.88659900  0.10675500  1
  O  O20  1  0.79085500  0.61339600  0.39322900  1
  O  O21  1  0.29083400  0.11340400  0.89324600  1
  O  O22  1  0.70914800  0.10677400  0.88660100  1
  O  O23  1  0.20916300  0.60675500  0.38659900  1
loop_
_geom_bond_atom_site_label_1
_geom_bond_atom_site_label_2
_geom_bond_distance
_geom_bond_site_symmetry_2
Mn0 O11 2.167106 1_555
Mn0 O9 2.167482 1_565
Mn0 O3 2.252342 1_555
Mn0 O7 2.252469 1_555
Mn0 O15 2.329430 1_455
Mn0 O13 2.330096 1_565
Mn1 O13 2.167300 1_555
Mn1 O15 2.167461 1_545
Mn1 O1 2.252280 1_555
Mn1 O5 2.252340 1_555
Mn1 O9 2.329488 1_655
Mn1 O11 2.330034 1_545
Mn2 O10 2.167487 1_554
Mn2 O8 2.167512 1_555
Mn2 O2 2.252333 1_555
Mn2 O6 2.252356 1_555
Mn2 O12 2.329931 1_655
Mn2 O14 2.330051 1_554
Mn3 O12 2.167334 1_556
Mn3 O14 2.167395 1_555
Mn3 O0 2.252491 1_555
Mn3 O4 2.252537 1_555
Mn3 O8 2.329726 1_556
Mn3 O10 2.330155 1_455
H0 O17 1.008205 1_555
H0 O0 1.623066 1_555
H1 O16 1.008140 1_555
H1 O1 1.623042 1_465
H2 O19 1.008193 1_555
H2 O4 1.623042 1_654
H3 O18 1.008126 1_555
H3 O5 1.623054 1_555
H4 O21 1.008187 1_555
H4 O2 1.623065 1_456
H5 O20 1.008154 1_555
H5 O3 1.623038 1_555
H6 O23 1.008208 1_555
H6 O6 1.623041 1_555
H7 O22 1.008126 1_555
H7 O7 1.623084 1_645
C0 O0 1.266908 1_555
C0 O3 1.267496 1_555
C1 O2 1.266916 1_555
C1 O1 1.267464 1_555
C2 O6 1.266961 1_555
C2 O5 1.267421 1_555
C3 O4 1.266949 1_555
C3 O7 1.267446 1_555
O8 P1 1.534213 1_555
O9 P0 1.534367 1_455
O10 P0 1.534078 1_555
O11 P1 1.534236 1_555
O12 P3 1.534177 1_555
O13 P2 1.534261 1_555
O14 P2 1.534143 1_555
O15 P3 1.534272 1_655
O16 P1 1.574874 1_555
O17 P0 1.574842 1_555
O18 P0 1.574826 1_455
O19 P1 1.574757 1_555
O20 P3 1.574835 1_655
O21 P2 1.574800 1_555
O22 P2 1.574883 1_555
O23 P3 1.574785 1_555
