# generated using pymatgen
data_LiNiCSO7
_symmetry_space_group_name_H-M   'P 1'
_cell_length_a   6.47916400
_cell_length_b   5.01123500
_cell_length_c   8.61226570
_cell_angle_alpha   86.17215912
_cell_angle_beta   90.00000000
_cell_angle_gamma   90.00000000
_symmetry_Int_Tables_number   1
_chemical_formula_structural   LiNiCSO7
_chemical_formula_sum   'Li2 Ni2 C2 S2 O14'
_cell_volume   279.00451585
_cell_formula_units_Z   2
loop_
 _symmetry_equiv_pos_site_id
 _symmetry_equiv_pos_as_xyz
  1  'x, y, z'
loop_
 _atom_site_type_symbol
 _atom_site_label
 _atom_site_symmetry_multiplicity
 _atom_site_fract_x
 _atom_site_fract_y
 _atom_site_fract_z
 _atom_site_occupancy
  Li  Li0  1  0.49627600  0.77962800  0.77770600  1
  Li  Li1  1  0.99627600  0.22037200  0.22229400  1
  Ni  Ni0  1  0.24676300  0.21269100  0.65025000  1
  Ni  Ni1  1  0.74676300  0.78730900  0.34975000  1
  C  C0  1  0.25325500  0.27295700  0.93036400  1
  C  C1  1  0.75325500  0.72704300  0.06963600  1
  S  S0  1  0.75214200  0.27295600  0.58091800  1
  S  S1  1  0.25214200  0.72704400  0.41908200  1
  O  O0  1  0.72365200  0.69728100  0.92849600  1
  O  O1  1  0.25920300  0.04063300  0.87273900  1
  O  O2  1  0.27454100  0.47097600  0.82659700  1
  O  O3  1  0.93429600  0.21132400  0.67691800  1
  O  O4  1  0.56924000  0.16685300  0.66823800  1
  O  O5  1  0.26591300  0.84356800  0.57354600  1
  O  O6  1  0.72687000  0.56939200  0.55111900  1
  O  O7  1  0.22687000  0.43060800  0.44888100  1
  O  O8  1  0.76591300  0.15643200  0.42645400  1
  O  O9  1  0.06924000  0.83314700  0.33176200  1
  O  O10  1  0.43429600  0.78867600  0.32308200  1
  O  O11  1  0.77454100  0.52902400  0.17340300  1
  O  O12  1  0.75920300  0.95936700  0.12726100  1
  O  O13  1  0.22365200  0.30271900  0.07150400  1
loop_
_geom_bond_atom_site_label_1
_geom_bond_atom_site_label_2
_geom_bond_distance
_geom_bond_site_symmetry_2
Li0 O0 1.988856 1_555
Li0 O2 2.132297 1_555
Li0 O4 2.152553 1_565
Li0 O1 2.209739 1_565
Li0 O5 2.312300 1_555
Li1 O13 1.988856 1_655
Li1 O11 2.132297 1_555
Li1 O9 2.152553 1_645
Li1 O12 2.209739 1_545
Li1 O8 2.312300 1_555
Ni0 O7 1.990951 1_555
Ni0 O5 2.009117 1_545
Ni0 O3 2.037471 1_455
Ni0 O1 2.049611 1_555
Ni0 O2 2.068026 1_555
Ni0 O4 2.106544 1_555
Ni1 O6 1.990951 1_555
Ni1 O8 2.009117 1_565
Ni1 O10 2.037471 1_555
Ni1 O12 2.049611 1_555
Ni1 O11 2.068026 1_555
Ni1 O9 2.106544 1_655
C0 O13 1.249305 1_556
C0 O1 1.296286 1_555
C0 O2 1.297675 1_555
C1 O0 1.249305 1_554
C1 O12 1.296286 1_555
C1 O11 1.297675 1_555
O3 S0 1.462102 1_555
O4 S0 1.482974 1_555
O5 S1 1.490741 1_555
O6 S0 1.499504 1_555
O7 S1 1.499504 1_555
O8 S0 1.490741 1_555
O9 S1 1.482974 1_555
O10 S1 1.462102 1_555
