# generated using pymatgen
data_Na5LaO4
_symmetry_space_group_name_H-M   'P 1'
_cell_length_a   11.11910100
_cell_length_b   11.13595800
_cell_length_c   11.14442700
_cell_angle_alpha   90.00000000
_cell_angle_beta   90.00000000
_cell_angle_gamma   90.00000000
_symmetry_Int_Tables_number   1
_chemical_formula_structural   Na5LaO4
_chemical_formula_sum   'Na40 La8 O32'
_cell_volume   1379.92347621
_cell_formula_units_Z   8
loop_
 _symmetry_equiv_pos_site_id
 _symmetry_equiv_pos_as_xyz
  1  'x, y, z'
loop_
 _atom_site_type_symbol
 _atom_site_label
 _atom_site_symmetry_multiplicity
 _atom_site_fract_x
 _atom_site_fract_y
 _atom_site_fract_z
 _atom_site_occupancy
  Na  Na0  1  0.82987900  0.12215900  0.10694400  1
  Na  Na1  1  0.67012100  0.62215900  0.10694400  1
  Na  Na2  1  0.14037700  0.39803000  0.10709100  1
  Na  Na3  1  0.35962300  0.89803000  0.10709100  1
  Na  Na4  1  0.39865500  0.15962400  0.11602800  1
  Na  Na5  1  0.10134500  0.65962400  0.11602800  1
  Na  Na6  1  0.60572600  0.35531100  0.13199900  1
  Na  Na7  1  0.89427400  0.85531100  0.13199900  1
  Na  Na8  1  0.87438700  0.37981900  0.14528600  1
  Na  Na9  1  0.62561300  0.87981900  0.14528600  1
  Na  Na10  1  0.12561300  0.87981900  0.35471400  1
  Na  Na11  1  0.37438700  0.37981900  0.35471400  1
  Na  Na12  1  0.10572600  0.35531100  0.36800100  1
  Na  Na13  1  0.39427400  0.85531100  0.36800100  1
  Na  Na14  1  0.60134500  0.65962400  0.38397200  1
  Na  Na15  1  0.89865500  0.15962400  0.38397200  1
  Na  Na16  1  0.64037700  0.39803000  0.39290900  1
  Na  Na17  1  0.85962300  0.89803000  0.39290900  1
  Na  Na18  1  0.17012100  0.62215900  0.39305600  1
  Na  Na19  1  0.32987900  0.12215900  0.39305600  1
  Na  Na20  1  0.82987900  0.37784100  0.60694400  1
  Na  Na21  1  0.67012100  0.87784100  0.60694400  1
  Na  Na22  1  0.14037700  0.10197000  0.60709100  1
  Na  Na23  1  0.35962300  0.60197000  0.60709100  1
  Na  Na24  1  0.39865500  0.34037600  0.61602800  1
  Na  Na25  1  0.10134500  0.84037600  0.61602800  1
  Na  Na26  1  0.60572600  0.14468900  0.63199900  1
  Na  Na27  1  0.89427400  0.64468900  0.63199900  1
  Na  Na28  1  0.62561300  0.62018100  0.64528600  1
  Na  Na29  1  0.87438700  0.12018100  0.64528600  1
  Na  Na30  1  0.12561300  0.62018100  0.85471400  1
  Na  Na31  1  0.37438700  0.12018100  0.85471400  1
  Na  Na32  1  0.10572600  0.14468900  0.86800100  1
  Na  Na33  1  0.39427400  0.64468900  0.86800100  1
  Na  Na34  1  0.60134500  0.84037600  0.88397200  1
  Na  Na35  1  0.89865500  0.34037600  0.88397200  1
  Na  Na36  1  0.64037700  0.10197000  0.89290900  1
  Na  Na37  1  0.85962300  0.60197000  0.89290900  1
  Na  Na38  1  0.17012100  0.87784100  0.89305600  1
  Na  Na39  1  0.32987900  0.37784100  0.89305600  1
  La  La0  1  0.11756200  0.11428600  0.14835900  1
  La  La1  1  0.38243800  0.61428600  0.14835900  1
  La  La2  1  0.88243800  0.61428600  0.35164100  1
  La  La3  1  0.61756200  0.11428600  0.35164100  1
  La  La4  1  0.11756200  0.38571400  0.64835900  1
  La  La5  1  0.38243800  0.88571400  0.64835900  1
  La  La6  1  0.61756200  0.38571400  0.85164100  1
  La  La7  1  0.88243800  0.88571400  0.85164100  1
  O  O0  1  0.24436900  0.03749700  0.00406500  1
  O  O1  1  0.25563100  0.53749700  0.00406500  1
  O  O2  1  0.00123200  0.24025400  0.03641900  1
  O  O3  1  0.49876800  0.74025400  0.03641900  1
  O  O4  1  0.97723600  0.00614300  0.25433800  1
  O  O5  1  0.52276400  0.50614300  0.25433800  1
  O  O6  1  0.23948700  0.24841700  0.24666900  1
  O  O7  1  0.26051300  0.74841700  0.24666900  1
  O  O8  1  0.73948700  0.24841700  0.25333100  1
  O  O9  1  0.76051300  0.74841700  0.25333100  1
  O  O10  1  0.02276400  0.50614300  0.24566200  1
  O  O11  1  0.47723600  0.00614300  0.24566200  1
  O  O12  1  0.50123200  0.24025400  0.46358100  1
  O  O13  1  0.99876800  0.74025400  0.46358100  1
  O  O14  1  0.75563100  0.53749700  0.49593500  1
  O  O15  1  0.74436900  0.03749700  0.49593500  1
  O  O16  1  0.25563100  0.96250300  0.50406500  1
  O  O17  1  0.24436900  0.46250300  0.50406500  1
  O  O18  1  0.00123200  0.25974600  0.53641900  1
  O  O19  1  0.49876800  0.75974600  0.53641900  1
  O  O20  1  0.52276400  0.99385700  0.75433800  1
  O  O21  1  0.97723600  0.49385700  0.75433800  1
  O  O22  1  0.23948700  0.25158300  0.74666900  1
  O  O23  1  0.26051300  0.75158300  0.74666900  1
  O  O24  1  0.73948700  0.25158300  0.75333100  1
  O  O25  1  0.76051300  0.75158300  0.75333100  1
  O  O26  1  0.02276400  0.99385700  0.74566200  1
  O  O27  1  0.47723600  0.49385700  0.74566200  1
  O  O28  1  0.99876800  0.75974600  0.96358100  1
  O  O29  1  0.50123200  0.25974600  0.96358100  1
  O  O30  1  0.75563100  0.96250300  0.99593500  1
  O  O31  1  0.74436900  0.46250300  0.99593500  1
loop_
_geom_bond_atom_site_label_1
_geom_bond_atom_site_label_2
_geom_bond_distance
_geom_bond_site_symmetry_2
Na0 O30 2.317989 1_544
Na0 O8 2.376656 1_555
Na0 O2 2.444864 1_655
Na0 O4 2.655550 1_555
Na1 O31 2.317989 1_554
Na1 O9 2.376656 1_555
Na1 O3 2.444864 1_555
Na1 O5 2.655550 1_555
Na2 O1 2.317908 1_555
Na2 O10 2.354683 1_555
Na2 O2 2.470029 1_555
Na2 O6 2.531779 1_555
Na3 O0 2.317908 1_565
Na3 O11 2.354683 1_565
Na3 O3 2.470029 1_555
Na3 O7 2.531779 1_555
Na4 O29 2.330319 1_554
Na4 O11 2.402459 1_555
Na4 O6 2.495922 1_555
Na4 O0 2.519828 1_555
Na5 O28 2.330319 1_454
Na5 O10 2.402459 1_555
Na5 O7 2.495922 1_555
Na5 O1 2.519828 1_555
Na6 O8 2.336112 1_555
Na6 O5 2.351818 1_555
Na6 O29 2.450579 1_554
Na6 O31 2.469960 1_554
Na7 O9 2.336112 1_555
Na7 O4 2.351818 1_565
Na7 O28 2.450579 1_554
Na7 O30 2.469960 1_554
Na8 O31 2.389172 1_554
Na8 O8 2.416809 1_555
Na8 O2 2.424199 1_655
Na8 O10 2.439704 1_655
Na9 O30 2.389172 1_554
Na9 O9 2.416809 1_555
Na9 O3 2.424199 1_555
Na9 O11 2.439704 1_565
Na10 O16 2.389172 1_555
Na10 O7 2.416809 1_555
Na10 O13 2.424199 1_455
Na10 O4 2.439704 1_465
Na11 O17 2.389172 1_555
Na11 O6 2.416809 1_555
Na11 O12 2.424199 1_555
Na11 O5 2.439704 1_555
Na12 O6 2.336112 1_555
Na12 O10 2.351818 1_555
Na12 O18 2.450579 1_555
Na12 O17 2.469960 1_555
Na13 O7 2.336112 1_555
Na13 O11 2.351818 1_565
Na13 O19 2.450579 1_555
Na13 O16 2.469960 1_555
Na14 O19 2.330319 1_555
Na14 O5 2.402459 1_555
Na14 O9 2.495922 1_555
Na14 O14 2.519828 1_555
Na15 O18 2.330319 1_655
Na15 O4 2.402459 1_555
Na15 O8 2.495922 1_555
Na15 O15 2.519828 1_555
Na16 O14 2.317908 1_555
Na16 O5 2.354683 1_555
Na16 O12 2.470029 1_555
Na16 O8 2.531779 1_555
Na17 O15 2.317908 1_565
Na17 O4 2.354683 1_565
Na17 O13 2.470029 1_555
Na17 O9 2.531779 1_555
Na18 O17 2.317989 1_555
Na18 O7 2.376656 1_555
Na18 O13 2.444864 1_455
Na18 O10 2.655550 1_555
Na19 O16 2.317989 1_545
Na19 O6 2.376656 1_555
Na19 O12 2.444864 1_555
Na19 O11 2.655550 1_555
Na20 O14 2.317989 1_555
Na20 O24 2.376656 1_555
Na20 O18 2.444864 1_655
Na20 O21 2.655550 1_555
Na21 O15 2.317989 1_565
Na21 O25 2.376656 1_555
Na21 O19 2.444864 1_555
Na21 O20 2.655550 1_555
Na22 O16 2.317908 1_545
Na22 O26 2.354683 1_545
Na22 O18 2.470029 1_555
Na22 O22 2.531779 1_555
Na23 O17 2.317908 1_555
Na23 O27 2.354683 1_555
Na23 O19 2.470029 1_555
Na23 O23 2.531779 1_555
Na24 O12 2.330319 1_555
Na24 O27 2.402459 1_555
Na24 O22 2.495922 1_555
Na24 O17 2.519828 1_555
Na25 O13 2.330319 1_455
Na25 O26 2.402459 1_555
Na25 O23 2.495922 1_555
Na25 O16 2.519828 1_555
Na26 O24 2.336112 1_555
Na26 O20 2.351818 1_545
Na26 O12 2.450579 1_555
Na26 O15 2.469960 1_555
Na27 O25 2.336112 1_555
Na27 O21 2.351818 1_555
Na27 O13 2.450579 1_555
Na27 O14 2.469960 1_555
Na28 O14 2.389172 1_555
Na28 O25 2.416809 1_555
Na28 O19 2.424199 1_555
Na28 O27 2.439704 1_555
Na29 O15 2.389172 1_555
Na29 O24 2.416809 1_555
Na29 O18 2.424199 1_655
Na29 O26 2.439704 1_645
Na30 O1 2.389172 1_556
Na30 O23 2.416809 1_555
Na30 O28 2.424199 1_455
Na30 O21 2.439704 1_455
Na31 O0 2.389172 1_556
Na31 O22 2.416809 1_555
Na31 O29 2.424199 1_555
Na31 O20 2.439704 1_545
Na32 O22 2.336112 1_555
Na32 O26 2.351818 1_545
Na32 O2 2.450579 1_556
Na32 O0 2.469960 1_556
Na33 O23 2.336112 1_555
Na33 O27 2.351818 1_555
Na33 O3 2.450579 1_556
Na33 O1 2.469960 1_556
Na34 O3 2.330319 1_556
Na34 O20 2.402459 1_555
Na34 O25 2.495922 1_555
Na34 O30 2.519828 1_555
Na35 O2 2.330319 1_656
Na35 O21 2.402459 1_555
Na35 O24 2.495922 1_555
Na35 O31 2.519828 1_555
Na36 O30 2.317908 1_545
Na36 O20 2.354683 1_545
Na36 O29 2.470029 1_555
Na36 O24 2.531779 1_555
Na37 O31 2.317908 1_555
Na37 O21 2.354683 1_555
Na37 O28 2.470029 1_555
Na37 O25 2.531779 1_555
Na38 O0 2.317989 1_566
Na38 O23 2.376656 1_555
Na38 O28 2.444864 1_455
Na38 O26 2.655550 1_555
Na39 O1 2.317989 1_556
Na39 O22 2.376656 1_555
Na39 O29 2.444864 1_555
Na39 O27 2.655550 1_555
La0 O2 2.279727 1_555
La0 O6 2.295505 1_555
La0 O4 2.297771 1_455
La0 O0 2.303296 1_555
La1 O3 2.279727 1_555
La1 O7 2.295505 1_555
La1 O5 2.297771 1_555
La1 O1 2.303296 1_555
La2 O13 2.279727 1_555
La2 O9 2.295505 1_555
La2 O10 2.297771 1_655
La2 O14 2.303296 1_555
La3 O12 2.279727 1_555
La3 O8 2.295505 1_555
La3 O11 2.297771 1_555
La3 O15 2.303296 1_555
La4 O18 2.279727 1_555
La4 O22 2.295505 1_555
La4 O21 2.297771 1_455
La4 O17 2.303296 1_555
La5 O19 2.279727 1_555
La5 O23 2.295505 1_555
La5 O20 2.297771 1_555
La5 O16 2.303296 1_555
La6 O29 2.279727 1_555
La6 O24 2.295505 1_555
La6 O27 2.297771 1_555
La6 O31 2.303296 1_555
La7 O28 2.279727 1_555
La7 O25 2.295505 1_555
La7 O26 2.297771 1_655
La7 O30 2.303296 1_555
