# generated using pymatgen
data_Ba2SrI6
_symmetry_space_group_name_H-M   'P 1'
_cell_length_a   9.77497900
_cell_length_b   10.87627600
_cell_length_c   18.55454924
_cell_angle_alpha   56.24520990
_cell_angle_beta   90.00000000
_cell_angle_gamma   90.00000000
_symmetry_Int_Tables_number   1
_chemical_formula_structural   Ba2SrI6
_chemical_formula_sum   'Ba8 Sr4 I24'
_cell_volume   1640.09339696
_cell_formula_units_Z   4
loop_
 _symmetry_equiv_pos_site_id
 _symmetry_equiv_pos_as_xyz
  1  'x, y, z'
loop_
 _atom_site_type_symbol
 _atom_site_label
 _atom_site_symmetry_multiplicity
 _atom_site_fract_x
 _atom_site_fract_y
 _atom_site_fract_z
 _atom_site_occupancy
  Ba  Ba0  1  0.71123500  0.29652400  0.09117500  1
  Ba  Ba1  1  0.89850800  0.64234700  0.71339300  1
  Ba  Ba2  1  0.39850800  0.35765300  0.78660700  1
  Ba  Ba3  1  0.21123500  0.70347600  0.40882500  1
  Ba  Ba4  1  0.78876500  0.29652400  0.59117500  1
  Ba  Ba5  1  0.60149200  0.64234700  0.21339300  1
  Ba  Ba6  1  0.10149200  0.35765300  0.28660700  1
  Ba  Ba7  1  0.28876500  0.70347600  0.90882500  1
  Sr  Sr0  1  0.65034500  0.92910000  0.42671200  1
  Sr  Sr1  1  0.15034500  0.07090000  0.07328800  1
  Sr  Sr2  1  0.84965500  0.92910000  0.92671200  1
  Sr  Sr3  1  0.34965500  0.07090000  0.57328800  1
  I  I0  1  0.32884300  0.02763700  0.41090100  1
  I  I1  1  0.26266800  0.71868000  0.70729400  1
  I  I2  1  0.61160300  0.57636800  0.86428600  1
  I  I3  1  0.95632800  0.82434500  0.48882500  1
  I  I4  1  0.05612100  0.41594100  0.92581300  1
  I  I5  1  0.04034900  0.10124600  0.22668400  1
  I  I6  1  0.54034900  0.89875400  0.27331600  1
  I  I7  1  0.45632800  0.17565500  0.01117500  1
  I  I8  1  0.55612100  0.58405900  0.57418700  1
  I  I9  1  0.11160300  0.42363200  0.63571400  1
  I  I10  1  0.76266800  0.28132000  0.79270600  1
  I  I11  1  0.82884300  0.97236300  0.08909900  1
  I  I12  1  0.17115700  0.02763700  0.91090100  1
  I  I13  1  0.23733200  0.71868000  0.20729400  1
  I  I14  1  0.88839700  0.57636800  0.36428600  1
  I  I15  1  0.44387900  0.41594100  0.42581300  1
  I  I16  1  0.54367200  0.82434500  0.98882500  1
  I  I17  1  0.45965100  0.10124600  0.72668400  1
  I  I18  1  0.95965100  0.89875400  0.77331600  1
  I  I19  1  0.94387900  0.58405900  0.07418700  1
  I  I20  1  0.04367200  0.17565500  0.51117500  1
  I  I21  1  0.38839700  0.42363200  0.13571400  1
  I  I22  1  0.73733200  0.28132000  0.29270600  1
  I  I23  1  0.67115700  0.97236300  0.58909900  1
loop_
_geom_bond_atom_site_label_1
_geom_bond_atom_site_label_2
_geom_bond_distance
_geom_bond_site_symmetry_2
Ba0 I7 3.508367 1_555
Ba0 I22 3.658928 1_555
Ba0 I2 3.700789 1_554
Ba0 I21 3.717849 1_555
Ba0 I11 3.728851 1_545
Ba0 I19 3.735702 1_555
Ba0 I5 3.904859 1_655
Ba0 I6 4.084153 1_545
Ba0 I4 4.247085 1_654
Ba1 I3 3.526162 1_555
Ba1 I18 3.579979 1_555
Ba1 I10 3.595232 1_555
Ba1 I4 3.631280 1_655
Ba1 I1 3.642639 1_655
Ba1 I23 3.733888 1_555
Ba1 I2 3.739792 1_555
Ba1 I9 3.985604 1_655
Ba2 I7 3.526162 1_556
Ba2 I17 3.579979 1_555
Ba2 I1 3.595232 1_555
Ba2 I8 3.631280 1_555
Ba2 I10 3.642639 1_555
Ba2 I12 3.733888 1_555
Ba2 I9 3.739792 1_555
Ba2 I2 3.985604 1_555
Ba3 I3 3.508367 1_455
Ba3 I13 3.658928 1_555
Ba3 I9 3.700789 1_555
Ba3 I14 3.717849 1_455
Ba3 I0 3.728851 1_565
Ba3 I15 3.735702 1_555
Ba3 I6 3.904859 1_555
Ba3 I5 4.084153 1_565
Ba3 I8 4.247085 1_555
Ba4 I20 3.508367 1_655
Ba4 I10 3.658928 1_555
Ba4 I14 3.700789 1_555
Ba4 I9 3.717849 1_655
Ba4 I23 3.728851 1_545
Ba4 I8 3.735702 1_555
Ba4 I17 3.904859 1_555
Ba4 I18 4.084153 1_545
Ba4 I15 4.247085 1_555
Ba5 I16 3.526162 1_554
Ba5 I6 3.579979 1_555
Ba5 I22 3.595232 1_555
Ba5 I15 3.631280 1_555
Ba5 I13 3.642639 1_555
Ba5 I11 3.733888 1_555
Ba5 I14 3.739792 1_555
Ba5 I21 3.985604 1_555
Ba6 I20 3.526162 1_555
Ba6 I5 3.579979 1_555
Ba6 I13 3.595232 1_555
Ba6 I19 3.631280 1_455
Ba6 I22 3.642639 1_455
Ba6 I0 3.733888 1_555
Ba6 I21 3.739792 1_555
Ba6 I14 3.985604 1_455
Ba7 I16 3.508367 1_555
Ba7 I1 3.658928 1_555
Ba7 I21 3.700789 1_556
Ba7 I2 3.717849 1_555
Ba7 I12 3.728851 1_565
Ba7 I4 3.735702 1_555
Ba7 I18 3.904859 1_455
Ba7 I17 4.084153 1_565
Ba7 I19 4.247085 1_456
I0 Sr0 3.280496 1_545
I0 Sr3 3.304025 1_555
I1 Sr3 3.315963 1_565
I3 Sr0 3.180105 1_555
I4 Sr1 3.317760 1_556
I5 Sr1 3.226415 1_555
I6 Sr0 3.226415 1_555
I7 Sr1 3.180105 1_555
I8 Sr0 3.317760 1_555
I10 Sr2 3.315963 1_545
I11 Sr1 3.280496 1_665
I11 Sr2 3.304025 1_554
I12 Sr2 3.280496 1_445
I12 Sr1 3.304025 1_556
I13 Sr1 3.315963 1_565
I15 Sr3 3.317760 1_555
I16 Sr2 3.180105 1_555
I17 Sr3 3.226415 1_555
I18 Sr2 3.226415 1_555
I19 Sr2 3.317760 1_554
I20 Sr3 3.180105 1_555
I22 Sr0 3.315963 1_545
I23 Sr3 3.280496 1_565
I23 Sr0 3.304025 1_555
