# generated using pymatgen
data_NaSb3O8
_symmetry_space_group_name_H-M   'P 1'
_cell_length_a   7.34385923
_cell_length_b   7.34385923
_cell_length_c   7.34385923
_cell_angle_alpha   121.43688860
_cell_angle_beta   118.71349999
_cell_angle_gamma   89.88602601
_symmetry_Int_Tables_number   1
_chemical_formula_structural   NaSb3O8
_chemical_formula_sum   'Na2 Sb6 O16'
_cell_volume   279.54754800
_cell_formula_units_Z   2
loop_
 _symmetry_equiv_pos_site_id
 _symmetry_equiv_pos_as_xyz
  1  'x, y, z'
loop_
 _atom_site_type_symbol
 _atom_site_label
 _atom_site_symmetry_multiplicity
 _atom_site_fract_x
 _atom_site_fract_y
 _atom_site_fract_z
 _atom_site_occupancy
  Na  Na0  1  0.75000000  0.00000000  0.75000000  1
  Na  Na1  1  0.25000000  0.00000000  0.25000000  1
  Sb  Sb0  1  0.25288900  0.01403500  0.76114600  1
  Sb  Sb1  1  0.24711100  0.50825700  0.26114600  1
  Sb  Sb2  1  0.25000000  0.50000000  0.75000000  1
  Sb  Sb3  1  0.75000000  0.50000000  0.25000000  1
  Sb  Sb4  1  0.75288900  0.49174300  0.73885400  1
  Sb  Sb5  1  0.74711100  0.98596500  0.23885400  1
  O  O0  1  0.06785800  0.16083400  0.50271300  1
  O  O1  1  0.65812100  0.16083400  0.09297600  1
  O  O2  1  0.43214200  0.43485500  0.59297600  1
  O  O3  1  0.84187900  0.43485500  0.00271300  1
  O  O4  1  0.42338000  0.30756500  0.88418500  1
  O  O5  1  0.07662000  0.46080500  0.38418500  1
  O  O6  1  0.66352200  0.15169900  0.48817700  1
  O  O7  1  0.83647800  0.82465600  0.98817700  1
  O  O8  1  0.16352200  0.17534400  0.01182300  1
  O  O9  1  0.33647800  0.84830100  0.51182300  1
  O  O10  1  0.92338000  0.53919500  0.61581500  1
  O  O11  1  0.57662000  0.69243500  0.11581500  1
  O  O12  1  0.15812100  0.56514500  0.99728700  1
  O  O13  1  0.34187900  0.83916600  0.90702400  1
  O  O14  1  0.56785800  0.56514500  0.40702400  1
  O  O15  1  0.93214200  0.83916600  0.49728700  1
loop_
_geom_bond_atom_site_label_1
_geom_bond_atom_site_label_2
_geom_bond_distance
_geom_bond_site_symmetry_2
Na0 O7 2.529793 1_545
Na0 O8 2.529799 1_656
Na0 O9 2.529800 1_545
Na0 O6 2.529800 1_555
Na0 O1 2.592510 1_556
Na0 O15 2.592510 1_545
Na0 O14 2.592510 1_545
Na0 O3 2.592510 1_556
Na1 O8 2.529793 1_555
Na1 O7 2.529799 1_444
Na1 O9 2.529800 1_545
Na1 O6 2.529800 1_555
Na1 O12 2.592510 1_544
Na1 O2 2.592510 1_555
Na1 O0 2.592510 1_555
Na1 O13 2.592510 1_544
O0 Sb5 1.995757 1_445
O0 Sb2 2.062039 1_555
O0 Sb0 2.502230 1_555
O1 Sb5 1.995757 1_545
O1 Sb3 2.062039 1_555
O1 Sb0 2.502230 1_554
O2 Sb4 1.995757 1_555
O2 Sb2 2.062039 1_555
O2 Sb1 2.502230 1_555
O3 Sb4 1.995757 1_554
O3 Sb3 2.062039 1_555
O3 Sb1 2.502230 1_655
O4 Sb0 1.980608 1_555
O4 Sb3 2.197589 1_556
O4 Sb2 2.197589 1_555
O5 Sb1 1.980608 1_555
O5 Sb2 2.197589 1_555
O5 Sb3 2.197589 1_455
O6 Sb5 1.990764 1_545
O6 Sb4 2.026348 1_555
O7 Sb4 1.990770 1_555
O7 Sb5 2.026348 1_556
O8 Sb1 1.990770 1_555
O8 Sb0 2.026348 1_554
O9 Sb0 1.990764 1_565
O9 Sb1 2.026348 1_555
O10 Sb4 1.980608 1_555
O10 Sb2 2.197589 1_655
O10 Sb3 2.197589 1_555
O11 Sb5 1.980608 1_555
O11 Sb2 2.197589 1_554
O11 Sb3 2.197589 1_555
O12 Sb1 1.995757 1_556
O12 Sb2 2.062039 1_555
O12 Sb4 2.502230 1_455
O13 Sb0 1.995757 1_565
O13 Sb2 2.062039 1_555
O13 Sb5 2.502230 1_556
O14 Sb1 1.995757 1_555
O14 Sb3 2.062039 1_555
O14 Sb4 2.502230 1_555
O15 Sb0 1.995757 1_665
O15 Sb3 2.062039 1_555
O15 Sb5 2.502230 1_555
