# generated using pymatgen
data_Li2CrPO4F
_symmetry_space_group_name_H-M   'P 1'
_cell_length_a   6.64179400
_cell_length_b   10.51695800
_cell_length_c   11.05740900
_cell_angle_alpha   90.00000000
_cell_angle_beta   90.00000000
_cell_angle_gamma   90.00000000
_symmetry_Int_Tables_number   1
_chemical_formula_structural   Li2CrPO4F
_chemical_formula_sum   'Li16 Cr8 P8 O32 F8'
_cell_volume   772.37625693
_cell_formula_units_Z   8
loop_
 _symmetry_equiv_pos_site_id
 _symmetry_equiv_pos_as_xyz
  1  'x, y, z'
loop_
 _atom_site_type_symbol
 _atom_site_label
 _atom_site_symmetry_multiplicity
 _atom_site_fract_x
 _atom_site_fract_y
 _atom_site_fract_z
 _atom_site_occupancy
  Li  Li0  1  0.75000000  0.02776200  0.27387300  1
  Li  Li1  1  0.25000000  0.23068300  0.08236600  1
  Li  Li2  1  0.52636000  0.24324900  0.33694300  1
  Li  Li3  1  0.97364000  0.24324900  0.33694300  1
  Li  Li4  1  0.02636000  0.25675100  0.83694300  1
  Li  Li5  1  0.47364000  0.25675100  0.83694300  1
  Li  Li6  1  0.75000000  0.26931700  0.58236600  1
  Li  Li7  1  0.25000000  0.47223800  0.77387300  1
  Li  Li8  1  0.75000000  0.52776200  0.22612700  1
  Li  Li9  1  0.25000000  0.73068300  0.41763400  1
  Li  Li10  1  0.52636000  0.74324900  0.16305700  1
  Li  Li11  1  0.97364000  0.74324900  0.16305700  1
  Li  Li12  1  0.02636000  0.75675100  0.66305700  1
  Li  Li13  1  0.47364000  0.75675100  0.66305700  1
  Li  Li14  1  0.75000000  0.76931700  0.91763400  1
  Li  Li15  1  0.25000000  0.97223800  0.72612700  1
  Cr  Cr0  1  0.00000000  0.00000000  0.00000000  1
  Cr  Cr1  1  0.50000000  0.00000000  0.00000000  1
  Cr  Cr2  1  0.00000000  0.00000000  0.50000000  1
  Cr  Cr3  1  0.50000000  0.00000000  0.50000000  1
  Cr  Cr4  1  0.00000000  0.50000000  0.50000000  1
  Cr  Cr5  1  0.50000000  0.50000000  0.50000000  1
  Cr  Cr6  1  0.00000000  0.50000000  0.00000000  1
  Cr  Cr7  1  0.50000000  0.50000000  0.00000000  1
  P  P0  1  0.75000000  0.02053800  0.74412400  1
  P  P1  1  0.75000000  0.24442400  0.07845700  1
  P  P2  1  0.25000000  0.25557600  0.57845700  1
  P  P3  1  0.25000000  0.47946200  0.24412400  1
  P  P4  1  0.75000000  0.52053800  0.75587600  1
  P  P5  1  0.75000000  0.74442400  0.42154300  1
  P  P6  1  0.25000000  0.75557600  0.92154300  1
  P  P7  1  0.25000000  0.97946200  0.25587600  1
  O  O0  1  0.25000000  0.03035200  0.12164200  1
  O  O1  1  0.05975600  0.03581000  0.31848900  1
  O  O2  1  0.44024400  0.03581000  0.31848900  1
  O  O3  1  0.25000000  0.10735200  0.55797900  1
  O  O4  1  0.75000000  0.16770000  0.74277500  1
  O  O5  1  0.55755900  0.19253900  0.01520100  1
  O  O6  1  0.94244100  0.19253900  0.01520100  1
  O  O7  1  0.75000000  0.21391600  0.21354900  1
  O  O8  1  0.25000000  0.28608400  0.71354900  1
  O  O9  1  0.05755900  0.30746100  0.51520100  1
  O  O10  1  0.44244100  0.30746100  0.51520100  1
  O  O11  1  0.25000000  0.33230000  0.24277500  1
  O  O12  1  0.75000000  0.39264800  0.05797900  1
  O  O13  1  0.55975600  0.46419000  0.81848900  1
  O  O14  1  0.94024400  0.46419000  0.81848900  1
  O  O15  1  0.75000000  0.46964800  0.62164200  1
  O  O16  1  0.25000000  0.53035200  0.37835800  1
  O  O17  1  0.05975600  0.53581000  0.18151100  1
  O  O18  1  0.44024400  0.53581000  0.18151100  1
  O  O19  1  0.25000000  0.60735200  0.94202100  1
  O  O20  1  0.75000000  0.66770000  0.75722500  1
  O  O21  1  0.55755900  0.69253900  0.48479900  1
  O  O22  1  0.94244100  0.69253900  0.48479900  1
  O  O23  1  0.75000000  0.71391600  0.28645100  1
  O  O24  1  0.25000000  0.78608400  0.78645100  1
  O  O25  1  0.05755900  0.80746100  0.98479900  1
  O  O26  1  0.44244100  0.80746100  0.98479900  1
  O  O27  1  0.25000000  0.83230000  0.25722500  1
  O  O28  1  0.75000000  0.89264800  0.44202100  1
  O  O29  1  0.55975600  0.96419000  0.68151100  1
  O  O30  1  0.94024400  0.96419000  0.68151100  1
  O  O31  1  0.75000000  0.96964800  0.87835800  1
  F  F0  1  0.25000000  0.06938800  0.86947200  1
  F  F1  1  0.75000000  0.15071200  0.44984200  1
  F  F2  1  0.25000000  0.34928800  0.94984200  1
  F  F3  1  0.75000000  0.43061200  0.36947200  1
  F  F4  1  0.25000000  0.56938800  0.63052800  1
  F  F5  1  0.75000000  0.65071200  0.05015800  1
  F  F6  1  0.25000000  0.84928800  0.55015800  1
  F  F7  1  0.75000000  0.93061200  0.13052800  1
loop_
_geom_bond_atom_site_label_1
_geom_bond_atom_site_label_2
_geom_bond_distance
_geom_bond_site_symmetry_2
Li0 O7 2.068285 1_555
Li0 O1 2.117351 1_655
Li0 O2 2.117351 1_555
Li0 O28 2.340114 1_545
Li1 O11 2.070788 1_555
Li1 O0 2.151167 1_555
Li1 O6 2.210269 1_455
Li1 O5 2.210269 1_555
Li2 O7 2.040375 1_555
Li2 O10 2.156812 1_555
Li2 O2 2.264570 1_555
Li2 O11 2.308784 1_555
Li3 O7 2.040375 1_555
Li3 O9 2.156812 1_655
Li3 O1 2.264570 1_655
Li3 O11 2.308784 1_655
Li4 O8 2.040375 1_555
Li4 O6 2.156812 1_456
Li4 O14 2.264570 1_455
Li4 O4 2.308784 1_455
Li5 O8 2.040375 1_555
Li5 O5 2.156812 1_556
Li5 O13 2.264570 1_555
Li5 O4 2.308784 1_555
Li6 O4 2.070788 1_555
Li6 O15 2.151167 1_555
Li6 O9 2.210269 1_655
Li6 O10 2.210269 1_555
Li7 O8 2.068285 1_555
Li7 O14 2.117351 1_455
Li7 O13 2.117351 1_555
Li7 O19 2.340114 1_555
Li8 O23 2.068285 1_555
Li8 O18 2.117351 1_555
Li8 O17 2.117351 1_655
Li8 O12 2.340114 1_555
Li9 O27 2.070788 1_555
Li9 O16 2.151167 1_555
Li9 O21 2.210269 1_555
Li9 O22 2.210269 1_455
Li10 O23 2.040375 1_555
Li10 O26 2.156812 1_554
Li10 O18 2.264570 1_555
Li10 O27 2.308784 1_555
Li11 O23 2.040375 1_555
Li11 O25 2.156812 1_654
Li11 O17 2.264570 1_655
Li11 O27 2.308784 1_655
Li12 O24 2.040375 1_555
Li12 O22 2.156812 1_455
Li12 O30 2.264570 1_455
Li12 O20 2.308784 1_455
Li13 O24 2.040375 1_555
Li13 O21 2.156812 1_555
Li13 O29 2.264570 1_555
Li13 O20 2.308784 1_555
Li14 O20 2.070788 1_555
Li14 O31 2.151167 1_555
Li14 O25 2.210269 1_655
Li14 O26 2.210269 1_555
Li15 O24 2.068285 1_555
Li15 O30 2.117351 1_455
Li15 O29 2.117351 1_555
Li15 O3 2.340114 1_565
Cr0 O6 2.067540 1_455
Cr0 O25 2.067540 1_544
Cr0 O31 2.160586 1_444
Cr0 O0 2.160586 1_555
Cr0 F0 2.317918 1_554
Cr0 F7 2.317918 1_445
Cr1 O5 2.067540 1_555
Cr1 O26 2.067540 1_544
Cr1 O0 2.160586 1_555
Cr1 O31 2.160586 1_544
Cr1 F0 2.317918 1_554
Cr1 F7 2.317918 1_545
Cr2 O1 2.080282 1_555
Cr2 O30 2.080282 1_445
Cr2 O28 2.107789 1_445
Cr2 O3 2.107789 1_555
Cr2 F6 2.361571 1_545
Cr2 F1 2.361571 1_455
Cr3 O2 2.080282 1_555
Cr3 O29 2.080282 1_545
Cr3 O28 2.107789 1_545
Cr3 O3 2.107789 1_555
Cr3 F6 2.361571 1_545
Cr3 F1 2.361571 1_555
Cr4 O22 2.067540 1_455
Cr4 O9 2.067540 1_555
Cr4 O15 2.160586 1_455
Cr4 O16 2.160586 1_555
Cr4 F3 2.317918 1_455
Cr4 F4 2.317918 1_555
Cr5 O10 2.067540 1_555
Cr5 O21 2.067540 1_555
Cr5 O16 2.160586 1_555
Cr5 O15 2.160586 1_555
Cr5 F3 2.317918 1_555
Cr5 F4 2.317918 1_555
Cr6 O17 2.080282 1_555
Cr6 O14 2.080282 1_454
Cr6 O19 2.107789 1_554
Cr6 O12 2.107789 1_455
Cr6 F5 2.361571 1_455
Cr6 F2 2.361571 1_554
Cr7 O13 2.080282 1_554
Cr7 O18 2.080282 1_555
Cr7 O19 2.107789 1_554
Cr7 O12 2.107789 1_555
Cr7 F5 2.361571 1_555
Cr7 F2 2.361571 1_554
O0 P7 1.577826 1_545
O1 P7 1.557917 1_545
O2 P7 1.557917 1_545
O3 P2 1.575225 1_555
O4 P0 1.547768 1_555
O5 P1 1.555847 1_555
O6 P1 1.555847 1_555
O7 P1 1.527837 1_555
O8 P2 1.527837 1_555
O9 P2 1.555847 1_555
O10 P2 1.555847 1_555
O11 P3 1.547768 1_555
O12 P1 1.575225 1_555
O13 P4 1.557917 1_555
O14 P4 1.557917 1_555
O15 P4 1.577826 1_555
O16 P3 1.577826 1_555
O17 P3 1.557917 1_555
O18 P3 1.557917 1_555
O19 P6 1.575225 1_555
O20 P4 1.547768 1_555
O21 P5 1.555847 1_555
O22 P5 1.555847 1_555
O23 P5 1.527837 1_555
O24 P6 1.527837 1_555
O25 P6 1.555847 1_555
O26 P6 1.555847 1_555
O27 P7 1.547768 1_555
O28 P5 1.575225 1_555
O29 P0 1.557917 1_565
O30 P0 1.557917 1_565
O31 P0 1.577826 1_565
F0 Li15 1.885794 1_545
F0 Li5 2.493697 1_555
F0 Li4 2.493697 1_555
F1 Li6 1.924378 1_555
F1 Li2 2.170688 1_555
F1 Li3 2.170688 1_555
F1 Li0 2.336234 1_555
F2 Li1 1.924378 1_556
F2 Li4 2.170688 1_555
F2 Li5 2.170688 1_555
F2 Li7 2.336234 1_555
F3 Li8 1.885794 1_555
F3 Li2 2.493697 1_555
F3 Li3 2.493697 1_555
F4 Li7 1.885794 1_555
F4 Li13 2.493697 1_555
F4 Li12 2.493697 1_555
F5 Li14 1.924378 1_554
F5 Li10 2.170688 1_555
F5 Li11 2.170688 1_555
F5 Li8 2.336234 1_555
F6 Li9 1.924378 1_555
F6 Li13 2.170688 1_555
F6 Li12 2.170688 1_555
F6 Li15 2.336234 1_555
F7 Li0 1.885794 1_565
F7 Li11 2.493697 1_555
F7 Li10 2.493697 1_555
