# generated using pymatgen
data_LiCo5O8
_symmetry_space_group_name_H-M   'P 1'
_cell_length_a   8.11380900
_cell_length_b   8.11380900
_cell_length_c   8.11380900
_cell_angle_alpha   90.00000000
_cell_angle_beta   90.00000000
_cell_angle_gamma   90.00000000
_symmetry_Int_Tables_number   1
_chemical_formula_structural   LiCo5O8
_chemical_formula_sum   'Li4 Co20 O32'
_cell_volume   534.16366183
_cell_formula_units_Z   4
loop_
 _symmetry_equiv_pos_site_id
 _symmetry_equiv_pos_as_xyz
  1  'x, y, z'
loop_
 _atom_site_type_symbol
 _atom_site_label
 _atom_site_symmetry_multiplicity
 _atom_site_fract_x
 _atom_site_fract_y
 _atom_site_fract_z
 _atom_site_occupancy
  Li  Li0  1  0.12500000  0.87500000  0.37500000  1
  Li  Li1  1  0.37500000  0.12500000  0.87500000  1
  Li  Li2  1  0.62500000  0.62500000  0.62500000  1
  Li  Li3  1  0.87500000  0.37500000  0.12500000  1
  Co  Co0  1  0.00008800  0.00008800  0.00008800  1
  Co  Co1  1  0.99991200  0.50008800  0.49991200  1
  Co  Co2  1  0.12536600  0.12463400  0.62500000  1
  Co  Co3  1  0.12463400  0.62500000  0.12536600  1
  Co  Co4  1  0.12500000  0.37463400  0.87536600  1
  Co  Co5  1  0.24991200  0.24991200  0.24991200  1
  Co  Co6  1  0.25008800  0.75008800  0.74991200  1
  Co  Co7  1  0.37536600  0.37500000  0.62536600  1
  Co  Co8  1  0.37500000  0.62536600  0.37536600  1
  Co  Co9  1  0.37463400  0.87536600  0.12500000  1
  Co  Co10  1  0.49991200  0.99991200  0.50008800  1
  Co  Co11  1  0.50008800  0.49991200  0.99991200  1
  Co  Co12  1  0.62500000  0.12536600  0.12463400  1
  Co  Co13  1  0.62536600  0.37536600  0.37500000  1
  Co  Co14  1  0.62463400  0.87500000  0.87463400  1
  Co  Co15  1  0.74991200  0.25008800  0.75008800  1
  Co  Co16  1  0.75008800  0.74991200  0.25008800  1
  Co  Co17  1  0.87536600  0.12500000  0.37463400  1
  Co  Co18  1  0.87463400  0.62463400  0.87500000  1
  Co  Co19  1  0.87500000  0.87463400  0.62463400  1
  O  O0  1  0.12860500  0.39099500  0.10676400  1
  O  O1  1  0.13801300  0.36198700  0.63801300  1
  O  O2  1  0.14323600  0.85900500  0.12139500  1
  O  O3  1  0.10676400  0.12860500  0.39099500  1
  O  O4  1  0.10900500  0.89323600  0.62860500  1
  O  O5  1  0.12139500  0.14323600  0.85900500  1
  O  O6  1  0.14099500  0.62139500  0.35676400  1
  O  O7  1  0.11198700  0.61198700  0.88801300  1
  O  O8  1  0.39099500  0.10676400  0.12860500  1
  O  O9  1  0.38801300  0.38801300  0.38801300  1
  O  O10  1  0.35676400  0.14099500  0.62139500  1
  O  O11  1  0.35900500  0.37860500  0.85676400  1
  O  O12  1  0.36198700  0.63801300  0.13801300  1
  O  O13  1  0.37860500  0.85676400  0.35900500  1
  O  O14  1  0.37139500  0.60900500  0.60676400  1
  O  O15  1  0.39323600  0.87139500  0.89099500  1
  O  O16  1  0.63801300  0.13801300  0.36198700  1
  O  O17  1  0.62139500  0.35676400  0.14099500  1
  O  O18  1  0.60676400  0.37139500  0.60900500  1
  O  O19  1  0.60900500  0.60676400  0.37139500  1
  O  O20  1  0.62860500  0.10900500  0.89323600  1
  O  O21  1  0.64323600  0.64099500  0.87860500  1
  O  O22  1  0.61198700  0.88801300  0.11198700  1
  O  O23  1  0.64099500  0.87860500  0.64323600  1
  O  O24  1  0.85900500  0.12139500  0.14323600  1
  O  O25  1  0.88801300  0.11198700  0.61198700  1
  O  O26  1  0.85676400  0.35900500  0.37860500  1
  O  O27  1  0.89323600  0.62860500  0.10900500  1
  O  O28  1  0.87860500  0.64323600  0.64099500  1
  O  O29  1  0.89099500  0.39323600  0.87139500  1
  O  O30  1  0.87139500  0.89099500  0.39323600  1
  O  O31  1  0.86198700  0.86198700  0.86198700  1
loop_
_geom_bond_atom_site_label_1
_geom_bond_atom_site_label_2
_geom_bond_distance
_geom_bond_site_symmetry_2
Li0 O13 2.067094 1_555
Li0 O4 2.067094 1_555
Li0 O3 2.067094 1_565
Li0 O6 2.067094 1_555
Li0 O30 2.067094 1_455
Li0 O2 2.067094 1_555
Li1 O11 2.067094 1_555
Li1 O20 2.067094 1_555
Li1 O8 2.067094 1_556
Li1 O15 2.067094 1_545
Li1 O10 2.067094 1_555
Li1 O5 2.067094 1_555
Li2 O21 2.067094 1_555
Li2 O28 2.067094 1_555
Li2 O23 2.067094 1_555
Li2 O19 2.067094 1_555
Li2 O14 2.067094 1_555
Li2 O18 2.067094 1_555
Li3 O26 2.067094 1_555
Li3 O27 2.067094 1_555
Li3 O0 2.067094 1_655
Li3 O29 2.067094 1_554
Li3 O17 2.067094 1_555
Li3 O24 2.067094 1_555
Co0 O5 1.904779 1_554
Co0 O24 1.904779 1_455
Co0 O2 1.904779 1_545
Co0 O31 1.940806 1_444
Co1 O28 1.904779 1_555
Co1 O6 1.904779 1_655
Co1 O26 1.904779 1_555
Co1 O1 1.940806 1_655
Co2 O10 1.882434 1_555
Co2 O4 1.882434 1_545
Co2 O5 1.904934 1_555
Co2 O3 1.904934 1_555
Co2 O1 1.931457 1_555
Co2 O25 1.931457 1_455
Co3 O6 1.882434 1_555
Co3 O27 1.882434 1_455
Co3 O2 1.904934 1_555
Co3 O0 1.904934 1_555
Co3 O12 1.931457 1_555
Co3 O7 1.931457 1_554
Co4 O5 1.882434 1_555
Co4 O0 1.882434 1_556
Co4 O11 1.904934 1_555
Co4 O29 1.904934 1_455
Co4 O1 1.931457 1_555
Co4 O7 1.931457 1_555
Co5 O3 1.904779 1_555
Co5 O8 1.904779 1_555
Co5 O0 1.904779 1_555
Co5 O9 1.940806 1_555
Co6 O14 1.904779 1_555
Co6 O4 1.904779 1_555
Co6 O15 1.904779 1_555
Co6 O7 1.940806 1_555
Co7 O18 1.882434 1_555
Co7 O11 1.882434 1_555
Co7 O14 1.904934 1_555
Co7 O10 1.904934 1_555
Co7 O1 1.931457 1_555
Co7 O9 1.931457 1_555
Co8 O14 1.882434 1_555
Co8 O13 1.882434 1_555
Co8 O19 1.904934 1_555
Co8 O6 1.904934 1_555
Co8 O12 1.931457 1_555
Co8 O9 1.931457 1_555
Co9 O2 1.882434 1_555
Co9 O8 1.882434 1_565
Co9 O13 1.904934 1_555
Co9 O15 1.904934 1_554
Co9 O12 1.931457 1_555
Co9 O22 1.931457 1_555
Co10 O23 1.904779 1_555
Co10 O10 1.904779 1_565
Co10 O13 1.904779 1_555
Co10 O16 1.940806 1_565
Co11 O21 1.904779 1_555
Co11 O17 1.904779 1_556
Co11 O11 1.904779 1_555
Co11 O12 1.940806 1_556
Co12 O17 1.882434 1_555
Co12 O20 1.882434 1_554
Co12 O24 1.904934 1_555
Co12 O8 1.904934 1_555
Co12 O16 1.931457 1_555
Co12 O22 1.931457 1_545
Co13 O19 1.882434 1_555
Co13 O26 1.882434 1_555
Co13 O18 1.904934 1_555
Co13 O17 1.904934 1_555
Co13 O16 1.931457 1_555
Co13 O9 1.931457 1_555
Co14 O23 1.882434 1_555
Co14 O15 1.882434 1_555
Co14 O20 1.904934 1_565
Co14 O21 1.904934 1_555
Co14 O31 1.931457 1_555
Co14 O22 1.931457 1_556
Co15 O18 1.904779 1_555
Co15 O20 1.904779 1_555
Co15 O29 1.904779 1_555
Co15 O25 1.940806 1_555
Co16 O19 1.904779 1_555
Co16 O27 1.904779 1_555
Co16 O30 1.904779 1_555
Co16 O22 1.940806 1_555
Co17 O24 1.882434 1_555
Co17 O3 1.882434 1_655
Co17 O26 1.904934 1_555
Co17 O30 1.904934 1_545
Co17 O16 1.931457 1_555
Co17 O25 1.931457 1_555
Co18 O21 1.882434 1_555
Co18 O29 1.882434 1_555
Co18 O27 1.904934 1_556
Co18 O28 1.904934 1_555
Co18 O7 1.931457 1_655
Co18 O31 1.931457 1_555
Co19 O28 1.882434 1_555
Co19 O30 1.882434 1_555
Co19 O4 1.904934 1_655
Co19 O23 1.904934 1_555
Co19 O31 1.931457 1_555
Co19 O25 1.931457 1_565
