# generated using pymatgen
data_CaGeO3
_symmetry_space_group_name_H-M   'P 1'
_cell_length_a   7.01354428
_cell_length_b   7.01354428
_cell_length_c   10.99971611
_cell_angle_alpha   71.99172610
_cell_angle_beta   71.99172610
_cell_angle_gamma   60.20347937
_symmetry_Int_Tables_number   1
_chemical_formula_structural   CaGeO3
_chemical_formula_sum   'Ca6 Ge6 O18'
_cell_volume   438.53840448
_cell_formula_units_Z   6
loop_
 _symmetry_equiv_pos_site_id
 _symmetry_equiv_pos_as_xyz
  1  'x, y, z'
loop_
 _atom_site_type_symbol
 _atom_site_label
 _atom_site_symmetry_multiplicity
 _atom_site_fract_x
 _atom_site_fract_y
 _atom_site_fract_z
 _atom_site_occupancy
  Ca  Ca0  1  0.00000000  0.50000000  0.50000000  1
  Ca  Ca1  1  0.32873500  0.84529100  0.50063500  1
  Ca  Ca2  1  0.15470900  0.67126500  0.99936500  1
  Ca  Ca3  1  0.84529100  0.32873500  0.00063500  1
  Ca  Ca4  1  0.67126500  0.15470900  0.49936500  1
  Ca  Ca5  1  0.50000000  0.00000000  0.00000000  1
  Ge  Ge0  1  0.58088600  0.68712600  0.75486500  1
  Ge  Ge1  1  0.85220400  0.14779600  0.75000000  1
  Ge  Ge2  1  0.68712600  0.58088600  0.25486500  1
  Ge  Ge3  1  0.31287400  0.41911400  0.74513500  1
  Ge  Ge4  1  0.14779600  0.85220400  0.25000000  1
  Ge  Ge5  1  0.41911400  0.31287400  0.24513500  1
  O  O0  1  0.63165800  0.83201900  0.60014000  1
  O  O1  1  0.52919700  0.72113600  0.91344800  1
  O  O2  1  0.82767500  0.41807100  0.75192600  1
  O  O3  1  0.83201900  0.63165800  0.10014000  1
  O  O4  1  0.72113600  0.52919700  0.41344800  1
  O  O5  1  0.99716100  0.10953000  0.59456800  1
  O  O6  1  0.33563700  0.66436300  0.75000000  1
  O  O7  1  0.89047000  0.00283900  0.90543200  1
  O  O8  1  0.41807100  0.82767500  0.25192600  1
  O  O9  1  0.58192900  0.17232500  0.74807400  1
  O  O10  1  0.10953000  0.99716100  0.09456800  1
  O  O11  1  0.66436300  0.33563700  0.25000000  1
  O  O12  1  0.00283900  0.89047000  0.40543200  1
  O  O13  1  0.27886400  0.47080300  0.58655200  1
  O  O14  1  0.16798100  0.36834200  0.89986000  1
  O  O15  1  0.17232500  0.58192900  0.24807400  1
  O  O16  1  0.47080300  0.27886400  0.08655200  1
  O  O17  1  0.36834200  0.16798100  0.39986000  1
loop_
_geom_bond_atom_site_label_1
_geom_bond_atom_site_label_2
_geom_bond_distance
_geom_bond_site_symmetry_2
Ca0 O13 2.325148 1_555
Ca0 O4 2.325148 1_455
Ca0 O5 2.619592 1_455
Ca0 O12 2.619592 1_555
Ca0 O15 2.665486 1_555
Ca0 O2 2.665486 1_455
Ca0 O17 2.675352 1_555
Ca0 O0 2.675352 1_455
Ca1 O17 2.304614 1_565
Ca1 O5 2.307637 1_465
Ca1 O0 2.626537 1_555
Ca1 O8 2.638989 1_555
Ca1 O12 2.641290 1_555
Ca1 O6 2.646743 1_555
Ca1 O4 2.650975 1_555
Ca1 O13 2.662291 1_555
Ca2 O3 2.304614 1_456
Ca2 O7 2.307637 1_465
Ca2 O14 2.626537 1_555
Ca2 O15 2.638989 1_556
Ca2 O10 2.641290 1_556
Ca2 O6 2.646743 1_555
Ca2 O16 2.650975 1_556
Ca2 O1 2.662291 1_555
Ca3 O14 2.304614 1_654
Ca3 O10 2.307637 1_645
Ca3 O3 2.626537 1_555
Ca3 O2 2.638989 1_554
Ca3 O7 2.641290 1_554
Ca3 O11 2.646743 1_555
Ca3 O1 2.650975 1_554
Ca3 O16 2.662291 1_555
Ca4 O0 2.304614 1_545
Ca4 O12 2.307637 1_645
Ca4 O17 2.626537 1_555
Ca4 O9 2.638989 1_555
Ca4 O5 2.641290 1_555
Ca4 O11 2.646743 1_555
Ca4 O13 2.650975 1_555
Ca4 O4 2.662291 1_555
Ca5 O16 2.325148 1_555
Ca5 O1 2.325148 1_544
Ca5 O10 2.619592 1_545
Ca5 O7 2.619592 1_554
Ca5 O9 2.665486 1_554
Ca5 O8 2.665486 1_545
Ca5 O14 2.675352 1_554
Ca5 O3 2.675352 1_545
Ge0 O0 1.723832 1_555
Ge0 O1 1.735358 1_555
Ge0 O2 1.820675 1_555
Ge0 O6 1.822659 1_555
Ge1 O7 1.722362 1_555
Ge1 O5 1.722362 1_555
Ge1 O2 1.822572 1_555
Ge1 O9 1.822572 1_555
Ge2 O3 1.723832 1_555
Ge2 O4 1.735358 1_555
Ge2 O8 1.820675 1_555
Ge2 O11 1.822659 1_555
Ge3 O14 1.723832 1_555
Ge3 O13 1.735358 1_555
Ge3 O9 1.820675 1_555
Ge3 O6 1.822659 1_555
Ge4 O12 1.722362 1_555
Ge4 O10 1.722362 1_555
Ge4 O8 1.822572 1_555
Ge4 O15 1.822572 1_555
Ge5 O17 1.723832 1_555
Ge5 O16 1.735358 1_555
Ge5 O15 1.820675 1_555
Ge5 O11 1.822659 1_555
