# generated using pymatgen
data_LiFeF4
_symmetry_space_group_name_H-M   'P 1'
_cell_length_a   7.95013778
_cell_length_b   7.95013778
_cell_length_c   12.54811658
_cell_angle_alpha   60.12777235
_cell_angle_beta   60.12777235
_cell_angle_gamma   28.60715206
_symmetry_Int_Tables_number   1
_chemical_formula_structural   LiFeF4
_chemical_formula_sum   'Li4 Fe4 F16'
_cell_volume   325.73465956
_cell_formula_units_Z   4
loop_
 _symmetry_equiv_pos_site_id
 _symmetry_equiv_pos_as_xyz
  1  'x, y, z'
loop_
 _atom_site_type_symbol
 _atom_site_label
 _atom_site_symmetry_multiplicity
 _atom_site_fract_x
 _atom_site_fract_y
 _atom_site_fract_z
 _atom_site_occupancy
  Li  Li0  1  0.19392400  0.19392400  0.83748200  1
  Li  Li1  1  0.34394300  0.34394300  0.32249300  1
  Li  Li2  1  0.65605700  0.65605700  0.67750700  1
  Li  Li3  1  0.80607600  0.80607600  0.16251800  1
  Fe  Fe0  1  0.96482900  0.96482900  0.86674500  1
  Fe  Fe1  1  0.86210200  0.86210200  0.63905400  1
  Fe  Fe2  1  0.13789800  0.13789800  0.36094600  1
  Fe  Fe3  1  0.03517100  0.03517100  0.13325500  1
  F  F0  1  0.48699800  0.48699800  0.84409300  1
  F  F1  1  0.92718200  0.92718200  0.74075200  1
  F  F2  1  0.83187700  0.83187700  0.99870300  1
  F  F3  1  0.35383700  0.35383700  0.65556400  1
  F  F4  1  0.72503000  0.72503000  0.78595500  1
  F  F5  1  0.79899700  0.79899700  0.54408100  1
  F  F6  1  0.88529500  0.88529500  0.25594500  1
  F  F7  1  0.11470500  0.11470500  0.74405500  1
  F  F8  1  0.20100300  0.20100300  0.45591900  1
  F  F9  1  0.27497000  0.27497000  0.21404500  1
  F  F10  1  0.64616300  0.64616300  0.34443600  1
  F  F11  1  0.16812300  0.16812300  0.00129700  1
  F  F12  1  0.00000000  0.00000000  0.50000000  1
  F  F13  1  0.07281800  0.07281800  0.25924800  1
  F  F14  1  0.51300200  0.51300200  0.15590700  1
  F  F15  1  0.00000000  0.00000000  0.00000000  1
loop_
_geom_bond_atom_site_label_1
_geom_bond_atom_site_label_2
_geom_bond_distance
_geom_bond_site_symmetry_2
F0 Fe0 1.988861 1_545
F0 Fe0 1.988861 1_455
F0 Li2 2.357324 1_555
F1 Fe0 1.943872 1_555
F1 Fe1 1.987289 1_555
F2 Fe0 1.857693 1_555
F2 Li3 1.882384 1_556
F3 Fe1 1.972290 1_545
F3 Fe1 1.972290 1_455
F3 Li0 2.345119 1_555
F4 Fe1 1.963693 1_555
F4 Li0 2.046241 1_565
F4 Li0 2.046241 1_655
F4 Li2 2.113710 1_555
F5 Fe1 1.885923 1_555
F5 Li2 1.965416 1_555
F6 Fe3 2.011941 1_665
F6 Li3 2.082088 1_555
F6 Li1 2.101005 1_655
F6 Li1 2.101005 1_565
F7 Fe0 2.011941 1_445
F7 Li0 2.082088 1_555
F7 Li2 2.101005 1_545
F7 Li2 2.101005 1_455
F8 Fe2 1.885923 1_555
F8 Li1 1.965416 1_555
F9 Fe2 1.963693 1_555
F9 Li3 2.046241 1_545
F9 Li3 2.046241 1_455
F9 Li1 2.113710 1_555
F10 Fe2 1.972290 1_655
F10 Fe2 1.972290 1_565
F10 Li3 2.345119 1_555
F11 Fe3 1.857693 1_555
F11 Li0 1.882384 1_554
F12 Fe2 1.935883 1_555
F12 Fe1 1.935883 1_445
F13 Fe3 1.943872 1_555
F13 Fe2 1.987289 1_555
F14 Fe3 1.988861 1_565
F14 Fe3 1.988861 1_655
F14 Li1 2.357324 1_555
F15 Fe3 2.005252 1_555
F15 Fe0 2.005252 1_444
