# generated using pymatgen
data_Li5FeO4
_symmetry_space_group_name_H-M   'P 1'
_cell_length_a   9.56270400
_cell_length_b   5.24537500
_cell_length_c   8.56191299
_cell_angle_alpha   74.49859529
_cell_angle_beta   90.00000000
_cell_angle_gamma   90.00000000
_symmetry_Int_Tables_number   1
_chemical_formula_structural   Li5FeO4
_chemical_formula_sum   'Li20 Fe4 O16'
_cell_volume   413.84301430
_cell_formula_units_Z   4
loop_
 _symmetry_equiv_pos_site_id
 _symmetry_equiv_pos_as_xyz
  1  'x, y, z'
loop_
 _atom_site_type_symbol
 _atom_site_label
 _atom_site_symmetry_multiplicity
 _atom_site_fract_x
 _atom_site_fract_y
 _atom_site_fract_z
 _atom_site_occupancy
  Li  Li0  1  0.95457400  0.25006500  0.96053700  1
  Li  Li1  1  0.54542600  0.75006500  0.96053700  1
  Li  Li2  1  0.18669900  0.15769200  0.14185200  1
  Li  Li3  1  0.31330100  0.65769200  0.14185200  1
  Li  Li4  1  0.67853600  0.99811000  0.15152300  1
  Li  Li5  1  0.82146400  0.49811000  0.15152300  1
  Li  Li6  1  0.07381100  0.42544600  0.34482000  1
  Li  Li7  1  0.42618900  0.92544600  0.34482000  1
  Li  Li8  1  0.80298800  0.11968100  0.53686200  1
  Li  Li9  1  0.30298800  0.38031900  0.46313800  1
  Li  Li10  1  0.69701200  0.61968100  0.53686200  1
  Li  Li11  1  0.19701200  0.88031900  0.46313800  1
  Li  Li12  1  0.57381100  0.07455400  0.65518000  1
  Li  Li13  1  0.92618900  0.57455400  0.65518000  1
  Li  Li14  1  0.17853600  0.50189000  0.84847700  1
  Li  Li15  1  0.32146400  0.00189000  0.84847700  1
  Li  Li16  1  0.68669900  0.34230800  0.85814800  1
  Li  Li17  1  0.81330100  0.84230800  0.85814800  1
  Li  Li18  1  0.45457400  0.24993500  0.03946300  1
  Li  Li19  1  0.04542600  0.74993500  0.03946300  1
  Fe  Fe0  1  0.54730400  0.44275300  0.26828000  1
  Fe  Fe1  1  0.95269600  0.94275300  0.26828000  1
  Fe  Fe2  1  0.04730400  0.05724700  0.73172000  1
  Fe  Fe3  1  0.45269600  0.55724700  0.73172000  1
  O  O0  1  0.64816900  0.37191900  0.08922100  1
  O  O1  1  0.85183100  0.87191900  0.08922100  1
  O  O2  1  0.36302400  0.28807100  0.25880200  1
  O  O3  1  0.99506800  0.31088700  0.17629600  1
  O  O4  1  0.13697600  0.78807100  0.25880200  1
  O  O5  1  0.50493200  0.81088700  0.17629600  1
  O  O6  1  0.63727900  0.31952400  0.46555400  1
  O  O7  1  0.86272100  0.81952400  0.46555400  1
  O  O8  1  0.13727900  0.18047600  0.53444600  1
  O  O9  1  0.36272100  0.68047600  0.53444600  1
  O  O10  1  0.49506800  0.18911300  0.82370400  1
  O  O11  1  0.86302400  0.21192900  0.74119800  1
  O  O12  1  0.00493200  0.68911300  0.82370400  1
  O  O13  1  0.63697600  0.71192900  0.74119800  1
  O  O14  1  0.14816900  0.12808100  0.91077900  1
  O  O15  1  0.35183100  0.62808100  0.91077900  1
loop_
_geom_bond_atom_site_label_1
_geom_bond_atom_site_label_2
_geom_bond_distance
_geom_bond_site_symmetry_2
Li0 O3 1.994821 1_556
Li0 O14 2.040562 1_655
Li0 O11 2.129318 1_555
Li0 O1 2.223830 1_546
Li0 O12 2.337934 1_655
Li1 O5 1.994821 1_556
Li1 O15 2.040562 1_555
Li1 O13 2.129318 1_555
Li1 O0 2.223830 1_556
Li1 O10 2.337934 1_565
Li2 O4 1.987453 1_545
Li2 O3 2.053643 1_455
Li2 O14 2.058715 1_554
Li2 O2 2.163204 1_555
Li3 O2 1.987453 1_555
Li3 O5 2.053643 1_555
Li3 O15 2.058715 1_554
Li3 O4 2.163204 1_555
Li4 O5 1.911567 1_555
Li4 O0 1.911651 1_565
Li4 O1 1.912490 1_555
Li5 O3 1.911567 1_555
Li5 O1 1.911651 1_555
Li5 O0 1.912490 1_555
Li6 O3 1.863724 1_455
Li6 O8 1.881569 1_555
Li6 O4 1.943311 1_555
Li7 O5 1.863724 1_555
Li7 O9 1.881569 1_555
Li7 O2 1.943311 1_565
Li8 O6 1.908017 1_555
Li8 O7 1.921376 1_545
Li8 O11 2.019160 1_555
Li9 O8 1.908017 1_555
Li9 O9 1.921376 1_555
Li9 O2 2.019160 1_555
Li10 O7 1.908017 1_555
Li10 O6 1.921376 1_555
Li10 O13 2.019160 1_555
Li11 O9 1.908017 1_555
Li11 O8 1.921376 1_565
Li11 O4 2.019160 1_555
Li12 O10 1.863724 1_555
Li12 O6 1.881569 1_555
Li12 O13 1.943311 1_545
Li13 O12 1.863724 1_655
Li13 O7 1.881569 1_555
Li13 O11 1.943311 1_555
Li14 O12 1.911567 1_555
Li14 O14 1.911651 1_555
Li14 O15 1.912490 1_555
Li15 O10 1.911567 1_555
Li15 O15 1.911651 1_545
Li15 O14 1.912490 1_555
Li16 O13 1.987453 1_555
Li16 O10 2.053643 1_555
Li16 O0 2.058715 1_556
Li16 O11 2.163204 1_555
Li17 O11 1.987453 1_565
Li17 O12 2.053643 1_655
Li17 O1 2.058715 1_556
Li17 O13 2.163204 1_555
Li18 O10 1.994821 1_554
Li18 O0 2.040562 1_555
Li18 O2 2.129318 1_555
Li18 O15 2.223830 1_554
Li18 O5 2.337934 1_545
Li19 O12 1.994821 1_554
Li19 O1 2.040562 1_455
Li19 O4 2.129318 1_555
Li19 O14 2.223830 1_564
Li19 O3 2.337934 1_455
Fe0 O6 1.851323 1_555
Fe0 O5 1.923617 1_555
Fe0 O0 1.929566 1_555
Fe0 O2 1.950768 1_555
Fe1 O7 1.851323 1_555
Fe1 O3 1.923617 1_565
Fe1 O1 1.929566 1_555
Fe1 O4 1.950768 1_655
Fe2 O8 1.851323 1_555
Fe2 O12 1.923617 1_545
Fe2 O14 1.929566 1_555
Fe2 O11 1.950768 1_455
Fe3 O9 1.851323 1_555
Fe3 O10 1.923617 1_555
Fe3 O15 1.929566 1_555
Fe3 O13 1.950768 1_555
