# generated using pymatgen
data_Ge11N11O5
_symmetry_space_group_name_H-M   'P 1'
_cell_length_a   5.91523391
_cell_length_b   5.91523391
_cell_length_c   10.22390280
_cell_angle_alpha   73.18841846
_cell_angle_beta   73.18841846
_cell_angle_gamma   59.71164776
_symmetry_Int_Tables_number   1
_chemical_formula_structural   Ge11N11O5
_chemical_formula_sum   'Ge11 N11 O5'
_cell_volume   291.21983135
_cell_formula_units_Z   1
loop_
 _symmetry_equiv_pos_site_id
 _symmetry_equiv_pos_as_xyz
  1  'x, y, z'
loop_
 _atom_site_type_symbol
 _atom_site_label
 _atom_site_symmetry_multiplicity
 _atom_site_fract_x
 _atom_site_fract_y
 _atom_site_fract_z
 _atom_site_occupancy
  Ge  Ge0  1  0.68678500  0.18770900  0.43787600  1
  Ge  Ge1  1  0.19767700  0.68527200  0.93407000  1
  Ge  Ge2  1  0.68527200  0.19767700  0.93407000  1
  Ge  Ge3  1  0.61704500  0.61704500  0.12605000  1
  Ge  Ge4  1  0.12366800  0.12366800  0.62712200  1
  Ge  Ge5  1  0.94339600  0.94339600  0.18975900  1
  Ge  Ge6  1  0.18984000  0.18984000  0.93857300  1
  Ge  Ge7  1  0.43612000  0.43612000  0.68859700  1
  Ge  Ge8  1  0.68729600  0.68729600  0.43546300  1
  Ge  Ge9  1  0.25139000  0.25139000  0.25009600  1
  Ge  Ge10  1  0.18770900  0.68678500  0.43787600  1
  N  N0  1  0.78884600  0.32422300  0.56172700  1
  N  N1  1  0.32352500  0.32352500  0.56229900  1
  N  N2  1  0.05739600  0.05739600  0.82611900  1
  N  N3  1  0.55467000  0.55467000  0.32710300  1
  N  N4  1  0.82369400  0.28837900  0.05567900  1
  N  N5  1  0.28837900  0.82369400  0.05567900  1
  N  N6  1  0.04983900  0.58354900  0.31443200  1
  N  N7  1  0.32422300  0.78884600  0.56172700  1
  N  N8  1  0.58354900  0.04983900  0.31443200  1
  N  N9  1  0.05237500  0.05237500  0.31644300  1
  N  N10  1  0.31635600  0.31635600  0.05232100  1
  O  O0  1  0.54032600  0.10186400  0.82309000  1
  O  O1  1  0.82576200  0.82576200  0.05256400  1
  O  O2  1  0.54102800  0.54102800  0.81974900  1
  O  O3  1  0.82198400  0.82198400  0.53399300  1
  O  O4  1  0.10186400  0.54032600  0.82309000  1
loop_
_geom_bond_atom_site_label_1
_geom_bond_atom_site_label_2
_geom_bond_distance
_geom_bond_site_symmetry_2
Ge0 O3 1.940371 1_545
Ge0 N3 1.995982 1_555
Ge0 N9 2.033333 1_655
Ge0 N0 2.036008 1_555
Ge0 N1 2.037042 1_555
Ge0 N8 2.043135 1_555
Ge1 O2 1.916976 1_555
Ge1 O4 1.941298 1_555
Ge1 N5 1.980405 1_556
Ge1 N2 2.008475 1_565
Ge1 N10 2.033745 1_556
Ge1 O1 2.048084 1_456
Ge2 O2 1.916976 1_555
Ge2 O0 1.941298 1_555
Ge2 N4 1.980405 1_556
Ge2 N2 2.008475 1_655
Ge2 N10 2.033745 1_556
Ge2 O1 2.048084 1_546
Ge3 N5 1.922168 1_555
Ge3 N4 1.922168 1_555
Ge3 N3 1.938411 1_555
Ge3 O1 2.019259 1_555
Ge4 N2 1.918061 1_555
Ge4 N0 1.927200 1_455
Ge4 N7 1.927200 1_545
Ge4 N1 1.933330 1_555
Ge5 N9 1.973266 1_665
Ge5 N5 2.007637 1_655
Ge5 N4 2.007637 1_565
Ge5 N8 2.023590 1_565
Ge5 N6 2.023590 1_655
Ge5 O1 2.133871 1_555
Ge6 O4 1.953002 1_555
Ge6 O0 1.953002 1_555
Ge6 N10 2.011064 1_556
Ge6 N4 2.023455 1_456
Ge6 N5 2.023455 1_546
Ge6 N2 2.051969 1_555
Ge7 O4 1.966797 1_555
Ge7 O0 1.966797 1_555
Ge7 O2 1.979708 1_555
Ge7 N1 1.999232 1_555
Ge7 N7 2.002995 1_555
Ge7 N0 2.002995 1_555
Ge8 O3 1.962918 1_555
Ge8 N6 2.020772 1_655
Ge8 N8 2.020772 1_565
Ge8 N3 2.021040 1_555
Ge8 N0 2.045301 1_555
Ge8 N7 2.045301 1_555
Ge9 N10 1.906298 1_555
Ge9 N6 1.909337 1_555
Ge9 N8 1.909337 1_555
Ge9 N9 1.925072 1_555
Ge10 O3 1.940371 1_455
Ge10 N3 1.995982 1_555
Ge10 N9 2.033333 1_565
Ge10 N7 2.036008 1_555
Ge10 N1 2.037042 1_555
Ge10 N6 2.043135 1_555
