# generated using pymatgen
data_NbFe(PO4)2
_symmetry_space_group_name_H-M   'P 1'
_cell_length_a   10.15283217
_cell_length_b   6.16765100
_cell_length_c   4.99924650
_cell_angle_alpha   90.00000000
_cell_angle_beta   92.76473842
_cell_angle_gamma   90.00000000
_symmetry_Int_Tables_number   1
_chemical_formula_structural   NbFe(PO4)2
_chemical_formula_sum   'Nb2 Fe2 P4 O16'
_cell_volume   312.68405912
_cell_formula_units_Z   2
loop_
 _symmetry_equiv_pos_site_id
 _symmetry_equiv_pos_as_xyz
  1  'x, y, z'
loop_
 _atom_site_type_symbol
 _atom_site_label
 _atom_site_symmetry_multiplicity
 _atom_site_fract_x
 _atom_site_fract_y
 _atom_site_fract_z
 _atom_site_occupancy
  Nb  Nb0  1  0.22004300  0.75000000  0.44812300  1
  Nb  Nb1  1  0.77995700  0.25000000  0.55187700  1
  Fe  Fe0  1  0.27801400  0.25000000  0.95559200  1
  Fe  Fe1  1  0.72198600  0.75000000  0.04440800  1
  P  P0  1  0.09405500  0.25000000  0.42360900  1
  P  P1  1  0.40198800  0.75000000  0.89717800  1
  P  P2  1  0.59801200  0.25000000  0.10282200  1
  P  P3  1  0.90594500  0.75000000  0.57639100  1
  O  O0  1  0.05184800  0.75000000  0.67904900  1
  O  O1  1  0.11022700  0.25000000  0.72694100  1
  O  O2  1  0.16673500  0.04892300  0.29638500  1
  O  O3  1  0.16673500  0.45107700  0.29638500  1
  O  O4  1  0.32610300  0.94330300  0.74799400  1
  O  O5  1  0.32610300  0.55669700  0.74799400  1
  O  O6  1  0.37755000  0.75000000  0.19952800  1
  O  O7  1  0.45209900  0.25000000  0.14986300  1
  O  O8  1  0.54790100  0.75000000  0.85013700  1
  O  O9  1  0.62245000  0.25000000  0.80047200  1
  O  O10  1  0.67389700  0.05669700  0.25200600  1
  O  O11  1  0.67389700  0.44330300  0.25200600  1
  O  O12  1  0.83326500  0.54892300  0.70361500  1
  O  O13  1  0.83326500  0.95107700  0.70361500  1
  O  O14  1  0.88977300  0.75000000  0.27305900  1
  O  O15  1  0.94815200  0.25000000  0.32095100  1
loop_
_geom_bond_atom_site_label_1
_geom_bond_atom_site_label_2
_geom_bond_distance
_geom_bond_site_symmetry_2
Nb0 O3 2.056164 1_555
Nb0 O2 2.056164 1_565
Nb0 O6 2.072076 1_555
Nb0 O0 2.106903 1_555
Nb0 O5 2.161615 1_555
Nb0 O4 2.161615 1_555
Nb1 O13 2.056164 1_545
Nb1 O12 2.056164 1_555
Nb1 O9 2.072076 1_555
Nb1 O15 2.106903 1_555
Nb1 O10 2.161615 1_555
Nb1 O11 2.161615 1_555
Fe0 O7 1.975234 1_556
Fe0 O1 2.005179 1_555
Fe0 O5 2.223176 1_555
Fe0 O4 2.223176 1_545
Fe0 O3 2.429564 1_556
Fe0 O2 2.429564 1_556
Fe1 O8 1.975234 1_554
Fe1 O14 2.005179 1_555
Fe1 O10 2.223176 1_565
Fe1 O11 2.223176 1_555
Fe1 O13 2.429564 1_554
Fe1 O12 2.429564 1_554
O0 P3 1.544144 1_455
O1 P0 1.517400 1_555
O2 P0 1.591333 1_555
O3 P0 1.591333 1_555
O4 P1 1.586124 1_555
O5 P1 1.586124 1_555
O6 P1 1.543515 1_554
O7 P2 1.511142 1_555
O8 P1 1.511142 1_555
O9 P2 1.543515 1_556
O10 P2 1.586124 1_555
O11 P2 1.586124 1_555
O12 P3 1.591333 1_555
O13 P3 1.591333 1_555
O14 P3 1.517400 1_555
O15 P0 1.544144 1_655
