# generated using pymatgen
data_Li5V3P8O29
_symmetry_space_group_name_H-M   'P 1'
_cell_length_a   9.72873500
_cell_length_b   9.77884478
_cell_length_c   14.12689234
_cell_angle_alpha   89.14256241
_cell_angle_beta   89.40459452
_cell_angle_gamma   60.43465621
_symmetry_Int_Tables_number   1
_chemical_formula_structural   Li5V3P8O29
_chemical_formula_sum   'Li10 V6 P16 O58'
_cell_volume   1168.84119199
_cell_formula_units_Z   2
loop_
 _symmetry_equiv_pos_site_id
 _symmetry_equiv_pos_as_xyz
  1  'x, y, z'
loop_
 _atom_site_type_symbol
 _atom_site_label
 _atom_site_symmetry_multiplicity
 _atom_site_fract_x
 _atom_site_fract_y
 _atom_site_fract_z
 _atom_site_occupancy
  Li  Li0  1  0.23593900  0.09314500  0.55346500  1
  Li  Li1  1  0.10122100  0.65869900  0.55813300  1
  Li  Li2  1  0.23684300  0.65928900  0.06280000  1
  Li  Li3  1  0.66546000  0.09840500  0.06440000  1
  Li  Li4  1  0.67391500  0.22860900  0.55586900  1
  Li  Li5  1  0.32672800  0.90771000  0.94427600  1
  Li  Li6  1  0.76453800  0.33444400  0.94384500  1
  Li  Li7  1  0.90382800  0.33260100  0.43328900  1
  Li  Li8  1  0.00445800  0.99111000  0.00977400  1
  Li  Li9  1  0.02401200  0.95157900  0.49116300  1
  V  V0  1  0.43533700  0.56667200  0.25416800  1
  V  V1  1  0.56371400  0.43485100  0.74432800  1
  V  V2  1  0.43677200  0.00068400  0.75048800  1
  V  V3  1  0.56458800  0.99779500  0.25296900  1
  V  V4  1  0.00507300  0.43697800  0.24319600  1
  V  V5  1  0.99755200  0.56730300  0.75532100  1
  P  P0  1  0.08204100  0.21944400  0.83873900  1
  P  P1  1  0.21866000  0.08738000  0.34053200  1
  P  P2  1  0.08534500  0.68652400  0.34406500  1
  P  P3  1  0.33970700  0.33449600  0.13191600  1
  P  P4  1  0.32732800  0.33632100  0.63117600  1
  P  P5  1  0.22912200  0.68320600  0.84397200  1
  P  P6  1  0.30623200  0.77961600  0.66035000  1
  P  P7  1  0.68768200  0.08776000  0.84482100  1
  P  P8  1  0.30896700  0.91277300  0.15804100  1
  P  P9  1  0.68708600  0.22321800  0.34058700  1
  P  P10  1  0.77431900  0.31632200  0.15848900  1
  P  P11  1  0.67064800  0.66141700  0.36760100  1
  P  P12  1  0.66467200  0.66286700  0.86759900  1
  P  P13  1  0.91522000  0.31682100  0.65405900  1
  P  P14  1  0.78312600  0.91571200  0.66237400  1
  P  P15  1  0.91638900  0.78433600  0.16137800  1
  O  O0  1  0.99979000  0.23953800  0.56395100  1
  O  O1  1  0.07697300  0.25497400  0.33422700  1
  O  O2  1  0.21899100  0.98320200  0.06816400  1
  O  O3  1  0.25410800  0.08126600  0.84018500  1
  O  O4  1  0.07921300  0.38009200  0.82863600  1
  O  O5  1  0.19294600  0.32904500  0.17662900  1
  O  O6  1  0.08207500  0.53327100  0.33240100  1
  O  O7  1  0.01133700  0.80097400  0.08213000  1
  O  O8  1  0.08405600  0.65745600  0.83487100  1
  O  O9  1  0.31950600  0.19035500  0.67060800  1
  O  O10  1  0.37603000  0.08913800  0.32722400  1
  O  O11  1  0.18502300  0.48698000  0.67824800  1
  O  O12  1  0.33950500  0.34839400  0.02675900  1
  O  O13  1  0.31395200  0.35204400  0.52601900  1
  O  O14  1  0.33069800  0.48659500  0.17577000  1
  O  O15  1  0.52974800  0.08770900  0.82724000  1
  O  O16  1  0.49116400  0.18771300  0.17017600  1
  O  O17  1  0.25842700  0.65467100  0.33125400  1
  O  O18  1  0.21092100  0.80142500  0.75848600  1
  O  O19  1  0.20156100  0.79047900  0.58081900  1
  O  O20  1  0.22257400  0.76719500  0.93387500  1
  O  O21  1  0.38119300  0.52799200  0.82890800  1
  O  O22  1  0.48622700  0.32395200  0.66682100  1
  O  O23  1  0.34179300  0.73901600  0.16397200  1
  O  O24  1  0.53025000  0.38075200  0.32721500  1
  O  O25  1  0.65646200  0.08418900  0.33970600  1
  O  O26  1  0.20186400  0.99649800  0.24980600  1
  O  O27  1  0.20837400  0.00987900  0.43094700  1
  O  O28  1  0.80408000  0.00449700  0.58153600  1
  O  O29  1  0.34190000  0.91780600  0.65984900  1
  O  O30  1  0.46231800  0.62053700  0.66968600  1
  O  O31  1  0.65886700  0.25840600  0.83191400  1
  O  O32  1  0.52005300  0.66284200  0.32080100  1
  O  O33  1  0.61481200  0.46922100  0.17239400  1
  O  O34  1  0.77451600  0.22821500  0.07109700  1
  O  O35  1  0.77241500  0.22585200  0.42878100  1
  O  O36  1  0.79589700  0.20550600  0.25011600  1
  O  O37  1  0.74602400  0.33934400  0.65544600  1
  O  O38  1  0.51213600  0.81143900  0.82926900  1
  O  O39  1  0.46264900  0.91907100  0.16783700  1
  O  O40  1  0.67477300  0.51150100  0.82558800  1
  O  O41  1  0.67185100  0.65815100  0.97255900  1
  O  O42  1  0.66196800  0.65620300  0.47231900  1
  O  O43  1  0.81600700  0.51067100  0.32661000  1
  O  O44  1  0.62327600  0.92115700  0.66978200  1
  O  O45  1  0.67175700  0.80722400  0.32317600  1
  O  O46  1  0.91090700  0.34927800  0.15877600  1
  O  O47  1  0.00804400  0.19992900  0.74091500  1
  O  O48  1  0.98829200  0.20770500  0.91957700  1
  O  O49  1  0.91263700  0.47297900  0.67405400  1
  O  O50  1  0.81170800  0.66936200  0.82059200  1
  O  O51  1  0.91914000  0.62600800  0.16663800  1
  O  O52  1  0.74417000  0.92265800  0.16093200  1
  O  O53  1  0.76280400  0.02196300  0.93819700  1
  O  O54  1  0.80451700  0.98808800  0.76074500  1
  O  O55  1  0.92191300  0.74192500  0.66395700  1
  O  O56  1  0.02198900  0.76724600  0.43650500  1
  O  O57  1  0.98837600  0.80614800  0.25991800  1
loop_
_geom_bond_atom_site_label_1
_geom_bond_atom_site_label_2
_geom_bond_distance
_geom_bond_site_symmetry_2
Li0 O27 1.999471 1_555
Li0 O0 2.025627 1_455
Li0 O29 2.114718 1_545
Li0 O9 2.267356 1_555
Li1 O56 1.959257 1_555
Li1 O19 1.994125 1_555
Li1 O55 2.126391 1_455
Li1 O11 2.226256 1_555
Li2 O7 1.951051 1_555
Li2 O20 2.062295 1_554
Li2 O23 2.131270 1_555
Li2 O14 2.158819 1_555
Li3 O53 1.985050 1_554
Li3 O52 2.013084 1_545
Li3 O34 2.020079 1_555
Li3 O16 2.096649 1_555
Li4 O28 1.945524 1_555
Li4 O35 2.020529 1_555
Li4 O37 2.111712 1_555
Li4 O22 2.228100 1_555
Li5 O2 1.985846 1_556
Li5 O3 2.074971 1_565
Li5 O20 2.078354 1_555
Li5 O38 2.255803 1_555
Li6 O48 1.930553 1_555
Li6 O34 2.041662 1_556
Li6 O31 2.221126 1_555
Li6 O40 2.236734 1_555
Li7 O35 2.012201 1_555
Li7 O1 2.023138 1_655
Li7 O0 2.062534 1_555
Li7 O43 2.124476 1_555
Li8 O7 2.080405 1_555
Li8 O2 2.217457 1_555
Li8 O48 2.393559 1_464
Li8 O20 2.425854 1_554
Li8 O53 2.445593 1_464
Li8 O34 2.456037 1_465
Li9 O56 1.980610 1_555
Li9 O19 2.090462 1_555
Li9 O27 2.286601 1_565
Li9 O28 2.312189 1_465
O0 P13 1.503957 1_555
O1 P1 1.537133 1_555
O1 V4 2.008067 1_555
O2 P8 1.501553 1_555
O3 P0 1.547969 1_555
O3 V2 1.996450 1_555
O4 P0 1.561965 1_555
O4 V5 1.892205 1_455
O5 P3 1.579808 1_555
O5 V4 1.851838 1_555
O6 P2 1.525983 1_555
O6 V4 1.946075 1_555
O7 P15 1.501482 1_455
O8 P5 1.557936 1_555
O8 V5 1.878784 1_455
O9 P4 1.560775 1_555
O9 V2 1.972580 1_555
O10 P1 1.549041 1_555
O10 V3 1.906421 1_545
O11 P4 1.589592 1_555
O11 V5 1.923411 1_455
O12 P3 1.489652 1_555
O13 P4 1.491591 1_555
O14 P3 1.581616 1_555
O14 V0 1.926699 1_555
O15 P7 1.559231 1_555
O15 V2 1.877675 1_555
O16 P3 1.558770 1_555
O16 V3 1.992624 1_545
O17 P2 1.562994 1_555
O17 V0 1.848284 1_555
O18 P5 1.608375 1_555
O18 P6 1.616865 1_555
O19 P6 1.491315 1_555
O20 P5 1.506503 1_555
O21 P5 1.524793 1_555
O21 V1 1.950077 1_555
O22 P4 1.577275 1_555
O22 V1 1.950047 1_555
O23 P8 1.567452 1_555
O23 V0 1.933486 1_555
O24 P9 1.553916 1_555
O24 V0 1.878805 1_555
O25 P9 1.528914 1_555
O25 V3 1.952691 1_545
O26 P8 1.611955 1_555
O26 P1 1.625107 1_565
O27 P1 1.503012 1_555
O28 P14 1.496543 1_545
O29 P6 1.552091 1_555
O29 V2 1.985468 1_565
O30 P6 1.552456 1_555
O30 V1 1.891769 1_555
O31 P7 1.557813 1_555
O31 V1 1.936155 1_555
O32 P11 1.607334 1_555
O32 V0 1.804787 1_555
O33 P10 1.547584 1_555
O33 V0 1.907983 1_555
O34 P10 1.515477 1_555
O35 P9 1.511834 1_555
O36 P9 1.606755 1_555
O36 P10 1.622661 1_555
O37 P13 1.549228 1_555
O37 V1 1.987161 1_555
O38 P12 1.572177 1_555
O38 V2 1.953775 1_565
O39 P8 1.534205 1_555
O39 V3 1.956646 1_555
O40 P12 1.560245 1_555
O40 V1 1.974270 1_555
O41 P12 1.484084 1_555
O42 P11 1.482421 1_555
O43 P11 1.568294 1_555
O43 V4 1.990853 1_655
O44 P14 1.532094 1_555
O44 V2 1.946267 1_565
O45 P11 1.554096 1_555
O45 V3 1.895357 1_555
O46 P10 1.514073 1_555
O46 V4 1.955931 1_655
O47 P13 1.609364 1_455
O47 P0 1.621294 1_555
O48 P0 1.492287 1_655
O49 P13 1.545050 1_555
O49 V5 1.911709 1_555
O50 P12 1.599976 1_555
O50 V5 1.824127 1_555
O51 P15 1.535926 1_555
O51 V4 1.928598 1_655
O52 P15 1.549313 1_555
O52 V3 1.999336 1_555
O53 P7 1.489552 1_555
O54 P7 1.601873 1_565
O54 P14 1.629792 1_555
O55 P14 1.564216 1_555
O55 V5 1.958836 1_555
O56 P2 1.497448 1_555
O57 P2 1.601289 1_655
O57 P15 1.627998 1_555
