# generated using pymatgen
data_Li2TiCo2O5
_symmetry_space_group_name_H-M   'P 1'
_cell_length_a   4.12690500
_cell_length_b   6.02782469
_cell_length_c   7.94737856
_cell_angle_alpha   102.98796333
_cell_angle_beta   104.96410308
_cell_angle_gamma   90.12651454
_symmetry_Int_Tables_number   1
_chemical_formula_structural   Li2TiCo2O5
_chemical_formula_sum   'Li4 Ti2 Co4 O10'
_cell_volume   185.72891247
_cell_formula_units_Z   2
loop_
 _symmetry_equiv_pos_site_id
 _symmetry_equiv_pos_as_xyz
  1  'x, y, z'
loop_
 _atom_site_type_symbol
 _atom_site_label
 _atom_site_symmetry_multiplicity
 _atom_site_fract_x
 _atom_site_fract_y
 _atom_site_fract_z
 _atom_site_occupancy
  Li  Li0  1  0.18861100  0.11249900  0.38894200  1
  Li  Li1  1  0.00000000  0.50000000  0.00000000  1
  Li  Li2  1  0.81138900  0.88750100  0.61105800  1
  Li  Li3  1  0.00000000  0.00000000  0.00000000  1
  Ti  Ti0  1  0.43040000  0.18077600  0.79662300  1
  Ti  Ti1  1  0.56960000  0.81922400  0.20337700  1
  Co  Co0  1  0.79810800  0.38939700  0.60145300  1
  Co  Co1  1  0.59797600  0.30672400  0.19827700  1
  Co  Co2  1  0.20189200  0.61060300  0.39854700  1
  Co  Co3  1  0.40202400  0.69327600  0.80172300  1
  O  O0  1  0.88861100  0.19061300  0.80608900  1
  O  O1  1  0.68981800  0.08858400  0.38196000  1
  O  O2  1  0.10807300  0.31856600  0.21448300  1
  O  O3  1  0.30286100  0.36493700  0.61616100  1
  O  O4  1  0.89192700  0.68143400  0.78551700  1
  O  O5  1  0.50000000  0.50000000  0.00000000  1
  O  O6  1  0.69713900  0.63506300  0.38383900  1
  O  O7  1  0.11138900  0.80938700  0.19391100  1
  O  O8  1  0.31018200  0.91141600  0.61804000  1
  O  O9  1  0.50000000  0.00000000  0.00000000  1
loop_
_geom_bond_atom_site_label_1
_geom_bond_atom_site_label_2
_geom_bond_distance
_geom_bond_site_symmetry_2
Li0 O2 2.028223 1_555
Li0 O3 2.029938 1_555
Li0 O1 2.048724 1_455
Li0 O7 2.076465 1_545
Li0 O1 2.087887 1_555
Li0 O8 2.357723 1_545
Li1 O5 2.063452 1_455
Li1 O5 2.063452 1_555
Li1 O7 2.098270 1_555
Li1 O0 2.098270 1_454
Li1 O2 2.179007 1_555
Li1 O4 2.179007 1_454
Li2 O4 2.028223 1_555
Li2 O6 2.029938 1_555
Li2 O8 2.048724 1_655
Li2 O0 2.076465 1_565
Li2 O8 2.087887 1_555
Li2 O1 2.357723 1_565
Li3 O9 2.063452 1_455
Li3 O9 2.063452 1_555
Li3 O7 2.082980 1_545
Li3 O0 2.082980 1_454
Li3 O2 2.219057 1_555
Li3 O4 2.219057 1_444
Co0 O4 1.983837 1_555
Co0 O3 2.063475 1_655
Co0 O3 2.083858 1_555
Co0 O1 2.168542 1_555
Co0 O0 2.187327 1_555
Co0 O6 2.477753 1_555
Co1 O2 2.059192 1_555
Co1 O2 2.075670 1_655
Co1 O9 2.103098 1_555
Co1 O5 2.121820 1_555
Co1 O1 2.140776 1_555
Co1 O6 2.152259 1_555
Co2 O2 1.983837 1_555
Co2 O6 2.063475 1_455
Co2 O6 2.083858 1_555
Co2 O8 2.168542 1_555
Co2 O7 2.187327 1_555
Co2 O3 2.477753 1_555
Co3 O4 2.059192 1_555
Co3 O4 2.075670 1_455
Co3 O9 2.103098 1_566
Co3 O5 2.121820 1_556
Co3 O8 2.140776 1_555
Co3 O3 2.152259 1_555
O0 Ti0 1.873250 1_555
O0 Ti0 2.256972 1_655
O1 Ti1 1.869147 1_545
O3 Ti0 1.973484 1_555
O5 Ti1 2.181154 1_555
O5 Ti0 2.181154 1_554
O6 Ti1 1.973484 1_555
O7 Ti1 1.873250 1_555
O7 Ti1 2.256972 1_455
O8 Ti0 1.869147 1_565
O9 Ti0 2.106109 1_554
O9 Ti1 2.106109 1_545
