# generated using pymatgen
data_Li2Cr2O7
_symmetry_space_group_name_H-M   'P 1'
_cell_length_a   8.37054500
_cell_length_b   6.74303300
_cell_length_c   9.62913498
_cell_angle_alpha   78.69505386
_cell_angle_beta   90.00000000
_cell_angle_gamma   90.00000000
_symmetry_Int_Tables_number   1
_chemical_formula_structural   Li2Cr2O7
_chemical_formula_sum   'Li8 Cr8 O28'
_cell_volume   532.95087950
_cell_formula_units_Z   4
loop_
 _symmetry_equiv_pos_site_id
 _symmetry_equiv_pos_as_xyz
  1  'x, y, z'
loop_
 _atom_site_type_symbol
 _atom_site_label
 _atom_site_symmetry_multiplicity
 _atom_site_fract_x
 _atom_site_fract_y
 _atom_site_fract_z
 _atom_site_occupancy
  Li  Li0  1  0.61958100  0.85534100  0.96456700  1
  Li  Li1  1  0.88041900  0.85534100  0.46456700  1
  Li  Li2  1  0.61708500  0.69471600  0.68581400  1
  Li  Li3  1  0.88291500  0.69471600  0.18581400  1
  Li  Li4  1  0.11708500  0.30528400  0.81418600  1
  Li  Li5  1  0.38291500  0.30528400  0.31418600  1
  Li  Li6  1  0.11958100  0.14465900  0.53543300  1
  Li  Li7  1  0.38041900  0.14465900  0.03543300  1
  Cr  Cr0  1  0.98453900  0.81069900  0.81644700  1
  Cr  Cr1  1  0.51546100  0.81069900  0.31644700  1
  Cr  Cr2  1  0.24534800  0.64585400  0.53020000  1
  Cr  Cr3  1  0.25465200  0.64585400  0.03020000  1
  Cr  Cr4  1  0.74534800  0.35414600  0.96980000  1
  Cr  Cr5  1  0.75465200  0.35414600  0.46980000  1
  Cr  Cr6  1  0.48453900  0.18930100  0.68355300  1
  Cr  Cr7  1  0.01546100  0.18930100  0.18355300  1
  O  O0  1  0.57796400  0.97681700  0.74493100  1
  O  O1  1  0.37169500  0.84446200  0.99044500  1
  O  O2  1  0.87407700  0.83352200  0.95226400  1
  O  O3  1  0.92203600  0.97681700  0.24493100  1
  O  O4  1  0.12830500  0.84446200  0.49044500  1
  O  O5  1  0.62592300  0.83352200  0.45226400  1
  O  O6  1  0.87322100  0.74624800  0.69263900  1
  O  O7  1  0.37141600  0.68171000  0.65001000  1
  O  O8  1  0.13167500  0.61712200  0.87993200  1
  O  O9  1  0.63976400  0.55743800  0.90917900  1
  O  O10  1  0.62677900  0.74624800  0.19263900  1
  O  O11  1  0.12858400  0.68171000  0.15001000  1
  O  O12  1  0.36832500  0.61712200  0.37993200  1
  O  O13  1  0.86023600  0.55743800  0.40917900  1
  O  O14  1  0.13976400  0.44256200  0.59082100  1
  O  O15  1  0.63167500  0.38287800  0.62006800  1
  O  O16  1  0.87141600  0.31829000  0.84999000  1
  O  O17  1  0.37322100  0.25375200  0.80736100  1
  O  O18  1  0.36023600  0.44256200  0.09082100  1
  O  O19  1  0.86832500  0.38287800  0.12006800  1
  O  O20  1  0.62858400  0.31829000  0.34999000  1
  O  O21  1  0.12677900  0.25375200  0.30736100  1
  O  O22  1  0.37407700  0.16647800  0.54773600  1
  O  O23  1  0.87169500  0.15553800  0.50955500  1
  O  O24  1  0.07796400  0.02318300  0.75506900  1
  O  O25  1  0.12592300  0.16647800  0.04773600  1
  O  O26  1  0.62830500  0.15553800  0.00955500  1
  O  O27  1  0.42203600  0.02318300  0.25506900  1
loop_
_geom_bond_atom_site_label_1
_geom_bond_atom_site_label_2
_geom_bond_distance
_geom_bond_site_symmetry_2
Li0 O1 2.089423 1_555
Li0 O2 2.140226 1_555
Li0 O0 2.141480 1_555
Li0 O26 2.152749 1_566
Li0 O10 2.175867 1_556
Li0 O9 2.183617 1_555
Li1 O4 2.089423 1_655
Li1 O5 2.140226 1_555
Li1 O3 2.141480 1_555
Li1 O23 2.152749 1_565
Li1 O6 2.175867 1_555
Li1 O13 2.183617 1_555
Li2 O7 2.089765 1_555
Li2 O0 2.115239 1_555
Li2 O6 2.175027 1_555
Li2 O9 2.176769 1_555
Li2 O5 2.261361 1_555
Li2 O15 2.314973 1_555
Li3 O11 2.089765 1_655
Li3 O3 2.115239 1_555
Li3 O10 2.175027 1_555
Li3 O13 2.176769 1_555
Li3 O2 2.261361 1_554
Li3 O19 2.314973 1_555
Li4 O16 2.089765 1_455
Li4 O24 2.115239 1_555
Li4 O17 2.175027 1_555
Li4 O14 2.176769 1_555
Li4 O25 2.261361 1_556
Li4 O8 2.314973 1_555
Li5 O20 2.089765 1_555
Li5 O27 2.115239 1_555
Li5 O21 2.175027 1_555
Li5 O18 2.176769 1_555
Li5 O22 2.261361 1_555
Li5 O12 2.314973 1_555
Li6 O23 2.089423 1_455
Li6 O22 2.140226 1_555
Li6 O24 2.141480 1_555
Li6 O4 2.152749 1_545
Li6 O21 2.175867 1_555
Li6 O14 2.183617 1_555
Li7 O26 2.089423 1_555
Li7 O25 2.140226 1_555
Li7 O27 2.141480 1_555
Li7 O1 2.152749 1_544
Li7 O17 2.175867 1_554
Li7 O18 2.183617 1_555
Cr0 O2 1.633361 1_555
Cr0 O6 1.637527 1_555
Cr0 O24 1.637600 1_665
Cr0 O8 1.811495 1_655
Cr1 O5 1.633361 1_555
Cr1 O10 1.637527 1_555
Cr1 O27 1.637600 1_565
Cr1 O12 1.811495 1_555
Cr2 O7 1.616271 1_555
Cr2 O14 1.639274 1_555
Cr2 O4 1.642832 1_555
Cr2 O12 1.816795 1_555
Cr3 O11 1.616271 1_555
Cr3 O18 1.639274 1_555
Cr3 O1 1.642832 1_554
Cr3 O8 1.816795 1_554
Cr4 O16 1.616271 1_555
Cr4 O9 1.639274 1_555
Cr4 O26 1.642832 1_556
Cr4 O19 1.816795 1_556
Cr5 O20 1.616271 1_555
Cr5 O13 1.639274 1_555
Cr5 O23 1.642832 1_555
Cr5 O15 1.816795 1_555
Cr6 O22 1.633361 1_555
Cr6 O17 1.637527 1_555
Cr6 O0 1.637600 1_545
Cr6 O15 1.811495 1_555
Cr7 O25 1.633361 1_555
Cr7 O21 1.637527 1_555
Cr7 O3 1.637600 1_445
Cr7 O19 1.811495 1_455
