# generated using pymatgen
data_Na6Mn2B4SO16
_symmetry_space_group_name_H-M   'P 1'
_cell_length_a   9.83437606
_cell_length_b   9.83437606
_cell_length_c   9.83437606
_cell_angle_alpha   60.00000000
_cell_angle_beta   60.00000000
_cell_angle_gamma   60.00000000
_symmetry_Int_Tables_number   1
_chemical_formula_structural   Na6Mn2B4SO16
_chemical_formula_sum   'Na12 Mn4 B8 S2 O32'
_cell_volume   672.55133058
_cell_formula_units_Z   2
loop_
 _symmetry_equiv_pos_site_id
 _symmetry_equiv_pos_as_xyz
  1  'x, y, z'
loop_
 _atom_site_type_symbol
 _atom_site_label
 _atom_site_symmetry_multiplicity
 _atom_site_fract_x
 _atom_site_fract_y
 _atom_site_fract_z
 _atom_site_occupancy
  Na  Na0  1  0.96764600  0.96764600  0.53235400  1
  Na  Na1  1  0.71764600  0.28235400  0.28235400  1
  Na  Na2  1  0.96764600  0.53235400  0.96764600  1
  Na  Na3  1  0.53235400  0.96764600  0.53235400  1
  Na  Na4  1  0.71764600  0.71764600  0.28235400  1
  Na  Na5  1  0.28235400  0.71764600  0.71764600  1
  Na  Na6  1  0.53235400  0.53235400  0.96764600  1
  Na  Na7  1  0.96764600  0.53235400  0.53235400  1
  Na  Na8  1  0.71764600  0.28235400  0.71764600  1
  Na  Na9  1  0.28235400  0.71764600  0.28235400  1
  Na  Na10  1  0.53235400  0.96764600  0.96764600  1
  Na  Na11  1  0.28235400  0.28235400  0.71764600  1
  Mn  Mn0  1  0.12500000  0.62500000  0.12500000  1
  Mn  Mn1  1  0.12500000  0.12500000  0.62500000  1
  Mn  Mn2  1  0.12500000  0.12500000  0.12500000  1
  Mn  Mn3  1  0.62500000  0.12500000  0.12500000  1
  B  B0  1  0.33605400  0.99183700  0.33605400  1
  B  B1  1  0.99183700  0.33605400  0.33605400  1
  B  B2  1  0.33605400  0.33605400  0.99183700  1
  B  B3  1  0.33605400  0.33605400  0.33605400  1
  B  B4  1  0.91394600  0.91394600  0.91394600  1
  B  B5  1  0.25816300  0.91394600  0.91394600  1
  B  B6  1  0.91394600  0.91394600  0.25816300  1
  B  B7  1  0.91394600  0.25816300  0.91394600  1
  S  S0  1  0.75000000  0.75000000  0.75000000  1
  S  S1  1  0.50000000  0.50000000  0.50000000  1
  O  O0  1  0.94251300  0.03397100  0.26527200  1
  O  O1  1  0.75824300  0.26527200  0.03397100  1
  O  O2  1  0.21602900  0.98472800  0.30748700  1
  O  O3  1  0.30748700  0.98472800  0.49175700  1
  O  O4  1  0.68786600  0.68786600  0.68786600  1
  O  O5  1  0.98472800  0.30748700  0.21602900  1
  O  O6  1  0.98472800  0.21602900  0.49175700  1
  O  O7  1  0.68786600  0.68786600  0.93640100  1
  O  O8  1  0.93640100  0.68786600  0.68786600  1
  O  O9  1  0.49175700  0.30748700  0.98472800  1
  O  O10  1  0.21602900  0.49175700  0.98472800  1
  O  O11  1  0.68786600  0.93640100  0.68786600  1
  O  O12  1  0.49175700  0.21602900  0.30748700  1
  O  O13  1  0.98472800  0.49175700  0.30748700  1
  O  O14  1  0.21602900  0.30748700  0.49175700  1
  O  O15  1  0.94251300  0.75824300  0.03397100  1
  O  O16  1  0.30748700  0.49175700  0.21602900  1
  O  O17  1  0.03397100  0.94251300  0.75824300  1
  O  O18  1  0.26527200  0.75824300  0.94251300  1
  O  O19  1  0.75824300  0.03397100  0.94251300  1
  O  O20  1  0.56213400  0.31359900  0.56213400  1
  O  O21  1  0.03397100  0.75824300  0.26527200  1
  O  O22  1  0.75824300  0.94251300  0.26527200  1
  O  O23  1  0.56213400  0.56213400  0.31359900  1
  O  O24  1  0.31359900  0.56213400  0.56213400  1
  O  O25  1  0.26527200  0.03397100  0.75824300  1
  O  O26  1  0.26527200  0.94251300  0.03397100  1
  O  O27  1  0.56213400  0.56213400  0.56213400  1
  O  O28  1  0.94251300  0.26527200  0.75824300  1
  O  O29  1  0.03397100  0.26527200  0.94251300  1
  O  O30  1  0.49175700  0.98472800  0.21602900  1
  O  O31  1  0.30748700  0.21602900  0.98472800  1
loop_
_geom_bond_atom_site_label_1
_geom_bond_atom_site_label_2
_geom_bond_distance
_geom_bond_site_symmetry_2
Na0 O2 2.349976 1_655
Na0 O6 2.349980 1_565
Na0 O17 2.481975 1_655
Na0 O0 2.481985 1_565
Na0 O8 2.484240 1_555
Na0 O11 2.484240 1_555
Na1 O0 2.349976 1_555
Na1 O1 2.349980 1_555
Na1 O12 2.481975 1_555
Na1 O5 2.481985 1_555
Na1 O23 2.484240 1_555
Na1 O20 2.484240 1_555
Na2 O5 2.349976 1_556
Na2 O10 2.349980 1_655
Na2 O15 2.481975 1_556
Na2 O29 2.481985 1_655
Na2 O7 2.484240 1_555
Na2 O8 2.484240 1_555
Na3 O3 2.349970 1_555
Na3 O12 2.349975 1_565
Na3 O25 2.481980 1_565
Na3 O22 2.481981 1_555
Na3 O11 2.484231 1_555
Na3 O4 2.484236 1_555
Na4 O22 2.349970 1_555
Na4 O15 2.349975 1_555
Na4 O30 2.481980 1_555
Na4 O13 2.481981 1_555
Na4 O23 2.484231 1_555
Na4 O27 2.484236 1_555
Na5 O18 2.349970 1_555
Na5 O17 2.349975 1_555
Na5 O10 2.481980 1_555
Na5 O3 2.481981 1_555
Na5 O24 2.484231 1_555
Na5 O27 2.484236 1_555
Na6 O9 2.349970 1_555
Na6 O16 2.349975 1_556
Na6 O1 2.481980 1_556
Na6 O18 2.481981 1_555
Na6 O7 2.484231 1_555
Na6 O4 2.484236 1_555
Na7 O13 2.349970 1_555
Na7 O14 2.349975 1_655
Na7 O21 2.481980 1_655
Na7 O28 2.481981 1_555
Na7 O8 2.484231 1_555
Na7 O4 2.484236 1_555
Na8 O28 2.349970 1_555
Na8 O19 2.349975 1_555
Na8 O6 2.481980 1_555
Na8 O9 2.481981 1_555
Na8 O20 2.484231 1_555
Na8 O27 2.484236 1_555
Na9 O26 2.349976 1_555
Na9 O21 2.349980 1_555
Na9 O16 2.481975 1_555
Na9 O2 2.481985 1_555
Na9 O24 2.484240 1_555
Na9 O23 2.484240 1_555
Na10 O31 2.349976 1_565
Na10 O30 2.349980 1_556
Na10 O19 2.481975 1_565
Na10 O26 2.481985 1_556
Na10 O7 2.484240 1_555
Na10 O11 2.484240 1_555
Na11 O29 2.349976 1_555
Na11 O25 2.349980 1_555
Na11 O14 2.481975 1_555
Na11 O31 2.481985 1_555
Na11 O20 2.484240 1_555
Na11 O24 2.484240 1_555
Mn0 O10 1.954758 1_554
Mn0 O21 1.954758 1_555
Mn0 O13 1.954760 1_455
Mn0 O18 1.954760 1_554
Mn0 O15 1.954766 1_455
Mn0 O16 1.954766 1_555
Mn1 O6 1.954758 1_455
Mn1 O25 1.954758 1_555
Mn1 O28 1.954760 1_455
Mn1 O3 1.954760 1_545
Mn1 O17 1.954766 1_545
Mn1 O14 1.954766 1_555
Mn2 O26 1.954766 1_545
Mn2 O29 1.954766 1_554
Mn2 O0 1.954766 1_455
Mn2 O5 1.954766 1_455
Mn2 O31 1.954766 1_554
Mn2 O2 1.954766 1_545
Mn3 O30 1.954758 1_545
Mn3 O1 1.954758 1_555
Mn3 O9 1.954760 1_554
Mn3 O22 1.954760 1_545
Mn3 O19 1.954766 1_554
Mn3 O12 1.954766 1_555
B0 O2 1.382341 1_555
B0 O30 1.382354 1_555
B0 O3 1.382360 1_555
B1 O5 1.382341 1_555
B1 O6 1.382354 1_555
B1 O13 1.382360 1_555
B2 O31 1.382341 1_555
B2 O10 1.382354 1_555
B2 O9 1.382360 1_555
B3 O14 1.382352 1_555
B3 O12 1.382352 1_555
B3 O16 1.382352 1_555
B4 O19 1.382352 1_565
B4 O15 1.382352 1_556
B4 O17 1.382352 1_655
B5 O26 1.382341 1_556
B5 O25 1.382354 1_565
B5 O18 1.382360 1_555
B6 O0 1.382341 1_565
B6 O21 1.382354 1_655
B6 O22 1.382360 1_555
B7 O29 1.382341 1_655
B7 O1 1.382354 1_556
B7 O28 1.382360 1_555
O4 S0 1.496759 1_555
O7 S0 1.496751 1_555
O8 S0 1.496751 1_555
O11 S0 1.496751 1_555
O20 S1 1.496751 1_555
O23 S1 1.496751 1_555
O24 S1 1.496751 1_555
O27 S1 1.496759 1_555
