# generated using pymatgen
data_Li4Si4Bi2O13
_symmetry_space_group_name_H-M   'P 1'
_cell_length_a   7.10095400
_cell_length_b   9.12309073
_cell_length_c   10.26288216
_cell_angle_alpha   112.85657877
_cell_angle_beta   89.51883379
_cell_angle_gamma   100.74895993
_symmetry_Int_Tables_number   1
_chemical_formula_structural   Li4Si4Bi2O13
_chemical_formula_sum   'Li8 Si8 Bi4 O26'
_cell_volume   600.39433592
_cell_formula_units_Z   2
loop_
 _symmetry_equiv_pos_site_id
 _symmetry_equiv_pos_as_xyz
  1  'x, y, z'
loop_
 _atom_site_type_symbol
 _atom_site_label
 _atom_site_symmetry_multiplicity
 _atom_site_fract_x
 _atom_site_fract_y
 _atom_site_fract_z
 _atom_site_occupancy
  Li  Li0  1  0.19206100  0.82969700  0.01897900  1
  Li  Li1  1  0.56568800  0.87431400  0.02233200  1
  Li  Li2  1  0.55661500  0.88616000  0.40098300  1
  Li  Li3  1  0.14184600  0.92053900  0.42272200  1
  Li  Li4  1  0.85815400  0.07946100  0.57727800  1
  Li  Li5  1  0.44338500  0.11384000  0.59901700  1
  Li  Li6  1  0.43431200  0.12568600  0.97766800  1
  Li  Li7  1  0.80793900  0.17030300  0.98102100  1
  Si  Si0  1  0.28947500  0.65040800  0.18497800  1
  Si  Si1  1  0.69452500  0.33168400  0.28359700  1
  Si  Si2  1  0.35340100  0.10382400  0.27923600  1
  Si  Si3  1  0.89842200  0.03105300  0.26113800  1
  Si  Si4  1  0.10157800  0.96894700  0.73886200  1
  Si  Si5  1  0.64659900  0.89617600  0.72076400  1
  Si  Si6  1  0.30547500  0.66831600  0.71640300  1
  Si  Si7  1  0.71052500  0.34959200  0.81502200  1
  Bi  Bi0  1  0.79789000  0.65889700  0.13174000  1
  Bi  Bi1  1  0.16557100  0.44115300  0.35159200  1
  Bi  Bi2  1  0.83442900  0.55884700  0.64840800  1
  Bi  Bi3  1  0.20211000  0.34110300  0.86826000  1
  O  O0  1  0.84767600  0.89301500  0.09922100  1
  O  O1  1  0.21524900  0.44882100  0.10506900  1
  O  O2  1  0.50063500  0.71809300  0.14630400  1
  O  O3  1  0.12752500  0.74265900  0.15848800  1
  O  O4  1  0.71354500  0.34288900  0.13295800  1
  O  O5  1  0.39250500  0.01805000  0.11553300  1
  O  O6  1  0.85907400  0.94302600  0.37184200  1
  O  O7  1  0.39238300  0.03152100  0.39296100  1
  O  O8  1  0.29566500  0.67951000  0.35753400  1
  O  O9  1  0.83291200  0.49347600  0.41012900  1
  O  O10  1  0.12498000  0.13443000  0.28870800  1
  O  O11  1  0.46781500  0.30650300  0.33412300  1
  O  O12  1  0.77953800  0.17738500  0.28981600  1
  O  O13  1  0.22046200  0.82261500  0.71018400  1
  O  O14  1  0.53218500  0.69349700  0.66587700  1
  O  O15  1  0.87502000  0.86557000  0.71129200  1
  O  O16  1  0.16708800  0.50652400  0.58987100  1
  O  O17  1  0.70433500  0.32049000  0.64246600  1
  O  O18  1  0.60761700  0.96847900  0.60703900  1
  O  O19  1  0.14092600  0.05697400  0.62815800  1
  O  O20  1  0.60749500  0.98195000  0.88446700  1
  O  O21  1  0.28645500  0.65711100  0.86704200  1
  O  O22  1  0.87247500  0.25734100  0.84151200  1
  O  O23  1  0.49936500  0.28190700  0.85369600  1
  O  O24  1  0.78475100  0.55117900  0.89493100  1
  O  O25  1  0.15232400  0.10698500  0.90077900  1
loop_
_geom_bond_atom_site_label_1
_geom_bond_atom_site_label_2
_geom_bond_distance
_geom_bond_site_symmetry_2
Li0 O3 1.904450 1_555
Li0 O5 1.936279 1_565
Li0 O21 1.956697 1_554
Li1 O5 1.937565 1_565
Li1 O20 2.004464 1_554
Li1 O0 2.110889 1_555
Li1 O2 2.239785 1_555
Li1 O21 2.555828 1_554
Li2 O7 1.946477 1_565
Li2 O18 1.960837 1_555
Li2 O6 2.159984 1_555
Li2 O8 2.290074 1_555
Li2 O2 2.453040 1_555
Li3 O7 1.960276 1_565
Li3 O19 1.989638 1_565
Li3 O6 2.145019 1_455
Li3 O8 2.493331 1_555
Li3 O3 2.553837 1_555
Li4 O18 1.960276 1_545
Li4 O6 1.989638 1_545
Li4 O19 2.145019 1_655
Li4 O17 2.493331 1_555
Li4 O22 2.553837 1_555
Li5 O18 1.946477 1_545
Li5 O7 1.960837 1_555
Li5 O19 2.159984 1_555
Li5 O17 2.290074 1_555
Li5 O23 2.453040 1_555
Li6 O20 1.937565 1_545
Li6 O5 2.004464 1_556
Li6 O25 2.110889 1_555
Li6 O23 2.239785 1_555
Li6 O4 2.555828 1_556
Li7 O22 1.904450 1_555
Li7 O20 1.936279 1_545
Li7 O4 1.956697 1_556
Bi0 O24 2.235001 1_554
Bi0 O0 2.251325 1_555
Bi0 O2 2.264211 1_555
Bi0 O3 2.306277 1_655
Bi1 O8 2.175867 1_555
Bi1 O16 2.280567 1_555
Bi1 O9 2.518478 1_455
Bi1 O10 2.574722 1_555
Bi1 O1 2.577541 1_555
Bi1 O11 2.636914 1_555
Bi2 O17 2.175867 1_555
Bi2 O9 2.280567 1_555
Bi2 O16 2.518478 1_655
Bi2 O15 2.574722 1_555
Bi2 O24 2.577541 1_555
Bi2 O14 2.636914 1_555
Bi3 O1 2.235001 1_556
Bi3 O25 2.251325 1_555
Bi3 O23 2.264211 1_555
Bi3 O22 2.306277 1_455
O0 Si3 1.640798 1_565
O1 Si0 1.675306 1_555
O2 Si0 1.619315 1_555
O3 Si0 1.627496 1_555
O4 Si1 1.591506 1_555
O5 Si2 1.601237 1_555
O6 Si3 1.622837 1_565
O7 Si2 1.595487 1_555
O8 Si0 1.685313 1_555
O9 Si1 1.679889 1_555
O10 Si3 1.670951 1_455
O10 Si2 1.692195 1_555
O11 Si1 1.689341 1_555
O11 Si2 1.742003 1_555
O12 Si3 1.640877 1_555
O12 Si1 1.654537 1_555
O13 Si4 1.640877 1_555
O13 Si6 1.654537 1_555
O14 Si6 1.689341 1_555
O14 Si5 1.742003 1_555
O15 Si4 1.670951 1_655
O15 Si5 1.692195 1_555
O16 Si6 1.679889 1_555
O17 Si7 1.685313 1_555
O18 Si5 1.595487 1_555
O19 Si4 1.622837 1_545
O20 Si5 1.601237 1_555
O21 Si6 1.591506 1_555
O22 Si7 1.627496 1_555
O23 Si7 1.619315 1_555
O24 Si7 1.675306 1_555
O25 Si4 1.640798 1_545
