# generated using pymatgen
data_Li2FeSn(PO4)2
_symmetry_space_group_name_H-M   'P 1'
_cell_length_a   6.27544314
_cell_length_b   9.71840468
_cell_length_c   12.25673680
_cell_angle_alpha   112.81273878
_cell_angle_beta   89.97435580
_cell_angle_gamma   90.01154659
_symmetry_Int_Tables_number   1
_chemical_formula_structural   Li2FeSn(PO4)2
_chemical_formula_sum   'Li8 Fe4 Sn4 P8 O32'
_cell_volume   689.03304169
_cell_formula_units_Z   4
loop_
 _symmetry_equiv_pos_site_id
 _symmetry_equiv_pos_as_xyz
  1  'x, y, z'
loop_
 _atom_site_type_symbol
 _atom_site_label
 _atom_site_symmetry_multiplicity
 _atom_site_fract_x
 _atom_site_fract_y
 _atom_site_fract_z
 _atom_site_occupancy
  Li  Li0  1  0.00012000  0.99982700  0.00003900  1
  Li  Li1  1  0.00014100  0.49986500  0.99982300  1
  Li  Li2  1  0.49974800  0.99984200  0.99996700  1
  Li  Li3  1  0.50037800  0.50008700  0.99974200  1
  Li  Li4  1  0.99984000  0.50001600  0.50005000  1
  Li  Li5  1  0.99995100  0.00002400  0.50013500  1
  Li  Li6  1  0.50000700  0.50006800  0.50015700  1
  Li  Li7  1  0.50004900  0.99987100  0.49996100  1
  Fe  Fe0  1  0.25006600  0.12189000  0.29505900  1
  Fe  Fe1  1  0.74976300  0.87864100  0.70527500  1
  Fe  Fe2  1  0.25013800  0.62040300  0.29449900  1
  Fe  Fe3  1  0.75006000  0.37941700  0.70540700  1
  Sn  Sn0  1  0.75017500  0.35314500  0.22030800  1
  Sn  Sn1  1  0.75035900  0.85377900  0.22058500  1
  Sn  Sn2  1  0.24967100  0.64718100  0.77959000  1
  Sn  Sn3  1  0.24988500  0.14618300  0.77922500  1
  P  P0  1  0.25005700  0.23404400  0.11205900  1
  P  P1  1  0.25039200  0.73414900  0.11213200  1
  P  P2  1  0.74966200  0.76588300  0.88798400  1
  P  P3  1  0.74998600  0.26586000  0.88773600  1
  P  P4  1  0.74996000  0.67201300  0.42327700  1
  P  P5  1  0.75005300  0.17217300  0.42347000  1
  P  P6  1  0.24989800  0.32794400  0.57673200  1
  P  P7  1  0.24994700  0.82780700  0.57656300  1
  O  O0  1  0.75023400  0.37860500  0.01905200  1
  O  O1  1  0.75009200  0.87865100  0.01919300  1
  O  O2  1  0.24983600  0.62115700  0.98081300  1
  O  O3  1  0.24975400  0.12121900  0.98083900  1
  O  O4  1  0.25036000  0.39877700  0.12878400  1
  O  O5  1  0.25011500  0.89882600  0.12865500  1
  O  O6  1  0.74983700  0.60116700  0.87121900  1
  O  O7  1  0.74955900  0.10117000  0.87104900  1
  O  O8  1  0.74990500  0.32859700  0.41892800  1
  O  O9  1  0.74997200  0.82846600  0.41890800  1
  O  O10  1  0.24988500  0.67145800  0.58125400  1
  O  O11  1  0.25000400  0.17154300  0.58119400  1
  O  O12  1  0.25001500  0.32766200  0.44976200  1
  O  O13  1  0.24996200  0.82768300  0.44977000  1
  O  O14  1  0.74992000  0.67208800  0.55021300  1
  O  O15  1  0.74986800  0.17228500  0.55029700  1
  O  O16  1  0.05249900  0.19006100  0.17157800  1
  O  O17  1  0.05335600  0.69029100  0.17206000  1
  O  O18  1  0.44746500  0.18966400  0.17138300  1
  O  O19  1  0.44810500  0.69021300  0.17145600  1
  O  O20  1  0.55189700  0.81016600  0.82885400  1
  O  O21  1  0.55285300  0.31019500  0.82833300  1
  O  O22  1  0.94694100  0.81006300  0.82838100  1
  O  O23  1  0.94745000  0.30975400  0.82822500  1
  O  O24  1  0.54913500  0.57724700  0.35882000  1
  O  O25  1  0.54953400  0.07710000  0.35887900  1
  O  O26  1  0.95080200  0.57719700  0.35879200  1
  O  O27  1  0.95106500  0.07744000  0.35912100  1
  O  O28  1  0.04889800  0.42263700  0.64101000  1
  O  O29  1  0.04921200  0.92284700  0.64113000  1
  O  O30  1  0.45046400  0.42289100  0.64119800  1
  O  O31  1  0.45070100  0.92276900  0.64107400  1
loop_
_geom_bond_atom_site_label_1
_geom_bond_atom_site_label_2
_geom_bond_distance
_geom_bond_site_symmetry_2
Li0 O3 2.028667 1_564
Li0 O1 2.029071 1_455
Li0 O22 2.220516 1_454
Li0 O16 2.220975 1_565
Li1 O2 2.027561 1_555
Li1 O0 2.029308 1_456
Li1 O23 2.221162 1_455
Li1 O17 2.227969 1_556
Li2 O3 2.030549 1_565
Li2 O1 2.031527 1_556
Li2 O20 2.214812 1_555
Li2 O18 2.217915 1_566
Li3 O2 2.030516 1_555
Li3 O0 2.031281 1_556
Li3 O21 2.218356 1_555
Li3 O19 2.221560 1_556
Li4 O28 2.157155 1_655
Li4 O26 2.159289 1_555
Li4 O14 2.199353 1_555
Li4 O12 2.202258 1_655
Li4 O8 2.222575 1_555
Li4 O10 2.223349 1_655
Li5 O29 2.156445 1_645
Li5 O27 2.157857 1_555
Li5 O15 2.201281 1_555
Li5 O13 2.201427 1_645
Li5 O11 2.223537 1_655
Li5 O9 2.223751 1_545
Li6 O30 2.156962 1_555
Li6 O24 2.159999 1_555
Li6 O14 2.198924 1_555
Li6 O12 2.201662 1_555
Li6 O8 2.222754 1_555
Li6 O10 2.223039 1_555
Li7 O31 2.157133 1_555
Li7 O25 2.157713 1_565
Li7 O13 2.200742 1_555
Li7 O15 2.200949 1_565
Li7 O9 2.222157 1_555
Li7 O11 2.224538 1_565
Fe0 O27 2.141320 1_455
Fe0 O25 2.144476 1_555
Fe0 O12 2.157341 1_555
Fe0 O18 2.244644 1_555
Fe0 O16 2.246381 1_555
Fe0 O5 2.330398 1_545
Fe1 O31 2.142108 1_555
Fe1 O29 2.143422 1_655
Fe1 O14 2.164078 1_555
Fe1 O22 2.243614 1_555
Fe1 O20 2.249111 1_555
Fe1 O7 2.323354 1_565
Fe2 O24 2.139184 1_555
Fe2 O26 2.140295 1_455
Fe2 O13 2.169557 1_555
Fe2 O17 2.242938 1_555
Fe2 O19 2.251541 1_555
Fe2 O4 2.317799 1_555
Fe3 O28 2.138166 1_655
Fe3 O30 2.142921 1_555
Fe3 O15 2.167691 1_555
Fe3 O21 2.244581 1_555
Fe3 O23 2.247468 1_555
Fe3 O6 2.319123 1_555
O0 P3 1.556777 1_554
O0 Sn0 2.572805 1_555
O1 P2 1.555849 1_554
O1 Sn1 2.571798 1_555
O2 P1 1.557538 1_556
O2 Sn2 2.574972 1_555
O3 P0 1.556118 1_556
O3 Sn3 2.574924 1_555
O4 P0 1.533152 1_555
O5 P1 1.533285 1_555
O6 P2 1.532854 1_555
O7 P3 1.532864 1_555
O8 P5 1.542630 1_555
O8 Sn0 2.536481 1_555
O9 P4 1.542026 1_555
O9 Sn1 2.536330 1_555
O10 P7 1.542666 1_555
O10 Sn2 2.531786 1_555
O11 P6 1.541997 1_555
O11 Sn3 2.532979 1_555
O12 P6 1.555177 1_555
O13 P7 1.553602 1_555
O14 P4 1.555539 1_555
O15 P5 1.554063 1_555
O16 P0 1.578824 1_555
O16 Sn0 2.394634 1_455
O17 P1 1.578557 1_555
O17 Sn1 2.400222 1_455
O18 P0 1.579117 1_555
O18 Sn0 2.398635 1_555
O19 P1 1.578677 1_555
O19 Sn1 2.396821 1_555
O20 P2 1.579106 1_555
O20 Sn2 2.393486 1_555
O21 P3 1.578115 1_555
O21 Sn3 2.402821 1_555
O22 P2 1.578897 1_555
O22 Sn2 2.395539 1_655
O23 P3 1.577916 1_555
O23 Sn3 2.397839 1_655
O24 P4 1.580135 1_555
O24 Sn0 2.519765 1_555
O25 P5 1.580218 1_555
O25 Sn1 2.513610 1_545
O26 P4 1.580236 1_555
O26 Sn0 2.518380 1_555
O27 P5 1.580317 1_555
O27 Sn1 2.516555 1_545
O28 P6 1.579868 1_555
O28 Sn2 2.522123 1_555
O29 P7 1.580824 1_555
O29 Sn3 2.512714 1_565
O30 P6 1.579555 1_555
O30 Sn2 2.519595 1_555
O31 P7 1.580703 1_555
O31 Sn3 2.513532 1_565
