# generated using pymatgen
data_Na3Ni2P2(CO7)2
_symmetry_space_group_name_H-M   'P 1'
_cell_length_a   8.84816401
_cell_length_b   5.16493923
_cell_length_c   13.03304210
_cell_angle_alpha   89.91667905
_cell_angle_beta   90.90557370
_cell_angle_gamma   88.41933862
_symmetry_Int_Tables_number   1
_chemical_formula_structural   Na3Ni2P2(CO7)2
_chemical_formula_sum   'Na6 Ni4 P4 C4 O28'
_cell_volume   595.31094459
_cell_formula_units_Z   2
loop_
 _symmetry_equiv_pos_site_id
 _symmetry_equiv_pos_as_xyz
  1  'x, y, z'
loop_
 _atom_site_type_symbol
 _atom_site_label
 _atom_site_symmetry_multiplicity
 _atom_site_fract_x
 _atom_site_fract_y
 _atom_site_fract_z
 _atom_site_occupancy
  Na  Na0  1  0.25078700  0.24516700  0.00150400  1
  Na  Na1  1  0.25179000  0.24663400  0.24315700  1
  Na  Na2  1  0.25717200  0.24364400  0.51678800  1
  Na  Na3  1  0.74282800  0.75635600  0.48321200  1
  Na  Na4  1  0.74821000  0.75336600  0.75684300  1
  Na  Na5  1  0.74921300  0.75483300  0.99849500  1
  Ni  Ni0  1  0.34497900  0.78147400  0.37496900  1
  Ni  Ni1  1  0.34238200  0.78266400  0.87061300  1
  Ni  Ni2  1  0.65761800  0.21733600  0.12938700  1
  Ni  Ni3  1  0.65502100  0.21852600  0.62503100  1
  P  P0  1  0.42640400  0.72108500  0.12541500  1
  P  P1  1  0.42396000  0.71722800  0.62498800  1
  P  P2  1  0.57604000  0.28277200  0.37501200  1
  P  P3  1  0.57359600  0.27891500  0.87458500  1
  C  C0  1  0.07193700  0.71430700  0.37343100  1
  C  C1  1  0.07142900  0.71405400  0.87498800  1
  C  C2  1  0.92806300  0.28569300  0.62656900  1
  C  C3  1  0.92857100  0.28594600  0.12501200  1
  O  O0  1  0.06836700  0.32380100  0.12202000  1
  O  O1  1  0.06691600  0.32412000  0.62660000  1
  O  O2  1  0.13014200  0.94246800  0.37240800  1
  O  O3  1  0.12933600  0.94129100  0.87474400  1
  O  O4  1  0.17351200  0.52460900  0.37490200  1
  O  O5  1  0.17303700  0.52766300  0.87174900  1
  O  O6  1  0.32097100  0.79083000  0.53129500  1
  O  O7  1  0.32241900  0.78622400  0.03110300  1
  O  O8  1  0.32621100  0.79115400  0.21848300  1
  O  O9  1  0.32385700  0.78671400  0.71678200  1
  O  O10  1  0.42439500  0.13864200  0.37580100  1
  O  O11  1  0.42466900  0.13280600  0.87648000  1
  O  O12  1  0.46379800  0.42199100  0.12561600  1
  O  O13  1  0.46499800  0.42212300  0.62079300  1
  O  O14  1  0.53500200  0.57787700  0.37920700  1
  O  O15  1  0.53620200  0.57800900  0.87438400  1
  O  O16  1  0.57560500  0.86135800  0.62419900  1
  O  O17  1  0.57533100  0.86719400  0.12352000  1
  O  O18  1  0.67378900  0.20884600  0.78151700  1
  O  O19  1  0.67758100  0.21377600  0.96889700  1
  O  O20  1  0.67614300  0.21328600  0.28321800  1
  O  O21  1  0.67902900  0.20917000  0.46870500  1
  O  O22  1  0.82696300  0.47233700  0.12825100  1
  O  O23  1  0.82648800  0.47539100  0.62509800  1
  O  O24  1  0.86985700  0.05753200  0.62759200  1
  O  O25  1  0.87066400  0.05870800  0.12525600  1
  O  O26  1  0.93163300  0.67619900  0.87798000  1
  O  O27  1  0.93308400  0.67588000  0.37340000  1
loop_
_geom_bond_atom_site_label_1
_geom_bond_atom_site_label_2
_geom_bond_distance
_geom_bond_site_symmetry_2
Na0 O0 2.298500 1_555
Na0 O5 2.315744 1_554
Na0 O11 2.322005 1_554
Na0 O7 2.464978 1_545
Na0 O3 2.528229 1_544
Na0 O12 2.646843 1_555
Na0 O7 2.907410 1_555
Na1 O0 2.273080 1_555
Na1 O4 2.340757 1_555
Na1 O10 2.344974 1_555
Na1 O8 2.448435 1_545
Na1 O2 2.570438 1_545
Na1 O12 2.620408 1_555
Na1 O8 2.924537 1_555
Na2 O1 2.257040 1_555
Na2 O6 2.397228 1_545
Na2 O10 2.429881 1_555
Na2 O4 2.441939 1_555
Na2 O13 2.467184 1_555
Na2 O2 2.694818 1_545
Na2 O6 2.903087 1_555
Na3 O27 2.257040 1_555
Na3 O21 2.397228 1_565
Na3 O16 2.429881 1_555
Na3 O23 2.441939 1_555
Na3 O14 2.467184 1_555
Na3 O24 2.694814 1_565
Na3 O21 2.903087 1_555
Na4 O26 2.273080 1_555
Na4 O23 2.340757 1_555
Na4 O16 2.344974 1_555
Na4 O18 2.448435 1_565
Na4 O24 2.570434 1_565
Na4 O15 2.620408 1_555
Na4 O18 2.924537 1_555
Na5 O26 2.298491 1_555
Na5 O22 2.315753 1_556
Na5 O17 2.322014 1_556
Na5 O19 2.464976 1_565
Na5 O25 2.528234 1_566
Na5 O15 2.646835 1_555
Na5 O19 2.907408 1_555
Ni0 O14 1.958354 1_555
Ni0 O10 1.992065 1_565
Ni0 O4 2.042772 1_555
Ni0 O8 2.044047 1_555
Ni0 O6 2.052285 1_555
Ni0 O2 2.053467 1_555
Ni1 O11 1.969208 1_565
Ni1 O15 1.989463 1_555
Ni1 O9 2.009023 1_555
Ni1 O5 2.022270 1_555
Ni1 O3 2.036113 1_555
Ni1 O7 2.101962 1_556
Ni2 O17 1.969208 1_545
Ni2 O12 1.989463 1_555
Ni2 O20 2.009023 1_555
Ni2 O22 2.022270 1_555
Ni2 O25 2.036115 1_555
Ni2 O19 2.101962 1_554
Ni3 O13 1.958354 1_555
Ni3 O16 1.992065 1_545
Ni3 O23 2.042772 1_555
Ni3 O18 2.044047 1_555
Ni3 O21 2.052285 1_555
Ni3 O24 2.053459 1_555
C0 O27 1.249909 1_455
C0 O2 1.299146 1_555
C0 O4 1.311072 1_555
C1 O26 1.258812 1_455
C1 O3 1.293538 1_555
C1 O5 1.300161 1_555
C2 O1 1.249909 1_655
C2 O24 1.299149 1_555
C2 O23 1.311072 1_555
C3 O0 1.258812 1_655
C3 O25 1.293543 1_555
C3 O22 1.300161 1_555
O6 P1 1.552539 1_555
O7 P0 1.554531 1_555
O8 P0 1.551043 1_555
O9 P1 1.536811 1_555
O10 P2 1.552470 1_555
O11 P3 1.536993 1_555
O12 P0 1.570878 1_555
O13 P1 1.558319 1_555
O14 P2 1.558319 1_555
O15 P3 1.570878 1_555
O16 P1 1.552470 1_555
O17 P0 1.536993 1_555
O18 P3 1.551043 1_555
O19 P3 1.554531 1_555
O20 P2 1.536811 1_555
O21 P2 1.552539 1_555
