# generated using pymatgen
data_LiVFeO4
_symmetry_space_group_name_H-M   'P 1'
_cell_length_a   5.99866573
_cell_length_b   5.99866573
_cell_length_c   5.99866573
_cell_angle_alpha   120.85290022
_cell_angle_beta   120.02741335
_cell_angle_gamma   89.24080842
_symmetry_Int_Tables_number   1
_chemical_formula_structural   LiVFeO4
_chemical_formula_sum   'Li2 V2 Fe2 O8'
_cell_volume   151.59330333
_cell_formula_units_Z   2
loop_
 _symmetry_equiv_pos_site_id
 _symmetry_equiv_pos_as_xyz
  1  'x, y, z'
loop_
 _atom_site_type_symbol
 _atom_site_label
 _atom_site_symmetry_multiplicity
 _atom_site_fract_x
 _atom_site_fract_y
 _atom_site_fract_z
 _atom_site_occupancy
  Li  Li0  1  0.13086800  0.88086800  0.25000000  1
  Li  Li1  1  0.86913200  0.11913200  0.75000000  1
  V  V0  1  0.50000000  0.50000000  0.50000000  1
  V  V1  1  0.50000000  0.00000000  0.00000000  1
  Fe  Fe0  1  0.00000000  0.50000000  0.50000000  1
  Fe  Fe1  1  0.50000000  0.50000000  0.00000000  1
  O  O0  1  0.26857800  0.29000800  0.52143000  1
  O  O1  1  0.27637600  0.74408600  0.53229000  1
  O  O2  1  0.71179700  0.74408600  0.96771000  1
  O  O3  1  0.26857800  0.74714800  0.97857000  1
  O  O4  1  0.73142200  0.25285200  0.02143000  1
  O  O5  1  0.72362400  0.25591400  0.46771000  1
  O  O6  1  0.28820400  0.25591400  0.03229000  1
  O  O7  1  0.73142200  0.70999200  0.47857000  1
loop_
_geom_bond_atom_site_label_1
_geom_bond_atom_site_label_2
_geom_bond_distance
_geom_bond_site_symmetry_2
Li0 O0 1.991463 1_565
Li0 O3 1.991463 1_554
Li0 O2 2.056549 1_454
Li0 O1 2.056554 1_555
Li1 O7 1.991463 1_545
Li1 O4 1.991463 1_556
Li1 O6 2.056554 1_656
Li1 O5 2.056554 1_555
Fe0 O7 2.025833 1_455
Fe0 O0 2.025833 1_555
Fe0 O3 2.025833 1_555
Fe0 O4 2.025833 1_455
Fe0 O1 2.093324 1_555
Fe0 O5 2.093324 1_455
Fe1 O3 2.025833 1_554
Fe1 O0 2.025833 1_554
Fe1 O7 2.025833 1_555
Fe1 O4 2.025833 1_555
Fe1 O6 2.093324 1_555
Fe1 O2 2.093328 1_554
O0 V0 1.980277 1_555
O1 V0 1.974325 1_555
O1 V1 1.974325 1_566
O2 V0 1.974324 1_555
O2 V1 1.974329 1_566
O3 V1 1.980277 1_566
O4 V1 1.980277 1_555
O5 V0 1.974325 1_555
O5 V1 1.974325 1_555
O6 V0 1.974325 1_555
O6 V1 1.974325 1_555
O7 V0 1.980277 1_555
