# generated using pymatgen
data_Li8Mn(O2F)2
_symmetry_space_group_name_H-M   'P 1'
_cell_length_a   6.12729375
_cell_length_b   8.41440431
_cell_length_c   11.16292268
_cell_angle_alpha   90.22913591
_cell_angle_beta   90.59018657
_cell_angle_gamma   80.69802864
_symmetry_Int_Tables_number   1
_chemical_formula_structural   Li8Mn(O2F)2
_chemical_formula_sum   'Li32 Mn4 O16 F8'
_cell_volume   567.93280104
_cell_formula_units_Z   4
loop_
 _symmetry_equiv_pos_site_id
 _symmetry_equiv_pos_as_xyz
  1  'x, y, z'
loop_
 _atom_site_type_symbol
 _atom_site_label
 _atom_site_symmetry_multiplicity
 _atom_site_fract_x
 _atom_site_fract_y
 _atom_site_fract_z
 _atom_site_occupancy
  Li  Li0  1  0.23477500  0.11649400  0.17729100  1
  Li  Li1  1  0.23483000  0.11646400  0.67734600  1
  Li  Li2  1  0.73488400  0.61649900  0.42733500  1
  Li  Li3  1  0.73483900  0.61648600  0.92731400  1
  Li  Li4  1  0.76520500  0.88350200  0.32269300  1
  Li  Li5  1  0.76511600  0.88347600  0.82267400  1
  Li  Li6  1  0.26521600  0.38351000  0.57268600  1
  Li  Li7  1  0.26519200  0.38353700  0.07268700  1
  Li  Li8  1  0.59329900  0.04915000  0.08074600  1
  Li  Li9  1  0.59339400  0.04911200  0.58073800  1
  Li  Li10  1  0.09347300  0.54913500  0.33076500  1
  Li  Li11  1  0.09345800  0.54910700  0.83075000  1
  Li  Li12  1  0.40657100  0.95088100  0.41923900  1
  Li  Li13  1  0.40646700  0.95087200  0.91925100  1
  Li  Li14  1  0.90661500  0.45086500  0.66926100  1
  Li  Li15  1  0.90664300  0.45086800  0.16926400  1
  Li  Li16  1  0.43146200  0.20497600  0.34826700  1
  Li  Li17  1  0.43141000  0.20493100  0.84829900  1
  Li  Li18  1  0.93145800  0.70494600  0.59827600  1
  Li  Li19  1  0.93140900  0.70489400  0.09828300  1
  Li  Li20  1  0.56861500  0.79510700  0.15171900  1
  Li  Li21  1  0.56856700  0.79505600  0.65170700  1
  Li  Li22  1  0.06860000  0.29509300  0.40170600  1
  Li  Li23  1  0.06855100  0.29501000  0.90173700  1
  Li  Li24  1  0.15449000  0.86208800  0.22208200  1
  Li  Li25  1  0.15446700  0.86210200  0.72206600  1
  Li  Li26  1  0.65451200  0.36216900  0.47208200  1
  Li  Li27  1  0.65451800  0.36213200  0.97211300  1
  Li  Li28  1  0.84548000  0.13790300  0.27789400  1
  Li  Li29  1  0.84548400  0.13779500  0.77790400  1
  Li  Li30  1  0.34552000  0.63786200  0.52791700  1
  Li  Li31  1  0.34552000  0.63793500  0.02790500  1
  Mn  Mn0  1  0.00015100  0.00009400  0.49999700  1
  Mn  Mn1  1  0.49994000  0.49997100  0.74998400  1
  Mn  Mn2  1  0.99989400  0.99980700  0.00001600  1
  Mn  Mn3  1  0.50003100  0.50019500  0.24997300  1
  O  O0  1  0.32019000  0.92586100  0.08167100  1
  O  O1  1  0.32023700  0.92591400  0.58165500  1
  O  O2  1  0.82027600  0.42592600  0.33166500  1
  O  O3  1  0.82027000  0.42589900  0.83168400  1
  O  O4  1  0.67974700  0.07411100  0.41832200  1
  O  O5  1  0.67968200  0.07404900  0.91833000  1
  O  O6  1  0.17977700  0.57407400  0.66834000  1
  O  O7  1  0.17977300  0.57416000  0.16833500  1
  O  O8  1  0.16109000  0.08033700  0.33751800  1
  O  O9  1  0.16103300  0.08028700  0.83754200  1
  O  O10  1  0.66112000  0.58029000  0.58753500  1
  O  O11  1  0.66114500  0.58034300  0.08753900  1
  O  O12  1  0.83884200  0.91966500  0.16246600  1
  O  O13  1  0.83888000  0.91969300  0.66245900  1
  O  O14  1  0.33893600  0.41970800  0.41247100  1
  O  O15  1  0.33892600  0.41968500  0.91247900  1
  F  F0  1  0.47829500  0.23839300  0.17148500  1
  F  F1  1  0.47829600  0.23837800  0.67151400  1
  F  F2  1  0.97833100  0.73838500  0.42148600  1
  F  F3  1  0.97829800  0.73837700  0.92149600  1
  F  F4  1  0.52172700  0.76161100  0.32850100  1
  F  F5  1  0.52166200  0.76160200  0.82852300  1
  F  F6  1  0.02173000  0.26159600  0.57850200  1
  F  F7  1  0.02168300  0.26162600  0.07851200  1
loop_
_geom_bond_atom_site_label_1
_geom_bond_atom_site_label_2
_geom_bond_distance
_geom_bond_site_symmetry_2
Li0 O8 1.887033 1_555
Li0 O0 1.926834 1_545
Li1 O9 1.886927 1_555
Li1 O1 1.926717 1_545
Li2 O10 1.886969 1_555
Li2 O2 1.926726 1_555
Li3 O11 1.887003 1_556
Li3 O3 1.926605 1_555
Li4 O12 1.886963 1_555
Li4 O4 1.926768 1_565
Li5 O13 1.887142 1_555
Li5 O5 1.926676 1_565
Li6 O14 1.887035 1_555
Li6 O6 1.926609 1_555
Li7 O15 1.886899 1_554
Li7 O7 1.926944 1_555
Li8 O5 1.915674 1_554
Li8 O12 1.931989 1_545
Li8 O0 2.106726 1_545
Li9 O4 1.915751 1_555
Li9 O13 1.931512 1_545
Li9 O1 2.106507 1_545
Li10 O7 1.915836 1_555
Li10 O14 1.931367 1_555
Li10 O2 2.106776 1_455
Li11 O6 1.915582 1_555
Li11 O15 1.931489 1_555
Li11 O3 2.106728 1_455
Li12 O1 1.915673 1_555
Li12 O8 1.931628 1_565
Li12 O4 2.106776 1_565
Li13 O0 1.915668 1_556
Li13 O9 1.931217 1_565
Li13 O5 2.106708 1_565
Li14 O3 1.915767 1_555
Li14 O10 1.931598 1_555
Li14 O6 2.106592 1_655
Li15 O2 1.915542 1_555
Li15 O11 1.931790 1_555
Li15 O7 2.106855 1_655
Li16 O4 1.891908 1_555
Li16 O14 1.940778 1_555
Li16 O8 2.101274 1_555
Li17 O5 1.891807 1_555
Li17 O15 1.940805 1_555
Li17 O9 2.101331 1_555
Li18 O6 1.892122 1_655
Li18 O13 1.940849 1_555
Li18 O10 2.101179 1_555
Li19 O7 1.891736 1_655
Li19 O12 1.941018 1_555
Li19 O11 2.100233 1_555
Li20 O0 1.892058 1_555
Li20 O11 1.940920 1_555
Li20 O12 2.100075 1_555
Li21 O1 1.892062 1_555
Li21 O10 1.940923 1_555
Li21 O13 2.100951 1_555
Li22 O2 1.891890 1_455
Li22 O8 1.940858 1_555
Li22 O14 2.100965 1_555
Li23 O3 1.891973 1_455
Li23 O9 1.940635 1_555
Li23 O15 2.101476 1_555
Li24 O0 1.997784 1_555
Li24 O12 2.022712 1_455
Li24 O8 2.244690 1_565
Li24 O7 2.474390 1_555
Li25 O1 1.998141 1_555
Li25 O13 2.022348 1_455
Li25 O9 2.244474 1_565
Li25 O6 2.475133 1_555
Li26 O2 1.998009 1_555
Li26 O14 2.022263 1_555
Li26 O10 2.243924 1_555
Li26 O4 2.475511 1_555
Li27 O3 1.998104 1_555
Li27 O15 2.022445 1_555
Li27 O11 2.244389 1_556
Li27 O5 2.475817 1_555
Li28 O4 1.998104 1_555
Li28 O8 2.022519 1_655
Li28 O12 2.244597 1_545
Li28 O2 2.475273 1_555
Li29 O5 1.998186 1_555
Li29 O9 2.022186 1_655
Li29 O13 2.243739 1_545
Li29 O3 2.475951 1_555
Li30 O6 1.998082 1_555
Li30 O10 2.022446 1_555
Li30 O14 2.244086 1_555
Li30 O1 2.475376 1_555
Li31 O7 1.998119 1_555
Li31 O11 2.022658 1_555
Li31 O15 2.244628 1_554
Li31 O0 2.474397 1_555
Mn0 O1 2.153840 1_545
Mn0 O4 2.155396 1_455
Mn0 O8 2.231561 1_555
Mn0 O13 2.232924 1_445
Mn1 O6 2.154087 1_555
Mn1 O3 2.155189 1_555
Mn1 O15 2.232073 1_555
Mn1 O10 2.232266 1_555
Mn2 O0 2.154649 1_655
Mn2 O5 2.154709 1_564
Mn2 O12 2.231322 1_555
Mn2 O9 2.232881 1_664
Mn3 O7 2.154393 1_555
Mn3 O2 2.154943 1_555
Mn3 O11 2.231384 1_555
Mn3 O14 2.232987 1_555
F0 Li8 1.922820 1_555
F0 Li0 1.944218 1_555
F0 Li7 1.969379 1_555
F0 Li16 2.024332 1_555
F0 Mn3 2.390647 1_555
F0 Li28 2.554553 1_555
F1 Li9 1.923323 1_555
F1 Li1 1.944031 1_555
F1 Li6 1.969434 1_555
F1 Li17 2.024464 1_555
F1 Mn1 2.388827 1_555
F1 Li29 2.554620 1_555
F2 Li10 1.922961 1_655
F2 Li2 1.943786 1_555
F2 Li4 1.969309 1_555
F2 Li18 2.024493 1_555
F2 Mn0 2.390117 1_665
F2 Li30 2.554738 1_655
F3 Li11 1.923263 1_655
F3 Li3 1.943861 1_555
F3 Li5 1.969602 1_555
F3 Li19 2.024539 1_556
F3 Mn2 2.387697 1_556
F3 Li31 2.554662 1_656
F4 Li12 1.923210 1_555
F4 Li4 1.943956 1_555
F4 Li2 1.969648 1_555
F4 Li20 2.024501 1_555
F4 Mn3 2.387743 1_555
F4 Li24 2.554845 1_555
F5 Li13 1.923208 1_555
F5 Li5 1.943757 1_555
F5 Li3 1.969466 1_555
F5 Li21 2.024832 1_555
F5 Mn1 2.389500 1_555
F5 Li25 2.554864 1_555
F6 Li14 1.923267 1_455
F6 Li6 1.944128 1_555
F6 Li1 1.969602 1_555
F6 Li22 2.024636 1_555
F6 Mn0 2.388178 1_555
F6 Li26 2.554908 1_455
F7 Li15 1.922943 1_455
F7 Li7 1.944236 1_555
F7 Li0 1.969171 1_555
F7 Li23 2.024247 1_554
F7 Mn2 2.390878 1_445
F7 Li27 2.554426 1_454
