# generated using pymatgen
data_Hf2N2O
_symmetry_space_group_name_H-M   'P 1'
_cell_length_a   3.09200200
_cell_length_b   5.88480000
_cell_length_c   12.22619800
_cell_angle_alpha   90.00000000
_cell_angle_beta   90.00000000
_cell_angle_gamma   90.00000000
_symmetry_Int_Tables_number   1
_chemical_formula_structural   Hf2N2O
_chemical_formula_sum   'Hf8 N8 O4'
_cell_volume   222.46561703
_cell_formula_units_Z   4
loop_
 _symmetry_equiv_pos_site_id
 _symmetry_equiv_pos_as_xyz
  1  'x, y, z'
loop_
 _atom_site_type_symbol
 _atom_site_label
 _atom_site_symmetry_multiplicity
 _atom_site_fract_x
 _atom_site_fract_y
 _atom_site_fract_z
 _atom_site_occupancy
  Hf  Hf0  1  0.25000000  0.14554200  0.20636500  1
  Hf  Hf1  1  0.75000000  0.25515200  0.45594600  1
  Hf  Hf2  1  0.25000000  0.24484800  0.95594600  1
  Hf  Hf3  1  0.75000000  0.35445800  0.70636500  1
  Hf  Hf4  1  0.25000000  0.64554200  0.29363500  1
  Hf  Hf5  1  0.75000000  0.75515200  0.04405400  1
  Hf  Hf6  1  0.25000000  0.74484800  0.54405400  1
  Hf  Hf7  1  0.75000000  0.85445800  0.79363500  1
  N  N0  1  0.75000000  0.13646900  0.06752900  1
  N  N1  1  0.25000000  0.14732700  0.78078800  1
  N  N2  1  0.75000000  0.35267300  0.28078800  1
  N  N3  1  0.25000000  0.36353100  0.56752900  1
  N  N4  1  0.75000000  0.63646900  0.43247100  1
  N  N5  1  0.25000000  0.64732700  0.71921200  1
  N  N6  1  0.75000000  0.85267300  0.21921200  1
  N  N7  1  0.25000000  0.86353100  0.93247100  1
  O  O0  1  0.25000000  0.02972600  0.39885400  1
  O  O1  1  0.75000000  0.47027400  0.89885400  1
  O  O2  1  0.25000000  0.52972600  0.10114600  1
  O  O3  1  0.75000000  0.97027400  0.60114600  1
loop_
_geom_bond_atom_site_label_1
_geom_bond_atom_site_label_2
_geom_bond_distance
_geom_bond_site_symmetry_2
Hf0 N2 2.168832 1_455
Hf0 N2 2.168832 1_555
Hf0 N0 2.296576 1_555
Hf0 N0 2.296576 1_455
Hf0 N6 2.320594 1_545
Hf0 N6 2.320594 1_445
Hf0 O0 2.450112 1_555
Hf0 O2 2.601216 1_555
Hf1 O0 2.153412 1_555
Hf1 O0 2.153412 1_655
Hf1 N3 2.158248 1_555
Hf1 N3 2.158248 1_655
Hf1 N2 2.217080 1_555
Hf1 N4 2.262254 1_555
Hf1 O3 2.441716 1_545
Hf2 O1 2.153412 1_455
Hf2 O1 2.153412 1_555
Hf2 N0 2.158248 1_556
Hf2 N0 2.158248 1_456
Hf2 N1 2.217080 1_555
Hf2 N7 2.262254 1_545
Hf2 O2 2.441716 1_556
Hf3 N1 2.168832 1_555
Hf3 N1 2.168832 1_655
Hf3 N3 2.296576 1_555
Hf3 N3 2.296576 1_655
Hf3 N5 2.320594 1_555
Hf3 N5 2.320594 1_655
Hf3 O1 2.450112 1_555
Hf3 O3 2.601216 1_545
Hf4 N6 2.168832 1_455
Hf4 N6 2.168832 1_555
Hf4 N4 2.296576 1_555
Hf4 N4 2.296576 1_455
Hf4 N2 2.320594 1_555
Hf4 N2 2.320594 1_455
Hf4 O2 2.450112 1_555
Hf4 O0 2.601216 1_565
Hf5 O2 2.153412 1_655
Hf5 O2 2.153412 1_555
Hf5 N7 2.158248 1_654
Hf5 N7 2.158248 1_554
Hf5 N6 2.217080 1_555
Hf5 N0 2.262254 1_565
Hf5 O1 2.441716 1_554
Hf6 O3 2.153412 1_455
Hf6 O3 2.153412 1_555
Hf6 N4 2.158248 1_555
Hf6 N4 2.158248 1_455
Hf6 N5 2.217080 1_555
Hf6 N3 2.262254 1_555
Hf6 O0 2.441716 1_565
Hf7 N5 2.168832 1_555
Hf7 N5 2.168832 1_655
Hf7 N7 2.296576 1_655
Hf7 N7 2.296576 1_555
Hf7 N1 2.320594 1_665
Hf7 N1 2.320594 1_565
Hf7 O3 2.450112 1_555
Hf7 O1 2.601216 1_555
