# generated using pymatgen
data_Rb2PrO3
_symmetry_space_group_name_H-M   'P 1'
_cell_length_a   12.78082841
_cell_length_b   12.19277824
_cell_length_c   6.79889026
_cell_angle_alpha   79.03377710
_cell_angle_beta   69.48317954
_cell_angle_gamma   31.48304336
_symmetry_Int_Tables_number   1
_chemical_formula_structural   Rb2PrO3
_chemical_formula_sum   'Rb8 Pr4 O12'
_cell_volume   505.27156312
_cell_formula_units_Z   4
loop_
 _symmetry_equiv_pos_site_id
 _symmetry_equiv_pos_as_xyz
  1  'x, y, z'
loop_
 _atom_site_type_symbol
 _atom_site_label
 _atom_site_symmetry_multiplicity
 _atom_site_fract_x
 _atom_site_fract_y
 _atom_site_fract_z
 _atom_site_occupancy
  Rb  Rb0  1  0.99594000  0.99594000  0.50406000  1
  Rb  Rb1  1  0.74594000  0.74594000  0.25406000  1
  Rb  Rb2  1  0.42195600  0.42195600  0.57804400  1
  Rb  Rb3  1  0.57804400  0.57804400  0.42195600  1
  Rb  Rb4  1  0.67195600  0.67195600  0.82804400  1
  Rb  Rb5  1  0.82804400  0.82804400  0.67195600  1
  Rb  Rb6  1  0.50406000  0.50406000  0.99594000  1
  Rb  Rb7  1  0.25406000  0.25406000  0.74594000  1
  Pr  Pr0  1  0.08568000  0.08568000  0.91432000  1
  Pr  Pr1  1  0.91432000  0.91432000  0.08568000  1
  Pr  Pr2  1  0.33568000  0.33568000  0.16432000  1
  Pr  Pr3  1  0.16432000  0.16432000  0.33568000  1
  O  O0  1  0.17861000  0.82139000  0.82139000  1
  O  O1  1  0.14159900  0.66145400  0.29812900  1
  O  O2  1  0.89881800  0.29812900  0.66145300  1
  O  O3  1  0.66145300  0.14159900  0.89881800  1
  O  O4  1  0.29812900  0.89881800  0.14159900  1
  O  O5  1  0.42861000  0.07139000  0.07139000  1
  O  O6  1  0.82139000  0.17861000  0.17861000  1
  O  O7  1  0.95187100  0.35118200  0.10840100  1
  O  O8  1  0.58854700  0.10840100  0.35118200  1
  O  O9  1  0.35118200  0.95187100  0.58854700  1
  O  O10  1  0.10840100  0.58854600  0.95187100  1
  O  O11  1  0.07139000  0.42861000  0.42861000  1
loop_
_geom_bond_atom_site_label_1
_geom_bond_atom_site_label_2
_geom_bond_distance
_geom_bond_site_symmetry_2
O0 Pr1 2.432002 1_456
O0 Pr0 2.432002 1_565
O0 Rb0 2.818523 1_455
O0 Rb6 2.818523 1_555
O0 Rb2 3.123015 1_555
O0 Rb3 3.123015 1_555
O1 Pr2 2.397128 1_555
O1 Pr1 2.449822 1_455
O1 Rb5 2.754360 1_455
O1 Rb6 3.004990 1_554
O1 Rb0 3.074830 1_455
O1 Rb2 3.131723 1_555
O2 Pr3 2.397125 1_655
O2 Pr0 2.449828 1_655
O2 Rb4 2.754362 1_555
O2 Rb0 3.004987 1_545
O2 Rb6 3.074832 1_555
O2 Rb3 3.131718 1_555
O3 Pr2 2.397120 1_556
O3 Pr1 2.449829 1_546
O3 Rb5 2.754352 1_545
O3 Rb6 3.004999 1_555
O3 Rb0 3.074838 1_545
O3 Rb2 3.131720 1_555
O4 Pr3 2.397128 1_565
O4 Pr0 2.449822 1_564
O4 Rb4 2.754360 1_554
O4 Rb0 3.004990 1_455
O4 Rb6 3.074830 1_554
O4 Rb3 3.131723 1_555
O5 Pr2 2.432002 1_555
O5 Pr3 2.432002 1_555
O5 Rb7 2.818523 1_554
O5 Rb1 2.818523 1_545
O5 Rb4 3.123015 1_544
O5 Rb5 3.123015 1_544
O6 Pr1 2.432002 1_545
O6 Pr0 2.432002 1_654
O6 Rb6 2.818523 1_554
O6 Rb0 2.818523 1_545
O6 Rb2 3.123015 1_555
O6 Rb3 3.123015 1_555
O7 Pr0 2.397128 1_654
O7 Pr3 2.449822 1_655
O7 Rb3 2.754360 1_555
O7 Rb7 3.004990 1_654
O7 Rb1 3.074830 1_555
O7 Rb4 3.131723 1_554
O8 Pr1 2.397120 1_545
O8 Pr2 2.449829 1_555
O8 Rb2 2.754352 1_555
O8 Rb1 3.004999 1_545
O8 Rb7 3.074838 1_555
O8 Rb5 3.131720 1_545
O9 Pr0 2.397125 1_565
O9 Pr3 2.449828 1_565
O9 Rb3 2.754362 1_555
O9 Rb7 3.004987 1_565
O9 Rb1 3.074832 1_555
O9 Rb4 3.131718 1_555
O10 Pr1 2.397128 1_456
O10 Pr2 2.449822 1_556
O10 Rb2 2.754360 1_555
O10 Rb1 3.004990 1_456
O10 Rb7 3.074830 1_555
O10 Rb5 3.131723 1_455
O11 Pr2 2.432002 1_555
O11 Pr3 2.432002 1_555
O11 Rb1 2.818523 1_455
O11 Rb7 2.818523 1_555
O11 Rb5 3.123015 1_455
O11 Rb4 3.123015 1_455
