# generated using pymatgen
data_TiCrO3
_symmetry_space_group_name_H-M   'P 1'
_cell_length_a   5.20941500
_cell_length_b   5.23251386
_cell_length_c   14.20909848
_cell_angle_alpha   92.12796905
_cell_angle_beta   90.62049100
_cell_angle_gamma   119.69751224
_symmetry_Int_Tables_number   1
_chemical_formula_structural   TiCrO3
_chemical_formula_sum   'Ti6 Cr6 O18'
_cell_volume   336.02093158
_cell_formula_units_Z   6
loop_
 _symmetry_equiv_pos_site_id
 _symmetry_equiv_pos_as_xyz
  1  'x, y, z'
loop_
 _atom_site_type_symbol
 _atom_site_label
 _atom_site_symmetry_multiplicity
 _atom_site_fract_x
 _atom_site_fract_y
 _atom_site_fract_z
 _atom_site_occupancy
  Ti  Ti0  1  0.34070800  0.66839600  0.15171000  1
  Ti  Ti1  1  0.00480900  0.99215100  0.20008100  1
  Ti  Ti2  1  0.00798700  0.00603600  0.69987900  1
  Ti  Ti3  1  0.31220800  0.66042200  0.36616600  1
  Ti  Ti4  1  0.67180600  0.34840800  0.65176900  1
  Ti  Ti5  1  0.65342900  0.31306300  0.86649800  1
  Cr  Cr0  1  0.33063300  0.65452100  0.85139300  1
  Cr  Cr1  1  0.00159500  0.99479500  0.99398200  1
  Cr  Cr2  1  0.99083700  0.00491500  0.49389200  1
  Cr  Cr3  1  0.34217500  0.68361100  0.64603400  1
  Cr  Cr4  1  0.67763800  0.33434200  0.14653400  1
  Cr  Cr5  1  0.65036000  0.32115200  0.35211400  1
  O  O0  1  0.98001100  0.29693600  0.59635300  1
  O  O1  1  0.96283700  0.29383700  0.91716300  1
  O  O2  1  0.37059500  0.34170500  0.75703300  1
  O  O3  1  0.72504800  0.70511100  0.59606100  1
  O  O4  1  0.67975700  0.65196800  0.91901600  1
  O  O5  1  0.00695300  0.65749200  0.74748300  1
  O  O6  1  0.66545000  0.02802400  0.74111300  1
  O  O7  1  0.30353800  0.05209100  0.59564900  1
  O  O8  1  0.33803000  0.00918100  0.91936600  1
  O  O9  1  0.69662000  0.97003000  0.09667500  1
  O  O10  1  0.64635200  0.97084900  0.41983300  1
  O  O11  1  0.33718700  0.97114900  0.25900000  1
  O  O12  1  0.01959800  0.36148800  0.24289200  1
  O  O13  1  0.28938000  0.30369200  0.09633900  1
  O  O14  1  0.29191600  0.33660500  0.41574600  1
  O  O15  1  0.65296300  0.65562300  0.24474900  1
  O  O16  1  0.00047100  0.67249800  0.42007600  1
  O  O17  1  0.04867800  0.73971000  0.09540200  1
loop_
_geom_bond_atom_site_label_1
_geom_bond_atom_site_label_2
_geom_bond_distance
_geom_bond_site_symmetry_2
Cr0 O8 2.042893 1_565
Cr0 O4 2.053873 1_555
Cr0 O1 2.166355 1_455
Cr0 O2 2.168147 1_555
Cr0 O5 2.235435 1_555
Cr0 O6 2.495241 1_565
Cr1 O4 2.000725 1_455
Cr1 O1 2.028724 1_465
Cr1 O8 2.029016 1_565
Cr1 O13 2.086275 1_566
Cr1 O17 2.092362 1_556
Cr1 O9 2.128461 1_456
Cr2 O10 1.996951 1_545
Cr2 O16 2.019952 1_645
Cr2 O14 2.046656 1_655
Cr2 O7 2.080660 1_655
Cr2 O0 2.092730 1_555
Cr2 O3 2.132145 1_545
Cr3 O0 2.057738 1_455
Cr3 O3 2.075895 1_555
Cr3 O6 2.161426 1_565
Cr3 O7 2.180471 1_565
Cr3 O5 2.231338 1_555
Cr3 O2 2.485360 1_555
Cr4 O9 2.057556 1_545
Cr4 O13 2.064985 1_555
Cr4 O12 2.179499 1_655
Cr4 O15 2.198629 1_555
Cr4 O17 2.201260 1_655
Cr4 O11 2.501617 1_545
Cr5 O16 2.036300 1_655
Cr5 O10 2.092742 1_545
Cr5 O14 2.119320 1_555
Cr5 O11 2.139855 1_545
Cr5 O15 2.359165 1_555
Cr5 O12 2.416550 1_655
O0 Ti4 1.926266 1_555
O0 Ti2 2.209855 1_655
O1 Ti5 1.807569 1_555
O2 Ti2 1.971322 1_555
O2 Ti4 2.168120 1_555
O2 Ti5 2.190686 1_555
O3 Ti4 1.946453 1_555
O3 Ti2 2.075755 1_665
O4 Ti5 1.838172 1_555
O5 Ti2 1.966118 1_565
O5 Ti4 2.121535 1_455
O5 Ti5 2.550417 1_455
O6 Ti2 1.939515 1_655
O6 Ti4 2.127685 1_555
O6 Ti5 2.302208 1_555
O7 Ti4 1.910002 1_555
O7 Ti2 2.080926 1_555
O8 Ti5 1.821821 1_555
O9 Ti0 1.940042 1_555
O9 Ti1 2.121788 1_655
O10 Ti3 1.824181 1_555
O11 Ti1 1.968503 1_555
O11 Ti0 2.164262 1_555
O11 Ti3 2.226581 1_555
O12 Ti1 1.968482 1_545
O12 Ti0 2.143709 1_555
O12 Ti3 2.283547 1_555
O13 Ti0 1.926277 1_555
O13 Ti1 2.204369 1_545
O14 Ti3 1.814160 1_555
O15 Ti1 1.942505 1_655
O15 Ti0 2.113268 1_555
O15 Ti3 2.497082 1_555
O16 Ti3 1.831137 1_555
O17 Ti0 1.911030 1_555
O17 Ti1 2.042035 1_555
