# generated using pymatgen
data_Li5V3P8O29
_symmetry_space_group_name_H-M   'P 1'
_cell_length_a   9.79153500
_cell_length_b   9.80852725
_cell_length_c   13.98905026
_cell_angle_alpha   89.87214206
_cell_angle_beta   89.87855246
_cell_angle_gamma   60.06776256
_symmetry_Int_Tables_number   1
_chemical_formula_structural   Li5V3P8O29
_chemical_formula_sum   'Li10 V6 P16 O58'
_cell_volume   1164.30888588
_cell_formula_units_Z   2
loop_
 _symmetry_equiv_pos_site_id
 _symmetry_equiv_pos_as_xyz
  1  'x, y, z'
loop_
 _atom_site_type_symbol
 _atom_site_label
 _atom_site_symmetry_multiplicity
 _atom_site_fract_x
 _atom_site_fract_y
 _atom_site_fract_z
 _atom_site_occupancy
  Li  Li0  1  0.22637100  0.09149800  0.93895300  1
  Li  Li1  1  0.09429500  0.22707600  0.44158200  1
  Li  Li2  1  0.67780200  0.09387400  0.44234300  1
  Li  Li3  1  0.68054700  0.22964500  0.93734100  1
  Li  Li4  1  0.09871200  0.67420500  0.93789500  1
  Li  Li5  1  0.77208900  0.32629200  0.56493200  1
  Li  Li6  1  0.22861400  0.67679500  0.44215200  1
  Li  Li7  1  0.32390800  0.90223900  0.56407700  1
  Li  Li8  1  0.90268300  0.77115400  0.56533700  1
  Li  Li9  1  0.77239200  0.90924000  0.05712700  1
  V  V0  1  0.56753800  0.43363800  0.75228900  1
  V  V1  1  0.43364000  0.56704600  0.24592900  1
  V  V2  1  0.99830900  0.43246600  0.24533000  1
  V  V3  1  0.00050600  0.56659600  0.75218500  1
  V  V4  1  0.43081800  0.99889100  0.75014400  1
  V  V5  1  0.56582200  0.00108400  0.25015300  1
  P  P0  1  0.23176500  0.08708100  0.15772400  1
  P  P1  1  0.08732800  0.23354600  0.65669200  1
  P  P2  1  0.67913200  0.08890000  0.65879200  1
  P  P3  1  0.33398400  0.33182800  0.87334800  1
  P  P4  1  0.33153600  0.33592700  0.37125900  1
  P  P5  1  0.68298200  0.22995800  0.15635800  1
  P  P6  1  0.76858400  0.31898700  0.34082700  1
  P  P7  1  0.08792200  0.68249400  0.15920400  1
  P  P8  1  0.91485800  0.31626200  0.84148000  1
  P  P9  1  0.23320100  0.67896500  0.65757900  1
  P  P10  1  0.31654600  0.76882500  0.84178000  1
  P  P11  1  0.66693500  0.66715000  0.62598400  1
  P  P12  1  0.66749900  0.66731100  0.12787700  1
  P  P13  1  0.31984100  0.91007200  0.34109900  1
  P  P14  1  0.91172100  0.76730700  0.34260500  1
  P  P15  1  0.76758800  0.91175900  0.84169600  1
  O  O0  1  0.23855200  0.99692800  0.43063200  1
  O  O1  1  0.25207700  0.08227200  0.65854500  1
  O  O2  1  0.00832400  0.23156100  0.92663500  1
  O  O3  1  0.08563200  0.25630000  0.16948500  1
  O  O4  1  0.38142100  0.09882500  0.17736700  1
  O  O5  1  0.32478700  0.18682000  0.83250300  1
  O  O6  1  0.51941900  0.09912700  0.67501800  1
  O  O7  1  0.75732700  0.00154000  0.93123300  1
  O  O8  1  0.66425500  0.08236300  0.16122000  1
  O  O9  1  0.18238400  0.33268200  0.32974600  1
  O  O10  1  0.10047600  0.38027000  0.67363700  1
  O  O11  1  0.48554600  0.18938000  0.33257800  1
  O  O12  1  0.33381800  0.33273800  0.98031000  1
  O  O13  1  0.32676000  0.34193200  0.47757400  1
  O  O14  1  0.48948200  0.32351300  0.83310100  1
  O  O15  1  0.09677100  0.52118700  0.17675200  1
  O  O16  1  0.18742100  0.48793100  0.83342600  1
  O  O17  1  0.66384500  0.25374100  0.65976500  1
  O  O18  1  0.79048100  0.21073200  0.24904700  1
  O  O19  1  0.75931500  0.24130200  0.43097700  1
  O  O20  1  0.75247400  0.24367600  0.06566100  1
  O  O21  1  0.52084200  0.38142300  0.17889500  1
  O  O22  1  0.32836700  0.48873600  0.32874700  1
  O  O23  1  0.74740500  0.33629400  0.84098400  1
  O  O24  1  0.38064900  0.51936500  0.67456200  1
  O  O25  1  0.08224800  0.66466000  0.66085300  1
  O  O26  1  0.99352500  0.21385500  0.74507500  1
  O  O27  1  0.00124300  0.24016400  0.56573800  1
  O  O28  1  0.00033900  0.75677500  0.43205700  1
  O  O29  1  0.91628500  0.33866000  0.33958400  1
  O  O30  1  0.61677700  0.47820400  0.32275300  1
  O  O31  1  0.25582800  0.65859400  0.16430700  1
  O  O32  1  0.67594600  0.51238900  0.66653800  1
  O  O33  1  0.47880500  0.61927400  0.82446400  1
  O  O34  1  0.22994500  0.76227800  0.92700100  1
  O  O35  1  0.23934700  0.75776500  0.56611300  1
  O  O36  1  0.21401100  0.79249600  0.74534000  1
  O  O37  1  0.33642800  0.74342600  0.33809200  1
  O  O38  1  0.81617900  0.51803400  0.17510600  1
  O  O39  1  0.90236300  0.47889500  0.82332800  1
  O  O40  1  0.52054100  0.66389400  0.17439900  1
  O  O41  1  0.67128800  0.65965300  0.02249200  1
  O  O42  1  0.66615400  0.66822300  0.51876300  1
  O  O43  1  0.51023700  0.81281900  0.66607000  1
  O  O44  1  0.90407900  0.61688900  0.32249700  1
  O  O45  1  0.81185000  0.67708900  0.66667600  1
  O  O46  1  0.33696300  0.91616200  0.84042100  1
  O  O47  1  0.21082400  0.99770700  0.24924300  1
  O  O48  1  0.23436500  0.01063100  0.06670700  1
  O  O49  1  0.48032500  0.89798300  0.32477500  1
  O  O50  1  0.67247600  0.81398800  0.16734700  1
  O  O51  1  0.61993500  0.89881100  0.82418700  1
  O  O52  1  0.91798400  0.74776100  0.84236000  1
  O  O53  1  0.00063100  0.75791100  0.06950800  1
  O  O54  1  0.99958200  0.79062900  0.25058000  1
  O  O55  1  0.74620500  0.91577000  0.34097200  1
  O  O56  1  0.75963700  0.00108600  0.56855600  1
  O  O57  1  0.78968800  0.99985600  0.74983400  1
loop_
_geom_bond_atom_site_label_1
_geom_bond_atom_site_label_2
_geom_bond_distance
_geom_bond_site_symmetry_2
Li0 O2 1.883811 1_555
Li0 O48 1.939461 1_556
Li0 O46 2.043511 1_545
Li0 O5 2.215204 1_555
Li1 O27 1.934100 1_555
Li1 O0 1.983204 1_545
Li1 O29 2.090845 1_455
Li1 O9 2.267855 1_555
Li2 O56 1.964376 1_555
Li2 O19 1.975750 1_555
Li2 O55 2.085840 1_545
Li2 O11 2.241663 1_555
Li3 O20 1.959701 1_556
Li3 O7 1.974923 1_555
Li3 O23 2.003281 1_555
Li3 O14 2.181902 1_555
Li4 O34 1.878030 1_555
Li4 O52 2.041990 1_455
Li4 O53 2.049041 1_556
Li4 O16 2.156666 1_555
Li5 O27 1.963857 1_655
Li5 O17 2.032775 1_555
Li5 O19 2.081853 1_555
Li5 O32 2.128249 1_555
Li6 O35 1.933674 1_555
Li6 O28 1.970354 1_555
Li6 O37 2.082878 1_555
Li6 O22 2.254277 1_555
Li7 O35 1.965987 1_555
Li7 O1 2.031348 1_565
Li7 O0 2.066438 1_555
Li7 O43 2.131229 1_555
Li8 O56 1.974329 1_565
Li8 O25 2.034387 1_655
Li8 O28 2.066267 1_655
Li8 O45 2.111801 1_555
Li9 O7 1.950307 1_564
Li9 O53 1.979316 1_655
Li9 O8 2.082118 1_565
Li9 O50 2.259807 1_555
O0 P13 1.500619 1_555
O1 P1 1.554305 1_555
O1 V4 1.987523 1_545
O2 P8 1.479274 1_455
O3 P0 1.568279 1_555
O3 V2 1.836428 1_455
O4 P0 1.551245 1_555
O4 V5 1.868667 1_555
O5 P3 1.577731 1_555
O5 V4 1.974244 1_545
O6 P2 1.532714 1_555
O6 V4 1.914793 1_545
O7 P15 1.506828 1_545
O8 P5 1.548701 1_555
O8 V5 1.967117 1_555
O9 P4 1.587819 1_555
O9 V2 1.960724 1_455
O10 P1 1.526582 1_555
O10 V3 1.929958 1_555
O11 P4 1.571573 1_555
O11 V5 1.978722 1_555
O12 P3 1.496336 1_555
O13 P4 1.488255 1_555
O14 P3 1.585714 1_555
O14 V0 1.960519 1_555
O15 P7 1.559687 1_555
O15 V2 1.853837 1_455
O16 P3 1.588240 1_555
O16 V3 1.957593 1_555
O17 P2 1.547694 1_555
O17 V0 2.005629 1_555
O18 P6 1.612327 1_555
O18 P5 1.622142 1_555
O19 P6 1.497828 1_555
O20 P5 1.475738 1_555
O21 P5 1.572643 1_555
O21 V1 1.837428 1_555
O22 P4 1.597128 1_555
O22 V1 1.943148 1_555
O23 P8 1.550986 1_555
O23 V0 1.969445 1_555
O24 P9 1.528323 1_555
O24 V0 1.925296 1_555
O25 P9 1.553415 1_555
O25 V3 1.989128 1_555
O26 P1 1.606462 1_655
O26 P8 1.628048 1_555
O27 P1 1.511018 1_555
O28 P14 1.498009 1_455
O29 P6 1.551600 1_555
O29 V2 1.989390 1_555
O30 P6 1.547741 1_555
O30 V1 1.890621 1_555
O31 P7 1.542330 1_555
O31 V1 1.893408 1_555
O32 P11 1.580061 1_555
O32 V0 1.992757 1_555
O33 P10 1.552026 1_555
O33 V0 1.874939 1_555
O34 P10 1.481255 1_555
O35 P9 1.509924 1_555
O36 P9 1.605893 1_555
O36 P10 1.629010 1_555
O37 P13 1.560531 1_555
O37 V1 1.980566 1_555
O38 P12 1.603833 1_555
O38 V2 1.832978 1_555
O39 P8 1.558089 1_555
O39 V3 1.863057 1_655
O40 P12 1.593513 1_555
O40 V1 1.851070 1_555
O41 P12 1.475761 1_555
O42 P11 1.499942 1_555
O43 P11 1.588155 1_555
O43 V4 1.976937 1_555
O44 P14 1.540643 1_555
O44 V2 1.904649 1_555
O45 P11 1.577545 1_555
O45 V3 2.005842 1_655
O46 P10 1.554666 1_555
O46 V4 1.957693 1_555
O47 P13 1.617000 1_555
O47 P0 1.619522 1_565
O48 P0 1.472806 1_555
O49 P13 1.532355 1_555
O49 V5 1.910397 1_565
O50 P12 1.565466 1_555
O50 V5 1.972810 1_565
O51 P15 1.533359 1_555
O51 V4 1.911809 1_555
O52 P15 1.546682 1_555
O52 V3 1.993636 1_655
O53 P7 1.490505 1_555
O54 P7 1.610256 1_655
O54 P14 1.624829 1_555
O55 P14 1.546743 1_555
O55 V5 1.990906 1_565
O56 P2 1.509887 1_555
O57 P2 1.616799 1_565
O57 P15 1.620293 1_555
