# generated using pymatgen
data_TlAsO4
_symmetry_space_group_name_H-M   'P 1'
_cell_length_a   4.80186500
_cell_length_b   4.81874200
_cell_length_c   14.38177155
_cell_angle_alpha   89.62165664
_cell_angle_beta   90.00000000
_cell_angle_gamma   90.00000000
_symmetry_Int_Tables_number   1
_chemical_formula_structural   TlAsO4
_chemical_formula_sum   'Tl4 As4 O16'
_cell_volume   332.77181679
_cell_formula_units_Z   4
loop_
 _symmetry_equiv_pos_site_id
 _symmetry_equiv_pos_as_xyz
  1  'x, y, z'
loop_
 _atom_site_type_symbol
 _atom_site_label
 _atom_site_symmetry_multiplicity
 _atom_site_fract_x
 _atom_site_fract_y
 _atom_site_fract_z
 _atom_site_occupancy
  Tl  Tl0  1  0.48183700  0.26388000  0.64657800  1
  Tl  Tl1  1  0.98183700  0.73612000  0.85342200  1
  Tl  Tl2  1  0.51816300  0.73612000  0.35342200  1
  Tl  Tl3  1  0.01816300  0.26388000  0.14657800  1
  As  As0  1  0.98150800  0.75998100  0.61499200  1
  As  As1  1  0.48150800  0.24001900  0.88500800  1
  As  As2  1  0.01849200  0.24001900  0.38500800  1
  As  As3  1  0.51849200  0.75998100  0.11499200  1
  O  O0  1  0.22116400  0.96712900  0.55890200  1
  O  O1  1  0.72116400  0.03287100  0.94109800  1
  O  O2  1  0.77883600  0.03287100  0.44109800  1
  O  O3  1  0.27883600  0.96712900  0.05890200  1
  O  O4  1  0.75607400  0.54429200  0.55597500  1
  O  O5  1  0.25607400  0.45570800  0.94402500  1
  O  O6  1  0.24392600  0.45570800  0.44402500  1
  O  O7  1  0.74392600  0.54429200  0.05597500  1
  O  O8  1  0.16324900  0.55441100  0.69511800  1
  O  O9  1  0.66324900  0.44558900  0.80488200  1
  O  O10  1  0.83675100  0.44558900  0.30488200  1
  O  O11  1  0.33675100  0.55441100  0.19511800  1
  O  O12  1  0.78870800  0.95681600  0.69276900  1
  O  O13  1  0.28870800  0.04318400  0.80723100  1
  O  O14  1  0.21129200  0.04318400  0.30723100  1
  O  O15  1  0.71129200  0.95681600  0.19276900  1
loop_
_geom_bond_atom_site_label_1
_geom_bond_atom_site_label_2
_geom_bond_distance
_geom_bond_site_symmetry_2
As0 O0 1.720700 1_655
As0 O4 1.727461 1_555
As0 O12 1.738380 1_555
As0 O8 1.748058 1_655
As1 O1 1.720700 1_555
As1 O5 1.727461 1_555
As1 O13 1.738380 1_555
As1 O9 1.748058 1_555
As2 O2 1.720700 1_455
As2 O6 1.727461 1_555
As2 O14 1.738380 1_555
As2 O10 1.748058 1_455
As3 O3 1.720700 1_555
As3 O7 1.727461 1_555
As3 O15 1.738380 1_555
As3 O11 1.748058 1_555
O0 Tl0 2.285907 1_565
O1 Tl1 2.285907 1_545
O2 Tl2 2.285907 1_545
O3 Tl3 2.285907 1_565
O4 Tl0 2.287916 1_555
O5 Tl1 2.287916 1_455
O6 Tl2 2.287916 1_555
O7 Tl3 2.287916 1_655
O8 Tl0 2.191018 1_555
O8 Tl1 2.595224 1_455
O9 Tl1 2.191018 1_555
O9 Tl0 2.595224 1_555
O10 Tl2 2.191018 1_555
O10 Tl3 2.595224 1_655
O11 Tl3 2.191018 1_555
O11 Tl2 2.595224 1_555
O12 Tl0 2.188397 1_565
O12 Tl1 2.701270 1_555
O13 Tl1 2.188397 1_445
O13 Tl0 2.701270 1_555
O14 Tl2 2.188397 1_545
O14 Tl3 2.701270 1_555
O15 Tl3 2.188397 1_665
O15 Tl2 2.701270 1_555
