# generated using pymatgen
data_Li4AlCr3O8
_symmetry_space_group_name_H-M   'P 1'
_cell_length_a   5.05924560
_cell_length_b   5.14153689
_cell_length_c   11.71843613
_cell_angle_alpha   90.00000429
_cell_angle_beta   90.00000919
_cell_angle_gamma   70.83230158
_symmetry_Int_Tables_number   1
_chemical_formula_structural   Li4AlCr3O8
_chemical_formula_sum   'Li8 Al2 Cr6 O16'
_cell_volume   287.92453418
_cell_formula_units_Z   2
loop_
 _symmetry_equiv_pos_site_id
 _symmetry_equiv_pos_as_xyz
  1  'x, y, z'
loop_
 _atom_site_type_symbol
 _atom_site_label
 _atom_site_symmetry_multiplicity
 _atom_site_fract_x
 _atom_site_fract_y
 _atom_site_fract_z
 _atom_site_occupancy
  Li  Li0  1  0.50000800  0.00000100  0.12499700  1
  Li  Li1  1  0.50000400  0.99999800  0.62499600  1
  Li  Li2  1  0.50000300  0.99999500  0.37499400  1
  Li  Li3  1  0.50000400  0.00000700  0.87499400  1
  Li  Li4  1  0.00000100  0.00000400  0.00130200  1
  Li  Li5  1  0.00000400  0.99999500  0.50130600  1
  Li  Li6  1  0.99999800  0.99999800  0.24868200  1
  Li  Li7  1  0.00000400  0.99999900  0.74868500  1
  Al  Al0  1  0.99997800  0.50000000  0.12499800  1
  Al  Al1  1  0.00000700  0.49999800  0.62500600  1
  Cr  Cr0  1  0.99994000  0.50000200  0.87501700  1
  Cr  Cr1  1  0.50005200  0.50002800  0.50114400  1
  Cr  Cr2  1  0.50003300  0.49999600  0.24886100  1
  Cr  Cr3  1  0.00007200  0.49994600  0.37500500  1
  Cr  Cr4  1  0.49985900  0.50004600  0.00116100  1
  Cr  Cr5  1  0.49999400  0.49996800  0.74884000  1
  O  O0  1  0.24582400  0.72007600  0.12501400  1
  O  O1  1  0.24583800  0.72005900  0.62499400  1
  O  O2  1  0.75415600  0.27995700  0.12500600  1
  O  O3  1  0.75417700  0.27993800  0.62499600  1
  O  O4  1  0.26006900  0.72840700  0.37499300  1
  O  O5  1  0.26007600  0.72842500  0.87498900  1
  O  O6  1  0.73992600  0.27158100  0.37499200  1
  O  O7  1  0.73992400  0.27161400  0.87499500  1
  O  O8  1  0.23431200  0.27887900  0.00477900  1
  O  O9  1  0.23431600  0.27887900  0.50477300  1
  O  O10  1  0.23431300  0.27887300  0.24523300  1
  O  O11  1  0.23431900  0.27887800  0.74523200  1
  O  O12  1  0.76570100  0.72111400  0.00477700  1
  O  O13  1  0.76569800  0.72111700  0.50477200  1
  O  O14  1  0.76569200  0.72111000  0.24523600  1
  O  O15  1  0.76570300  0.72111100  0.74523200  1
loop_
_geom_bond_atom_site_label_1
_geom_bond_atom_site_label_2
_geom_bond_distance
_geom_bond_site_symmetry_2
Li0 O8 2.140522 1_555
Li0 O12 2.140553 1_545
Li0 O10 2.140644 1_555
Li0 O14 2.140690 1_545
Li0 O2 2.222725 1_555
Li0 O0 2.222736 1_545
Li1 O9 2.140551 1_565
Li1 O13 2.140571 1_555
Li1 O11 2.140643 1_565
Li1 O15 2.140688 1_555
Li1 O1 2.222724 1_555
Li1 O3 2.222757 1_565
Li2 O6 2.129848 1_565
Li2 O4 2.129900 1_555
Li2 O14 2.215700 1_555
Li2 O10 2.215709 1_565
Li2 O13 2.215856 1_555
Li2 O9 2.215862 1_565
Li3 O5 2.129850 1_545
Li3 O7 2.129927 1_555
Li3 O11 2.215691 1_555
Li3 O15 2.215777 1_545
Li3 O8 2.215893 1_556
Li3 O12 2.215935 1_546
Li4 O0 2.131771 1_545
Li4 O2 2.131810 1_455
Li4 O8 2.139859 1_555
Li4 O12 2.139881 1_445
Li4 O5 2.159981 1_544
Li4 O7 2.160008 1_454
Li5 O1 2.131620 1_555
Li5 O3 2.131640 1_465
Li5 O13 2.139850 1_455
Li5 O9 2.139900 1_565
Li5 O4 2.159982 1_555
Li5 O6 2.160011 1_465
Li6 O0 2.131411 1_655
Li6 O2 2.131596 1_565
Li6 O10 2.139869 1_665
Li6 O14 2.139890 1_555
Li6 O6 2.159960 1_565
Li6 O4 2.159985 1_655
Li7 O3 2.131622 1_465
Li7 O1 2.131654 1_555
Li7 O15 2.139872 1_455
Li7 O11 2.139887 1_565
Li7 O5 2.159891 1_555
Li7 O7 2.160050 1_465
Al0 O2 1.936662 1_555
Al0 O0 1.936898 1_655
Al0 O12 1.948637 1_555
Al0 O8 1.948755 1_655
Al0 O14 1.948793 1_555
Al0 O10 1.948904 1_655
Al1 O3 1.936765 1_455
Al1 O1 1.936773 1_555
Al1 O15 1.948735 1_455
Al1 O11 1.948765 1_555
Al1 O9 1.948817 1_555
Al1 O13 1.948825 1_455
Cr0 O7 2.030708 1_555
Cr0 O12 2.030841 1_556
Cr0 O15 2.031050 1_555
Cr0 O8 2.031148 1_656
Cr0 O5 2.031359 1_655
Cr0 O11 2.031366 1_655
Cr1 O3 2.021026 1_555
Cr1 O1 2.021106 1_555
Cr1 O6 2.025275 1_555
Cr1 O4 2.025357 1_555
Cr1 O13 2.025697 1_555
Cr1 O9 2.026323 1_555
Cr2 O2 2.020955 1_555
Cr2 O0 2.021158 1_555
Cr2 O6 2.025071 1_555
Cr2 O4 2.025219 1_555
Cr2 O14 2.025852 1_555
Cr2 O10 2.026150 1_555
Cr3 O9 2.030836 1_555
Cr3 O10 2.030876 1_555
Cr3 O4 2.030924 1_555
Cr3 O6 2.031165 1_455
Cr3 O13 2.031287 1_455
Cr3 O14 2.031303 1_455
Cr4 O0 2.020720 1_555
Cr4 O2 2.021359 1_555
Cr4 O5 2.025123 1_554
Cr4 O8 2.025582 1_555
Cr4 O7 2.025760 1_554
Cr4 O12 2.026450 1_555
Cr5 O3 2.020983 1_555
Cr5 O1 2.021048 1_555
Cr5 O7 2.025233 1_555
Cr5 O5 2.025360 1_555
Cr5 O11 2.025820 1_555
Cr5 O15 2.026178 1_555
