# generated using pymatgen
data_Be3Fe4Si3SeO12
_symmetry_space_group_name_H-M   'P 1'
_cell_length_a   8.36509200
_cell_length_b   8.36509200
_cell_length_c   8.36509200
_cell_angle_alpha   90.00000000
_cell_angle_beta   90.00000000
_cell_angle_gamma   90.00000000
_symmetry_Int_Tables_number   1
_chemical_formula_structural   Be3Fe4Si3SeO12
_chemical_formula_sum   'Be6 Fe8 Si6 Se2 O24'
_cell_volume   585.34533995
_cell_formula_units_Z   2
loop_
 _symmetry_equiv_pos_site_id
 _symmetry_equiv_pos_as_xyz
  1  'x, y, z'
loop_
 _atom_site_type_symbol
 _atom_site_label
 _atom_site_symmetry_multiplicity
 _atom_site_fract_x
 _atom_site_fract_y
 _atom_site_fract_z
 _atom_site_occupancy
  Be  Be0  1  0.50000000  0.25000000  0.00000000  1
  Be  Be1  1  0.75000000  0.00000000  0.50000000  1
  Be  Be2  1  0.00000000  0.50000000  0.25000000  1
  Be  Be3  1  0.00000000  0.50000000  0.75000000  1
  Be  Be4  1  0.50000000  0.75000000  0.00000000  1
  Be  Be5  1  0.25000000  0.00000000  0.50000000  1
  Fe  Fe0  1  0.17542100  0.17542100  0.17542100  1
  Fe  Fe1  1  0.32457900  0.67542100  0.32457900  1
  Fe  Fe2  1  0.17542100  0.82457900  0.82457900  1
  Fe  Fe3  1  0.82457900  0.17542100  0.82457900  1
  Fe  Fe4  1  0.32457900  0.32457900  0.67542100  1
  Fe  Fe5  1  0.67542100  0.32457900  0.32457900  1
  Fe  Fe6  1  0.67542100  0.67542100  0.67542100  1
  Fe  Fe7  1  0.82457900  0.82457900  0.17542100  1
  Si  Si0  1  0.50000000  0.00000000  0.75000000  1
  Si  Si1  1  0.00000000  0.75000000  0.50000000  1
  Si  Si2  1  0.00000000  0.25000000  0.50000000  1
  Si  Si3  1  0.50000000  0.00000000  0.25000000  1
  Si  Si4  1  0.25000000  0.50000000  0.00000000  1
  Si  Si5  1  0.75000000  0.50000000  0.00000000  1
  Se  Se0  1  0.00000000  0.00000000  0.00000000  1
  Se  Se1  1  0.50000000  0.50000000  0.50000000  1
  O  O0  1  0.35607300  0.35960800  0.91408600  1
  O  O1  1  0.85607300  0.41408600  0.85960800  1
  O  O2  1  0.35960800  0.08591400  0.64392700  1
  O  O3  1  0.64039200  0.08591400  0.35607300  1
  O  O4  1  0.64039200  0.91408600  0.64392700  1
  O  O5  1  0.08591400  0.64392700  0.35960800  1
  O  O6  1  0.85960800  0.14392700  0.58591400  1
  O  O7  1  0.85607300  0.58591400  0.14039200  1
  O  O8  1  0.08591400  0.35607300  0.64039200  1
  O  O9  1  0.14392700  0.58591400  0.85960800  1
  O  O10  1  0.58591400  0.14039200  0.85607300  1
  O  O11  1  0.64392700  0.64039200  0.91408600  1
  O  O12  1  0.91408600  0.35607300  0.35960800  1
  O  O13  1  0.35607300  0.64039200  0.08591400  1
  O  O14  1  0.41408600  0.14039200  0.14392700  1
  O  O15  1  0.14039200  0.85607300  0.58591400  1
  O  O16  1  0.64392700  0.35960800  0.08591400  1
  O  O17  1  0.14039200  0.14392700  0.41408600  1
  O  O18  1  0.58591400  0.85960800  0.14392700  1
  O  O19  1  0.14392700  0.41408600  0.14039200  1
  O  O20  1  0.41408600  0.85960800  0.85607300  1
  O  O21  1  0.91408600  0.64392700  0.64039200  1
  O  O22  1  0.85960800  0.85607300  0.41408600  1
  O  O23  1  0.35960800  0.91408600  0.35607300  1
loop_
_geom_bond_atom_site_label_1
_geom_bond_atom_site_label_2
_geom_bond_distance
_geom_bond_site_symmetry_2
Be0 O16 1.675320 1_555
Be0 O10 1.675320 1_554
Be0 O0 1.675320 1_554
Be0 O14 1.675320 1_555
Be1 O6 1.675320 1_555
Be1 O4 1.675320 1_545
Be1 O3 1.675320 1_555
Be1 O22 1.675320 1_545
Be2 O5 1.675320 1_555
Be2 O7 1.675320 1_455
Be2 O12 1.675320 1_455
Be2 O19 1.675320 1_555
Be3 O9 1.675320 1_555
Be3 O21 1.675320 1_455
Be3 O8 1.675320 1_555
Be3 O1 1.675320 1_455
Be4 O18 1.675320 1_555
Be4 O11 1.675320 1_554
Be4 O13 1.675320 1_555
Be4 O20 1.675320 1_554
Be5 O2 1.675320 1_555
Be5 O15 1.675320 1_545
Be5 O23 1.675320 1_545
Be5 O17 1.675320 1_555
Fe0 O19 2.034969 1_555
Fe0 O14 2.034969 1_555
Fe0 O17 2.034969 1_555
Fe0 Se0 2.541634 1_555
Fe1 O23 2.034969 1_555
Fe1 O13 2.034969 1_555
Fe1 O5 2.034969 1_555
Fe1 Se1 2.541634 1_555
Fe2 O20 2.034969 1_555
Fe2 O9 2.034969 1_555
Fe2 O15 2.034969 1_555
Fe2 Se0 2.541634 1_566
Fe3 O1 2.034969 1_555
Fe3 O6 2.034969 1_555
Fe3 O10 2.034969 1_555
Fe3 Se0 2.541634 1_656
Fe4 O8 2.034969 1_555
Fe4 O0 2.034969 1_555
Fe4 O2 2.034969 1_555
Fe4 Se1 2.541634 1_555
Fe5 O12 2.034969 1_555
Fe5 O3 2.034969 1_555
Fe5 O16 2.034969 1_555
Fe5 Se1 2.541634 1_555
Fe6 O11 2.034969 1_555
Fe6 O21 2.034969 1_555
Fe6 O4 2.034969 1_555
Fe6 Se1 2.541634 1_555
Fe7 O22 2.034969 1_555
Fe7 O18 2.034969 1_555
Fe7 O7 2.034969 1_555
Fe7 Se0 2.541634 1_665
O0 Si4 1.637991 1_556
O1 Si5 1.637991 1_556
O2 Si0 1.637991 1_555
O3 Si3 1.637991 1_555
O4 Si0 1.637991 1_565
O5 Si1 1.637991 1_555
O6 Si2 1.637991 1_655
O7 Si5 1.637991 1_555
O8 Si2 1.637991 1_555
O9 Si4 1.637991 1_556
O10 Si0 1.637991 1_555
O11 Si5 1.637991 1_556
O12 Si2 1.637991 1_655
O13 Si4 1.637991 1_555
O14 Si3 1.637991 1_555
O15 Si1 1.637991 1_555
O16 Si5 1.637991 1_555
O17 Si2 1.637991 1_555
O18 Si3 1.637991 1_565
O19 Si4 1.637991 1_555
O20 Si0 1.637991 1_565
O21 Si1 1.637991 1_655
O22 Si1 1.637991 1_655
O23 Si3 1.637991 1_565
