# generated using pymatgen
data_LiSi2BiO6
_symmetry_space_group_name_H-M   'P 1'
_cell_length_a   6.88179749
_cell_length_b   6.88179749
_cell_length_c   5.29160246
_cell_angle_alpha   78.64584018
_cell_angle_beta   78.64584018
_cell_angle_gamma   85.93518306
_symmetry_Int_Tables_number   1
_chemical_formula_structural   LiSi2BiO6
_chemical_formula_sum   'Li2 Si4 Bi2 O12'
_cell_volume   240.75792846
_cell_formula_units_Z   2
loop_
 _symmetry_equiv_pos_site_id
 _symmetry_equiv_pos_as_xyz
  1  'x, y, z'
loop_
 _atom_site_type_symbol
 _atom_site_label
 _atom_site_symmetry_multiplicity
 _atom_site_fract_x
 _atom_site_fract_y
 _atom_site_fract_z
 _atom_site_occupancy
  Li  Li0  1  0.91091600  0.08908400  0.25000000  1
  Li  Li1  1  0.08908400  0.91091600  0.75000000  1
  Si  Si0  1  0.80679700  0.62450900  0.23159400  1
  Si  Si1  1  0.62450900  0.80679700  0.73159400  1
  Si  Si2  1  0.37549100  0.19320300  0.26840600  1
  Si  Si3  1  0.19320300  0.37549100  0.76840600  1
  Bi  Bi0  1  0.27218900  0.72781100  0.25000000  1
  Bi  Bi1  1  0.72781100  0.27218900  0.75000000  1
  O  O0  1  0.97794200  0.79165100  0.14558400  1
  O  O1  1  0.79165100  0.97794200  0.64558400  1
  O  O2  1  0.88281600  0.39863300  0.32062500  1
  O  O3  1  0.68240500  0.63949400  0.98695800  1
  O  O4  1  0.39863300  0.88281600  0.82062500  1
  O  O5  1  0.63949400  0.68240500  0.48695800  1
  O  O6  1  0.36050600  0.31759500  0.51304200  1
  O  O7  1  0.60136700  0.11718400  0.17937500  1
  O  O8  1  0.31759500  0.36050600  0.01304200  1
  O  O9  1  0.11718400  0.60136700  0.67937500  1
  O  O10  1  0.20834900  0.02205800  0.35441600  1
  O  O11  1  0.02205800  0.20834900  0.85441600  1
loop_
_geom_bond_atom_site_label_1
_geom_bond_atom_site_label_2
_geom_bond_distance
_geom_bond_site_symmetry_2
Li0 O1 2.102985 1_545
Li0 O11 2.102985 1_654
Li0 O10 2.217848 1_655
Li0 O0 2.217848 1_545
Li0 O2 2.222983 1_555
Li0 O7 2.222983 1_555
Li1 O10 2.102985 1_565
Li1 O0 2.102985 1_456
Li1 O11 2.217848 1_565
Li1 O1 2.217848 1_455
Li1 O4 2.222983 1_555
Li1 O9 2.222983 1_555
Bi0 O10 2.194893 1_565
Bi0 O0 2.194893 1_455
Bi0 O9 2.335858 1_555
Bi0 O4 2.335858 1_554
Bi1 O11 2.194893 1_655
Bi1 O1 2.194893 1_545
Bi1 O7 2.335858 1_556
Bi1 O2 2.335858 1_555
O0 Si0 1.640803 1_555
O1 Si1 1.640803 1_555
O2 Si0 1.614096 1_555
O3 Si0 1.670469 1_556
O3 Si1 1.686618 1_555
O4 Si1 1.614096 1_555
O5 Si1 1.670469 1_555
O5 Si0 1.686618 1_555
O6 Si2 1.670469 1_555
O6 Si3 1.686618 1_555
O7 Si2 1.614096 1_555
O8 Si3 1.670469 1_554
O8 Si2 1.686618 1_555
O9 Si3 1.614096 1_555
O10 Si2 1.640803 1_555
O11 Si3 1.640803 1_555
