# generated using pymatgen
data_LiNiPO4
_symmetry_space_group_name_H-M   'P 1'
_cell_length_a   4.92657600
_cell_length_b   9.85186800
_cell_length_c   14.04872400
_cell_angle_alpha   90.00000000
_cell_angle_beta   90.00000000
_cell_angle_gamma   90.00000000
_symmetry_Int_Tables_number   1
_chemical_formula_structural   LiNiPO4
_chemical_formula_sum   'Li8 Ni8 P8 O32'
_cell_volume   681.86853713
_cell_formula_units_Z   8
loop_
 _symmetry_equiv_pos_site_id
 _symmetry_equiv_pos_as_xyz
  1  'x, y, z'
loop_
 _atom_site_type_symbol
 _atom_site_label
 _atom_site_symmetry_multiplicity
 _atom_site_fract_x
 _atom_site_fract_y
 _atom_site_fract_z
 _atom_site_occupancy
  Li  Li0  1  0.93225600  0.02888500  0.49888300  1
  Li  Li1  1  0.55045200  0.22269600  0.24858400  1
  Li  Li2  1  0.55045200  0.27730400  0.74858400  1
  Li  Li3  1  0.93225600  0.47111500  0.99888300  1
  Li  Li4  1  0.06774400  0.52888500  0.49888300  1
  Li  Li5  1  0.44954800  0.72269600  0.24858400  1
  Li  Li6  1  0.44954800  0.77730400  0.74858400  1
  Li  Li7  1  0.06774400  0.97111500  0.99888300  1
  Ni  Ni0  1  0.04976100  0.03049600  0.24800400  1
  Ni  Ni1  1  0.54367700  0.22440900  0.99875100  1
  Ni  Ni2  1  0.54367700  0.27559100  0.49875100  1
  Ni  Ni3  1  0.04976100  0.46950400  0.74800400  1
  Ni  Ni4  1  0.95023900  0.53049600  0.24800400  1
  Ni  Ni5  1  0.45632300  0.72440900  0.99875100  1
  Ni  Ni6  1  0.45632300  0.77559100  0.49875100  1
  Ni  Ni7  1  0.95023900  0.96950400  0.74800400  1
  P  P0  1  0.43562600  0.02877200  0.62352800  1
  P  P1  1  0.05359200  0.21373300  0.87264000  1
  P  P2  1  0.05359200  0.28626700  0.37264000  1
  P  P3  1  0.43562600  0.47122800  0.12352800  1
  P  P4  1  0.56437400  0.52877200  0.62352800  1
  P  P5  1  0.94640800  0.71373300  0.87264000  1
  P  P6  1  0.94640800  0.78626700  0.37264000  1
  P  P7  1  0.56437400  0.97122800  0.12352800  1
  O  O0  1  0.87435900  0.00019900  0.12301100  1
  O  O1  1  0.55687800  0.96598700  0.53128700  1
  O  O2  1  0.44167400  0.03528100  0.21489800  1
  O  O3  1  0.99015600  0.05935000  0.87293500  1
  O  O4  1  0.49721700  0.18306400  0.62380400  1
  O  O5  1  0.92353900  0.22543300  0.46420700  1
  O  O6  1  0.93917800  0.27968600  0.78065900  1
  O  O7  1  0.36428600  0.23962900  0.87320900  1
  O  O8  1  0.36428600  0.26037100  0.37320900  1
  O  O9  1  0.93917800  0.22031400  0.28065900  1
  O  O10  1  0.92353900  0.27456700  0.96420700  1
  O  O11  1  0.49721700  0.31693600  0.12380400  1
  O  O12  1  0.99015600  0.44065000  0.37293500  1
  O  O13  1  0.44167400  0.46471900  0.71489800  1
  O  O14  1  0.55687800  0.53401300  0.03128700  1
  O  O15  1  0.87435900  0.49980100  0.62301100  1
  O  O16  1  0.12564100  0.50019900  0.12301100  1
  O  O17  1  0.44312200  0.46598700  0.53128700  1
  O  O18  1  0.55832600  0.53528100  0.21489800  1
  O  O19  1  0.00984400  0.55935000  0.87293500  1
  O  O20  1  0.50278300  0.68306400  0.62380400  1
  O  O21  1  0.07646100  0.72543300  0.46420700  1
  O  O22  1  0.06082200  0.77968600  0.78065900  1
  O  O23  1  0.63571400  0.73962900  0.87320900  1
  O  O24  1  0.63571400  0.76037100  0.37320900  1
  O  O25  1  0.06082200  0.72031400  0.28065900  1
  O  O26  1  0.07646100  0.77456700  0.96420700  1
  O  O27  1  0.50278300  0.81693600  0.12380400  1
  O  O28  1  0.00984400  0.94065000  0.37293500  1
  O  O29  1  0.55832600  0.96471900  0.71489800  1
  O  O30  1  0.44312200  0.03401300  0.03128700  1
  O  O31  1  0.12564100  0.99980100  0.62301100  1
loop_
_geom_bond_atom_site_label_1
_geom_bond_atom_site_label_2
_geom_bond_distance
_geom_bond_site_symmetry_2
Li0 O5 1.997166 1_555
Li0 O1 2.002807 1_545
Li0 O31 2.007677 1_645
Li0 O28 2.008124 1_645
Li1 O9 1.967528 1_555
Li1 O2 1.979975 1_555
Li1 O11 2.000948 1_555
Li1 O8 2.011052 1_555
Li2 O6 1.967528 1_555
Li2 O13 1.979975 1_555
Li2 O4 2.000948 1_555
Li2 O7 2.011052 1_555
Li3 O10 1.997166 1_555
Li3 O14 2.002807 1_556
Li3 O16 2.007677 1_656
Li3 O19 2.008124 1_655
Li4 O21 1.997166 1_555
Li4 O17 2.002807 1_555
Li4 O15 2.007677 1_455
Li4 O12 2.008124 1_455
Li5 O25 1.967528 1_555
Li5 O18 1.979975 1_555
Li5 O27 2.000948 1_555
Li5 O24 2.011052 1_555
Li6 O22 1.967528 1_555
Li6 O29 1.979975 1_555
Li6 O20 2.000948 1_555
Li6 O23 2.011052 1_555
Li7 O26 1.997166 1_555
Li7 O30 2.002807 1_566
Li7 O0 2.007677 1_466
Li7 O3 2.008124 1_465
Ni0 O28 1.975504 1_545
Ni0 O0 1.979728 1_455
Ni0 O2 1.986576 1_555
Ni0 O9 2.001099 1_455
Ni1 O7 1.978437 1_555
Ni1 O11 1.992438 1_556
Ni1 O30 1.993190 1_556
Ni1 O10 1.995472 1_555
Ni2 O8 1.978437 1_555
Ni2 O4 1.992438 1_555
Ni2 O17 1.993190 1_555
Ni2 O5 1.995472 1_555
Ni3 O19 1.975504 1_555
Ni3 O15 1.979728 1_455
Ni3 O13 1.986576 1_555
Ni3 O6 2.001099 1_455
Ni4 O12 1.975504 1_555
Ni4 O16 1.979728 1_655
Ni4 O18 1.986576 1_555
Ni4 O25 2.001099 1_655
Ni5 O23 1.978437 1_555
Ni5 O27 1.992438 1_556
Ni5 O14 1.993190 1_556
Ni5 O26 1.995472 1_555
Ni6 O24 1.978437 1_555
Ni6 O20 1.992438 1_555
Ni6 O1 1.993190 1_555
Ni6 O21 1.995472 1_555
Ni7 O3 1.975504 1_565
Ni7 O31 1.979728 1_655
Ni7 O29 1.986576 1_555
Ni7 O22 2.001099 1_655
O0 P7 1.553624 1_545
O1 P0 1.555222 1_565
O2 P7 1.552847 1_545
O3 P1 1.552743 1_655
O4 P0 1.550059 1_555
O5 P2 1.557092 1_655
O6 P1 1.552331 1_655
O7 P1 1.551794 1_555
O8 P2 1.551794 1_555
O9 P2 1.552331 1_655
O10 P1 1.557092 1_655
O11 P3 1.550059 1_555
O12 P2 1.552743 1_655
O13 P4 1.552847 1_555
O14 P3 1.555222 1_555
O15 P4 1.553624 1_555
O16 P3 1.553624 1_555
O17 P4 1.555222 1_555
O18 P3 1.552847 1_555
O19 P5 1.552743 1_455
O20 P4 1.550059 1_555
O21 P6 1.557092 1_455
O22 P5 1.552331 1_455
O23 P5 1.551794 1_555
O24 P6 1.551794 1_555
O25 P6 1.552331 1_455
O26 P5 1.557092 1_455
O27 P7 1.550059 1_555
O28 P6 1.552743 1_455
O29 P0 1.552847 1_565
O30 P7 1.555222 1_545
O31 P0 1.553624 1_565
