# generated using pymatgen
data_LiMnV(P2O7)2
_symmetry_space_group_name_H-M   'P 1'
_cell_length_a   7.03505300
_cell_length_b   8.16343375
_cell_length_c   13.98293180
_cell_angle_alpha   89.89493793
_cell_angle_beta   99.86727526
_cell_angle_gamma   92.03465309
_symmetry_Int_Tables_number   1
_chemical_formula_structural   LiMnV(P2O7)2
_chemical_formula_sum   'Li3 Mn3 V3 P12 O42'
_cell_volume   790.65713508
_cell_formula_units_Z   3
loop_
 _symmetry_equiv_pos_site_id
 _symmetry_equiv_pos_as_xyz
  1  'x, y, z'
loop_
 _atom_site_type_symbol
 _atom_site_label
 _atom_site_symmetry_multiplicity
 _atom_site_fract_x
 _atom_site_fract_y
 _atom_site_fract_z
 _atom_site_occupancy
  Li  Li0  1  0.28297900  0.86327200  0.61089200  1
  Li  Li1  1  0.94789300  0.86310600  0.27661400  1
  Li  Li2  1  0.38656300  0.35803100  0.05780600  1
  Mn  Mn0  1  0.00595900  0.00699200  0.73935200  1
  Mn  Mn1  1  0.67192500  0.00686100  0.40595600  1
  Mn  Mn2  1  0.34696300  0.99293300  0.06874400  1
  V  V0  1  0.65209900  0.50582500  0.92682700  1
  V  V1  1  0.31791200  0.49387800  0.59886300  1
  V  V2  1  0.98489600  0.49539900  0.26577000  1
  P  P0  1  0.38459100  0.17507100  0.86639800  1
  P  P1  1  0.01688300  0.78091700  0.92660500  1
  P  P2  1  0.65244900  0.28626800  0.73870000  1
  P  P3  1  0.28285500  0.67856800  0.79851200  1
  P  P4  1  0.68594800  0.78128000  0.59413900  1
  P  P5  1  0.95012200  0.67938600  0.46596800  1
  P  P6  1  0.05233100  0.17641800  0.53190500  1
  P  P7  1  0.31984000  0.28745400  0.40522300  1
  P  P8  1  0.72056800  0.17707600  0.19788700  1
  P  P9  1  0.35252500  0.78165600  0.26011600  1
  P  P10  1  0.97987200  0.29070300  0.07043400  1
  P  P11  1  0.61736400  0.68201200  0.13371700  1
  O  O0  1  0.82442500  0.33927500  0.98503600  1
  O  O1  1  0.84838700  0.67905800  0.95452000  1
  O  O2  1  0.95681800  0.93212900  0.86682600  1
  O  O3  1  0.41096800  0.03831300  0.94086100  1
  O  O4  1  0.42965300  0.34484800  0.91666900  1
  O  O5  1  0.47595800  0.66239500  0.86980100  1
  O  O6  1  0.71075700  0.44015400  0.80297000  1
  O  O7  1  0.54880600  0.15221100  0.80063500  1
  O  O8  1  0.11759700  0.65239500  0.86384400  1
  O  O9  1  0.81275500  0.20019000  0.70553700  1
  O  O10  1  0.18990800  0.17487100  0.79931800  1
  O  O11  1  0.83070200  0.82527500  0.68527800  1
  O  O12  1  0.26246100  0.84410200  0.75004500  1
  O  O13  1  0.25309800  0.53513100  0.72607600  1
  O  O14  1  0.49615800  0.33601100  0.65209400  1
  O  O15  1  0.50864200  0.68651200  0.61994100  1
  O  O16  1  0.78161600  0.65264500  0.53023500  1
  O  O17  1  0.61881500  0.93212700  0.53409000  1
  O  O18  1  0.85565200  0.17261700  0.46699100  1
  O  O19  1  0.08892900  0.03863100  0.60647700  1
  O  O20  1  0.09444500  0.34761900  0.57807000  1
  O  O21  1  0.92539900  0.84443200  0.41624500  1
  O  O22  1  0.92205700  0.53554300  0.39403000  1
  O  O23  1  0.14359700  0.67205500  0.53766800  1
  O  O24  1  0.37294200  0.43941300  0.47130300  1
  O  O25  1  0.21511900  0.15007500  0.46480800  1
  O  O26  1  0.48066600  0.20223900  0.37183500  1
  O  O27  1  0.49515800  0.82764800  0.35179200  1
  O  O28  1  0.75329300  0.03883900  0.27174600  1
  O  O29  1  0.76200300  0.34769200  0.24468800  1
  O  O30  1  0.81166000  0.66947600  0.20468000  1
  O  O31  1  0.16403400  0.33805600  0.31849700  1
  O  O32  1  0.17427500  0.68967100  0.28673100  1
  O  O33  1  0.88301400  0.15038700  0.13091300  1
  O  O34  1  0.44884000  0.64894400  0.19927700  1
  O  O35  1  0.28960400  0.93121700  0.19767800  1
  O  O36  1  0.52252900  0.17649900  0.13234200  1
  O  O37  1  0.59557800  0.84825100  0.08924700  1
  O  O38  1  0.58074500  0.53736200  0.06151200  1
  O  O39  1  0.03930600  0.44127900  0.13768000  1
  O  O40  1  0.15245100  0.21429100  0.04089800  1
  O  O41  1  0.15869100  0.82184400  0.01980800  1
loop_
_geom_bond_atom_site_label_1
_geom_bond_atom_site_label_2
_geom_bond_distance
_geom_bond_site_symmetry_2
Li0 O12 1.981130 1_555
Li0 O23 1.999900 1_555
Li0 O19 2.006562 1_565
Li0 O15 2.170630 1_555
Li1 O21 1.990838 1_555
Li1 O30 1.999175 1_555
Li1 O28 2.010982 1_565
Li1 O32 2.154794 1_655
Li2 O38 1.961132 1_555
Li2 O40 1.968680 1_555
Li2 O36 1.987613 1_555
Li2 O4 2.050939 1_554
Mn0 O10 1.939671 1_555
Mn0 O11 1.961418 1_445
Mn0 O2 1.965291 1_445
Mn0 O19 2.053957 1_555
Mn0 O9 2.118406 1_455
Mn0 O12 2.263624 1_545
Mn1 O18 1.931829 1_555
Mn1 O27 1.952561 1_545
Mn1 O17 1.982725 1_545
Mn1 O28 2.067222 1_555
Mn1 O26 2.124031 1_555
Mn1 O21 2.244549 1_545
Mn2 O41 1.932551 1_555
Mn2 O3 1.949169 1_564
Mn2 O35 1.974485 1_555
Mn2 O36 2.014682 1_565
Mn2 O37 2.123641 1_555
Mn2 O40 2.297808 1_565
O0 P10 1.536405 1_556
O0 V0 1.937930 1_555
O1 P1 1.528498 1_655
O1 V0 1.933078 1_555
O2 P1 1.520929 1_655
O3 P0 1.519593 1_555
O4 P0 1.552904 1_555
O4 V0 1.993627 1_555
O5 P3 1.550717 1_555
O5 V0 1.890791 1_555
O6 P2 1.547654 1_555
O6 V0 1.929035 1_555
O7 P0 1.610924 1_555
O7 P2 1.623444 1_555
O8 P3 1.605454 1_555
O8 P1 1.625489 1_555
O9 P2 1.489079 1_555
O10 P0 1.521569 1_555
O11 P4 1.523489 1_555
O12 P3 1.510974 1_555
O13 P3 1.534631 1_555
O13 V1 1.943341 1_555
O14 P2 1.553676 1_555
O14 V1 1.891730 1_555
O15 P4 1.539243 1_555
O15 V1 2.019044 1_555
O16 P5 1.614470 1_555
O16 P4 1.616752 1_555
O17 P4 1.531696 1_555
O18 P6 1.518535 1_655
O19 P6 1.530701 1_555
O20 P6 1.538209 1_555
O20 V1 1.921704 1_555
O21 P5 1.516821 1_555
O22 P5 1.532806 1_555
O22 V2 1.950248 1_555
O23 P5 1.548941 1_455
O23 V1 2.028342 1_555
O24 P7 1.544400 1_555
O24 V1 1.944432 1_555
O25 P6 1.620032 1_555
O25 P7 1.625711 1_555
O26 P7 1.490004 1_555
O27 P9 1.524881 1_555
O28 P8 1.525050 1_555
O29 P8 1.536974 1_555
O29 V2 1.925691 1_555
O30 P11 1.551821 1_555
O30 V2 1.999032 1_555
O31 P7 1.554808 1_555
O31 V2 1.890675 1_455
O32 P9 1.538487 1_555
O32 V2 2.023340 1_455
O33 P8 1.617329 1_555
O33 P10 1.621750 1_555
O34 P9 1.615428 1_555
O34 P11 1.633310 1_555
O35 P9 1.533255 1_555
O36 P8 1.530679 1_555
O37 P11 1.493597 1_555
O38 P11 1.540697 1_555
O38 V0 2.049394 1_554
O39 P10 1.550146 1_455
O39 V2 1.949240 1_455
O40 P10 1.503428 1_455
O41 P1 1.528944 1_554
