# generated using pymatgen
data_ZnPH5C2N4O3
_symmetry_space_group_name_H-M   'P 1'
_cell_length_a   8.40185900
_cell_length_b   9.39193600
_cell_length_c   9.89012379
_cell_angle_alpha   75.56855355
_cell_angle_beta   90.00000000
_cell_angle_gamma   90.00000000
_symmetry_Int_Tables_number   1
_chemical_formula_structural   ZnPH5C2N4O3
_chemical_formula_sum   'Zn4 P4 H20 C8 N16 O12'
_cell_volume   755.80173635
_cell_formula_units_Z   4
loop_
 _symmetry_equiv_pos_site_id
 _symmetry_equiv_pos_as_xyz
  1  'x, y, z'
loop_
 _atom_site_type_symbol
 _atom_site_label
 _atom_site_symmetry_multiplicity
 _atom_site_fract_x
 _atom_site_fract_y
 _atom_site_fract_z
 _atom_site_occupancy
  Zn  Zn0  1  0.60562000  0.45962100  0.32317000  1
  Zn  Zn1  1  0.89438000  0.95962100  0.32317000  1
  Zn  Zn2  1  0.10562000  0.04037900  0.67683000  1
  Zn  Zn3  1  0.39438000  0.54037900  0.67683000  1
  P  P0  1  0.83627200  0.20993700  0.47977600  1
  P  P1  1  0.33627200  0.29006300  0.52022400  1
  P  P2  1  0.66372800  0.70993700  0.47977600  1
  P  P3  1  0.16372800  0.79006300  0.52022400  1
  H  H0  1  0.16501900  0.32343200  0.09485200  1
  H  H1  1  0.02148000  0.30870700  0.22181000  1
  H  H2  1  0.33498100  0.82343200  0.09485200  1
  H  H3  1  0.41598900  0.16355400  0.27455300  1
  H  H4  1  0.52268100  0.99816900  0.32606900  1
  H  H5  1  0.47852000  0.80870700  0.22181000  1
  H  H6  1  0.08401100  0.66355400  0.27455300  1
  H  H7  1  0.97731900  0.49816900  0.32606900  1
  H  H8  1  0.68836900  0.13836900  0.50354900  1
  H  H9  1  0.18836900  0.36163100  0.49645100  1
  H  H10  1  0.81163100  0.63836900  0.50354900  1
  H  H11  1  0.31163100  0.86163100  0.49645100  1
  H  H12  1  0.02268100  0.50183100  0.67393100  1
  H  H13  1  0.91598900  0.33644600  0.72544700  1
  H  H14  1  0.52148000  0.19129300  0.77819000  1
  H  H15  1  0.47731900  0.00183100  0.67393100  1
  H  H16  1  0.58401100  0.83644600  0.72544700  1
  H  H17  1  0.66501900  0.17656800  0.90514800  1
  H  H18  1  0.97852000  0.69129300  0.77819000  1
  H  H19  1  0.83498100  0.67656800  0.90514800  1
  C  C0  1  0.70419500  0.43904400  0.02737000  1
  C  C1  1  0.37033800  0.01124900  0.16178300  1
  C  C2  1  0.79580500  0.93904400  0.02737000  1
  C  C3  1  0.12966200  0.51124900  0.16178300  1
  C  C4  1  0.87033800  0.48875100  0.83821700  1
  C  C5  1  0.20419500  0.06095600  0.97263000  1
  C  C6  1  0.62966200  0.98875100  0.83821700  1
  C  C7  1  0.29580500  0.56095600  0.97263000  1
  N  N0  1  0.26110300  0.09839200  0.07918300  1
  N  N1  1  0.23889700  0.59839200  0.07918300  1
  N  N2  1  0.64687400  0.46680000  0.12709900  1
  N  N3  1  0.09213300  0.37644500  0.14855100  1
  N  N4  1  0.44565500  0.06404200  0.25755100  1
  N  N5  1  0.85312600  0.96680000  0.12709900  1
  N  N6  1  0.40786700  0.87644500  0.14855100  1
  N  N7  1  0.05434500  0.56404200  0.25755100  1
  N  N8  1  0.94565500  0.43595800  0.74244900  1
  N  N9  1  0.59213300  0.12355500  0.85144900  1
  N  N10  1  0.14687400  0.03320000  0.87290100  1
  N  N11  1  0.55434500  0.93595800  0.74244900  1
  N  N12  1  0.90786700  0.62355500  0.85144900  1
  N  N13  1  0.35312600  0.53320000  0.87290100  1
  N  N14  1  0.76110300  0.40160800  0.92081700  1
  N  N15  1  0.73889700  0.90160800  0.92081700  1
  O  O0  1  0.92377300  0.15157000  0.36676400  1
  O  O1  1  0.42440200  0.32500600  0.37905500  1
  O  O2  1  0.80354700  0.37619400  0.42839900  1
  O  O3  1  0.57622700  0.65157000  0.36676400  1
  O  O4  1  0.07559800  0.82500600  0.37905500  1
  O  O5  1  0.30354700  0.12380600  0.57160100  1
  O  O6  1  0.69645300  0.87619400  0.42839900  1
  O  O7  1  0.92440200  0.17499400  0.62094500  1
  O  O8  1  0.42377300  0.34843000  0.63323600  1
  O  O9  1  0.19645300  0.62380600  0.57160100  1
  O  O10  1  0.57559800  0.67499400  0.62094500  1
  O  O11  1  0.07622700  0.84843000  0.63323600  1
loop_
_geom_bond_atom_site_label_1
_geom_bond_atom_site_label_2
_geom_bond_distance
_geom_bond_site_symmetry_2
H0 N3 1.018216 1_555
H1 N3 1.025828 1_555
H2 N6 1.018216 1_555
H3 N4 1.020897 1_555
H4 N4 1.025582 1_565
H5 N6 1.025828 1_555
H6 N7 1.020897 1_555
H7 N7 1.025582 1_655
H8 P0 1.404462 1_555
H9 P1 1.404462 1_555
H10 P2 1.404462 1_555
H11 P3 1.404462 1_555
H12 N8 1.025582 1_455
H13 N8 1.020897 1_555
H14 N9 1.025828 1_555
H15 N11 1.025582 1_545
H16 N11 1.020897 1_555
H17 N9 1.018216 1_555
H18 N12 1.025828 1_555
H19 N12 1.018216 1_555
C0 N2 1.183599 1_555
C0 N14 1.283533 1_554
C1 N4 1.333220 1_555
C1 N6 1.342411 1_545
C1 N0 1.358773 1_555
C2 N5 1.183599 1_555
C2 N15 1.283533 1_554
C3 N7 1.333220 1_555
C3 N3 1.342411 1_555
C3 N1 1.358773 1_555
C4 N8 1.333220 1_555
C4 N12 1.342411 1_555
C4 N14 1.358773 1_555
C5 N10 1.183599 1_555
C5 N0 1.283533 1_556
C6 N11 1.333220 1_555
C6 N9 1.342411 1_565
C6 N15 1.358773 1_555
C7 N13 1.183599 1_555
C7 N1 1.283533 1_556
N2 Zn0 1.954452 1_555
N5 Zn1 1.954452 1_555
N10 Zn2 1.954452 1_555
N13 Zn3 1.954452 1_555
O0 P0 1.547783 1_555
O0 Zn1 1.970860 1_545
O1 P1 1.541722 1_555
O1 Zn0 1.968207 1_555
O2 P0 1.541595 1_555
O2 Zn0 2.013955 1_555
O3 P2 1.547783 1_555
O3 Zn0 1.970860 1_555
O4 P3 1.541722 1_555
O4 Zn1 1.968207 1_455
O5 P1 1.541595 1_555
O5 Zn2 2.013955 1_555
O6 P2 1.541595 1_555
O6 Zn1 2.013955 1_555
O7 P0 1.541722 1_555
O7 Zn2 1.968207 1_655
O8 P1 1.547783 1_555
O8 Zn3 1.970860 1_555
O9 P3 1.541595 1_555
O9 Zn3 2.013955 1_555
O10 P2 1.541722 1_555
O10 Zn3 1.968207 1_555
O11 P3 1.547783 1_555
O11 Zn2 1.970860 1_565
