# generated using pymatgen
data_Tl3S2O9
_symmetry_space_group_name_H-M   'P 1'
_cell_length_a   9.74580207
_cell_length_b   9.74580207
_cell_length_c   7.17206703
_cell_angle_alpha   77.33410213
_cell_angle_beta   77.33410213
_cell_angle_gamma   129.90092596
_symmetry_Int_Tables_number   1
_chemical_formula_structural   Tl3S2O9
_chemical_formula_sum   'Tl6 S4 O18'
_cell_volume   447.05706822
_cell_formula_units_Z   2
loop_
 _symmetry_equiv_pos_site_id
 _symmetry_equiv_pos_as_xyz
  1  'x, y, z'
loop_
 _atom_site_type_symbol
 _atom_site_label
 _atom_site_symmetry_multiplicity
 _atom_site_fract_x
 _atom_site_fract_y
 _atom_site_fract_z
 _atom_site_occupancy
  Tl  Tl0  1  0.11247900  0.85755800  0.73821400  1
  Tl  Tl1  1  0.85755800  0.11247900  0.23821400  1
  Tl  Tl2  1  0.71757800  0.30096000  0.72609900  1
  Tl  Tl3  1  0.30096000  0.71757800  0.22609900  1
  Tl  Tl4  1  0.48982700  0.48787100  0.50063800  1
  Tl  Tl5  1  0.48787100  0.48982700  0.00063800  1
  S  S0  1  0.90893200  0.05957700  0.74429500  1
  S  S1  1  0.05957700  0.90893200  0.24429500  1
  S  S2  1  0.31265300  0.66581800  0.74136900  1
  S  S3  1  0.66581800  0.31265300  0.24136900  1
  O  O0  1  0.93549800  0.18096000  0.54242500  1
  O  O1  1  0.18096000  0.93549800  0.04242500  1
  O  O2  1  0.48648300  0.73233200  0.55421200  1
  O  O3  1  0.73233200  0.48648300  0.05421200  1
  O  O4  1  0.38622000  0.84559000  0.76667700  1
  O  O5  1  0.84559000  0.38622000  0.26667700  1
  O  O6  1  0.81486900  0.85877200  0.76059000  1
  O  O7  1  0.85877200  0.81486900  0.26059000  1
  O  O8  1  0.10582100  0.16754400  0.74343000  1
  O  O9  1  0.16754400  0.10582100  0.24343000  1
  O  O10  1  0.13723400  0.57325500  0.70104700  1
  O  O11  1  0.57325500  0.13723400  0.20104700  1
  O  O12  1  0.77121600  0.03089700  0.93299200  1
  O  O13  1  0.03089700  0.77121600  0.43299200  1
  O  O14  1  0.25216100  0.50892900  0.94518000  1
  O  O15  1  0.50892900  0.25216100  0.44518000  1
  O  O16  1  0.53899900  0.42676800  0.75543200  1
  O  O17  1  0.42676800  0.53899900  0.25543200  1
loop_
_geom_bond_atom_site_label_1
_geom_bond_atom_site_label_2
_geom_bond_distance
_geom_bond_site_symmetry_2
O0 S0 1.501416 1_555
O0 Tl1 2.549060 1_555
O1 S1 1.501416 1_555
O1 Tl0 2.549060 1_554
O2 S2 1.517998 1_555
O2 Tl4 2.514045 1_555
O2 Tl1 2.734117 1_565
O3 S3 1.517998 1_555
O3 Tl5 2.514045 1_555
O3 Tl0 2.734117 1_654
O4 S2 1.483765 1_555
O4 Tl0 2.792877 1_555
O5 S3 1.483765 1_555
O5 Tl1 2.792877 1_555
O6 S0 1.495000 1_565
O6 Tl5 2.495455 1_556
O6 Tl0 2.877365 1_655
O7 S1 1.495000 1_655
O7 Tl4 2.495455 1_555
O7 Tl1 2.877365 1_565
O8 S0 1.480133 1_455
O8 Tl4 2.559971 1_555
O9 S1 1.480133 1_545
O9 Tl5 2.559971 1_555
O10 S2 1.474041 1_555
O11 S3 1.474041 1_555
O12 S0 1.505767 1_555
O12 Tl1 2.616294 1_556
O13 S1 1.505767 1_555
O13 Tl0 2.616294 1_555
O14 S2 1.519094 1_555
O14 Tl5 2.527206 1_556
O14 Tl1 2.822558 1_456
O15 S3 1.519094 1_555
O15 Tl4 2.527206 1_555
O15 Tl0 2.822558 1_545
O16 Tl4 2.048559 1_555
O16 Tl5 2.049708 1_556
O16 Tl2 2.695689 1_555
O17 Tl5 2.048559 1_555
O17 Tl4 2.049708 1_555
O17 Tl3 2.695689 1_555
