# generated using pymatgen
data_K3Na3TeP6(HO4)6
_symmetry_space_group_name_H-M   'P 1'
_cell_length_a   10.52549278
_cell_length_b   10.52549278
_cell_length_c   12.21685995
_cell_angle_alpha   65.93659421
_cell_angle_beta   65.93659421
_cell_angle_gamma   62.33190863
_symmetry_Int_Tables_number   1
_chemical_formula_structural   K3Na3TeP6(HO4)6
_chemical_formula_sum   'K6 Na6 Te2 P12 H12 O48'
_cell_volume   1053.84482030
_cell_formula_units_Z   2
loop_
 _symmetry_equiv_pos_site_id
 _symmetry_equiv_pos_as_xyz
  1  'x, y, z'
loop_
 _atom_site_type_symbol
 _atom_site_label
 _atom_site_symmetry_multiplicity
 _atom_site_fract_x
 _atom_site_fract_y
 _atom_site_fract_z
 _atom_site_occupancy
  K  K0  1  0.85362426  0.73181150  0.24313929  1
  K  K1  1  0.73181150  0.85362426  0.74313929  1
  K  K2  1  0.63634156  0.36365844  0.25000000  1
  K  K3  1  0.36365844  0.63634156  0.75000000  1
  K  K4  1  0.26818850  0.14637574  0.25686071  1
  K  K5  1  0.14637574  0.26818850  0.75686071  1
  Na  Na0  1  0.46136306  0.74734933  0.24533235  1
  Na  Na1  1  0.06667652  0.93332348  0.25000000  1
  Na  Na2  1  0.74734933  0.46136306  0.74533235  1
  Na  Na3  1  0.25265067  0.53863694  0.25466765  1
  Na  Na4  1  0.93332348  0.06667652  0.75000000  1
  Na  Na5  1  0.53863694  0.25265067  0.75466765  1
  Te  Te0  1  -0.00000000  0.50000000  -0.00000000  1
  Te  Te1  1  0.50000000  0.00000000  0.50000000  1
  P  P0  1  0.66355485  0.01060673  0.01789876  1
  P  P1  1  0.68546383  0.49100410  0.47844327  1
  P  P2  1  0.01060673  0.66355485  0.51789876  1
  P  P3  1  0.82895006  0.17948716  0.48149669  1
  P  P4  1  0.49100410  0.68546383  0.97844327  1
  P  P5  1  0.17948716  0.82895006  0.98149669  1
  P  P6  1  0.82051284  0.17104994  0.01850331  1
  P  P7  1  0.50899590  0.31453617  0.02155673  1
  P  P8  1  0.17104994  0.82051284  0.51850331  1
  P  P9  1  0.98939327  0.33644515  0.48210124  1
  P  P10  1  0.31453617  0.50899590  0.52155673  1
  P  P11  1  0.33644515  0.98939327  0.98210124  1
  H  H0  1  0.51948698  0.81905395  0.40962344  1
  H  H1  1  0.81714983  0.76979233  0.00207794  1
  H  H2  1  0.01150640  0.21733446  0.07292644  1
  H  H3  1  0.81905395  0.51948698  0.90962344  1
  H  H4  1  0.76979233  0.81714983  0.50207794  1
  H  H5  1  0.78266554  0.98849360  0.42707356  1
  H  H6  1  0.21733446  0.01150640  0.57292644  1
  H  H7  1  0.23020767  0.18285017  0.49792206  1
  H  H8  1  0.18094605  0.48051302  0.09037656  1
  H  H9  1  0.98849360  0.78266554  0.92707356  1
  H  H10  1  0.18285017  0.23020767  0.99792206  1
  H  H11  1  0.48051302  0.18094605  0.59037656  1
  O  O0  1  0.73553192  0.91458874  0.44002472  1
  O  O1  1  0.49378882  0.92730674  0.37777162  1
  O  O2  1  0.85769091  0.48183489  0.43528843  1
  O  O3  1  0.91458874  0.73553192  0.94002472  1
  O  O4  1  0.65148078  0.86304590  0.09503167  1
  O  O5  1  0.61121977  0.62569670  0.39074385  1
  O  O6  1  0.97856112  0.21341207  0.44138892  1
  O  O7  1  0.82302524  0.50972765  0.11562264  1
  O  O8  1  0.71336819  0.34614693  0.44224693  1
  O  O9  1  0.21495284  0.88511970  0.38220861  1
  O  O10  1  0.29567093  0.95652130  0.11955297  1
  O  O11  1  0.92730674  0.49378882  0.87777162  1
  O  O12  1  0.48183489  0.85769091  0.93528843  1
  O  O13  1  0.86304590  0.65148078  0.59503167  1
  O  O14  1  0.85221240  0.09924742  0.39456953  1
  O  O15  1  0.62569670  0.61121977  0.89074385  1
  O  O16  1  0.46582063  0.62691193  0.11493747  1
  O  O17  1  0.21341207  0.97856112  0.94138892  1
  O  O18  1  0.37308807  0.53417937  0.38506253  1
  O  O19  1  0.90075258  0.14778760  0.10543047  1
  O  O20  1  0.50972765  0.82302524  0.61562264  1
  O  O21  1  0.34614693  0.71336819  0.94224693  1
  O  O22  1  0.88511970  0.21495284  0.88220861  1
  O  O23  1  0.95652130  0.29567093  0.61955297  1
  O  O24  1  0.04347870  0.70432907  0.38044703  1
  O  O25  1  0.11488030  0.78504716  0.11779139  1
  O  O26  1  0.65385307  0.28663181  0.05775307  1
  O  O27  1  0.49027235  0.17697476  0.38437736  1
  O  O28  1  0.09924742  0.85221240  0.89456953  1
  O  O29  1  0.62691193  0.46582063  0.61493747  1
  O  O30  1  0.78658793  0.02143888  0.05861108  1
  O  O31  1  0.53417937  0.37308807  0.88506253  1
  O  O32  1  0.37430330  0.38878023  0.10925615  1
  O  O33  1  0.14778760  0.90075258  0.60543047  1
  O  O34  1  0.13695410  0.34851922  0.40496833  1
  O  O35  1  0.51816511  0.14230909  0.06471157  1
  O  O36  1  0.07269326  0.50621118  0.12222838  1
  O  O37  1  0.70432907  0.04347870  0.88044703  1
  O  O38  1  0.78504716  0.11488030  0.61779139  1
  O  O39  1  0.28663181  0.65385307  0.55775307  1
  O  O40  1  0.17697476  0.49027235  0.88437736  1
  O  O41  1  0.02143888  0.78658793  0.55861108  1
  O  O42  1  0.38878023  0.37430330  0.60925615  1
  O  O43  1  0.34851922  0.13695410  0.90496833  1
  O  O44  1  0.08541126  0.26446808  0.05997528  1
  O  O45  1  0.14230909  0.51816511  0.56471157  1
  O  O46  1  0.50621118  0.07269326  0.62222838  1
  O  O47  1  0.26446808  0.08541126  0.55997528  1
loop_
_geom_bond_atom_site_label_1
_geom_bond_atom_site_label_2
_geom_bond_distance
_geom_bond_site_symmetry_2
K0 O2 2.715824 1_555
K0 O25 2.741871 1_655
K0 O4 2.842675 1_555
K0 O36 2.852224 1_655
K0 O5 2.874208 1_555
K0 O30 2.927176 1_565
K0 O24 2.948206 1_655
K0 O0 3.185338 1_555
K1 O12 2.715824 1_555
K1 O38 2.741871 1_565
K1 O13 2.842675 1_555
K1 O46 2.852224 1_565
K1 O15 2.874208 1_555
K1 O41 2.927176 1_655
K1 O37 2.948206 1_565
K1 O3 3.185338 1_555
K2 O27 2.652640 1_555
K2 O7 2.652640 1_555
K2 O8 2.696011 1_555
K2 O26 2.696011 1_555
K2 O18 2.773039 1_555
K2 O16 2.773039 1_555
K2 O14 3.069033 1_555
K2 O19 3.069033 1_555
K3 O20 2.652640 1_555
K3 O40 2.652640 1_555
K3 O21 2.696011 1_555
K3 O39 2.696011 1_555
K3 O29 2.773039 1_555
K3 O31 2.773039 1_555
K3 O33 3.069033 1_555
K3 O28 3.069033 1_555
K4 O35 2.715824 1_555
K4 O9 2.741871 1_545
K4 O34 2.842675 1_555
K4 O1 2.852224 1_545
K4 O32 2.874208 1_555
K4 O6 2.927176 1_455
K4 O10 2.948206 1_545
K4 O44 3.185338 1_555
K5 O45 2.715824 1_555
K5 O22 2.741871 1_455
K5 O43 2.842675 1_555
K5 O11 2.852224 1_455
K5 O42 2.874208 1_555
K5 O17 2.927176 1_545
K5 O23 2.948206 1_455
K5 O47 3.185338 1_555
Na0 O16 2.382751 1_555
Na0 O5 2.416140 1_555
Na0 O10 2.471963 1_555
Na0 O4 2.510392 1_555
Na0 O18 2.516104 1_555
Na0 O9 2.563904 1_555
Na1 O24 2.346398 1_555
Na1 O10 2.346398 1_555
Na1 O25 2.440070 1_555
Na1 O9 2.440070 1_555
Na1 O19 2.620678 1_465
Na1 O14 2.620678 1_465
Na2 O29 2.382751 1_555
Na2 O15 2.416140 1_555
Na2 O23 2.471963 1_555
Na2 O13 2.510392 1_555
Na2 O31 2.516104 1_555
Na2 O22 2.563904 1_555
Na3 O18 2.382751 1_555
Na3 O32 2.416140 1_555
Na3 O24 2.471963 1_555
Na3 O34 2.510392 1_555
Na3 O16 2.516104 1_555
Na3 O25 2.563904 1_555
Na4 O23 2.346398 1_555
Na4 O37 2.346398 1_555
Na4 O22 2.440070 1_555
Na4 O38 2.440070 1_555
Na4 O28 2.620678 1_645
Na4 O33 2.620678 1_645
Na5 O31 2.382751 1_555
Na5 O42 2.416140 1_555
Na5 O37 2.471963 1_555
Na5 O43 2.510392 1_555
Na5 O29 2.516104 1_555
Na5 O38 2.563904 1_555
H0 O1 0.980249 1_555
H1 O3 1.001005 1_554
H1 K0 2.966427 1_555
H2 O44 1.034540 1_555
H2 O19 1.493459 1_455
H3 O11 0.980249 1_555
H4 O0 1.001005 1_555
H4 K1 2.966427 1_555
H5 O0 1.034540 1_555
H5 O14 1.493459 1_565
H6 O47 1.034540 1_555
H6 O33 1.493459 1_545
H7 O47 1.001005 1_555
H7 K4 2.966427 1_555
H8 O36 0.980249 1_555
H9 O3 1.034540 1_555
H9 O28 1.493459 1_655
H10 O44 1.001005 1_556
H10 K5 2.966427 1_555
H11 O46 0.980249 1_555
O0 Te1 2.115898 1_565
O1 Te1 1.969081 1_565
O2 P9 1.597888 1_555
O2 P1 1.634947 1_555
O3 Te0 2.115898 1_656
O4 P0 1.486107 1_565
O5 P1 1.477733 1_555
O6 P3 1.611724 1_555
O6 P9 1.626648 1_555
O7 Te0 1.808500 1_655
O8 P3 1.610885 1_555
O8 P1 1.623123 1_555
O9 P8 1.479687 1_555
O10 P11 1.483273 1_554
O11 Te0 1.969081 1_656
O12 P11 1.597888 1_555
O12 P4 1.634947 1_555
O13 P2 1.486107 1_655
O14 P3 1.492770 1_555
O15 P4 1.477733 1_555
O16 P4 1.477808 1_554
O17 P5 1.611724 1_555
O17 P11 1.626648 1_555
O18 P10 1.477808 1_555
O19 P6 1.492770 1_555
O20 Te1 1.808500 1_565
O21 P5 1.610885 1_555
O21 P4 1.623123 1_555
O22 P6 1.479687 1_556
O23 P9 1.483273 1_555
O24 P2 1.483273 1_555
O25 P5 1.479687 1_554
O26 P6 1.610885 1_555
O26 P7 1.623123 1_555
O27 Te1 1.808500 1_555
O28 P5 1.492770 1_555
O29 P1 1.477808 1_555
O30 P6 1.611724 1_555
O30 P0 1.626648 1_555
O31 P7 1.477808 1_556
O32 P7 1.477733 1_555
O33 P8 1.492770 1_555
O34 P9 1.486107 1_455
O35 P0 1.597888 1_555
O35 P7 1.634947 1_555
O36 Te0 1.969081 1_555
O37 P0 1.483273 1_556
O38 P3 1.479687 1_555
O39 P8 1.610885 1_555
O39 P10 1.623123 1_555
O40 Te0 1.808500 1_556
O41 P8 1.611724 1_555
O41 P2 1.626648 1_555
O42 P10 1.477733 1_555
O43 P11 1.486107 1_545
O44 Te0 2.115898 1_555
O45 P2 1.597888 1_555
O45 P10 1.634947 1_555
O46 Te1 1.969081 1_555
O47 Te1 2.115898 1_555
