# generated using pymatgen
data_Li8MnO5F
_symmetry_space_group_name_H-M   'P 1'
_cell_length_a   5.52799200
_cell_length_b   5.58160026
_cell_length_c   10.99768457
_cell_angle_alpha   89.54115196
_cell_angle_beta   89.59098003
_cell_angle_gamma   61.85571338
_symmetry_Int_Tables_number   1
_chemical_formula_structural   Li8MnO5F
_chemical_formula_sum   'Li16 Mn2 O10 F2'
_cell_volume   299.20025252
_cell_formula_units_Z   2
loop_
 _symmetry_equiv_pos_site_id
 _symmetry_equiv_pos_as_xyz
  1  'x, y, z'
loop_
 _atom_site_type_symbol
 _atom_site_label
 _atom_site_symmetry_multiplicity
 _atom_site_fract_x
 _atom_site_fract_y
 _atom_site_fract_z
 _atom_site_occupancy
  Li  Li0  1  0.31544100  0.97343700  0.77159200  1
  Li  Li1  1  0.35933800  0.01901000  0.12356600  1
  Li  Li2  1  0.64450100  0.97925400  0.62158600  1
  Li  Li3  1  0.68838600  0.02509400  0.27136900  1
  Li  Li4  1  0.33736800  0.32750800  0.41226000  1
  Li  Li5  1  0.32879000  0.33427500  0.92346000  1
  Li  Li6  1  0.70939800  0.31188600  0.77316900  1
  Li  Li7  1  0.61302900  0.36836800  0.12200400  1
  Li  Li8  1  0.38573500  0.63110100  0.62281500  1
  Li  Li9  1  0.01851800  0.29075900  0.27216900  1
  Li  Li10  1  0.28804700  0.68676800  0.27352100  1
  Li  Li11  1  0.97715600  0.38406300  0.62248900  1
  Li  Li12  1  0.66516100  0.66658600  0.91229300  1
  Li  Li13  1  0.66466500  0.66867200  0.42369700  1
  Li  Li14  1  0.02261700  0.61938700  0.12218700  1
  Li  Li15  1  0.97869800  0.71369500  0.77155400  1
  Mn  Mn0  1  0.99344300  0.00648900  0.98182500  1
  Mn  Mn1  1  0.01164200  0.99717300  0.48199300  1
  O  O0  1  0.33113800  0.98886600  0.94809200  1
  O  O1  1  0.67851600  0.00155900  0.44566200  1
  O  O2  1  0.33150100  0.33383400  0.21393000  1
  O  O3  1  0.00398100  0.00304600  0.67541200  1
  O  O4  1  0.00032300  0.00055400  0.17576600  1
  O  O5  1  0.66638900  0.32967100  0.94915800  1
  O  O6  1  0.98118900  0.33729300  0.44800800  1
  O  O7  1  0.32427000  0.66371400  0.45036500  1
  O  O8  1  0.66847700  0.66639200  0.71370500  1
  O  O9  1  0.01203100  0.67185300  0.94632700  1
  F  F0  1  0.33626000  0.33029200  0.71077000  1
  F  F1  1  0.66399200  0.66920500  0.21051400  1
loop_
_geom_bond_atom_site_label_1
_geom_bond_atom_site_label_2
_geom_bond_distance
_geom_bond_site_symmetry_2
Li0 O0 1.948054 1_555
Li0 O3 1.966048 1_565
Li0 O8 1.998883 1_555
Li1 O0 1.952180 1_544
Li1 O2 1.967187 1_555
Li1 O4 2.110592 1_555
Li2 O1 1.951198 1_565
Li2 O8 1.961791 1_555
Li2 O3 2.141036 1_665
Li3 O1 1.922411 1_555
Li3 O4 1.962481 1_655
Li3 O2 2.013434 1_555
Li4 O7 1.893765 1_555
Li4 O1 1.940046 1_555
Li4 O6 1.980447 1_455
Li4 O2 2.181399 1_555
Li5 O5 1.877651 1_555
Li5 O9 1.889028 1_555
Li5 O0 1.938702 1_545
Li6 O5 1.945938 1_555
Li6 O8 1.988281 1_555
Li6 O3 2.033644 1_655
Li7 O5 1.919784 1_554
Li7 O2 1.933561 1_555
Li7 O4 2.236103 1_655
Li8 O7 1.921148 1_555
Li8 O8 1.948544 1_555
Li8 O3 2.228624 1_565
Li9 O6 1.949742 1_455
Li9 O2 1.958484 1_555
Li9 O4 1.985112 1_555
Li10 O7 1.953570 1_555
Li10 O2 1.984910 1_555
Li10 O4 2.029619 1_565
Li11 O6 1.937187 1_555
Li11 O8 1.966081 1_555
Li11 O3 2.137156 1_655
Li12 O0 1.915148 1_555
Li12 O5 1.917440 1_555
Li12 O9 1.970114 1_655
Li12 O8 2.183959 1_555
Li13 O6 1.870777 1_555
Li13 O1 1.912643 1_565
Li13 O7 1.915384 1_555
Li14 O9 1.950928 1_554
Li14 O2 1.976192 1_555
Li14 O4 2.158804 1_565
Li15 O9 1.933967 1_655
Li15 O8 1.964881 1_555
Li15 O3 1.982258 1_665
Mn0 O0 1.857316 1_645
Mn0 O9 1.865933 1_645
Mn0 O5 1.890483 1_555
Mn0 O4 2.133226 1_656
Mn1 O6 1.860121 1_465
Mn1 O1 1.875967 1_465
Mn1 O7 1.881268 1_555
Mn1 O3 2.127488 1_565
F0 Li8 2.057405 1_555
F0 Li11 2.105755 1_455
F0 Li6 2.134338 1_555
F0 Li2 2.135839 1_545
F0 Li0 2.149848 1_545
F0 Li15 2.224188 1_455
F0 Li5 2.339266 1_555
F1 Li7 2.079136 1_555
F1 Li14 2.099504 1_655
F1 Li1 2.110410 1_565
F1 Li10 2.144085 1_555
F1 Li3 2.165015 1_565
F1 Li9 2.203002 1_655
F1 Li13 2.344525 1_555
