# generated using pymatgen
data_Li8(CoO2)5
_symmetry_space_group_name_H-M   'P 1'
_cell_length_a   5.34958175
_cell_length_b   5.34958175
_cell_length_c   14.31059843
_cell_angle_alpha   74.75319412
_cell_angle_beta   74.75319412
_cell_angle_gamma   39.61445267
_symmetry_Int_Tables_number   1
_chemical_formula_structural   Li8(CoO2)5
_chemical_formula_sum   'Li8 Co5 O10'
_cell_volume   250.72263044
_cell_formula_units_Z   1
loop_
 _symmetry_equiv_pos_site_id
 _symmetry_equiv_pos_as_xyz
  1  'x, y, z'
loop_
 _atom_site_type_symbol
 _atom_site_label
 _atom_site_symmetry_multiplicity
 _atom_site_fract_x
 _atom_site_fract_y
 _atom_site_fract_z
 _atom_site_occupancy
  Li  Li0  1  0.78975700  0.78975700  0.94077300  1
  Li  Li1  1  0.21024300  0.21024300  0.05922700  1
  Li  Li2  1  0.22696000  0.22696000  0.84169600  1
  Li  Li3  1  0.22419300  0.22419300  0.66461100  1
  Li  Li4  1  0.79050600  0.79050600  0.54614700  1
  Li  Li5  1  0.77580700  0.77580700  0.33538900  1
  Li  Li6  1  0.77304000  0.77304000  0.15830400  1
  Li  Li7  1  0.20949400  0.20949400  0.45385300  1
  Co  Co0  1  0.50119800  0.50119800  0.39754700  1
  Co  Co1  1  0.49256700  0.49256700  0.20498900  1
  Co  Co2  1  0.50000000  0.50000000  0.00000000  1
  Co  Co3  1  0.49880200  0.49880200  0.60245300  1
  Co  Co4  1  0.50743300  0.50743300  0.79501100  1
  O  O0  1  0.37261500  0.37261500  0.72421900  1
  O  O1  1  0.62738500  0.62738500  0.27578100  1
  O  O2  1  0.63561300  0.63561300  0.06811900  1
  O  O3  1  0.63664600  0.63664600  0.88065500  1
  O  O4  1  0.36642300  0.36642300  0.52947200  1
  O  O5  1  0.64204300  0.64204300  0.66630400  1
  O  O6  1  0.35795700  0.35795700  0.33369600  1
  O  O7  1  0.36335400  0.36335400  0.11934500  1
  O  O8  1  0.36438700  0.36438700  0.93188100  1
  O  O9  1  0.63357700  0.63357700  0.47052800  1
loop_
_geom_bond_atom_site_label_1
_geom_bond_atom_site_label_2
_geom_bond_distance
_geom_bond_site_symmetry_2
Li0 O8 1.952727 1_565
Li0 O8 1.952727 1_655
Li0 O3 1.963884 1_555
Li0 O2 2.036653 1_556
Li1 O2 1.952727 1_545
Li1 O2 1.952727 1_455
Li1 O7 1.963884 1_555
Li1 O8 2.036653 1_554
Li2 O0 1.896860 1_555
Li2 O3 2.034702 1_545
Li2 O3 2.034702 1_455
Li2 O8 2.139491 1_555
Li3 O0 1.916318 1_555
Li3 O5 1.989784 1_455
Li3 O5 1.989784 1_545
Li3 O4 2.059612 1_555
Li4 O5 1.937416 1_555
Li4 O4 1.955767 1_655
Li4 O4 1.955767 1_565
Li4 O9 2.149898 1_555
Li5 O1 1.916318 1_555
Li5 O6 1.989784 1_565
Li5 O6 1.989784 1_655
Li5 O9 2.059612 1_555
Li6 O1 1.896860 1_555
Li6 O7 2.034702 1_565
Li6 O7 2.034702 1_655
Li6 O2 2.139491 1_555
Li7 O6 1.937416 1_555
Li7 O9 1.955767 1_545
Li7 O9 1.955767 1_455
Li7 O4 2.149898 1_555
Co0 O1 1.847312 1_555
Co0 O9 1.909051 1_555
Co0 O6 1.910630 1_555
Co0 O4 1.993234 1_555
Co1 O1 1.906994 1_555
Co1 O6 1.957895 1_555
Co1 O7 2.021157 1_555
Co1 O2 2.081633 1_555
Co2 O7 1.869665 1_555
Co2 O3 1.869665 1_554
Co2 O2 1.886190 1_555
Co2 O8 1.886190 1_554
Co3 O0 1.847312 1_555
Co3 O4 1.909051 1_555
Co3 O5 1.910630 1_555
Co3 O9 1.993234 1_555
Co4 O0 1.906994 1_555
Co4 O5 1.957895 1_555
Co4 O3 2.021157 1_555
Co4 O8 2.081633 1_555
