# generated using pymatgen
data_Sr4(RuO4)3
_symmetry_space_group_name_H-M   'P 1'
_cell_length_a   5.57647900
_cell_length_b   9.79350434
_cell_length_c   18.33263469
_cell_angle_alpha   90.06101869
_cell_angle_beta   89.99980383
_cell_angle_gamma   89.99874146
_symmetry_Int_Tables_number   1
_chemical_formula_structural   Sr4(RuO4)3
_chemical_formula_sum   'Sr16 Ru12 O48'
_cell_volume   1001.20458394
_cell_formula_units_Z   4
loop_
 _symmetry_equiv_pos_site_id
 _symmetry_equiv_pos_as_xyz
  1  'x, y, z'
loop_
 _atom_site_type_symbol
 _atom_site_label
 _atom_site_symmetry_multiplicity
 _atom_site_fract_x
 _atom_site_fract_y
 _atom_site_fract_z
 _atom_site_occupancy
  Sr  Sr0  1  0.00002500  0.33484500  0.24538600  1
  Sr  Sr1  1  0.00003400  0.99913100  0.98997800  1
  Sr  Sr2  1  0.00000400  0.00062400  0.49180900  1
  Sr  Sr3  1  0.99998800  0.34851400  0.63448400  1
  Sr  Sr4  1  0.99998500  0.66493600  0.74596800  1
  Sr  Sr5  1  0.00004600  0.31520700  0.86228200  1
  Sr  Sr6  1  0.00001100  0.65130900  0.13469000  1
  Sr  Sr7  1  0.99998700  0.68601400  0.36166200  1
  Sr  Sr8  1  0.50001700  0.82730400  0.24584600  1
  Sr  Sr9  1  0.50002400  0.50126100  0.00471800  1
  Sr  Sr10  1  0.50000700  0.17144800  0.74600400  1
  Sr  Sr11  1  0.50001300  0.50014600  0.50437600  1
  Sr  Sr12  1  0.49998600  0.81865300  0.63122700  1
  Sr  Sr13  1  0.50000100  0.85189400  0.85730100  1
  Sr  Sr14  1  0.50003400  0.18258900  0.13198600  1
  Sr  Sr15  1  0.50000900  0.14756800  0.35658000  1
  Ru  Ru0  1  0.00003600  0.33495400  0.05980600  1
  Ru  Ru1  1  0.00005800  0.33275900  0.43415800  1
  Ru  Ru2  1  0.00003000  0.99926000  0.18988200  1
  Ru  Ru3  1  0.00000600  0.99971000  0.69036500  1
  Ru  Ru4  1  0.99999800  0.66489500  0.55996500  1
  Ru  Ru5  1  0.00001200  0.66721000  0.93446100  1
  Ru  Ru6  1  0.50003600  0.83286400  0.05905200  1
  Ru  Ru7  1  0.50002000  0.83475200  0.43414200  1
  Ru  Ru8  1  0.50002400  0.16791100  0.55902400  1
  Ru  Ru9  1  0.50003500  0.16538700  0.93376800  1
  Ru  Ru10  1  0.49997500  0.50117900  0.80586700  1
  Ru  Ru11  1  0.50004800  0.49846900  0.30602300  1
  O  O0  1  0.00000100  0.83152600  0.23859300  1
  O  O1  1  0.99995700  0.16609800  0.12098900  1
  O  O2  1  0.00032100  0.17754300  0.37503100  1
  O  O3  1  0.00025600  0.49846100  0.99959900  1
  O  O4  1  0.24923000  0.74930600  0.99785800  1
  O  O5  1  0.24933500  0.25139600  0.49768600  1
  O  O6  1  0.24183700  0.40867200  0.11889600  1
  O  O7  1  0.24110800  0.59197400  0.61915900  1
  O  O8  1  0.25006300  0.07932500  0.24103700  1
  O  O9  1  0.25068000  0.91959300  0.74081700  1
  O  O10  1  0.25805600  0.09107500  0.87549300  1
  O  O11  1  0.25748900  0.90857400  0.37561700  1
  O  O12  1  0.24845800  0.41860200  0.37544600  1
  O  O13  1  0.24827700  0.58199000  0.87544500  1
  O  O14  1  0.25075000  0.57907500  0.25340000  1
  O  O15  1  0.25026600  0.42057700  0.75348700  1
  O  O16  1  0.25190700  0.08102200  0.61810600  1
  O  O17  1  0.25257500  0.91897200  0.11859500  1
  O  O18  1  0.24986200  0.25033600  0.99708100  1
  O  O19  1  0.25060200  0.74976700  0.49729400  1
  O  O20  1  0.49989100  0.99936400  0.49447100  1
  O  O21  1  0.49972800  0.33312700  0.87308200  1
  O  O22  1  0.50007200  0.32101300  0.62007600  1
  O  O23  1  0.50013100  0.66706000  0.75488800  1
  O  O24  1  0.49994900  0.33221100  0.25479900  1
  O  O25  1  0.49996400  0.67931200  0.11981200  1
  O  O26  1  0.50027700  0.66684000  0.37319400  1
  O  O27  1  0.50019600  0.00136100  0.99465500  1
  O  O28  1  0.75014700  0.25047100  0.99705300  1
  O  O29  1  0.74951200  0.74987200  0.49729700  1
  O  O30  1  0.74750700  0.91893900  0.11860400  1
  O  O31  1  0.74814400  0.08100600  0.61810000  1
  O  O32  1  0.74943700  0.57898400  0.25339200  1
  O  O33  1  0.74961000  0.42046700  0.75349900  1
  O  O34  1  0.75149700  0.41837800  0.37542100  1
  O  O35  1  0.75183400  0.58177400  0.87548700  1
  O  O36  1  0.74242700  0.90872300  0.37562400  1
  O  O37  1  0.74208000  0.09121200  0.87547300  1
  O  O38  1  0.75002300  0.07935400  0.24104400  1
  O  O39  1  0.74928900  0.91963400  0.74081000  1
  O  O40  1  0.75824400  0.40874100  0.11886800  1
  O  O41  1  0.75883700  0.59202700  0.61915700  1
  O  O42  1  0.75083500  0.25125400  0.49766700  1
  O  O43  1  0.75079200  0.74915400  0.99789900  1
  O  O44  1  0.99986200  0.50166400  0.49953000  1
  O  O45  1  0.99974800  0.82236100  0.87549500  1
  O  O46  1  0.00003900  0.83559300  0.62004900  1
  O  O47  1  0.00004500  0.16722300  0.73891300  1
loop_
_geom_bond_atom_site_label_1
_geom_bond_atom_site_label_2
_geom_bond_distance
_geom_bond_site_symmetry_2
O0 Ru2 1.870575 1_555
O0 Sr6 2.595425 1_555
O0 Sr7 2.669836 1_455
O0 Sr8 2.791628 1_455
O0 Sr8 2.791805 1_555
O1 Ru0 1.999184 1_655
O1 Ru2 2.066219 1_645
O1 Sr14 2.799736 1_555
O1 Sr14 2.800599 1_655
O1 Sr0 2.814948 1_655
O1 Sr1 2.904138 1_644
O2 Ru1 1.866060 1_555
O2 Sr2 2.755583 1_555
O2 Sr15 2.822219 1_555
O2 Sr15 2.825670 1_455
O2 Sr0 2.833712 1_555
O3 Ru0 1.945821 1_556
O3 Ru5 2.039959 1_555
O3 Sr9 2.788660 1_556
O3 Sr9 2.791244 1_456
O3 Sr6 2.892453 1_556
O3 Sr5 3.090071 1_555
O4 Ru6 1.970387 1_556
O4 Ru5 1.981594 1_555
O4 Sr9 2.805960 1_556
O4 Sr1 2.817573 1_555
O4 Sr6 3.024934 1_556
O4 Sr13 3.100054 1_555
O5 Ru8 1.972099 1_555
O5 Ru1 1.981312 1_555
O5 Sr11 2.811304 1_555
O5 Sr2 2.824182 1_555
O5 Sr3 3.020316 1_455
O5 Sr15 3.110322 1_555
O6 Ru0 1.873839 1_555
O6 Sr14 2.652193 1_555
O6 Sr9 2.698274 1_555
O6 Sr6 2.747258 1_555
O6 Sr0 2.778844 1_555
O7 Ru4 1.870041 1_455
O7 Sr12 2.657146 1_555
O7 Sr11 2.705020 1_555
O7 Sr3 2.751992 1_455
O7 Sr4 2.778383 1_455
O8 Ru2 1.853886 1_545
O8 Sr15 2.621689 1_555
O8 Sr14 2.639507 1_555
O8 Sr8 2.835983 1_545
O8 Sr0 2.865681 1_555
O9 Ru3 1.851130 1_555
O9 Sr13 2.633589 1_555
O9 Sr12 2.634787 1_555
O9 Sr10 2.832958 1_565
O9 Sr4 2.860755 1_455
O10 Ru9 1.868220 1_555
O10 Sr5 2.635897 1_555
O10 Sr1 2.700035 1_545
O10 Sr13 2.723361 1_545
O10 Sr10 2.842411 1_555
O11 Ru7 1.872068 1_555
O11 Sr7 2.622443 1_455
O11 Sr2 2.721684 1_565
O11 Sr15 2.725993 1_565
O11 Sr8 2.849274 1_555
O12 Ru1 1.945776 1_555
O12 Ru11 2.049905 1_555
O12 Sr11 2.861533 1_555
O12 Sr0 2.876305 1_555
O12 Sr7 2.973822 1_455
O12 Sr15 3.021747 1_555
O13 Ru5 1.944688 1_555
O13 Ru10 2.054561 1_555
O13 Sr4 2.866235 1_455
O13 Sr9 2.866421 1_556
O13 Sr5 2.966416 1_555
O13 Sr13 3.011679 1_555
O14 Ru11 1.867648 1_555
O14 Sr7 2.643282 1_455
O14 Sr6 2.682335 1_555
O14 Sr0 2.774324 1_555
O14 Sr8 2.803952 1_555
O15 Ru10 1.866202 1_555
O15 Sr5 2.644683 1_555
O15 Sr3 2.683712 1_455
O15 Sr4 2.773910 1_455
O15 Sr10 2.812534 1_555
O16 Ru8 1.952866 1_555
O16 Ru3 2.089136 1_545
O16 Sr2 2.819628 1_555
O16 Sr10 2.862116 1_555
O16 Sr12 2.928349 1_545
O16 Sr3 2.987403 1_455
O17 Ru6 1.950633 1_555
O17 Ru2 2.075402 1_555
O17 Sr8 2.855969 1_555
O17 Sr1 2.857117 1_554
O17 Sr14 2.937463 1_565
O17 Sr6 2.990657 1_555
O18 Ru0 1.986915 1_556
O18 Ru9 1.995868 1_555
O18 Sr9 2.829151 1_556
O18 Sr1 2.830158 1_545
O18 Sr5 2.907679 1_555
O18 Sr14 2.916585 1_556
O19 Ru4 1.991471 1_455
O19 Ru7 1.992415 1_555
O19 Sr11 2.815704 1_555
O19 Sr2 2.828265 1_565
O19 Sr12 2.900757 1_555
O19 Sr7 2.919310 1_455
O20 Ru7 1.954066 1_555
O20 Ru8 2.030033 1_565
O20 Sr2 2.788064 1_565
O20 Sr2 2.789324 1_665
O20 Sr15 2.916297 1_565
O20 Sr12 3.070368 1_555
O21 Ru9 1.985018 1_555
O21 Ru10 2.057043 1_555
O21 Sr5 2.798990 1_555
O21 Sr5 2.802512 1_655
O21 Sr10 2.815439 1_555
O21 Sr9 2.920035 1_556
O22 Ru8 1.870120 1_555
O22 Sr10 2.735386 1_555
O22 Sr11 2.754022 1_555
O22 Sr3 2.813159 1_555
O22 Sr3 2.814074 1_455
O23 Ru10 1.875062 1_555
O23 Sr13 2.606625 1_555
O23 Sr12 2.711221 1_555
O23 Sr4 2.792293 1_555
O23 Sr4 2.793921 1_455
O24 Ru11 1.878774 1_555
O24 Sr15 2.599765 1_555
O24 Sr14 2.685021 1_555
O24 Sr0 2.793272 1_555
O24 Sr0 2.794118 1_655
O25 Ru6 1.872371 1_555
O25 Sr8 2.726185 1_555
O25 Sr9 2.735837 1_555
O25 Sr6 2.814713 1_555
O25 Sr6 2.815223 1_655
O26 Ru7 1.987143 1_555
O26 Ru11 2.056960 1_555
O26 Sr7 2.800951 1_555
O26 Sr7 2.804162 1_455
O26 Sr8 2.815655 1_555
O26 Sr11 2.908106 1_555
O27 Ru9 1.957103 1_555
O27 Ru6 2.030017 1_546
O27 Sr1 2.788739 1_645
O27 Sr1 2.790546 1_545
O27 Sr13 2.911272 1_545
O27 Sr14 3.078816 1_556
O28 Ru0 1.986939 1_656
O28 Ru9 1.995914 1_555
O28 Sr9 2.827867 1_556
O28 Sr1 2.831393 1_645
O28 Sr5 2.907180 1_655
O28 Sr14 2.917171 1_556
O29 Ru4 1.991388 1_555
O29 Ru7 1.992285 1_555
O29 Sr11 2.816890 1_555
O29 Sr2 2.827134 1_665
O29 Sr12 2.900830 1_555
O29 Sr7 2.919182 1_555
O30 Ru6 1.950657 1_555
O30 Ru2 2.075367 1_655
O30 Sr8 2.855873 1_555
O30 Sr1 2.857313 1_654
O30 Sr14 2.937716 1_565
O30 Sr6 2.990147 1_655
O31 Ru8 1.952864 1_555
O31 Ru3 2.088982 1_645
O31 Sr2 2.819349 1_655
O31 Sr10 2.862328 1_555
O31 Sr12 2.928482 1_545
O31 Sr3 2.987410 1_555
O32 Ru11 1.867746 1_555
O32 Sr7 2.643148 1_555
O32 Sr6 2.681981 1_655
O32 Sr0 2.773110 1_655
O32 Sr8 2.805088 1_555
O33 Ru10 1.866206 1_555
O33 Sr5 2.644715 1_655
O33 Sr3 2.683874 1_555
O33 Sr4 2.775166 1_555
O33 Sr10 2.811283 1_555
O34 Ru1 1.945700 1_655
O34 Ru11 2.049905 1_555
O34 Sr11 2.862303 1_555
O34 Sr0 2.875532 1_655
O34 Sr7 2.975817 1_555
O34 Sr15 3.019660 1_555
O35 Ru5 1.944854 1_655
O35 Ru10 2.054870 1_555
O35 Sr9 2.865380 1_556
O35 Sr4 2.867105 1_555
O35 Sr5 2.964512 1_655
O35 Sr13 3.013852 1_555
O36 Ru7 1.872077 1_555
O36 Sr7 2.623792 1_555
O36 Sr2 2.721401 1_665
O36 Sr15 2.724424 1_565
O36 Sr8 2.849500 1_555
O37 Ru9 1.868146 1_555
O37 Sr5 2.634663 1_655
O37 Sr1 2.700554 1_645
O37 Sr13 2.724893 1_545
O37 Sr10 2.842046 1_555
O38 Ru2 1.853931 1_645
O38 Sr15 2.621692 1_555
O38 Sr14 2.639532 1_555
O38 Sr8 2.836421 1_545
O38 Sr0 2.865385 1_655
O39 Ru3 1.851098 1_655
O39 Sr13 2.633705 1_555
O39 Sr12 2.634861 1_555
O39 Sr10 2.832436 1_565
O39 Sr4 2.861059 1_555
O40 Ru0 1.873738 1_655
O40 Sr14 2.652896 1_555
O40 Sr9 2.697732 1_555
O40 Sr6 2.746618 1_655
O40 Sr0 2.779358 1_655
O41 Ru4 1.870043 1_555
O41 Sr12 2.656580 1_555
O41 Sr11 2.704951 1_555
O41 Sr3 2.752480 1_555
O41 Sr4 2.778371 1_555
O42 Ru8 1.972223 1_555
O42 Ru1 1.981475 1_655
O42 Sr11 2.812870 1_555
O42 Sr2 2.822461 1_655
O42 Sr3 3.020571 1_555
O42 Sr15 3.109988 1_555
O43 Ru6 1.970349 1_556
O43 Ru5 1.981410 1_655
O43 Sr9 2.804617 1_556
O43 Sr1 2.819084 1_655
O43 Sr6 3.023825 1_656
O43 Sr13 3.101202 1_555
O44 Ru4 1.944036 1_555
O44 Ru1 2.041647 1_655
O44 Sr11 2.788853 1_555
O44 Sr11 2.790536 1_655
O44 Sr3 2.894566 1_555
O44 Sr7 3.107649 1_555
O45 Ru5 1.865707 1_655
O45 Sr1 2.719222 1_655
O45 Sr13 2.821612 1_555
O45 Sr13 2.824410 1_655
O45 Sr4 2.829799 1_555
O46 Ru4 2.001015 1_455
O46 Ru3 2.059286 1_555
O46 Sr12 2.800394 1_555
O46 Sr12 2.800988 1_455
O46 Sr4 2.851385 1_455
O46 Sr2 2.854364 1_565
O47 Ru3 1.865578 1_545
O47 Sr3 2.612413 1_455
O47 Sr5 2.684889 1_555
O47 Sr10 2.791363 1_555
O47 Sr10 2.791783 1_455
