# generated using pymatgen
data_Na2FeO3
_symmetry_space_group_name_H-M   'P 1'
_cell_length_a   6.15028800
_cell_length_b   6.45320705
_cell_length_c   5.10026800
_cell_angle_alpha   90.00083688
_cell_angle_beta   90.00158946
_cell_angle_gamma   61.54103225
_symmetry_Int_Tables_number   1
_chemical_formula_structural   Na2FeO3
_chemical_formula_sum   'Na4 Fe2 O6'
_cell_volume   177.96364013
_cell_formula_units_Z   2
loop_
 _symmetry_equiv_pos_site_id
 _symmetry_equiv_pos_as_xyz
  1  'x, y, z'
loop_
 _atom_site_type_symbol
 _atom_site_label
 _atom_site_symmetry_multiplicity
 _atom_site_fract_x
 _atom_site_fract_y
 _atom_site_fract_z
 _atom_site_occupancy
  Na  Na0  1  0.83895200  0.66902000  0.51240200  1
  Na  Na1  1  0.49202600  0.66902100  0.01239900  1
  Na  Na2  1  0.50797400  0.33097900  0.51240200  1
  Na  Na3  1  0.16104600  0.33098100  0.01239900  1
  Fe  Fe0  1  0.82690000  0.00000000  0.04701900  1
  Fe  Fe1  1  0.17309400  0.00000000  0.54703600  1
  O  O0  1  0.84667000  0.71916900  0.99101300  1
  O  O1  1  0.43415400  0.71918100  0.49101300  1
  O  O2  1  0.56583900  0.28083100  0.99101300  1
  O  O3  1  0.15333500  0.28081900  0.49101300  1
  O  O4  1  0.88485000  0.00000000  0.40415400  1
  O  O5  1  0.11516000  0.00000000  0.90413800  1
loop_
_geom_bond_atom_site_label_1
_geom_bond_atom_site_label_2
_geom_bond_distance
_geom_bond_site_symmetry_2
Na0 O3 2.325899 1_655
Na0 O4 2.349714 1_565
Na0 O1 2.355172 1_555
Na0 O0 2.465825 1_555
Na0 O0 2.682001 1_554
Na1 O2 2.325836 1_554
Na1 O5 2.349670 1_564
Na1 O0 2.355172 1_554
Na1 O1 2.465858 1_555
Na1 O1 2.681981 1_554
Na2 O1 2.325901 1_555
Na2 O4 2.349704 1_555
Na2 O3 2.355181 1_555
Na2 O2 2.465825 1_555
Na2 O2 2.681998 1_554
Na3 O0 2.325826 1_454
Na3 O5 2.349677 1_554
Na3 O2 2.355173 1_554
Na3 O3 2.465860 1_555
Na3 O3 2.681981 1_554
Fe0 O0 1.780630 1_544
Fe0 O2 1.780631 1_554
Fe0 O4 1.856016 1_555
Fe0 O5 1.916829 1_654
Fe1 O1 1.780603 1_545
Fe1 O3 1.780603 1_555
Fe1 O5 1.855852 1_555
Fe1 O4 1.916702 1_455
