# generated using pymatgen
data_Li2MnFe(BO3)2
_symmetry_space_group_name_H-M   'P 1'
_cell_length_a   5.19242583
_cell_length_b   10.94701603
_cell_length_c   5.25768065
_cell_angle_alpha   103.29081211
_cell_angle_beta   60.39049360
_cell_angle_gamma   101.35914339
_symmetry_Int_Tables_number   1
_chemical_formula_structural   Li2MnFe(BO3)2
_chemical_formula_sum   'Li4 Mn2 Fe2 B4 O12'
_cell_volume   251.63844312
_cell_formula_units_Z   2
loop_
 _symmetry_equiv_pos_site_id
 _symmetry_equiv_pos_as_xyz
  1  'x, y, z'
loop_
 _atom_site_type_symbol
 _atom_site_label
 _atom_site_symmetry_multiplicity
 _atom_site_fract_x
 _atom_site_fract_y
 _atom_site_fract_z
 _atom_site_occupancy
  Li  Li0  1  0.39442200  0.16053400  0.53651500  1
  Li  Li1  1  0.10549500  0.33943100  0.96345000  1
  Li  Li2  1  0.89258100  0.66074800  0.03745000  1
  Li  Li3  1  0.60744500  0.83921700  0.46272000  1
  Mn  Mn0  1  0.78049600  0.38241900  0.62805200  1
  Mn  Mn1  1  0.71942500  0.11751400  0.87191500  1
  Fe  Fe0  1  0.27660100  0.87969300  0.13924000  1
  Fe  Fe1  1  0.22290600  0.62014300  0.36077800  1
  B  B0  1  0.05682800  0.12901000  0.20921300  1
  B  B1  1  0.44313900  0.37103200  0.29079200  1
  B  B2  1  0.55616800  0.63141700  0.70752400  1
  B  B3  1  0.94403000  0.86863000  0.79236200  1
  O  O0  1  0.79829600  0.15936900  0.46990300  1
  O  O1  1  0.70167900  0.34070400  0.03013100  1
  O  O2  1  0.28464700  0.08431300  0.22246800  1
  O  O3  1  0.21526000  0.41567200  0.27748700  1
  O  O4  1  0.09531800  0.14840800  0.94133200  1
  O  O5  1  0.40462300  0.35163700  0.55867900  1
  O  O6  1  0.79294000  0.59140700  0.71401400  1
  O  O7  1  0.70725500  0.90865400  0.78604500  1
  O  O8  1  0.58199000  0.64920100  0.44444700  1
  O  O9  1  0.91820300  0.85081900  0.05549500  1
  O  O10  1  0.29569000  0.65702700  0.97296000  1
  O  O11  1  0.20456300  0.84299900  0.52702800  1
loop_
_geom_bond_atom_site_label_1
_geom_bond_atom_site_label_2
_geom_bond_distance
_geom_bond_site_symmetry_2
Li0 O4 1.934418 1_555
Li0 O0 1.950207 1_555
Li0 O2 1.963837 1_555
Li0 O5 2.059913 1_555
Li1 O5 1.934418 1_555
Li1 O1 1.949991 1_456
Li1 O3 1.963797 1_556
Li1 O4 2.059097 1_555
Li2 O10 1.955421 1_654
Li2 O8 1.956971 1_555
Li2 O6 1.963888 1_554
Li2 O9 2.041744 1_555
Li3 O11 1.954729 1_555
Li3 O9 1.958139 1_555
Li3 O7 1.964041 1_555
Li3 O8 2.041056 1_555
Mn0 O1 2.088145 1_556
Mn0 O5 2.107975 1_555
Mn0 O3 2.121100 1_655
Mn0 O6 2.222084 1_555
Mn0 O0 2.396130 1_555
Mn1 O0 2.088341 1_555
Mn1 O4 2.108138 1_655
Mn1 O2 2.121028 1_556
Mn1 O7 2.220829 1_545
Mn1 O1 2.397595 1_556
Fe0 O11 2.005491 1_555
Fe0 O9 2.066622 1_455
Fe0 O7 2.106488 1_554
Fe0 O2 2.177443 1_565
Fe0 O10 2.396959 1_554
Fe1 O10 2.005099 1_554
Fe1 O8 2.069701 1_555
Fe1 O6 2.104090 1_455
Fe1 O3 2.176013 1_555
Fe1 O11 2.398664 1_555
B0 O4 1.382519 1_554
B0 O0 1.392569 1_455
B0 O2 1.403120 1_555
B1 O5 1.382486 1_555
B1 O1 1.392453 1_555
B1 O3 1.403227 1_555
B2 O8 1.378158 1_555
B2 O10 1.399924 1_555
B2 O6 1.401755 1_555
B3 O9 1.378542 1_556
B3 O11 1.399854 1_655
B3 O7 1.401363 1_555
