# generated using pymatgen
data_Ho2Zr2O7
_symmetry_space_group_name_H-M   'P 1'
_cell_length_a   5.51541000
_cell_length_b   7.85996700
_cell_length_c   13.78881731
_cell_angle_alpha   81.55131633
_cell_angle_beta   90.00000000
_cell_angle_gamma   90.00000000
_symmetry_Int_Tables_number   1
_chemical_formula_structural   Ho2Zr2O7
_chemical_formula_sum   'Ho8 Zr8 O28'
_cell_volume   591.27123855
_cell_formula_units_Z   4
loop_
 _symmetry_equiv_pos_site_id
 _symmetry_equiv_pos_as_xyz
  1  'x, y, z'
loop_
 _atom_site_type_symbol
 _atom_site_label
 _atom_site_symmetry_multiplicity
 _atom_site_fract_x
 _atom_site_fract_y
 _atom_site_fract_z
 _atom_site_occupancy
  Ho  Ho0  1  0.33021100  0.86260000  0.55902300  1
  Ho  Ho1  1  0.77863800  0.76346100  0.92687600  1
  Ho  Ho2  1  0.24220400  0.71323800  0.13411600  1
  Ho  Ho3  1  0.75815200  0.63803800  0.39907800  1
  Ho  Ho4  1  0.25815200  0.36196200  0.60092200  1
  Ho  Ho5  1  0.74220400  0.28676200  0.86588400  1
  Ho  Ho6  1  0.27863800  0.23653900  0.07312400  1
  Ho  Ho7  1  0.83021100  0.13740000  0.44097700  1
  Zr  Zr0  1  0.26617000  0.92548600  0.31963100  1
  Zr  Zr1  1  0.76289800  0.97258200  0.11810200  1
  Zr  Zr2  1  0.77751000  0.58949900  0.67316900  1
  Zr  Zr3  1  0.26430500  0.53179200  0.87589000  1
  Zr  Zr4  1  0.76430500  0.46820800  0.12411000  1
  Zr  Zr5  1  0.27751000  0.41050100  0.32683100  1
  Zr  Zr6  1  0.26289800  0.02741800  0.88189800  1
  Zr  Zr7  1  0.76617000  0.07451400  0.68036900  1
  O  O0  1  0.55466000  0.92194100  0.41756100  1
  O  O1  1  0.41754600  0.00324400  0.17350800  1
  O  O2  1  0.63317500  0.83001800  0.67554600  1
  O  O3  1  0.38563200  0.77815900  0.88369200  1
  O  O4  1  0.04470000  0.84772400  0.43527500  1
  O  O5  1  0.05129200  0.92333700  0.02193000  1
  O  O6  1  0.96659700  0.86001100  0.22996100  1
  O  O7  1  0.11209400  0.63459000  0.62054100  1
  O  O8  1  0.91292700  0.58449900  0.82729200  1
  O  O9  1  0.63148500  0.72887000  0.08278500  1
  O  O10  1  0.40626800  0.67623600  0.29843300  1
  O  O11  1  0.57518500  0.57984200  0.54663200  1
  O  O12  1  0.54686400  0.43737200  0.97694700  1
  O  O13  1  0.47397800  0.47335200  0.76649600  1
  O  O14  1  0.97397800  0.52664800  0.23350400  1
  O  O15  1  0.04686400  0.56262800  0.02305300  1
  O  O16  1  0.07518500  0.42015800  0.45336800  1
  O  O17  1  0.90626800  0.32376400  0.70156700  1
  O  O18  1  0.13148500  0.27113000  0.91721500  1
  O  O19  1  0.41292700  0.41550100  0.17270800  1
  O  O20  1  0.61209400  0.36541000  0.37945900  1
  O  O21  1  0.46659700  0.13998900  0.77003900  1
  O  O22  1  0.55129200  0.07666300  0.97807000  1
  O  O23  1  0.54470000  0.15227600  0.56472500  1
  O  O24  1  0.88563200  0.22184100  0.11630800  1
  O  O25  1  0.13317500  0.16998200  0.32445400  1
  O  O26  1  0.91754600  0.99675600  0.82649200  1
  O  O27  1  0.05466000  0.07805900  0.58243900  1
loop_
_geom_bond_atom_site_label_1
_geom_bond_atom_site_label_2
_geom_bond_distance
_geom_bond_site_symmetry_2
Ho0 O7 2.220780 1_555
Ho0 O0 2.299454 1_555
Ho0 O2 2.306155 1_555
Ho0 O27 2.332936 1_565
Ho0 O4 2.337435 1_555
Ho0 O23 2.577262 1_565
Ho0 O11 2.627869 1_555
Ho1 O8 2.231658 1_555
Ho1 O3 2.246362 1_555
Ho1 O26 2.262631 1_555
Ho1 O9 2.276515 1_556
Ho1 O15 2.413280 1_656
Ho1 O5 2.458123 1_656
Ho1 O12 2.856578 1_555
Ho2 O9 2.258387 1_555
Ho2 O15 2.332400 1_555
Ho2 O5 2.340522 1_555
Ho2 O14 2.372122 1_455
Ho2 O6 2.415808 1_455
Ho2 O10 2.417297 1_555
Ho2 O19 2.506075 1_555
Ho2 O1 2.605751 1_565
Ho3 O11 2.256922 1_555
Ho3 O20 2.341849 1_555
Ho3 O10 2.379133 1_555
Ho3 O4 2.388495 1_655
Ho3 O16 2.484739 1_655
Ho3 O0 2.543849 1_555
Ho3 O14 2.825471 1_555
Ho3 O6 2.933947 1_555
Ho4 O16 2.256922 1_555
Ho4 O7 2.341849 1_555
Ho4 O17 2.379133 1_455
Ho4 O23 2.388495 1_555
Ho4 O11 2.484739 1_555
Ho4 O27 2.543849 1_555
Ho4 O13 2.825471 1_555
Ho4 O21 2.933947 1_555
Ho5 O18 2.258387 1_655
Ho5 O12 2.332400 1_555
Ho5 O22 2.340522 1_555
Ho5 O13 2.372122 1_555
Ho5 O21 2.415808 1_555
Ho5 O17 2.417297 1_555
Ho5 O8 2.506075 1_555
Ho5 O26 2.605751 1_545
Ho6 O19 2.231658 1_555
Ho6 O24 2.246362 1_455
Ho6 O1 2.262631 1_555
Ho6 O18 2.276515 1_554
Ho6 O12 2.413280 1_554
Ho6 O22 2.458123 1_554
Ho6 O15 2.856578 1_555
Ho7 O20 2.220780 1_555
Ho7 O27 2.299454 1_655
Ho7 O25 2.306155 1_655
Ho7 O0 2.332936 1_545
Ho7 O23 2.337435 1_555
Ho7 O4 2.577262 1_645
Ho7 O16 2.627869 1_655
O0 Zr0 2.084434 1_555
O1 Zr1 2.079413 1_545
O1 Zr0 2.183670 1_545
O2 Zr2 2.055939 1_555
O2 Zr7 2.067143 1_565
O3 Zr3 2.066485 1_555
O3 Zr6 2.069527 1_565
O4 Zr0 2.030263 1_555
O5 Zr1 2.142248 1_455
O5 Zr6 2.301189 1_564
O6 Zr1 2.005762 1_555
O6 Zr0 2.170393 1_655
O7 Zr2 1.995501 1_455
O8 Zr3 2.072418 1_655
O8 Zr2 2.247487 1_555
O9 Zr1 2.169330 1_555
O9 Zr4 2.171600 1_555
O10 Zr0 2.165370 1_555
O10 Zr5 2.186288 1_555
O11 Zr2 2.081882 1_555
O12 Zr3 2.148793 1_555
O12 Zr4 2.399832 1_556
O13 Zr3 2.006798 1_555
O13 Zr2 2.224152 1_555
O14 Zr4 2.006798 1_555
O14 Zr5 2.224152 1_655
O15 Zr4 2.148793 1_455
O15 Zr3 2.399832 1_554
O16 Zr5 2.081882 1_555
O17 Zr7 2.165370 1_555
O17 Zr2 2.186288 1_555
O18 Zr6 2.169330 1_555
O18 Zr3 2.171600 1_555
O19 Zr4 2.072418 1_555
O19 Zr5 2.247487 1_555
O20 Zr5 1.995501 1_555
O21 Zr6 2.005762 1_555
O21 Zr7 2.170393 1_555
O22 Zr6 2.142248 1_555
O22 Zr1 2.301189 1_546
O23 Zr7 2.030263 1_555
O24 Zr4 2.066485 1_555
O24 Zr1 2.069527 1_545
O25 Zr5 2.055939 1_555
O25 Zr0 2.067143 1_545
O26 Zr6 2.079413 1_665
O26 Zr7 2.183670 1_565
O27 Zr7 2.084434 1_455
