# generated using pymatgen
data_LiCrO2
_symmetry_space_group_name_H-M   'P 1'
_cell_length_a   2.95346147
_cell_length_b   5.05976521
_cell_length_c   9.97726717
_cell_angle_alpha   89.99968374
_cell_angle_beta   90.00092915
_cell_angle_gamma   89.99998600
_symmetry_Int_Tables_number   1
_chemical_formula_structural   LiCrO2
_chemical_formula_sum   'Li4 Cr4 O8'
_cell_volume   149.09850068
_cell_formula_units_Z   4
loop_
 _symmetry_equiv_pos_site_id
 _symmetry_equiv_pos_as_xyz
  1  'x, y, z'
loop_
 _atom_site_type_symbol
 _atom_site_label
 _atom_site_symmetry_multiplicity
 _atom_site_fract_x
 _atom_site_fract_y
 _atom_site_fract_z
 _atom_site_occupancy
  Li  Li0  1  0.00003000  0.33344500  0.76012200  1
  Li  Li1  1  0.50002800  0.83349300  0.76013200  1
  Li  Li2  1  0.50004100  0.16650900  0.26013200  1
  Li  Li3  1  0.00004200  0.66655500  0.26012100  1
  Cr  Cr0  1  0.50003900  0.83309900  0.50045800  1
  Cr  Cr1  1  0.50006300  0.16688400  0.00045300  1
  Cr  Cr2  1  0.00005300  0.33301500  0.50046400  1
  Cr  Cr3  1  0.00005700  0.66699300  0.00044400  1
  O  O0  1  0.00003500  0.99800500  0.38744000  1
  O  O1  1  0.50003800  0.49803100  0.38740900  1
  O  O2  1  0.50004600  0.50197100  0.88740300  1
  O  O3  1  0.00004800  0.00200000  0.88743000  1
  O  O4  1  0.00005600  0.33168800  0.11156700  1
  O  O5  1  0.50005900  0.83165900  0.11153500  1
  O  O6  1  0.50005000  0.16834400  0.61154100  1
  O  O7  1  0.00004700  0.66831200  0.61157900  1
loop_
_geom_bond_atom_site_label_1
_geom_bond_atom_site_label_2
_geom_bond_distance
_geom_bond_site_symmetry_2
Li0 O3 2.103757 1_555
Li0 O2 2.126136 1_455
Li0 O2 2.126173 1_555
Li0 O7 2.251060 1_555
Li0 O6 2.252988 1_455
Li0 O6 2.253097 1_555
Li1 O2 2.103844 1_555
Li1 O3 2.126191 1_565
Li1 O3 2.126244 1_665
Li1 O6 2.251314 1_565
Li1 O7 2.252956 1_555
Li1 O7 2.253061 1_655
Li2 O1 2.103892 1_555
Li2 O0 2.126239 1_645
Li2 O0 2.126292 1_545
Li2 O5 2.251362 1_545
Li2 O4 2.253033 1_555
Li2 O4 2.253123 1_655
Li3 O0 2.103854 1_555
Li3 O1 2.126164 1_555
Li3 O1 2.126210 1_455
Li3 O4 2.251144 1_555
Li3 O5 2.253026 1_455
Li3 O5 2.253124 1_555
Cr0 O7 2.026100 1_555
Cr0 O7 2.026108 1_655
Cr0 O6 2.026243 1_565
Cr0 O1 2.036293 1_555
Cr0 O0 2.036764 1_555
Cr0 O0 2.036774 1_655
Cr1 O4 2.026078 1_655
Cr1 O4 2.026134 1_555
Cr1 O5 2.026143 1_545
Cr1 O2 2.036368 1_554
Cr1 O3 2.036737 1_654
Cr1 O3 2.036775 1_554
Cr2 O6 2.025603 1_555
Cr2 O6 2.025642 1_455
Cr2 O7 2.026638 1_555
Cr2 O0 2.035910 1_545
Cr2 O1 2.037183 1_555
Cr2 O1 2.037220 1_455
Cr3 O5 2.025685 1_555
Cr3 O5 2.025702 1_455
Cr3 O4 2.026705 1_555
Cr3 O3 2.035832 1_564
Cr3 O2 2.037131 1_554
Cr3 O2 2.037152 1_454
