# generated using pymatgen
data_La2S2O
_symmetry_space_group_name_H-M   'P 1'
_cell_length_a   4.08091951
_cell_length_b   7.13686464
_cell_length_c   15.96676350
_cell_angle_alpha   90.00000000
_cell_angle_beta   90.00000000
_cell_angle_gamma   90.00000000
_symmetry_Int_Tables_number   1
_chemical_formula_structural   La2S2O
_chemical_formula_sum   'La8 S8 O4'
_cell_volume   465.03151032
_cell_formula_units_Z   4
loop_
 _symmetry_equiv_pos_site_id
 _symmetry_equiv_pos_as_xyz
  1  'x, y, z'
loop_
 _atom_site_type_symbol
 _atom_site_label
 _atom_site_symmetry_multiplicity
 _atom_site_fract_x
 _atom_site_fract_y
 _atom_site_fract_z
 _atom_site_occupancy
  La  La0  1  0.75000000  0.20863460  0.03873600  1
  La  La1  1  0.75000000  0.75921258  0.17301124  1
  La  La2  1  0.25000000  0.25921258  0.32698876  1
  La  La3  1  0.25000000  0.70863460  0.46126400  1
  La  La4  1  0.75000000  0.29136540  0.53873600  1
  La  La5  1  0.75000000  0.74078742  0.67301124  1
  La  La6  1  0.25000000  0.24078742  0.82698876  1
  La  La7  1  0.25000000  0.79136540  0.96126400  1
  S  S0  1  0.25000000  0.51417440  0.10660521  1
  S  S1  1  0.25000000  0.04207329  0.17374290  1
  S  S2  1  0.75000000  0.54207329  0.32625710  1
  S  S3  1  0.75000000  0.01417440  0.39339479  1
  S  S4  1  0.25000000  0.98582560  0.60660521  1
  S  S5  1  0.25000000  0.45792671  0.67374290  1
  S  S6  1  0.75000000  0.95792671  0.82625710  1
  S  S7  1  0.75000000  0.48582560  0.89339479  1
  O  O0  1  0.75000000  0.86663157  0.03305399  1
  O  O1  1  0.25000000  0.36663157  0.46694601  1
  O  O2  1  0.75000000  0.63336843  0.53305399  1
  O  O3  1  0.25000000  0.13336843  0.96694601  1
loop_
_geom_bond_atom_site_label_1
_geom_bond_atom_site_label_2
_geom_bond_distance
_geom_bond_site_symmetry_2
La0 O3 2.401233 1_554
La0 O3 2.401233 1_654
La0 O0 2.442515 1_545
La0 S7 3.049408 1_554
La0 S0 3.176913 1_655
La0 S0 3.176913 1_555
La0 S1 3.197383 1_655
La0 S1 3.197383 1_555
La1 O0 2.362510 1_555
La1 S1 2.870352 1_565
La1 S1 2.870352 1_665
La1 S0 2.888946 1_655
La1 S0 2.888946 1_555
La1 S2 2.896304 1_555
La2 O1 2.362510 1_555
La2 S2 2.870352 1_455
La2 S2 2.870352 1_555
La2 S3 2.888946 1_455
La2 S3 2.888946 1_555
La2 S1 2.896304 1_555
La3 O2 2.401233 1_555
La3 O2 2.401233 1_455
La3 O1 2.442515 1_555
La3 S4 3.049408 1_555
La3 S3 3.176913 1_465
La3 S3 3.176913 1_565
La3 S2 3.197383 1_555
La3 S2 3.197383 1_455
La4 O1 2.401233 1_555
La4 O1 2.401233 1_655
La4 O2 2.442515 1_555
La4 S3 3.049408 1_555
La4 S4 3.176913 1_645
La4 S4 3.176913 1_545
La4 S5 3.197383 1_555
La4 S5 3.197383 1_655
La5 O2 2.362510 1_555
La5 S5 2.870352 1_555
La5 S5 2.870352 1_655
La5 S4 2.888946 1_555
La5 S4 2.888946 1_655
La5 S6 2.896304 1_555
La6 O3 2.362510 1_555
La6 S6 2.870352 1_445
La6 S6 2.870352 1_545
La6 S7 2.888946 1_455
La6 S7 2.888946 1_555
La6 S5 2.896304 1_555
La7 O0 2.401233 1_456
La7 O0 2.401233 1_556
La7 O3 2.442515 1_565
La7 S0 3.049408 1_556
La7 S7 3.176913 1_455
La7 S7 3.176913 1_555
La7 S6 3.197383 1_455
La7 S6 3.197383 1_555
