# generated using pymatgen
data_Li5Cr5O12
_symmetry_space_group_name_H-M   'P 1'
_cell_length_a   5.06849200
_cell_length_b   5.08697753
_cell_length_c   19.52609971
_cell_angle_alpha   87.81049538
_cell_angle_beta   94.56143081
_cell_angle_gamma   119.72295210
_symmetry_Int_Tables_number   1
_chemical_formula_structural   Li5Cr5O12
_chemical_formula_sum   'Li10 Cr10 O24'
_cell_volume   435.82506570
_cell_formula_units_Z   2
loop_
 _symmetry_equiv_pos_site_id
 _symmetry_equiv_pos_as_xyz
  1  'x, y, z'
loop_
 _atom_site_type_symbol
 _atom_site_label
 _atom_site_symmetry_multiplicity
 _atom_site_fract_x
 _atom_site_fract_y
 _atom_site_fract_z
 _atom_site_occupancy
  Li  Li0  1  0.15797100  0.82803100  0.50191000  1
  Li  Li1  1  0.09660500  0.17790700  0.24743200  1
  Li  Li2  1  0.86576700  0.49466400  0.62456400  1
  Li  Li3  1  0.65430000  0.82232200  0.00248900  1
  Li  Li4  1  0.91054100  0.82064600  0.74876000  1
  Li  Li5  1  0.23566200  0.49142600  0.74876100  1
  Li  Li6  1  0.37648400  0.50271100  0.12504100  1
  Li  Li7  1  0.83081000  0.17731500  0.50145100  1
  Li  Li8  1  0.41837300  0.82399300  0.24736600  1
  Li  Li9  1  0.33159100  0.17922000  0.00243700  1
  Cr  Cr0  1  0.62631200  0.49589700  0.87468500  1
  Cr  Cr1  1  0.95396900  0.16541800  0.87514100  1
  Cr  Cr2  1  0.29094500  0.83009400  0.87525800  1
  Cr  Cr3  1  0.21482900  0.17442200  0.62492400  1
  Cr  Cr4  1  0.55756700  0.84060700  0.62516500  1
  Cr  Cr5  1  0.12389500  0.49750600  0.37496300  1
  Cr  Cr6  1  0.45910700  0.16805100  0.37491300  1
  Cr  Cr7  1  0.78780800  0.82556700  0.37490000  1
  Cr  Cr8  1  0.70934100  0.16986800  0.12484800  1
  Cr  Cr9  1  0.04326000  0.83555900  0.12482900  1
  O  O0  1  0.61329600  0.83062100  0.82130100  1
  O  O1  1  0.64306700  0.15759600  0.92825100  1
  O  O2  1  0.30838900  0.49024600  0.92970900  1
  O  O3  1  0.49751400  0.13040000  0.57125200  1
  O  O4  1  0.24775900  0.87053000  0.67649900  1
  O  O5  1  0.12218100  0.84562800  0.32180000  1
  O  O6  1  0.53567700  0.52158200  0.67930800  1
  O  O7  1  0.14038600  0.15708000  0.42811100  1
  O  O8  1  0.80814200  0.49081900  0.42966700  1
  O  O9  1  0.99716800  0.11825500  0.06974400  1
  O  O10  1  0.94880200  0.49770700  0.82032900  1
  O  O11  1  0.25762200  0.16426000  0.82211800  1
  O  O12  1  0.20803200  0.48060000  0.57285400  1
  O  O13  1  0.75582000  0.88749100  0.18010800  1
  O  O14  1  0.97240900  0.84558900  0.92811900  1
  O  O15  1  0.86520300  0.87865300  0.56970200  1
  O  O16  1  0.04429500  0.50300500  0.17573600  1
  O  O17  1  0.91755800  0.14193000  0.68122700  1
  O  O18  1  0.43351000  0.49132400  0.32036100  1
  O  O19  1  0.76731800  0.15847300  0.32196000  1
  O  O20  1  0.70860800  0.50308600  0.07402000  1
  O  O21  1  0.47327100  0.84518200  0.42832300  1
  O  O22  1  0.38197400  0.88733800  0.06963000  1
  O  O23  1  0.37052500  0.11838300  0.18001500  1
loop_
_geom_bond_atom_site_label_1
_geom_bond_atom_site_label_2
_geom_bond_distance
_geom_bond_site_symmetry_2
Li0 O3 2.079542 1_565
Li0 O15 2.176661 1_455
Li0 O7 2.197607 1_565
Li0 O21 2.200796 1_555
Li0 O8 2.201666 1_455
Li0 O12 2.304048 1_555
Li1 O13 2.037393 1_445
Li1 O23 2.118994 1_555
Li1 O18 2.138388 1_555
Li1 O16 2.227988 1_555
Li1 O5 2.232115 1_545
Li1 O19 2.263786 1_455
Li2 O3 2.099946 1_555
Li2 O12 2.107418 1_655
Li2 O6 2.117383 1_555
Li2 O4 2.144243 1_655
Li2 O17 2.186760 1_555
Li2 O15 2.192779 1_555
Li3 O9 2.050542 1_565
Li3 O22 2.122951 1_555
Li3 O2 2.190278 1_554
Li3 O20 2.207396 1_555
Li3 O14 2.211882 1_554
Li3 O1 2.215313 1_564
Li4 O17 2.048514 1_565
Li4 O6 2.155236 1_555
Li4 O0 2.167810 1_555
Li4 O10 2.187838 1_555
Li4 O4 2.214205 1_655
Li4 O11 2.223321 1_665
Li5 O6 2.062949 1_555
Li5 O10 2.107245 1_455
Li5 O17 2.120805 1_455
Li5 O11 2.193198 1_555
Li5 O0 2.264434 1_555
Li5 O4 2.324295 1_555
Li6 O16 2.020493 1_555
Li6 O20 2.022286 1_555
Li6 O23 2.182131 1_555
Li6 O13 2.187296 1_555
Li6 O22 2.188310 1_555
Li6 O9 2.188521 1_455
Li7 O15 2.045876 1_545
Li7 O8 2.122847 1_555
Li7 O3 2.170232 1_555
Li7 O12 2.189746 1_655
Li7 O21 2.216793 1_545
Li7 O7 2.247708 1_655
Li8 O23 2.046926 1_565
Li8 O13 2.128701 1_555
Li8 O18 2.197328 1_555
Li8 O16 2.213612 1_555
Li8 O5 2.213899 1_555
Li8 O19 2.222646 1_565
Li9 O22 2.040850 1_545
Li9 O9 2.120949 1_455
Li9 O2 2.126043 1_554
Li9 O20 2.224589 1_555
Li9 O14 2.237106 1_444
Li9 O1 2.269557 1_554
Cr0 O0 1.988730 1_555
Cr0 O2 1.994700 1_555
Cr0 O1 2.013963 1_555
Cr0 O10 2.014585 1_555
Cr0 O14 2.021525 1_555
Cr0 O11 2.023063 1_555
Cr1 O11 1.924465 1_655
Cr1 O14 1.932006 1_545
Cr1 O1 1.937723 1_555
Cr1 O10 1.976013 1_555
Cr1 O0 1.979710 1_545
Cr1 O2 1.994824 1_655
Cr2 O1 1.980169 1_565
Cr2 O10 1.987898 1_455
Cr2 O0 2.012128 1_555
Cr2 O14 2.018824 1_455
Cr2 O11 2.029007 1_565
Cr2 O2 2.030557 1_555
Cr3 O12 1.840495 1_555
Cr3 O17 1.873173 1_455
Cr3 O4 1.882012 1_545
Cr3 O15 1.934643 1_445
Cr3 O3 1.943263 1_555
Cr3 O6 1.977822 1_555
Cr4 O6 1.863522 1_555
Cr4 O15 1.896018 1_555
Cr4 O3 1.910346 1_565
Cr4 O17 1.978442 1_565
Cr4 O4 1.998153 1_555
Cr4 O12 2.042951 1_555
Cr5 O18 1.979382 1_555
Cr5 O8 1.979522 1_455
Cr5 O19 2.014928 1_455
Cr5 O7 2.018737 1_555
Cr5 O5 2.021648 1_555
Cr5 O21 2.022643 1_555
Cr6 O5 1.937213 1_545
Cr6 O21 1.940225 1_545
Cr6 O19 1.961646 1_555
Cr6 O7 1.965914 1_555
Cr6 O18 1.977755 1_555
Cr6 O8 1.980290 1_555
Cr7 O7 1.991770 1_665
Cr7 O19 1.992687 1_565
Cr7 O18 2.014023 1_555
Cr7 O5 2.014345 1_655
Cr7 O21 2.017392 1_555
Cr7 O8 2.017742 1_555
Cr8 O22 1.857518 1_545
Cr8 O13 1.860064 1_545
Cr8 O20 1.932718 1_555
Cr8 O16 1.936198 1_655
Cr8 O23 2.001175 1_555
Cr8 O9 2.001485 1_555
Cr9 O23 1.857471 1_565
Cr9 O9 1.858630 1_465
Cr9 O16 1.931167 1_555
Cr9 O20 1.933293 1_455
Cr9 O22 2.000648 1_555
Cr9 O13 2.002732 1_455
