# generated using pymatgen
data_SrNd2O4
_symmetry_space_group_name_H-M   'P 1'
_cell_length_a   3.56939200
_cell_length_b   10.42281900
_cell_length_c   12.41226800
_cell_angle_alpha   90.00000000
_cell_angle_beta   90.00000000
_cell_angle_gamma   90.00000000
_symmetry_Int_Tables_number   1
_chemical_formula_structural   SrNd2O4
_chemical_formula_sum   'Sr4 Nd8 O16'
_cell_volume   461.77517973
_cell_formula_units_Z   4
loop_
 _symmetry_equiv_pos_site_id
 _symmetry_equiv_pos_as_xyz
  1  'x, y, z'
loop_
 _atom_site_type_symbol
 _atom_site_label
 _atom_site_symmetry_multiplicity
 _atom_site_fract_x
 _atom_site_fract_y
 _atom_site_fract_z
 _atom_site_occupancy
  Sr  Sr0  1  0.75000000  0.24742000  0.35114300  1
  Sr  Sr1  1  0.25000000  0.25258000  0.85114300  1
  Sr  Sr2  1  0.75000000  0.74742000  0.14885700  1
  Sr  Sr3  1  0.25000000  0.75258000  0.64885700  1
  Nd  Nd0  1  0.75000000  0.07616400  0.61292000  1
  Nd  Nd1  1  0.75000000  0.08097300  0.11242400  1
  Nd  Nd2  1  0.25000000  0.41902700  0.61242400  1
  Nd  Nd3  1  0.25000000  0.42383600  0.11292000  1
  Nd  Nd4  1  0.75000000  0.57616400  0.88708000  1
  Nd  Nd5  1  0.75000000  0.58097300  0.38757600  1
  Nd  Nd6  1  0.25000000  0.91902700  0.88757600  1
  Nd  Nd7  1  0.25000000  0.92383600  0.38708000  1
  O  O0  1  0.25000000  0.01101200  0.71544700  1
  O  O1  1  0.75000000  0.07476200  0.92034800  1
  O  O2  1  0.25000000  0.13071400  0.47943500  1
  O  O3  1  0.25000000  0.21291600  0.18439000  1
  O  O4  1  0.75000000  0.28708400  0.68439000  1
  O  O5  1  0.75000000  0.36928600  0.97943500  1
  O  O6  1  0.25000000  0.42523800  0.42034800  1
  O  O7  1  0.75000000  0.48898800  0.21544700  1
  O  O8  1  0.25000000  0.51101200  0.78455300  1
  O  O9  1  0.75000000  0.57476200  0.57965200  1
  O  O10  1  0.25000000  0.63071400  0.02056500  1
  O  O11  1  0.25000000  0.71291600  0.31561000  1
  O  O12  1  0.75000000  0.78708400  0.81561000  1
  O  O13  1  0.75000000  0.86928600  0.52056500  1
  O  O14  1  0.25000000  0.92523800  0.07965200  1
  O  O15  1  0.75000000  0.98898800  0.28455300  1
loop_
_geom_bond_atom_site_label_1
_geom_bond_atom_site_label_2
_geom_bond_distance
_geom_bond_site_symmetry_2
Nd0 O0 2.294725 1_555
Nd0 O0 2.294725 1_655
Nd0 O4 2.370619 1_555
Nd0 O13 2.442029 1_545
Nd0 O2 2.500712 1_555
Nd0 O2 2.500712 1_655
Nd1 O15 2.341766 1_545
Nd1 O1 2.384978 1_554
Nd1 O3 2.423691 1_555
Nd1 O3 2.423691 1_655
Nd1 O14 2.446503 1_545
Nd1 O14 2.446503 1_645
Nd2 O8 2.341766 1_555
Nd2 O6 2.384978 1_555
Nd2 O4 2.423691 1_555
Nd2 O4 2.423691 1_455
Nd2 O9 2.446503 1_455
Nd2 O9 2.446503 1_555
Nd3 O7 2.294725 1_555
Nd3 O7 2.294725 1_455
Nd3 O3 2.370619 1_555
Nd3 O10 2.442029 1_555
Nd3 O5 2.500712 1_554
Nd3 O5 2.500712 1_454
Nd4 O8 2.294725 1_655
Nd4 O8 2.294725 1_555
Nd4 O12 2.370619 1_555
Nd4 O5 2.442029 1_555
Nd4 O10 2.500712 1_556
Nd4 O10 2.500712 1_656
Nd5 O7 2.341766 1_555
Nd5 O9 2.384978 1_555
Nd5 O11 2.423691 1_655
Nd5 O11 2.423691 1_555
Nd5 O6 2.446503 1_655
Nd5 O6 2.446503 1_555
Nd6 O0 2.341766 1_565
Nd6 O14 2.384978 1_556
Nd6 O12 2.423691 1_455
Nd6 O12 2.423691 1_555
Nd6 O1 2.446503 1_465
Nd6 O1 2.446503 1_565
Nd7 O15 2.294725 1_455
Nd7 O15 2.294725 1_555
Nd7 O11 2.370619 1_555
Nd7 O2 2.442029 1_565
Nd7 O13 2.500712 1_555
Nd7 O13 2.500712 1_455
O0 Sr3 2.817549 1_545
O0 Sr1 3.029235 1_555
O1 Sr1 2.712557 1_555
O1 Sr1 2.712557 1_655
O2 Sr0 2.683375 1_555
O2 Sr0 2.683375 1_455
O3 Sr0 2.756533 1_555
O3 Sr0 2.756533 1_455
O4 Sr1 2.756533 1_555
O4 Sr1 2.756533 1_655
O5 Sr1 2.683375 1_655
O5 Sr1 2.683375 1_555
O6 Sr0 2.712557 1_455
O6 Sr0 2.712557 1_555
O7 Sr2 2.817549 1_555
O7 Sr0 3.029235 1_555
O8 Sr1 2.817549 1_555
O8 Sr3 3.029235 1_555
O9 Sr3 2.712557 1_555
O9 Sr3 2.712557 1_655
O10 Sr2 2.683375 1_455
O10 Sr2 2.683375 1_555
O11 Sr2 2.756533 1_455
O11 Sr2 2.756533 1_555
O12 Sr3 2.756533 1_655
O12 Sr3 2.756533 1_555
O13 Sr3 2.683375 1_555
O13 Sr3 2.683375 1_655
O14 Sr2 2.712557 1_455
O14 Sr2 2.712557 1_555
O15 Sr0 2.817549 1_565
O15 Sr2 3.029235 1_555
