# generated using pymatgen
data_Li2Mn(FeO3)2
_symmetry_space_group_name_H-M   'P 1'
_cell_length_a   6.70192200
_cell_length_b   6.73787601
_cell_length_c   8.42105896
_cell_angle_alpha   71.07402419
_cell_angle_beta   70.74166413
_cell_angle_gamma   83.07259900
_symmetry_Int_Tables_number   1
_chemical_formula_structural   Li2Mn(FeO3)2
_chemical_formula_sum   'Li6 Mn3 Fe6 O18'
_cell_volume   339.54099202
_cell_formula_units_Z   3
loop_
 _symmetry_equiv_pos_site_id
 _symmetry_equiv_pos_as_xyz
  1  'x, y, z'
loop_
 _atom_site_type_symbol
 _atom_site_label
 _atom_site_symmetry_multiplicity
 _atom_site_fract_x
 _atom_site_fract_y
 _atom_site_fract_z
 _atom_site_occupancy
  Li  Li0  1  0.49997000  0.82701400  0.66849000  1
  Li  Li1  1  0.16812800  0.82565200  0.00248000  1
  Li  Li2  1  0.16785100  0.50243100  0.32878100  1
  Li  Li3  1  0.83214900  0.49756900  0.67121900  1
  Li  Li4  1  0.83187200  0.17434800  0.99752000  1
  Li  Li5  1  0.50003000  0.17298600  0.33151000  1
  Mn  Mn0  1  0.50000000  0.50000000  0.50000000  1
  Mn  Mn1  1  0.16823400  0.49914300  0.83368600  1
  Mn  Mn2  1  0.83176600  0.50085700  0.16631400  1
  Fe  Fe0  1  0.83170200  0.84205900  0.83209600  1
  Fe  Fe1  1  0.50291500  0.83409600  0.16459200  1
  Fe  Fe2  1  0.16334000  0.83794400  0.49838600  1
  Fe  Fe3  1  0.49708500  0.16590400  0.83540800  1
  Fe  Fe4  1  0.16829800  0.15794100  0.16790400  1
  Fe  Fe5  1  0.83666000  0.16205600  0.50161400  1
  O  O0  1  0.82313400  0.80628900  0.07848700  1
  O  O1  1  0.48067000  0.80528800  0.42260400  1
  O  O2  1  0.15807800  0.79883900  0.75514200  1
  O  O3  1  0.81275800  0.48683900  0.40903000  1
  O  O4  1  0.47999800  0.49341800  0.73644600  1
  O  O5  1  0.81481800  0.16209900  0.75060500  1
  O  O6  1  0.52000200  0.50658200  0.26355400  1
  O  O7  1  0.18724200  0.51316100  0.59097000  1
  O  O8  1  0.51933000  0.19471200  0.57739600  1
  O  O9  1  0.13699800  0.49440500  0.07826200  1
  O  O10  1  0.49148300  0.14604600  0.08622100  1
  O  O11  1  0.15628700  0.15658300  0.40701900  1
  O  O12  1  0.86300200  0.50559500  0.92173800  1
  O  O13  1  0.17686600  0.19371100  0.92151300  1
  O  O14  1  0.84192200  0.20116100  0.24485800  1
  O  O15  1  0.50851700  0.85395400  0.91377900  1
  O  O16  1  0.18518200  0.83790100  0.24939500  1
  O  O17  1  0.84371300  0.84341700  0.59298100  1
loop_
_geom_bond_atom_site_label_1
_geom_bond_atom_site_label_2
_geom_bond_distance
_geom_bond_site_symmetry_2
Li0 O4 2.141337 1_555
Li0 O15 2.150973 1_555
Li0 O1 2.168755 1_555
Li0 O2 2.175050 1_555
Li0 O17 2.184782 1_555
Li0 O8 2.349968 1_565
Li1 O9 2.129017 1_555
Li1 O16 2.147945 1_555
Li1 O15 2.164934 1_554
Li1 O2 2.171407 1_554
Li1 O0 2.194307 1_455
Li1 O13 2.351643 1_564
Li2 O16 2.145109 1_555
Li2 O9 2.204699 1_555
Li2 O11 2.210032 1_555
Li2 O6 2.241277 1_555
Li2 O3 2.254899 1_455
Li2 O7 2.278611 1_555
Li3 O5 2.145109 1_555
Li3 O12 2.204699 1_555
Li3 O17 2.210032 1_555
Li3 O4 2.241277 1_555
Li3 O7 2.254899 1_655
Li3 O3 2.278611 1_555
Li4 O12 2.129017 1_555
Li4 O5 2.147945 1_555
Li4 O10 2.164934 1_556
Li4 O14 2.171407 1_556
Li4 O13 2.194307 1_655
Li4 O0 2.351643 1_546
Li5 O6 2.141337 1_555
Li5 O10 2.150973 1_555
Li5 O8 2.168755 1_555
Li5 O14 2.175050 1_555
Li5 O11 2.184782 1_555
Li5 O1 2.349968 1_545
Mn0 O4 1.937163 1_555
Mn0 O6 1.937163 1_555
Mn0 O1 1.947955 1_555
Mn0 O8 1.947955 1_555
Mn0 O7 1.981986 1_555
Mn0 O3 1.981986 1_555
Mn1 O2 1.910466 1_555
Mn1 O12 1.932672 1_455
Mn1 O13 1.948773 1_555
Mn1 O7 1.977042 1_555
Mn1 O4 1.977398 1_555
Mn1 O9 1.990300 1_556
Mn2 O14 1.910466 1_555
Mn2 O9 1.932672 1_655
Mn2 O0 1.948773 1_555
Mn2 O3 1.977042 1_555
Mn2 O6 1.977398 1_555
Mn2 O12 1.990300 1_554
Fe0 O17 1.985562 1_555
Fe0 O0 1.991691 1_556
Fe0 O5 2.041121 1_565
Fe0 O15 2.045004 1_555
Fe0 O2 2.079172 1_655
Fe0 O12 2.152435 1_555
Fe1 O10 1.988464 1_565
Fe1 O16 2.010138 1_555
Fe1 O0 2.032528 1_555
Fe1 O15 2.060560 1_554
Fe1 O1 2.073741 1_555
Fe1 O6 2.094369 1_555
Fe2 O1 2.015325 1_555
Fe2 O17 2.024585 1_455
Fe2 O11 2.032625 1_565
Fe2 O16 2.053236 1_555
Fe2 O7 2.076883 1_555
Fe2 O2 2.080379 1_555
Fe3 O15 1.988464 1_545
Fe3 O5 2.010138 1_555
Fe3 O13 2.032528 1_555
Fe3 O10 2.060560 1_556
Fe3 O8 2.073741 1_555
Fe3 O4 2.094369 1_555
Fe4 O11 1.985562 1_555
Fe4 O13 1.991691 1_554
Fe4 O16 2.041121 1_545
Fe4 O10 2.045004 1_555
Fe4 O14 2.079172 1_455
Fe4 O9 2.152435 1_555
Fe5 O8 2.015325 1_555
Fe5 O11 2.024585 1_655
Fe5 O17 2.032625 1_545
Fe5 O5 2.053236 1_555
Fe5 O3 2.076883 1_555
Fe5 O14 2.080379 1_555
