# generated using pymatgen
data_Li5Mn2Fe3O10
_symmetry_space_group_name_H-M   'P 1'
_cell_length_a   5.28762866
_cell_length_b   8.16421489
_cell_length_c   10.21267050
_cell_angle_alpha   110.29700077
_cell_angle_beta   102.06627632
_cell_angle_gamma   67.60648158
_symmetry_Int_Tables_number   1
_chemical_formula_structural   Li5Mn2Fe3O10
_chemical_formula_sum   'Li10 Mn4 Fe6 O20'
_cell_volume   380.81086964
_cell_formula_units_Z   2
loop_
 _symmetry_equiv_pos_site_id
 _symmetry_equiv_pos_as_xyz
  1  'x, y, z'
loop_
 _atom_site_type_symbol
 _atom_site_label
 _atom_site_symmetry_multiplicity
 _atom_site_fract_x
 _atom_site_fract_y
 _atom_site_fract_z
 _atom_site_occupancy
  Li  Li0  1  0.99999200  0.50001100  0.25000900  1
  Li  Li1  1  0.99997400  0.49996900  0.74997300  1
  Li  Li2  1  0.50601400  0.41885100  0.10419300  1
  Li  Li3  1  0.50599500  0.41885000  0.60420900  1
  Li  Li4  1  0.49404100  0.58114700  0.39579000  1
  Li  Li5  1  0.49396900  0.58112800  0.89578200  1
  Li  Li6  1  0.51516700  0.76340400  0.18887400  1
  Li  Li7  1  0.51523300  0.76364800  0.68889700  1
  Li  Li8  1  0.48480100  0.23637900  0.31110600  1
  Li  Li9  1  0.48480400  0.23657600  0.81109600  1
  Mn  Mn0  1  0.00953500  0.68869100  0.54803600  1
  Mn  Mn1  1  0.99050700  0.31140900  0.45211400  1
  Mn  Mn2  1  0.00917800  0.68872600  0.04777900  1
  Mn  Mn3  1  0.99091600  0.31121700  0.95220900  1
  Fe  Fe0  1  0.50008100  0.00005000  0.00000900  1
  Fe  Fe1  1  0.00432400  0.88885000  0.34641000  1
  Fe  Fe2  1  0.99570100  0.11112200  0.65357200  1
  Fe  Fe3  1  0.49996300  0.99998500  0.49996200  1
  Fe  Fe4  1  0.00432000  0.88893800  0.84651500  1
  Fe  Fe5  1  0.99560000  0.11106600  0.15352500  1
  O  O0  1  0.25756400  0.86709600  0.02252600  1
  O  O1  1  0.25760100  0.86714200  0.52256100  1
  O  O2  1  0.74242100  0.13286400  0.47748000  1
  O  O3  1  0.74241600  0.13288100  0.97744000  1
  O  O4  1  0.78096600  0.93946700  0.16532900  1
  O  O5  1  0.78101300  0.93960100  0.66548000  1
  O  O6  1  0.21896800  0.06042800  0.33456000  1
  O  O7  1  0.21901900  0.06050200  0.83461600  1
  O  O8  1  0.76533000  0.53586700  0.06721800  1
  O  O9  1  0.76525600  0.53593600  0.56726200  1
  O  O10  1  0.23471300  0.46412100  0.43280700  1
  O  O11  1  0.23464000  0.46412400  0.93272800  1
  O  O12  1  0.23278100  0.23294000  0.11743300  1
  O  O13  1  0.23269200  0.23301700  0.61747900  1
  O  O14  1  0.76731100  0.76694900  0.38254700  1
  O  O15  1  0.76720100  0.76706000  0.88252600  1
  O  O16  1  0.23952600  0.66425200  0.22104600  1
  O  O17  1  0.23968500  0.66438800  0.72124000  1
  O  O18  1  0.76036800  0.33563600  0.27880400  1
  O  O19  1  0.76041700  0.33571000  0.77885800  1
loop_
_geom_bond_atom_site_label_1
_geom_bond_atom_site_label_2
_geom_bond_distance
_geom_bond_site_symmetry_2
Li0 O8 2.060129 1_555
Li0 O10 2.060363 1_655
Li0 O14 2.168434 1_555
Li0 O12 2.169389 1_655
Li0 O16 2.283749 1_655
Li0 O18 2.284285 1_555
Li1 O9 2.059763 1_555
Li1 O11 2.059811 1_655
Li1 O13 2.168384 1_655
Li1 O15 2.169363 1_555
Li1 O19 2.283613 1_555
Li1 O17 2.284674 1_655
Li2 O11 2.063112 1_554
Li2 O16 2.077734 1_555
Li2 O8 2.097667 1_555
Li2 O18 2.142887 1_555
Li2 O3 2.246162 1_554
Li2 O12 2.510826 1_555
Li3 O10 2.062397 1_555
Li3 O17 2.078589 1_555
Li3 O9 2.097718 1_555
Li3 O19 2.143097 1_555
Li3 O2 2.246198 1_555
Li3 O13 2.510710 1_555
Li4 O9 2.062683 1_555
Li4 O18 2.078341 1_555
Li4 O10 2.097988 1_555
Li4 O16 2.143943 1_555
Li4 O1 2.246408 1_555
Li4 O14 2.510248 1_555
Li5 O8 2.062834 1_556
Li5 O19 2.077990 1_555
Li5 O11 2.097510 1_555
Li5 O17 2.142327 1_555
Li5 O0 2.246126 1_556
Li5 O15 2.511029 1_555
Li6 O8 1.989438 1_555
Li6 O16 2.042351 1_555
Li6 O14 2.139559 1_555
Li6 O0 2.147056 1_555
Li6 O4 2.453490 1_555
Li6 O6 2.474761 1_565
Li7 O9 1.989682 1_555
Li7 O17 2.043330 1_555
Li7 O15 2.138875 1_555
Li7 O1 2.146318 1_555
Li7 O5 2.452105 1_555
Li7 O7 2.474188 1_565
Li8 O10 1.990242 1_555
Li8 O18 2.043214 1_555
Li8 O12 2.139334 1_555
Li8 O2 2.146679 1_555
Li8 O6 2.452479 1_555
Li8 O4 2.474573 1_545
Li9 O11 1.989374 1_555
Li9 O19 2.042413 1_555
Li9 O13 2.139026 1_555
Li9 O3 2.147049 1_555
Li9 O7 2.453397 1_555
Li9 O5 2.474288 1_545
Mn0 O10 1.894636 1_555
Mn0 O17 1.951611 1_555
Mn0 O5 2.027395 1_455
Mn0 O14 2.031173 1_455
Mn0 O9 2.183010 1_455
Mn0 O1 2.402600 1_555
Mn1 O9 1.894262 1_555
Mn1 O18 1.952355 1_555
Mn1 O6 2.028033 1_655
Mn1 O13 2.030476 1_655
Mn1 O10 2.182740 1_655
Mn1 O2 2.402857 1_555
Mn2 O11 1.894599 1_554
Mn2 O16 1.952796 1_555
Mn2 O4 2.026445 1_455
Mn2 O15 2.029008 1_454
Mn2 O8 2.182723 1_455
Mn2 O0 2.402410 1_555
Mn3 O8 1.894878 1_556
Mn3 O19 1.953836 1_555
Mn3 O7 2.026291 1_655
Mn3 O12 2.028400 1_656
Mn3 O11 2.182682 1_655
Mn3 O3 2.402558 1_555
Fe0 O12 2.032265 1_555
Fe0 O15 2.032453 1_544
Fe0 O3 2.055915 1_554
Fe0 O0 2.057312 1_545
Fe0 O4 2.066959 1_545
Fe0 O7 2.067679 1_554
Fe1 O16 1.961533 1_555
Fe1 O1 2.023447 1_555
Fe1 O14 2.023806 1_455
Fe1 O4 2.056888 1_455
Fe1 O2 2.121614 1_465
Fe1 O6 2.156712 1_565
Fe2 O19 1.961307 1_555
Fe2 O2 2.023024 1_555
Fe2 O13 2.023452 1_655
Fe2 O7 2.056509 1_655
Fe2 O1 2.121210 1_645
Fe2 O5 2.156722 1_545
Fe3 O14 2.032900 1_555
Fe3 O13 2.033125 1_565
Fe3 O1 2.056245 1_555
Fe3 O2 2.056403 1_565
Fe3 O6 2.067568 1_565
Fe3 O5 2.068469 1_555
Fe4 O17 1.961288 1_555
Fe4 O0 2.022411 1_556
Fe4 O15 2.023510 1_455
Fe4 O5 2.056516 1_455
Fe4 O3 2.120689 1_465
Fe4 O7 2.157037 1_565
Fe5 O18 1.961092 1_555
Fe5 O3 2.022829 1_554
Fe5 O12 2.024160 1_655
Fe5 O6 2.056556 1_655
Fe5 O0 2.121262 1_645
Fe5 O4 2.156636 1_545
