# generated using pymatgen
data_Li2MnFe(BO3)2
_symmetry_space_group_name_H-M   'P 1'
_cell_length_a   6.32669300
_cell_length_b   8.25220800
_cell_length_c   8.25655470
_cell_angle_alpha   60.09434268
_cell_angle_beta   90.00000000
_cell_angle_gamma   90.00000000
_symmetry_Int_Tables_number   1
_chemical_formula_structural   Li2MnFe(BO3)2
_chemical_formula_sum   'Li6 Mn3 Fe3 B6 O18'
_cell_volume   373.67023281
_cell_formula_units_Z   3
loop_
 _symmetry_equiv_pos_site_id
 _symmetry_equiv_pos_as_xyz
  1  'x, y, z'
loop_
 _atom_site_type_symbol
 _atom_site_label
 _atom_site_symmetry_multiplicity
 _atom_site_fract_x
 _atom_site_fract_y
 _atom_site_fract_z
 _atom_site_occupancy
  Li  Li0  1  0.25063300  0.98231100  0.30163400  1
  Li  Li1  1  0.74936700  0.98231100  0.30163400  1
  Li  Li2  1  0.24919000  0.30195000  0.71618900  1
  Li  Li3  1  0.75081000  0.30195000  0.71618900  1
  Li  Li4  1  0.74933000  0.71480700  0.98409100  1
  Li  Li5  1  0.25067000  0.71480700  0.98409100  1
  Mn  Mn0  1  0.00000000  0.35965700  0.01277800  1
  Mn  Mn1  1  0.00000000  0.01209600  0.62856200  1
  Mn  Mn2  1  0.50000000  0.01241700  0.62687900  1
  Fe  Fe0  1  0.50000000  0.35893000  0.00677500  1
  Fe  Fe1  1  0.00000000  0.63295600  0.35896300  1
  Fe  Fe2  1  0.50000000  0.63178400  0.35995100  1
  B  B0  1  0.00000000  0.99735900  0.00080700  1
  B  B1  1  0.50000000  0.99760400  0.00263400  1
  B  B2  1  0.25162900  0.66601100  0.66524400  1
  B  B3  1  0.74837100  0.66601100  0.66524400  1
  B  B4  1  0.25161600  0.33586400  0.33282700  1
  B  B5  1  0.74838400  0.33586400  0.33282700  1
  O  O0  1  0.50000000  0.91536600  0.19618400  1
  O  O1  1  0.00000000  0.91673200  0.19501000  1
  O  O2  1  0.25004900  0.58023200  0.55680500  1
  O  O3  1  0.74995100  0.58023200  0.55680500  1
  O  O4  1  0.00000000  0.19118700  0.88746300  1
  O  O5  1  0.50000000  0.19295100  0.89130400  1
  O  O6  1  0.24994900  0.85972400  0.57971900  1
  O  O7  1  0.75005100  0.85972400  0.57971900  1
  O  O8  1  0.25353700  0.55801600  0.85911100  1
  O  O9  1  0.74646300  0.55801600  0.85911100  1
  O  O10  1  0.25362500  0.25377600  0.22065900  1
  O  O11  1  0.74637500  0.25377600  0.22065900  1
  O  O12  1  0.00000000  0.88320300  0.92131800  1
  O  O13  1  0.50000000  0.88719600  0.91960000  1
  O  O14  1  0.25036500  0.52943000  0.25284300  1
  O  O15  1  0.74963500  0.52943000  0.25284300  1
  O  O16  1  0.74996500  0.22316000  0.52676400  1
  O  O17  1  0.25003500  0.22316000  0.52676400  1
loop_
_geom_bond_atom_site_label_1
_geom_bond_atom_site_label_2
_geom_bond_distance
_geom_bond_site_symmetry_2
Li0 O10 1.993069 1_565
Li0 O6 1.994754 1_555
Li0 O0 2.007955 1_555
Li0 O1 2.014277 1_555
Li1 O11 1.993069 1_565
Li1 O7 1.994754 1_555
Li1 O0 2.007955 1_555
Li1 O1 2.014277 1_655
Li2 O17 1.970498 1_555
Li2 O2 1.998004 1_555
Li2 O4 2.007949 1_555
Li2 O5 2.029942 1_555
Li3 O16 1.970498 1_555
Li3 O3 1.998004 1_555
Li3 O4 2.007949 1_655
Li3 O5 2.029942 1_555
Li4 O15 1.969565 1_556
Li4 O12 1.999164 1_655
Li4 O13 2.010040 1_555
Li4 O9 2.017573 1_555
Li5 O14 1.969565 1_556
Li5 O12 1.999164 1_555
Li5 O13 2.010040 1_555
Li5 O8 2.017573 1_555
Mn0 O4 2.106580 1_554
Mn0 O10 2.188323 1_555
Mn0 O11 2.188323 1_455
Mn0 O9 2.188896 1_454
Mn0 O8 2.188896 1_554
Mn1 O12 2.100077 1_545
Mn1 O6 2.179450 1_545
Mn1 O7 2.179450 1_445
Mn1 O16 2.186949 1_455
Mn1 O17 2.186949 1_555
Mn2 O13 2.102074 1_545
Mn2 O6 2.175156 1_545
Mn2 O7 2.175156 1_545
Mn2 O17 2.185240 1_555
Mn2 O16 2.185240 1_555
Fe0 O5 2.021669 1_554
Fe0 O8 2.149339 1_554
Fe0 O9 2.149339 1_554
Fe0 O10 2.184764 1_555
Fe0 O11 2.184764 1_555
Fe1 O1 2.038481 1_555
Fe1 O3 2.156754 1_455
Fe1 O2 2.156754 1_555
Fe1 O15 2.180130 1_455
Fe1 O14 2.180130 1_555
Fe2 O0 2.037032 1_555
Fe2 O2 2.152657 1_555
Fe2 O3 2.152657 1_555
Fe2 O14 2.175938 1_555
Fe2 O15 2.175938 1_555
B0 O12 1.390926 1_554
B0 O4 1.393417 1_564
B0 O1 1.396397 1_555
B1 O13 1.386717 1_554
B1 O0 1.390296 1_555
B1 O5 1.402160 1_564
B2 O6 1.388724 1_555
B2 O8 1.390715 1_555
B2 O2 1.390957 1_555
B3 O7 1.388724 1_555
B3 O9 1.390715 1_555
B3 O3 1.390957 1_555
B4 O14 1.391342 1_555
B4 O10 1.393669 1_555
B4 O17 1.394312 1_555
B5 O15 1.391342 1_555
B5 O11 1.393669 1_555
B5 O16 1.394312 1_555
