# generated using pymatgen
data_NaCr6O11
_symmetry_space_group_name_H-M   'P 1'
_cell_length_a   5.82480599
_cell_length_b   5.82348875
_cell_length_c   12.99973225
_cell_angle_alpha   89.93269127
_cell_angle_beta   90.03364240
_cell_angle_gamma   119.99251728
_symmetry_Int_Tables_number   1
_chemical_formula_structural   NaCr6O11
_chemical_formula_sum   'Na2 Cr12 O22'
_cell_volume   381.91101705
_cell_formula_units_Z   2
loop_
 _symmetry_equiv_pos_site_id
 _symmetry_equiv_pos_as_xyz
  1  'x, y, z'
loop_
 _atom_site_type_symbol
 _atom_site_label
 _atom_site_symmetry_multiplicity
 _atom_site_fract_x
 _atom_site_fract_y
 _atom_site_fract_z
 _atom_site_occupancy
  Na  Na0  1  0.33187173  0.66594243  0.25384275  1
  Na  Na1  1  0.66812827  0.33406970  0.75384275  1
  Cr  Cr0  1  0.00010991  0.50003645  0.00043032  1
  Cr  Cr1  1  0.33373326  0.66688637  0.75030863  1
  Cr  Cr2  1  0.99969684  0.00014332  0.14581623  1
  Cr  Cr3  1  0.99971944  0.99967313  0.35494277  1
  Cr  Cr4  1  0.00030316  0.00044648  0.64581623  1
  Cr  Cr5  1  0.00028056  -0.00004630  0.85494277  1
  Cr  Cr6  1  0.49998338  -0.00006409  0.00043602  1
  Cr  Cr7  1  0.50002489  0.50000723  0.00042786  1
  Cr  Cr8  1  0.50001662  0.49995253  0.50043602  1
  Cr  Cr9  1  0.66626674  0.33315311  0.25030863  1
  Cr  Cr10  1  0.49997511  -0.00001866  0.50042786  1
  Cr  Cr11  1  0.99989009  0.49992654  0.50043032  1
  O  O0  1  0.15382672  0.84740293  0.75030197  1
  O  O1  1  0.17348588  0.82467402  0.42237725  1
  O  O2  1  0.17470841  0.82530204  0.07853912  1
  O  O3  1  0.33332665  0.66678066  0.91310103  1
  O  O4  1  0.33328497  0.66651848  0.58771553  1
  O  O5  1  0.15385211  0.30643723  0.75036045  1
  O  O6  1  0.17512664  0.35034617  0.42174375  1
  O  O7  1  0.17308644  0.34799721  0.07794078  1
  O  O8  1  0.30584162  0.15292644  0.25033453  1
  O  O9  1  0.65225753  0.82704828  0.07770187  1
  O  O10  1  0.65133983  0.82478231  0.42259113  1
  O  O11  1  0.34866017  0.17344248  0.92259113  1
  O  O12  1  0.34774247  0.17479075  0.57770187  1
  O  O13  1  0.69415838  0.84708483  0.75033453  1
  O  O14  1  0.84617328  0.69357521  0.25030197  1
  O  O15  1  0.66671503  0.33323351  0.08771553  1
  O  O16  1  0.82529159  0.65059363  0.57853912  1
  O  O17  1  0.66667335  0.33345401  0.41310103  1
  O  O18  1  0.82651412  0.65118813  0.92237725  1
  O  O19  1  0.82691356  0.17491077  0.57794078  1
  O  O20  1  0.82487336  0.17521953  0.92174375  1
  O  O21  1  0.84614789  0.15258612  0.25036045  1
loop_
_geom_bond_atom_site_label_1
_geom_bond_atom_site_label_2
_geom_bond_distance
_geom_bond_site_symmetry_2
Na0 O6 2.700129 1_555
Na0 O1 2.713924 1_555
Na0 O10 2.722074 1_555
Na0 O2 2.781117 1_555
Na0 O7 2.794267 1_555
Na0 O9 2.802765 1_555
Na0 O14 2.913211 1_455
Na0 O21 2.913404 1_455
Na0 O8 2.915002 1_565
Na0 O8 2.915120 1_555
Na0 O21 2.918775 1_565
Na0 O14 2.918983 1_555
Na1 O20 2.700126 1_555
Na1 O18 2.713927 1_555
Na1 O11 2.722073 1_555
Na1 O16 2.781120 1_555
Na1 O19 2.794264 1_555
Na1 O12 2.802765 1_555
Na1 O0 2.913218 1_655
Na1 O5 2.913404 1_655
Na1 O13 2.915008 1_555
Na1 O13 2.915114 1_545
Na1 O5 2.918775 1_555
Na1 O0 2.918977 1_545
Cr0 O7 1.924314 1_555
Cr0 O18 1.927007 1_454
Cr0 O2 1.931474 1_555
Cr0 O20 1.933708 1_454
Cr0 O3 2.028453 1_554
Cr0 O15 2.028877 1_455
Cr1 O0 1.817855 1_555
Cr1 O5 1.817986 1_555
Cr1 O13 1.818276 1_555
Cr1 O4 2.113669 1_555
Cr1 O3 2.116259 1_555
Cr2 O7 1.963046 1_655
Cr2 O9 1.963733 1_545
Cr2 O2 1.970190 1_645
Cr2 O8 2.057035 1_655
Cr2 O14 2.057060 1_545
Cr2 O21 2.057456 1_555
Cr3 O1 1.964595 1_655
Cr3 O10 1.965250 1_555
Cr3 O6 1.971157 1_665
Cr3 O21 2.057573 1_565
Cr3 O8 2.057722 1_665
Cr3 O14 2.058688 1_555
Cr4 O19 1.963046 1_455
Cr4 O12 1.963733 1_555
Cr4 O16 1.970190 1_445
Cr4 O13 2.057035 1_445
Cr4 O0 2.057056 1_545
Cr4 O5 2.057452 1_555
Cr5 O18 1.964595 1_445
Cr5 O11 1.965250 1_555
Cr5 O20 1.971157 1_455
Cr5 O5 2.057569 1_555
Cr5 O13 2.057722 1_445
Cr5 O0 2.058684 1_545
Cr6 O9 1.923187 1_545
Cr6 O11 1.925844 1_554
Cr6 O2 1.930882 1_545
Cr6 O20 1.933454 1_554
Cr6 O3 2.028879 1_544
Cr6 O15 2.029070 1_555
Cr7 O9 1.933294 1_555
Cr7 O7 1.933984 1_555
Cr7 O11 1.935194 1_554
Cr7 O18 1.935833 1_554
Cr7 O15 2.027911 1_555
Cr7 O3 2.028228 1_554
Cr8 O12 1.923187 1_555
Cr8 O10 1.925844 1_555
Cr8 O16 1.930882 1_555
Cr8 O6 1.933454 1_555
Cr8 O17 2.028879 1_555
Cr8 O4 2.029070 1_555
Cr9 O14 1.817850 1_555
Cr9 O21 1.817981 1_555
Cr9 O8 1.818276 1_555
Cr9 O15 2.113669 1_555
Cr9 O17 2.116259 1_555
Cr10 O12 1.933298 1_555
Cr10 O19 1.933984 1_555
Cr10 O10 1.935189 1_545
Cr10 O1 1.935833 1_545
Cr10 O4 2.027907 1_545
Cr10 O17 2.028232 1_555
Cr11 O19 1.924314 1_555
Cr11 O1 1.927007 1_655
Cr11 O16 1.931474 1_555
Cr11 O6 1.933708 1_655
Cr11 O17 2.028453 1_555
Cr11 O4 2.028877 1_655
