# generated using pymatgen
data_Li(Fe2O3)4
_symmetry_space_group_name_H-M   'P 1'
_cell_length_a   6.03700014
_cell_length_b   6.03700014
_cell_length_c   13.40769268
_cell_angle_alpha   77.14554243
_cell_angle_beta   77.14554243
_cell_angle_gamma   89.87029000
_symmetry_Int_Tables_number   1
_chemical_formula_structural   Li(Fe2O3)4
_chemical_formula_sum   'Li2 Fe16 O24'
_cell_volume   463.88879148
_cell_formula_units_Z   2
loop_
 _symmetry_equiv_pos_site_id
 _symmetry_equiv_pos_as_xyz
  1  'x, y, z'
loop_
 _atom_site_type_symbol
 _atom_site_label
 _atom_site_symmetry_multiplicity
 _atom_site_fract_x
 _atom_site_fract_y
 _atom_site_fract_z
 _atom_site_occupancy
  Li  Li0  1  0.95797800  0.45938300  0.58341300  1
  Li  Li1  1  0.45938300  0.95797800  0.08341300  1
  Fe  Fe0  1  0.00091900  0.25658400  0.00150800  1
  Fe  Fe1  1  0.29220800  0.79901900  0.91906700  1
  Fe  Fe2  1  0.78597900  0.79731500  0.92106400  1
  Fe  Fe3  1  0.58303600  0.33144300  0.83263100  1
  Fe  Fe4  1  0.11724000  0.62549000  0.74757500  1
  Fe  Fe5  1  0.11745400  0.12750000  0.74786300  1
  Fe  Fe6  1  0.66063600  0.91819900  0.66488500  1
  Fe  Fe7  1  0.45933800  0.46094300  0.58172100  1
  Fe  Fe8  1  0.25658400  0.00091900  0.50150800  1
  Fe  Fe9  1  0.79731500  0.78597900  0.42106400  1
  Fe  Fe10  1  0.79901900  0.29220800  0.41906700  1
  Fe  Fe11  1  0.33144300  0.58303600  0.33263100  1
  Fe  Fe12  1  0.12750000  0.11745400  0.24786300  1
  Fe  Fe13  1  0.62549000  0.11724000  0.24757500  1
  Fe  Fe14  1  0.91819900  0.66063600  0.16488500  1
  Fe  Fe15  1  0.46094300  0.45933800  0.08172100  1
  O  O0  1  0.53548400  0.03017700  0.91373200  1
  O  O1  1  0.52825400  0.54812200  0.92133300  1
  O  O2  1  0.05481500  0.03997700  0.91130900  1
  O  O3  1  0.05090400  0.56064500  0.90941100  1
  O  O4  1  0.35158800  0.87095000  0.75706200  1
  O  O5  1  0.89077800  0.87595600  0.74905200  1
  O  O6  1  0.89286500  0.37436100  0.75115700  1
  O  O7  1  0.35978200  0.37827300  0.74355000  1
  O  O8  1  0.21490700  0.69566400  0.58899500  1
  O  O9  1  0.21560000  0.21481300  0.59080800  1
  O  O10  1  0.69454400  0.69658700  0.58446400  1
  O  O11  1  0.70067400  0.22076900  0.57758800  1
  O  O12  1  0.03017700  0.53548400  0.41373200  1
  O  O13  1  0.54812200  0.52825400  0.42133300  1
  O  O14  1  0.56064500  0.05090400  0.40941100  1
  O  O15  1  0.03997700  0.05481500  0.41130900  1
  O  O16  1  0.87095000  0.35158800  0.25706200  1
  O  O17  1  0.87595600  0.89077800  0.24905200  1
  O  O18  1  0.37827300  0.35978200  0.24355000  1
  O  O19  1  0.37436100  0.89286500  0.25115700  1
  O  O20  1  0.69566400  0.21490700  0.08899500  1
  O  O21  1  0.21481300  0.21560000  0.09080800  1
  O  O22  1  0.22076900  0.70067400  0.07758800  1
  O  O23  1  0.69658700  0.69454400  0.08446400  1
loop_
_geom_bond_atom_site_label_1
_geom_bond_atom_site_label_2
_geom_bond_distance
_geom_bond_site_symmetry_2
Li0 O8 2.134320 1_655
Li0 O10 2.137460 1_555
Li0 O6 2.137788 1_555
Li0 O9 2.145161 1_655
Li0 O11 2.146678 1_555
Li0 O12 2.161352 1_655
Li1 O20 2.134320 1_565
Li1 O23 2.137460 1_555
Li1 O19 2.137788 1_555
Li1 O21 2.145161 1_565
Li1 O22 2.146678 1_555
Li1 O0 2.161352 1_564
Fe0 O21 1.927906 1_555
Fe0 O20 1.934992 1_455
Fe0 O2 1.950649 1_554
Fe0 O3 1.952811 1_554
Fe1 O0 2.006892 1_565
Fe1 O22 2.021794 1_556
Fe1 O2 2.042137 1_565
Fe1 O4 2.066326 1_555
Fe1 O1 2.077210 1_555
Fe1 O3 2.094302 1_555
Fe2 O0 2.065865 1_565
Fe2 O23 2.084826 1_556
Fe2 O3 2.145119 1_655
Fe2 O2 2.151338 1_665
Fe2 O1 2.165556 1_555
Fe2 O5 2.193069 1_555
Fe3 O0 1.885772 1_555
Fe3 O6 1.930307 1_555
Fe3 O1 1.936525 1_555
Fe3 O7 1.971614 1_555
Fe4 O6 2.020774 1_455
Fe4 O8 2.022461 1_555
Fe4 O5 2.036602 1_455
Fe4 O3 2.063486 1_555
Fe4 O7 2.089272 1_555
Fe4 O4 2.094519 1_555
Fe5 O9 2.003861 1_555
Fe5 O6 2.013641 1_455
Fe5 O5 2.041538 1_445
Fe5 O2 2.083634 1_555
Fe5 O7 2.090191 1_555
Fe5 O4 2.096311 1_545
Fe6 O10 1.880657 1_555
Fe6 O11 1.920868 1_565
Fe6 O5 1.958783 1_555
Fe6 O4 1.977187 1_555
Fe7 O10 2.024100 1_555
Fe7 O13 2.043548 1_555
Fe7 O8 2.045215 1_555
Fe7 O11 2.053855 1_555
Fe7 O9 2.058504 1_555
Fe7 O7 2.063352 1_555
Fe8 O9 1.927906 1_555
Fe8 O8 1.934992 1_545
Fe8 O15 1.950649 1_555
Fe8 O14 1.952811 1_555
Fe9 O12 2.065865 1_655
Fe9 O10 2.084826 1_555
Fe9 O14 2.145119 1_565
Fe9 O15 2.151338 1_665
Fe9 O13 2.165556 1_555
Fe9 O17 2.193069 1_555
Fe10 O12 2.006892 1_655
Fe10 O11 2.021794 1_555
Fe10 O15 2.042137 1_655
Fe10 O16 2.066326 1_555
Fe10 O13 2.077210 1_555
Fe10 O14 2.094302 1_555
Fe11 O12 1.885772 1_555
Fe11 O19 1.930307 1_555
Fe11 O13 1.936525 1_555
Fe11 O18 1.971614 1_555
Fe12 O21 2.003861 1_555
Fe12 O19 2.013641 1_545
Fe12 O17 2.041538 1_445
Fe12 O15 2.083634 1_555
Fe12 O18 2.090191 1_555
Fe12 O16 2.096311 1_455
Fe13 O19 2.020774 1_545
Fe13 O20 2.022461 1_555
Fe13 O17 2.036602 1_545
Fe13 O14 2.063486 1_555
Fe13 O18 2.089272 1_555
Fe13 O16 2.094519 1_555
Fe14 O23 1.880657 1_555
Fe14 O22 1.920868 1_655
Fe14 O17 1.958783 1_555
Fe14 O16 1.977187 1_555
Fe15 O23 2.024100 1_555
Fe15 O1 2.043548 1_554
Fe15 O20 2.045215 1_555
Fe15 O22 2.053855 1_555
Fe15 O21 2.058504 1_555
Fe15 O18 2.063352 1_555
