# generated using pymatgen
data_K2MnH8(SO6)2
_symmetry_space_group_name_H-M   'P 1'
_cell_length_a   12.20937387
_cell_length_b   12.20937387
_cell_length_c   12.13032050
_cell_angle_alpha   64.85597653
_cell_angle_beta   64.85597653
_cell_angle_gamma   46.42184222
_symmetry_Int_Tables_number   1
_chemical_formula_structural   K2MnH8(SO6)2
_chemical_formula_sum   'K8 Mn4 H32 S8 O48'
_cell_volume   1161.56308642
_cell_formula_units_Z   4
loop_
 _symmetry_equiv_pos_site_id
 _symmetry_equiv_pos_as_xyz
  1  'x, y, z'
loop_
 _atom_site_type_symbol
 _atom_site_label
 _atom_site_symmetry_multiplicity
 _atom_site_fract_x
 _atom_site_fract_y
 _atom_site_fract_z
 _atom_site_occupancy
  K  K0  1  0.63774100  0.60350100  0.79880800  1
  K  K1  1  0.39649900  0.36225900  0.70119200  1
  K  K2  1  0.36225900  0.39649900  0.20119200  1
  K  K3  1  0.60350100  0.63774100  0.29880800  1
  K  K4  1  0.11867600  0.13751900  0.79162600  1
  K  K5  1  0.86248100  0.88132400  0.70837400  1
  K  K6  1  0.88132400  0.86248100  0.20837400  1
  K  K7  1  0.13751900  0.11867600  0.29162600  1
  Mn  Mn0  1  0.24915700  0.75084300  0.75000000  1
  Mn  Mn1  1  0.75084300  0.24915700  0.25000000  1
  Mn  Mn2  1  0.00000000  0.50000000  0.50000000  1
  Mn  Mn3  1  0.50000000  0.00000000  0.00000000  1
  H  H0  1  0.70211900  0.68699500  0.47608000  1
  H  H1  1  0.31300500  0.29788100  0.02392000  1
  H  H2  1  0.29788100  0.31300500  0.52392000  1
  H  H3  1  0.68699500  0.70211900  0.97608000  1
  H  H4  1  0.74401500  0.52231900  0.53349400  1
  H  H5  1  0.47768100  0.25598500  0.96650600  1
  H  H6  1  0.25598500  0.47768100  0.46650600  1
  H  H7  1  0.52231900  0.74401500  0.03349400  1
  H  H8  1  0.19509100  0.19299900  0.47914000  1
  H  H9  1  0.80700100  0.80490900  0.02086000  1
  H  H10  1  0.80490900  0.80700100  0.52086000  1
  H  H11  1  0.19299900  0.19509100  0.97914000  1
  H  H12  1  0.02649900  0.24226400  0.52984900  1
  H  H13  1  0.75773600  0.97350100  0.97015100  1
  H  H14  1  0.97350100  0.75773600  0.47015100  1
  H  H15  1  0.24226400  0.02649900  0.02984900  1
  H  H16  1  0.55664400  0.48256100  0.67398400  1
  H  H17  1  0.51743900  0.44335600  0.82601600  1
  H  H18  1  0.44335600  0.51743900  0.32601600  1
  H  H19  1  0.48256100  0.55664400  0.17398400  1
  H  H20  1  0.98164300  0.05713000  0.67399100  1
  H  H21  1  0.94287000  0.01835700  0.82600900  1
  H  H22  1  0.01835700  0.94287000  0.32600900  1
  H  H23  1  0.05713000  0.98164300  0.17399100  1
  H  H24  1  0.36786900  0.90880500  0.54020300  1
  H  H25  1  0.09119500  0.63213100  0.95979700  1
  H  H26  1  0.63213100  0.09119500  0.45979700  1
  H  H27  1  0.90880500  0.36786900  0.04020300  1
  H  H28  1  0.39917200  0.88314800  0.66673500  1
  H  H29  1  0.11685200  0.60082800  0.83326500  1
  H  H30  1  0.60082800  0.11685200  0.33326500  1
  H  H31  1  0.88314800  0.39917200  0.16673500  1
  S  S0  1  0.73004800  0.22483700  0.97918400  1
  S  S1  1  0.77516300  0.26995200  0.52081600  1
  S  S2  1  0.26995200  0.77516300  0.02081600  1
  S  S3  1  0.22483700  0.73004800  0.47918400  1
  S  S4  1  0.98159700  0.49881700  0.79796000  1
  S  S5  1  0.50118300  0.01840300  0.70204000  1
  S  S6  1  0.01840300  0.50118300  0.20204000  1
  S  S7  1  0.49881700  0.98159700  0.29796000  1
  O  O0  1  0.56804400  0.32049400  0.96290000  1
  O  O1  1  0.67950500  0.43195600  0.53710000  1
  O  O2  1  0.43195600  0.67950500  0.03710000  1
  O  O3  1  0.32049400  0.56804400  0.46290000  1
  O  O4  1  0.93756500  0.17920200  0.53328100  1
  O  O5  1  0.82079800  0.06243500  0.96671900  1
  O  O6  1  0.06243500  0.82079800  0.46671900  1
  O  O7  1  0.17920200  0.93756500  0.03328100  1
  O  O8  1  0.35763900  0.04303100  0.39988500  1
  O  O9  1  0.95696900  0.64236100  0.10011500  1
  O  O10  1  0.64236100  0.95696900  0.60011500  1
  O  O11  1  0.04303100  0.35763900  0.89988500  1
  O  O12  1  0.62956900  0.82358300  0.34696400  1
  O  O13  1  0.17641700  0.37043100  0.15303600  1
  O  O14  1  0.37043100  0.17641700  0.65303600  1
  O  O15  1  0.82358300  0.62956900  0.84696400  1
  O  O16  1  0.21942200  0.72028600  0.60778300  1
  O  O17  1  0.27971400  0.78057800  0.89221700  1
  O  O18  1  0.78057800  0.27971400  0.39221700  1
  O  O19  1  0.72028600  0.21942200  0.10778300  1
  O  O20  1  0.80549300  0.29202200  0.88500500  1
  O  O21  1  0.70797800  0.19450700  0.61499500  1
  O  O22  1  0.19450700  0.70797800  0.11499500  1
  O  O23  1  0.29202200  0.80549300  0.38500500  1
  O  O24  1  0.97292800  0.46127200  0.70039600  1
  O  O25  1  0.53872800  0.02707200  0.79960400  1
  O  O26  1  0.02707200  0.53872800  0.29960400  1
  O  O27  1  0.46127200  0.97292800  0.20039600  1
  O  O28  1  0.08407700  0.54274300  0.74390900  1
  O  O29  1  0.45725700  0.91592300  0.75609100  1
  O  O30  1  0.91592300  0.45725700  0.25609100  1
  O  O31  1  0.54274300  0.08407700  0.24390900  1
  O  O32  1  0.75910500  0.59082100  0.53797600  1
  O  O33  1  0.40917900  0.24089500  0.96202400  1
  O  O34  1  0.24089500  0.40917900  0.46202400  1
  O  O35  1  0.59082100  0.75910500  0.03797600  1
  O  O36  1  0.09437100  0.25950700  0.53250100  1
  O  O37  1  0.74049300  0.90562900  0.96749900  1
  O  O38  1  0.90562900  0.74049300  0.46749900  1
  O  O39  1  0.25950700  0.09437100  0.03250100  1
  O  O40  1  0.47752900  0.52247100  0.75000000  1
  O  O41  1  0.52247100  0.47752900  0.25000000  1
  O  O42  1  0.02149600  0.97850400  0.75000000  1
  O  O43  1  0.97850400  0.02149600  0.25000000  1
  O  O44  1  0.36251200  0.85777000  0.62935500  1
  O  O45  1  0.14223000  0.63748800  0.87064500  1
  O  O46  1  0.63748800  0.14223000  0.37064500  1
  O  O47  1  0.85777000  0.36251200  0.12935500  1
loop_
_geom_bond_atom_site_label_1
_geom_bond_atom_site_label_2
_geom_bond_distance
_geom_bond_site_symmetry_2
K0 O29 2.715989 1_555
K0 O20 2.729992 1_555
K0 O15 2.805519 1_555
K0 O32 2.888992 1_555
K0 O2 2.902151 1_556
K0 O24 3.000135 1_555
K0 O40 3.050497 1_555
K0 O17 3.147919 1_555
K1 O28 2.715989 1_555
K1 O21 2.729992 1_555
K1 O14 2.805519 1_555
K1 O33 2.888992 1_555
K1 O3 2.902153 1_555
K1 O25 3.000135 1_555
K1 O40 3.050497 1_555
K1 O16 3.147919 1_555
K2 O31 2.715989 1_555
K2 O22 2.729992 1_555
K2 O13 2.805519 1_555
K2 O34 2.888992 1_555
K2 O0 2.902153 1_554
K2 O26 3.000135 1_555
K2 O41 3.050497 1_555
K2 O19 3.147919 1_555
K3 O30 2.715989 1_555
K3 O23 2.729992 1_555
K3 O12 2.805519 1_555
K3 O35 2.888992 1_555
K3 O1 2.902151 1_555
K3 O27 3.000135 1_555
K3 O41 3.050497 1_555
K3 O18 3.147919 1_555
K4 O20 2.766446 1_455
K4 O24 2.876546 1_455
K4 O11 2.889072 1_555
K4 O7 2.893285 1_546
K4 O36 2.896800 1_555
K4 O29 2.941374 1_545
K4 O14 3.072903 1_555
K4 O42 3.154389 1_545
K4 O17 3.170727 1_545
K5 O21 2.766446 1_565
K5 O25 2.876546 1_565
K5 O10 2.889072 1_555
K5 O6 2.893285 1_655
K5 O37 2.896800 1_555
K5 O28 2.941374 1_655
K5 O15 3.072903 1_555
K5 O42 3.154389 1_655
K5 O16 3.170727 1_655
K6 O22 2.766446 1_655
K6 O26 2.876546 1_655
K6 O9 2.889072 1_555
K6 O5 2.893285 1_564
K6 O38 2.896800 1_555
K6 O31 2.941374 1_565
K6 O12 3.072903 1_555
K6 O43 3.154389 1_565
K6 O19 3.170727 1_565
K7 O23 2.766446 1_545
K7 O27 2.876546 1_545
K7 O8 2.889072 1_555
K7 O4 2.893285 1_455
K7 O39 2.896800 1_555
K7 O30 2.941374 1_455
K7 O13 3.072903 1_555
K7 O43 3.154389 1_455
K7 O18 3.170727 1_455
Mn0 O17 2.124382 1_555
Mn0 O16 2.124382 1_555
Mn0 O42 2.190974 1_555
Mn0 O40 2.197817 1_555
Mn0 O45 2.215354 1_555
Mn0 O44 2.215354 1_555
Mn1 O18 2.124382 1_555
Mn1 O19 2.124382 1_555
Mn1 O43 2.190974 1_555
Mn1 O41 2.197817 1_555
Mn1 O46 2.215354 1_555
Mn1 O47 2.215354 1_555
Mn2 O24 2.190404 1_455
Mn2 O26 2.190404 1_555
Mn2 O38 2.200594 1_455
Mn2 O36 2.200594 1_555
Mn2 O34 2.208759 1_555
Mn2 O32 2.208759 1_455
Mn3 O27 2.190404 1_545
Mn3 O25 2.190404 1_554
Mn3 O37 2.200594 1_544
Mn3 O39 2.200594 1_555
Mn3 O33 2.208759 1_554
Mn3 O35 2.208759 1_545
H0 O32 0.997486 1_555
H1 O33 0.997486 1_554
H2 O34 0.997486 1_555
H3 O35 0.997486 1_556
H4 O32 0.998001 1_555
H4 O1 1.722567 1_555
H5 O33 0.998001 1_555
H5 O0 1.722556 1_555
H6 O34 0.998001 1_555
H6 O3 1.722556 1_555
H7 O35 0.998001 1_555
H7 O2 1.722567 1_555
H8 O36 0.992027 1_555
H9 O37 0.992027 1_554
H10 O38 0.992027 1_555
H11 O39 0.992027 1_556
H12 O36 1.000495 1_555
H12 O4 1.691315 1_455
H13 O37 1.000495 1_555
H13 O5 1.691315 1_565
H14 O38 1.000495 1_555
H14 O6 1.691315 1_655
H15 O39 1.000495 1_555
H15 O7 1.691315 1_545
H16 O40 0.998374 1_555
H16 O1 1.693042 1_555
H16 K1 3.014724 1_555
H17 O40 0.998374 1_555
H17 O0 1.693045 1_555
H17 K0 3.014724 1_555
H18 O41 0.998374 1_555
H18 O3 1.693045 1_555
H18 K3 3.014724 1_555
H19 O41 0.998374 1_555
H19 O2 1.693042 1_555
H19 K2 3.014724 1_555
H20 O42 0.996753 1_645
H20 O4 1.713851 1_555
H21 O42 0.996753 1_645
H21 O5 1.713851 1_555
H22 O43 0.996753 1_465
H22 O6 1.713851 1_555
H23 O43 0.996753 1_465
H23 O7 1.713851 1_555
H24 O44 0.992725 1_555
H25 O45 0.992725 1_555
H26 O46 0.992725 1_555
H27 O47 0.992725 1_555
H28 O44 0.992479 1_555
H28 K0 2.883481 1_555
H28 K4 2.931647 1_565
H29 O45 0.992479 1_555
H29 K1 2.883481 1_555
H29 K5 2.931647 1_455
H30 O46 0.992479 1_555
H30 K2 2.883481 1_555
H30 K6 2.931647 1_545
H31 O47 0.992479 1_555
H31 K3 2.883481 1_555
H31 K7 2.931647 1_655
O0 S0 1.505481 1_555
O1 S1 1.505479 1_555
O2 S2 1.505479 1_555
O3 S3 1.505481 1_555
O4 S1 1.505191 1_555
O5 S0 1.505191 1_555
O6 S3 1.505191 1_555
O7 S2 1.505191 1_555
O8 S7 1.502306 1_545
O9 S6 1.502306 1_655
O10 S5 1.502306 1_565
O11 S4 1.502306 1_455
O12 S7 1.486459 1_555
O13 S6 1.486459 1_555
O14 S5 1.486459 1_555
O15 S4 1.486459 1_555
O16 S3 1.489038 1_555
O17 S2 1.489038 1_556
O18 S1 1.489038 1_555
O19 S0 1.489038 1_554
O20 S0 1.475674 1_555
O21 S1 1.475674 1_555
O22 S2 1.475674 1_555
O23 S3 1.475674 1_555
O24 S4 1.502107 1_555
O25 S5 1.502107 1_555
O26 S6 1.502107 1_555
O27 S7 1.502107 1_555
O28 S4 1.487364 1_455
O29 S5 1.487364 1_565
O30 S6 1.487364 1_655
O31 S7 1.487364 1_545
