# generated using pymatgen
data_V5CoO12
_symmetry_space_group_name_H-M   'P 1'
_cell_length_a   6.79555308
_cell_length_b   6.79555306
_cell_length_c   5.85730805
_cell_angle_alpha   75.18204801
_cell_angle_beta   104.81794958
_cell_angle_gamma   95.60531092
_symmetry_Int_Tables_number   1
_chemical_formula_structural   V5CoO12
_chemical_formula_sum   'V5 Co1 O12'
_cell_volume   252.64518659
_cell_formula_units_Z   1
loop_
 _symmetry_equiv_pos_site_id
 _symmetry_equiv_pos_as_xyz
  1  'x, y, z'
loop_
 _atom_site_type_symbol
 _atom_site_label
 _atom_site_symmetry_multiplicity
 _atom_site_fract_x
 _atom_site_fract_y
 _atom_site_fract_z
 _atom_site_occupancy
  V  V0  1  0.20487600  0.61093600  0.75808100  1
  V  V1  1  0.39105800  0.79456100  0.26304600  1
  V  V2  1  0.61093600  0.20487600  0.74191900  1
  V  V3  1  0.79456100  0.39105800  0.23695400  1
  V  V4  1  0.91682800  0.91682800  0.25000000  1
  Co  Co0  1  0.08773000  0.08773000  0.75000000  1
  O  O0  1  0.03587900  0.80893200  0.63205400  1
  O  O1  1  0.08835400  0.37851700  0.77787800  1
  O  O2  1  0.18964300  0.96405400  0.14974500  1
  O  O3  1  0.37142300  0.64050900  0.55987800  1
  O  O4  1  0.37851700  0.08835400  0.72212200  1
  O  O5  1  0.34771400  0.63271300  0.05172900  1
  O  O6  1  0.64050900  0.37142300  0.94012200  1
  O  O7  1  0.63247500  0.90379900  0.28452800  1
  O  O8  1  0.63271300  0.34771400  0.44827100  1
  O  O9  1  0.80893200  0.03587900  0.86794600  1
  O  O10  1  0.90379900  0.63247500  0.21547200  1
  O  O11  1  0.96405400  0.18964300  0.35025500  1
loop_
_geom_bond_atom_site_label_1
_geom_bond_atom_site_label_2
_geom_bond_distance
_geom_bond_site_symmetry_2
Co0 O4 2.023498 1_555
Co0 O1 2.023498 1_555
Co0 O9 2.146030 1_455
Co0 O0 2.146030 1_545
Co0 O2 2.223961 1_546
Co0 O11 2.223961 1_455
O0 V0 1.741940 1_555
O0 V4 2.133187 1_455
O1 V0 1.686408 1_555
O2 V1 1.758649 1_555
O2 V4 2.056480 1_455
O3 V0 1.782522 1_555
O3 V1 1.815759 1_555
O4 V2 1.686408 1_555
O5 V0 1.780622 1_554
O5 V1 1.809695 1_555
O6 V2 1.782522 1_555
O6 V3 1.815759 1_556
O7 V1 1.721226 1_555
O7 V4 1.984937 1_555
O8 V2 1.780622 1_555
O8 V3 1.809695 1_555
O9 V2 1.741940 1_555
O9 V4 2.133187 1_546
O10 V3 1.721226 1_555
O10 V4 1.984937 1_555
O11 V3 1.758649 1_555
O11 V4 2.056480 1_545
