# generated using pymatgen
data_Na3CuSiCO7
_symmetry_space_group_name_H-M   'P 1'
_cell_length_a   6.54588400
_cell_length_b   5.15325300
_cell_length_c   9.10060486
_cell_angle_alpha   88.98788154
_cell_angle_beta   90.00000000
_cell_angle_gamma   90.00000000
_symmetry_Int_Tables_number   1
_chemical_formula_structural   Na3CuSiCO7
_chemical_formula_sum   'Na6 Cu2 Si2 C2 O14'
_cell_volume   306.93913482
_cell_formula_units_Z   2
loop_
 _symmetry_equiv_pos_site_id
 _symmetry_equiv_pos_as_xyz
  1  'x, y, z'
loop_
 _atom_site_type_symbol
 _atom_site_label
 _atom_site_symmetry_multiplicity
 _atom_site_fract_x
 _atom_site_fract_y
 _atom_site_fract_z
 _atom_site_occupancy
  Na  Na0  1  0.75000000  0.23534300  0.91010100  1
  Na  Na1  1  0.99109500  0.74783300  0.73300400  1
  Na  Na2  1  0.50890500  0.74783300  0.73300400  1
  Na  Na3  1  0.49109500  0.25216700  0.26699600  1
  Na  Na4  1  0.00890500  0.25216700  0.26699600  1
  Na  Na5  1  0.25000000  0.76465700  0.08989900  1
  Cu  Cu0  1  0.25000000  0.21064300  0.65088900  1
  Cu  Cu1  1  0.75000000  0.78935700  0.34911100  1
  Si  Si0  1  0.75000000  0.29289100  0.57644100  1
  Si  Si1  1  0.25000000  0.70710900  0.42355900  1
  C  C0  1  0.25000000  0.27177800  0.94023300  1
  C  C1  1  0.75000000  0.72822200  0.05976700  1
  O  O0  1  0.75000000  0.71526000  0.91863200  1
  O  O1  1  0.25000000  0.04769700  0.87703100  1
  O  O2  1  0.25000000  0.48010500  0.85851800  1
  O  O3  1  0.94560300  0.22009800  0.68469000  1
  O  O4  1  0.55439700  0.22009800  0.68469000  1
  O  O5  1  0.75000000  0.60974800  0.54172300  1
  O  O6  1  0.25000000  0.85055700  0.58200200  1
  O  O7  1  0.75000000  0.14944300  0.41799800  1
  O  O8  1  0.25000000  0.39025200  0.45827700  1
  O  O9  1  0.44560300  0.77990200  0.31531000  1
  O  O10  1  0.05439700  0.77990200  0.31531000  1
  O  O11  1  0.75000000  0.51989500  0.14148200  1
  O  O12  1  0.75000000  0.95230300  0.12296900  1
  O  O13  1  0.25000000  0.28474000  0.08136800  1
loop_
_geom_bond_atom_site_label_1
_geom_bond_atom_site_label_2
_geom_bond_distance
_geom_bond_site_symmetry_2
Na0 O12 2.404262 1_546
Na0 O3 2.420624 1_555
Na0 O4 2.420624 1_555
Na0 O0 2.475722 1_555
Na0 O11 2.587145 1_556
Na0 O0 2.679872 1_545
Na1 O6 2.239463 1_655
Na1 O0 2.315737 1_555
Na1 O2 2.454542 1_655
Na1 O5 2.463952 1_555
Na1 O3 2.483364 1_565
Na1 O1 2.655121 1_665
Na1 O3 2.778526 1_555
Na2 O6 2.239463 1_555
Na2 O0 2.315737 1_555
Na2 O2 2.454542 1_555
Na2 O5 2.463952 1_555
Na2 O4 2.483364 1_565
Na2 O1 2.655121 1_565
Na2 O4 2.778526 1_555
Na3 O7 2.239463 1_555
Na3 O13 2.315737 1_555
Na3 O11 2.454542 1_555
Na3 O8 2.463952 1_555
Na3 O9 2.483364 1_545
Na3 O12 2.655121 1_545
Na3 O9 2.778526 1_555
Na4 O7 2.239463 1_455
Na4 O13 2.315737 1_555
Na4 O11 2.454542 1_455
Na4 O8 2.463952 1_555
Na4 O10 2.483364 1_545
Na4 O12 2.655121 1_445
Na4 O10 2.778526 1_555
Na5 O1 2.404262 1_564
Na5 O9 2.420624 1_555
Na5 O10 2.420624 1_555
Na5 O13 2.475722 1_555
Na5 O2 2.587145 1_554
Na5 O13 2.679872 1_565
Cu0 O8 1.967733 1_555
Cu0 O6 1.969117 1_545
Cu0 O4 2.016872 1_555
Cu0 O3 2.016872 1_455
Cu0 O1 2.208966 1_555
Cu0 O2 2.364597 1_555
Cu1 O5 1.967733 1_555
Cu1 O7 1.969117 1_565
Cu1 O10 2.016872 1_655
Cu1 O9 2.016872 1_555
Cu1 O12 2.208966 1_555
Cu1 O11 2.364597 1_555
C0 O13 1.287327 1_556
C0 O2 1.295127 1_555
C0 O1 1.299127 1_555
C1 O0 1.287327 1_554
C1 O11 1.295127 1_555
C1 O12 1.299127 1_555
O3 Si0 1.654556 1_555
O4 Si0 1.654556 1_555
O5 Si0 1.657644 1_555
O6 Si1 1.631950 1_555
O7 Si0 1.631950 1_555
O8 Si1 1.657644 1_555
O9 Si1 1.654556 1_555
O10 Si1 1.654556 1_555
