# generated using pymatgen
data_BHO2
_symmetry_space_group_name_H-M   'P 1'
_cell_length_a   8.95657800
_cell_length_b   8.95657800
_cell_length_c   8.95657800
_cell_angle_alpha   90.00000000
_cell_angle_beta   90.00000000
_cell_angle_gamma   90.00000000
_symmetry_Int_Tables_number   1
_chemical_formula_structural   BHO2
_chemical_formula_sum   'B24 H24 O48'
_cell_volume   718.49927982
_cell_formula_units_Z   24
loop_
 _symmetry_equiv_pos_site_id
 _symmetry_equiv_pos_as_xyz
  1  'x, y, z'
loop_
 _atom_site_type_symbol
 _atom_site_label
 _atom_site_symmetry_multiplicity
 _atom_site_fract_x
 _atom_site_fract_y
 _atom_site_fract_z
 _atom_site_occupancy
  B  B0  1  0.19202500  0.58166400  0.28292200  1
  B  B1  1  0.41833600  0.71707800  0.19202500  1
  B  B2  1  0.28292200  0.80797500  0.41833600  1
  B  B3  1  0.80797500  0.41833600  0.28292200  1
  B  B4  1  0.58166400  0.28292200  0.19202500  1
  B  B5  1  0.71707800  0.19202500  0.41833600  1
  B  B6  1  0.19202500  0.41833600  0.71707800  1
  B  B7  1  0.41833600  0.28292200  0.80797500  1
  B  B8  1  0.28292200  0.19202500  0.58166400  1
  B  B9  1  0.80797500  0.58166400  0.71707800  1
  B  B10  1  0.58166400  0.71707800  0.80797500  1
  B  B11  1  0.71707800  0.80797500  0.58166400  1
  B  B12  1  0.69202500  0.78292200  0.08166400  1
  B  B13  1  0.91833600  0.69202500  0.21707800  1
  B  B14  1  0.78292200  0.91833600  0.30797500  1
  B  B15  1  0.30797500  0.78292200  0.91833600  1
  B  B16  1  0.08166400  0.69202500  0.78292200  1
  B  B17  1  0.21707800  0.91833600  0.69202500  1
  B  B18  1  0.69202500  0.21707800  0.91833600  1
  B  B19  1  0.91833600  0.30797500  0.78292200  1
  B  B20  1  0.78292200  0.08166400  0.69202500  1
  B  B21  1  0.30797500  0.21707800  0.08166400  1
  B  B22  1  0.08166400  0.30797500  0.21707800  1
  B  B23  1  0.21707800  0.08166400  0.30797500  1
  H  H0  1  0.16563700  0.61046700  0.56837800  1
  H  H1  1  0.38953300  0.43162200  0.16563700  1
  H  H2  1  0.56837800  0.83436300  0.38953300  1
  H  H3  1  0.83436300  0.38953300  0.56837800  1
  H  H4  1  0.61046700  0.56837800  0.16563700  1
  H  H5  1  0.43162200  0.16563700  0.38953300  1
  H  H6  1  0.16563700  0.38953300  0.43162200  1
  H  H7  1  0.38953300  0.56837800  0.83436300  1
  H  H8  1  0.56837800  0.16563700  0.61046700  1
  H  H9  1  0.83436300  0.61046700  0.43162200  1
  H  H10  1  0.61046700  0.43162200  0.83436300  1
  H  H11  1  0.43162200  0.83436300  0.61046700  1
  H  H12  1  0.66563700  0.06837800  0.11046700  1
  H  H13  1  0.88953300  0.66563700  0.93162200  1
  H  H14  1  0.06837800  0.88953300  0.33436300  1
  H  H15  1  0.33436300  0.06837800  0.88953300  1
  H  H16  1  0.11046700  0.66563700  0.06837800  1
  H  H17  1  0.93162200  0.88953300  0.66563700  1
  H  H18  1  0.66563700  0.93162200  0.88953300  1
  H  H19  1  0.88953300  0.33436300  0.06837800  1
  H  H20  1  0.06837800  0.11046700  0.66563700  1
  H  H21  1  0.33436300  0.93162200  0.11046700  1
  H  H22  1  0.11046700  0.33436300  0.93162200  1
  H  H23  1  0.93162200  0.11046700  0.33436300  1
  O  O0  1  0.19960500  0.66831500  0.41932300  1
  O  O1  1  0.33168500  0.58067700  0.19960500  1
  O  O2  1  0.41932300  0.80039500  0.33168500  1
  O  O3  1  0.80039500  0.33168500  0.41932300  1
  O  O4  1  0.66831500  0.41932300  0.19960500  1
  O  O5  1  0.58067700  0.19960500  0.33168500  1
  O  O6  1  0.19960500  0.33168500  0.58067700  1
  O  O7  1  0.33168500  0.41932300  0.80039500  1
  O  O8  1  0.41932300  0.19960500  0.66831500  1
  O  O9  1  0.80039500  0.66831500  0.58067700  1
  O  O10  1  0.66831500  0.58067700  0.80039500  1
  O  O11  1  0.58067700  0.80039500  0.66831500  1
  O  O12  1  0.69960500  0.91932300  0.16831500  1
  O  O13  1  0.83168500  0.69960500  0.08067700  1
  O  O14  1  0.91932300  0.83168500  0.30039500  1
  O  O15  1  0.30039500  0.91932300  0.83168500  1
  O  O16  1  0.16831500  0.69960500  0.91932300  1
  O  O17  1  0.08067700  0.83168500  0.69960500  1
  O  O18  1  0.69960500  0.08067700  0.83168500  1
  O  O19  1  0.83168500  0.30039500  0.91932300  1
  O  O20  1  0.91932300  0.16831500  0.69960500  1
  O  O21  1  0.30039500  0.08067700  0.16831500  1
  O  O22  1  0.16831500  0.30039500  0.08067700  1
  O  O23  1  0.08067700  0.16831500  0.30039500  1
  O  O24  1  0.07343200  0.64499600  0.17752100  1
  O  O25  1  0.35500400  0.82247900  0.07343200  1
  O  O26  1  0.17752100  0.92656800  0.35500400  1
  O  O27  1  0.92656800  0.35500400  0.17752100  1
  O  O28  1  0.64499600  0.17752100  0.07343200  1
  O  O29  1  0.82247900  0.07343200  0.35500400  1
  O  O30  1  0.07343200  0.35500400  0.82247900  1
  O  O31  1  0.35500400  0.17752100  0.92656800  1
  O  O32  1  0.17752100  0.07343200  0.64499600  1
  O  O33  1  0.92656800  0.64499600  0.82247900  1
  O  O34  1  0.64499600  0.82247900  0.92656800  1
  O  O35  1  0.82247900  0.92656800  0.64499600  1
  O  O36  1  0.57343200  0.67752100  0.14499600  1
  O  O37  1  0.85500400  0.57343200  0.32247900  1
  O  O38  1  0.67752100  0.85500400  0.42656800  1
  O  O39  1  0.42656800  0.67752100  0.85500400  1
  O  O40  1  0.14499600  0.57343200  0.67752100  1
  O  O41  1  0.32247900  0.85500400  0.57343200  1
  O  O42  1  0.57343200  0.32247900  0.85500400  1
  O  O43  1  0.85500400  0.42656800  0.67752100  1
  O  O44  1  0.67752100  0.14499600  0.57343200  1
  O  O45  1  0.42656800  0.32247900  0.14499600  1
  O  O46  1  0.14499600  0.42656800  0.32247900  1
  O  O47  1  0.32247900  0.14499600  0.42656800  1
loop_
_geom_bond_atom_site_label_1
_geom_bond_atom_site_label_2
_geom_bond_distance
_geom_bond_site_symmetry_2
B0 O0 1.448949 1_555
B0 O1 1.456583 1_555
B0 O46 1.494199 1_555
B0 O24 1.530097 1_555
B1 O1 1.448949 1_555
B1 O2 1.456583 1_555
B1 O36 1.494199 1_555
B1 O25 1.530097 1_555
B2 O2 1.448949 1_555
B2 O0 1.456583 1_555
B2 O41 1.494199 1_555
B2 O26 1.530097 1_555
B3 O3 1.448949 1_555
B3 O4 1.456583 1_555
B3 O37 1.494199 1_555
B3 O27 1.530097 1_555
B4 O4 1.448949 1_555
B4 O5 1.456583 1_555
B4 O45 1.494199 1_555
B4 O28 1.530097 1_555
B5 O5 1.448949 1_555
B5 O3 1.456583 1_555
B5 O44 1.494199 1_555
B5 O29 1.530097 1_555
B6 O6 1.448949 1_555
B6 O7 1.456583 1_555
B6 O40 1.494199 1_555
B6 O30 1.530097 1_555
B7 O7 1.448949 1_555
B7 O8 1.456583 1_555
B7 O42 1.494199 1_555
B7 O31 1.530097 1_555
B8 O8 1.448949 1_555
B8 O6 1.456583 1_555
B8 O47 1.494199 1_555
B8 O32 1.530097 1_555
B9 O9 1.448949 1_555
B9 O10 1.456583 1_555
B9 O43 1.494199 1_555
B9 O33 1.530097 1_555
B10 O10 1.448949 1_555
B10 O11 1.456583 1_555
B10 O39 1.494199 1_555
B10 O34 1.530097 1_555
B11 O11 1.448949 1_555
B11 O9 1.456583 1_555
B11 O38 1.494199 1_555
B11 O35 1.530097 1_555
B12 O12 1.448949 1_555
B12 O13 1.456583 1_555
B12 O34 1.494199 1_554
B12 O36 1.530097 1_555
B13 O13 1.448949 1_555
B13 O14 1.456583 1_555
B13 O24 1.494199 1_655
B13 O37 1.530097 1_555
B14 O14 1.448949 1_555
B14 O12 1.456583 1_555
B14 O29 1.494199 1_565
B14 O38 1.530097 1_555
B15 O15 1.448949 1_555
B15 O16 1.456583 1_555
B15 O25 1.494199 1_556
B15 O39 1.530097 1_555
B16 O16 1.448949 1_555
B16 O17 1.456583 1_555
B16 O33 1.494199 1_455
B16 O40 1.530097 1_555
B17 O17 1.448949 1_555
B17 O15 1.456583 1_555
B17 O32 1.494199 1_565
B17 O41 1.530097 1_555
B18 O18 1.448949 1_555
B18 O19 1.456583 1_555
B18 O28 1.494199 1_556
B18 O42 1.530097 1_555
B19 O19 1.448949 1_555
B19 O20 1.456583 1_555
B19 O30 1.494199 1_655
B19 O43 1.530097 1_555
B20 O20 1.448949 1_555
B20 O18 1.456583 1_555
B20 O35 1.494199 1_545
B20 O44 1.530097 1_555
B21 O21 1.448949 1_555
B21 O22 1.456583 1_555
B21 O31 1.494199 1_554
B21 O45 1.530097 1_555
B22 O22 1.448949 1_555
B22 O23 1.456583 1_555
B22 O27 1.494199 1_455
B22 O46 1.530097 1_555
B23 O23 1.448949 1_555
B23 O21 1.456583 1_555
B23 O26 1.494199 1_545
B23 O47 1.530097 1_555
H0 O40 1.048717 1_555
H0 O0 1.463999 1_555
H1 O45 1.048717 1_555
H1 O1 1.463999 1_555
H2 O38 1.048717 1_555
H2 O2 1.463999 1_555
H3 O43 1.048717 1_555
H3 O3 1.463999 1_555
H4 O36 1.048717 1_555
H4 O4 1.463999 1_555
H5 O47 1.048717 1_555
H5 O5 1.463999 1_555
H6 O46 1.048717 1_555
H6 O6 1.463999 1_555
H7 O39 1.048717 1_555
H7 O7 1.463999 1_555
H8 O44 1.048717 1_555
H8 O8 1.463999 1_555
H9 O37 1.048717 1_555
H9 O9 1.463999 1_555
H10 O42 1.048717 1_555
H10 O10 1.463999 1_555
H11 O41 1.048717 1_555
H11 O11 1.463999 1_555
H12 O28 1.048717 1_555
H12 O12 1.463999 1_545
H13 O33 1.048717 1_555
H13 O13 1.463999 1_556
H14 O26 1.048717 1_555
H14 O14 1.463999 1_455
H15 O31 1.048717 1_555
H15 O15 1.463999 1_545
H16 O24 1.048717 1_555
H16 O16 1.463999 1_554
H17 O35 1.048717 1_555
H17 O17 1.463999 1_655
H18 O34 1.048717 1_555
H18 O18 1.463999 1_565
H19 O27 1.048717 1_555
H19 O19 1.463999 1_554
H20 O32 1.048717 1_555
H20 O20 1.463999 1_455
H21 O25 1.048717 1_555
H21 O21 1.463999 1_565
H22 O30 1.048717 1_555
H22 O22 1.463999 1_556
H23 O29 1.048717 1_555
H23 O23 1.463999 1_655
