# generated using pymatgen
data_Sr2HfO4
_symmetry_space_group_name_H-M   'P 1'
_cell_length_a   3.37030600
_cell_length_b   6.07776900
_cell_length_c   10.34224000
_cell_angle_alpha   90.00000000
_cell_angle_beta   90.00000000
_cell_angle_gamma   90.00000000
_symmetry_Int_Tables_number   1
_chemical_formula_structural   Sr2HfO4
_chemical_formula_sum   'Sr4 Hf2 O8'
_cell_volume   211.84983735
_cell_formula_units_Z   2
loop_
 _symmetry_equiv_pos_site_id
 _symmetry_equiv_pos_as_xyz
  1  'x, y, z'
loop_
 _atom_site_type_symbol
 _atom_site_label
 _atom_site_symmetry_multiplicity
 _atom_site_fract_x
 _atom_site_fract_y
 _atom_site_fract_z
 _atom_site_occupancy
  Sr  Sr0  1  0.50000000  0.06606800  0.67937900  1
  Sr  Sr1  1  0.50000000  0.43393200  0.17937900  1
  Sr  Sr2  1  0.50000000  0.56606800  0.82062100  1
  Sr  Sr3  1  0.50000000  0.93393200  0.32062100  1
  Hf  Hf0  1  0.00000000  0.00000000  0.00000000  1
  Hf  Hf1  1  0.00000000  0.50000000  0.50000000  1
  O  O0  1  0.00000000  0.13096500  0.18425500  1
  O  O1  1  0.50000000  0.21238000  0.95448100  1
  O  O2  1  0.50000000  0.28762000  0.45448100  1
  O  O3  1  0.00000000  0.36903500  0.68425500  1
  O  O4  1  0.00000000  0.63096500  0.31574500  1
  O  O5  1  0.50000000  0.71238000  0.54551900  1
  O  O6  1  0.50000000  0.78762000  0.04551900  1
  O  O7  1  0.00000000  0.86903500  0.81574500  1
loop_
_geom_bond_atom_site_label_1
_geom_bond_atom_site_label_2
_geom_bond_distance
_geom_bond_site_symmetry_2
Hf0 O0 2.065169 1_555
Hf0 O7 2.065169 1_544
Hf0 O6 2.174286 1_445
Hf0 O6 2.174286 1_545
Hf0 O1 2.174286 1_554
Hf0 O1 2.174286 1_454
Hf1 O3 2.065169 1_555
Hf1 O4 2.065169 1_555
Hf1 O5 2.174286 1_555
Hf1 O5 2.174286 1_455
Hf1 O2 2.174286 1_455
Hf1 O2 2.174286 1_555
O0 Sr1 2.496578 1_455
O0 Sr1 2.496578 1_555
O0 Sr3 2.502564 1_545
O0 Sr3 2.502564 1_445
O1 Sr2 2.556858 1_555
O1 Sr1 2.687604 1_556
O1 Sr0 2.980900 1_555
O2 Sr3 2.556858 1_545
O2 Sr0 2.687604 1_555
O2 Sr1 2.980900 1_555
O3 Sr0 2.496578 1_555
O3 Sr0 2.496578 1_455
O3 Sr2 2.502564 1_455
O3 Sr2 2.502564 1_555
O4 Sr3 2.496578 1_555
O4 Sr3 2.496578 1_455
O4 Sr1 2.502564 1_455
O4 Sr1 2.502564 1_555
O5 Sr0 2.556858 1_565
O5 Sr3 2.687604 1_555
O5 Sr2 2.980900 1_555
O6 Sr1 2.556858 1_555
O6 Sr2 2.687604 1_554
O6 Sr3 2.980900 1_555
O7 Sr2 2.496578 1_455
O7 Sr2 2.496578 1_555
O7 Sr0 2.502564 1_565
O7 Sr0 2.502564 1_465
