# generated using pymatgen
data_ScGaO3
_symmetry_space_group_name_H-M   'P 1'
_cell_length_a   5.06465400
_cell_length_b   5.38396700
_cell_length_c   7.58976000
_cell_angle_alpha   90.00000000
_cell_angle_beta   90.00000000
_cell_angle_gamma   90.00000000
_symmetry_Int_Tables_number   1
_chemical_formula_structural   ScGaO3
_chemical_formula_sum   'Sc4 Ga4 O12'
_cell_volume   206.95704442
_cell_formula_units_Z   4
loop_
 _symmetry_equiv_pos_site_id
 _symmetry_equiv_pos_as_xyz
  1  'x, y, z'
loop_
 _atom_site_type_symbol
 _atom_site_label
 _atom_site_symmetry_multiplicity
 _atom_site_fract_x
 _atom_site_fract_y
 _atom_site_fract_z
 _atom_site_occupancy
  Sc  Sc0  1  0.02415800  0.93043200  0.75000000  1
  Sc  Sc1  1  0.47584200  0.43043200  0.75000000  1
  Sc  Sc2  1  0.52415800  0.56956800  0.25000000  1
  Sc  Sc3  1  0.97584200  0.06956800  0.25000000  1
  Ga  Ga0  1  0.00000000  0.50000000  0.00000000  1
  Ga  Ga1  1  0.00000000  0.50000000  0.50000000  1
  Ga  Ga2  1  0.50000000  0.00000000  0.00000000  1
  Ga  Ga3  1  0.50000000  0.00000000  0.50000000  1
  O  O0  1  0.14106200  0.43750800  0.25000000  1
  O  O1  1  0.18591700  0.18899200  0.57163800  1
  O  O2  1  0.18591700  0.18899200  0.92836200  1
  O  O3  1  0.31408300  0.68899200  0.57163800  1
  O  O4  1  0.31408300  0.68899200  0.92836200  1
  O  O5  1  0.35893800  0.93750800  0.25000000  1
  O  O6  1  0.64106200  0.06249200  0.75000000  1
  O  O7  1  0.68591700  0.31100800  0.07163800  1
  O  O8  1  0.68591700  0.31100800  0.42836200  1
  O  O9  1  0.81408300  0.81100800  0.07163800  1
  O  O10  1  0.81408300  0.81100800  0.42836200  1
  O  O11  1  0.85893800  0.56249200  0.75000000  1
loop_
_geom_bond_atom_site_label_1
_geom_bond_atom_site_label_2
_geom_bond_distance
_geom_bond_site_symmetry_2
Ga0 O7 1.965040 1_455
Ga0 O4 1.965040 1_554
Ga0 O9 1.996510 1_455
Ga0 O2 1.996510 1_554
Ga0 O11 2.055211 1_454
Ga0 O0 2.055211 1_555
Ga1 O8 1.965040 1_455
Ga1 O3 1.965040 1_555
Ga1 O10 1.996510 1_455
Ga1 O1 1.996510 1_555
Ga1 O11 2.055211 1_455
Ga1 O0 2.055211 1_555
Ga2 O2 1.965040 1_554
Ga2 O9 1.965040 1_545
Ga2 O4 1.996510 1_544
Ga2 O7 1.996510 1_555
Ga2 O5 2.055211 1_545
Ga2 O6 2.055211 1_554
Ga3 O1 1.965040 1_555
Ga3 O10 1.965040 1_545
Ga3 O3 1.996510 1_545
Ga3 O8 1.996510 1_555
Ga3 O5 2.055211 1_545
Ga3 O6 2.055211 1_555
O0 Sc2 2.066421 1_555
O0 Sc3 2.150459 1_455
O1 Sc0 2.107517 1_545
O1 Sc1 2.382946 1_555
O1 Sc3 2.739464 1_455
O2 Sc0 2.107517 1_545
O2 Sc1 2.382946 1_555
O2 Sc3 2.739464 1_456
O3 Sc1 2.107517 1_555
O3 Sc0 2.382946 1_555
O3 Sc2 2.739464 1_555
O4 Sc1 2.107517 1_555
O4 Sc0 2.382946 1_555
O4 Sc2 2.739464 1_556
O5 Sc3 2.066421 1_465
O5 Sc2 2.150459 1_555
O6 Sc0 2.066421 1_645
O6 Sc1 2.150459 1_555
O7 Sc2 2.107517 1_555
O7 Sc3 2.382946 1_555
O7 Sc1 2.739464 1_554
O8 Sc2 2.107517 1_555
O8 Sc3 2.382946 1_555
O8 Sc1 2.739464 1_555
O9 Sc3 2.107517 1_565
O9 Sc2 2.382946 1_555
O9 Sc0 2.739464 1_654
O10 Sc3 2.107517 1_565
O10 Sc2 2.382946 1_555
O10 Sc0 2.739464 1_655
O11 Sc1 2.066421 1_555
O11 Sc0 2.150459 1_655
