# generated using pymatgen
data_Li2Co3TeO8
_symmetry_space_group_name_H-M   'P 1'
_cell_length_a   5.91374561
_cell_length_b   5.91374561
_cell_length_c   5.91374565
_cell_angle_alpha   58.97218185
_cell_angle_beta   58.97218185
_cell_angle_gamma   58.97218000
_symmetry_Int_Tables_number   1
_chemical_formula_structural   Li2Co3TeO8
_chemical_formula_sum   'Li2 Co3 Te1 O8'
_cell_volume   142.81305971
_cell_formula_units_Z   1
loop_
 _symmetry_equiv_pos_site_id
 _symmetry_equiv_pos_as_xyz
  1  'x, y, z'
loop_
 _atom_site_type_symbol
 _atom_site_label
 _atom_site_symmetry_multiplicity
 _atom_site_fract_x
 _atom_site_fract_y
 _atom_site_fract_z
 _atom_site_occupancy
  Li  Li0  1  0.86718400  0.86718400  0.86718400  1
  Li  Li1  1  0.13281600  0.13281600  0.13281600  1
  Co  Co0  1  0.50000000  0.00000000  0.50000000  1
  Co  Co1  1  0.50000000  0.50000000  0.00000000  1
  Co  Co2  1  0.00000000  0.50000000  0.50000000  1
  Te  Te0  1  0.50000000  0.50000000  0.50000000  1
  O  O0  1  0.73144600  0.73144600  0.73144600  1
  O  O1  1  0.28234300  0.73662400  0.73662400  1
  O  O2  1  0.73662400  0.73662400  0.28234300  1
  O  O3  1  0.73662400  0.28234300  0.73662400  1
  O  O4  1  0.26337600  0.71765700  0.26337600  1
  O  O5  1  0.26337600  0.26337600  0.71765700  1
  O  O6  1  0.71765700  0.26337600  0.26337600  1
  O  O7  1  0.26855400  0.26855400  0.26855400  1
loop_
_geom_bond_atom_site_label_1
_geom_bond_atom_site_label_2
_geom_bond_distance
_geom_bond_site_symmetry_2
Li0 O0 1.981390 1_555
Li0 O3 1.981454 1_565
Li0 O1 1.981454 1_655
Li0 O2 1.981454 1_556
Li1 O7 1.981390 1_555
Li1 O4 1.981454 1_545
Li1 O6 1.981454 1_455
Li1 O5 1.981454 1_554
Co0 O0 1.928325 1_545
Co0 O7 1.928325 1_555
Co0 O5 2.000978 1_555
Co0 O2 2.000978 1_545
Co0 O1 2.000978 1_545
Co0 O6 2.000978 1_555
Co1 O0 1.928325 1_554
Co1 O7 1.928325 1_555
Co1 O6 2.000978 1_555
Co1 O1 2.000978 1_554
Co1 O4 2.000978 1_555
Co1 O3 2.000978 1_554
Co2 O0 1.928325 1_455
Co2 O7 1.928325 1_555
Co2 O5 2.000978 1_555
Co2 O2 2.000978 1_455
Co2 O4 2.000978 1_555
Co2 O3 2.000978 1_455
O1 Te0 1.969272 1_555
O2 Te0 1.969272 1_555
O3 Te0 1.969272 1_555
O4 Te0 1.969272 1_555
O5 Te0 1.969272 1_555
O6 Te0 1.969272 1_555
