# generated using pymatgen
data_Li2Fe(SiO3)2
_symmetry_space_group_name_H-M   'P 1'
_cell_length_a   5.65234235
_cell_length_b   5.65215645
_cell_length_c   9.40814768
_cell_angle_alpha   90.87304085
_cell_angle_beta   89.11308821
_cell_angle_gamma   62.90857680
_symmetry_Int_Tables_number   1
_chemical_formula_structural   Li2Fe(SiO3)2
_chemical_formula_sum   'Li4 Fe2 Si4 O12'
_cell_volume   267.47652711
_cell_formula_units_Z   2
loop_
 _symmetry_equiv_pos_site_id
 _symmetry_equiv_pos_as_xyz
  1  'x, y, z'
loop_
 _atom_site_type_symbol
 _atom_site_label
 _atom_site_symmetry_multiplicity
 _atom_site_fract_x
 _atom_site_fract_y
 _atom_site_fract_z
 _atom_site_occupancy
  Li  Li0  1  0.60406100  0.73589800  0.88164900  1
  Li  Li1  1  0.26400800  0.39593000  0.38166600  1
  Li  Li2  1  0.73595600  0.60399500  0.61835000  1
  Li  Li3  1  0.39588900  0.26406300  0.11835400  1
  Fe  Fe0  1  0.26048000  0.26005200  0.74999400  1
  Fe  Fe1  1  0.73966100  0.74011300  0.24987200  1
  Si  Si0  1  0.13965400  0.80540400  0.63223400  1
  Si  Si1  1  0.19459700  0.86030000  0.13224700  1
  Si  Si2  1  0.80543400  0.13965900  0.86776400  1
  Si  Si3  1  0.86030600  0.19467100  0.36779000  1
  O  O0  1  0.37614300  0.85879600  0.69880500  1
  O  O1  1  0.14119600  0.62384500  0.19876500  1
  O  O2  1  0.22547600  0.49745200  0.58630200  1
  O  O3  1  0.50257200  0.77448600  0.08629700  1
  O  O4  1  0.88781700  0.88781100  0.75002100  1
  O  O5  1  0.99999500  0.00001100  0.50001000  1
  O  O6  1  0.11215800  0.11211000  0.24999600  1
  O  O7  1  0.99997300  0.99997400  0.00002500  1
  O  O8  1  0.49747600  0.22545600  0.91373400  1
  O  O9  1  0.77446300  0.50264400  0.41365300  1
  O  O10  1  0.85888000  0.37608100  0.80121100  1
  O  O11  1  0.62380600  0.14124900  0.30126200  1
loop_
_geom_bond_atom_site_label_1
_geom_bond_atom_site_label_2
_geom_bond_distance
_geom_bond_site_symmetry_2
Li0 O3 1.980581 1_556
Li0 O10 2.008649 1_555
Li0 O0 2.095536 1_555
Li0 O4 2.463441 1_555
Li0 O8 2.561490 1_565
Li1 O2 1.980605 1_555
Li1 O11 2.008249 1_555
Li1 O1 2.095808 1_555
Li1 O6 2.463971 1_555
Li1 O9 2.561172 1_455
Li2 O9 1.980948 1_555
Li2 O0 2.008644 1_555
Li2 O10 2.095532 1_555
Li2 O4 2.463998 1_555
Li2 O2 2.561341 1_655
Li3 O8 1.980447 1_554
Li3 O1 2.008248 1_555
Li3 O11 2.096006 1_555
Li3 O6 2.463540 1_555
Li3 O3 2.561426 1_545
Fe0 O8 2.010052 1_555
Fe0 O2 2.010459 1_555
Fe0 O0 2.099873 1_545
Fe0 O10 2.101349 1_455
Fe1 O3 2.009423 1_555
Fe1 O9 2.011579 1_555
Fe1 O11 2.099434 1_565
Fe1 O1 2.100544 1_655
O0 Si0 1.630253 1_555
O1 Si1 1.629723 1_555
O2 Si0 1.628881 1_555
O3 Si1 1.629028 1_555
O4 Si2 1.674059 1_565
O4 Si0 1.674147 1_655
O5 Si0 1.631492 1_645
O5 Si3 1.631634 1_555
O6 Si1 1.673905 1_545
O6 Si3 1.674147 1_455
O7 Si1 1.631607 1_655
O7 Si2 1.631681 1_564
O8 Si2 1.629003 1_555
O9 Si3 1.628810 1_555
O10 Si2 1.629824 1_555
O11 Si3 1.630244 1_555
