# generated using pymatgen
data_LiSb(PO3)4
_symmetry_space_group_name_H-M   'P 1'
_cell_length_a   7.50908632
_cell_length_b   7.50908632
_cell_length_c   17.88539900
_cell_angle_alpha   90.00000000
_cell_angle_beta   90.00000000
_cell_angle_gamma   95.82404801
_symmetry_Int_Tables_number   1
_chemical_formula_structural   LiSb(PO3)4
_chemical_formula_sum   'Li4 Sb4 P16 O48'
_cell_volume   1003.28722388
_cell_formula_units_Z   4
loop_
 _symmetry_equiv_pos_site_id
 _symmetry_equiv_pos_as_xyz
  1  'x, y, z'
loop_
 _atom_site_type_symbol
 _atom_site_label
 _atom_site_symmetry_multiplicity
 _atom_site_fract_x
 _atom_site_fract_y
 _atom_site_fract_z
 _atom_site_occupancy
  Li  Li0  1  0.50902700  0.97226000  0.86441900  1
  Li  Li1  1  0.02774000  0.49097300  0.63558100  1
  Li  Li2  1  0.49097300  0.02774000  0.36441900  1
  Li  Li3  1  0.97226000  0.50902700  0.13558100  1
  Sb  Sb0  1  0.23123700  0.05360900  0.63883600  1
  Sb  Sb1  1  0.94639100  0.76876300  0.86116400  1
  Sb  Sb2  1  0.76876300  0.94639100  0.13883600  1
  Sb  Sb3  1  0.05360900  0.23123700  0.36116400  1
  P  P0  1  0.03549000  0.76853300  0.35075700  1
  P  P1  1  0.23146700  0.96451000  0.14924300  1
  P  P2  1  0.28307100  0.79563600  0.99699100  1
  P  P3  1  0.20436400  0.71692900  0.50300900  1
  P  P4  1  0.34539800  0.65460200  0.75000000  1
  P  P5  1  0.65694200  0.71908600  0.30933300  1
  P  P6  1  0.28091400  0.34305800  0.19066700  1
  P  P7  1  0.35962300  0.35962300  0.50000000  1
  P  P8  1  0.64037700  0.64037700  0.00000000  1
  P  P9  1  0.34305800  0.28091400  0.80933300  1
  P  P10  1  0.71908600  0.65694200  0.69066700  1
  P  P11  1  0.65460200  0.34539800  0.25000000  1
  P  P12  1  0.79563600  0.28307100  0.00300900  1
  P  P13  1  0.71692900  0.20436400  0.49699100  1
  P  P14  1  0.76853300  0.03549000  0.64924300  1
  P  P15  1  0.96451000  0.23146700  0.85075700  1
  O  O0  1  0.10879000  0.97079600  0.35836400  1
  O  O1  1  0.02920400  0.89121000  0.14163600  1
  O  O2  1  0.07083500  0.66445300  0.28430500  1
  O  O3  1  0.33554700  0.92916500  0.21569500  1
  O  O4  1  0.10016600  0.69565000  0.99421600  1
  O  O5  1  0.30435000  0.89983400  0.50578400  1
  O  O6  1  0.10439200  0.67344200  0.42379700  1
  O  O7  1  0.32655800  0.89560800  0.07620300  1
  O  O8  1  0.07687500  0.66441900  0.56372700  1
  O  O9  1  0.33558100  0.92312500  0.93627300  1
  O  O10  1  0.37937100  0.82721900  0.79079000  1
  O  O11  1  0.17278100  0.62062900  0.70921000  1
  O  O12  1  0.49834200  0.78532300  0.34380300  1
  O  O13  1  0.21467700  0.50165800  0.15619700  1
  O  O14  1  0.35201500  0.56696200  0.49715100  1
  O  O15  1  0.43303800  0.64798500  0.00284900  1
  O  O16  1  0.76807700  0.82324200  0.63393700  1
  O  O17  1  0.17675800  0.23192300  0.86606300  1
  O  O18  1  0.50494100  0.63066300  0.69027800  1
  O  O19  1  0.36933700  0.49505900  0.80972200  1
  O  O20  1  0.26934900  0.28240900  0.57205700  1
  O  O21  1  0.71759100  0.73065100  0.92794300  1
  O  O22  1  0.22117500  0.28069800  0.27018000  1
  O  O23  1  0.71930200  0.77882500  0.22982000  1
  O  O24  1  0.28069800  0.22117500  0.72982000  1
  O  O25  1  0.77882500  0.71930200  0.77018000  1
  O  O26  1  0.28240900  0.26934900  0.42794300  1
  O  O27  1  0.73065100  0.71759100  0.07205700  1
  O  O28  1  0.63066300  0.50494100  0.30972200  1
  O  O29  1  0.49505900  0.36933700  0.19027800  1
  O  O30  1  0.23192300  0.17675800  0.13393700  1
  O  O31  1  0.82324200  0.76807700  0.36606300  1
  O  O32  1  0.64798500  0.43303800  0.99715100  1
  O  O33  1  0.56696200  0.35201500  0.50284900  1
  O  O34  1  0.50165800  0.21467700  0.84380300  1
  O  O35  1  0.78532300  0.49834200  0.65619700  1
  O  O36  1  0.82721900  0.37937100  0.20921000  1
  O  O37  1  0.62062900  0.17278100  0.29079000  1
  O  O38  1  0.66441900  0.07687500  0.43627300  1
  O  O39  1  0.92312500  0.33558100  0.06372700  1
  O  O40  1  0.67344200  0.10439200  0.57620300  1
  O  O41  1  0.89560800  0.32655800  0.92379700  1
  O  O42  1  0.89983400  0.30435000  0.49421600  1
  O  O43  1  0.69565000  0.10016600  0.00578400  1
  O  O44  1  0.66445300  0.07083500  0.71569500  1
  O  O45  1  0.92916500  0.33554700  0.78430500  1
  O  O46  1  0.97079600  0.10879000  0.64163600  1
  O  O47  1  0.89121000  0.02920400  0.85836400  1
loop_
_geom_bond_atom_site_label_1
_geom_bond_atom_site_label_2
_geom_bond_distance
_geom_bond_site_symmetry_2
Li0 O9 1.840240 1_555
Li0 O34 1.863616 1_565
Li0 O10 1.911301 1_555
Li1 O8 1.840240 1_555
Li1 O35 1.863616 1_455
Li1 O11 1.911301 1_555
Li2 O38 1.840240 1_555
Li2 O12 1.863616 1_545
Li2 O37 1.911301 1_555
Li3 O39 1.840240 1_555
Li3 O13 1.863616 1_655
Li3 O36 1.911301 1_555
O0 P0 1.567990 1_555
O0 Sb3 2.040422 1_565
O1 P1 1.567990 1_555
O1 Sb2 2.040422 1_455
O2 P0 1.461483 1_555
O3 P1 1.461483 1_555
O4 P2 1.497750 1_555
O5 P3 1.497750 1_555
O6 P0 1.599713 1_555
O6 P3 1.620981 1_555
O7 P1 1.599713 1_555
O7 P2 1.620981 1_554
O8 P3 1.474673 1_555
O9 P2 1.474673 1_555
O10 P4 1.486718 1_555
O11 P4 1.486718 1_555
O12 P5 1.471743 1_555
O13 P6 1.471743 1_555
O14 P7 1.564587 1_555
O14 P3 1.661858 1_555
O15 P8 1.564587 1_555
O15 P2 1.661858 1_554
O16 P14 1.616789 1_565
O16 P10 1.622035 1_555
O17 P15 1.616789 1_455
O17 P9 1.622035 1_555
O18 P10 1.600113 1_555
O18 P4 1.628565 1_555
O19 P9 1.600113 1_555
O19 P4 1.628565 1_555
O20 P7 1.541703 1_555
O20 Sb0 2.088164 1_555
O21 P8 1.541703 1_556
O21 Sb1 2.088164 1_555
O22 P6 1.549291 1_555
O22 Sb3 2.067461 1_555
O23 P5 1.549291 1_555
O23 Sb2 2.067461 1_555
O24 P9 1.549291 1_555
O24 Sb0 2.067461 1_555
O25 P10 1.549291 1_555
O25 Sb1 2.067461 1_555
O26 P7 1.541703 1_555
O26 Sb3 2.088164 1_555
O27 P8 1.541703 1_555
O27 Sb2 2.088164 1_555
O28 P5 1.600113 1_555
O28 P11 1.628565 1_555
O29 P6 1.600113 1_555
O29 P11 1.628565 1_555
O30 P1 1.616789 1_545
O30 P6 1.622035 1_555
O31 P0 1.616789 1_655
O31 P5 1.622035 1_555
O32 P8 1.564587 1_556
O32 P12 1.661858 1_556
O33 P7 1.564587 1_555
O33 P13 1.661858 1_555
O34 P9 1.471743 1_555
O35 P10 1.471743 1_555
O36 P11 1.486718 1_555
O37 P11 1.486718 1_555
O38 P13 1.474673 1_555
O39 P12 1.474673 1_555
O40 P14 1.599713 1_555
O40 P13 1.620981 1_555
O41 P15 1.599713 1_555
O41 P12 1.620981 1_556
O42 P13 1.497750 1_555
O43 P12 1.497750 1_555
O44 P14 1.461483 1_555
O45 P15 1.461483 1_555
O46 P14 1.567990 1_555
O46 Sb0 2.040422 1_655
O47 P15 1.567990 1_555
O47 Sb1 2.040422 1_545
