# generated using pymatgen
data_V3Cr3(TeO8)2
_symmetry_space_group_name_H-M   'P 1'
_cell_length_a   5.98350200
_cell_length_b   6.01294200
_cell_length_c   9.24748291
_cell_angle_alpha   90.24807874
_cell_angle_beta   90.89411852
_cell_angle_gamma   119.70592130
_symmetry_Int_Tables_number   1
_chemical_formula_structural   V3Cr3(TeO8)2
_chemical_formula_sum   'V3 Cr3 Te2 O16'
_cell_volume   288.92238549
_cell_formula_units_Z   1
loop_
 _symmetry_equiv_pos_site_id
 _symmetry_equiv_pos_as_xyz
  1  'x, y, z'
loop_
 _atom_site_type_symbol
 _atom_site_label
 _atom_site_symmetry_multiplicity
 _atom_site_fract_x
 _atom_site_fract_y
 _atom_site_fract_z
 _atom_site_occupancy
  V  V0  1  0.66100700  0.82976400  0.22373900  1
  V  V1  1  0.83429100  0.66394500  0.71506500  1
  V  V2  1  0.82396000  0.17068100  0.71681500  1
  Cr  Cr0  1  0.17334500  0.83132600  0.20765700  1
  Cr  Cr1  1  0.17310300  0.34151600  0.20784200  1
  Cr  Cr2  1  0.34078700  0.17367200  0.70517800  1
  Te  Te0  1  0.32611200  0.66396300  0.48942500  1
  Te  Te1  1  0.66105300  0.33040300  0.99136000  1
  O  O0  1  0.17214200  0.82913000  0.59470200  1
  O  O1  1  0.04658800  0.52473600  0.33878600  1
  O  O2  1  0.35574900  0.67712400  0.10904500  1
  O  O3  1  0.99095900  0.99612700  0.29841200  1
  O  O4  1  0.99873400  0.01421900  0.79624400  1
  O  O5  1  0.16771700  0.34532300  0.59317200  1
  O  O6  1  0.48043900  0.95480900  0.34662700  1
  O  O7  1  0.48324400  0.52472400  0.34756400  1
  O  O8  1  0.34142500  0.16894200  0.09558800  1
  O  O9  1  0.64821900  0.82470100  0.59792400  1
  O  O10  1  0.51904700  0.47316700  0.84438200  1
  O  O11  1  0.52414600  0.04402000  0.84152300  1
  O  O12  1  0.67902300  0.32904000  0.60736500  1
  O  O13  1  0.82268400  0.65041600  0.09885500  1
  O  O14  1  0.95397000  0.46893400  0.84944300  1
  O  O15  1  0.82225700  0.16952400  0.09900600  1
loop_
_geom_bond_atom_site_label_1
_geom_bond_atom_site_label_2
_geom_bond_distance
_geom_bond_site_symmetry_2
Cr0 O2 1.977166 1_555
Cr0 O3 1.992595 1_455
Cr0 O1 2.026450 1_555
Cr0 O6 2.035949 1_555
Cr0 O8 2.057649 1_565
Cr0 O13 2.064111 1_455
Cr1 O2 1.990658 1_555
Cr1 O3 2.000667 1_445
Cr1 O1 2.024025 1_555
Cr1 O7 2.052680 1_555
Cr1 O8 2.056166 1_555
Cr1 O15 2.064662 1_455
Cr2 O4 1.983246 1_455
Cr2 O12 1.994346 1_555
Cr2 O10 2.017718 1_555
Cr2 O11 2.052858 1_555
Cr2 O0 2.057069 1_545
Cr2 O5 2.060488 1_555
O0 Te0 1.925957 1_555
O0 V1 2.098050 1_455
O1 Te0 1.992038 1_555
O2 V0 1.890265 1_555
O3 V0 1.835585 1_555
O4 V2 1.864224 1_555
O4 V1 1.969017 1_545
O5 Te0 1.932408 1_555
O5 V2 2.140997 1_455
O6 V0 1.964721 1_555
O6 Te0 2.027916 1_555
O7 V0 1.982275 1_555
O7 Te0 2.028559 1_555
O8 Te1 1.937680 1_554
O9 Te0 1.934033 1_555
O9 V1 2.094138 1_555
O9 V2 2.102001 1_565
O10 Te1 2.000803 1_555
O10 V1 2.059545 1_555
O11 V2 1.961191 1_555
O11 Te1 2.025370 1_555
O12 V2 1.866168 1_555
O12 V1 2.002456 1_555
O13 Te1 1.932652 1_554
O13 V0 2.119096 1_555
O14 V2 1.973347 1_555
O14 Te1 2.030356 1_555
O14 V1 2.061317 1_555
O15 Te1 1.939132 1_554
O15 V0 2.129938 1_545
