# generated using pymatgen
data_NaB2H5O6
_symmetry_space_group_name_H-M   'P 1'
_cell_length_a   9.67183210
_cell_length_b   9.67183210
_cell_length_c   9.67183244
_cell_angle_alpha   71.39745356
_cell_angle_beta   71.39745356
_cell_angle_gamma   71.39745237
_symmetry_Int_Tables_number   1
_chemical_formula_structural   NaB2H5O6
_chemical_formula_sum   'Na6 B12 H30 O36'
_cell_volume   788.55099953
_cell_formula_units_Z   6
loop_
 _symmetry_equiv_pos_site_id
 _symmetry_equiv_pos_as_xyz
  1  'x, y, z'
loop_
 _atom_site_type_symbol
 _atom_site_label
 _atom_site_symmetry_multiplicity
 _atom_site_fract_x
 _atom_site_fract_y
 _atom_site_fract_z
 _atom_site_occupancy
  Na  Na0  1  0.17458700  0.50000000  0.82541300  1
  Na  Na1  1  0.50000000  0.82541300  0.17458700  1
  Na  Na2  1  0.82541300  0.17458700  0.50000000  1
  Na  Na3  1  0.50000000  0.50000000  0.50000000  1
  Na  Na4  1  0.91472000  0.91472000  0.91472000  1
  Na  Na5  1  0.08528000  0.08528000  0.08528000  1
  B  B0  1  0.88388000  0.52435100  0.44729800  1
  B  B1  1  0.52435100  0.44729800  0.88388000  1
  B  B2  1  0.44729800  0.88388000  0.52435100  1
  B  B3  1  0.11612000  0.55270200  0.47564900  1
  B  B4  1  0.47564900  0.11612000  0.55270200  1
  B  B5  1  0.55270200  0.47564900  0.11612000  1
  B  B6  1  0.76981600  0.46962300  0.89343800  1
  B  B7  1  0.46962300  0.89343800  0.76981600  1
  B  B8  1  0.89343800  0.76981600  0.46962300  1
  B  B9  1  0.23018400  0.10656200  0.53037700  1
  B  B10  1  0.53037700  0.23018400  0.10656200  1
  B  B11  1  0.10656200  0.53037700  0.23018400  1
  H  H0  1  0.73598300  0.43594400  0.61741300  1
  H  H1  1  0.43594400  0.61741300  0.73598300  1
  H  H2  1  0.61741300  0.73598300  0.43594400  1
  H  H3  1  0.26401700  0.38258700  0.56405600  1
  H  H4  1  0.56405600  0.26401700  0.38258700  1
  H  H5  1  0.38258700  0.56405600  0.26401700  1
  H  H6  1  0.94269700  0.47390800  0.71453100  1
  H  H7  1  0.47390800  0.71453100  0.94269700  1
  H  H8  1  0.71453100  0.94269700  0.47390800  1
  H  H9  1  0.05730300  0.28546900  0.52609200  1
  H  H10  1  0.52609200  0.05730300  0.28546900  1
  H  H11  1  0.28546900  0.52609200  0.05730300  1
  H  H12  1  0.05819200  0.76213600  0.64188400  1
  H  H13  1  0.76213600  0.64188400  0.05819200  1
  H  H14  1  0.64188400  0.05819200  0.76213600  1
  H  H15  1  0.94180800  0.35811600  0.23786400  1
  H  H16  1  0.23786400  0.94180800  0.35811600  1
  H  H17  1  0.35811600  0.23786400  0.94180800  1
  H  H18  1  0.16515700  0.83330700  0.66848200  1
  H  H19  1  0.83330700  0.66848200  0.16515700  1
  H  H20  1  0.66848200  0.16515700  0.83330700  1
  H  H21  1  0.83484300  0.33151800  0.16669300  1
  H  H22  1  0.16669300  0.83484300  0.33151800  1
  H  H23  1  0.33151800  0.16669300  0.83484300  1
  H  H24  1  0.84686600  0.97175500  0.25882200  1
  H  H25  1  0.97175500  0.25882200  0.84686600  1
  H  H26  1  0.25882200  0.84686600  0.97175500  1
  H  H27  1  0.15313400  0.74117800  0.02824500  1
  H  H28  1  0.02824500  0.15313400  0.74117800  1
  H  H29  1  0.74117800  0.02824500  0.15313400  1
  O  O0  1  0.53512800  0.00000000  0.46487200  1
  O  O1  1  0.00000000  0.46487200  0.53512800  1
  O  O2  1  0.46487200  0.53512800  0.00000000  1
  O  O3  1  0.04003600  0.71358500  0.48494000  1
  O  O4  1  0.71358500  0.48494000  0.04003600  1
  O  O5  1  0.48494000  0.04003600  0.71358500  1
  O  O6  1  0.95996400  0.51506000  0.28641500  1
  O  O7  1  0.28641500  0.95996400  0.51506000  1
  O  O8  1  0.51506000  0.28641500  0.95996400  1
  O  O9  1  0.68584100  0.44810200  0.81539600  1
  O  O10  1  0.44810200  0.81539600  0.68584100  1
  O  O11  1  0.81539600  0.68584100  0.44810200  1
  O  O12  1  0.31415900  0.18460400  0.55189800  1
  O  O13  1  0.55189800  0.31415900  0.18460400  1
  O  O14  1  0.18460400  0.55189800  0.31415900  1
  O  O15  1  0.76928200  0.43917100  0.50853400  1
  O  O16  1  0.43917100  0.50853400  0.76928200  1
  O  O17  1  0.50853400  0.76928200  0.43917100  1
  O  O18  1  0.23071800  0.49146600  0.56082900  1
  O  O19  1  0.56082900  0.23071800  0.49146600  1
  O  O20  1  0.49146600  0.56082900  0.23071800  1
  O  O21  1  0.91939700  0.47226200  0.82484000  1
  O  O22  1  0.47226200  0.82484000  0.91939700  1
  O  O23  1  0.82484000  0.91939700  0.47226200  1
  O  O24  1  0.08060300  0.17516000  0.52773800  1
  O  O25  1  0.52773800  0.08060300  0.17516000  1
  O  O26  1  0.17516000  0.52773800  0.08060300  1
  O  O27  1  0.08621900  0.77832200  0.72464700  1
  O  O28  1  0.77832200  0.72464700  0.08621900  1
  O  O29  1  0.72464700  0.08621900  0.77832200  1
  O  O30  1  0.91378100  0.27535300  0.22167800  1
  O  O31  1  0.22167800  0.91378100  0.27535300  1
  O  O32  1  0.27535300  0.22167800  0.91378100  1
  O  O33  1  0.84854100  0.00000000  0.15145900  1
  O  O34  1  0.00000000  0.15145900  0.84854100  1
  O  O35  1  0.15145900  0.84854100  0.00000000  1
loop_
_geom_bond_atom_site_label_1
_geom_bond_atom_site_label_2
_geom_bond_distance
_geom_bond_site_symmetry_2
Na0 O16 2.463717 1_555
Na0 O18 2.463717 1_555
Na0 O32 2.513232 1_555
Na0 O27 2.513232 1_555
Na0 O21 2.568252 1_455
Na0 O26 2.568253 1_556
Na1 O20 2.463717 1_555
Na1 O17 2.463717 1_555
Na1 O28 2.513232 1_555
Na1 O31 2.513232 1_555
Na1 O25 2.568252 1_565
Na1 O22 2.568253 1_554
Na2 O19 2.463717 1_555
Na2 O15 2.463717 1_555
Na2 O29 2.513232 1_555
Na2 O30 2.513232 1_555
Na2 O23 2.568252 1_545
Na2 O24 2.568252 1_655
Na3 O19 2.502934 1_555
Na3 O15 2.502934 1_555
Na3 O18 2.502934 1_555
Na3 O17 2.502934 1_555
Na3 O20 2.502934 1_555
Na3 O16 2.502934 1_555
Na4 O29 2.465145 1_565
Na4 O27 2.465146 1_655
Na4 O28 2.465146 1_556
Na4 O35 2.503155 1_656
Na4 O34 2.503155 1_665
Na4 O33 2.503155 1_566
Na5 O30 2.465145 1_455
Na5 O31 2.465146 1_545
Na5 O32 2.465146 1_554
Na5 O35 2.503155 1_545
Na5 O33 2.503155 1_455
Na5 O34 2.503155 1_554
B0 O15 1.452738 1_555
B0 O1 1.482763 1_655
B0 O11 1.490889 1_555
B0 O6 1.512384 1_555
B1 O16 1.452738 1_555
B1 O2 1.482763 1_556
B1 O9 1.490889 1_555
B1 O8 1.512383 1_555
B2 O17 1.452738 1_555
B2 O0 1.482763 1_565
B2 O10 1.490889 1_555
B2 O7 1.512383 1_555
B3 O18 1.452738 1_555
B3 O1 1.482763 1_555
B3 O14 1.490889 1_555
B3 O3 1.512383 1_555
B4 O19 1.452738 1_555
B4 O0 1.482763 1_555
B4 O12 1.490889 1_555
B4 O5 1.512384 1_555
B5 O20 1.452738 1_555
B5 O2 1.482763 1_555
B5 O13 1.490889 1_555
B5 O4 1.512383 1_555
B6 O9 1.368189 1_555
B6 O4 1.385178 1_556
B6 O21 1.390760 1_555
B7 O10 1.368189 1_555
B7 O5 1.385178 1_565
B7 O22 1.390760 1_555
B8 O11 1.368189 1_555
B8 O3 1.385178 1_655
B8 O23 1.390760 1_555
B9 O12 1.368189 1_555
B9 O7 1.385178 1_545
B9 O24 1.390760 1_555
B10 O13 1.368189 1_555
B10 O8 1.385178 1_554
B10 O25 1.390760 1_555
B11 O14 1.368189 1_555
B11 O6 1.385178 1_455
B11 O26 1.390760 1_555
H0 O15 0.991311 1_555
H1 O16 0.991311 1_555
H2 O17 0.991311 1_555
H3 O18 0.991311 1_555
H4 O19 0.991311 1_555
H5 O20 0.991311 1_555
H6 O21 1.013583 1_555
H6 O1 1.666694 1_655
H7 O22 1.013583 1_555
H7 O2 1.666694 1_556
H8 O23 1.013583 1_555
H8 O0 1.666694 1_565
H9 O24 1.013583 1_555
H9 O1 1.666694 1_555
H10 O25 1.013583 1_555
H10 O0 1.666694 1_555
H11 O26 1.013583 1_555
H11 O2 1.666694 1_555
H12 O27 0.992069 1_555
H13 O28 0.992069 1_555
H14 O29 0.992069 1_555
H15 O30 0.992069 1_555
H16 O31 0.992069 1_555
H17 O32 0.992069 1_555
H18 O27 0.985357 1_555
H19 O28 0.985357 1_555
H20 O29 0.985357 1_555
H21 O30 0.985357 1_555
H22 O31 0.985357 1_555
H23 O32 0.985357 1_555
H24 O33 0.981971 1_565
H25 O34 0.981971 1_655
H26 O35 0.981971 1_556
H27 O35 0.981971 1_555
H28 O34 0.981971 1_555
H29 O33 0.981971 1_555
