# generated using pymatgen
data_VNi3(PO4)4
_symmetry_space_group_name_H-M   'P 1'
_cell_length_a   5.79747200
_cell_length_b   4.82370800
_cell_length_c   9.91097167
_cell_angle_alpha   89.05828308
_cell_angle_beta   90.00000000
_cell_angle_gamma   90.00000000
_symmetry_Int_Tables_number   1
_chemical_formula_structural   VNi3(PO4)4
_chemical_formula_sum   'V1 Ni3 P4 O16'
_cell_volume   277.12597931
_cell_formula_units_Z   1
loop_
 _symmetry_equiv_pos_site_id
 _symmetry_equiv_pos_as_xyz
  1  'x, y, z'
loop_
 _atom_site_type_symbol
 _atom_site_label
 _atom_site_symmetry_multiplicity
 _atom_site_fract_x
 _atom_site_fract_y
 _atom_site_fract_z
 _atom_site_occupancy
  V  V0  1  0.50000000  0.97189900  0.72468500  1
  Ni  Ni0  1  0.00000000  0.03081800  0.27200800  1
  Ni  Ni1  1  0.00000000  0.46137700  0.77304900  1
  Ni  Ni2  1  0.50000000  0.53801400  0.23249600  1
  P  P0  1  0.50000000  0.07972200  0.40052300  1
  P  P1  1  0.50000000  0.39334000  0.90534700  1
  P  P2  1  0.00000000  0.59553900  0.09708100  1
  P  P3  1  0.00000000  0.93559200  0.59066900  1
  O  O0  1  0.50000000  0.14426200  0.56280000  1
  O  O1  1  0.29234900  0.23525300  0.33696300  1
  O  O2  1  0.70765100  0.23525300  0.33696300  1
  O  O3  1  0.00000000  0.24520600  0.60605700  1
  O  O4  1  0.00000000  0.27838800  0.11171000  1
  O  O5  1  0.30065400  0.24032300  0.82510000  1
  O  O6  1  0.69934600  0.24032300  0.82510000  1
  O  O7  1  0.50000000  0.34115600  0.05273700  1
  O  O8  1  0.00000000  0.65841800  0.94494000  1
  O  O9  1  0.79305100  0.74026100  0.16903200  1
  O  O10  1  0.20694900  0.74026100  0.16903200  1
  O  O11  1  0.50000000  0.70656300  0.86556300  1
  O  O12  1  0.50000000  0.76967100  0.39719300  1
  O  O13  1  0.78855000  0.79595800  0.67551100  1
  O  O14  1  0.21145000  0.79595800  0.67551100  1
  O  O15  1  0.00000000  0.82644500  0.44992900  1
loop_
_geom_bond_atom_site_label_1
_geom_bond_atom_site_label_2
_geom_bond_distance
_geom_bond_site_symmetry_2
Ni0 O4 1.971740 1_555
Ni0 O15 2.006042 1_545
Ni0 O2 2.068913 1_455
Ni0 O1 2.068913 1_555
Ni0 O10 2.119547 1_545
Ni0 O9 2.119547 1_445
Ni1 O8 1.964406 1_555
Ni1 O3 1.970596 1_555
Ni1 O6 2.103142 1_455
Ni1 O5 2.103142 1_555
Ni1 O14 2.233994 1_555
Ni1 O13 2.233994 1_455
Ni2 O12 1.993256 1_555
Ni2 O7 2.032578 1_555
Ni2 O9 2.052721 1_555
Ni2 O10 2.052721 1_555
Ni2 O1 2.145787 1_555
Ni2 O2 2.145787 1_555
O0 P0 1.643193 1_555
O0 V0 1.794894 1_545
O1 P0 1.547063 1_555
O2 P0 1.547063 1_555
O3 P3 1.503746 1_545
O4 P2 1.534325 1_555
O5 P1 1.591318 1_555
O5 V0 2.011207 1_545
O6 P1 1.591318 1_555
O6 V0 2.011207 1_545
O7 P1 1.478225 1_554
O8 P2 1.533173 1_556
O9 P2 1.565789 1_655
O10 P2 1.565789 1_555
O11 P1 1.555216 1_555
O11 V0 1.878534 1_555
O12 P0 1.496502 1_565
O13 P3 1.626310 1_655
O13 V0 1.941611 1_555
O14 P3 1.626310 1_555
O14 V0 1.941611 1_555
O15 P3 1.498999 1_555
