# generated using pymatgen
data_Li6V3P8O29
_symmetry_space_group_name_H-M   'P 1'
_cell_length_a   9.79936400
_cell_length_b   9.81027101
_cell_length_c   13.97345098
_cell_angle_alpha   90.27601183
_cell_angle_beta   90.14700524
_cell_angle_gamma   119.94060735
_symmetry_Int_Tables_number   1
_chemical_formula_structural   Li6V3P8O29
_chemical_formula_sum   'Li12 V6 P16 O58'
_cell_volume   1164.02048968
_cell_formula_units_Z   2
loop_
 _symmetry_equiv_pos_site_id
 _symmetry_equiv_pos_as_xyz
  1  'x, y, z'
loop_
 _atom_site_type_symbol
 _atom_site_label
 _atom_site_symmetry_multiplicity
 _atom_site_fract_x
 _atom_site_fract_y
 _atom_site_fract_z
 _atom_site_occupancy
  Li  Li0  1  0.76388200  0.66827000  0.55780400  1
  Li  Li1  1  0.67845300  0.34513700  0.88913400  1
  Li  Li2  1  0.77617900  0.08429100  0.06235200  1
  Li  Li3  1  0.30985300  0.22027600  0.06258800  1
  Li  Li4  1  0.66528000  0.90462400  0.43791000  1
  Li  Li5  1  0.33052700  0.09609100  0.55916400  1
  Li  Li6  1  0.69332800  0.77695500  0.94286800  1
  Li  Li7  1  0.22626200  0.90597400  0.94550800  1
  Li  Li8  1  0.09818500  0.76485800  0.43686200  1
  Li  Li9  1  0.23595600  0.33759500  0.43940700  1
  Li  Li10  1  0.09421300  0.32093500  0.93943900  1
  Li  Li11  1  0.98776000  0.03447700  0.50112800  1
  V  V0  1  0.56683000  0.00030900  0.25085200  1
  V  V1  1  0.43479800  0.99899300  0.74769800  1
  V  V2  1  0.56426500  0.56460900  0.75091500  1
  V  V3  1  0.43536800  0.43688500  0.25033300  1
  V  V4  1  0.00095500  0.56536800  0.24875800  1
  V  V5  1  0.99633800  0.43329100  0.74594300  1
  P  P0  1  0.91308800  0.68616500  0.84205400  1
  P  P1  1  0.77449700  0.68790900  0.34078100  1
  P  P2  1  0.91754100  0.22589100  0.33980100  1
  P  P3  1  0.66481900  0.33206200  0.13027700  1
  P  P4  1  0.66480300  0.33506900  0.62841300  1
  P  P5  1  0.77126500  0.09053700  0.84079200  1
  P  P6  1  0.68800400  0.91330900  0.65520800  1
  P  P7  1  0.32223800  0.22808200  0.84227900  1
  P  P8  1  0.68043500  0.76917800  0.15773700  1
  P  P9  1  0.31399900  0.08846000  0.34392300  1
  P  P10  1  0.22889900  0.90847000  0.16111600  1
  P  P11  1  0.33601100  0.66756800  0.37221500  1
  P  P12  1  0.33036500  0.66541600  0.87058400  1
  P  P13  1  0.08295900  0.76947400  0.65524000  1
  P  P14  1  0.22591700  0.31193300  0.65824100  1
  P  P15  1  0.08699200  0.31798500  0.15515400  1
  O  O0  1  0.99782500  0.76910500  0.56454600  1
  O  O1  1  0.91973700  0.66618900  0.34116600  1
  O  O2  1  0.75337400  0.75859900  0.06691700  1
  O  O3  1  0.74637600  0.66739700  0.84413400  1
  O  O4  1  0.89068100  0.51818400  0.82835300  1
  O  O5  1  0.81048200  0.47783600  0.17496300  1
  O  O6  1  0.92362300  0.38486300  0.33380400  1
  O  O7  1  0.99843200  0.24480700  0.06334200  1
  O  O8  1  0.92075400  0.25316700  0.84393700  1
  O  O9  1  0.67359400  0.48926200  0.67181800  1
  O  O10  1  0.62059300  0.52959000  0.33033900  1
  O  O11  1  0.80865400  0.32946100  0.67524600  1
  O  O12  1  0.65902100  0.32923900  0.02259000  1
  O  O13  1  0.66616300  0.34184400  0.52230400  1
  O  O14  1  0.66823300  0.18277600  0.16671800  1
  O  O15  1  0.48991800  0.37118300  0.82609300  1
  O  O16  1  0.51181900  0.32877400  0.16995600  1
  O  O17  1  0.74483000  0.08716200  0.34115200  1
  O  O18  1  0.79248400  0.00235000  0.74940300  1
  O  O19  1  0.77526700  0.99136300  0.56556900  1
  O  O20  1  0.74998300  0.99607700  0.92961400  1
  O  O21  1  0.62873000  0.11621900  0.82244900  1
  O  O22  1  0.50954500  0.18710800  0.66687900  1
  O  O23  1  0.66673100  0.92053500  0.16171000  1
  O  O24  1  0.47081500  0.09284100  0.33099300  1
  O  O25  1  0.33353900  0.25386000  0.34358500  1
  O  O26  1  0.79453300  0.79291300  0.24826100  1
  O  O27  1  0.77561800  0.77841100  0.42967700  1
  O  O28  1  0.22034000  0.21988600  0.56893000  1
  O  O29  1  0.66130400  0.74492500  0.66020700  1
  O  O30  1  0.53179000  0.91488600  0.66777600  1
  O  O31  1  0.33596300  0.07801600  0.84398200  1
  O  O32  1  0.49128700  0.81169800  0.33418600  1
  O  O33  1  0.38162400  0.90129300  0.17994500  1
  O  O34  1  0.24545700  0.99919600  0.07110700  1
  O  O35  1  0.22405900  0.99921900  0.43219900  1
  O  O36  1  0.20689000  0.00057200  0.25031500  1
  O  O37  1  0.24877800  0.91696500  0.65886500  1
  O  O38  1  0.47908900  0.66251600  0.82799900  1
  O  O39  1  0.51819300  0.62344200  0.17742100  1
  O  O40  1  0.33493600  0.81704200  0.82877500  1
  O  O41  1  0.33153900  0.66373100  0.97682800  1
  O  O42  1  0.33684900  0.66005500  0.47911700  1
  O  O43  1  0.19086900  0.67805700  0.33301900  1
  O  O44  1  0.38320300  0.46698200  0.66842500  1
  O  O45  1  0.32498000  0.51126700  0.32919700  1
  O  O46  1  0.08680800  0.74274400  0.16217400  1
  O  O47  1  0.98814000  0.78482100  0.74423900  1
  O  O48  1  0.01301800  0.77490600  0.92492000  1
  O  O49  1  0.09112500  0.61814200  0.66811300  1
  O  O50  1  0.18028800  0.51737300  0.82779300  1
  O  O51  1  0.10589700  0.48001300  0.17678200  1
  O  O52  1  0.24882700  0.32838100  0.15731100  1
  O  O53  1  0.24704500  0.24689400  0.93109500  1
  O  O54  1  0.21336800  0.20619600  0.75087500  1
  O  O55  1  0.08491200  0.33598700  0.66309400  1
  O  O56  1  0.00929300  0.20877900  0.42069400  1
  O  O57  1  0.98718700  0.20069200  0.24067000  1
loop_
_geom_bond_atom_site_label_1
_geom_bond_atom_site_label_2
_geom_bond_distance
_geom_bond_site_symmetry_2
Li0 O0 1.994302 1_555
Li0 O27 2.069260 1_555
Li0 O29 2.091663 1_555
Li0 O9 2.210921 1_555
Li1 O12 1.874352 1_556
Li1 O4 2.104089 1_555
Li1 O15 2.172478 1_555
Li1 O21 2.243727 1_555
Li2 O7 1.949227 1_555
Li2 O23 1.991965 1_545
Li2 O20 2.003864 1_544
Li2 O14 2.278976 1_555
Li3 O34 1.937269 1_545
Li3 O52 1.964159 1_555
Li3 O53 1.995578 1_554
Li3 O16 2.273193 1_555
Li4 O27 2.012724 1_555
Li4 O19 2.031708 1_555
Li4 O32 2.064438 1_555
Li4 O17 2.068275 1_565
Li5 O28 1.991875 1_555
Li5 O35 2.030705 1_545
Li5 O37 2.072385 1_545
Li5 O22 2.133101 1_555
Li6 O2 1.867311 1_556
Li6 O20 1.943339 1_555
Li6 O3 1.968747 1_555
Li6 O38 2.420110 1_555
Li7 O48 1.847704 1_555
Li7 O34 1.939868 1_556
Li7 O31 2.058308 1_565
Li7 O40 2.340637 1_555
Li8 O35 1.995692 1_555
Li8 O1 2.017140 1_455
Li8 O0 2.049743 1_455
Li8 O43 2.102959 1_555
Li9 O56 1.947009 1_555
Li9 O25 2.040130 1_555
Li9 O28 2.116063 1_555
Li9 O45 2.141034 1_555
Li10 O7 1.938397 1_456
Li10 O53 1.967267 1_555
Li10 O8 1.990960 1_455
Li10 O50 2.296131 1_555
Li11 O56 1.972628 1_655
Li11 O19 2.111831 1_545
Li11 O28 2.287955 1_655
Li11 O27 2.526129 1_545
O0 P13 1.514459 1_655
O1 P1 1.540712 1_555
O1 V4 2.014401 1_655
O2 P8 1.486477 1_555
O3 P0 1.550378 1_555
O3 V2 2.019255 1_555
O4 P0 1.560807 1_555
O4 V5 1.987278 1_555
O5 P3 1.556181 1_555
O5 V4 1.914745 1_655
O6 P2 1.533395 1_555
O6 V4 1.951322 1_655
O7 P15 1.509283 1_655
O8 P5 1.536010 1_555
O8 V5 2.065959 1_555
O9 P4 1.588800 1_555
O9 V2 1.924702 1_555
O10 P1 1.538380 1_555
O10 V3 1.924448 1_555
O11 P4 1.578425 1_555
O11 V5 1.872700 1_555
O12 P3 1.505285 1_555
O13 P4 1.484314 1_555
O14 P3 1.568847 1_555
O14 V0 1.955644 1_555
O15 P7 1.557013 1_555
O15 V2 1.969318 1_555
O16 P3 1.585096 1_555
O16 V3 1.932243 1_555
O17 P2 1.555047 1_555
O17 V0 1.963535 1_555
O18 P5 1.610207 1_555
O18 P6 1.622655 1_545
O19 P6 1.499206 1_555
O20 P5 1.504053 1_565
O21 P5 1.558895 1_555
O21 V1 1.954943 1_545
O22 P4 1.586785 1_555
O22 V1 1.972968 1_545
O23 P8 1.556982 1_555
O23 V0 1.970799 1_565
O24 P9 1.526926 1_555
O24 V0 1.952316 1_555
O25 P9 1.536072 1_555
O25 V3 2.039198 1_555
O26 P1 1.607274 1_555
O26 P8 1.623090 1_555
O27 P1 1.520193 1_555
O28 P14 1.521643 1_555
O29 P6 1.540085 1_555
O29 V2 1.997167 1_555
O30 P6 1.549005 1_555
O30 V1 1.900209 1_555
O31 P7 1.544009 1_555
O31 V1 2.023685 1_545
O32 P11 1.568663 1_555
O32 V0 1.996391 1_565
O33 P10 1.554786 1_555
O33 V0 1.854957 1_565
O34 P10 1.506017 1_555
O35 P9 1.520060 1_565
O36 P10 1.612922 1_545
O36 P9 1.623187 1_555
O37 P13 1.545472 1_555
O37 V1 2.006436 1_555
O38 P12 1.588898 1_555
O38 V2 1.890591 1_555
O39 P8 1.544173 1_555
O39 V3 1.893608 1_555
O40 P12 1.580489 1_555
O40 V1 1.925845 1_555
O41 P12 1.484846 1_555
O42 P11 1.496165 1_555
O43 P11 1.573576 1_555
O43 V4 1.998608 1_555
O44 P14 1.538211 1_555
O44 V2 1.917456 1_555
O45 P11 1.596725 1_555
O45 V3 1.924403 1_555
O46 P10 1.524104 1_555
O46 V4 1.940037 1_555
O47 P13 1.605112 1_655
O47 P0 1.628856 1_555
O48 P0 1.480239 1_455
O49 P13 1.537500 1_555
O49 V5 1.917522 1_455
O50 P12 1.576300 1_555
O50 V5 1.932346 1_455
O51 P15 1.534089 1_555
O51 V4 1.904466 1_555
O52 P15 1.537726 1_555
O52 V3 2.048495 1_555
O53 P7 1.501822 1_555
O54 P7 1.605401 1_555
O54 P14 1.628824 1_555
O55 P14 1.515040 1_555
O55 V5 1.956117 1_455
O56 P2 1.503849 1_455
O57 P15 1.613809 1_655
O57 P2 1.617297 1_555
