# generated using pymatgen
data_Li2Si2Ni2O7
_symmetry_space_group_name_H-M   'P 1'
_cell_length_a   13.02112700
_cell_length_b   5.48445800
_cell_length_c   9.65038309
_cell_angle_alpha   56.61526758
_cell_angle_beta   90.00000000
_cell_angle_gamma   90.00000000
_symmetry_Int_Tables_number   1
_chemical_formula_structural   Li2Si2Ni2O7
_chemical_formula_sum   'Li8 Si8 Ni8 O28'
_cell_volume   575.45380899
_cell_formula_units_Z   4
loop_
 _symmetry_equiv_pos_site_id
 _symmetry_equiv_pos_as_xyz
  1  'x, y, z'
loop_
 _atom_site_type_symbol
 _atom_site_label
 _atom_site_symmetry_multiplicity
 _atom_site_fract_x
 _atom_site_fract_y
 _atom_site_fract_z
 _atom_site_occupancy
  Li  Li0  1  0.35847400  0.72943800  0.11944400  1
  Li  Li1  1  0.74908000  0.02798300  0.17457700  1
  Li  Li2  1  0.24908000  0.97201700  0.32542300  1
  Li  Li3  1  0.85847400  0.27056200  0.38055600  1
  Li  Li4  1  0.14152600  0.72943800  0.61944400  1
  Li  Li5  1  0.75092000  0.02798300  0.67457700  1
  Li  Li6  1  0.25092000  0.97201700  0.82542300  1
  Li  Li7  1  0.64152600  0.27056200  0.88055600  1
  Si  Si0  1  0.89027600  0.78765100  0.03243200  1
  Si  Si1  1  0.67686400  0.63536700  0.04489000  1
  Si  Si2  1  0.17686400  0.36463300  0.45511000  1
  Si  Si3  1  0.39027600  0.21234900  0.46756800  1
  Si  Si4  1  0.60972400  0.78765100  0.53243200  1
  Si  Si5  1  0.82313600  0.63536700  0.54489000  1
  Si  Si6  1  0.32313600  0.36463300  0.95511000  1
  Si  Si7  1  0.10972400  0.21234900  0.96756800  1
  Ni  Ni0  1  0.08560800  0.54854400  0.10499800  1
  Ni  Ni1  1  0.49113800  0.16946000  0.19068600  1
  Ni  Ni2  1  0.99113800  0.83054000  0.30931400  1
  Ni  Ni3  1  0.58560800  0.45145600  0.39500200  1
  Ni  Ni4  1  0.41439200  0.54854400  0.60499800  1
  Ni  Ni5  1  0.00886200  0.16946000  0.69068600  1
  Ni  Ni6  1  0.50886200  0.83054000  0.80931400  1
  Ni  Ni7  1  0.91439200  0.45145600  0.89500200  1
  O  O0  1  0.80195100  0.55977400  0.03973400  1
  O  O1  1  0.16546500  0.91313400  0.01847600  1
  O  O2  1  0.02472300  0.20027400  0.09879700  1
  O  O3  1  0.62190300  0.34211300  0.07159700  1
  O  O4  1  0.35567400  0.07601000  0.13744800  1
  O  O5  1  0.66325900  0.70216500  0.18748300  1
  O  O6  1  0.95088700  0.60547100  0.21155800  1
  O  O7  1  0.45088700  0.39452900  0.28844200  1
  O  O8  1  0.16325900  0.29783500  0.31251700  1
  O  O9  1  0.85567400  0.92399000  0.36255200  1
  O  O10  1  0.12190300  0.65788700  0.42840300  1
  O  O11  1  0.52472300  0.79972600  0.40120300  1
  O  O12  1  0.66546500  0.08686600  0.48152400  1
  O  O13  1  0.30195100  0.44022600  0.46026600  1
  O  O14  1  0.69804900  0.55977400  0.53973400  1
  O  O15  1  0.33453500  0.91313400  0.51847600  1
  O  O16  1  0.47527700  0.20027400  0.59879700  1
  O  O17  1  0.87809700  0.34211300  0.57159700  1
  O  O18  1  0.14432600  0.07601000  0.63744800  1
  O  O19  1  0.83674100  0.70216500  0.68748300  1
  O  O20  1  0.54911300  0.60547100  0.71155800  1
  O  O21  1  0.04911300  0.39452900  0.78844200  1
  O  O22  1  0.33674100  0.29783500  0.81251700  1
  O  O23  1  0.64432600  0.92399000  0.86255200  1
  O  O24  1  0.37809700  0.65788700  0.92840300  1
  O  O25  1  0.97527700  0.79972600  0.90120300  1
  O  O26  1  0.83453500  0.08686600  0.98152400  1
  O  O27  1  0.19804900  0.44022600  0.96026600  1
loop_
_geom_bond_atom_site_label_1
_geom_bond_atom_site_label_2
_geom_bond_distance
_geom_bond_site_symmetry_2
Li0 O4 2.001961 1_565
Li0 O7 2.045700 1_555
Li0 O24 2.101047 1_554
Li1 O26 2.037452 1_554
Li1 O5 2.052436 1_545
Li1 O9 2.098536 1_545
Li1 O3 2.194046 1_555
Li1 O0 2.548914 1_555
Li2 O15 2.037452 1_555
Li2 O8 2.052436 1_565
Li2 O4 2.098536 1_565
Li2 O10 2.194046 1_555
Li2 O13 2.548914 1_555
Li3 O9 2.001961 1_545
Li3 O6 2.045700 1_555
Li3 O17 2.101047 1_555
Li4 O18 2.001961 1_565
Li4 O21 2.045700 1_555
Li4 O10 2.101047 1_555
Li5 O12 2.037452 1_555
Li5 O19 2.052436 1_545
Li5 O23 2.098536 1_545
Li5 O17 2.194046 1_555
Li5 O14 2.548914 1_555
Li6 O1 2.037452 1_556
Li6 O22 2.052436 1_565
Li6 O18 2.098536 1_565
Li6 O24 2.194046 1_555
Li6 O27 2.548914 1_555
Li7 O23 2.001961 1_545
Li7 O20 2.045700 1_555
Li7 O3 2.101047 1_556
Ni0 O8 1.973095 1_555
Ni0 O1 1.984773 1_555
Ni0 O2 2.099111 1_555
Ni0 O6 2.141399 1_455
Ni0 O25 2.201806 1_454
Ni0 O27 2.315275 1_554
Ni1 O11 1.974023 1_545
Ni1 O3 1.979649 1_555
Ni1 O4 1.981853 1_555
Ni1 O7 1.992463 1_555
Ni2 O2 1.974023 1_665
Ni2 O10 1.979649 1_655
Ni2 O9 1.981853 1_555
Ni2 O6 1.992463 1_555
Ni3 O5 1.973095 1_555
Ni3 O12 1.984773 1_555
Ni3 O11 2.099111 1_555
Ni3 O7 2.141399 1_555
Ni3 O16 2.201806 1_555
Ni3 O14 2.315275 1_555
Ni4 O22 1.973095 1_555
Ni4 O15 1.984773 1_555
Ni4 O16 2.099111 1_555
Ni4 O20 2.141399 1_555
Ni4 O11 2.201806 1_555
Ni4 O13 2.315275 1_555
Ni5 O25 1.974023 1_445
Ni5 O17 1.979649 1_455
Ni5 O18 1.981853 1_555
Ni5 O21 1.992463 1_555
Ni6 O16 1.974023 1_565
Ni6 O24 1.979649 1_555
Ni6 O23 1.981853 1_555
Ni6 O20 1.992463 1_555
Ni7 O19 1.973095 1_555
Ni7 O26 1.984773 1_555
Ni7 O25 2.099111 1_555
Ni7 O21 2.141399 1_655
Ni7 O2 2.201806 1_656
Ni7 O0 2.315275 1_556
O0 Si0 1.671140 1_555
O0 Si1 1.688184 1_555
O1 Si7 1.604337 1_564
O2 Si7 1.655569 1_554
O3 Si1 1.645951 1_555
O4 Si6 1.648072 1_554
O5 Si1 1.616782 1_555
O6 Si0 1.645776 1_555
O7 Si3 1.645776 1_555
O8 Si2 1.616782 1_555
O9 Si5 1.648072 1_555
O10 Si2 1.645951 1_555
O11 Si4 1.655569 1_555
O12 Si4 1.604337 1_545
O13 Si3 1.671140 1_555
O13 Si2 1.688184 1_555
O14 Si4 1.671140 1_555
O14 Si5 1.688184 1_555
O15 Si3 1.604337 1_565
O16 Si3 1.655569 1_555
O17 Si5 1.645951 1_555
O18 Si2 1.648072 1_555
O19 Si5 1.616782 1_555
O20 Si4 1.645776 1_555
O21 Si7 1.645776 1_555
O22 Si6 1.616782 1_555
O23 Si1 1.648072 1_556
O24 Si6 1.645951 1_555
O25 Si0 1.655569 1_556
O26 Si0 1.604337 1_546
O27 Si7 1.671140 1_555
O27 Si6 1.688184 1_555
