# generated using pymatgen
data_KNaZrSi3H4O11
_symmetry_space_group_name_H-M   'P 1'
_cell_length_a   6.73854084
_cell_length_b   11.75493781
_cell_length_c   13.00097754
_cell_angle_alpha   90.00000000
_cell_angle_beta   90.00000000
_cell_angle_gamma   90.00000000
_symmetry_Int_Tables_number   1
_chemical_formula_structural   KNaZrSi3H4O11
_chemical_formula_sum   'K4 Na4 Zr4 Si12 H16 O44'
_cell_volume   1029.82210260
_cell_formula_units_Z   4
loop_
 _symmetry_equiv_pos_site_id
 _symmetry_equiv_pos_as_xyz
  1  'x, y, z'
loop_
 _atom_site_type_symbol
 _atom_site_label
 _atom_site_symmetry_multiplicity
 _atom_site_fract_x
 _atom_site_fract_y
 _atom_site_fract_z
 _atom_site_occupancy
  K  K0  1  0.91026430  0.25062890  0.35182065  1
  K  K1  1  0.58973570  0.25062890  0.85182065  1
  K  K2  1  0.41026430  0.75062890  0.14817935  1
  K  K3  1  0.08973570  0.75062890  0.64817935  1
  Na  Na0  1  0.82893281  0.49834908  0.10577163  1
  Na  Na1  1  0.67106719  0.49834908  0.60577163  1
  Na  Na2  1  0.32893281  0.99834908  0.39422837  1
  Na  Na3  1  0.17106719  0.99834908  0.89422837  1
  Zr  Zr0  1  0.14690906  0.24955996  0.05391913  1
  Zr  Zr1  1  0.35309094  0.24955996  0.55391913  1
  Zr  Zr2  1  0.64690906  0.74955996  0.44608087  1
  Zr  Zr3  1  0.85309094  0.74955996  0.94608087  1
  Si  Si0  1  0.64526301  0.21399942  0.11056501  1
  Si  Si1  1  0.85473699  0.21399942  0.61056501  1
  Si  Si2  1  0.11361470  0.27967476  0.78825096  1
  Si  Si3  1  0.38638530  0.27967476  0.28825096  1
  Si  Si4  1  0.38907552  0.49795056  0.41600016  1
  Si  Si5  1  0.11092448  0.49795056  0.91600016  1
  Si  Si6  1  0.14526301  0.71399942  0.38943499  1
  Si  Si7  1  0.35473699  0.71399942  0.88943499  1
  Si  Si8  1  0.88638530  0.77967476  0.21174904  1
  Si  Si9  1  0.61361470  0.77967476  0.71174904  1
  Si  Si10  1  0.88907552  0.99795056  0.08399984  1
  Si  Si11  1  0.61092448  0.99795056  0.58399984  1
  H  H0  1  0.26615877  0.01490067  0.16803592  1
  H  H1  1  0.23384123  0.01490067  0.66803592  1
  H  H2  1  0.49280827  0.01169849  0.18310303  1
  H  H3  1  0.00719173  0.01169849  0.68310303  1
  H  H4  1  0.45561437  0.48396896  0.19472050  1
  H  H5  1  0.04438563  0.48396896  0.69472050  1
  H  H6  1  0.37867373  0.48422494  0.08260068  1
  H  H7  1  0.12132627  0.48422494  0.58260068  1
  H  H8  1  0.76615877  0.51490067  0.33196408  1
  H  H9  1  0.73384123  0.51490067  0.83196408  1
  H  H10  1  0.99280827  0.51169849  0.31689697  1
  H  H11  1  0.50719173  0.51169849  0.81689697  1
  H  H12  1  0.95561437  0.98396896  0.30527950  1
  H  H13  1  0.54438563  0.98396896  0.80527950  1
  H  H14  1  0.62132627  0.98422494  0.91739932  1
  H  H15  1  0.87867373  0.98422494  0.41739932  1
  O  O0  1  0.98187786  0.01665322  0.37315891  1
  O  O1  1  0.51812214  0.01665322  0.87315891  1
  O  O2  1  0.08574484  0.07482745  0.07174140  1
  O  O3  1  0.41425516  0.07482745  0.57174140  1
  O  O4  1  0.69525711  0.07662317  0.10992208  1
  O  O5  1  0.80474289  0.07662317  0.60992208  1
  O  O6  1  0.36283445  0.21235369  0.39491311  1
  O  O7  1  0.13716555  0.21235369  0.89491311  1
  O  O8  1  0.45197496  0.23561077  0.04162287  1
  O  O9  1  0.04802504  0.23561077  0.54162287  1
  O  O10  1  0.59283670  0.24243943  0.23103041  1
  O  O11  1  0.90716330  0.24243943  0.73103041  1
  O  O12  1  0.20196270  0.26777607  0.21039843  1
  O  O13  1  0.29803730  0.26777607  0.71039843  1
  O  O14  1  0.83978752  0.28179132  0.07403508  1
  O  O15  1  0.66021248  0.28179132  0.57403508  1
  O  O16  1  0.41695096  0.41591344  0.31531201  1
  O  O17  1  0.08304904  0.41591344  0.81531201  1
  O  O18  1  0.15488506  0.42374530  0.01765924  1
  O  O19  1  0.34511494  0.42374530  0.51765924  1
  O  O20  1  0.86940561  0.48231340  0.28777800  1
  O  O21  1  0.63059439  0.48231340  0.78777800  1
  O  O22  1  0.48187786  0.51665322  0.12684109  1
  O  O23  1  0.01812214  0.51665322  0.62684109  1
  O  O24  1  0.58574484  0.57482745  0.42825860  1
  O  O25  1  0.91425516  0.57482745  0.92825860  1
  O  O26  1  0.19525711  0.57662317  0.39007792  1
  O  O27  1  0.30474289  0.57662317  0.89007792  1
  O  O28  1  0.86283445  0.71235369  0.10508689  1
  O  O29  1  0.63716555  0.71235369  0.60508689  1
  O  O30  1  0.54802504  0.73561077  0.95837713  1
  O  O31  1  0.95197496  0.73561077  0.45837713  1
  O  O32  1  0.09283670  0.74243943  0.26896959  1
  O  O33  1  0.40716330  0.74243943  0.76896959  1
  O  O34  1  0.70196270  0.76777607  0.28960157  1
  O  O35  1  0.79803730  0.76777607  0.78960157  1
  O  O36  1  0.33978752  0.78179132  0.42596492  1
  O  O37  1  0.16021248  0.78179132  0.92596492  1
  O  O38  1  0.91695096  0.91591344  0.18468799  1
  O  O39  1  0.58304904  0.91591344  0.68468799  1
  O  O40  1  0.84511494  0.92374530  0.98234076  1
  O  O41  1  0.65488506  0.92374530  0.48234076  1
  O  O42  1  0.36940561  0.98231340  0.21222200  1
  O  O43  1  0.13059439  0.98231340  0.71222200  1
loop_
_geom_bond_atom_site_label_1
_geom_bond_atom_site_label_2
_geom_bond_distance
_geom_bond_site_symmetry_2
K0 O9 2.642355 1_655
K0 O10 2.655318 1_555
K0 O12 2.699045 1_655
K0 O0 2.806130 1_555
K0 O20 2.861148 1_555
K1 O8 2.642355 1_556
K1 O11 2.655318 1_555
K1 O13 2.699045 1_555
K1 O1 2.806130 1_555
K1 O21 2.861148 1_555
K2 O30 2.642355 1_554
K2 O32 2.655318 1_555
K2 O34 2.699045 1_555
K2 O22 2.806130 1_555
K2 O42 2.861148 1_555
K3 O31 2.642355 1_455
K3 O33 2.655318 1_555
K3 O35 2.699045 1_455
K3 O23 2.806130 1_555
K3 O43 2.861148 1_555
Na0 O22 2.364442 1_555
Na0 O20 2.389373 1_555
Na0 O28 2.525978 1_555
Na0 O25 2.542617 1_554
Na0 O14 2.579882 1_555
Na0 O18 2.627870 1_655
Na1 O23 2.364442 1_655
Na1 O21 2.389373 1_555
Na1 O29 2.525978 1_555
Na1 O24 2.542617 1_555
Na1 O15 2.579882 1_555
Na1 O19 2.627870 1_555
Na2 O0 2.364442 1_465
Na2 O42 2.389373 1_555
Na2 O6 2.525978 1_565
Na2 O3 2.542617 1_565
Na2 O36 2.579882 1_555
Na2 O41 2.627870 1_555
Na3 O1 2.364442 1_565
Na3 O43 2.389373 1_555
Na3 O7 2.525978 1_565
Na3 O2 2.542617 1_566
Na3 O37 2.579882 1_555
Na3 O40 2.627870 1_455
H0 O42 0.980198 1_545
H1 O43 0.980198 1_545
H2 O42 0.976789 1_545
H3 O43 0.976789 1_545
H4 O22 0.978640 1_555
H5 O23 0.978640 1_555
H6 O22 0.979679 1_555
H7 O23 0.979679 1_555
H8 O20 0.980198 1_555
H9 O21 0.980198 1_555
H10 O20 0.976789 1_555
H11 O21 0.976789 1_555
H12 O0 0.978640 1_565
H13 O1 0.978640 1_565
H14 O1 0.979679 1_565
H15 O0 0.979679 1_565
O2 Si10 1.611945 1_445
O2 Zr0 2.107689 1_555
O3 Si11 1.611945 1_545
O3 Zr1 2.107689 1_555
O4 Si10 1.635418 1_545
O4 Si0 1.649637 1_555
O5 Si11 1.635418 1_545
O5 Si1 1.649637 1_555
O6 Si3 1.604493 1_555
O6 Zr1 2.114012 1_555
O7 Si2 1.604493 1_555
O7 Zr0 2.114012 1_556
O8 Si0 1.601365 1_555
O8 Zr0 2.068415 1_555
O9 Si1 1.601365 1_455
O9 Zr1 2.068415 1_555
O10 Si3 1.637189 1_555
O10 Si0 1.639954 1_555
O11 Si2 1.637189 1_655
O11 Si1 1.639954 1_555
O12 Si3 1.608860 1_555
O12 Zr0 2.078989 1_555
O13 Si2 1.608860 1_555
O13 Zr1 2.078989 1_555
O14 Si0 1.605868 1_555
O14 Zr0 2.120138 1_655
O15 Si1 1.605868 1_555
O15 Zr1 2.120138 1_555
O16 Si4 1.636715 1_555
O16 Si3 1.652552 1_555
O17 Si5 1.636715 1_555
O17 Si2 1.652552 1_555
O18 Si5 1.611033 1_554
O18 Zr0 2.101792 1_555
O19 Si4 1.611033 1_555
O19 Zr1 2.101792 1_555
O24 Si4 1.611945 1_555
O24 Zr2 2.107689 1_555
O25 Si5 1.611945 1_655
O25 Zr3 2.107689 1_555
O26 Si4 1.635418 1_555
O26 Si6 1.649637 1_555
O27 Si5 1.635418 1_555
O27 Si7 1.649637 1_555
O28 Si8 1.604493 1_555
O28 Zr3 2.114012 1_554
O29 Si9 1.604493 1_555
O29 Zr2 2.114012 1_555
O30 Si7 1.601365 1_555
O30 Zr3 2.068415 1_555
O31 Si6 1.601365 1_655
O31 Zr2 2.068415 1_555
O32 Si8 1.637189 1_455
O32 Si6 1.639954 1_555
O33 Si9 1.637189 1_555
O33 Si7 1.639954 1_555
O34 Si8 1.608860 1_555
O34 Zr2 2.078989 1_555
O35 Si9 1.608860 1_555
O35 Zr3 2.078989 1_555
O36 Si6 1.605868 1_555
O36 Zr2 2.120138 1_555
O37 Si7 1.605868 1_555
O37 Zr3 2.120138 1_455
O38 Si10 1.636715 1_555
O38 Si8 1.652552 1_555
O39 Si11 1.636715 1_555
O39 Si9 1.652552 1_555
O40 Si10 1.611033 1_556
O40 Zr3 2.101792 1_555
O41 Si11 1.611033 1_555
O41 Zr2 2.101792 1_555
