# generated using pymatgen
data_Li3V2(FeO4)2
_symmetry_space_group_name_H-M   'P 1'
_cell_length_a   5.94418400
_cell_length_b   5.94678724
_cell_length_c   5.96933376
_cell_angle_alpha   60.42632462
_cell_angle_beta   60.49654354
_cell_angle_gamma   60.51743516
_symmetry_Int_Tables_number   1
_chemical_formula_structural   Li3V2(FeO4)2
_chemical_formula_sum   'Li3 V2 Fe2 O8'
_cell_volume   150.82465353
_cell_formula_units_Z   1
loop_
 _symmetry_equiv_pos_site_id
 _symmetry_equiv_pos_as_xyz
  1  'x, y, z'
loop_
 _atom_site_type_symbol
 _atom_site_label
 _atom_site_symmetry_multiplicity
 _atom_site_fract_x
 _atom_site_fract_y
 _atom_site_fract_z
 _atom_site_occupancy
  Li  Li0  1  0.50000000  0.00000000  0.00000000  1
  Li  Li1  1  0.50000000  0.50000000  0.00000000  1
  Li  Li2  1  0.50000000  0.50000000  0.50000000  1
  V  V0  1  0.00000000  0.00000000  0.50000000  1
  V  V1  1  0.00000000  0.50000000  0.50000000  1
  Fe  Fe0  1  0.50000000  0.00000000  0.50000000  1
  Fe  Fe1  1  0.00000000  0.00000000  0.00000000  1
  O  O0  1  0.22930700  0.23126000  0.28451700  1
  O  O1  1  0.75354900  0.75963900  0.26858900  1
  O  O2  1  0.75773300  0.22129700  0.26546100  1
  O  O3  1  0.76814300  0.23318100  0.74578800  1
  O  O4  1  0.23185700  0.76681900  0.25421200  1
  O  O5  1  0.24226700  0.77870300  0.73453900  1
  O  O6  1  0.24645100  0.24036100  0.73141100  1
  O  O7  1  0.77069300  0.76874000  0.71548300  1
loop_
_geom_bond_atom_site_label_1
_geom_bond_atom_site_label_2
_geom_bond_distance
_geom_bond_site_symmetry_2
Li0 O3 2.117140 1_554
Li0 O4 2.117140 1_545
Li0 O0 2.191023 1_555
Li0 O7 2.191023 1_544
Li0 O1 2.209657 1_545
Li0 O6 2.209657 1_554
Li1 O4 2.205881 1_555
Li1 O3 2.205881 1_554
Li1 O2 2.214595 1_555
Li1 O5 2.214595 1_554
Li1 O7 2.277695 1_554
Li1 O0 2.277695 1_555
Li2 O1 2.167557 1_555
Li2 O6 2.167557 1_555
Li2 O3 2.174125 1_555
Li2 O4 2.174125 1_555
Li2 O5 2.175461 1_555
Li2 O2 2.175461 1_555
Fe0 O6 2.000172 1_555
Fe0 O1 2.000172 1_545
Fe0 O2 2.022943 1_555
Fe0 O5 2.022943 1_545
Fe0 O7 2.061356 1_545
Fe0 O0 2.061356 1_555
Fe1 O4 2.055904 1_545
Fe1 O3 2.055904 1_454
Fe1 O6 2.060427 1_554
Fe1 O1 2.060427 1_445
Fe1 O2 2.064486 1_455
Fe1 O5 2.064486 1_544
O0 V0 1.943160 1_555
O0 V1 2.055369 1_555
O1 V1 2.024769 1_655
O2 V0 2.016817 1_655
O3 V0 2.027412 1_655
O3 V1 2.105390 1_655
O4 V0 2.027412 1_565
O4 V1 2.105390 1_555
O5 V0 2.016817 1_565
O6 V1 2.024769 1_555
O7 V0 1.943160 1_665
O7 V1 2.055369 1_655
