# generated using pymatgen
data_Fe5(OF4)2
_symmetry_space_group_name_H-M   'P 1'
_cell_length_a   4.82797200
_cell_length_b   8.00856219
_cell_length_c   10.17306597
_cell_angle_alpha   70.64696582
_cell_angle_beta   87.93445107
_cell_angle_gamma   88.54978706
_symmetry_Int_Tables_number   1
_chemical_formula_structural   Fe5(OF4)2
_chemical_formula_sum   'Fe10 O4 F16'
_cell_volume   370.83838255
_cell_formula_units_Z   2
loop_
 _symmetry_equiv_pos_site_id
 _symmetry_equiv_pos_as_xyz
  1  'x, y, z'
loop_
 _atom_site_type_symbol
 _atom_site_label
 _atom_site_symmetry_multiplicity
 _atom_site_fract_x
 _atom_site_fract_y
 _atom_site_fract_z
 _atom_site_occupancy
  Fe  Fe0  1  0.51722100  0.70316000  0.88882500  1
  Fe  Fe1  1  0.44632100  0.90459500  0.29086900  1
  Fe  Fe2  1  0.51239100  0.10522600  0.70324900  1
  Fe  Fe3  1  0.49512300  0.29968100  0.10334100  1
  Fe  Fe4  1  0.48499000  0.49397000  0.51120900  1
  Fe  Fe5  1  0.02458500  0.38749200  0.79486100  1
  Fe  Fe6  1  0.96715800  0.80738700  0.61029000  1
  Fe  Fe7  1  0.02168700  0.19617900  0.38619000  1
  Fe  Fe8  1  0.00702400  0.61443400  0.19902400  1
  Fe  Fe9  1  0.01740200  0.99204000  0.01320100  1
  O  O0  1  0.20341900  0.84026600  0.18510300  1
  O  O1  1  0.32173600  0.32009700  0.67770900  1
  O  O2  1  0.30798900  0.13520500  0.28686100  1
  O  O3  1  0.69210700  0.87938000  0.71175400  1
  F  F0  1  0.20046300  0.23836900  0.98004300  1
  F  F1  1  0.18721800  0.03744400  0.57417900  1
  F  F2  1  0.18257600  0.43146200  0.37779700  1
  F  F3  1  0.18289900  0.64806600  0.76775100  1
  F  F4  1  0.29747200  0.95026300  0.86809000  1
  F  F5  1  0.30420000  0.54833100  0.06430300  1
  F  F6  1  0.28633800  0.75406800  0.48535700  1
  F  F7  1  0.72086300  0.24549000  0.51614200  1
  F  F8  1  0.67561000  0.66620300  0.33479800  1
  F  F9  1  0.69818300  0.05057500  0.13348600  1
  F  F10  1  0.70660800  0.45006000  0.91772700  1
  F  F11  1  0.81455000  0.57549800  0.61684500  1
  F  F12  1  0.81119000  0.96069400  0.42212800  1
  F  F13  1  0.80031100  0.15136100  0.82612600  1
  F  F14  1  0.80065600  0.75430400  0.02426400  1
  F  F15  1  0.81170600  0.35869700  0.22848100  1
loop_
_geom_bond_atom_site_label_1
_geom_bond_atom_site_label_2
_geom_bond_distance
_geom_bond_site_symmetry_2
Fe0 O3 2.053107 1_555
Fe1 O0 1.813098 1_555
Fe1 O2 1.936026 1_565
Fe2 O1 1.875287 1_555
Fe2 O3 1.963157 1_545
Fe3 O2 2.084617 1_555
Fe4 O1 1.955844 1_555
Fe5 O1 2.008423 1_555
Fe6 O3 1.848825 1_555
Fe7 O2 1.833669 1_555
Fe8 O0 2.024223 1_555
Fe9 O0 1.997831 1_555
F0 Fe5 2.066180 1_555
F0 Fe3 2.100101 1_556
F0 Fe9 2.100557 1_546
F1 Fe6 2.068968 1_445
F1 Fe7 2.087953 1_555
F1 Fe2 2.268819 1_555
F2 Fe7 2.030723 1_555
F2 Fe8 2.110715 1_555
F2 Fe4 2.203291 1_555
F3 Fe6 1.994305 1_455
F3 Fe5 2.167762 1_555
F3 Fe0 2.203771 1_555
F4 Fe2 1.997340 1_565
F4 Fe9 2.068840 1_556
F4 Fe0 2.172439 1_555
F5 Fe0 2.060855 1_554
F5 Fe3 2.093348 1_555
F5 Fe8 2.125512 1_555
F6 Fe1 2.078607 1_555
F6 Fe6 2.087466 1_455
F6 Fe4 2.209508 1_555
F7 Fe7 2.047345 1_655
F7 Fe2 2.097616 1_555
F7 Fe4 2.254452 1_555
F8 Fe4 2.067565 1_555
F8 Fe1 2.105547 1_555
F8 Fe8 2.196939 1_655
F9 Fe1 2.024806 1_545
F9 Fe9 2.073651 1_645
F9 Fe3 2.133614 1_555
F10 Fe5 2.099530 1_655
F10 Fe3 2.115305 1_556
F10 Fe0 2.135805 1_555
F11 Fe6 1.994931 1_555
F11 Fe4 2.180290 1_555
F11 Fe5 2.196088 1_655
F12 Fe6 2.058643 1_555
F12 Fe7 2.082387 1_665
F12 Fe1 2.386478 1_555
F13 Fe2 2.022068 1_555
F13 Fe5 2.128359 1_655
F13 Fe9 2.194341 1_646
F14 Fe8 2.039480 1_655
F14 Fe0 2.115906 1_554
F14 Fe9 2.164018 1_655
F15 Fe7 1.990546 1_655
F15 Fe3 2.180790 1_555
F15 Fe8 2.200976 1_655
