# generated using pymatgen
data_LiMn3OF5
_symmetry_space_group_name_H-M   'P 1'
_cell_length_a   8.73846957
_cell_length_b   8.73846957
_cell_length_c   10.14066707
_cell_angle_alpha   55.38958332
_cell_angle_beta   55.38958332
_cell_angle_gamma   71.23459993
_symmetry_Int_Tables_number   1
_chemical_formula_structural   LiMn3OF5
_chemical_formula_sum   'Li4 Mn12 O4 F20'
_cell_volume   524.53141120
_cell_formula_units_Z   4
loop_
 _symmetry_equiv_pos_site_id
 _symmetry_equiv_pos_as_xyz
  1  'x, y, z'
loop_
 _atom_site_type_symbol
 _atom_site_label
 _atom_site_symmetry_multiplicity
 _atom_site_fract_x
 _atom_site_fract_y
 _atom_site_fract_z
 _atom_site_occupancy
  Li  Li0  1  0.49253000  0.02406900  0.47057900  1
  Li  Li1  1  0.02017500  0.52309000  0.45616200  1
  Li  Li2  1  0.02406900  0.49253000  0.97057900  1
  Li  Li3  1  0.52309000  0.02017500  0.95616200  1
  Mn  Mn0  1  0.24477300  0.25718400  0.72277400  1
  Mn  Mn1  1  0.95151500  0.04430200  0.74966400  1
  Mn  Mn2  1  0.52754900  0.45231200  0.25139100  1
  Mn  Mn3  1  0.77821200  0.26914300  0.47972300  1
  Mn  Mn4  1  0.26914400  0.77821200  0.97972300  1
  Mn  Mn5  1  0.25718400  0.24477300  0.22277400  1
  Mn  Mn6  1  0.74682200  0.76809500  0.78335900  1
  Mn  Mn7  1  0.21678800  0.70079200  0.54654000  1
  Mn  Mn8  1  0.70079200  0.21678800  0.04654000  1
  Mn  Mn9  1  0.04430200  0.95151500  0.24966400  1
  Mn  Mn10  1  0.45231200  0.52754900  0.75139100  1
  Mn  Mn11  1  0.76809500  0.74682200  0.28335900  1
  O  O0  1  0.03628600  0.73852700  0.22186500  1
  O  O1  1  0.73852700  0.03628600  0.72186500  1
  O  O2  1  0.24178900  0.46183200  0.75979300  1
  O  O3  1  0.46183200  0.24178900  0.25979300  1
  F  F0  1  0.28427000  0.04708400  0.95854800  1
  F  F1  1  0.26279000  0.50782000  0.44794800  1
  F  F2  1  0.52241500  0.22222600  0.51844700  1
  F  F3  1  0.78510800  0.47910100  0.97783200  1
  F  F4  1  0.99749300  0.21528900  0.24523700  1
  F  F5  1  0.21528900  0.99749300  0.74523700  1
  F  F6  1  0.48802800  0.72282600  0.05201700  1
  F  F7  1  0.04708400  0.28427000  0.45854800  1
  F  F8  1  0.74463700  0.52926000  0.25071400  1
  F  F9  1  0.52926000  0.74463700  0.75071400  1
  F  F10  1  0.95083500  0.73415000  0.54707100  1
  F  F11  1  0.77373700  0.02041200  0.26806900  1
  F  F12  1  0.02041200  0.77373700  0.76806900  1
  F  F13  1  0.50782000  0.26279000  0.94794800  1
  F  F14  1  0.22222600  0.52241500  0.01844700  1
  F  F15  1  0.47910100  0.78510800  0.47783200  1
  F  F16  1  0.26410100  0.95263400  0.29226600  1
  F  F17  1  0.95263400  0.26410100  0.79226600  1
  F  F18  1  0.72282600  0.48802800  0.55201700  1
  F  F19  1  0.73415000  0.95083500  0.04707100  1
loop_
_geom_bond_atom_site_label_1
_geom_bond_atom_site_label_2
_geom_bond_distance
_geom_bond_site_symmetry_2
Li0 O3 1.990945 1_555
Li1 O0 1.979492 1_555
Li2 O2 1.990945 1_555
Li3 O1 1.979492 1_555
Mn0 O2 2.015230 1_555
Mn1 O1 2.061730 1_555
Mn2 O3 2.041425 1_555
Mn3 O1 2.025068 1_555
Mn4 O0 2.025071 1_556
Mn5 O3 2.015230 1_555
Mn6 O1 2.041657 1_565
Mn7 O2 2.048913 1_555
Mn8 O3 2.048913 1_555
Mn9 O0 2.061730 1_555
Mn10 O2 2.041425 1_555
Mn11 O0 2.041657 1_655
F0 Li3 2.011093 1_555
F0 Mn0 2.179332 1_555
F0 Mn9 2.259075 1_546
F0 Mn4 2.275592 1_545
F1 Li1 2.037033 1_555
F1 Mn2 2.167620 1_555
F1 Mn7 2.242145 1_555
F1 Mn0 2.319074 1_555
F2 Li0 2.166105 1_555
F2 Mn3 2.174475 1_555
F2 Mn0 2.191886 1_555
F2 Mn2 2.261214 1_555
F3 Li2 2.086372 1_655
F3 Mn6 2.219674 1_555
F3 Mn8 2.229739 1_556
F3 Mn2 2.307490 1_556
F4 Mn9 2.186086 1_645
F4 Mn5 2.233894 1_655
F4 Mn3 2.249973 1_555
F4 Li2 2.375422 1_654
F5 Mn1 2.186086 1_465
F5 Mn0 2.233894 1_565
F5 Mn4 2.249978 1_555
F5 Li0 2.375422 1_565
F6 Mn2 2.152573 1_555
F6 Mn4 2.241517 1_554
F6 Mn6 2.246178 1_554
F6 Li3 2.257210 1_564
F7 Li1 2.011093 1_555
F7 Mn5 2.179332 1_555
F7 Mn1 2.259075 1_455
F7 Mn3 2.275595 1_455
F8 Mn11 2.192895 1_555
F8 Mn2 2.202612 1_555
F8 Mn3 2.234786 1_555
F9 Mn6 2.192895 1_555
F9 Mn10 2.202612 1_555
F9 Mn4 2.234783 1_555
F10 Mn6 2.149925 1_555
F10 Mn7 2.244501 1_655
F10 Mn9 2.250115 1_655
F10 Li1 2.279586 1_655
F11 Li0 2.132635 1_555
F11 Mn9 2.167456 1_645
F11 Mn8 2.222908 1_555
F11 Mn11 2.321260 1_545
F12 Li2 2.132635 1_555
F12 Mn1 2.167456 1_465
F12 Mn7 2.222908 1_555
F12 Mn6 2.321260 1_455
F13 Li3 2.037033 1_555
F13 Mn10 2.167620 1_555
F13 Mn8 2.242145 1_556
F13 Mn5 2.319074 1_556
F14 Li2 2.166105 1_554
F14 Mn4 2.174478 1_554
F14 Mn5 2.191886 1_555
F14 Mn10 2.261214 1_554
F15 Li0 2.086372 1_565
F15 Mn11 2.219674 1_555
F15 Mn7 2.229739 1_555
F15 Mn10 2.307490 1_555
F16 Mn7 2.142643 1_555
F16 Mn9 2.198940 1_555
F16 Mn5 2.218732 1_565
F17 Mn8 2.142643 1_556
F17 Mn1 2.198940 1_555
F17 Mn0 2.218732 1_655
F18 Mn10 2.152573 1_555
F18 Mn3 2.241525 1_555
F18 Mn11 2.246178 1_555
F18 Li1 2.257210 1_655
F19 Mn11 2.149925 1_555
F19 Mn8 2.244501 1_565
F19 Mn1 2.250115 1_564
F19 Li3 2.279586 1_564
