# generated using pymatgen
data_LiFeH12(SO7)2
_symmetry_space_group_name_H-M   'P 1'
_cell_length_a   11.89535800
_cell_length_b   6.02515700
_cell_length_c   8.99011282
_cell_angle_alpha   74.32077665
_cell_angle_beta   90.00000000
_cell_angle_gamma   90.00000000
_symmetry_Int_Tables_number   1
_chemical_formula_structural   LiFeH12(SO7)2
_chemical_formula_sum   'Li2 Fe2 H24 S4 O28'
_cell_volume   620.35817731
_cell_formula_units_Z   2
loop_
 _symmetry_equiv_pos_site_id
 _symmetry_equiv_pos_as_xyz
  1  'x, y, z'
loop_
 _atom_site_type_symbol
 _atom_site_label
 _atom_site_symmetry_multiplicity
 _atom_site_fract_x
 _atom_site_fract_y
 _atom_site_fract_z
 _atom_site_occupancy
  Li  Li0  1  0.10543900  0.64810800  0.35160000  1
  Li  Li1  1  0.60543900  0.35189200  0.64840000  1
  Fe  Fe0  1  0.00034500  0.99669200  0.75303800  1
  Fe  Fe1  1  0.50034500  0.00330800  0.24696200  1
  H  H0  1  0.06649900  0.33197400  0.86155600  1
  H  H1  1  0.85617200  0.65160900  0.78443000  1
  H  H2  1  0.40180900  0.06328800  0.96708300  1
  H  H3  1  0.63544600  0.09304900  0.00046100  1
  H  H4  1  0.30949800  0.99482300  0.10528400  1
  H  H5  1  0.10217800  0.66303900  0.96393200  1
  H  H6  1  0.60217800  0.33696100  0.03606800  1
  H  H7  1  0.80949800  0.00517700  0.89471600  1
  H  H8  1  0.13544600  0.90695100  0.99953900  1
  H  H9  1  0.90180900  0.93671200  0.03291700  1
  H  H10  1  0.35617200  0.34839100  0.21557000  1
  H  H11  1  0.56649900  0.66802600  0.13844400  1
  H  H12  1  0.44385600  0.34148800  0.35650700  1
  H  H13  1  0.64789700  0.65784100  0.28728600  1
  H  H14  1  0.09232900  0.06964900  0.47171300  1
  H  H15  1  0.86819200  0.09032000  0.50730900  1
  H  H16  1  0.19090700  0.99045800  0.60011000  1
  H  H17  1  0.40872200  0.66754700  0.46162700  1
  H  H18  1  0.90872200  0.33245300  0.53837300  1
  H  H19  1  0.69090700  0.00954200  0.39989000  1
  H  H20  1  0.36819200  0.90968000  0.49269100  1
  H  H21  1  0.59232900  0.93035100  0.52828700  1
  H  H22  1  0.14789700  0.34215900  0.71271400  1
  H  H23  1  0.94385600  0.65851200  0.64349300  1
  S  S0  1  0.63576800  0.73663600  0.83065400  1
  S  S1  1  0.13576800  0.26336400  0.16934600  1
  S  S2  1  0.86356300  0.73106300  0.35626100  1
  S  S3  1  0.36356300  0.26893700  0.64373900  1
  O  O0  1  0.07117900  0.29535800  0.75839400  1
  O  O1  1  0.42023200  0.21937500  0.79471300  1
  O  O2  1  0.89051800  0.02181900  0.92046500  1
  O  O3  1  0.73068000  0.58504300  0.81003100  1
  O  O4  1  0.67682400  0.96866900  0.84397600  1
  O  O5  1  0.11364400  0.83377100  0.91719200  1
  O  O6  1  0.07510400  0.38485000  0.02452500  1
  O  O7  1  0.57510400  0.61515000  0.97547500  1
  O  O8  1  0.61364400  0.16622900  0.08280800  1
  O  O9  1  0.17682400  0.03133100  0.15602400  1
  O  O10  1  0.23068000  0.41495700  0.18996900  1
  O  O11  1  0.39051800  0.97818100  0.07953500  1
  O  O12  1  0.43541000  0.30323800  0.25467500  1
  O  O13  1  0.05968600  0.22905600  0.30400200  1
  O  O14  1  0.92023200  0.78062500  0.20528700  1
  O  O15  1  0.57117900  0.70464200  0.24160600  1
  O  O16  1  0.60899900  0.03215800  0.42044800  1
  O  O17  1  0.76641400  0.57090200  0.37128700  1
  O  O18  1  0.82482700  0.94572400  0.39328100  1
  O  O19  1  0.38854500  0.83150000  0.41015800  1
  O  O20  1  0.45356100  0.38670300  0.52714100  1
  O  O21  1  0.95356100  0.61329700  0.47285900  1
  O  O22  1  0.88854500  0.16850000  0.58984200  1
  O  O23  1  0.32482700  0.05427600  0.60671900  1
  O  O24  1  0.26641400  0.42909800  0.62871300  1
  O  O25  1  0.10899900  0.96784200  0.57955200  1
  O  O26  1  0.55968600  0.77094400  0.69599800  1
  O  O27  1  0.93541000  0.69676200  0.74532500  1
loop_
_geom_bond_atom_site_label_1
_geom_bond_atom_site_label_2
_geom_bond_distance
_geom_bond_site_symmetry_2
Li0 O21 2.091113 1_455
Li0 O14 2.579478 1_455
Li1 O20 2.091113 1_555
Li1 O1 2.579478 1_555
Fe0 O27 1.983653 1_455
Fe0 O0 1.999338 1_565
Fe0 O2 2.029394 1_465
Fe0 O22 2.042512 1_465
Fe0 O5 2.043245 1_555
Fe0 O25 2.068764 1_555
Fe1 O12 1.983653 1_555
Fe1 O15 1.999338 1_545
Fe1 O11 2.029394 1_545
Fe1 O19 2.042512 1_545
Fe1 O8 2.043245 1_555
Fe1 O16 2.068764 1_555
H0 O0 1.011189 1_555
H0 O6 1.584553 1_556
H1 O27 1.017025 1_555
H1 O3 1.546708 1_555
H2 O11 1.011346 1_546
H2 O1 1.595654 1_555
H3 O8 0.993054 1_555
H4 O11 1.002508 1_555
H4 O9 1.673747 1_565
H5 O5 1.009818 1_555
H5 O6 1.648142 1_556
H6 O8 1.009818 1_555
H6 O7 1.648142 1_554
H7 O2 1.002508 1_555
H7 O4 1.673747 1_545
H8 O5 0.993054 1_555
H9 O2 1.011346 1_564
H9 O14 1.595654 1_555
H10 O12 1.017025 1_555
H10 O10 1.546708 1_555
H11 O15 1.011189 1_555
H11 O7 1.584553 1_554
H12 O12 1.007646 1_555
H12 O20 1.632985 1_555
H13 O15 1.009153 1_555
H13 O17 1.618151 1_555
H14 O25 1.016886 1_545
H14 O13 1.601193 1_555
H15 O22 1.009924 1_555
H15 O18 1.599597 1_545
H16 O25 1.007793 1_555
H16 O23 1.643613 1_565
H17 O19 1.000242 1_555
H17 O20 1.719304 1_555
H18 O22 1.000242 1_555
H18 O21 1.719304 1_555
H19 O16 1.007793 1_555
H19 O18 1.643613 1_545
H20 O19 1.009924 1_555
H20 O23 1.599597 1_565
H21 O16 1.016886 1_565
H21 O26 1.601193 1_555
H22 O0 1.009153 1_555
H22 O24 1.618151 1_555
H23 O27 1.007646 1_555
H23 O21 1.632985 1_555
O1 S3 1.471972 1_555
O3 S0 1.494932 1_555
O4 S0 1.515869 1_555
O6 S1 1.495498 1_555
O7 S0 1.495498 1_555
O9 S1 1.515869 1_555
O10 S1 1.494932 1_555
O13 S1 1.480549 1_555
O14 S2 1.471972 1_555
O17 S2 1.488109 1_555
O18 S2 1.492829 1_555
O20 S3 1.531776 1_555
O21 S2 1.531776 1_555
O23 S3 1.492829 1_555
O24 S3 1.488109 1_555
O26 S0 1.480549 1_555
