# generated using pymatgen
data_Li4Ni3WO8
_symmetry_space_group_name_H-M   'P 1'
_cell_length_a   10.31850741
_cell_length_b   10.31848077
_cell_length_c   14.57382532
_cell_angle_alpha   19.67856877
_cell_angle_beta   19.67850412
_cell_angle_gamma   33.91128105
_symmetry_Int_Tables_number   1
_chemical_formula_structural   Li4Ni3WO8
_chemical_formula_sum   'Li4 Ni3 W1 O8'
_cell_volume   152.37791593
_cell_formula_units_Z   1
loop_
 _symmetry_equiv_pos_site_id
 _symmetry_equiv_pos_as_xyz
  1  'x, y, z'
loop_
 _atom_site_type_symbol
 _atom_site_label
 _atom_site_symmetry_multiplicity
 _atom_site_fract_x
 _atom_site_fract_y
 _atom_site_fract_z
 _atom_site_occupancy
  Li  Li0  1  0.00000100  0.00000000  0.49999900  1
  Li  Li1  1  0.99999700  0.49999900  0.50000200  1
  Li  Li2  1  0.50000200  0.00000400  0.49999600  1
  Li  Li3  1  0.49999600  0.50000200  0.50000100  1
  Ni  Ni0  1  0.99999800  0.49999600  0.00000500  1
  Ni  Ni1  1  0.50000200  0.00000200  0.99999700  1
  Ni  Ni2  1  0.50000300  0.49999800  0.99999900  1
  W  W0  1  0.00000400  0.99999900  0.99999800  1
  O  O0  1  0.99999000  0.99999300  0.26027900  1
  O  O1  1  0.99998000  0.53814700  0.22957900  1
  O  O2  1  0.53815100  0.99997800  0.22957900  1
  O  O3  1  0.00000300  0.00001300  0.73972300  1
  O  O4  1  0.46183700  0.46183000  0.30588600  1
  O  O5  1  0.00001900  0.46185200  0.77042100  1
  O  O6  1  0.46184900  0.00001900  0.77042300  1
  O  O7  1  0.53816900  0.53816800  0.69411200  1
loop_
_geom_bond_atom_site_label_1
_geom_bond_atom_site_label_2
_geom_bond_distance
_geom_bond_site_symmetry_2
Li0 O7 2.270175 1_554
Li0 O4 2.270183 1_446
Li0 O1 2.270186 1_455
Li0 O5 2.270190 1_545
Li0 O6 2.270211 1_455
Li0 O2 2.270215 1_545
Li1 O7 2.112492 1_555
Li1 O6 2.112534 1_664
Li1 O2 2.112540 1_546
Li1 O4 2.112543 1_655
Li1 O3 2.208827 1_655
Li1 O0 2.208874 1_555
Li2 O4 2.112484 1_555
Li2 O7 2.112509 1_545
Li2 O5 2.112530 1_654
Li2 O1 2.112537 1_446
Li2 O0 2.208866 1_545
Li2 O3 2.208881 1_555
Li3 O2 2.112458 1_555
Li3 O5 2.112468 1_555
Li3 O6 2.112481 1_555
Li3 O1 2.112488 1_555
Li3 O3 2.208859 1_664
Li3 O0 2.208873 1_446
Ni0 O0 2.037700 1_545
Ni0 O3 2.037741 1_664
Ni0 O6 2.137569 1_555
Ni0 O2 2.137597 1_654
Ni0 O4 2.137671 1_555
Ni0 O7 2.137683 1_654
Ni1 O3 2.037702 1_655
Ni1 O0 2.037722 1_446
Ni1 O1 2.137580 1_555
Ni1 O5 2.137589 1_546
Ni1 O7 2.137678 1_555
Ni1 O4 2.137688 1_546
Ni2 O0 2.037632 1_555
Ni2 O3 2.037652 1_556
Ni2 O5 2.137698 1_655
Ni2 O2 2.137700 1_546
Ni2 O6 2.137718 1_565
Ni2 O1 2.137728 1_456
O1 W0 1.969405 1_654
O2 W0 1.969407 1_654
O4 W0 1.969352 1_545
O5 W0 1.969409 1_545
O6 W0 1.969386 1_545
O7 W0 1.969361 1_654
