# generated using pymatgen
data_Li4VO3F2
_symmetry_space_group_name_H-M   'P 1'
_cell_length_a   5.30776670
_cell_length_b   5.30776670
_cell_length_c   7.78804555
_cell_angle_alpha   81.42782334
_cell_angle_beta   81.42782334
_cell_angle_gamma   66.36886522
_symmetry_Int_Tables_number   1
_chemical_formula_structural   Li4VO3F2
_chemical_formula_sum   'Li8 V2 O6 F4'
_cell_volume   197.79569986
_cell_formula_units_Z   2
loop_
 _symmetry_equiv_pos_site_id
 _symmetry_equiv_pos_as_xyz
  1  'x, y, z'
loop_
 _atom_site_type_symbol
 _atom_site_label
 _atom_site_symmetry_multiplicity
 _atom_site_fract_x
 _atom_site_fract_y
 _atom_site_fract_z
 _atom_site_occupancy
  Li  Li0  1  0.62830221  0.97124447  0.63688418  1
  Li  Li1  1  0.97124447  0.62830221  0.13688418  1
  Li  Li2  1  0.74415514  0.43210682  0.55561175  1
  Li  Li3  1  0.43210682  0.74415514  0.05561175  1
  Li  Li4  1  0.56789318  0.25584486  0.94438825  1
  Li  Li5  1  0.25584486  0.56789318  0.44438825  1
  Li  Li6  1  0.02875553  0.37169779  0.86311582  1
  Li  Li7  1  0.37169779  0.02875553  0.36311582  1
  V  V0  1  0.15829119  0.84170881  0.75000000  1
  V  V1  1  0.84170881  0.15829119  0.25000000  1
  O  O0  1  0.42027057  0.76664888  0.56906387  1
  O  O1  1  0.76664888  0.42027057  0.06906387  1
  O  O2  1  0.85983702  0.14016298  0.75000000  1
  O  O3  1  0.14016298  0.85983702  0.25000000  1
  O  O4  1  0.23335112  0.57972943  0.93093613  1
  O  O5  1  0.57972943  0.23335112  0.43093613  1
  F  F0  1  0.97140935  0.63694309  0.64912195  1
  F  F1  1  0.63694309  0.97140935  0.14912195  1
  F  F2  1  0.36305691  0.02859065  0.85087805  1
  F  F3  1  0.02859065  0.36305691  0.35087805  1
loop_
_geom_bond_atom_site_label_1
_geom_bond_atom_site_label_2
_geom_bond_distance
_geom_bond_site_symmetry_2
Li0 O5 1.935210 1_565
Li0 O0 1.995904 1_555
Li0 O2 2.128790 1_565
Li1 O4 1.935210 1_654
Li1 O1 1.995904 1_555
Li1 O3 2.128790 1_655
Li2 O0 1.916728 1_555
Li2 O2 1.971061 1_555
Li2 O5 2.028171 1_555
Li3 O1 1.916728 1_555
Li3 O3 1.971061 1_555
Li3 O4 2.028171 1_554
Li4 O4 1.916728 1_555
Li4 O2 1.971061 1_555
Li4 O1 2.028171 1_556
Li5 O5 1.916728 1_555
Li5 O3 1.971061 1_555
Li5 O0 2.028171 1_555
Li6 O1 1.935210 1_456
Li6 O4 1.995904 1_555
Li6 O2 2.128790 1_455
Li7 O0 1.935210 1_545
Li7 O5 1.995904 1_555
Li7 O3 2.128790 1_545
O0 V0 1.793616 1_555
O1 V1 1.793616 1_555
O2 V0 1.734097 1_645
O3 V1 1.734097 1_465
O4 V0 1.793616 1_555
O5 V1 1.793616 1_555
F0 Li0 1.970992 1_555
F0 Li6 1.990092 1_655
F0 Li5 1.992217 1_655
F0 V0 2.033111 1_655
F0 Li2 2.171782 1_555
F1 Li1 1.970992 1_555
F1 Li7 1.990092 1_565
F1 Li4 1.992217 1_564
F1 V1 2.033111 1_565
F1 Li3 2.171782 1_555
F2 Li6 1.970992 1_555
F2 Li0 1.990092 1_545
F2 Li3 1.992217 1_546
F2 V0 2.033111 1_545
F2 Li4 2.171782 1_555
F3 Li7 1.970992 1_555
F3 Li1 1.990092 1_455
F3 Li2 1.992217 1_455
F3 V1 2.033111 1_455
F3 Li5 2.171782 1_555
