# generated using pymatgen
data_MgP2H12O11
_symmetry_space_group_name_H-M   'P 1'
_cell_length_a   7.79348000
_cell_length_b   7.89613132
_cell_length_c   9.29768147
_cell_angle_alpha   112.51171329
_cell_angle_beta   84.89263670
_cell_angle_gamma   107.06341857
_symmetry_Int_Tables_number   1
_chemical_formula_structural   MgP2H12O11
_chemical_formula_sum   'Mg2 P4 H24 O22'
_cell_volume   505.12231475
_cell_formula_units_Z   2
loop_
 _symmetry_equiv_pos_site_id
 _symmetry_equiv_pos_as_xyz
  1  'x, y, z'
loop_
 _atom_site_type_symbol
 _atom_site_label
 _atom_site_symmetry_multiplicity
 _atom_site_fract_x
 _atom_site_fract_y
 _atom_site_fract_z
 _atom_site_occupancy
  Mg  Mg0  1  0.35792500  0.23194400  0.71112200  1
  Mg  Mg1  1  0.64207500  0.76805600  0.28887800  1
  P  P0  1  0.41571400  0.09773700  0.31999800  1
  P  P1  1  0.58428600  0.90226300  0.68000200  1
  P  P2  1  0.26984300  0.43532600  0.08599500  1
  P  P3  1  0.73015700  0.56467400  0.91400500  1
  H  H0  1  0.18623700  0.01347100  0.16803900  1
  H  H1  1  0.81376300  0.98652900  0.83196100  1
  H  H2  1  0.49065000  0.32098200  0.21463200  1
  H  H3  1  0.50935000  0.67901800  0.78536800  1
  H  H4  1  0.32268600  0.73675900  0.13845200  1
  H  H5  1  0.67731400  0.26324100  0.86154800  1
  H  H6  1  0.00004200  0.26739100  0.12763600  1
  H  H7  1  0.99995800  0.73260900  0.87236400  1
  H  H8  1  0.18488500  0.44002500  0.61660800  1
  H  H9  1  0.81511500  0.55997500  0.38339200  1
  H  H10  1  0.09588400  0.41409600  0.76795700  1
  H  H11  1  0.90411600  0.58590400  0.23204300  1
  H  H12  1  0.03120400  0.96147900  0.62761400  1
  H  H13  1  0.96879600  0.03852100  0.37238600  1
  H  H14  1  0.16437600  0.83383200  0.58135500  1
  H  H15  1  0.83562400  0.16616800  0.41864500  1
  H  H16  1  0.14095200  0.50005100  0.40763900  1
  H  H17  1  0.85904800  0.49994900  0.59236100  1
  H  H18  1  0.32454500  0.63163700  0.49394000  1
  H  H19  1  0.67545500  0.36836300  0.50606000  1
  H  H20  1  0.24253700  0.89572300  0.92656600  1
  H  H21  1  0.75746300  0.10427700  0.07343400  1
  H  H22  1  0.20462100  0.97765800  0.93662000  1
  H  H23  1  0.79537900  0.02234200  0.06338000  1
  O  O0  1  0.44974300  0.22222400  0.49039600  1
  O  O1  1  0.55025700  0.77777600  0.50960400  1
  O  O2  1  0.45803400  0.90680200  0.26664600  1
  O  O3  1  0.54196600  0.09319800  0.73335400  1
  O  O4  1  0.20551500  0.05739500  0.28061000  1
  O  O5  1  0.79448500  0.94260500  0.71939000  1
  O  O6  1  0.52145800  0.20391100  0.21150100  1
  O  O7  1  0.47854200  0.79608900  0.78849900  1
  O  O8  1  0.25498100  0.27169400  0.93179600  1
  O  O9  1  0.74501900  0.72830600  0.06820400  1
  O  O10  1  0.43426100  0.49942700  0.19174400  1
  O  O11  1  0.56573900  0.50057300  0.80825600  1
  O  O12  1  0.24060300  0.61377700  0.06318300  1
  O  O13  1  0.75939700  0.38622300  0.93681700  1
  O  O14  1  0.09999300  0.37225300  0.18871400  1
  O  O15  1  0.90000700  0.62774700  0.81128600  1
  O  O16  1  0.17007100  0.36182800  0.68199000  1
  O  O17  1  0.82992900  0.63817200  0.31801000  1
  O  O18  1  0.15872800  0.96687500  0.61576000  1
  O  O19  1  0.84127200  0.03312500  0.38424000  1
  O  O20  1  0.19497800  0.58205500  0.51186600  1
  O  O21  1  0.80502200  0.41794500  0.48813400  1
loop_
_geom_bond_atom_site_label_1
_geom_bond_atom_site_label_2
_geom_bond_distance
_geom_bond_site_symmetry_2
Mg0 O8 2.076888 1_555
Mg0 O0 2.092795 1_555
Mg0 O16 2.105485 1_555
Mg0 O3 2.109175 1_555
Mg0 O18 2.119927 1_545
Mg0 O11 2.171488 1_555
Mg1 O9 2.076888 1_555
Mg1 O1 2.092795 1_555
Mg1 O17 2.105485 1_555
Mg1 O2 2.109175 1_555
Mg1 O19 2.119927 1_565
Mg1 O10 2.171488 1_555
H0 O4 0.978664 1_555
H1 O5 0.978664 1_555
H2 O6 1.010658 1_555
H2 O10 1.683277 1_555
H3 O7 1.010658 1_555
H3 O11 1.683277 1_555
H4 O12 1.018205 1_555
H4 O2 1.582189 1_555
H5 O13 1.018205 1_555
H5 O3 1.582189 1_555
H6 O14 0.977268 1_555
H7 O15 0.977268 1_555
H8 O16 0.998606 1_555
H9 O17 0.998606 1_555
H10 O16 0.973983 1_555
H11 O17 0.973983 1_555
H12 O18 0.980283 1_555
H13 O19 0.980283 1_555
H14 O18 0.987507 1_555
H15 O19 0.987507 1_555
H16 O20 0.983772 1_555
H17 O21 0.983772 1_555
H18 O20 0.994336 1_555
H19 O21 0.994336 1_555
H20 H22 0.758678 1_555
H21 H23 0.758678 1_555
O0 P0 1.508607 1_555
O1 P1 1.508607 1_555
O2 P0 1.522452 1_565
O3 P1 1.522452 1_545
O4 P0 1.621871 1_555
O5 P1 1.621871 1_555
O6 P0 1.579163 1_555
O7 P1 1.579163 1_555
O8 P2 1.503852 1_556
O9 P3 1.503852 1_554
O10 P2 1.525609 1_555
O11 P3 1.525609 1_555
O12 P2 1.583762 1_555
O13 P3 1.583762 1_555
O14 P2 1.632372 1_555
O15 P3 1.632372 1_555
