# generated using pymatgen
data_Li4Mn3OF11
_symmetry_space_group_name_H-M   'P 1'
_cell_length_a   5.78016900
_cell_length_b   6.11854659
_cell_length_c   6.16221685
_cell_angle_alpha   98.59381290
_cell_angle_beta   98.49451309
_cell_angle_gamma   97.57975606
_symmetry_Int_Tables_number   1
_chemical_formula_structural   Li4Mn3OF11
_chemical_formula_sum   'Li4 Mn3 O1 F11'
_cell_volume   210.46519209
_cell_formula_units_Z   1
loop_
 _symmetry_equiv_pos_site_id
 _symmetry_equiv_pos_as_xyz
  1  'x, y, z'
loop_
 _atom_site_type_symbol
 _atom_site_label
 _atom_site_symmetry_multiplicity
 _atom_site_fract_x
 _atom_site_fract_y
 _atom_site_fract_z
 _atom_site_occupancy
  Li  Li0  1  0.99026100  0.99696400  0.02199800  1
  Li  Li1  1  0.12204300  0.60223600  0.32637500  1
  Li  Li2  1  0.29323800  0.09400500  0.60725300  1
  Li  Li3  1  0.41832000  0.72792100  0.86296700  1
  Mn  Mn0  1  0.59575900  0.36316100  0.15117800  1
  Mn  Mn1  1  0.71294100  0.86537000  0.40569700  1
  Mn  Mn2  1  0.89677900  0.41805200  0.68287100  1
  O  O0  1  0.77577100  0.57160800  0.40649100  1
  F  F0  1  0.90337500  0.29707200  0.11177900  1
  F  F1  1  0.68810900  0.84511800  0.07689100  1
  F  F2  1  0.35229000  0.54267700  0.14711100  1
  F  F3  1  0.89942300  0.10224200  0.71233900  1
  F  F4  1  0.59356400  0.15192900  0.39692400  1
  F  F5  1  0.46024500  0.81729400  0.57985800  1
  F  F6  1  0.06476400  0.92515900  0.35210600  1
  F  F7  1  0.62510000  0.44933800  0.80433100  1
  F  F8  1  0.17099600  0.39121900  0.56233000  1
  F  F9  1  0.37484800  0.12890200  0.95262300  1
  F  F10  1  0.06217200  0.70973200  0.83887700  1
loop_
_geom_bond_atom_site_label_1
_geom_bond_atom_site_label_2
_geom_bond_distance
_geom_bond_site_symmetry_2
Li1 O0 2.122620 1_455
Mn0 O0 1.936784 1_555
Mn1 O0 1.880654 1_555
Mn2 O0 2.138273 1_555
F0 Mn0 1.916213 1_555
F0 Li0 1.987911 1_545
F0 Li1 2.231199 1_655
F1 Li3 1.870550 1_554
F1 Li0 1.966778 1_555
F1 Mn1 1.993914 1_555
F2 Li1 1.888453 1_555
F2 Mn0 1.895553 1_555
F2 Li3 2.274331 1_554
F3 Mn2 1.969472 1_555
F3 Li0 2.119519 1_546
F3 Mn1 2.236208 1_545
F3 Li2 2.461603 1_655
F4 Mn1 1.972225 1_545
F4 Mn0 2.133082 1_555
F4 Li2 2.336366 1_555
F4 Mn2 2.511022 1_555
F5 Li3 1.943285 1_555
F5 Mn1 1.953422 1_555
F5 Li2 2.054442 1_565
F5 Li1 2.407876 1_555
F6 Li2 1.955651 1_565
F6 Li1 2.032997 1_555
F6 Mn1 2.101582 1_455
F6 Li0 2.138840 1_455
F7 Mn2 1.856491 1_555
F7 Li3 2.223848 1_555
F7 Mn0 2.301160 1_556
F8 Mn2 1.863069 1_455
F8 Li2 2.077146 1_555
F8 Li1 2.096916 1_555
F9 Mn0 1.927029 1_556
F9 Li2 2.082922 1_555
F9 Li0 2.384648 1_446
F9 Li3 2.487208 1_545
F10 Mn2 1.946476 1_455
F10 Li3 2.028936 1_555
F10 Li0 2.067205 1_456
