# generated using pymatgen
data_Na11Bi5O16
_symmetry_space_group_name_H-M   'P 1'
_cell_length_a   9.60702600
_cell_length_b   9.60702600
_cell_length_c   9.60702600
_cell_angle_alpha   90.00000000
_cell_angle_beta   90.00000000
_cell_angle_gamma   90.00000000
_symmetry_Int_Tables_number   1
_chemical_formula_structural   Na11Bi5O16
_chemical_formula_sum   'Na22 Bi10 O32'
_cell_volume   886.67997053
_cell_formula_units_Z   2
loop_
 _symmetry_equiv_pos_site_id
 _symmetry_equiv_pos_as_xyz
  1  'x, y, z'
loop_
 _atom_site_type_symbol
 _atom_site_label
 _atom_site_symmetry_multiplicity
 _atom_site_fract_x
 _atom_site_fract_y
 _atom_site_fract_z
 _atom_site_occupancy
  Na  Na0  1  0.00000000  0.00000000  0.23947100  1
  Na  Na1  1  0.00000000  0.23947100  0.00000000  1
  Na  Na2  1  0.00000000  0.00000000  0.76052900  1
  Na  Na3  1  0.00000000  0.76052900  0.00000000  1
  Na  Na4  1  0.00000000  0.50000000  0.25000000  1
  Na  Na5  1  0.00000000  0.50000000  0.75000000  1
  Na  Na6  1  0.25000000  0.25000000  0.75000000  1
  Na  Na7  1  0.25000000  0.75000000  0.25000000  1
  Na  Na8  1  0.23947100  0.00000000  0.00000000  1
  Na  Na9  1  0.25000000  0.00000000  0.50000000  1
  Na  Na10  1  0.26052900  0.50000000  0.50000000  1
  Na  Na11  1  0.50000000  0.50000000  0.73947100  1
  Na  Na12  1  0.50000000  0.73947100  0.50000000  1
  Na  Na13  1  0.50000000  0.26052900  0.50000000  1
  Na  Na14  1  0.50000000  0.50000000  0.26052900  1
  Na  Na15  1  0.50000000  0.75000000  0.00000000  1
  Na  Na16  1  0.50000000  0.25000000  0.00000000  1
  Na  Na17  1  0.76052900  0.00000000  0.00000000  1
  Na  Na18  1  0.75000000  0.00000000  0.50000000  1
  Na  Na19  1  0.75000000  0.25000000  0.25000000  1
  Na  Na20  1  0.73947100  0.50000000  0.50000000  1
  Na  Na21  1  0.75000000  0.75000000  0.75000000  1
  Bi  Bi0  1  0.00000000  0.25000000  0.50000000  1
  Bi  Bi1  1  0.00000000  0.75000000  0.50000000  1
  Bi  Bi2  1  0.25000000  0.25000000  0.25000000  1
  Bi  Bi3  1  0.25000000  0.75000000  0.75000000  1
  Bi  Bi4  1  0.25000000  0.50000000  0.00000000  1
  Bi  Bi5  1  0.50000000  0.00000000  0.75000000  1
  Bi  Bi6  1  0.50000000  0.00000000  0.25000000  1
  Bi  Bi7  1  0.75000000  0.25000000  0.75000000  1
  Bi  Bi8  1  0.75000000  0.50000000  0.00000000  1
  Bi  Bi9  1  0.75000000  0.75000000  0.25000000  1
  O  O0  1  0.00000000  0.00000000  0.00000000  1
  O  O1  1  0.02190500  0.24822300  0.25959900  1
  O  O2  1  0.00000000  0.00000000  0.50000000  1
  O  O3  1  0.00000000  0.50000000  0.00000000  1
  O  O4  1  0.97809500  0.24822300  0.74040100  1
  O  O5  1  0.00000000  0.50000000  0.50000000  1
  O  O6  1  0.97809500  0.75177700  0.25959900  1
  O  O7  1  0.02190500  0.75177700  0.74040100  1
  O  O8  1  0.25959900  0.02190500  0.24822300  1
  O  O9  1  0.24822300  0.25959900  0.02190500  1
  O  O10  1  0.25959900  0.97809500  0.75177700  1
  O  O11  1  0.24040100  0.25177700  0.47809500  1
  O  O12  1  0.25177700  0.47809500  0.24040100  1
  O  O13  1  0.24822300  0.74040100  0.97809500  1
  O  O14  1  0.25177700  0.52190500  0.75959900  1
  O  O15  1  0.24040100  0.74822300  0.52190500  1
  O  O16  1  0.50000000  0.50000000  0.50000000  1
  O  O17  1  0.47809500  0.75959900  0.74822300  1
  O  O18  1  0.50000000  0.00000000  0.50000000  1
  O  O19  1  0.52190500  0.24040100  0.74822300  1
  O  O20  1  0.50000000  0.50000000  0.00000000  1
  O  O21  1  0.52190500  0.75959900  0.25177700  1
  O  O22  1  0.50000000  0.00000000  0.00000000  1
  O  O23  1  0.47809500  0.24040100  0.25177700  1
  O  O24  1  0.74040100  0.97809500  0.24822300  1
  O  O25  1  0.74040100  0.02190500  0.75177700  1
  O  O26  1  0.75177700  0.25959900  0.97809500  1
  O  O27  1  0.75959900  0.25177700  0.52190500  1
  O  O28  1  0.74822300  0.47809500  0.75959900  1
  O  O29  1  0.74822300  0.52190500  0.24040100  1
  O  O30  1  0.75177700  0.74040100  0.02190500  1
  O  O31  1  0.75959900  0.74822300  0.47809500  1
loop_
_geom_bond_atom_site_label_1
_geom_bond_atom_site_label_2
_geom_bond_distance
_geom_bond_site_symmetry_2
Na0 O0 2.300604 1_555
Na0 O1 2.401749 1_555
Na0 O6 2.401749 1_445
Na0 O2 2.502909 1_555
Na0 O8 2.504249 1_555
Na0 O24 2.504249 1_445
Na1 O0 2.300604 1_555
Na1 O9 2.401749 1_555
Na1 O26 2.401749 1_454
Na1 O3 2.502909 1_555
Na1 O1 2.504249 1_555
Na1 O4 2.504249 1_454
Na2 O0 2.300604 1_556
Na2 O4 2.401749 1_455
Na2 O7 2.401749 1_545
Na2 O2 2.502909 1_555
Na2 O10 2.504249 1_545
Na2 O25 2.504249 1_455
Na3 O0 2.300604 1_565
Na3 O13 2.401749 1_554
Na3 O30 2.401749 1_455
Na3 O3 2.502909 1_555
Na3 O6 2.504249 1_455
Na3 O7 2.504249 1_554
Na4 O5 2.401756 1_555
Na4 O3 2.401756 1_555
Na4 O6 2.429716 1_455
Na4 O1 2.429716 1_555
Na4 O12 2.429716 1_555
Na4 O29 2.429716 1_455
Na5 O5 2.401756 1_555
Na5 O3 2.401756 1_556
Na5 O7 2.429716 1_555
Na5 O14 2.429716 1_555
Na5 O28 2.429716 1_455
Na5 O4 2.429716 1_455
Na6 O9 2.613881 1_556
Na6 O14 2.613881 1_555
Na6 O19 2.613881 1_555
Na6 O11 2.613881 1_555
Na6 O10 2.613881 1_545
Na6 O4 2.613881 1_455
Na7 O8 2.613881 1_565
Na7 O21 2.613881 1_555
Na7 O15 2.613881 1_555
Na7 O12 2.613881 1_555
Na7 O6 2.613881 1_455
Na7 O13 2.613881 1_554
Na8 O0 2.300604 1_555
Na8 O8 2.401749 1_555
Na8 O10 2.401749 1_544
Na8 O22 2.502909 1_555
Na8 O9 2.504249 1_555
Na8 O13 2.504249 1_544
Na9 O2 2.401756 1_555
Na9 O18 2.401756 1_555
Na9 O10 2.429716 1_545
Na9 O8 2.429716 1_555
Na9 O11 2.429716 1_555
Na9 O15 2.429716 1_545
Na10 O16 2.300604 1_555
Na10 O15 2.401749 1_555
Na10 O11 2.401749 1_555
Na10 O5 2.502909 1_555
Na10 O14 2.504249 1_555
Na10 O12 2.504249 1_555
Na11 O16 2.300604 1_555
Na11 O28 2.401749 1_555
Na11 O14 2.401749 1_555
Na11 O20 2.502909 1_556
Na11 O17 2.504249 1_555
Na11 O19 2.504249 1_555
Na12 O16 2.300604 1_555
Na12 O17 2.401749 1_555
Na12 O21 2.401749 1_555
Na12 O18 2.502909 1_565
Na12 O31 2.504249 1_555
Na12 O15 2.504249 1_555
Na13 O16 2.300604 1_555
Na13 O19 2.401749 1_555
Na13 O23 2.401749 1_555
Na13 O18 2.502909 1_555
Na13 O27 2.504249 1_555
Na13 O11 2.504249 1_555
Na14 O16 2.300604 1_555
Na14 O29 2.401749 1_555
Na14 O12 2.401749 1_555
Na14 O20 2.502909 1_555
Na14 O21 2.504249 1_555
Na14 O23 2.504249 1_555
Na15 O22 2.401756 1_565
Na15 O20 2.401756 1_555
Na15 O30 2.429716 1_555
Na15 O21 2.429716 1_555
Na15 O17 2.429716 1_554
Na15 O13 2.429716 1_554
Na16 O22 2.401756 1_555
Na16 O20 2.401756 1_555
Na16 O26 2.429716 1_554
Na16 O9 2.429716 1_555
Na16 O23 2.429716 1_555
Na16 O19 2.429716 1_554
Na17 O0 2.300604 1_655
Na17 O24 2.401749 1_545
Na17 O25 2.401749 1_554
Na17 O22 2.502909 1_555
Na17 O26 2.504249 1_554
Na17 O30 2.504249 1_545
Na18 O2 2.401756 1_655
Na18 O18 2.401756 1_555
Na18 O25 2.429716 1_555
Na18 O27 2.429716 1_555
Na18 O31 2.429716 1_545
Na18 O24 2.429716 1_545
Na19 O1 2.613881 1_655
Na19 O27 2.613881 1_555
Na19 O29 2.613881 1_555
Na19 O23 2.613881 1_555
Na19 O26 2.613881 1_554
Na19 O24 2.613881 1_545
Na20 O16 2.300604 1_555
Na20 O31 2.401749 1_555
Na20 O27 2.401749 1_555
Na20 O5 2.502909 1_655
Na20 O28 2.504249 1_555
Na20 O29 2.504249 1_555
Na21 O7 2.613881 1_655
Na21 O25 2.613881 1_565
Na21 O30 2.613881 1_556
Na21 O31 2.613881 1_555
Na21 O28 2.613881 1_555
Na21 O17 2.613881 1_555
Bi0 O11 2.319169 1_555
Bi0 O4 2.319169 1_455
Bi0 O1 2.319169 1_555
Bi0 O27 2.319169 1_455
Bi0 O5 2.401756 1_555
Bi0 O2 2.401756 1_555
Bi1 O15 2.319169 1_555
Bi1 O7 2.319169 1_555
Bi1 O31 2.319169 1_455
Bi1 O6 2.319169 1_455
Bi1 O2 2.401756 1_565
Bi1 O5 2.401756 1_555
Bi2 O11 2.193321 1_555
Bi2 O23 2.193321 1_555
Bi2 O12 2.193321 1_555
Bi2 O8 2.193321 1_555
Bi2 O9 2.193321 1_555
Bi2 O1 2.193321 1_555
Bi3 O10 2.193321 1_555
Bi3 O13 2.193321 1_555
Bi3 O17 2.193321 1_555
Bi3 O14 2.193321 1_555
Bi3 O15 2.193321 1_555
Bi3 O7 2.193321 1_555
Bi4 O12 2.319169 1_555
Bi4 O13 2.319169 1_554
Bi4 O9 2.319169 1_555
Bi4 O14 2.319169 1_554
Bi4 O20 2.401756 1_555
Bi4 O3 2.401756 1_555
Bi5 O19 2.319169 1_555
Bi5 O25 2.319169 1_555
Bi5 O17 2.319169 1_545
Bi5 O10 2.319169 1_545
Bi5 O18 2.401756 1_555
Bi5 O22 2.401756 1_556
Bi6 O23 2.319169 1_555
Bi6 O24 2.319169 1_545
Bi6 O8 2.319169 1_555
Bi6 O21 2.319169 1_545
Bi6 O22 2.401756 1_555
Bi6 O18 2.401756 1_555
Bi7 O26 2.193321 1_555
Bi7 O4 2.193321 1_555
Bi7 O28 2.193321 1_555
Bi7 O27 2.193321 1_555
Bi7 O19 2.193321 1_555
Bi7 O25 2.193321 1_555
Bi8 O29 2.319169 1_555
Bi8 O30 2.319169 1_555
Bi8 O28 2.319169 1_554
Bi8 O26 2.319169 1_554
Bi8 O3 2.401756 1_655
Bi8 O20 2.401756 1_555
Bi9 O6 2.193321 1_555
Bi9 O24 2.193321 1_555
Bi9 O31 2.193321 1_555
Bi9 O21 2.193321 1_555
Bi9 O29 2.193321 1_555
Bi9 O30 2.193321 1_555
