# generated using pymatgen
data_Na3Li3Fe2P2(CO7)2
_symmetry_space_group_name_H-M   'P 1'
_cell_length_a   8.72233393
_cell_length_b   6.71274864
_cell_length_c   10.17081462
_cell_angle_alpha   89.41925811
_cell_angle_beta   87.60362226
_cell_angle_gamma   90.08348023
_symmetry_Int_Tables_number   1
_chemical_formula_structural   Na3Li3Fe2P2(CO7)2
_chemical_formula_sum   'Na6 Li6 Fe4 P4 C4 O28'
_cell_volume   594.95728576
_cell_formula_units_Z   2
loop_
 _symmetry_equiv_pos_site_id
 _symmetry_equiv_pos_as_xyz
  1  'x, y, z'
loop_
 _atom_site_type_symbol
 _atom_site_label
 _atom_site_symmetry_multiplicity
 _atom_site_fract_x
 _atom_site_fract_y
 _atom_site_fract_z
 _atom_site_occupancy
  Na  Na0  1  0.08640345  0.25720088  0.87879623  1
  Na  Na1  1  0.25939864  0.99761298  0.62900870  1
  Na  Na2  1  0.25732250  0.00061729  0.12317601  1
  Na  Na3  1  0.25559300  0.50129508  0.12815765  1
  Na  Na4  1  0.74573137  0.49985012  0.87622301  1
  Na  Na5  1  0.73972456  0.50212840  0.37235367  1
  Li  Li0  1  0.09284803  0.24017515  0.38160534  1
  Li  Li1  1  0.28953925  0.46409476  0.61147761  1
  Li  Li2  1  0.72014707  0.97290107  0.88288972  1
  Li  Li3  1  0.72314746  0.98320098  0.37517272  1
  Li  Li4  1  0.90045585  0.76033970  0.62135427  1
  Li  Li5  1  0.89743823  0.76689848  0.12439514  1
  Fe  Fe0  1  0.35831169  0.74424768  0.88250959  1
  Fe  Fe1  1  0.34754326  0.74927281  0.39155698  1
  Fe  Fe2  1  0.66115601  0.24234239  0.60868179  1
  Fe  Fe3  1  0.64717167  0.24235679  0.11160512  1
  P  P0  1  0.41963474  0.24657377  0.85158776  1
  P  P1  1  0.41005928  0.24376374  0.35760382  1
  P  P2  1  0.59487215  0.74667761  0.64179468  1
  P  P3  1  0.59138083  0.75312410  0.14209742  1
  C  C0  1  0.04357605  0.76028255  0.86510107  1
  C  C1  1  0.04084401  0.76248851  0.36338037  1
  C  C2  1  0.96154574  0.26286099  0.63049198  1
  C  C3  1  0.93824497  0.24508314  0.15187380  1
  O  O0  1  0.10609802  0.28359618  0.65121710  1
  O  O1  1  0.08167439  0.24916194  0.17987657  1
  O  O2  1  0.06920035  0.75376912  0.98956334  1
  O  O3  1  0.07298105  0.76172451  0.48674551  1
  O  O4  1  0.15864180  0.74496615  0.77879983  1
  O  O5  1  0.15330769  0.74662262  0.27432815  1
  O  O6  1  0.31611720  0.06296957  0.88641762  1
  O  O7  1  0.32970958  0.43090951  0.90383266  1
  O  O8  1  0.30369536  0.06333791  0.39524605  1
  O  O9  1  0.31769258  0.43026508  0.40617911  1
  O  O10  1  0.44244506  0.26662272  0.69822678  1
  O  O11  1  0.43229763  0.72807553  0.58570193  1
  O  O12  1  0.43404701  0.25362623  0.20448603  1
  O  O13  1  0.43504699  0.74962438  0.07588710  1
  O  O14  1  0.57975598  0.22730441  0.91150164  1
  O  O15  1  0.57561773  0.77128825  0.79447215  1
  O  O16  1  0.56883376  0.22962592  0.41895664  1
  O  O17  1  0.56324578  0.77954501  0.29401418  1
  O  O18  1  0.69700621  0.56191402  0.61069063  1
  O  O19  1  0.68898070  0.92666531  0.58289132  1
  O  O20  1  0.68806842  0.56216439  0.11602021  1
  O  O21  1  0.69506324  0.92649694  0.08596406  1
  O  O22  1  0.86174110  0.24497187  0.72996507  1
  O  O23  1  0.83269252  0.22584493  0.24592137  1
  O  O24  1  0.91222078  0.25645340  0.51188895  1
  O  O25  1  0.89437831  0.25941695  0.03171861  1
  O  O26  1  0.90581050  0.78023384  0.82198606  1
  O  O27  1  0.90153845  0.77741135  0.32460488  1
loop_
_geom_bond_atom_site_label_1
_geom_bond_atom_site_label_2
_geom_bond_distance
_geom_bond_site_symmetry_2
Na0 O25 2.237706 1_456
Na0 O0 2.318820 1_555
Na0 O6 2.395641 1_555
Na0 O7 2.443822 1_555
Na0 O22 2.527487 1_455
Na1 O0 2.348478 1_565
Na1 O11 2.389682 1_555
Na1 O4 2.408521 1_555
Na1 O8 2.428607 1_565
Na1 O10 2.533177 1_565
Na1 O6 2.724411 1_565
Na1 O3 2.735052 1_555
Na2 O1 2.327331 1_555
Na2 O13 2.331261 1_545
Na2 O5 2.432956 1_545
Na2 O12 2.464130 1_555
Na2 O6 2.472335 1_554
Na2 O2 2.740278 1_544
Na2 O8 2.848656 1_555
Na3 O1 2.313058 1_555
Na3 O13 2.327296 1_555
Na3 O5 2.379323 1_555
Na3 O7 2.397105 1_554
Na3 O12 2.423209 1_555
Na3 O2 2.766542 1_554
Na3 O9 2.935669 1_555
Na4 O14 2.346759 1_555
Na4 O26 2.388139 1_555
Na4 O22 2.468763 1_555
Na4 O15 2.508654 1_555
Na4 O20 2.508993 1_556
Na4 O25 2.629249 1_556
Na4 O18 2.778770 1_555
Na5 O27 2.357865 1_555
Na5 O16 2.389136 1_555
Na5 O23 2.390877 1_555
Na5 O18 2.474003 1_555
Na5 O17 2.559893 1_555
Na5 O24 2.671307 1_555
Na5 O20 2.690717 1_555
Li0 O24 2.019612 1_455
Li0 O1 2.058404 1_555
Li0 O8 2.198851 1_555
Li0 O9 2.361579 1_555
Li1 O0 2.030245 1_555
Li1 O10 2.096240 1_555
Li1 O9 2.106830 1_555
Li1 O11 2.171678 1_555
Li2 O15 2.084233 1_555
Li2 O21 2.088032 1_556
Li2 O14 2.118240 1_565
Li2 O26 2.148807 1_555
Li3 O27 2.132525 1_555
Li3 O17 2.146888 1_555
Li3 O19 2.151039 1_555
Li3 O16 2.172003 1_565
Li3 O23 2.267409 1_565
Li4 O3 1.991576 1_655
Li4 O26 2.048779 1_555
Li4 O19 2.204426 1_555
Li4 O18 2.224213 1_555
Li5 O2 1.990954 1_654
Li5 O27 2.040038 1_555
Li5 O21 2.114510 1_555
Li5 O20 2.288905 1_555
Fe0 O15 2.069079 1_555
Fe0 O4 2.073481 1_555
Fe0 O13 2.104534 1_556
Fe0 O7 2.125582 1_555
Fe0 O6 2.171931 1_565
Fe1 O17 2.098576 1_555
Fe1 O5 2.112217 1_555
Fe1 O11 2.140683 1_555
Fe1 O8 2.143621 1_565
Fe1 O9 2.159691 1_555
Fe1 O3 2.547117 1_555
Fe2 O10 2.086589 1_555
Fe2 O16 2.124243 1_555
Fe2 O19 2.150714 1_545
Fe2 O18 2.167848 1_555
Fe2 O22 2.182609 1_555
Fe2 O24 2.364507 1_555
Fe3 O12 2.051539 1_555
Fe3 O14 2.145263 1_554
Fe3 O23 2.163177 1_555
Fe3 O20 2.176930 1_555
Fe3 O21 2.177799 1_545
Fe3 O25 2.274523 1_555
C0 O2 1.294948 1_555
C0 O26 1.302884 1_455
C0 O4 1.310260 1_555
C1 O27 1.296761 1_455
C1 O3 1.297003 1_555
C1 O5 1.312217 1_555
C2 O0 1.294533 1_655
C2 O24 1.298645 1_555
C2 O22 1.311261 1_555
C3 O1 1.294921 1_655
C3 O25 1.298442 1_555
C3 O23 1.304904 1_555
O6 P0 1.555935 1_555
O7 P0 1.552429 1_555
O8 P1 1.559422 1_555
O9 P1 1.562914 1_555
O10 P0 1.568568 1_555
O11 P2 1.555783 1_555
O12 P1 1.563351 1_555
O13 P3 1.546107 1_555
O14 P0 1.552013 1_555
O15 P2 1.565352 1_555
O16 P1 1.545233 1_555
O17 P3 1.566218 1_555
O18 P2 1.555496 1_555
O19 P2 1.560062 1_555
O20 P3 1.554376 1_555
O21 P3 1.561583 1_555
