# generated using pymatgen
data_Mn2OF3
_symmetry_space_group_name_H-M   'P 1'
_cell_length_a   5.81309784
_cell_length_b   5.81309784
_cell_length_c   4.85173525
_cell_angle_alpha   86.97630579
_cell_angle_beta   86.97630579
_cell_angle_gamma   66.64752210
_symmetry_Int_Tables_number   1
_chemical_formula_structural   Mn2OF3
_chemical_formula_sum   'Mn4 O2 F6'
_cell_volume   150.21992303
_cell_formula_units_Z   2
loop_
 _symmetry_equiv_pos_site_id
 _symmetry_equiv_pos_as_xyz
  1  'x, y, z'
loop_
 _atom_site_type_symbol
 _atom_site_label
 _atom_site_symmetry_multiplicity
 _atom_site_fract_x
 _atom_site_fract_y
 _atom_site_fract_z
 _atom_site_occupancy
  Mn  Mn0  1  0.00000000  0.50000000  0.50000000  1
  Mn  Mn1  1  0.50000000  0.00000000  0.50000000  1
  Mn  Mn2  1  0.50000000  0.50000000  0.00000000  1
  Mn  Mn3  1  0.00000000  0.00000000  0.00000000  1
  O  O0  1  0.65691100  0.65691100  0.69179100  1
  O  O1  1  0.34308900  0.34308900  0.30820900  1
  F  F0  1  0.64936500  0.15341100  0.80206100  1
  F  F1  1  0.15341100  0.64936500  0.80206100  1
  F  F2  1  0.15080800  0.15080800  0.69305800  1
  F  F3  1  0.84919200  0.84919200  0.30694200  1
  F  F4  1  0.35063500  0.84658900  0.19793900  1
  F  F5  1  0.84658900  0.35063500  0.19793900  1
loop_
_geom_bond_atom_site_label_1
_geom_bond_atom_site_label_2
_geom_bond_distance
_geom_bond_site_symmetry_2
Mn0 O1 2.031525 1_555
Mn0 O0 2.031525 1_455
Mn1 O1 2.031525 1_555
Mn1 O0 2.031525 1_545
Mn2 O0 2.066847 1_554
Mn2 O1 2.066847 1_555
F0 Mn2 2.112988 1_556
F0 Mn3 2.132427 1_656
F0 Mn1 2.140777 1_555
F1 Mn2 2.112988 1_556
F1 Mn3 2.132427 1_566
F1 Mn0 2.140777 1_555
F2 Mn3 2.022030 1_556
F2 Mn0 2.059516 1_555
F2 Mn1 2.059516 1_555
F3 Mn3 2.022030 1_665
F3 Mn0 2.059516 1_655
F3 Mn1 2.059516 1_565
F4 Mn2 2.112988 1_555
F4 Mn3 2.132427 1_565
F4 Mn1 2.140777 1_565
F5 Mn2 2.112988 1_555
F5 Mn3 2.132427 1_655
F5 Mn0 2.140777 1_655
