# generated using pymatgen
data_Ba3La7Mn(Co3O10)3
_symmetry_space_group_name_H-M   'P 1'
_cell_length_a   5.55643700
_cell_length_b   6.76965300
_cell_length_c   16.08031673
_cell_angle_alpha   81.42002004
_cell_angle_beta   90.00000000
_cell_angle_gamma   90.00000000
_symmetry_Int_Tables_number   1
_chemical_formula_structural   Ba3La7Mn(Co3O10)3
_chemical_formula_sum   'Ba3 La7 Mn1 Co9 O30'
_cell_volume   598.09424484
_cell_formula_units_Z   1
loop_
 _symmetry_equiv_pos_site_id
 _symmetry_equiv_pos_as_xyz
  1  'x, y, z'
loop_
 _atom_site_type_symbol
 _atom_site_label
 _atom_site_symmetry_multiplicity
 _atom_site_fract_x
 _atom_site_fract_y
 _atom_site_fract_z
 _atom_site_occupancy
  Ba  Ba0  1  0.00000000  0.29656800  0.60110600  1
  Ba  Ba1  1  0.00000000  0.70343200  0.39889400  1
  Ba  Ba2  1  0.50000000  0.00000000  0.50000000  1
  La  La0  1  0.50000000  0.39579900  0.30249600  1
  La  La1  1  0.00000000  0.10504400  0.20046100  1
  La  La2  1  0.50000000  0.79820000  0.10203300  1
  La  La3  1  0.00000000  0.50000000  0.00000000  1
  La  La4  1  0.00000000  0.89495600  0.79953900  1
  La  La5  1  0.50000000  0.20180000  0.89796700  1
  La  La6  1  0.50000000  0.60420100  0.69750400  1
  Mn  Mn0  1  0.50000000  0.50000000  0.50000000  1
  Co  Co0  1  0.00000000  0.79592500  0.60133800  1
  Co  Co1  1  0.00000000  0.20407500  0.39866200  1
  Co  Co2  1  0.00000000  0.60258400  0.19683900  1
  Co  Co3  1  0.50000000  0.89813700  0.30093600  1
  Co  Co4  1  0.00000000  0.00000000  0.00000000  1
  Co  Co5  1  0.50000000  0.29814000  0.09921700  1
  Co  Co6  1  0.50000000  0.70186000  0.90078300  1
  Co  Co7  1  0.00000000  0.39741600  0.80316100  1
  Co  Co8  1  0.50000000  0.10186300  0.69906400  1
  O  O0  1  0.73897500  0.64439900  0.55736700  1
  O  O1  1  0.26102500  0.64439900  0.55736700  1
  O  O2  1  0.00000000  0.00000000  0.50000000  1
  O  O3  1  0.50000000  0.30782300  0.60597300  1
  O  O4  1  0.74813100  0.06761800  0.33639700  1
  O  O5  1  0.25186900  0.06761800  0.33639700  1
  O  O6  1  0.26102500  0.35560100  0.44263300  1
  O  O7  1  0.73897500  0.35560100  0.44263300  1
  O  O8  1  0.00000000  0.39542200  0.28934600  1
  O  O9  1  0.50000000  0.69217700  0.39402700  1
  O  O10  1  0.24428800  0.45553900  0.14614100  1
  O  O11  1  0.75571200  0.45553900  0.14614100  1
  O  O12  1  0.25535700  0.75199700  0.23923300  1
  O  O13  1  0.74464300  0.75199700  0.23923300  1
  O  O14  1  0.00000000  0.79135600  0.09845400  1
  O  O15  1  0.50000000  0.10234500  0.19261100  1
  O  O16  1  0.75646300  0.85041500  0.95192900  1
  O  O17  1  0.24353700  0.14958500  0.04807100  1
  O  O18  1  0.75646300  0.14958500  0.04807100  1
  O  O19  1  0.24353700  0.85041500  0.95192900  1
  O  O20  1  0.50000000  0.50000000  0.00000000  1
  O  O21  1  0.00000000  0.20864400  0.90154600  1
  O  O22  1  0.24428800  0.54446100  0.85385900  1
  O  O23  1  0.74464300  0.24800300  0.76076700  1
  O  O24  1  0.25535700  0.24800300  0.76076700  1
  O  O25  1  0.75571200  0.54446100  0.85385900  1
  O  O26  1  0.00000000  0.60457800  0.71065400  1
  O  O27  1  0.50000000  0.89765500  0.80738900  1
  O  O28  1  0.25186900  0.93238200  0.66360300  1
  O  O29  1  0.74813100  0.93238200  0.66360300  1
loop_
_geom_bond_atom_site_label_1
_geom_bond_atom_site_label_2
_geom_bond_distance
_geom_bond_site_symmetry_2
Ba0 O2 2.765488 1_555
Ba0 O1 2.765625 1_555
Ba0 O0 2.765625 1_455
Ba0 O3 2.780685 1_555
Ba0 O3 2.780685 1_455
Ba0 O29 2.882278 1_445
Ba0 O28 2.882278 1_545
Ba0 O6 2.907443 1_555
Ba0 O7 2.907443 1_455
Ba0 O24 2.908776 1_555
Ba0 O23 2.908776 1_455
Ba0 O26 2.923494 1_555
Ba1 O2 2.765488 1_565
Ba1 O6 2.765625 1_555
Ba1 O7 2.765625 1_455
Ba1 O9 2.780685 1_455
Ba1 O9 2.780685 1_555
Ba1 O5 2.882278 1_565
Ba1 O4 2.882278 1_465
Ba1 O1 2.907443 1_555
Ba1 O0 2.907443 1_455
Ba1 O12 2.908776 1_555
Ba1 O13 2.908776 1_455
Ba1 O8 2.923494 1_555
Ba2 O2 2.778218 1_555
Ba2 O2 2.778218 1_655
Ba2 O7 2.783275 1_555
Ba2 O6 2.783275 1_555
Ba2 O0 2.783275 1_545
Ba2 O1 2.783275 1_545
Ba2 O3 2.881996 1_555
Ba2 O9 2.881996 1_545
Ba2 O28 2.944850 1_545
Ba2 O29 2.944850 1_545
Ba2 O5 2.944850 1_555
Ba2 O4 2.944850 1_555
La0 O7 2.594665 1_555
La0 O6 2.594665 1_555
La0 O4 2.602404 1_555
La0 O5 2.602404 1_555
La0 O9 2.659515 1_555
La0 O8 2.786284 1_555
La0 O8 2.786284 1_655
La0 O13 2.822287 1_555
La0 O12 2.822287 1_555
La0 O15 2.848883 1_555
La0 O11 2.863627 1_555
La0 O10 2.863627 1_555
La1 O5 2.575977 1_555
La1 O4 2.575977 1_455
La1 O8 2.597200 1_555
La1 O10 2.759868 1_555
La1 O11 2.759868 1_455
La1 O12 2.769374 1_545
La1 O13 2.769374 1_445
La1 O17 2.776048 1_555
La1 O18 2.776048 1_455
La1 O15 2.781268 1_455
La1 O15 2.781268 1_555
La1 O14 2.870443 1_545
La2 O13 2.570438 1_555
La2 O12 2.570438 1_555
La2 O15 2.693617 1_565
La2 O11 2.722488 1_555
La2 O10 2.722488 1_555
La2 O14 2.779344 1_555
La2 O14 2.779344 1_655
La2 O16 2.779766 1_554
La2 O19 2.779766 1_554
La2 O20 2.784859 1_555
La2 O18 2.797538 1_565
La2 O17 2.797538 1_565
La3 O10 2.691555 1_555
La3 O11 2.691555 1_455
La3 O22 2.691555 1_554
La3 O25 2.691555 1_454
La3 O14 2.707108 1_555
La3 O21 2.707108 1_554
La3 O19 2.740220 1_554
La3 O17 2.740220 1_555
La3 O16 2.740220 1_454
La3 O18 2.740220 1_455
La3 O20 2.778218 1_455
La3 O20 2.778218 1_555
La4 O28 2.575977 1_555
La4 O29 2.575977 1_455
La4 O26 2.597200 1_555
La4 O22 2.759868 1_555
La4 O25 2.759868 1_455
La4 O24 2.769374 1_565
La4 O23 2.769374 1_465
La4 O19 2.776048 1_555
La4 O16 2.776048 1_455
La4 O27 2.781268 1_455
La4 O27 2.781268 1_555
La4 O21 2.870443 1_565
La5 O23 2.570438 1_555
La5 O24 2.570438 1_555
La5 O27 2.693617 1_545
La5 O25 2.722488 1_555
La5 O22 2.722488 1_555
La5 O21 2.779344 1_555
La5 O21 2.779344 1_655
La5 O18 2.779766 1_556
La5 O17 2.779766 1_556
La5 O20 2.784859 1_556
La5 O16 2.797538 1_545
La5 O19 2.797538 1_545
La6 O0 2.594665 1_555
La6 O1 2.594665 1_555
La6 O29 2.602404 1_555
La6 O28 2.602404 1_555
La6 O3 2.659515 1_555
La6 O26 2.786284 1_555
La6 O26 2.786284 1_655
La6 O23 2.822287 1_555
La6 O24 2.822287 1_555
La6 O27 2.848883 1_555
La6 O25 2.863627 1_555
La6 O22 2.863627 1_555
Mn0 O0 1.959282 1_555
Mn0 O1 1.959282 1_555
Mn0 O7 1.959282 1_555
Mn0 O6 1.959282 1_555
Mn0 O3 1.983663 1_555
Mn0 O9 1.983663 1_555
Co0 O1 1.967778 1_555
Co0 O0 1.967778 1_455
Co0 O2 1.972888 1_565
Co0 O26 2.022006 1_555
Co0 O28 2.022471 1_555
Co0 O29 2.022471 1_455
Co1 O6 1.967778 1_555
Co1 O7 1.967778 1_455
Co1 O2 1.972888 1_555
Co1 O8 2.022006 1_555
Co1 O5 2.022471 1_555
Co1 O4 2.022471 1_455
Co2 O14 1.879562 1_555
Co2 O8 1.886023 1_555
Co2 O12 1.925294 1_555
Co2 O13 1.925294 1_455
Co2 O10 1.933940 1_555
Co2 O11 1.933940 1_455
Co3 O9 1.887341 1_555
Co3 O4 1.933289 1_565
Co3 O5 1.933289 1_565
Co3 O13 2.025814 1_555
Co3 O12 2.025814 1_555
Co3 O15 2.055915 1_565
Co4 O17 1.920330 1_555
Co4 O18 1.920330 1_455
Co4 O19 1.920330 1_544
Co4 O16 1.920330 1_444
Co4 O14 1.958116 1_545
Co4 O21 1.958116 1_554
Co5 O15 1.848871 1_555
Co5 O20 1.939661 1_555
Co5 O11 1.990835 1_555
Co5 O10 1.990835 1_555
Co5 O18 1.991294 1_555
Co5 O17 1.991294 1_555
Co6 O27 1.848871 1_555
Co6 O20 1.939661 1_556
Co6 O25 1.990835 1_555
Co6 O22 1.990835 1_555
Co6 O16 1.991294 1_555
Co6 O19 1.991294 1_555
Co7 O21 1.879562 1_555
Co7 O26 1.886023 1_555
Co7 O24 1.925294 1_555
Co7 O23 1.925294 1_455
Co7 O22 1.933940 1_555
Co7 O25 1.933940 1_455
Co8 O3 1.887341 1_555
Co8 O28 1.933289 1_545
Co8 O29 1.933289 1_545
Co8 O23 2.025814 1_555
Co8 O24 2.025814 1_555
Co8 O27 2.055915 1_545
