# generated using pymatgen
data_Li2V(OF)2
_symmetry_space_group_name_H-M   'P 1'
_cell_length_a   5.94670101
_cell_length_b   6.03737150
_cell_length_c   8.40542909
_cell_angle_alpha   89.22068976
_cell_angle_beta   90.00116094
_cell_angle_gamma   89.99519453
_symmetry_Int_Tables_number   1
_chemical_formula_structural   Li2V(OF)2
_chemical_formula_sum   'Li8 V4 O8 F8'
_cell_volume   301.74752515
_cell_formula_units_Z   4
loop_
 _symmetry_equiv_pos_site_id
 _symmetry_equiv_pos_as_xyz
  1  'x, y, z'
loop_
 _atom_site_type_symbol
 _atom_site_label
 _atom_site_symmetry_multiplicity
 _atom_site_fract_x
 _atom_site_fract_y
 _atom_site_fract_z
 _atom_site_occupancy
  Li  Li0  1  0.24676200  0.25185700  0.38983700  1
  Li  Li1  1  0.24676000  0.74813400  0.11017900  1
  Li  Li2  1  0.25340100  0.49999800  0.75000200  1
  Li  Li3  1  0.50204000  0.25551000  0.98916200  1
  Li  Li4  1  0.50206300  0.74448900  0.51084900  1
  Li  Li5  1  0.73676700  0.50000300  0.25001400  1
  Li  Li6  1  0.75265700  0.24341600  0.61869500  1
  Li  Li7  1  0.75266700  0.75659500  0.88130600  1
  V  V0  1  0.02464500  0.25902200  0.98633800  1
  V  V1  1  0.02485200  0.74089900  0.51362500  1
  V  V2  1  0.23092200  0.00001000  0.75004800  1
  V  V3  1  0.74205400  0.00001500  0.24994200  1
  O  O0  1  0.01187600  0.23541700  0.76490000  1
  O  O1  1  0.01191700  0.76459300  0.73507400  1
  O  O2  1  0.24428900  0.01586600  0.97155900  1
  O  O3  1  0.24429600  0.98412600  0.52846600  1
  O  O4  1  0.22396000  0.46335100  0.00857800  1
  O  O5  1  0.22398900  0.53668000  0.49145300  1
  O  O6  1  0.77641300  0.97320900  0.46274200  1
  O  O7  1  0.77638400  0.02678600  0.03721100  1
  F  F0  1  0.47841200  0.24251500  0.74453900  1
  F  F1  1  0.47842800  0.75749300  0.75548500  1
  F  F2  1  0.51992700  0.23930600  0.25757700  1
  F  F3  1  0.51992700  0.76070000  0.24241700  1
  F  F4  1  0.75547500  0.52671000  0.49456500  1
  F  F5  1  0.75542400  0.47331200  0.00544300  1
  F  F6  1  0.98183600  0.24604200  0.24688600  1
  F  F7  1  0.98185800  0.75394600  0.25311100  1
loop_
_geom_bond_atom_site_label_1
_geom_bond_atom_site_label_2
_geom_bond_distance
_geom_bond_site_symmetry_2
Li0 O5 1.935136 1_555
Li0 O3 1.979768 1_545
Li1 O4 1.934892 1_555
Li1 O2 1.979727 1_564
Li2 O1 2.150340 1_555
Li2 O0 2.150611 1_555
Li2 O5 2.188467 1_555
Li2 O4 2.188697 1_556
Li3 O4 2.083509 1_556
Li3 O2 2.114413 1_555
Li3 O7 2.171636 1_556
Li4 O5 2.083512 1_555
Li4 O3 2.114291 1_555
Li4 O6 2.171920 1_555
Li6 O0 1.971567 1_655
Li6 O6 2.111326 1_545
Li7 O1 1.971898 1_655
Li7 O7 2.110996 1_566
O0 V0 1.870202 1_555
O0 V2 1.933080 1_555
O1 V1 1.870385 1_555
O1 V2 1.933194 1_565
O2 V2 1.867346 1_555
O2 V0 1.970080 1_555
O3 V2 1.867956 1_565
O3 V1 1.969810 1_555
O4 V0 1.722819 1_554
O5 V1 1.721410 1_555
O6 V3 1.805382 1_565
O6 V1 2.077509 1_655
O7 V3 1.804784 1_555
O7 V0 2.076619 1_654
F0 Li6 1.943839 1_555
F0 Li2 2.051994 1_555
F0 Li3 2.063510 1_555
F0 V2 2.076121 1_555
F1 Li7 1.943667 1_555
F1 Li2 2.052285 1_555
F1 Li4 2.063630 1_555
F1 V2 2.076056 1_565
F2 V3 1.959155 1_555
F2 Li0 1.970467 1_555
F2 Li5 2.035109 1_555
F2 Li3 2.259436 1_554
F3 V3 1.959384 1_565
F3 Li1 1.970350 1_555
F3 Li5 2.034946 1_555
F3 Li4 2.259579 1_555
F4 Li6 1.991396 1_555
F4 Li4 2.005738 1_555
F4 V1 2.066384 1_655
F4 Li5 2.067050 1_555
F5 Li7 1.991364 1_554
F5 Li3 2.005863 1_554
F5 V0 2.065917 1_654
F5 Li5 2.067195 1_555
F6 Li0 1.981935 1_655
F6 V3 2.059001 1_555
F6 Li5 2.115695 1_555
F6 V0 2.205104 1_654
F7 Li1 1.981759 1_655
F7 V3 2.059104 1_565
F7 Li5 2.115877 1_555
F7 V1 2.204945 1_655
