# generated using pymatgen
data_CeReO4
_symmetry_space_group_name_H-M   'P 1'
_cell_length_a   5.40183400
_cell_length_b   7.59291500
_cell_length_c   7.68183964
_cell_angle_alpha   80.13494578
_cell_angle_beta   90.00000000
_cell_angle_gamma   90.00000000
_symmetry_Int_Tables_number   1
_chemical_formula_structural   CeReO4
_chemical_formula_sum   'Ce4 Re4 O16'
_cell_volume   310.41706337
_cell_formula_units_Z   4
loop_
 _symmetry_equiv_pos_site_id
 _symmetry_equiv_pos_as_xyz
  1  'x, y, z'
loop_
 _atom_site_type_symbol
 _atom_site_label
 _atom_site_symmetry_multiplicity
 _atom_site_fract_x
 _atom_site_fract_y
 _atom_site_fract_z
 _atom_site_occupancy
  Ce  Ce0  1  0.27977800  0.39721200  0.34210800  1
  Ce  Ce1  1  0.22022200  0.89721200  0.34210800  1
  Ce  Ce2  1  0.77977800  0.10278800  0.65789200  1
  Ce  Ce3  1  0.72022200  0.60278800  0.65789200  1
  Re  Re0  1  0.77963300  0.19863100  0.16461900  1
  Re  Re1  1  0.72036700  0.69863100  0.16461900  1
  Re  Re2  1  0.27963300  0.30136900  0.83538100  1
  Re  Re3  1  0.22036700  0.80136900  0.83538100  1
  O  O0  1  0.08448300  0.29278300  0.05004300  1
  O  O1  1  0.41551700  0.79278300  0.05004300  1
  O  O2  1  0.65433700  0.44207900  0.17200000  1
  O  O3  1  0.84566300  0.94207900  0.17200000  1
  O  O4  1  0.49228100  0.12317700  0.32444200  1
  O  O5  1  0.98665500  0.17042300  0.39285500  1
  O  O6  1  0.00771900  0.62317700  0.32444200  1
  O  O7  1  0.51334500  0.67042300  0.39285500  1
  O  O8  1  0.48665500  0.32957700  0.60714500  1
  O  O9  1  0.99228100  0.37682300  0.67555800  1
  O  O10  1  0.01334500  0.82957700  0.60714500  1
  O  O11  1  0.50771900  0.87682300  0.67555800  1
  O  O12  1  0.15433700  0.05792100  0.82800000  1
  O  O13  1  0.34566300  0.55792100  0.82800000  1
  O  O14  1  0.58448300  0.20721700  0.94995700  1
  O  O15  1  0.91551700  0.70721700  0.94995700  1
loop_
_geom_bond_atom_site_label_1
_geom_bond_atom_site_label_2
_geom_bond_distance
_geom_bond_site_symmetry_2
Ce0 O6 2.245473 1_555
Ce0 O8 2.302060 1_555
Ce0 O5 2.322576 1_455
Ce0 O4 2.400474 1_555
Ce0 O2 2.401012 1_555
Ce0 O7 2.514826 1_555
Ce0 O0 2.717527 1_555
Ce0 O9 2.976787 1_455
Ce1 O4 2.245473 1_565
Ce1 O10 2.302060 1_555
Ce1 O7 2.322576 1_555
Ce1 O6 2.400474 1_555
Ce1 O3 2.401012 1_455
Ce1 O5 2.514826 1_465
Ce1 O1 2.717527 1_555
Ce1 O11 2.976787 1_555
Ce2 O11 2.245473 1_545
Ce2 O5 2.302060 1_555
Ce2 O8 2.322576 1_555
Ce2 O9 2.400474 1_555
Ce2 O12 2.401012 1_655
Ce2 O10 2.514826 1_645
Ce2 O14 2.717527 1_555
Ce2 O4 2.976787 1_555
Ce3 O9 2.245473 1_555
Ce3 O7 2.302060 1_555
Ce3 O10 2.322576 1_655
Ce3 O11 2.400474 1_555
Ce3 O13 2.401012 1_555
Ce3 O8 2.514826 1_555
Ce3 O15 2.717527 1_555
Ce3 O6 2.976787 1_655
O0 Re0 1.944715 1_455
O0 Re2 1.948815 1_554
O1 Re1 1.944715 1_555
O1 Re3 1.948815 1_554
O2 Re1 1.971600 1_555
O2 Re0 1.978409 1_555
O3 Re0 1.971600 1_565
O3 Re1 1.978409 1_555
O4 Re0 2.000989 1_555
O5 Re0 2.059552 1_555
O6 Re1 2.000989 1_455
O7 Re1 2.059552 1_555
O8 Re2 2.059552 1_555
O9 Re2 2.000989 1_655
O10 Re3 2.059552 1_555
O11 Re3 2.000989 1_555
O12 Re3 1.971600 1_545
O12 Re2 1.978409 1_555
O13 Re2 1.971600 1_555
O13 Re3 1.978409 1_555
O14 Re2 1.944715 1_555
O14 Re0 1.948815 1_556
O15 Re3 1.944715 1_655
O15 Re1 1.948815 1_556
