# generated using pymatgen
data_Li8Mn7Fe(BO3)8
_symmetry_space_group_name_H-M   'P 1'
_cell_length_a   5.25753700
_cell_length_b   9.11255508
_cell_length_c   10.52238908
_cell_angle_alpha   88.39054779
_cell_angle_beta   88.99057309
_cell_angle_gamma   89.74952149
_symmetry_Int_Tables_number   1
_chemical_formula_structural   Li8Mn7Fe(BO3)8
_chemical_formula_sum   'Li8 Mn7 Fe1 B8 O24'
_cell_volume   503.84253078
_cell_formula_units_Z   1
loop_
 _symmetry_equiv_pos_site_id
 _symmetry_equiv_pos_as_xyz
  1  'x, y, z'
loop_
 _atom_site_type_symbol
 _atom_site_label
 _atom_site_symmetry_multiplicity
 _atom_site_fract_x
 _atom_site_fract_y
 _atom_site_fract_z
 _atom_site_occupancy
  Li  Li0  1  0.14643200  0.17454400  0.66869300  1
  Li  Li1  1  0.18776400  0.16061900  0.16826700  1
  Li  Li2  1  0.32249000  0.33049100  0.41682500  1
  Li  Li3  1  0.33650600  0.32570100  0.91723300  1
  Li  Li4  1  0.64767800  0.67402400  0.66746900  1
  Li  Li5  1  0.68849300  0.66047800  0.16796500  1
  Li  Li6  1  0.82061200  0.83143900  0.41780300  1
  Li  Li7  1  0.83613100  0.82556200  0.91789200  1
  Mn  Mn0  1  0.17744500  0.49870600  0.13272700  1
  Mn  Mn1  1  0.15937100  0.83904700  0.63322500  1
  Mn  Mn2  1  0.33130100  0.66463700  0.38280900  1
  Mn  Mn3  1  0.33114300  0.99810600  0.88339500  1
  Mn  Mn4  1  0.67820700  0.99909200  0.13333000  1
  Mn  Mn5  1  0.82997700  0.16503300  0.38572200  1
  Mn  Mn6  1  0.82964600  0.49622600  0.88177600  1
  Fe  Fe0  1  0.65492000  0.34045900  0.63246300  1
  B  B0  1  0.17336200  0.82925600  0.12578700  1
  B  B1  1  0.16017100  0.49975700  0.62523600  1
  B  B2  1  0.33652900  0.99789700  0.37592400  1
  B  B3  1  0.32777900  0.66703700  0.87524600  1
  B  B4  1  0.67345700  0.32924100  0.12591300  1
  B  B5  1  0.65704800  0.00311500  0.62674900  1
  B  B6  1  0.83669900  0.49818700  0.37678400  1
  B  B7  1  0.82757800  0.16709300  0.87467600  1
  O  O0  1  0.09630800  0.48137700  0.34635300  1
  O  O1  1  0.08904700  0.17934300  0.86086900  1
  O  O2  1  0.17388800  0.78899400  0.84500000  1
  O  O3  1  0.19434000  0.87638900  0.41793800  1
  O  O4  1  0.22293600  0.13440300  0.36150400  1
  O  O5  1  0.21609200  0.53536200  0.91718100  1
  O  O6  1  0.27502300  0.36306300  0.61253500  1
  O  O7  1  0.28867000  0.96464500  0.09583700  1
  O  O8  1  0.30180100  0.62644300  0.59653200  1
  O  O9  1  0.32214600  0.71034400  0.16697500  1
  O  O10  1  0.41338800  0.31470300  0.11114900  1
  O  O11  1  0.40378000  0.01652600  0.66691200  1
  O  O12  1  0.59615300  0.98187700  0.34552400  1
  O  O13  1  0.58932400  0.67873500  0.86040400  1
  O  O14  1  0.67336200  0.28849900  0.84367000  1
  O  O15  1  0.69406800  0.37728000  0.41913900  1
  O  O16  1  0.72422400  0.63501200  0.36137200  1
  O  O17  1  0.71751600  0.03521800  0.91754800  1
  O  O18  1  0.78833300  0.46477400  0.09575400  1
  O  O19  1  0.76616900  0.86564400  0.61111200  1
  O  O20  1  0.80077200  0.12952000  0.59828700  1
  O  O21  1  0.82214900  0.21059700  0.16723900  1
  O  O22  1  0.91346500  0.81466500  0.11115100  1
  O  O23  1  0.90570800  0.51023300  0.66370900  1
loop_
_geom_bond_atom_site_label_1
_geom_bond_atom_site_label_2
_geom_bond_distance
_geom_bond_site_symmetry_2
Li0 O6 1.922617 1_555
Li0 O11 1.971812 1_555
Li0 O20 2.022587 1_455
Li0 O1 2.040928 1_555
Li1 O10 1.918825 1_555
Li1 O21 1.973656 1_455
Li1 O7 2.026177 1_545
Li1 O4 2.052123 1_555
Li2 O0 1.952942 1_555
Li2 O4 1.970540 1_555
Li2 O15 2.002104 1_555
Li2 O6 2.099244 1_555
Li3 O14 1.952393 1_555
Li3 O1 1.977359 1_555
Li3 O5 2.010065 1_555
Li3 O10 2.086654 1_556
Li4 O19 1.930574 1_555
Li4 O23 2.013300 1_555
Li4 O8 2.030972 1_555
Li4 O13 2.049454 1_555
Li5 O22 1.916498 1_555
Li5 O9 1.977164 1_555
Li5 O18 2.021669 1_555
Li5 O16 2.053619 1_555
Li6 O12 1.951738 1_555
Li6 O16 1.972703 1_555
Li6 O3 2.008915 1_655
Li6 O19 2.081071 1_555
Li7 O2 1.952916 1_655
Li7 O13 1.981953 1_555
Li7 O17 2.007040 1_565
Li7 O22 2.080365 1_556
Mn0 O10 2.096441 1_555
Mn0 O18 2.114822 1_455
Mn0 O9 2.118849 1_555
Mn0 O0 2.281804 1_555
Mn0 O5 2.288832 1_554
Mn1 O19 2.096641 1_455
Mn1 O11 2.111607 1_565
Mn1 O8 2.117157 1_555
Mn1 O2 2.264537 1_555
Mn1 O3 2.285585 1_555
Mn2 O16 2.091278 1_555
Mn2 O3 2.096914 1_555
Mn2 O0 2.129104 1_555
Mn2 O8 2.268667 1_555
Mn2 O9 2.298735 1_555
Mn3 O1 2.091434 1_565
Mn3 O17 2.099652 1_565
Mn3 O2 2.132291 1_555
Mn3 O7 2.254897 1_556
Mn3 O11 2.304639 1_565
Mn4 O22 2.098199 1_555
Mn4 O21 2.115562 1_565
Mn4 O7 2.118855 1_555
Mn4 O12 2.267826 1_555
Mn4 O17 2.290965 1_564
Mn5 O4 2.095612 1_655
Mn5 O15 2.095776 1_555
Mn5 O12 2.133477 1_545
Mn5 O20 2.253612 1_555
Mn5 O21 2.325701 1_555
Mn6 O13 2.093709 1_555
Mn6 O5 2.105817 1_655
Mn6 O14 2.118234 1_555
Mn6 O18 2.268459 1_556
Mn6 O23 2.322283 1_555
Fe0 O6 2.020997 1_555
Fe0 O23 2.074062 1_555
Fe0 O20 2.104374 1_555
Fe0 O14 2.262906 1_555
Fe0 O15 2.266174 1_555
B0 O22 1.385153 1_455
B0 O9 1.397159 1_555
B0 O7 1.402469 1_555
B1 O6 1.390687 1_555
B1 O23 1.394564 1_455
B1 O8 1.399433 1_555
B2 O4 1.383157 1_565
B2 O3 1.395847 1_555
B2 O12 1.404389 1_555
B3 O13 1.385419 1_555
B3 O5 1.395188 1_555
B3 O2 1.404397 1_555
B4 O10 1.386174 1_555
B4 O21 1.395455 1_555
B4 O18 1.403063 1_555
B5 O19 1.388333 1_545
B5 O11 1.395799 1_555
B5 O20 1.402763 1_555
B6 O16 1.384244 1_555
B6 O15 1.393817 1_555
B6 O0 1.405165 1_655
B7 O1 1.384455 1_655
B7 O17 1.396032 1_555
B7 O14 1.403203 1_555
