# generated using pymatgen
data_Ba16S16O59
_symmetry_space_group_name_H-M   'P 1'
_cell_length_a   8.96161600
_cell_length_b   11.13839770
_cell_length_c   14.54172408
_cell_angle_alpha   90.00338559
_cell_angle_beta   90.06392806
_cell_angle_gamma   90.02024674
_symmetry_Int_Tables_number   1
_chemical_formula_structural   Ba16S16O59
_chemical_formula_sum   'Ba16 S16 O59'
_cell_volume   1451.52544256
_cell_formula_units_Z   1
loop_
 _symmetry_equiv_pos_site_id
 _symmetry_equiv_pos_as_xyz
  1  'x, y, z'
loop_
 _atom_site_type_symbol
 _atom_site_label
 _atom_site_symmetry_multiplicity
 _atom_site_fract_x
 _atom_site_fract_y
 _atom_site_fract_z
 _atom_site_occupancy
  Ba  Ba0  1  0.18544400  0.86449800  0.92409000  1
  Ba  Ba1  1  0.17761500  0.87453500  0.42685100  1
  Ba  Ba2  1  0.18515100  0.38534900  0.92423700  1
  Ba  Ba3  1  0.17927600  0.37555300  0.42916200  1
  Ba  Ba4  1  0.32243600  0.62009100  0.68105200  1
  Ba  Ba5  1  0.32109600  0.13007400  0.67363700  1
  Ba  Ba6  1  0.31998500  0.62507100  0.16895600  1
  Ba  Ba7  1  0.32194800  0.12495200  0.17011600  1
  Ba  Ba8  1  0.68457200  0.88481500  0.82042700  1
  Ba  Ba9  1  0.69356900  0.87587700  0.33085500  1
  Ba  Ba10  1  0.68855800  0.36476600  0.82482900  1
  Ba  Ba11  1  0.69263900  0.37397900  0.32930200  1
  Ba  Ba12  1  0.81288600  0.63027700  0.57384100  1
  Ba  Ba13  1  0.81619800  0.62558700  0.08162200  1
  Ba  Ba14  1  0.81192900  0.11976500  0.57521400  1
  Ba  Ba15  1  0.81731000  0.12409800  0.07382300  1
  S  S0  1  0.06511300  0.87663300  0.65637800  1
  S  S1  1  0.06007400  0.37342700  0.65680600  1
  S  S2  1  0.05917900  0.87497700  0.15752100  1
  S  S3  1  0.05941000  0.37499200  0.15729800  1
  S  S4  1  0.45192400  0.62487900  0.91369600  1
  S  S5  1  0.43518100  0.62683900  0.40519400  1
  S  S6  1  0.43461700  0.12523800  0.90611500  1
  S  S7  1  0.43534500  0.12320300  0.40528300  1
  S  S8  1  0.54750300  0.87445400  0.58600500  1
  S  S9  1  0.55857000  0.87353100  0.09375600  1
  S  S10  1  0.55990600  0.37498200  0.59388100  1
  S  S11  1  0.55855100  0.37646200  0.09381300  1
  S  S12  1  0.95218700  0.12563700  0.33601900  1
  S  S13  1  0.93465800  0.62514100  0.84520800  1
  S  S14  1  0.95280000  0.62438200  0.33609800  1
  S  S15  1  0.95167700  0.12494600  0.83762600  1
  O  O0  1  0.08549800  0.98574800  0.59614900  1
  O  O1  1  0.09044900  0.76745700  0.59739900  1
  O  O2  1  0.08492500  0.48288400  0.59837400  1
  O  O3  1  0.07974700  0.26400400  0.59705400  1
  O  O4  1  0.08146000  0.48499300  0.09831900  1
  O  O5  1  0.08375800  0.26597700  0.09830600  1
  O  O6  1  0.08182400  0.76501800  0.09867700  1
  O  O7  1  0.08418700  0.98396900  0.09867700  1
  O  O8  1  0.08744100  0.62518600  0.80705700  1
  O  O9  1  0.18125300  0.88093800  0.72967100  1
  O  O10  1  0.17257800  0.87405700  0.23275500  1
  O  O11  1  0.17619200  0.36909900  0.73047800  1
  O  O12  1  0.17319600  0.37589900  0.23216200  1
  O  O13  1  0.31583800  0.62453100  0.97864700  1
  O  O14  1  0.31899700  0.63071700  0.47875100  1
  O  O15  1  0.31752100  0.12562000  0.97849000  1
  O  O16  1  0.31953900  0.11915500  0.47920800  1
  O  O17  1  0.40490800  0.87582700  0.05706800  1
  O  O18  1  0.40701900  0.37494700  0.55590600  1
  O  O19  1  0.40513500  0.37412700  0.05700300  1
  O  O20  1  0.42716200  0.73447000  0.84987500  1
  O  O21  1  0.41502500  0.73597300  0.34512100  1
  O  O22  1  0.42770100  0.51499200  0.84974800  1
  O  O23  1  0.41020500  0.51761100  0.34611400  1
  O  O24  1  0.41355000  0.23405300  0.84583100  1
  O  O25  1  0.40963900  0.23232900  0.34634900  1
  O  O26  1  0.41285800  0.01659300  0.84599100  1
  O  O27  1  0.41435200  0.01422300  0.34525600  1
  O  O28  1  0.56820700  0.98516100  0.65001400  1
  O  O29  1  0.57204500  0.76575800  0.65066900  1
  O  O30  1  0.58116500  0.48353200  0.65369000  1
  O  O31  1  0.58225700  0.98297000  0.15247500  1
  O  O32  1  0.57751000  0.76410700  0.15360600  1
  O  O33  1  0.57762400  0.48583300  0.15374200  1
  O  O34  1  0.57916500  0.26539000  0.65353900  1
  O  O35  1  0.58235800  0.26707300  0.15256400  1
  O  O36  1  0.58707000  0.12530400  0.94442500  1
  O  O37  1  0.58790600  0.62454200  0.44282400  1
  O  O38  1  0.58793800  0.12555600  0.44272900  1
  O  O39  1  0.68475000  0.87593900  0.52280400  1
  O  O40  1  0.67698800  0.37420500  0.52160000  1
  O  O41  1  0.67399200  0.86928300  0.02023000  1
  O  O42  1  0.67416300  0.38079800  0.02041000  1
  O  O43  1  0.81742900  0.62494600  0.77288500  1
  O  O44  1  0.81771100  0.62532500  0.27136000  1
  O  O45  1  0.81520000  0.12506000  0.77298700  1
  O  O46  1  0.81636400  0.12466100  0.27212000  1
  O  O47  1  0.90494100  0.87512000  0.19223700  1
  O  O48  1  0.90521100  0.37487300  0.19231900  1
  O  O49  1  0.91209800  0.87431700  0.69283200  1
  O  O50  1  0.90724900  0.37574700  0.69366300  1
  O  O51  1  0.92837800  0.23420700  0.40127800  1
  O  O52  1  0.93136100  0.01546400  0.40050800  1
  O  O53  1  0.91387000  0.73394000  0.90542500  1
  O  O54  1  0.93058100  0.73449000  0.40027400  1
  O  O55  1  0.91419900  0.51620800  0.90551000  1
  O  O56  1  0.92761500  0.51587500  0.40100300  1
  O  O57  1  0.92833000  0.23482100  0.90185800  1
  O  O58  1  0.92836800  0.01508600  0.90156700  1
loop_
_geom_bond_atom_site_label_1
_geom_bond_atom_site_label_2
_geom_bond_distance
_geom_bond_site_symmetry_2
Ba0 O17 2.759466 1_556
Ba0 O20 2.821682 1_555
Ba0 O9 2.833330 1_555
Ba0 O53 2.847361 1_455
Ba0 O58 2.868679 1_465
Ba0 O26 2.883772 1_565
Ba0 O6 2.922400 1_556
Ba0 O7 3.007542 1_556
Ba0 O13 3.023144 1_555
Ba0 O15 3.237471 1_565
Ba0 O8 3.281360 1_555
Ba1 O54 2.734808 1_455
Ba1 O52 2.735237 1_465
Ba1 O10 2.822806 1_555
Ba1 O1 2.861362 1_555
Ba1 O0 2.877797 1_555
Ba1 O21 2.885967 1_555
Ba1 O27 2.886719 1_565
Ba1 O14 3.090422 1_555
Ba1 O16 3.101019 1_565
Ba2 O19 2.760651 1_556
Ba2 O11 2.824437 1_555
Ba2 O22 2.826027 1_555
Ba2 O55 2.845296 1_455
Ba2 O57 2.865242 1_455
Ba2 O24 2.887343 1_555
Ba2 O4 2.917054 1_556
Ba2 O5 3.000913 1_556
Ba2 O13 3.015059 1_555
Ba2 O15 3.224818 1_555
Ba2 O8 3.287187 1_555
Ba3 O18 2.748463 1_555
Ba3 O51 2.773801 1_455
Ba3 O56 2.774412 1_455
Ba3 O2 2.864240 1_555
Ba3 O12 2.865180 1_555
Ba3 O23 2.872006 1_555
Ba3 O25 2.874828 1_555
Ba3 O3 2.881730 1_555
Ba3 O14 3.187582 1_555
Ba3 O16 3.204111 1_555
Ba4 O8 2.793617 1_555
Ba4 O29 2.798419 1_555
Ba4 O30 2.802219 1_555
Ba4 O22 2.876472 1_555
Ba4 O2 2.881542 1_555
Ba4 O1 2.914308 1_555
Ba4 O20 2.919664 1_555
Ba4 O14 2.944320 1_555
Ba4 O11 3.170113 1_555
Ba4 O9 3.247531 1_555
Ba4 O18 3.368386 1_555
Ba5 O28 2.762526 1_545
Ba5 O34 2.775757 1_555
Ba5 O16 2.829959 1_555
Ba5 O3 2.853194 1_555
Ba5 O24 2.879611 1_555
Ba5 O0 2.881628 1_545
Ba5 O26 2.924396 1_555
Ba5 O11 3.076072 1_555
Ba5 O9 3.151997 1_545
Ba5 O18 3.311363 1_555
Ba6 O13 2.767635 1_554
Ba6 O32 2.787991 1_555
Ba6 O33 2.790819 1_555
Ba6 O6 2.833230 1_555
Ba6 O4 2.837468 1_555
Ba6 O23 2.952874 1_555
Ba6 O21 2.967802 1_555
Ba6 O12 3.205991 1_555
Ba6 O10 3.209675 1_555
Ba6 O17 3.321028 1_555
Ba6 O19 3.324011 1_555
Ba7 O15 2.786821 1_554
Ba7 O31 2.830653 1_545
Ba7 O35 2.831242 1_555
Ba7 O7 2.842113 1_545
Ba7 O5 2.848121 1_555
Ba7 O25 2.934293 1_555
Ba7 O27 2.947819 1_555
Ba7 O12 3.226295 1_555
Ba7 O10 3.229788 1_545
Ba7 O17 3.310383 1_545
Ba7 O19 3.311499 1_555
Ba8 O49 2.760884 1_555
Ba8 O26 2.868154 1_565
Ba8 O58 2.874511 1_565
Ba8 O20 2.882464 1_555
Ba8 O28 2.910853 1_555
Ba8 O41 2.912284 1_556
Ba8 O53 2.927694 1_555
Ba8 O29 2.976985 1_555
Ba8 O45 3.001130 1_565
Ba8 O43 3.205904 1_555
Ba8 O36 3.345840 1_565
Ba9 O47 2.767662 1_555
Ba9 O39 2.792476 1_555
Ba9 O52 2.824369 1_565
Ba9 O54 2.829893 1_555
Ba9 O27 2.946766 1_565
Ba9 O21 2.949718 1_555
Ba9 O31 3.023570 1_555
Ba9 O32 3.044321 1_555
Ba9 O46 3.101522 1_565
Ba9 O44 3.127062 1_555
Ba9 O38 3.358804 1_565
Ba9 O37 3.374445 1_555
Ba10 O50 2.739009 1_555
Ba10 O57 2.822008 1_555
Ba10 O42 2.852740 1_556
Ba10 O24 2.878550 1_555
Ba10 O55 2.881465 1_555
Ba10 O34 2.895526 1_555
Ba10 O22 2.898377 1_555
Ba10 O30 2.977509 1_555
Ba10 O45 2.998125 1_555
Ba10 O43 3.209753 1_555
Ba10 O36 3.311828 1_555
Ba11 O48 2.757803 1_555
Ba11 O40 2.800017 1_555
Ba11 O51 2.824871 1_555
Ba11 O56 2.830529 1_555
Ba11 O25 2.996894 1_555
Ba11 O35 2.998844 1_555
Ba11 O23 3.004948 1_555
Ba11 O33 3.021180 1_555
Ba11 O46 3.104275 1_555
Ba11 O44 3.131153 1_555
Ba11 O38 3.355536 1_555
Ba11 O37 3.376360 1_555
Ba12 O37 2.773128 1_555
Ba12 O29 2.862030 1_555
Ba12 O30 2.887093 1_555
Ba12 O43 2.895297 1_555
Ba12 O1 2.938471 1_655
Ba12 O2 2.960892 1_655
Ba12 O54 2.972484 1_555
Ba12 O56 3.000690 1_555
Ba12 O39 3.058956 1_555
Ba12 O40 3.192296 1_555
Ba12 O49 3.341788 1_555
Ba12 O50 3.433318 1_555
Ba13 O44 2.759138 1_555
Ba13 O32 2.838808 1_555
Ba13 O33 2.845508 1_555
Ba13 O6 2.852358 1_655
Ba13 O4 2.857208 1_655
Ba13 O53 2.965171 1_554
Ba13 O55 2.969777 1_554
Ba13 O41 3.128761 1_555
Ba13 O42 3.137093 1_555
Ba13 O47 3.307560 1_555
Ba13 O48 3.320411 1_555
Ba14 O38 2.781476 1_555
Ba14 O28 2.864370 1_545
Ba14 O45 2.876678 1_555
Ba14 O34 2.878695 1_555
Ba14 O0 2.886581 1_645
Ba14 O3 2.904808 1_655
Ba14 O52 2.992670 1_555
Ba14 O51 3.019394 1_555
Ba14 O39 3.041578 1_545
Ba14 O40 3.178468 1_555
Ba14 O49 3.347273 1_545
Ba14 O50 3.438090 1_555
Ba15 O36 2.790971 1_554
Ba15 O31 2.866972 1_545
Ba15 O7 2.878806 1_645
Ba15 O35 2.878900 1_555
Ba15 O46 2.883609 1_555
Ba15 O5 2.884631 1_655
Ba15 O58 2.957270 1_554
Ba15 O57 2.961287 1_554
Ba15 O41 3.210518 1_545
Ba15 O42 3.228738 1_555
Ba15 O47 3.357324 1_545
Ba15 O48 3.374421 1_555
O0 S0 1.509271 1_555
O1 S0 1.505457 1_555
O2 S1 1.502775 1_555
O3 S1 1.507282 1_555
O4 S3 1.508693 1_555
O5 S3 1.502797 1_555
O6 S2 1.507941 1_555
O7 S2 1.502193 1_555
O8 S13 1.477883 1_455
O9 S0 1.489629 1_555
O10 S2 1.492407 1_555
O11 S1 1.493472 1_555
O12 S3 1.490832 1_555
O13 S4 1.543362 1_555
O14 S5 1.494192 1_555
O15 S6 1.487053 1_555
O16 S7 1.495714 1_555
O17 S9 1.476470 1_555
O18 S10 1.476643 1_555
O19 S11 1.475046 1_555
O20 S4 1.549338 1_555
O21 S5 1.507747 1_555
O22 S4 1.552154 1_555
O23 S5 1.505863 1_555
O24 S6 1.507664 1_555
O25 S7 1.504930 1_555
O26 S6 1.505384 1_555
O27 S7 1.506702 1_555
O28 S8 1.555849 1_555
O29 S8 1.548625 1_555
O30 S10 1.501306 1_555
O31 S9 1.503115 1_555
O32 S9 1.507218 1_555
O33 S11 1.507357 1_555
O34 S10 1.507446 1_555
O35 S11 1.503283 1_555
O36 S6 1.474865 1_555
O37 S5 1.473662 1_555
O38 S7 1.471568 1_555
O39 S8 1.536303 1_555
O40 S10 1.486016 1_555
O41 S9 1.489238 1_555
O42 S11 1.489150 1_555
O43 S13 1.485696 1_555
O44 S14 1.532777 1_555
O45 S15 1.541697 1_555
O46 S12 1.530542 1_555
O47 S2 1.472057 1_655
O48 S3 1.473259 1_655
O49 S0 1.470929 1_655
O50 S1 1.471489 1_655
O51 S12 1.552089 1_555
O52 S12 1.555805 1_555
O53 S13 1.506803 1_555
O54 S14 1.554072 1_555
O55 S13 1.508337 1_555
O56 S14 1.550120 1_555
O57 S15 1.553853 1_555
O58 S15 1.551105 1_555
