# generated using pymatgen
data_VP2(HO)6
_symmetry_space_group_name_H-M   'P 1'
_cell_length_a   7.34086346
_cell_length_b   7.34086346
_cell_length_c   7.68889221
_cell_angle_alpha   63.60039280
_cell_angle_beta   63.60039280
_cell_angle_gamma   67.68650538
_symmetry_Int_Tables_number   1
_chemical_formula_structural   VP2(HO)6
_chemical_formula_sum   'V2 P4 H12 O12'
_cell_volume   323.76378607
_cell_formula_units_Z   2
loop_
 _symmetry_equiv_pos_site_id
 _symmetry_equiv_pos_as_xyz
  1  'x, y, z'
loop_
 _atom_site_type_symbol
 _atom_site_label
 _atom_site_symmetry_multiplicity
 _atom_site_fract_x
 _atom_site_fract_y
 _atom_site_fract_z
 _atom_site_occupancy
  V  V0  1  0.75840900  0.24159100  0.25000000  1
  V  V1  1  0.24159100  0.75840900  0.75000000  1
  P  P0  1  0.43266300  0.10868900  0.71079500  1
  P  P1  1  0.89131100  0.56733700  0.78920500  1
  P  P2  1  0.56733700  0.89131100  0.28920500  1
  P  P3  1  0.10868900  0.43266300  0.21079500  1
  H  H0  1  0.08646900  0.86039200  0.37080000  1
  H  H1  1  0.13960800  0.91353100  0.12920000  1
  H  H2  1  0.91353100  0.13960800  0.62920000  1
  H  H3  1  0.86039200  0.08646900  0.87080000  1
  H  H4  1  0.45540100  0.17357900  0.84632100  1
  H  H5  1  0.82642100  0.54459900  0.65367900  1
  H  H6  1  0.54459900  0.82642100  0.15367900  1
  H  H7  1  0.17357900  0.45540100  0.34632100  1
  H  H8  1  0.29804500  0.27975300  0.61413700  1
  H  H9  1  0.72024700  0.70195500  0.88586300  1
  H  H10  1  0.70195500  0.72024700  0.38586300  1
  H  H11  1  0.27975300  0.29804500  0.11413700  1
  O  O0  1  0.64557500  0.06256100  0.54909200  1
  O  O1  1  0.93743900  0.35442500  0.95090800  1
  O  O2  1  0.35442500  0.93743900  0.45090800  1
  O  O3  1  0.06256100  0.64557500  0.04909200  1
  O  O4  1  0.67151800  0.07844000  0.15206600  1
  O  O5  1  0.92156000  0.32848200  0.34793400  1
  O  O6  1  0.32848200  0.92156000  0.84793400  1
  O  O7  1  0.07844000  0.67151800  0.65206600  1
  O  O8  1  0.04370500  0.95629500  0.25000000  1
  O  O9  1  0.95629500  0.04370500  0.75000000  1
  O  O10  1  0.55909800  0.44090200  0.25000000  1
  O  O11  1  0.44090200  0.55909800  0.75000000  1
loop_
_geom_bond_atom_site_label_1
_geom_bond_atom_site_label_2
_geom_bond_distance
_geom_bond_site_symmetry_2
H0 O8 0.983294 1_555
H1 O8 0.983294 1_555
H2 O9 0.983294 1_555
H3 O9 0.983294 1_555
H4 P0 1.413182 1_555
H5 P1 1.413182 1_555
H6 P2 1.413182 1_555
H7 P3 1.413182 1_555
H8 P0 1.409500 1_555
H9 P1 1.409500 1_555
H10 P2 1.409500 1_555
H11 P3 1.409500 1_555
O0 P0 1.532250 1_555
O0 V0 2.036405 1_555
O1 P1 1.532250 1_555
O1 V0 2.036405 1_556
O2 P2 1.532250 1_555
O2 V1 2.036405 1_555
O3 P3 1.532250 1_555
O3 V1 2.036405 1_554
O4 P2 1.541533 1_545
O4 V0 2.053649 1_555
O5 P3 1.541533 1_655
O5 V0 2.053649 1_555
O6 P0 1.541533 1_565
O6 V1 2.053649 1_555
O7 P1 1.541533 1_455
O7 V1 2.053649 1_555
O8 V0 2.332748 1_465
O9 V1 2.332748 1_645
O10 V0 1.629684 1_555
O11 V1 1.629684 1_555
