# generated using pymatgen
data_Li2VCrO4
_symmetry_space_group_name_H-M   'P 1'
_cell_length_a   5.14209800
_cell_length_b   5.17009993
_cell_length_c   6.00615782
_cell_angle_alpha   106.85053440
_cell_angle_beta   90.02622410
_cell_angle_gamma   100.02196193
_symmetry_Int_Tables_number   1
_chemical_formula_structural   Li2VCrO4
_chemical_formula_sum   'Li4 V2 Cr2 O8'
_cell_volume   150.26740225
_cell_formula_units_Z   2
loop_
 _symmetry_equiv_pos_site_id
 _symmetry_equiv_pos_as_xyz
  1  'x, y, z'
loop_
 _atom_site_type_symbol
 _atom_site_label
 _atom_site_symmetry_multiplicity
 _atom_site_fract_x
 _atom_site_fract_y
 _atom_site_fract_z
 _atom_site_occupancy
  Li  Li0  1  0.00000000  0.00000000  0.00000000  1
  Li  Li1  1  0.49832100  0.00338900  0.75503800  1
  Li  Li2  1  0.00000000  0.00000000  0.50000000  1
  Li  Li3  1  0.50167900  0.99661100  0.24496200  1
  V  V0  1  0.75020600  0.50058600  0.62461900  1
  V  V1  1  0.24979400  0.49941400  0.37538100  1
  Cr  Cr0  1  0.24959600  0.49891700  0.87672800  1
  Cr  Cr1  1  0.75040400  0.50108300  0.12327200  1
  O  O0  1  0.87977800  0.27228000  0.82199100  1
  O  O1  1  0.62285400  0.72390700  0.93113300  1
  O  O2  1  0.37484800  0.27395400  0.56892800  1
  O  O3  1  0.12049500  0.72840000  0.68875200  1
  O  O4  1  0.87950500  0.27160000  0.31124800  1
  O  O5  1  0.62515200  0.72604600  0.43107200  1
  O  O6  1  0.37714600  0.27609300  0.06886700  1
  O  O7  1  0.12022200  0.72772000  0.17800900  1
loop_
_geom_bond_atom_site_label_1
_geom_bond_atom_site_label_2
_geom_bond_distance
_geom_bond_site_symmetry_2
Li0 O4 2.152294 1_455
Li0 O3 2.152294 1_544
Li0 O6 2.159418 1_555
Li0 O1 2.159418 1_444
Li0 O7 2.163735 1_545
Li0 O0 2.163735 1_454
Li1 O3 2.159654 1_545
Li1 O0 2.160527 1_555
Li1 O6 2.166813 1_556
Li1 O1 2.196364 1_545
Li1 O2 2.196445 1_555
Li1 O5 2.230826 1_545
Li2 O2 2.145202 1_555
Li2 O5 2.145202 1_445
Li2 O0 2.197626 1_455
Li2 O7 2.197626 1_545
Li2 O3 2.205896 1_545
Li2 O4 2.205896 1_455
Li3 O4 2.159654 1_565
Li3 O7 2.160527 1_555
Li3 O1 2.166813 1_554
Li3 O6 2.196364 1_565
Li3 O5 2.196445 1_555
Li3 O2 2.230826 1_565
Cr0 O0 2.024313 1_455
Cr0 O6 2.030302 1_556
Cr0 O1 2.036095 1_555
Cr0 O7 2.037238 1_556
Cr0 O3 2.042809 1_555
Cr0 O2 2.049508 1_555
Cr1 O7 2.024313 1_655
Cr1 O1 2.030302 1_554
Cr1 O6 2.036095 1_555
Cr1 O0 2.037238 1_554
Cr1 O4 2.042809 1_555
Cr1 O5 2.049508 1_555
O0 V0 2.080069 1_555
O1 V0 2.045251 1_555
O2 V1 2.041905 1_555
O2 V0 2.048227 1_555
O3 V0 2.028999 1_455
O3 V1 2.090313 1_555
O4 V1 2.028999 1_655
O4 V0 2.090313 1_555
O5 V0 2.041905 1_555
O5 V1 2.048227 1_555
O6 V1 2.045251 1_555
O7 V1 2.080069 1_555
