# generated using pymatgen
data_CsDyN4O15
_symmetry_space_group_name_H-M   'P 1'
_cell_length_a   11.83644600
_cell_length_b   10.87708300
_cell_length_c   13.29475527
_cell_angle_alpha   57.52810929
_cell_angle_beta   90.00000000
_cell_angle_gamma   90.00000000
_symmetry_Int_Tables_number   1
_chemical_formula_structural   CsDyN4O15
_chemical_formula_sum   'Cs4 Dy4 N16 O60'
_cell_volume   1444.03914520
_cell_formula_units_Z   4
loop_
 _symmetry_equiv_pos_site_id
 _symmetry_equiv_pos_as_xyz
  1  'x, y, z'
loop_
 _atom_site_type_symbol
 _atom_site_label
 _atom_site_symmetry_multiplicity
 _atom_site_fract_x
 _atom_site_fract_y
 _atom_site_fract_z
 _atom_site_occupancy
  Cs  Cs0  1  0.68245200  0.29112200  0.06985200  1
  Cs  Cs1  1  0.18245200  0.70887800  0.43014800  1
  Cs  Cs2  1  0.31754800  0.70887800  0.93014800  1
  Cs  Cs3  1  0.81754800  0.29112200  0.56985200  1
  Dy  Dy0  1  0.62775200  0.69041900  0.59538800  1
  Dy  Dy1  1  0.12775200  0.30958100  0.90461200  1
  Dy  Dy2  1  0.37224800  0.30958100  0.40461200  1
  Dy  Dy3  1  0.87224800  0.69041900  0.09538800  1
  N  N0  1  0.07282900  0.60742600  0.73193700  1
  N  N1  1  0.57282900  0.39257400  0.76806300  1
  N  N2  1  0.92717100  0.39257400  0.26806300  1
  N  N3  1  0.42717100  0.60742600  0.23193700  1
  N  N4  1  0.33559700  0.30686100  0.01623700  1
  N  N5  1  0.83559700  0.69313900  0.48376300  1
  N  N6  1  0.66440300  0.69313900  0.98376300  1
  N  N7  1  0.16440300  0.30686100  0.51623700  1
  N  N8  1  0.25377100  0.12000800  0.35619600  1
  N  N9  1  0.75377100  0.87999200  0.14380400  1
  N  N10  1  0.74622900  0.87999200  0.64380400  1
  N  N11  1  0.24622900  0.12000800  0.85619600  1
  N  N12  1  0.39684400  0.72974600  0.63953300  1
  N  N13  1  0.89684400  0.27025400  0.86046700  1
  N  N14  1  0.60315600  0.27025400  0.36046700  1
  N  N15  1  0.10315600  0.72974600  0.13953300  1
  O  O0  1  0.08302600  0.56703500  0.84178100  1
  O  O1  1  0.58302600  0.43296500  0.65821900  1
  O  O2  1  0.91697400  0.43296500  0.15821900  1
  O  O3  1  0.41697400  0.56703500  0.34178100  1
  O  O4  1  0.59715700  0.49300800  0.79041500  1
  O  O5  1  0.09715700  0.50699200  0.70958500  1
  O  O6  1  0.40284300  0.50699200  0.20958500  1
  O  O7  1  0.90284300  0.49300800  0.29041500  1
  O  O8  1  0.04318700  0.72953100  0.65251300  1
  O  O9  1  0.54318700  0.27046900  0.84748700  1
  O  O10  1  0.95681300  0.27046900  0.34748700  1
  O  O11  1  0.45681300  0.72953100  0.15251300  1
  O  O12  1  0.28957500  0.42501800  0.92895900  1
  O  O13  1  0.78957500  0.57498200  0.57104100  1
  O  O14  1  0.71042500  0.57498200  0.07104100  1
  O  O15  1  0.21042500  0.42501800  0.42895900  1
  O  O16  1  0.78273400  0.81118300  0.45193600  1
  O  O17  1  0.28273400  0.18881700  0.04806400  1
  O  O18  1  0.21726600  0.18881700  0.54806400  1
  O  O19  1  0.71726600  0.81118300  0.95193600  1
  O  O20  1  0.42292400  0.31060700  0.06466100  1
  O  O21  1  0.92292400  0.68939300  0.43533900  1
  O  O22  1  0.57707600  0.68939300  0.93533900  1
  O  O23  1  0.07707600  0.31060700  0.56466100  1
  O  O24  1  0.75479900  0.73959000  0.70636300  1
  O  O25  1  0.25479900  0.26041000  0.79363700  1
  O  O26  1  0.24520100  0.26041000  0.29363700  1
  O  O27  1  0.74520100  0.73959000  0.20636300  1
  O  O28  1  0.67358500  0.93372500  0.55906400  1
  O  O29  1  0.17358500  0.06627500  0.94093600  1
  O  O30  1  0.32641500  0.06627500  0.44093600  1
  O  O31  1  0.82641500  0.93372500  0.05906400  1
  O  O32  1  0.19527100  0.04236600  0.33510300  1
  O  O33  1  0.69527100  0.95763400  0.16489700  1
  O  O34  1  0.80472900  0.95763400  0.66489700  1
  O  O35  1  0.30472900  0.04236600  0.83510300  1
  O  O36  1  0.47751600  0.77805900  0.67302500  1
  O  O37  1  0.97751600  0.22194100  0.82697500  1
  O  O38  1  0.52248400  0.22194100  0.32697500  1
  O  O39  1  0.02248400  0.77805900  0.17302500  1
  O  O40  1  0.29706100  0.73297000  0.66427500  1
  O  O41  1  0.79706100  0.26703000  0.83572500  1
  O  O42  1  0.70293900  0.26703000  0.33572500  1
  O  O43  1  0.20293900  0.73297000  0.16427500  1
  O  O44  1  0.42663200  0.67568000  0.57690700  1
  O  O45  1  0.92663200  0.32432000  0.92309300  1
  O  O46  1  0.57336800  0.32432000  0.42309300  1
  O  O47  1  0.07336800  0.67568000  0.07690700  1
  O  O48  1  0.50168700  0.86832000  0.35061000  1
  O  O49  1  0.00168700  0.13168000  0.14939000  1
  O  O50  1  0.49831300  0.13168000  0.64939000  1
  O  O51  1  0.99831300  0.86832000  0.85061000  1
  O  O52  1  0.07384900  0.24112900  0.11325100  1
  O  O53  1  0.57384900  0.75887100  0.38674900  1
  O  O54  1  0.92615100  0.75887100  0.88674900  1
  O  O55  1  0.42615100  0.24112900  0.61325100  1
  O  O56  1  0.96110000  0.07507000  0.25281100  1
  O  O57  1  0.46110000  0.92493000  0.24718900  1
  O  O58  1  0.03890000  0.92493000  0.74718900  1
  O  O59  1  0.53890000  0.07507000  0.75281100  1
loop_
_geom_bond_atom_site_label_1
_geom_bond_atom_site_label_2
_geom_bond_distance
_geom_bond_site_symmetry_2
Cs0 O20 3.077414 1_555
Cs0 O14 3.113738 1_555
Cs0 O33 3.139408 1_545
Cs0 O4 3.298961 1_554
Cs0 O45 3.396196 1_554
Cs0 O42 3.409851 1_555
Cs0 O9 3.495775 1_554
Cs0 O41 3.531776 1_554
Cs0 O38 3.615898 1_555
Cs0 O2 3.662304 1_555
Cs1 O21 3.077414 1_455
Cs1 O15 3.113738 1_555
Cs1 O32 3.139408 1_565
Cs1 O5 3.298961 1_555
Cs1 O44 3.396196 1_555
Cs1 O43 3.409851 1_555
Cs1 O8 3.495775 1_555
Cs1 O40 3.531776 1_555
Cs1 O39 3.615898 1_555
Cs1 O3 3.662304 1_555
Cs2 O22 3.077414 1_555
Cs2 O12 3.113738 1_555
Cs2 O35 3.139408 1_565
Cs2 O6 3.298961 1_556
Cs2 O47 3.396196 1_556
Cs2 O40 3.409851 1_555
Cs2 O11 3.495775 1_556
Cs2 O43 3.531776 1_556
Cs2 O36 3.615898 1_555
Cs2 O0 3.662304 1_555
Cs3 O23 3.077414 1_655
Cs3 O13 3.113738 1_555
Cs3 O34 3.139408 1_545
Cs3 O7 3.298961 1_555
Cs3 O46 3.396196 1_555
Cs3 O41 3.409851 1_555
Cs3 O10 3.495775 1_555
Cs3 O42 3.531776 1_555
Cs3 O37 3.615898 1_555
Cs3 O1 3.662304 1_555
Dy0 O4 2.342316 1_555
Dy0 O24 2.360399 1_555
Dy0 O13 2.405525 1_555
Dy0 O44 2.407357 1_555
Dy0 O16 2.457209 1_555
Dy0 O28 2.481725 1_555
Dy0 O36 2.488535 1_555
Dy0 O1 2.511616 1_555
Dy0 O53 2.537284 1_555
Dy1 O5 2.342316 1_555
Dy1 O25 2.360399 1_555
Dy1 O12 2.405525 1_555
Dy1 O45 2.407357 1_455
Dy1 O17 2.457209 1_556
Dy1 O29 2.481725 1_555
Dy1 O37 2.488535 1_455
Dy1 O0 2.511616 1_555
Dy1 O52 2.537284 1_556
Dy2 O6 2.342316 1_555
Dy2 O26 2.360399 1_555
Dy2 O15 2.405525 1_555
Dy2 O46 2.407357 1_555
Dy2 O18 2.457209 1_555
Dy2 O30 2.481725 1_555
Dy2 O38 2.488535 1_555
Dy2 O3 2.511616 1_555
Dy2 O55 2.537284 1_555
Dy3 O7 2.342316 1_555
Dy3 O27 2.360399 1_555
Dy3 O14 2.405525 1_555
Dy3 O47 2.407357 1_655
Dy3 O19 2.457209 1_554
Dy3 O31 2.481725 1_555
Dy3 O39 2.488535 1_655
Dy3 O2 2.511616 1_555
Dy3 O54 2.537284 1_554
N0 O8 1.223179 1_555
N0 O0 1.285025 1_555
N0 O5 1.308895 1_555
N1 O9 1.223179 1_555
N1 O1 1.285025 1_555
N1 O4 1.308895 1_555
N2 O10 1.223179 1_555
N2 O2 1.285025 1_555
N2 O7 1.308895 1_555
N3 O11 1.223179 1_555
N3 O3 1.285025 1_555
N3 O6 1.308895 1_555
N4 O20 1.229919 1_555
N4 O17 1.278974 1_555
N4 O12 1.301379 1_554
N5 O21 1.229919 1_555
N5 O16 1.278974 1_555
N5 O13 1.301379 1_555
N6 O22 1.229919 1_555
N6 O19 1.278974 1_555
N6 O14 1.301379 1_556
N7 O23 1.229919 1_555
N7 O18 1.278974 1_555
N7 O15 1.301379 1_555
N8 O32 1.235155 1_555
N8 O30 1.281845 1_555
N8 O26 1.292440 1_555
N9 O33 1.235155 1_555
N9 O31 1.281845 1_555
N9 O27 1.292440 1_555
N10 O34 1.235155 1_555
N10 O28 1.281845 1_555
N10 O24 1.292440 1_555
N11 O35 1.235155 1_555
N11 O29 1.281845 1_555
N11 O25 1.292440 1_555
N12 O40 1.231567 1_555
N12 O36 1.279628 1_555
N12 O44 1.299664 1_555
N13 O41 1.231567 1_555
N13 O37 1.279628 1_555
N13 O45 1.299664 1_555
N14 O42 1.231567 1_555
N14 O38 1.279628 1_555
N14 O46 1.299664 1_555
N15 O43 1.231567 1_555
N15 O39 1.279628 1_555
N15 O47 1.299664 1_555
O48 O57 1.261490 1_555
O48 O53 1.327961 1_555
O49 O56 1.261490 1_455
O49 O52 1.327961 1_555
O50 O59 1.261490 1_555
O50 O55 1.327961 1_555
O51 O58 1.261490 1_655
O51 O54 1.327961 1_555
