# generated using pymatgen
data_Li2FeNiO4
_symmetry_space_group_name_H-M   'P 1'
_cell_length_a   5.16549315
_cell_length_b   5.78231900
_cell_length_c   5.16552338
_cell_angle_alpha   90.00176808
_cell_angle_beta   68.08792032
_cell_angle_gamma   90.00172203
_symmetry_Int_Tables_number   1
_chemical_formula_structural   Li2FeNiO4
_chemical_formula_sum   'Li4 Fe2 Ni2 O8'
_cell_volume   143.14055197
_cell_formula_units_Z   2
loop_
 _symmetry_equiv_pos_site_id
 _symmetry_equiv_pos_as_xyz
  1  'x, y, z'
loop_
 _atom_site_type_symbol
 _atom_site_label
 _atom_site_symmetry_multiplicity
 _atom_site_fract_x
 _atom_site_fract_y
 _atom_site_fract_z
 _atom_site_occupancy
  Li  Li0  1  0.50000500  0.25000900  0.99999500  1
  Li  Li1  1  0.99998600  0.74999300  0.50001400  1
  Li  Li2  1  0.50000900  0.00076700  0.50000100  1
  Li  Li3  1  0.99999800  0.49923100  0.99999200  1
  Fe  Fe0  1  0.49998400  0.75001200  0.00001600  1
  Fe  Fe1  1  0.99996000  0.24998800  0.50003900  1
  Ni  Ni0  1  0.00002500  0.00039600  0.99999400  1
  Ni  Ni1  1  0.50000800  0.49960400  0.49997600  1
  O  O0  1  0.76800100  0.24985800  0.26769900  1
  O  O1  1  0.26603800  0.75014800  0.76633300  1
  O  O2  1  0.23230300  0.25016300  0.73199700  1
  O  O3  1  0.73366900  0.74983200  0.23396000  1
  O  O4  1  0.72857700  0.49981700  0.72882500  1
  O  O5  1  0.22887200  0.00017200  0.22861300  1
  O  O6  1  0.77116300  0.00018300  0.77140700  1
  O  O7  1  0.27140300  0.49982800  0.27114000  1
loop_
_geom_bond_atom_site_label_1
_geom_bond_atom_site_label_2
_geom_bond_distance
_geom_bond_site_symmetry_2
Li0 O4 2.051397 1_555
Li0 O7 2.051421 1_556
Li0 O6 2.051465 1_555
Li0 O5 2.051491 1_556
Li0 O0 2.292894 1_556
Li0 O2 2.292894 1_555
Li1 O4 2.053859 1_555
Li1 O6 2.053897 1_565
Li1 O7 2.053946 1_655
Li1 O5 2.053987 1_665
Li1 O3 2.278646 1_555
Li1 O1 2.278646 1_655
Li2 O0 2.047178 1_555
Li2 O2 2.047223 1_555
Li2 O1 2.052420 1_545
Li2 O3 2.052482 1_545
Li2 O5 2.322109 1_555
Li2 O6 2.322259 1_555
Li3 O2 2.047097 1_655
Li3 O0 2.047137 1_556
Li3 O3 2.052332 1_556
Li3 O1 2.052405 1_655
Li3 O7 2.322229 1_656
Li3 O4 2.322379 1_555
Fe0 O1 2.001538 1_554
Fe0 O3 2.001538 1_555
Fe0 O5 2.052729 1_565
Fe0 O7 2.052833 1_555
Fe0 O6 2.052948 1_564
Fe0 O4 2.053048 1_554
Fe1 O0 1.987285 1_555
Fe1 O2 1.987294 1_655
Fe1 O6 2.052237 1_555
Fe1 O4 2.052350 1_555
Fe1 O5 2.052602 1_655
Fe1 O7 2.052719 1_655
Ni0 O6 1.957966 1_455
Ni0 O5 1.958039 1_556
Ni0 O0 2.047532 1_456
Ni0 O1 2.049618 1_545
Ni0 O2 2.049910 1_555
Ni0 O3 2.052235 1_446
Ni1 O4 1.957833 1_555
Ni1 O7 1.957932 1_555
Ni1 O2 2.047441 1_555
Ni1 O3 2.049546 1_555
Ni1 O0 2.049810 1_555
Ni1 O1 2.052162 1_555
