# generated using pymatgen
data_Li6Mn5O10
_symmetry_space_group_name_H-M   'P 1'
_cell_length_a   7.93512604
_cell_length_b   7.93512604
_cell_length_c   5.17595201
_cell_angle_alpha   88.98431055
_cell_angle_beta   88.98431055
_cell_angle_gamma   137.56036859
_symmetry_Int_Tables_number   1
_chemical_formula_structural   Li6Mn5O10
_chemical_formula_sum   'Li6 Mn5 O10'
_cell_volume   219.66450912
_cell_formula_units_Z   1
loop_
 _symmetry_equiv_pos_site_id
 _symmetry_equiv_pos_as_xyz
  1  'x, y, z'
loop_
 _atom_site_type_symbol
 _atom_site_label
 _atom_site_symmetry_multiplicity
 _atom_site_fract_x
 _atom_site_fract_y
 _atom_site_fract_z
 _atom_site_occupancy
  Li  Li0  1  0.26784900  0.08368300  0.39903400  1
  Li  Li1  1  0.55117300  0.12205400  0.59953600  1
  Li  Li2  1  0.88845800  0.68361000  0.58616000  1
  Li  Li3  1  0.08368300  0.26784900  0.39903400  1
  Li  Li4  1  0.12205400  0.55117300  0.59953600  1
  Li  Li5  1  0.68361000  0.88845800  0.58616000  1
  Mn  Mn0  1  0.02035300  0.02035300  0.96889200  1
  Mn  Mn1  1  0.62749200  0.43089500  0.03290700  1
  Mn  Mn2  1  0.80462100  0.21203500  0.02058200  1
  Mn  Mn3  1  0.21203500  0.80462100  0.02058200  1
  Mn  Mn4  1  0.43089500  0.62749200  0.03290700  1
  O  O0  1  0.34871200  0.34871200  0.20275700  1
  O  O1  1  0.23467400  0.99562900  0.75258100  1
  O  O2  1  0.55367900  0.16676900  0.22546000  1
  O  O3  1  0.66411600  0.66411600  0.81240100  1
  O  O4  1  0.98234500  0.76557400  0.22829700  1
  O  O5  1  0.82546700  0.43215900  0.79686200  1
  O  O6  1  0.16676900  0.55367900  0.22546000  1
  O  O7  1  0.99562900  0.23467400  0.75258100  1
  O  O8  1  0.43215900  0.82546700  0.79686200  1
  O  O9  1  0.76557400  0.98234500  0.22829700  1
loop_
_geom_bond_atom_site_label_1
_geom_bond_atom_site_label_2
_geom_bond_distance
_geom_bond_site_symmetry_2
Li0 O1 1.890054 1_545
Li0 O0 1.943194 1_555
Li0 O4 1.998673 1_445
Li0 O2 2.021320 1_555
Li1 O2 1.959343 1_555
Li1 O8 2.018387 1_545
Li1 O5 2.024458 1_555
Li1 O1 2.030745 1_545
Li2 O4 1.897941 1_555
Li2 O5 1.962628 1_555
Li2 O3 2.019277 1_555
Li2 O1 2.130616 1_655
Li3 O7 1.890054 1_455
Li3 O0 1.943194 1_555
Li3 O9 1.998673 1_445
Li3 O6 2.021320 1_555
Li4 O6 1.959343 1_555
Li4 O5 2.018387 1_455
Li4 O8 2.024458 1_555
Li4 O7 2.030745 1_455
Li5 O9 1.897941 1_555
Li5 O8 1.962628 1_555
Li5 O3 2.019277 1_555
Li5 O7 2.130616 1_565
Mn0 O7 2.148727 1_455
Mn0 O1 2.148727 1_545
Mn0 O4 2.229450 1_446
Mn0 O9 2.229450 1_446
Mn0 O3 2.237353 1_445
Mn0 O0 2.290516 1_556
Mn1 O2 1.955098 1_555
Mn1 O5 1.966967 1_554
Mn1 O0 1.968055 1_555
Mn1 O3 1.982799 1_554
Mn1 O4 2.272272 1_555
Mn2 O9 1.912859 1_545
Mn2 O7 1.941262 1_554
Mn2 O5 1.978456 1_554
Mn2 O2 2.018565 1_555
Mn2 O6 2.333105 1_655
Mn2 O8 2.520209 1_544
Mn3 O4 1.912859 1_455
Mn3 O1 1.941262 1_554
Mn3 O8 1.978456 1_554
Mn3 O6 2.018565 1_555
Mn3 O2 2.333105 1_565
Mn3 O5 2.520209 1_454
Mn4 O6 1.955098 1_555
Mn4 O8 1.966967 1_554
Mn4 O0 1.968055 1_555
Mn4 O3 1.982799 1_554
Mn4 O9 2.272272 1_555
