# generated using pymatgen
data_Mn5SnO12
_symmetry_space_group_name_H-M   'P 1'
_cell_length_a   5.16405981
_cell_length_b   5.16405981
_cell_length_c   10.56085996
_cell_angle_alpha   89.97518916
_cell_angle_beta   89.97518916
_cell_angle_gamma   120.03356091
_symmetry_Int_Tables_number   1
_chemical_formula_structural   Mn5SnO12
_chemical_formula_sum   'Mn5 Sn1 O12'
_cell_volume   243.81774476
_cell_formula_units_Z   1
loop_
 _symmetry_equiv_pos_site_id
 _symmetry_equiv_pos_as_xyz
  1  'x, y, z'
loop_
 _atom_site_type_symbol
 _atom_site_label
 _atom_site_symmetry_multiplicity
 _atom_site_fract_x
 _atom_site_fract_y
 _atom_site_fract_z
 _atom_site_occupancy
  Mn  Mn0  1  0.83325300  0.16674700  0.50000000  1
  Mn  Mn1  1  0.33332700  0.66667300  0.00000000  1
  Mn  Mn2  1  0.66667300  0.33332700  0.00000000  1
  Mn  Mn3  1  0.16674700  0.83325300  0.50000000  1
  Mn  Mn4  1  0.50000000  0.50000000  0.50000000  1
  Sn  Sn0  1  0.00000000  0.00000000  0.00000000  1
  O  O0  1  0.00007300  0.35467800  0.90511600  1
  O  O1  1  0.64532200  0.99992700  0.09488400  1
  O  O2  1  0.83314900  0.49989000  0.58839200  1
  O  O3  1  0.49989000  0.83314900  0.58839200  1
  O  O4  1  0.50011000  0.16685100  0.41160800  1
  O  O5  1  0.83366100  0.83366100  0.41153700  1
  O  O6  1  0.16685100  0.50011000  0.41160800  1
  O  O7  1  0.35467800  0.00007300  0.90511600  1
  O  O8  1  0.64555100  0.64555100  0.90510600  1
  O  O9  1  0.99992700  0.64532200  0.09488400  1
  O  O10  1  0.35444900  0.35444900  0.09489400  1
  O  O11  1  0.16633900  0.16633900  0.58846300  1
loop_
_geom_bond_atom_site_label_1
_geom_bond_atom_site_label_2
_geom_bond_distance
_geom_bond_site_symmetry_2
Mn0 O3 1.957370 1_545
Mn0 O6 1.957370 1_655
Mn0 O4 1.957908 1_555
Mn0 O2 1.957908 1_555
Mn0 O11 1.958698 1_655
Mn0 O5 1.958698 1_545
Mn1 O7 1.946511 1_564
Mn1 O9 1.946511 1_455
Mn1 O0 1.946527 1_554
Mn1 O1 1.946527 1_555
Mn1 O10 1.946951 1_555
Mn1 O8 1.946951 1_554
Mn2 O1 1.946511 1_545
Mn2 O0 1.946511 1_654
Mn2 O7 1.946527 1_554
Mn2 O9 1.946527 1_555
Mn2 O10 1.946951 1_555
Mn2 O8 1.946951 1_554
Mn3 O2 1.957370 1_455
Mn3 O4 1.957370 1_565
Mn3 O6 1.957908 1_555
Mn3 O3 1.957908 1_555
Mn3 O11 1.958698 1_565
Mn3 O5 1.958698 1_455
Mn4 O4 1.957949 1_555
Mn4 O2 1.957949 1_555
Mn4 O6 1.957949 1_555
Mn4 O3 1.957949 1_555
Mn4 O11 1.958545 1_555
Mn4 O5 1.958545 1_555
O0 Sn0 2.087227 1_556
O1 Sn0 2.087227 1_665
O7 Sn0 2.087227 1_556
O8 Sn0 2.086734 1_666
O9 Sn0 2.087227 1_665
O10 Sn0 2.086734 1_555
