# generated using pymatgen
data_Na8Co2O7
_symmetry_space_group_name_H-M   'P 1'
_cell_length_a   11.01503400
_cell_length_b   8.65290500
_cell_length_c   10.10181895
_cell_angle_alpha   73.38541132
_cell_angle_beta   90.00000000
_cell_angle_gamma   90.00000000
_symmetry_Int_Tables_number   1
_chemical_formula_structural   Na8Co2O7
_chemical_formula_sum   'Na32 Co8 O28'
_cell_volume   922.62686464
_cell_formula_units_Z   4
loop_
 _symmetry_equiv_pos_site_id
 _symmetry_equiv_pos_as_xyz
  1  'x, y, z'
loop_
 _atom_site_type_symbol
 _atom_site_label
 _atom_site_symmetry_multiplicity
 _atom_site_fract_x
 _atom_site_fract_y
 _atom_site_fract_z
 _atom_site_occupancy
  Na  Na0  1  0.52375200  0.87843300  0.92284500  1
  Na  Na1  1  0.54093100  0.91953900  0.64560300  1
  Na  Na2  1  0.25886500  0.89433800  0.53253300  1
  Na  Na3  1  0.97624800  0.87843300  0.42284500  1
  Na  Na4  1  0.05496700  0.74441900  0.71498800  1
  Na  Na5  1  0.95906900  0.91953900  0.14560300  1
  Na  Na6  1  0.75011400  0.71428700  0.56887400  1
  Na  Na7  1  0.24113500  0.89433800  0.03253300  1
  Na  Na8  1  0.52657600  0.56791900  0.85618100  1
  Na  Na9  1  0.49536000  0.66051800  0.51575800  1
  Na  Na10  1  0.44503300  0.74441900  0.21498800  1
  Na  Na11  1  0.76819000  0.50103200  0.87346500  1
  Na  Na12  1  0.74988600  0.71428700  0.06887400  1
  Na  Na13  1  0.26819000  0.49896800  0.62653500  1
  Na  Na14  1  0.97342400  0.56791900  0.35618100  1
  Na  Na15  1  0.99536000  0.33948200  0.98424200  1
  Na  Na16  1  0.00464000  0.66051800  0.01575800  1
  Na  Na17  1  0.02657600  0.43208100  0.64381900  1
  Na  Na18  1  0.73181000  0.50103200  0.37346500  1
  Na  Na19  1  0.25011400  0.28571300  0.93112600  1
  Na  Na20  1  0.23181000  0.49896800  0.12653500  1
  Na  Na21  1  0.55496700  0.25558100  0.78501200  1
  Na  Na22  1  0.50464000  0.33948200  0.48424200  1
  Na  Na23  1  0.47342400  0.43208100  0.14381900  1
  Na  Na24  1  0.75886500  0.10566200  0.96746700  1
  Na  Na25  1  0.24988600  0.28571300  0.43112600  1
  Na  Na26  1  0.04093100  0.08046100  0.85439700  1
  Na  Na27  1  0.94503300  0.25558100  0.28501200  1
  Na  Na28  1  0.02375200  0.12156700  0.57715500  1
  Na  Na29  1  0.74113500  0.10566200  0.46746700  1
  Na  Na30  1  0.45906900  0.08046100  0.35439700  1
  Na  Na31  1  0.47624800  0.12156700  0.07715500  1
  Co  Co0  1  0.80148000  0.90700400  0.77305600  1
  Co  Co1  1  0.69852000  0.90700400  0.27305600  1
  Co  Co2  1  0.28602900  0.69056700  0.84544800  1
  Co  Co3  1  0.21397100  0.69056700  0.34544800  1
  Co  Co4  1  0.78602900  0.30943300  0.65455200  1
  Co  Co5  1  0.71397100  0.30943300  0.15455200  1
  Co  Co6  1  0.30148000  0.09299600  0.72694400  1
  Co  Co7  1  0.19852000  0.09299600  0.22694400  1
  O  O0  1  0.88846400  0.89223900  0.93405000  1
  O  O1  1  0.20056000  0.89802800  0.78433500  1
  O  O2  1  0.88907000  0.89854400  0.62104200  1
  O  O3  1  0.61153600  0.89223900  0.43405000  1
  O  O4  1  0.67469200  0.75097100  0.81905000  1
  O  O5  1  0.29944000  0.89802800  0.28433500  1
  O  O6  1  0.61093000  0.89854400  0.12104200  1
  O  O7  1  0.38130300  0.68204400  0.69905600  1
  O  O8  1  0.82530800  0.75097100  0.31905000  1
  O  O9  1  0.15076900  0.54318700  0.89574600  1
  O  O10  1  0.11689500  0.67005700  0.50535200  1
  O  O11  1  0.11869700  0.68204400  0.19905600  1
  O  O12  1  0.34923100  0.54318700  0.39574600  1
  O  O13  1  0.61689500  0.32994300  0.99464800  1
  O  O14  1  0.38310500  0.67005700  0.00535200  1
  O  O15  1  0.65076900  0.45681300  0.60425400  1
  O  O16  1  0.88130300  0.31795600  0.80094400  1
  O  O17  1  0.88310500  0.32994300  0.49464800  1
  O  O18  1  0.84923100  0.45681300  0.10425400  1
  O  O19  1  0.17469200  0.24902900  0.68095000  1
  O  O20  1  0.61869700  0.31795600  0.30094400  1
  O  O21  1  0.38907000  0.10145600  0.87895800  1
  O  O22  1  0.70056000  0.10197200  0.71566500  1
  O  O23  1  0.32530800  0.24902900  0.18095000  1
  O  O24  1  0.38846400  0.10776100  0.56595000  1
  O  O25  1  0.11093000  0.10145600  0.37895800  1
  O  O26  1  0.79944000  0.10197200  0.21566500  1
  O  O27  1  0.11153600  0.10776100  0.06595000  1
loop_
_geom_bond_atom_site_label_1
_geom_bond_atom_site_label_2
_geom_bond_distance
_geom_bond_site_symmetry_2
Na0 O6 2.271618 1_556
Na0 O14 2.342309 1_556
Na0 O21 2.373237 1_565
Na0 O4 2.396123 1_555
Na1 O24 2.317555 1_565
Na1 O3 2.348703 1_555
Na1 O4 2.430400 1_555
Na1 O22 2.592954 1_565
Na1 O7 2.640409 1_555
Na2 O24 2.432844 1_565
Na2 O7 2.501185 1_555
Na2 O5 2.537971 1_555
Na2 O10 2.567460 1_555
Na2 O25 2.585343 1_565
Na2 O1 2.632513 1_555
Na3 O2 2.271618 1_555
Na3 O10 2.342309 1_655
Na3 O25 2.373237 1_665
Na3 O8 2.396123 1_555
Na4 O2 2.301018 1_455
Na4 O1 2.315553 1_555
Na4 O9 2.379388 1_555
Na4 O10 2.478559 1_555
Na5 O27 2.317555 1_665
Na5 O0 2.348703 1_554
Na5 O8 2.430400 1_555
Na5 O26 2.592954 1_565
Na5 O11 2.640409 1_655
Na6 O3 2.314450 1_555
Na6 O2 2.375487 1_555
Na6 O15 2.415240 1_555
Na6 O8 2.587976 1_555
Na6 O4 2.763440 1_555
Na7 O27 2.432844 1_565
Na7 O11 2.501185 1_555
Na7 O1 2.537971 1_554
Na7 O14 2.567460 1_555
Na7 O21 2.585343 1_564
Na7 O5 2.632513 1_555
Na8 O4 2.229704 1_555
Na8 O7 2.271295 1_555
Na8 O13 2.353592 1_555
Na8 O14 2.512150 1_556
Na9 O7 2.288865 1_555
Na9 O3 2.322222 1_555
Na9 O12 2.407331 1_555
Na9 O15 2.436257 1_555
Na10 O6 2.301018 1_555
Na10 O5 2.315553 1_555
Na10 O12 2.379388 1_555
Na10 O14 2.478559 1_555
Na11 O16 2.293956 1_555
Na11 O4 2.315220 1_555
Na11 O13 2.330479 1_555
Na11 O18 2.422500 1_556
Na12 O0 2.314450 1_554
Na12 O6 2.375487 1_555
Na12 O18 2.415240 1_555
Na12 O4 2.587976 1_554
Na12 O8 2.763440 1_555
Na13 O7 2.293956 1_555
Na13 O19 2.315220 1_555
Na13 O10 2.330479 1_555
Na13 O12 2.422500 1_555
Na14 O8 2.229704 1_555
Na14 O11 2.271295 1_655
Na14 O17 2.353592 1_555
Na14 O10 2.512150 1_655
Na15 O16 2.288865 1_555
Na15 O27 2.322222 1_656
Na15 O18 2.407331 1_556
Na15 O9 2.436257 1_655
Na16 O11 2.288865 1_555
Na16 O0 2.322222 1_454
Na16 O9 2.407331 1_554
Na16 O18 2.436257 1_455
Na17 O19 2.229704 1_555
Na17 O16 2.271295 1_455
Na17 O10 2.353592 1_555
Na17 O17 2.512150 1_455
Na18 O20 2.293956 1_555
Na18 O8 2.315220 1_555
Na18 O17 2.330479 1_555
Na18 O15 2.422500 1_555
Na19 O27 2.314450 1_556
Na19 O21 2.375487 1_555
Na19 O9 2.415240 1_555
Na19 O23 2.587976 1_556
Na19 O19 2.763440 1_555
Na20 O11 2.293956 1_555
Na20 O23 2.315220 1_555
Na20 O14 2.330479 1_555
Na20 O9 2.422500 1_554
Na21 O21 2.301018 1_555
Na21 O22 2.315553 1_555
Na21 O15 2.379388 1_555
Na21 O13 2.478559 1_555
Na22 O20 2.288865 1_555
Na22 O24 2.322222 1_555
Na22 O15 2.407331 1_555
Na22 O12 2.436257 1_555
Na23 O23 2.229704 1_555
Na23 O20 2.271295 1_555
Na23 O14 2.353592 1_555
Na23 O13 2.512150 1_554
Na24 O0 2.432844 1_545
Na24 O16 2.501185 1_555
Na24 O26 2.537971 1_556
Na24 O13 2.567460 1_555
Na24 O6 2.585343 1_546
Na24 O22 2.632513 1_555
Na25 O24 2.314450 1_555
Na25 O25 2.375487 1_555
Na25 O12 2.415240 1_555
Na25 O19 2.587976 1_555
Na25 O23 2.763440 1_555
Na26 O0 2.317555 1_445
Na26 O27 2.348703 1_556
Na26 O19 2.430400 1_555
Na26 O1 2.592954 1_545
Na26 O16 2.640409 1_455
Na27 O25 2.301018 1_655
Na27 O26 2.315553 1_555
Na27 O18 2.379388 1_555
Na27 O17 2.478559 1_555
Na28 O25 2.271618 1_555
Na28 O17 2.342309 1_455
Na28 O2 2.373237 1_445
Na28 O19 2.396123 1_555
Na29 O3 2.432844 1_545
Na29 O20 2.501185 1_555
Na29 O22 2.537971 1_555
Na29 O17 2.567460 1_555
Na29 O2 2.585343 1_545
Na29 O26 2.632513 1_555
Na30 O3 2.317555 1_545
Na30 O24 2.348703 1_555
Na30 O23 2.430400 1_555
Na30 O5 2.592954 1_545
Na30 O20 2.640409 1_555
Na31 O21 2.271618 1_554
Na31 O13 2.342309 1_554
Na31 O6 2.373237 1_545
Na31 O23 2.396123 1_555
Co0 O2 1.832653 1_555
Co0 O0 1.860235 1_555
Co0 O4 1.905370 1_555
Co0 O22 1.964340 1_565
Co1 O6 1.832653 1_555
Co1 O3 1.860235 1_555
Co1 O8 1.905370 1_555
Co1 O26 1.964340 1_565
Co2 O7 1.831958 1_555
Co2 O14 1.902686 1_556
Co2 O9 1.932279 1_555
Co2 O1 1.963723 1_555
Co3 O11 1.831958 1_555
Co3 O10 1.902686 1_555
Co3 O12 1.932279 1_555
Co3 O5 1.963723 1_555
Co4 O16 1.831958 1_555
Co4 O17 1.902686 1_555
Co4 O15 1.932279 1_555
Co4 O22 1.963723 1_555
Co5 O20 1.831958 1_555
Co5 O13 1.902686 1_554
Co5 O18 1.932279 1_555
Co5 O26 1.963723 1_555
Co6 O21 1.832653 1_555
Co6 O24 1.860235 1_555
Co6 O19 1.905370 1_555
Co6 O1 1.964340 1_545
Co7 O25 1.832653 1_555
Co7 O27 1.860235 1_555
Co7 O23 1.905370 1_555
Co7 O5 1.964340 1_545
