# generated using pymatgen
data_Li4Zr3O8
_symmetry_space_group_name_H-M   'P 1'
_cell_length_a   6.20755500
_cell_length_b   5.46528800
_cell_length_c   10.19813364
_cell_angle_alpha   80.25645799
_cell_angle_beta   90.00000000
_cell_angle_gamma   90.00000000
_symmetry_Int_Tables_number   1
_chemical_formula_structural   Li4Zr3O8
_chemical_formula_sum   'Li8 Zr6 O16'
_cell_volume   340.99190438
_cell_formula_units_Z   2
loop_
 _symmetry_equiv_pos_site_id
 _symmetry_equiv_pos_as_xyz
  1  'x, y, z'
loop_
 _atom_site_type_symbol
 _atom_site_label
 _atom_site_symmetry_multiplicity
 _atom_site_fract_x
 _atom_site_fract_y
 _atom_site_fract_z
 _atom_site_occupancy
  Li  Li0  1  0.37265500  0.74333100  0.49237000  1
  Li  Li1  1  0.62734500  0.25666900  0.50763000  1
  Li  Li2  1  0.37265500  0.25666900  0.00763000  1
  Li  Li3  1  0.62734500  0.74333100  0.99237000  1
  Li  Li4  1  0.85747200  0.50000000  0.25000000  1
  Li  Li5  1  0.12291700  0.00000000  0.25000000  1
  Li  Li6  1  0.87708300  0.00000000  0.75000000  1
  Li  Li7  1  0.14252800  0.50000000  0.75000000  1
  Zr  Zr0  1  0.86128700  0.73466700  0.51990000  1
  Zr  Zr1  1  0.60311400  0.00000000  0.25000000  1
  Zr  Zr2  1  0.13871300  0.26533300  0.48010000  1
  Zr  Zr3  1  0.39688600  0.00000000  0.75000000  1
  Zr  Zr4  1  0.86128700  0.26533300  0.98010000  1
  Zr  Zr5  1  0.13871300  0.73466700  0.01990000  1
  O  O0  1  0.37315900  0.89835300  0.12458800  1
  O  O1  1  0.37315900  0.10164700  0.37541200  1
  O  O2  1  0.87565300  0.10910300  0.37851200  1
  O  O3  1  0.12434700  0.89089700  0.62148800  1
  O  O4  1  0.89540700  0.37759900  0.61078000  1
  O  O5  1  0.64176200  0.65826000  0.37942300  1
  O  O6  1  0.87565300  0.89089700  0.12148800  1
  O  O7  1  0.10459300  0.62240100  0.38922000  1
  O  O8  1  0.64176200  0.34174000  0.12057700  1
  O  O9  1  0.35823800  0.65826000  0.87942300  1
  O  O10  1  0.35823800  0.34174000  0.62057700  1
  O  O11  1  0.12434700  0.10910300  0.87851200  1
  O  O12  1  0.62684100  0.89835300  0.62458800  1
  O  O13  1  0.89540700  0.62240100  0.88922000  1
  O  O14  1  0.62684100  0.10164700  0.87541200  1
  O  O15  1  0.10459300  0.37759900  0.11078000  1
loop_
_geom_bond_atom_site_label_1
_geom_bond_atom_site_label_2
_geom_bond_distance
_geom_bond_site_symmetry_2
Li0 O1 2.113529 1_565
Li0 O5 2.124794 1_555
Li0 O7 2.132519 1_555
Li0 O3 2.262655 1_555
Li0 O12 2.326434 1_555
Li0 O10 2.358681 1_555
Li1 O12 2.113529 1_545
Li1 O10 2.124794 1_555
Li1 O4 2.132519 1_555
Li1 O2 2.262655 1_555
Li1 O1 2.326434 1_555
Li1 O5 2.358681 1_555
Li2 O0 2.113529 1_545
Li2 O8 2.124794 1_555
Li2 O15 2.132519 1_555
Li2 O11 2.262655 1_554
Li2 O14 2.326434 1_554
Li2 O9 2.358681 1_554
Li3 O14 2.113529 1_565
Li3 O9 2.124794 1_555
Li3 O13 2.132519 1_555
Li3 O6 2.262655 1_556
Li3 O0 2.326434 1_556
Li3 O8 2.358681 1_556
Li4 O5 2.160924 1_555
Li4 O8 2.160924 1_555
Li4 O7 2.266710 1_655
Li4 O15 2.266710 1_655
Li4 O6 2.312298 1_555
Li4 O2 2.312298 1_555
Li5 O1 2.144268 1_555
Li5 O0 2.144268 1_545
Li5 O2 2.166476 1_455
Li5 O6 2.166476 1_445
Li5 O15 2.301260 1_555
Li5 O7 2.301260 1_545
Li6 O14 2.144268 1_555
Li6 O12 2.144268 1_545
Li6 O11 2.166476 1_655
Li6 O3 2.166476 1_645
Li6 O4 2.301260 1_555
Li6 O13 2.301260 1_545
Li7 O9 2.160924 1_555
Li7 O10 2.160924 1_555
Li7 O13 2.266710 1_455
Li7 O4 2.266710 1_455
Li7 O3 2.312298 1_555
Li7 O11 2.312298 1_555
O0 Zr1 2.054872 1_565
O0 Zr5 2.093177 1_555
O1 Zr1 2.054872 1_555
O1 Zr2 2.093177 1_555
O2 Zr2 2.183650 1_655
O2 Zr1 2.280324 1_555
O2 Zr0 2.296960 1_545
O3 Zr0 2.183650 1_455
O3 Zr3 2.280324 1_565
O3 Zr2 2.296960 1_565
O4 Zr0 2.024825 1_555
O4 Zr2 2.170349 1_655
O5 Zr0 2.070316 1_555
O5 Zr1 2.110346 1_565
O6 Zr5 2.183650 1_655
O6 Zr1 2.280324 1_565
O6 Zr4 2.296960 1_564
O7 Zr2 2.024825 1_555
O7 Zr0 2.170349 1_455
O8 Zr4 2.070316 1_554
O8 Zr1 2.110346 1_555
O9 Zr5 2.070316 1_556
O9 Zr3 2.110346 1_565
O10 Zr2 2.070316 1_555
O10 Zr3 2.110346 1_555
O11 Zr4 2.183650 1_455
O11 Zr3 2.280324 1_555
O11 Zr5 2.296960 1_546
O12 Zr3 2.054872 1_565
O12 Zr0 2.093177 1_555
O13 Zr4 2.024825 1_555
O13 Zr5 2.170349 1_656
O14 Zr3 2.054872 1_555
O14 Zr4 2.093177 1_555
O15 Zr5 2.024825 1_555
O15 Zr4 2.170349 1_454
