# generated using pymatgen
data_Li6Fe3Cu(PO4)6
_symmetry_space_group_name_H-M   'P 1'
_cell_length_a   8.52490300
_cell_length_b   8.57576936
_cell_length_c   8.58605241
_cell_angle_alpha   61.71305759
_cell_angle_beta   61.81324718
_cell_angle_gamma   61.81381441
_symmetry_Int_Tables_number   1
_chemical_formula_structural   Li6Fe3Cu(PO4)6
_chemical_formula_sum   'Li6 Fe3 Cu1 P6 O24'
_cell_volume   461.55421327
_cell_formula_units_Z   1
loop_
 _symmetry_equiv_pos_site_id
 _symmetry_equiv_pos_as_xyz
  1  'x, y, z'
loop_
 _atom_site_type_symbol
 _atom_site_label
 _atom_site_symmetry_multiplicity
 _atom_site_fract_x
 _atom_site_fract_y
 _atom_site_fract_z
 _atom_site_occupancy
  Li  Li0  1  0.02459800  0.00299400  0.99210800  1
  Li  Li1  1  0.75492200  0.14852400  0.34925000  1
  Li  Li2  1  0.47444000  0.50609900  0.49417300  1
  Li  Li3  1  0.22008100  0.84861100  0.65852100  1
  Li  Li4  1  0.66188900  0.21954700  0.84718800  1
  Li  Li5  1  0.84550400  0.66250500  0.21773500  1
  Fe  Fe0  1  0.14572800  0.14517200  0.13607000  1
  Fe  Fe1  1  0.35387600  0.36319000  0.35399000  1
  Fe  Fe2  1  0.64645200  0.64612800  0.64811300  1
  Cu  Cu0  1  0.85307000  0.85152300  0.85221800  1
  P  P0  1  0.05061800  0.75010900  0.45321100  1
  P  P1  1  0.45268100  0.05169200  0.74775600  1
  P  P2  1  0.74892100  0.45549700  0.04958800  1
  P  P3  1  0.24884800  0.54471500  0.95587300  1
  P  P4  1  0.54656400  0.96132600  0.24980700  1
  P  P5  1  0.95321800  0.24806400  0.53950100  1
  O  O0  1  0.12331000  0.30199800  0.48944500  1
  O  O1  1  0.31314800  0.50580400  0.11372200  1
  O  O2  1  0.04003300  0.92250800  0.27312300  1
  O  O3  1  0.52992200  0.11573200  0.30677200  1
  O  O4  1  0.24450000  0.59714900  0.42173900  1
  O  O5  1  0.03239700  0.79814200  0.61580800  1
  O  O6  1  0.26381500  0.06383400  0.90847400  1
  O  O7  1  0.44373600  0.23822800  0.58168800  1
  O  O8  1  0.59544600  0.42651800  0.24549400  1
  O  O9  1  0.19348200  0.38297200  0.99125900  1
  O  O10  1  0.08170200  0.73420400  0.95117500  1
  O  O11  1  0.37205200  0.00707200  0.20680600  1
  O  O12  1  0.61568100  0.02832700  0.80091400  1
  O  O13  1  0.90658600  0.26208500  0.06532100  1
  O  O14  1  0.80341000  0.61463400  0.02828500  1
  O  O15  1  0.40020700  0.57859800  0.75863000  1
  O  O16  1  0.57737900  0.76329400  0.40037800  1
  O  O17  1  0.73173300  0.95151800  0.07795200  1
  O  O18  1  0.96664600  0.20057000  0.38132800  1
  O  O19  1  0.75944300  0.40169800  0.58191600  1
  O  O20  1  0.49485500  0.88872200  0.68757800  1
  O  O21  1  0.95397200  0.07982300  0.72763800  1
  O  O22  1  0.68511700  0.49744000  0.89013200  1
  O  O23  1  0.89001900  0.68243000  0.50032200  1
loop_
_geom_bond_atom_site_label_1
_geom_bond_atom_site_label_2
_geom_bond_distance
_geom_bond_site_symmetry_2
Li0 O6 2.052624 1_555
Li0 O2 2.225104 1_546
Li0 O13 2.226838 1_456
Li0 O10 2.284741 1_545
Li0 O21 2.334899 1_455
Li0 O17 2.442488 1_446
Li1 O8 2.096398 1_555
Li1 O13 2.127162 1_555
Li1 O18 2.209072 1_555
Li1 O3 2.271314 1_555
Li1 O2 2.311095 1_645
Li1 O7 2.477485 1_555
Li2 O4 2.021000 1_555
Li2 O7 2.157890 1_555
Li2 O8 2.173503 1_555
Li2 O15 2.356206 1_555
Li2 O16 2.400177 1_555
Li2 O19 2.511407 1_555
Li3 O5 2.059301 1_555
Li3 O15 2.111901 1_555
Li3 O10 2.150498 1_555
Li3 O21 2.241482 1_465
Li4 O12 2.092309 1_555
Li4 O19 2.094068 1_555
Li4 O21 2.149900 1_555
Li4 O17 2.251406 1_546
Li5 O14 2.065605 1_555
Li5 O16 2.112575 1_555
Li5 O17 2.129224 1_555
Li5 O10 2.270003 1_654
Fe0 O11 1.939251 1_555
Fe0 O9 1.942525 1_554
Fe0 O6 2.022082 1_554
Fe0 O13 2.047471 1_455
Fe0 O18 2.053473 1_455
Fe0 O2 2.082522 1_545
Fe1 O0 1.930751 1_555
Fe1 O1 1.938129 1_555
Fe1 O4 2.014896 1_555
Fe1 O3 2.037682 1_555
Fe1 O8 2.041676 1_555
Fe1 O7 2.052073 1_555
Fe2 O23 1.940530 1_555
Fe2 O22 1.947130 1_555
Fe2 O20 1.956456 1_555
Fe2 O19 2.085521 1_555
Fe2 O15 2.094834 1_555
Fe2 O16 2.116462 1_555
Cu0 O14 1.971983 1_556
Cu0 O12 1.974560 1_565
Cu0 O5 1.988702 1_655
Cu0 O17 2.098847 1_556
Cu0 O10 2.105891 1_655
Cu0 O21 2.110477 1_565
O0 P5 1.535458 1_455
O1 P3 1.532662 1_554
O2 P0 1.556907 1_555
O3 P4 1.543869 1_545
O4 P0 1.546420 1_555
O5 P0 1.556450 1_555
O6 P1 1.544756 1_555
O7 P1 1.556785 1_555
O8 P2 1.560396 1_555
O9 P3 1.524015 1_555
O10 P3 1.573986 1_555
O11 P4 1.527656 1_545
O12 P1 1.558454 1_555
O13 P2 1.558549 1_555
O14 P2 1.547161 1_555
O15 P3 1.562330 1_555
O16 P4 1.563013 1_555
O17 P4 1.570968 1_555
O18 P5 1.535163 1_555
O19 P5 1.558117 1_555
O20 P1 1.543937 1_565
O21 P5 1.575820 1_555
O22 P2 1.533492 1_556
O23 P0 1.542684 1_655
