# generated using pymatgen
data_Li4V3Fe3(SnO8)2
_symmetry_space_group_name_H-M   'P 1'
_cell_length_a   5.98730900
_cell_length_b   5.99181560
_cell_length_c   9.80311435
_cell_angle_alpha   90.07024058
_cell_angle_beta   90.15948319
_cell_angle_gamma   119.82374616
_symmetry_Int_Tables_number   1
_chemical_formula_structural   Li4V3Fe3(SnO8)2
_chemical_formula_sum   'Li4 V3 Fe3 Sn2 O16'
_cell_volume   305.10530299
_cell_formula_units_Z   1
loop_
 _symmetry_equiv_pos_site_id
 _symmetry_equiv_pos_as_xyz
  1  'x, y, z'
loop_
 _atom_site_type_symbol
 _atom_site_label
 _atom_site_symmetry_multiplicity
 _atom_site_fract_x
 _atom_site_fract_y
 _atom_site_fract_z
 _atom_site_occupancy
  Li  Li0  1  0.65878800  0.33095300  0.10428100  1
  Li  Li1  1  0.00742700  0.00297200  0.00689400  1
  Li  Li2  1  0.00591300  0.00207000  0.50583600  1
  Li  Li3  1  0.32479800  0.66326200  0.60656100  1
  V  V0  1  0.17360300  0.82443600  0.28279500  1
  V  V1  1  0.34298000  0.17099100  0.78010200  1
  V  V2  1  0.17151000  0.34277500  0.28638600  1
  Fe  Fe0  1  0.83305400  0.66226600  0.78710100  1
  Fe  Fe1  1  0.83234300  0.17043000  0.78714100  1
  Fe  Fe2  1  0.66877200  0.83216500  0.28564300  1
  Sn  Sn0  1  0.66577900  0.33174900  0.50829400  1
  Sn  Sn1  1  0.33643100  0.66792100  0.00798700  1
  O  O0  1  0.84208600  0.67733400  0.40052400  1
  O  O1  1  0.95938200  0.47900800  0.66096500  1
  O  O2  1  0.64157600  0.32110400  0.89268100  1
  O  O3  1  0.01566000  0.00764500  0.69327800  1
  O  O4  1  0.01165200  0.99420200  0.19411300  1
  O  O5  1  0.84280700  0.16147800  0.39982900  1
  O  O6  1  0.50834300  0.47513900  0.66094500  1
  O  O7  1  0.50964300  0.03339600  0.66150500  1
  O  O8  1  0.68218500  0.84141400  0.90133200  1
  O  O9  1  0.32401200  0.15735100  0.40094200  1
  O  O10  1  0.47667900  0.96422600  0.16271300  1
  O  O11  1  0.47921200  0.51652700  0.16243200  1
  O  O12  1  0.32639500  0.67901700  0.39394500  1
  O  O13  1  0.16428400  0.84036500  0.89911900  1
  O  O14  1  0.03155500  0.52660400  0.15849400  1
  O  O15  1  0.16313000  0.32350400  0.90032200  1
loop_
_geom_bond_atom_site_label_1
_geom_bond_atom_site_label_2
_geom_bond_distance
_geom_bond_site_symmetry_2
Li0 O11 1.976955 1_555
Li0 O10 1.992190 1_545
Li0 O14 2.006834 1_655
Li0 O2 2.075920 1_554
Li1 O4 1.836610 1_545
Li1 O13 1.964864 1_544
Li1 O15 1.969414 1_554
Li1 O8 1.977713 1_444
Li2 O3 1.838015 1_555
Li2 O9 1.949630 1_555
Li2 O5 1.967355 1_455
Li2 O0 1.976102 1_445
Li3 O1 1.973678 1_455
Li3 O7 1.996460 1_565
Li3 O6 1.998201 1_555
Li3 O12 2.086385 1_555
Fe0 O3 2.020811 1_665
Fe0 O1 2.033413 1_555
Fe0 O13 2.039024 1_655
Fe0 O8 2.046781 1_555
Fe0 O2 2.060342 1_555
Fe0 O6 2.093166 1_555
Fe1 O3 2.017665 1_655
Fe1 O1 2.034477 1_555
Fe1 O15 2.042842 1_655
Fe1 O8 2.048394 1_545
Fe1 O2 2.054275 1_555
Fe1 O7 2.080966 1_555
Fe2 O4 1.998025 1_655
Fe2 O0 2.039451 1_555
Fe2 O5 2.043336 1_565
Fe2 O11 2.043421 1_555
Fe2 O10 2.073887 1_555
Fe2 O12 2.077228 1_555
O0 V0 2.079359 1_655
O0 Sn0 2.087004 1_555
O1 Sn0 2.132604 1_555
O2 V1 1.900082 1_555
O3 V1 1.898384 1_555
O4 V0 1.925946 1_555
O4 V2 2.024520 1_565
O5 V2 2.044179 1_655
O5 Sn0 2.091439 1_555
O6 V1 1.970491 1_555
O6 Sn0 2.162480 1_555
O7 V1 1.962021 1_555
O7 Sn0 2.162792 1_555
O8 Sn1 2.081702 1_556
O9 Sn0 2.060366 1_555
O9 V0 2.081646 1_545
O9 V2 2.082216 1_555
O10 V0 1.970438 1_555
O10 Sn1 2.159000 1_555
O11 V2 2.015515 1_555
O11 Sn1 2.147909 1_555
O12 V0 1.890232 1_555
O12 V2 2.040040 1_555
O13 Sn1 2.079623 1_556
O13 V1 2.082046 1_565
O14 V0 1.967752 1_555
O14 V2 2.098300 1_555
O14 Sn1 2.169468 1_555
O15 Sn1 2.075593 1_556
O15 V1 2.089679 1_555
