# generated using pymatgen
data_LiFePH2O5
_symmetry_space_group_name_H-M   'P 1'
_cell_length_a   5.10976500
_cell_length_b   8.22803700
_cell_length_c   11.04421400
_cell_angle_alpha   90.00000000
_cell_angle_beta   90.00000000
_cell_angle_gamma   90.00000000
_symmetry_Int_Tables_number   1
_chemical_formula_structural   LiFePH2O5
_chemical_formula_sum   'Li4 Fe4 P4 H8 O20'
_cell_volume   464.33559433
_cell_formula_units_Z   4
loop_
 _symmetry_equiv_pos_site_id
 _symmetry_equiv_pos_as_xyz
  1  'x, y, z'
loop_
 _atom_site_type_symbol
 _atom_site_label
 _atom_site_symmetry_multiplicity
 _atom_site_fract_x
 _atom_site_fract_y
 _atom_site_fract_z
 _atom_site_occupancy
  Li  Li0  1  0.19570900  0.12272400  0.11582200  1
  Li  Li1  1  0.69570900  0.62272400  0.38417800  1
  Li  Li2  1  0.19570900  0.37727600  0.61582200  1
  Li  Li3  1  0.69570900  0.87727600  0.88417800  1
  Fe  Fe0  1  0.69919400  0.31287900  0.19654900  1
  Fe  Fe1  1  0.19919400  0.81287900  0.30345100  1
  Fe  Fe2  1  0.69919400  0.18712100  0.69654900  1
  Fe  Fe3  1  0.19919400  0.68712100  0.80345100  1
  P  P0  1  0.68923600  0.91282800  0.16738800  1
  P  P1  1  0.18923600  0.41282800  0.33261200  1
  P  P2  1  0.68923600  0.58717200  0.66738800  1
  P  P3  1  0.18923600  0.08717200  0.83261200  1
  H  H0  1  0.37573800  0.56929600  0.00731200  1
  H  H1  1  0.14308100  0.68640400  0.03819800  1
  H  H2  1  0.64308100  0.18640400  0.46180200  1
  H  H3  1  0.87573800  0.06929600  0.49268800  1
  H  H4  1  0.37573800  0.93070400  0.50731200  1
  H  H5  1  0.14308100  0.81359600  0.53819800  1
  H  H6  1  0.64308100  0.31359600  0.96180200  1
  H  H7  1  0.87573800  0.43070400  0.99268800  1
  O  O0  1  0.69357000  0.40437900  0.01459000  1
  O  O1  1  0.62603200  0.82456900  0.04993500  1
  O  O2  1  0.56053500  0.08561100  0.17029800  1
  O  O3  1  0.99295100  0.93597000  0.18399300  1
  O  O4  1  0.09022400  0.31633400  0.21853900  1
  O  O5  1  0.59022400  0.81633400  0.28146100  1
  O  O6  1  0.49295100  0.43597000  0.31600700  1
  O  O7  1  0.06053500  0.58561100  0.32970200  1
  O  O8  1  0.12603200  0.32456900  0.45006500  1
  O  O9  1  0.19357000  0.90437900  0.48541000  1
  O  O10  1  0.69357000  0.09562100  0.51459000  1
  O  O11  1  0.62603200  0.67543100  0.54993500  1
  O  O12  1  0.56053500  0.41438900  0.67029800  1
  O  O13  1  0.99295100  0.56403000  0.68399300  1
  O  O14  1  0.09022400  0.18366600  0.71853900  1
  O  O15  1  0.59022400  0.68366600  0.78146100  1
  O  O16  1  0.49295100  0.06403000  0.81600700  1
  O  O17  1  0.06053500  0.91438900  0.82970200  1
  O  O18  1  0.12603200  0.17543100  0.95006500  1
  O  O19  1  0.19357000  0.59562100  0.98541000  1
loop_
_geom_bond_atom_site_label_1
_geom_bond_atom_site_label_2
_geom_bond_distance
_geom_bond_site_symmetry_2
Li0 O18 1.914715 1_554
Li0 O2 1.982517 1_555
Li0 O3 2.000360 1_445
Li0 O4 2.028595 1_555
Li1 O11 1.914715 1_555
Li1 O7 1.982517 1_655
Li1 O6 2.000360 1_555
Li1 O5 2.028595 1_555
Li2 O8 1.914715 1_555
Li2 O12 1.982517 1_555
Li2 O13 2.000360 1_455
Li2 O14 2.028595 1_555
Li3 O1 1.914715 1_556
Li3 O17 1.982517 1_655
Li3 O16 2.000360 1_565
Li3 O15 2.028595 1_555
Fe0 O6 1.969002 1_555
Fe0 O4 2.012978 1_655
Fe0 O2 2.020602 1_555
Fe0 O0 2.146183 1_555
Fe1 O3 1.969002 1_455
Fe1 O5 2.012978 1_555
Fe1 O7 2.020602 1_555
Fe1 O9 2.146183 1_555
Fe2 O16 1.969002 1_555
Fe2 O14 2.012978 1_655
Fe2 O12 2.020602 1_555
Fe2 O10 2.146183 1_555
Fe3 O13 1.969002 1_455
Fe3 O15 2.012978 1_555
Fe3 O17 2.020602 1_555
Fe3 O19 2.146183 1_555
H0 O19 0.985841 1_554
H1 O19 0.982042 1_554
H2 O10 0.982042 1_555
H3 O10 0.985841 1_555
H4 O9 0.985841 1_555
H5 O9 0.982042 1_555
H6 O0 0.982042 1_556
H7 O0 0.985841 1_556
O1 P0 1.521293 1_555
O2 P0 1.566730 1_545
O3 P0 1.574268 1_555
O4 P1 1.572750 1_555
O5 P0 1.572750 1_555
O6 P1 1.574268 1_555
O7 P1 1.566730 1_555
O8 P1 1.521293 1_555
O11 P2 1.521293 1_555
O12 P2 1.566730 1_555
O13 P2 1.574268 1_555
O14 P3 1.572750 1_555
O15 P2 1.572750 1_555
O16 P3 1.574268 1_555
O17 P3 1.566730 1_565
O18 P3 1.521293 1_555
