# generated using pymatgen
data_LiMnAlO3
_symmetry_space_group_name_H-M   'P 1'
_cell_length_a   5.78202356
_cell_length_b   5.81761291
_cell_length_c   9.98707354
_cell_angle_alpha   106.22875049
_cell_angle_beta   105.99194886
_cell_angle_gamma   60.58441788
_symmetry_Int_Tables_number   1
_chemical_formula_structural   LiMnAlO3
_chemical_formula_sum   'Li4 Mn4 Al4 O12'
_cell_volume   277.10655459
_cell_formula_units_Z   4
loop_
 _symmetry_equiv_pos_site_id
 _symmetry_equiv_pos_as_xyz
  1  'x, y, z'
loop_
 _atom_site_type_symbol
 _atom_site_label
 _atom_site_symmetry_multiplicity
 _atom_site_fract_x
 _atom_site_fract_y
 _atom_site_fract_z
 _atom_site_occupancy
  Li  Li0  1  0.57877600  0.49362600  0.88236100  1
  Li  Li1  1  0.07879500  0.99362400  0.38236600  1
  Li  Li2  1  0.42122200  0.50637400  0.11763900  1
  Li  Li3  1  0.92120500  0.00637400  0.61763400  1
  Mn  Mn0  1  0.96660500  0.46818500  0.21784100  1
  Mn  Mn1  1  0.03339900  0.53182400  0.78216900  1
  Mn  Mn2  1  0.46683000  0.96813600  0.71788700  1
  Mn  Mn3  1  0.53317100  0.03186700  0.28211400  1
  Al  Al0  1  0.85391600  0.91780700  0.03576600  1
  Al  Al1  1  0.35394600  0.41778200  0.53574300  1
  Al  Al2  1  0.14608500  0.08219000  0.96423300  1
  Al  Al3  1  0.64605300  0.58221800  0.46425500  1
  O  O0  1  0.40734300  0.35043800  0.70499400  1
  O  O1  1  0.90733800  0.85042500  0.20496300  1
  O  O2  1  0.59265600  0.64956100  0.29500400  1
  O  O3  1  0.09266200  0.14957300  0.79503500  1
  O  O4  1  0.68052800  0.77183900  0.89399600  1
  O  O5  1  0.18054000  0.27181600  0.39397000  1
  O  O6  1  0.31947300  0.22815900  0.10600300  1
  O  O7  1  0.81945800  0.72818500  0.60602900  1
  O  O8  1  0.80852400  0.24418400  0.02469900  1
  O  O9  1  0.30851700  0.74418900  0.52471700  1
  O  O10  1  0.19147400  0.75581400  0.97529900  1
  O  O11  1  0.69148300  0.25581100  0.47528200  1
loop_
_geom_bond_atom_site_label_1
_geom_bond_atom_site_label_2
_geom_bond_distance
_geom_bond_site_symmetry_2
Li0 O4 1.942130 1_555
Li0 O0 1.957819 1_555
Li0 O8 2.027377 1_556
Li0 O10 2.280717 1_555
Li1 O5 1.942063 1_565
Li1 O1 1.958143 1_455
Li1 O9 2.027430 1_555
Li1 O11 2.280653 1_465
Li2 O6 1.942126 1_555
Li2 O2 1.957806 1_555
Li2 O10 2.027384 1_554
Li2 O8 2.280727 1_555
Li3 O7 1.942052 1_545
Li3 O3 1.958130 1_655
Li3 O11 2.027444 1_555
Li3 O9 2.280657 1_645
Mn0 O5 2.113178 1_655
Mn0 O1 2.113283 1_555
Mn0 O2 2.145890 1_555
Mn0 O6 2.223863 1_655
Mn0 O8 2.246759 1_555
Mn1 O7 2.113249 1_455
Mn1 O3 2.113318 1_555
Mn1 O0 2.145919 1_555
Mn1 O4 2.223810 1_455
Mn1 O10 2.246639 1_555
Mn2 O4 2.112687 1_555
Mn2 O0 2.113215 1_565
Mn2 O3 2.146874 1_565
Mn2 O7 2.222925 1_555
Mn2 O9 2.247364 1_555
Mn3 O6 2.112689 1_555
Mn3 O2 2.113233 1_545
Mn3 O1 2.146881 1_545
Mn3 O5 2.222926 1_555
Mn3 O11 2.247340 1_555
Al0 O1 1.751614 1_555
Al0 O4 1.764357 1_554
Al0 O8 1.816068 1_565
Al0 O10 1.893880 1_654
Al1 O0 1.752081 1_555
Al1 O5 1.764427 1_555
Al1 O9 1.816031 1_555
Al1 O11 1.893759 1_555
Al2 O3 1.751625 1_555
Al2 O6 1.764360 1_556
Al2 O10 1.816066 1_545
Al2 O8 1.893890 1_456
Al3 O2 1.752078 1_555
Al3 O7 1.764432 1_555
Al3 O11 1.816032 1_555
Al3 O9 1.893758 1_555
