# generated using pymatgen
data_LiMnVO4
_symmetry_space_group_name_H-M   'P 1'
_cell_length_a   6.08560000
_cell_length_b   6.08587900
_cell_length_c   8.35907300
_cell_angle_alpha   90.00106442
_cell_angle_beta   89.99945278
_cell_angle_gamma   90.00308804
_symmetry_Int_Tables_number   1
_chemical_formula_structural   LiMnVO4
_chemical_formula_sum   'Li4 Mn4 V4 O16'
_cell_volume   309.58851019
_cell_formula_units_Z   4
loop_
 _symmetry_equiv_pos_site_id
 _symmetry_equiv_pos_as_xyz
  1  'x, y, z'
loop_
 _atom_site_type_symbol
 _atom_site_label
 _atom_site_symmetry_multiplicity
 _atom_site_fract_x
 _atom_site_fract_y
 _atom_site_fract_z
 _atom_site_occupancy
  Li  Li0  1  0.00001800  0.25018000  0.00002200  1
  Li  Li1  1  0.00001300  0.74988900  0.50000200  1
  Li  Li2  1  0.25017200  0.00003200  0.24998700  1
  Li  Li3  1  0.74987700  0.00001500  0.74999900  1
  Mn  Mn0  1  0.25378200  0.25376400  0.62499000  1
  Mn  Mn1  1  0.25382200  0.74615500  0.87499100  1
  Mn  Mn2  1  0.74610600  0.25375600  0.37502600  1
  Mn  Mn3  1  0.74620200  0.74621300  0.12498900  1
  V  V0  1  0.50003400  0.77373500  0.49999300  1
  V  V1  1  0.77374500  0.50001400  0.75000300  1
  V  V2  1  0.22622900  0.50000900  0.25000400  1
  V  V3  1  0.49999400  0.22625500  0.99999300  1
  O  O0  1  0.04161800  0.27333500  0.25812200  1
  O  O1  1  0.04162100  0.72668500  0.24188500  1
  O  O2  1  0.27330800  0.04164400  0.99186900  1
  O  O3  1  0.27338100  0.95834900  0.50810800  1
  O  O4  1  0.72666800  0.04163100  0.00812100  1
  O  O5  1  0.72672800  0.95833700  0.49188400  1
  O  O6  1  0.95836500  0.27333400  0.74188100  1
  O  O7  1  0.95836600  0.72667600  0.75813200  1
  O  O8  1  0.27182800  0.48463900  0.02550500  1
  O  O9  1  0.27183600  0.51536200  0.47450600  1
  O  O10  1  0.48460900  0.27183300  0.22449600  1
  O  O11  1  0.48464000  0.72816300  0.27550100  1
  O  O12  1  0.51535800  0.27183800  0.77549500  1
  O  O13  1  0.51537800  0.72816000  0.72449500  1
  O  O14  1  0.72815400  0.51535800  0.52550300  1
  O  O15  1  0.72815000  0.48463800  0.97450200  1
loop_
_geom_bond_atom_site_label_1
_geom_bond_atom_site_label_2
_geom_bond_distance
_geom_bond_site_symmetry_2
Li0 O2 2.093217 1_554
Li0 O4 2.093433 1_455
Li0 O0 2.176844 1_555
Li0 O6 2.177228 1_454
Li0 O8 2.194827 1_555
Li0 O15 2.195240 1_454
Li1 O5 2.092861 1_455
Li1 O3 2.093194 1_555
Li1 O1 2.177007 1_555
Li1 O7 2.177149 1_455
Li1 O9 2.195279 1_555
Li1 O14 2.195353 1_455
Li2 O0 2.093367 1_555
Li2 O1 2.093452 1_545
Li2 O2 2.176999 1_554
Li2 O3 2.177107 1_545
Li2 O10 2.194722 1_555
Li2 O11 2.195294 1_545
Li3 O6 2.093089 1_555
Li3 O7 2.093303 1_545
Li3 O5 2.177019 1_545
Li3 O4 2.177056 1_556
Li3 O13 2.195222 1_545
Li3 O12 2.195262 1_555
Mn0 O12 2.031960 1_555
Mn0 O9 2.032016 1_555
Mn0 O6 2.049620 1_455
Mn0 O3 2.049649 1_545
Mn1 O8 2.031775 1_556
Mn1 O13 2.031782 1_555
Mn1 O7 2.049674 1_455
Mn1 O2 2.049978 1_565
Mn2 O10 2.031726 1_555
Mn2 O14 2.031938 1_555
Mn2 O5 2.049517 1_545
Mn2 O0 2.050173 1_655
Mn3 O15 2.031886 1_554
Mn3 O11 2.031905 1_555
Mn3 O4 2.049619 1_565
Mn3 O1 2.049654 1_655
O0 V2 1.780357 1_555
O1 V2 1.780450 1_555
O2 V3 1.780398 1_555
O3 V0 1.780344 1_555
O4 V3 1.780488 1_554
O5 V0 1.780397 1_555
O6 V1 1.780513 1_555
O7 V1 1.780341 1_555
O8 V2 1.899311 1_555
O8 V3 2.108658 1_554
O9 V2 1.899341 1_555
O9 V0 2.108606 1_555
O10 V3 1.899330 1_554
O10 V2 2.108665 1_555
O11 V0 1.899237 1_555
O11 V2 2.108600 1_555
O12 V3 1.899295 1_555
O12 V1 2.108577 1_555
O13 V0 1.899318 1_555
O13 V1 2.108494 1_555
O14 V1 1.899313 1_555
O14 V0 2.108449 1_555
O15 V1 1.899311 1_555
O15 V3 2.108490 1_555
