# generated using pymatgen
data_Y2W2O9
_symmetry_space_group_name_H-M   'P 1'
_cell_length_a   9.74941300
_cell_length_b   7.69069200
_cell_length_c   9.23948722
_cell_angle_alpha   71.56802796
_cell_angle_beta   90.00000000
_cell_angle_gamma   90.00000000
_symmetry_Int_Tables_number   1
_chemical_formula_structural   Y2W2O9
_chemical_formula_sum   'Y8 W8 O36'
_cell_volume   657.23477081
_cell_formula_units_Z   4
loop_
 _symmetry_equiv_pos_site_id
 _symmetry_equiv_pos_as_xyz
  1  'x, y, z'
loop_
 _atom_site_type_symbol
 _atom_site_label
 _atom_site_symmetry_multiplicity
 _atom_site_fract_x
 _atom_site_fract_y
 _atom_site_fract_z
 _atom_site_occupancy
  Y  Y0  1  0.05718900  0.77368800  0.65522800  1
  Y  Y1  1  0.44953900  0.70738700  0.57055900  1
  Y  Y2  1  0.44281100  0.77368800  0.15522800  1
  Y  Y3  1  0.05046100  0.70738700  0.07055900  1
  Y  Y4  1  0.94953900  0.29261300  0.92944100  1
  Y  Y5  1  0.55718900  0.22631200  0.84477200  1
  Y  Y6  1  0.55046100  0.29261300  0.42944100  1
  Y  Y7  1  0.94281100  0.22631200  0.34477200  1
  W  W0  1  0.74924600  0.93170600  0.73558900  1
  W  W1  1  0.75075400  0.93170600  0.23558900  1
  W  W2  1  0.27343000  0.42485100  0.96356300  1
  W  W3  1  0.77343000  0.57514900  0.53643700  1
  W  W4  1  0.22657000  0.42485100  0.46356300  1
  W  W5  1  0.72657000  0.57514900  0.03643700  1
  W  W6  1  0.24924600  0.06829400  0.76441100  1
  W  W7  1  0.25075400  0.06829400  0.26441100  1
  O  O0  1  0.38631300  0.99446100  0.90807000  1
  O  O1  1  0.08929900  0.93643900  0.85042200  1
  O  O2  1  0.28387100  0.89174900  0.66560000  1
  O  O3  1  0.11368700  0.99446100  0.40807000  1
  O  O4  1  0.41070100  0.93643900  0.35042200  1
  O  O5  1  0.61755900  0.77487700  0.91864000  1
  O  O6  1  0.86536000  0.73138000  0.86050400  1
  O  O7  1  0.21612900  0.89174900  0.16560000  1
  O  O8  1  0.67944000  0.74471500  0.63734900  1
  O  O9  1  0.88244100  0.77487700  0.41864000  1
  O  O10  1  0.10212900  0.55811200  0.89033300  1
  O  O11  1  0.63464000  0.73138000  0.36050400  1
  O  O12  1  0.40688000  0.50171700  0.81585200  1
  O  O13  1  0.82056000  0.74471500  0.13734900  1
  O  O14  1  0.20246300  0.59814500  0.56556100  1
  O  O15  1  0.70246300  0.40185500  0.93443900  1
  O  O16  1  0.90688000  0.49828300  0.68414800  1
  O  O17  1  0.39787100  0.55811200  0.39033300  1
  O  O18  1  0.60212900  0.44188800  0.60966700  1
  O  O19  1  0.09312000  0.50171700  0.31585200  1
  O  O20  1  0.29753700  0.59814500  0.06556100  1
  O  O21  1  0.79753700  0.40185500  0.43443900  1
  O  O22  1  0.17944000  0.25528500  0.86265100  1
  O  O23  1  0.59312000  0.49828300  0.18414800  1
  O  O24  1  0.36536000  0.26862000  0.63949600  1
  O  O25  1  0.89787100  0.44188800  0.10966700  1
  O  O26  1  0.11755900  0.22512300  0.58136000  1
  O  O27  1  0.32056000  0.25528500  0.36265100  1
  O  O28  1  0.78387100  0.10825100  0.83440000  1
  O  O29  1  0.13464000  0.26862000  0.13949600  1
  O  O30  1  0.38244100  0.22512300  0.08136000  1
  O  O31  1  0.58929900  0.06356100  0.64957800  1
  O  O32  1  0.88631300  0.00553900  0.59193000  1
  O  O33  1  0.71612900  0.10825100  0.33440000  1
  O  O34  1  0.91070100  0.06356100  0.14957800  1
  O  O35  1  0.61368700  0.00553900  0.09193000  1
loop_
_geom_bond_atom_site_label_1
_geom_bond_atom_site_label_2
_geom_bond_distance
_geom_bond_site_symmetry_2
O0 W6 1.842118 1_565
O0 Y5 2.374318 1_565
O0 Y2 2.439116 1_556
O1 W6 1.892605 1_565
O1 Y3 2.262247 1_556
O1 Y0 2.518874 1_555
O2 W6 1.890716 1_565
O2 Y0 2.402663 1_555
O2 Y1 2.485471 1_555
O3 W7 1.842118 1_565
O3 Y7 2.374318 1_465
O3 Y0 2.439116 1_555
O4 W7 1.892605 1_565
O4 Y1 2.262247 1_555
O4 Y2 2.518874 1_555
O5 W5 1.901675 1_556
O5 W0 2.161849 1_555
O5 Y2 2.769186 1_556
O6 W0 1.965390 1_555
O6 W5 2.163766 1_556
O6 Y0 2.609715 1_655
O6 Y3 2.613612 1_656
O7 W7 1.890716 1_565
O7 Y2 2.402663 1_555
O7 Y3 2.485471 1_555
O8 W3 2.044142 1_555
O8 W0 2.044654 1_555
O8 Y1 2.366249 1_555
O9 W3 1.901675 1_555
O9 W1 2.161849 1_555
O9 Y0 2.769186 1_655
O10 W2 1.964393 1_555
O10 Y0 2.319907 1_555
O10 Y3 2.356579 1_556
O10 Y4 2.458940 1_455
O11 W1 1.965390 1_555
O11 W3 2.163766 1_555
O11 Y2 2.609715 1_555
O11 Y1 2.613612 1_555
O12 W2 1.842456 1_555
O12 Y1 2.354671 1_555
O12 Y5 2.519353 1_555
O13 W5 2.044142 1_555
O13 W1 2.044654 1_555
O13 Y3 2.366249 1_655
O14 W4 1.874523 1_555
O14 Y0 2.285233 1_555
O14 Y1 2.556375 1_555
O15 W5 1.874523 1_556
O15 Y5 2.285233 1_555
O15 Y4 2.556375 1_555
O16 W3 1.842456 1_555
O16 Y4 2.354671 1_555
O16 Y0 2.519353 1_655
O17 W4 1.964393 1_555
O17 Y2 2.319907 1_555
O17 Y1 2.356579 1_555
O17 Y6 2.458940 1_555
O18 W3 1.964393 1_555
O18 Y5 2.319907 1_555
O18 Y6 2.356579 1_555
O18 Y1 2.458940 1_555
O19 W4 1.842456 1_555
O19 Y3 2.354671 1_555
O19 Y7 2.519353 1_455
O20 W2 1.874523 1_554
O20 Y2 2.285233 1_555
O20 Y3 2.556375 1_555
O21 W3 1.874523 1_555
O21 Y7 2.285233 1_555
O21 Y6 2.556375 1_555
O22 W2 2.044142 1_555
O22 W6 2.044654 1_555
O22 Y4 2.366249 1_455
O23 W5 1.842456 1_555
O23 Y6 2.354671 1_555
O23 Y2 2.519353 1_555
O24 W6 1.965390 1_555
O24 W4 2.163766 1_555
O24 Y5 2.609715 1_555
O24 Y6 2.613612 1_555
O25 W5 1.964393 1_555
O25 Y7 2.319907 1_555
O25 Y4 2.356579 1_554
O25 Y3 2.458940 1_655
O26 W4 1.901675 1_555
O26 W6 2.161849 1_555
O26 Y7 2.769186 1_455
O27 W4 2.044142 1_555
O27 W7 2.044654 1_555
O27 Y6 2.366249 1_555
O28 W0 1.890716 1_545
O28 Y5 2.402663 1_555
O28 Y4 2.485471 1_555
O29 W7 1.965390 1_555
O29 W2 2.163766 1_554
O29 Y7 2.609715 1_455
O29 Y4 2.613612 1_454
O30 W2 1.901675 1_554
O30 W7 2.161849 1_555
O30 Y5 2.769186 1_554
O31 W0 1.892605 1_545
O31 Y6 2.262247 1_555
O31 Y5 2.518874 1_555
O32 W0 1.842118 1_545
O32 Y0 2.374318 1_645
O32 Y7 2.439116 1_555
O33 W1 1.890716 1_545
O33 Y7 2.402663 1_555
O33 Y6 2.485471 1_555
O34 W1 1.892605 1_545
O34 Y4 2.262247 1_554
O34 Y7 2.518874 1_555
O35 W1 1.842118 1_545
O35 Y2 2.374318 1_545
O35 Y5 2.439116 1_554
