# generated using pymatgen
data_Li3Sn2(PO4)3
_symmetry_space_group_name_H-M   'P 1'
_cell_length_a   9.12966300
_cell_length_b   8.94112300
_cell_length_c   15.59645757
_cell_angle_alpha   57.32860377
_cell_angle_beta   90.00000000
_cell_angle_gamma   90.00000000
_symmetry_Int_Tables_number   1
_chemical_formula_structural   Li3Sn2(PO4)3
_chemical_formula_sum   'Li12 Sn8 P12 O48'
_cell_volume   1071.69593662
_cell_formula_units_Z   4
loop_
 _symmetry_equiv_pos_site_id
 _symmetry_equiv_pos_as_xyz
  1  'x, y, z'
loop_
 _atom_site_type_symbol
 _atom_site_label
 _atom_site_symmetry_multiplicity
 _atom_site_fract_x
 _atom_site_fract_y
 _atom_site_fract_z
 _atom_site_occupancy
  Li  Li0  1  0.07524900  0.20143200  0.71216200  1
  Li  Li1  1  0.77688000  0.60724100  0.17440300  1
  Li  Li2  1  0.74577900  0.99763800  0.80714400  1
  Li  Li3  1  0.27688000  0.39275900  0.32559700  1
  Li  Li4  1  0.24577900  0.00236200  0.69285600  1
  Li  Li5  1  0.57524900  0.79856800  0.78783800  1
  Li  Li6  1  0.42475100  0.20143200  0.21216200  1
  Li  Li7  1  0.72312000  0.60724100  0.67440300  1
  Li  Li8  1  0.75422100  0.99763800  0.30714400  1
  Li  Li9  1  0.25422100  0.00236200  0.19285600  1
  Li  Li10  1  0.22312000  0.39275900  0.82559700  1
  Li  Li11  1  0.92475100  0.79856800  0.28783800  1
  Sn  Sn0  1  0.05073800  0.82482500  0.91277200  1
  Sn  Sn1  1  0.44187300  0.64896800  0.10499500  1
  Sn  Sn2  1  0.94187300  0.35103200  0.39500500  1
  Sn  Sn3  1  0.55073800  0.17517500  0.58722800  1
  Sn  Sn4  1  0.44926200  0.82482500  0.41277200  1
  Sn  Sn5  1  0.05812700  0.64896800  0.60499500  1
  Sn  Sn6  1  0.94926200  0.17517500  0.08722800  1
  Sn  Sn7  1  0.55812700  0.35103200  0.89500500  1
  P  P0  1  0.23534800  0.42276700  0.51005000  1
  P  P1  1  0.09333600  0.71258700  0.17016900  1
  P  P2  1  0.40185100  0.03174000  0.86061500  1
  P  P3  1  0.59333600  0.28741300  0.32983100  1
  P  P4  1  0.90185100  0.96826000  0.63938500  1
  P  P5  1  0.73534800  0.57723300  0.98995000  1
  P  P6  1  0.26465200  0.42276700  0.01005000  1
  P  P7  1  0.09814900  0.03174000  0.36061500  1
  P  P8  1  0.40666400  0.71258700  0.67016900  1
  P  P9  1  0.59814900  0.96826000  0.13938500  1
  P  P10  1  0.90666400  0.28741300  0.82983100  1
  P  P11  1  0.76465200  0.57723300  0.48995000  1
  O  O0  1  0.87117600  0.54582400  0.42171900  1
  O  O1  1  0.65102500  0.43149200  0.54613200  1
  O  O2  1  0.57741400  0.78870600  0.14373000  1
  O  O3  1  0.89435200  0.15161800  0.79944600  1
  O  O4  1  0.30529600  0.23991300  0.58124500  1
  O  O5  1  0.14729800  0.41516600  0.42562400  1
  O  O6  1  0.03109000  0.78761000  0.06377900  1
  O  O7  1  0.36904900  0.87585400  0.97522100  1
  O  O8  1  0.24510500  0.61704300  0.18575200  1
  O  O9  1  0.26124800  0.06166100  0.79917600  1
  O  O10  1  0.97557400  0.57092900  0.24388100  1
  O  O11  1  0.53603600  0.98697700  0.82039900  1
  O  O12  1  0.47557400  0.42907100  0.25611900  1
  O  O13  1  0.03603600  0.01302300  0.67960100  1
  O  O14  1  0.76124800  0.93833900  0.70082400  1
  O  O15  1  0.74510500  0.38295700  0.31424800  1
  O  O16  1  0.53109000  0.21239000  0.43622100  1
  O  O17  1  0.86904900  0.12414600  0.52477900  1
  O  O18  1  0.64729800  0.58483400  0.07437600  1
  O  O19  1  0.80529600  0.76008700  0.91875500  1
  O  O20  1  0.07741400  0.21129400  0.35627000  1
  O  O21  1  0.39435200  0.84838200  0.70055400  1
  O  O22  1  0.37117600  0.45417600  0.07828100  1
  O  O23  1  0.15102500  0.56850800  0.95386800  1
  O  O24  1  0.62882400  0.54582400  0.92171900  1
  O  O25  1  0.84897500  0.43149200  0.04613200  1
  O  O26  1  0.60564800  0.15161800  0.29944600  1
  O  O27  1  0.92258600  0.78870600  0.64373000  1
  O  O28  1  0.19470400  0.23991300  0.08124500  1
  O  O29  1  0.35270200  0.41516600  0.92562400  1
  O  O30  1  0.13095100  0.87585400  0.47522100  1
  O  O31  1  0.46891000  0.78761000  0.56377900  1
  O  O32  1  0.23875200  0.06166100  0.29917600  1
  O  O33  1  0.25489500  0.61704300  0.68575200  1
  O  O34  1  0.96396400  0.98697700  0.32039900  1
  O  O35  1  0.52442600  0.57092900  0.74388100  1
  O  O36  1  0.46396400  0.01302300  0.17960100  1
  O  O37  1  0.02442600  0.42907100  0.75611900  1
  O  O38  1  0.73875200  0.93833900  0.20082400  1
  O  O39  1  0.75489500  0.38295700  0.81424800  1
  O  O40  1  0.63095100  0.12414600  0.02477900  1
  O  O41  1  0.96891000  0.21239000  0.93622100  1
  O  O42  1  0.69470400  0.76008700  0.41875500  1
  O  O43  1  0.85270200  0.58483400  0.57437600  1
  O  O44  1  0.42258600  0.21129400  0.85627000  1
  O  O45  1  0.10564800  0.84838200  0.20055400  1
  O  O46  1  0.34897500  0.56850800  0.45386800  1
  O  O47  1  0.12882400  0.45417600  0.57828100  1
loop_
_geom_bond_atom_site_label_1
_geom_bond_atom_site_label_2
_geom_bond_distance
_geom_bond_site_symmetry_2
Li0 O3 2.030888 1_455
Li0 O13 2.036548 1_555
Li0 O9 2.110931 1_555
Li0 O47 2.147462 1_555
Li0 O37 2.516835 1_555
Li1 O15 2.034834 1_555
Li1 O10 2.047051 1_555
Li1 O18 2.052065 1_555
Li1 O2 2.310760 1_555
Li2 O3 1.889785 1_565
Li2 O11 1.922843 1_555
Li2 O19 1.960853 1_555
Li2 O14 1.999985 1_555
Li3 O8 2.034834 1_555
Li3 O12 2.047051 1_555
Li3 O5 2.052065 1_555
Li3 O20 2.310760 1_555
Li4 O21 1.889785 1_545
Li4 O13 1.922843 1_555
Li4 O4 1.960853 1_555
Li4 O9 1.999985 1_555
Li5 O21 2.030888 1_555
Li5 O11 2.036548 1_555
Li5 O14 2.110931 1_555
Li5 O24 2.147462 1_555
Li5 O35 2.516835 1_555
Li6 O26 2.030888 1_555
Li6 O36 2.036548 1_555
Li6 O32 2.110931 1_555
Li6 O22 2.147462 1_555
Li6 O12 2.516835 1_555
Li7 O39 2.034834 1_555
Li7 O35 2.047051 1_555
Li7 O43 2.052065 1_555
Li7 O27 2.310760 1_555
Li8 O26 1.889785 1_565
Li8 O34 1.922843 1_555
Li8 O42 1.960853 1_555
Li8 O38 1.999985 1_555
Li9 O45 1.889785 1_545
Li9 O36 1.922843 1_555
Li9 O28 1.960853 1_555
Li9 O32 1.999985 1_555
Li10 O33 2.034834 1_555
Li10 O37 2.047051 1_555
Li10 O29 2.052065 1_555
Li10 O44 2.310760 1_555
Li11 O45 2.030888 1_655
Li11 O34 2.036548 1_555
Li11 O38 2.110931 1_555
Li11 O0 2.147462 1_555
Li11 O10 2.516835 1_555
O0 P11 1.574728 1_555
O0 Sn2 2.099287 1_555
O1 P11 1.519616 1_555
O1 Sn3 2.217069 1_555
O2 P9 1.581242 1_555
O2 Sn1 2.066929 1_555
O3 P10 1.527289 1_555
O4 P0 1.534198 1_555
O4 Sn3 2.303613 1_555
O5 P0 1.575201 1_555
O5 Sn2 2.090425 1_455
O6 P1 1.524637 1_555
O6 Sn0 2.200832 1_554
O7 P2 1.592976 1_565
O7 Sn1 2.054509 1_556
O8 P1 1.576254 1_555
O8 Sn1 2.122938 1_555
O9 P2 1.536485 1_555
O10 P1 1.584212 1_655
O10 Sn2 2.124274 1_555
O11 P2 1.524929 1_565
O12 P3 1.584212 1_555
O12 Sn1 2.124274 1_555
O13 P4 1.524929 1_445
O14 P4 1.536485 1_555
O15 P3 1.576254 1_555
O15 Sn2 2.122938 1_555
O16 P3 1.524637 1_555
O16 Sn3 2.200832 1_555
O17 P4 1.592976 1_545
O17 Sn2 2.054509 1_555
O18 P5 1.575201 1_554
O18 Sn1 2.090425 1_555
O19 P5 1.534198 1_555
O19 Sn0 2.303613 1_655
O20 P7 1.581242 1_555
O20 Sn2 2.066929 1_455
O21 P8 1.527289 1_555
O22 P6 1.574728 1_555
O22 Sn1 2.099287 1_555
O23 P6 1.519616 1_556
O23 Sn0 2.217069 1_555
O24 P5 1.574728 1_555
O24 Sn7 2.099287 1_555
O25 P5 1.519616 1_554
O25 Sn6 2.217069 1_555
O26 P3 1.527289 1_555
O27 P4 1.581242 1_555
O27 Sn5 2.066929 1_655
O28 P6 1.534198 1_555
O28 Sn6 2.303613 1_455
O29 P6 1.575201 1_556
O29 Sn7 2.090425 1_555
O30 P7 1.592976 1_565
O30 Sn5 2.054509 1_555
O31 P8 1.524637 1_555
O31 Sn4 2.200832 1_555
O32 P7 1.536485 1_555
O33 P8 1.576254 1_555
O33 Sn5 2.122938 1_555
O34 P7 1.524929 1_665
O35 P8 1.584212 1_555
O35 Sn7 2.124274 1_555
O36 P9 1.524929 1_545
O37 P10 1.584212 1_455
O37 Sn5 2.124274 1_555
O38 P9 1.536485 1_555
O39 P10 1.576254 1_555
O39 Sn7 2.122938 1_555
O40 P9 1.592976 1_545
O40 Sn7 2.054509 1_554
O41 P10 1.524637 1_555
O41 Sn6 2.200832 1_556
O42 P11 1.534198 1_555
O42 Sn4 2.303613 1_555
O43 P11 1.575201 1_555
O43 Sn5 2.090425 1_655
O44 P2 1.581242 1_555
O44 Sn7 2.066929 1_555
O45 P1 1.527289 1_555
O46 P0 1.519616 1_555
O46 Sn4 2.217069 1_555
O47 P0 1.574728 1_555
O47 Sn5 2.099287 1_555
