# generated using pymatgen
data_Tb2SeO2
_symmetry_space_group_name_H-M   'P 1'
_cell_length_a   3.84715368
_cell_length_b   3.84715915
_cell_length_c   6.82099191
_cell_angle_alpha   89.99994938
_cell_angle_beta   89.99999143
_cell_angle_gamma   119.99993761
_symmetry_Int_Tables_number   1
_chemical_formula_structural   Tb2SeO2
_chemical_formula_sum   'Tb2 Se1 O2'
_cell_volume   87.42952660
_cell_formula_units_Z   1
loop_
 _symmetry_equiv_pos_site_id
 _symmetry_equiv_pos_as_xyz
  1  'x, y, z'
loop_
 _atom_site_type_symbol
 _atom_site_label
 _atom_site_symmetry_multiplicity
 _atom_site_fract_x
 _atom_site_fract_y
 _atom_site_fract_z
 _atom_site_occupancy
  Tb  Tb0  1  0.33330678  0.66666747  0.29091385  1
  Tb  Tb1  1  0.66663831  0.33333253  0.70908615  1
  Se  Se0  1  0.99991075  -0.00000000  -0.00000000  1
  O  O0  1  0.33330314  0.66666312  0.62531274  1
  O  O1  1  0.66664002  0.33333588  0.37468726  1
loop_
_geom_bond_atom_site_label_1
_geom_bond_atom_site_label_2
_geom_bond_distance
_geom_bond_site_symmetry_2
Se0 Tb0 2.978277 1_545
Se0 Tb1 2.978279 1_554
Se0 Tb1 2.978440 1_544
Se0 Tb0 2.978440 1_655
Se0 Tb1 2.978584 1_654
Se0 Tb0 2.978586 1_645
O0 Tb0 2.280932 1_555
O0 Tb1 2.293475 1_455
O0 Tb1 2.293477 1_555
O0 Tb1 2.293493 1_565
O1 Tb1 2.280932 1_555
O1 Tb0 2.293474 1_555
O1 Tb0 2.293481 1_655
O1 Tb0 2.293490 1_545
