# generated using pymatgen
data_Sn9(O2F5)2
_symmetry_space_group_name_H-M   'P 1'
_cell_length_a   10.75027200
_cell_length_b   10.75027200
_cell_length_c   7.61293000
_cell_angle_alpha   90.00000000
_cell_angle_beta   90.00000000
_cell_angle_gamma   90.00000000
_symmetry_Int_Tables_number   1
_chemical_formula_structural   Sn9(O2F5)2
_chemical_formula_sum   'Sn18 O8 F20'
_cell_volume   879.81374410
_cell_formula_units_Z   2
loop_
 _symmetry_equiv_pos_site_id
 _symmetry_equiv_pos_as_xyz
  1  'x, y, z'
loop_
 _atom_site_type_symbol
 _atom_site_label
 _atom_site_symmetry_multiplicity
 _atom_site_fract_x
 _atom_site_fract_y
 _atom_site_fract_z
 _atom_site_occupancy
  Sn  Sn0  1  0.61351100  0.25747600  0.16651600  1
  Sn  Sn1  1  0.57050400  0.35245500  0.66307100  1
  Sn  Sn2  1  0.25747600  0.38648900  0.83348400  1
  Sn  Sn3  1  0.35245500  0.42949600  0.33692900  1
  Sn  Sn4  1  0.00000000  0.50000000  0.19269200  1
  Sn  Sn5  1  0.64754500  0.57050400  0.33692900  1
  Sn  Sn6  1  0.74252400  0.61351100  0.83348400  1
  Sn  Sn7  1  0.42949600  0.64754500  0.66307100  1
  Sn  Sn8  1  0.38648900  0.74252400  0.16651600  1
  Sn  Sn9  1  0.11351100  0.75747600  0.83348400  1
  Sn  Sn10  1  0.07050400  0.85245500  0.33692900  1
  Sn  Sn11  1  0.75747600  0.88648900  0.16651600  1
  Sn  Sn12  1  0.85245500  0.92949600  0.66307100  1
  Sn  Sn13  1  0.50000000  0.00000000  0.80730800  1
  Sn  Sn14  1  0.14754500  0.07050400  0.66307100  1
  Sn  Sn15  1  0.24252400  0.11351100  0.16651600  1
  Sn  Sn16  1  0.92949600  0.14754500  0.33692900  1
  Sn  Sn17  1  0.88648900  0.24252400  0.83348400  1
  O  O0  1  0.55467000  0.38107800  0.37223500  1
  O  O1  1  0.38107800  0.44533000  0.62776500  1
  O  O2  1  0.61892200  0.55467000  0.62776500  1
  O  O3  1  0.44533000  0.61892200  0.37223500  1
  O  O4  1  0.05467000  0.88107800  0.62776500  1
  O  O5  1  0.88107800  0.94533000  0.37223500  1
  O  O6  1  0.11892200  0.05467000  0.37223500  1
  O  O7  1  0.94533000  0.11892200  0.62776500  1
  F  F0  1  0.12219800  0.28544200  0.15698400  1
  F  F1  1  0.13804700  0.30865900  0.63894800  1
  F  F2  1  0.78544200  0.37780200  0.15698400  1
  F  F3  1  0.80865800  0.36195300  0.63894800  1
  F  F4  1  0.00000000  0.50000000  0.92581300  1
  F  F5  1  0.50000000  0.50000000  0.00000000  1
  F  F6  1  0.19134100  0.63804700  0.63894800  1
  F  F7  1  0.21455800  0.62219800  0.15698400  1
  F  F8  1  0.86195300  0.69134200  0.63894800  1
  F  F9  1  0.87780200  0.71455800  0.15698400  1
  F  F10  1  0.62219800  0.78544200  0.84301600  1
  F  F11  1  0.63804700  0.80865800  0.36105200  1
  F  F12  1  0.28544200  0.87780200  0.84301600  1
  F  F13  1  0.30865900  0.86195300  0.36105200  1
  F  F14  1  0.00000000  0.00000000  0.00000000  1
  F  F15  1  0.50000000  0.00000000  0.07418700  1
  F  F16  1  0.69134200  0.13804700  0.36105200  1
  F  F17  1  0.71455800  0.12219800  0.84301600  1
  F  F18  1  0.36195300  0.19134100  0.36105200  1
  F  F19  1  0.37780200  0.21455800  0.84301600  1
loop_
_geom_bond_atom_site_label_1
_geom_bond_atom_site_label_2
_geom_bond_distance
_geom_bond_site_symmetry_2
O0 Sn0 2.149061 1_555
O0 Sn1 2.241865 1_555
O0 Sn3 2.251414 1_555
O0 Sn5 2.283847 1_555
O1 Sn2 2.149061 1_555
O1 Sn3 2.241865 1_555
O1 Sn7 2.251414 1_555
O1 Sn1 2.283847 1_555
O2 Sn6 2.149061 1_555
O2 Sn5 2.241865 1_555
O2 Sn1 2.251414 1_555
O2 Sn7 2.283847 1_555
O3 Sn8 2.149061 1_555
O3 Sn7 2.241865 1_555
O3 Sn5 2.251414 1_555
O3 Sn3 2.283847 1_555
O4 Sn9 2.149061 1_555
O4 Sn10 2.241865 1_555
O4 Sn12 2.251414 1_455
O4 Sn14 2.283847 1_565
O5 Sn11 2.149061 1_555
O5 Sn12 2.241865 1_555
O5 Sn16 2.251414 1_565
O5 Sn10 2.283847 1_655
O6 Sn15 2.149061 1_555
O6 Sn14 2.241865 1_555
O6 Sn10 2.251414 1_545
O6 Sn16 2.283847 1_455
O7 Sn17 2.149061 1_555
O7 Sn16 2.241865 1_555
O7 Sn14 2.251414 1_655
O7 Sn12 2.283847 1_545
F0 Sn15 2.257152 1_555
F0 Sn4 2.668297 1_555
F1 Sn2 2.131143 1_555
F1 Sn14 2.568839 1_555
F2 Sn0 2.257152 1_555
F2 Sn4 2.668297 1_655
F3 Sn17 2.131147 1_555
F3 Sn1 2.568828 1_555
F4 Sn4 2.031731 1_556
F6 Sn9 2.131143 1_555
F6 Sn7 2.568839 1_555
F7 Sn8 2.257152 1_555
F7 Sn4 2.668297 1_555
F8 Sn6 2.131147 1_555
F8 Sn12 2.568828 1_555
F9 Sn11 2.257152 1_555
F9 Sn4 2.668297 1_655
F10 Sn6 2.257152 1_555
F10 Sn13 2.668297 1_565
F11 Sn11 2.131147 1_555
F11 Sn5 2.568828 1_555
F12 Sn9 2.257152 1_555
F12 Sn13 2.668297 1_565
F13 Sn8 2.131143 1_555
F13 Sn10 2.568839 1_555
F15 Sn13 2.031731 1_554
F16 Sn0 2.131147 1_555
F16 Sn16 2.568828 1_555
F17 Sn17 2.257152 1_555
F17 Sn13 2.668297 1_555
F18 Sn15 2.131143 1_555
F18 Sn3 2.568839 1_555
F19 Sn2 2.257152 1_555
F19 Sn13 2.668297 1_555
