# generated using pymatgen
data_Li4FeCu3O8
_symmetry_space_group_name_H-M   'P 1'
_cell_length_a   5.90241993
_cell_length_b   5.90241993
_cell_length_c   5.90242056
_cell_angle_alpha   59.70352939
_cell_angle_beta   59.70352939
_cell_angle_gamma   59.70352308
_symmetry_Int_Tables_number   1
_chemical_formula_structural   Li4FeCu3O8
_chemical_formula_sum   'Li4 Fe1 Cu3 O8'
_cell_volume   144.42449012
_cell_formula_units_Z   1
loop_
 _symmetry_equiv_pos_site_id
 _symmetry_equiv_pos_as_xyz
  1  'x, y, z'
loop_
 _atom_site_type_symbol
 _atom_site_label
 _atom_site_symmetry_multiplicity
 _atom_site_fract_x
 _atom_site_fract_y
 _atom_site_fract_z
 _atom_site_occupancy
  Li  Li0  1  0.50000000  0.50000000  0.50000000  1
  Li  Li1  1  0.50000000  0.00000000  0.00000000  1
  Li  Li2  1  0.00000000  0.00000000  0.50000000  1
  Li  Li3  1  0.00000000  0.50000000  0.00000000  1
  Fe  Fe0  1  0.00000000  0.00000000  0.00000000  1
  Cu  Cu0  1  0.00000000  0.50000000  0.50000000  1
  Cu  Cu1  1  0.50000000  0.50000000  0.00000000  1
  Cu  Cu2  1  0.50000000  0.00000000  0.50000000  1
  O  O0  1  0.74253300  0.74253300  0.74253300  1
  O  O1  1  0.74425600  0.24410500  0.24410500  1
  O  O2  1  0.24410500  0.24410500  0.74425600  1
  O  O3  1  0.25746700  0.25746700  0.25746700  1
  O  O4  1  0.24410500  0.74425600  0.24410500  1
  O  O5  1  0.25574400  0.75589500  0.75589500  1
  O  O6  1  0.75589500  0.75589500  0.25574400  1
  O  O7  1  0.75589500  0.25574400  0.75589500  1
loop_
_geom_bond_atom_site_label_1
_geom_bond_atom_site_label_2
_geom_bond_distance
_geom_bond_site_symmetry_2
Li0 O5 2.132786 1_555
Li0 O7 2.132786 1_555
Li0 O4 2.132786 1_555
Li0 O1 2.132786 1_555
Li0 O2 2.132786 1_555
Li0 O6 2.132786 1_555
Li1 O6 2.132175 1_545
Li1 O2 2.132175 1_554
Li1 O7 2.132175 1_554
Li1 O4 2.132175 1_545
Li1 O0 2.146706 1_544
Li1 O3 2.146706 1_555
Li2 O7 2.132175 1_455
Li2 O5 2.132175 1_545
Li2 O1 2.132175 1_455
Li2 O4 2.132175 1_545
Li2 O0 2.146706 1_445
Li2 O3 2.146706 1_555
Li3 O6 2.132175 1_455
Li3 O2 2.132175 1_554
Li3 O5 2.132175 1_554
Li3 O1 2.132175 1_455
Li3 O3 2.146706 1_555
Li3 O0 2.146706 1_454
Fe0 O7 2.033775 1_454
Fe0 O4 2.033775 1_545
Fe0 O5 2.033775 1_544
Fe0 O1 2.033775 1_455
Fe0 O6 2.033775 1_445
Fe0 O2 2.033775 1_554
Cu0 O3 2.021321 1_555
Cu0 O0 2.021321 1_455
Cu0 O2 2.034415 1_555
Cu0 O6 2.034415 1_455
Cu0 O4 2.034415 1_555
Cu0 O7 2.034415 1_455
Cu1 O3 2.021321 1_555
Cu1 O0 2.021321 1_554
Cu1 O4 2.034415 1_555
Cu1 O1 2.034415 1_555
Cu1 O7 2.034415 1_554
Cu1 O5 2.034415 1_554
Cu2 O0 2.021321 1_545
Cu2 O3 2.021321 1_555
Cu2 O2 2.034415 1_555
Cu2 O6 2.034415 1_545
Cu2 O1 2.034415 1_555
Cu2 O5 2.034415 1_545
