# generated using pymatgen
data_Li8CrFe7(PO4)12
_symmetry_space_group_name_H-M   'P 1'
_cell_length_a   8.65589900
_cell_length_b   8.78300342
_cell_length_c   12.21580650
_cell_angle_alpha   89.80513838
_cell_angle_beta   89.97854657
_cell_angle_gamma   89.96742172
_symmetry_Int_Tables_number   1
_chemical_formula_structural   Li8CrFe7(PO4)12
_chemical_formula_sum   'Li8 Cr1 Fe7 P12 O48'
_cell_volume   928.69854428
_cell_formula_units_Z   1
loop_
 _symmetry_equiv_pos_site_id
 _symmetry_equiv_pos_as_xyz
  1  'x, y, z'
loop_
 _atom_site_type_symbol
 _atom_site_label
 _atom_site_symmetry_multiplicity
 _atom_site_fract_x
 _atom_site_fract_y
 _atom_site_fract_z
 _atom_site_occupancy
  Li  Li0  1  0.78303800  0.27791600  0.18184800  1
  Li  Li1  1  0.78230100  0.22318500  0.81768600  1
  Li  Li2  1  0.71726500  0.77720000  0.31892100  1
  Li  Li3  1  0.71719900  0.72232200  0.68212700  1
  Li  Li4  1  0.28293600  0.27701500  0.31780300  1
  Li  Li5  1  0.28325100  0.21979000  0.68061200  1
  Li  Li6  1  0.21673400  0.77736300  0.18241200  1
  Li  Li7  1  0.21710900  0.72249700  0.81856300  1
  Cr  Cr0  1  0.24854300  0.53921600  0.61416400  1
  Fe  Fe0  1  0.75188200  0.04087200  0.61317800  1
  Fe  Fe1  1  0.75106000  0.45884400  0.38685400  1
  Fe  Fe2  1  0.74913500  0.95919900  0.11290000  1
  Fe  Fe3  1  0.74906600  0.54108300  0.88750800  1
  Fe  Fe4  1  0.25040700  0.45940500  0.11150100  1
  Fe  Fe5  1  0.25132600  0.03999400  0.88760000  1
  Fe  Fe6  1  0.24882300  0.96066000  0.38693600  1
  P  P0  1  0.96265200  0.74884400  0.50011100  1
  P  P1  1  0.53916100  0.25011800  0.99995900  1
  P  P2  1  0.46077900  0.74988000  0.00056900  1
  P  P3  1  0.04031400  0.25255500  0.50045000  1
  P  P4  1  0.89469500  0.60728100  0.14698000  1
  P  P5  1  0.89420500  0.89294200  0.85299800  1
  P  P6  1  0.60349200  0.39583500  0.64647800  1
  P  P7  1  0.60613700  0.10721300  0.35347200  1
  P  P8  1  0.39448600  0.89031800  0.64545900  1
  P  P9  1  0.39367200  0.60632000  0.35552400  1
  P  P10  1  0.10570900  0.39301900  0.85026600  1
  P  P11  1  0.10546500  0.10761500  0.14680600  1
  O  O0  1  0.94397700  0.35975200  0.42927800  1
  O  O1  1  0.94464600  0.14517500  0.57290800  1
  O  O2  1  0.92653100  0.10479400  0.15611800  1
  O  O3  1  0.92747200  0.39647900  0.84149500  1
  O  O4  1  0.85786100  0.83401200  0.58278300  1
  O  O5  1  0.85404900  0.66105100  0.42196800  1
  O  O6  1  0.84455400  0.56588800  0.03066300  1
  O  O7  1  0.84409900  0.93407900  0.96940000  1
  O  O8  1  0.83828200  0.76785700  0.17996700  1
  O  O9  1  0.83811100  0.73212000  0.82026600  1
  O  O10  1  0.82553100  0.48625700  0.22609800  1
  O  O11  1  0.82541000  0.01455800  0.77384000  1
  O  O12  1  0.67409800  0.98598400  0.27441400  1
  O  O13  1  0.67163500  0.51566700  0.72521900  1
  O  O14  1  0.65508700  0.23326200  0.68020700  1
  O  O15  1  0.66262600  0.26798700  0.32030100  1
  O  O16  1  0.65093900  0.43400700  0.52908600  1
  O  O17  1  0.65692000  0.06520800  0.46994700  1
  O  O18  1  0.64733200  0.16253600  0.07994800  1
  O  O19  1  0.64760000  0.33773100  0.92040300  1
  O  O20  1  0.57307300  0.89188300  0.65578200  1
  O  O21  1  0.57184300  0.60437200  0.34713600  1
  O  O22  1  0.55644000  0.85760300  0.07144900  1
  O  O23  1  0.55620600  0.64227300  0.92902600  1
  O  O24  1  0.44318200  0.35732000  0.07153500  1
  O  O25  1  0.44336200  0.14279900  0.92857800  1
  O  O26  1  0.42191700  0.40150600  0.65431300  1
  O  O27  1  0.42716300  0.10478700  0.34383200  1
  O  O28  1  0.35292400  0.66222500  0.08067600  1
  O  O29  1  0.35236700  0.83681400  0.92033000  1
  O  O30  1  0.34430600  0.93307100  0.52966700  1
  O  O31  1  0.34216800  0.56647600  0.47363800  1
  O  O32  1  0.33631500  0.76701100  0.32224900  1
  O  O33  1  0.33626800  0.72814800  0.67773000  1
  O  O34  1  0.32387600  0.48490400  0.27784200  1
  O  O35  1  0.32506300  0.00928600  0.72548000  1
  O  O36  1  0.17420900  0.98659800  0.22618200  1
  O  O37  1  0.17413400  0.51439200  0.76826400  1
  O  O38  1  0.16184800  0.26868500  0.17901400  1
  O  O39  1  0.16422900  0.23260500  0.81817500  1
  O  O40  1  0.15915100  0.43866400  0.96499300  1
  O  O41  1  0.15575400  0.06645300  0.03042100  1
  O  O42  1  0.14978300  0.34070500  0.57944200  1
  O  O43  1  0.14968600  0.16474200  0.42184400  1
  O  O44  1  0.07328600  0.89545700  0.84384400  1
  O  O45  1  0.07380000  0.60412600  0.15571600  1
  O  O46  1  0.05800400  0.85672200  0.42920800  1
  O  O47  1  0.06203600  0.63746700  0.56964000  1
loop_
_geom_bond_atom_site_label_1
_geom_bond_atom_site_label_2
_geom_bond_distance
_geom_bond_site_symmetry_2
Li0 O10 1.945125 1_555
Li0 O15 1.988031 1_555
Li0 O2 1.988551 1_555
Li0 O18 1.991808 1_555
Li1 O11 1.946652 1_555
Li1 O19 1.988019 1_555
Li1 O3 1.996414 1_555
Li1 O14 2.010242 1_555
Li2 O12 1.946906 1_555
Li2 O8 1.996201 1_555
Li2 O21 2.001431 1_555
Li2 O5 2.004520 1_555
Li3 O13 1.929047 1_555
Li3 O20 1.967927 1_555
Li3 O4 1.977284 1_555
Li3 O9 1.988160 1_555
Li4 O34 1.921534 1_555
Li4 O43 1.977291 1_555
Li4 O27 1.985627 1_555
Li4 O38 1.995151 1_555
Li5 O35 1.960145 1_555
Li5 O39 1.974288 1_555
Li5 O42 1.995157 1_555
Li5 O26 2.022260 1_555
Li6 O36 1.950470 1_555
Li6 O45 1.989466 1_555
Li6 O28 1.990713 1_555
Li6 O32 1.999460 1_555
Li7 O37 1.966037 1_555
Li7 O29 1.983737 1_555
Li7 O44 1.988375 1_555
Li7 O33 2.006039 1_555
Cr0 O47 1.908562 1_555
Cr0 O31 1.912411 1_555
Cr0 O33 1.985895 1_555
Cr0 O26 1.987468 1_555
Cr0 O42 1.989361 1_555
Cr0 O37 2.000618 1_555
Fe0 O17 1.944495 1_555
Fe0 O1 1.965535 1_555
Fe0 O14 2.057918 1_555
Fe0 O4 2.069486 1_545
Fe0 O11 2.075579 1_555
Fe0 O20 2.091847 1_545
Fe1 O0 1.952034 1_555
Fe1 O16 1.952943 1_555
Fe1 O15 2.016950 1_555
Fe1 O5 2.034721 1_555
Fe1 O21 2.066327 1_555
Fe1 O10 2.079875 1_555
Fe2 O7 1.949000 1_554
Fe2 O22 1.959612 1_555
Fe2 O8 2.020040 1_555
Fe2 O18 2.030173 1_565
Fe2 O2 2.068626 1_565
Fe2 O12 2.090946 1_555
Fe3 O6 1.947471 1_556
Fe3 O23 1.958232 1_555
Fe3 O9 2.018836 1_555
Fe3 O19 2.029638 1_555
Fe3 O3 2.077430 1_555
Fe3 O13 2.105586 1_555
Fe4 O24 1.956348 1_555
Fe4 O40 1.965616 1_554
Fe4 O38 2.016263 1_555
Fe4 O28 2.024719 1_555
Fe4 O45 2.060614 1_555
Fe4 O34 2.141911 1_555
Fe5 O41 1.945176 1_556
Fe5 O25 1.958146 1_555
Fe5 O29 2.025579 1_545
Fe5 O39 2.034390 1_555
Fe5 O44 2.068742 1_545
Fe5 O35 2.098737 1_555
Fe6 O30 1.944179 1_555
Fe6 O46 1.956025 1_555
Fe6 O32 2.024346 1_555
Fe6 O43 2.033292 1_565
Fe6 O27 2.063915 1_565
Fe6 O36 2.079191 1_555
O0 P3 1.527018 1_655
O1 P3 1.534057 1_655
O2 P11 1.553169 1_655
O3 P10 1.546832 1_655
O4 P0 1.551096 1_555
O5 P0 1.547904 1_555
O6 P4 1.530905 1_555
O7 P5 1.530826 1_555
O8 P4 1.546872 1_555
O9 P5 1.547758 1_555
O10 P4 1.554249 1_555
O11 P5 1.556690 1_545
O12 P7 1.555089 1_565
O13 P6 1.545598 1_555
O14 P6 1.550312 1_555
O15 P7 1.547253 1_555
O16 P6 1.527738 1_555
O17 P7 1.533137 1_555
O18 P1 1.554975 1_554
O19 P1 1.553288 1_555
O20 P8 1.551086 1_555
O21 P9 1.545681 1_555
O22 P2 1.528891 1_555
O23 P2 1.530854 1_556
O24 P1 1.531470 1_554
O25 P1 1.530831 1_555
O26 P6 1.575340 1_555
O27 P7 1.553858 1_555
O28 P2 1.554636 1_555
O29 P2 1.555359 1_556
O30 P8 1.525488 1_555
O31 P9 1.548972 1_555
O32 P9 1.548895 1_555
O33 P8 1.560430 1_555
O34 P9 1.552657 1_555
O35 P8 1.553786 1_545
O36 P11 1.554581 1_565
O37 P10 1.575959 1_555
O38 P11 1.548877 1_555
O39 P10 1.548582 1_555
O40 P10 1.530811 1_555
O41 P11 1.531135 1_555
O42 P3 1.560451 1_555
O43 P3 1.554570 1_555
O44 P5 1.554258 1_455
O45 P4 1.554248 1_455
O46 P0 1.524442 1_455
O47 P0 1.553160 1_455
