# generated using pymatgen
data_Mn5Sn(PO4)6
_symmetry_space_group_name_H-M   'P 1'
_cell_length_a   8.69729768
_cell_length_b   8.69729768
_cell_length_c   8.69729751
_cell_angle_alpha   59.75481847
_cell_angle_beta   59.75481847
_cell_angle_gamma   59.75481601
_symmetry_Int_Tables_number   1
_chemical_formula_structural   Mn5Sn(PO4)6
_chemical_formula_sum   'Mn5 Sn1 P6 O24'
_cell_volume   462.60822243
_cell_formula_units_Z   1
loop_
 _symmetry_equiv_pos_site_id
 _symmetry_equiv_pos_as_xyz
  1  'x, y, z'
loop_
 _atom_site_type_symbol
 _atom_site_label
 _atom_site_symmetry_multiplicity
 _atom_site_fract_x
 _atom_site_fract_y
 _atom_site_fract_z
 _atom_site_occupancy
  Mn  Mn0  1  0.00289100  0.00289100  0.00289100  1
  Mn  Mn1  1  0.35521200  0.35521200  0.35521200  1
  Mn  Mn2  1  0.50025600  0.50025600  0.50025600  1
  Mn  Mn3  1  0.14512800  0.14512800  0.14512800  1
  Mn  Mn4  1  0.64439800  0.64439800  0.64439800  1
  Sn  Sn0  1  0.85555800  0.85555800  0.85555800  1
  P  P0  1  0.04611300  0.45113700  0.74813900  1
  P  P1  1  0.45113700  0.74813900  0.04611300  1
  P  P2  1  0.74813900  0.04611300  0.45113700  1
  P  P3  1  0.25394000  0.95934300  0.53802000  1
  P  P4  1  0.53802000  0.25394000  0.95934300  1
  P  P5  1  0.95934300  0.53802000  0.25394000  1
  O  O0  1  0.48710700  0.69614500  0.88522600  1
  O  O1  1  0.69614500  0.88522600  0.48710700  1
  O  O2  1  0.88522600  0.48710700  0.69614500  1
  O  O3  1  0.06229200  0.25951000  0.91418800  1
  O  O4  1  0.01720400  0.60807500  0.80516200  1
  O  O5  1  0.24034600  0.43666800  0.58393400  1
  O  O6  1  0.25951000  0.91418800  0.06229200  1
  O  O7  1  0.43666800  0.58393400  0.24034600  1
  O  O8  1  0.19296100  0.99111300  0.38468600  1
  O  O9  1  0.58393400  0.24034600  0.43666800  1
  O  O10  1  0.08930500  0.94324600  0.73616500  1
  O  O11  1  0.38468600  0.19296100  0.99111300  1
  O  O12  1  0.60807500  0.80516200  0.01720400  1
  O  O13  1  0.91418800  0.06229200  0.25951000  1
  O  O14  1  0.41447900  0.76324600  0.55631300  1
  O  O15  1  0.80516200  0.01720400  0.60807500  1
  O  O16  1  0.55631300  0.41447900  0.76324600  1
  O  O17  1  0.73616500  0.08930500  0.94324600  1
  O  O18  1  0.76324600  0.55631300  0.41447900  1
  O  O19  1  0.99111300  0.38468600  0.19296100  1
  O  O20  1  0.94324600  0.73616500  0.08930500  1
  O  O21  1  0.11501500  0.50537900  0.31211200  1
  O  O22  1  0.31211200  0.11501500  0.50537900  1
  O  O23  1  0.50537900  0.31211200  0.11501500  1
loop_
_geom_bond_atom_site_label_1
_geom_bond_atom_site_label_2
_geom_bond_distance
_geom_bond_site_symmetry_2
Mn0 O13 2.206558 1_455
Mn0 O6 2.206558 1_545
Mn0 O3 2.206559 1_554
Mn0 O10 2.297511 1_544
Mn0 O17 2.297511 1_454
Mn0 O20 2.297511 1_445
Mn1 O21 1.938438 1_555
Mn1 O23 1.938438 1_555
Mn1 O22 1.938438 1_555
Mn1 O5 2.040051 1_555
Mn1 O9 2.040051 1_555
Mn1 O7 2.040051 1_555
Mn2 O16 2.250331 1_555
Mn2 O14 2.250331 1_555
Mn2 O18 2.250331 1_555
Mn2 O7 2.267612 1_555
Mn2 O9 2.267612 1_555
Mn2 O5 2.267613 1_555
Mn3 O19 1.951571 1_455
Mn3 O8 1.951571 1_545
Mn3 O11 1.951571 1_554
Mn3 O3 2.065385 1_554
Mn3 O6 2.065385 1_545
Mn3 O13 2.065385 1_455
Mn4 O2 1.975850 1_555
Mn4 O0 1.975850 1_555
Mn4 O1 1.975850 1_555
Mn4 O18 2.077817 1_555
Mn4 O14 2.077817 1_555
Mn4 O16 2.077817 1_555
O0 P1 1.521279 1_556
O1 P2 1.521279 1_565
O2 P0 1.521279 1_655
O3 P0 1.557837 1_555
O4 P0 1.543642 1_555
O4 Sn0 2.020585 1_455
O5 P0 1.563852 1_555
O6 P1 1.557837 1_555
O7 P1 1.563852 1_555
O8 P3 1.526353 1_555
O9 P2 1.563852 1_555
O10 P3 1.585170 1_555
O10 Sn0 2.104834 1_455
O11 P4 1.526353 1_555
O12 P1 1.543642 1_555
O12 Sn0 2.020585 1_554
O13 P2 1.557837 1_555
O14 P3 1.560478 1_555
O15 P2 1.543642 1_555
O15 Sn0 2.020585 1_545
O16 P4 1.560478 1_555
O17 P4 1.585170 1_555
O17 Sn0 2.104834 1_545
O18 P5 1.560478 1_555
O19 P5 1.526353 1_555
O20 P5 1.585170 1_555
O20 Sn0 2.104834 1_554
O21 P5 1.525731 1_455
O22 P3 1.525731 1_545
O23 P4 1.525731 1_554
