# generated using pymatgen
data_LiNiP2O7
_symmetry_space_group_name_H-M   'P 1'
_cell_length_a   8.42323900
_cell_length_b   5.02363500
_cell_length_c   6.92560603
_cell_angle_alpha   70.79553070
_cell_angle_beta   90.00000000
_cell_angle_gamma   90.00000000
_symmetry_Int_Tables_number   1
_chemical_formula_structural   LiNiP2O7
_chemical_formula_sum   'Li2 Ni2 P4 O14'
_cell_volume   276.75042515
_cell_formula_units_Z   2
loop_
 _symmetry_equiv_pos_site_id
 _symmetry_equiv_pos_as_xyz
  1  'x, y, z'
loop_
 _atom_site_type_symbol
 _atom_site_label
 _atom_site_symmetry_multiplicity
 _atom_site_fract_x
 _atom_site_fract_y
 _atom_site_fract_z
 _atom_site_occupancy
  Li  Li0  1  0.51287200  0.76869100  0.74598500  1
  Li  Li1  1  0.01287200  0.23130900  0.25401500  1
  Ni  Ni0  1  0.14928800  0.80740100  0.68144600  1
  Ni  Ni1  1  0.64928800  0.19259900  0.31855400  1
  P  P0  1  0.81650800  0.60364000  0.53878800  1
  P  P1  1  0.20844000  0.81433800  0.05318900  1
  P  P2  1  0.70844000  0.18566200  0.94681100  1
  P  P3  1  0.31650800  0.39636000  0.46121200  1
  O  O0  1  0.66709700  0.94532100  0.87596600  1
  O  O1  1  0.31289000  0.89128200  0.85623300  1
  O  O2  1  0.97550400  0.75950500  0.51423500  1
  O  O3  1  0.67043600  0.79680200  0.50907100  1
  O  O4  1  0.31566000  0.58750300  0.59324200  1
  O  O5  1  0.56618600  0.32968300  0.01829100  1
  O  O6  1  0.81232800  0.41568400  0.77932800  1
  O  O7  1  0.31232800  0.58431600  0.22067200  1
  O  O8  1  0.06618600  0.67031700  0.98170900  1
  O  O9  1  0.81566000  0.41249700  0.40675800  1
  O  O10  1  0.17043600  0.20319800  0.49092900  1
  O  O11  1  0.47550400  0.24049500  0.48576500  1
  O  O12  1  0.81289000  0.10871800  0.14376700  1
  O  O13  1  0.16709700  0.05467900  0.12403400  1
loop_
_geom_bond_atom_site_label_1
_geom_bond_atom_site_label_2
_geom_bond_distance
_geom_bond_site_symmetry_2
Li0 O0 1.952124 1_555
Li0 O1 2.027101 1_555
Li0 O3 2.078726 1_555
Li0 O4 2.310940 1_555
Li0 O5 2.426079 1_556
Li0 O11 2.480830 1_565
Li1 O13 1.952124 1_555
Li1 O12 2.027101 1_455
Li1 O10 2.078726 1_555
Li1 O9 2.310940 1_455
Li1 O8 2.426079 1_554
Li1 O2 2.480830 1_445
Ni0 O2 1.930035 1_455
Ni0 O1 1.969141 1_555
Ni0 O10 2.000052 1_565
Ni0 O4 2.000334 1_555
Ni0 O8 2.084811 1_555
Ni1 O11 1.930035 1_555
Ni1 O12 1.969141 1_555
Ni1 O3 2.000052 1_545
Ni1 O9 2.000334 1_555
Ni1 O5 2.084811 1_555
O0 P2 1.486442 1_565
O1 P1 1.561156 1_556
O2 P0 1.532333 1_555
O3 P0 1.538337 1_555
O4 P3 1.528345 1_555
O5 P2 1.562031 1_554
O6 P2 1.601460 1_555
O6 P0 1.622697 1_555
O7 P1 1.601460 1_555
O7 P3 1.622697 1_555
O8 P1 1.562031 1_556
O9 P0 1.528345 1_555
O10 P3 1.538337 1_555
O11 P3 1.532333 1_555
O12 P2 1.561156 1_554
O13 P1 1.486442 1_545
