# generated using pymatgen
data_Li4Cu5(P3O11)2
_symmetry_space_group_name_H-M   'P 1'
_cell_length_a   6.75908900
_cell_length_b   10.65132800
_cell_length_c   12.33552390
_cell_angle_alpha   74.53484325
_cell_angle_beta   90.00000000
_cell_angle_gamma   90.00000000
_symmetry_Int_Tables_number   1
_chemical_formula_structural   Li4Cu5(P3O11)2
_chemical_formula_sum   'Li8 Cu10 P12 O44'
_cell_volume   855.92004238
_cell_formula_units_Z   2
loop_
 _symmetry_equiv_pos_site_id
 _symmetry_equiv_pos_as_xyz
  1  'x, y, z'
loop_
 _atom_site_type_symbol
 _atom_site_label
 _atom_site_symmetry_multiplicity
 _atom_site_fract_x
 _atom_site_fract_y
 _atom_site_fract_z
 _atom_site_occupancy
  Li  Li0  1  0.88205800  0.44739300  0.18317000  1
  Li  Li1  1  0.61794200  0.94739300  0.18317000  1
  Li  Li2  1  0.47475900  0.12282800  0.33640400  1
  Li  Li3  1  0.02524100  0.62282800  0.33640400  1
  Li  Li4  1  0.97475900  0.37717200  0.66359600  1
  Li  Li5  1  0.52524100  0.87717200  0.66359600  1
  Li  Li6  1  0.38205800  0.05260700  0.81683000  1
  Li  Li7  1  0.11794200  0.55260700  0.81683000  1
  Cu  Cu0  1  0.50000000  0.50000000  0.00000000  1
  Cu  Cu1  1  0.24044000  0.21373100  0.12938700  1
  Cu  Cu2  1  0.00000000  0.00000000  0.00000000  1
  Cu  Cu3  1  0.25956000  0.71373100  0.12938700  1
  Cu  Cu4  1  0.00764600  0.20022500  0.33863900  1
  Cu  Cu5  1  0.49235400  0.70022500  0.33863900  1
  Cu  Cu6  1  0.50764600  0.29977500  0.66136100  1
  Cu  Cu7  1  0.99235400  0.79977500  0.66136100  1
  Cu  Cu8  1  0.74044000  0.28626900  0.87061300  1
  Cu  Cu9  1  0.75956000  0.78626900  0.87061300  1
  P  P0  1  0.73052600  0.22820800  0.09446000  1
  P  P1  1  0.76947400  0.72820800  0.09446000  1
  P  P2  1  0.38819800  0.43036800  0.25708200  1
  P  P3  1  0.11180200  0.93036800  0.25708200  1
  P  P4  1  0.70712700  0.42071800  0.41846300  1
  P  P5  1  0.79287300  0.92071800  0.41846300  1
  P  P6  1  0.20712700  0.07928200  0.58153700  1
  P  P7  1  0.29287300  0.57928200  0.58153700  1
  P  P8  1  0.88819800  0.06963200  0.74291800  1
  P  P9  1  0.61180200  0.56963200  0.74291800  1
  P  P10  1  0.23052600  0.27179200  0.90554000  1
  P  P11  1  0.26947400  0.77179200  0.90554000  1
  O  O0  1  0.77314800  0.14552600  0.00872800  1
  O  O1  1  0.69002100  0.36198200  0.00090600  1
  O  O2  1  0.72685200  0.64552600  0.00872800  1
  O  O3  1  0.80997900  0.86198200  0.00090600  1
  O  O4  1  0.55971700  0.16351300  0.17037900  1
  O  O5  1  0.90652000  0.25482300  0.16558500  1
  O  O6  1  0.55234600  0.45364700  0.16910000  1
  O  O7  1  0.21889700  0.05570300  0.26299900  1
  O  O8  1  0.94028300  0.66351300  0.17037900  1
  O  O9  1  0.59348000  0.75482300  0.16558500  1
  O  O10  1  0.23961300  0.32541800  0.24403700  1
  O  O11  1  0.94765400  0.95364700  0.16910000  1
  O  O12  1  0.28110300  0.55570300  0.26299900  1
  O  O13  1  0.79356400  0.07108800  0.39032700  1
  O  O14  1  0.26038700  0.82541800  0.24403700  1
  O  O15  1  0.87549100  0.38129000  0.35129700  1
  O  O16  1  0.49656200  0.37111300  0.37688100  1
  O  O17  1  0.21674200  0.14776200  0.45645000  1
  O  O18  1  0.70643600  0.57108800  0.39032700  1
  O  O19  1  0.62450900  0.88129000  0.35129700  1
  O  O20  1  0.00343800  0.87111300  0.37688100  1
  O  O21  1  0.28325800  0.64776200  0.45645000  1
  O  O22  1  0.71674200  0.35223800  0.54355000  1
  O  O23  1  0.99656200  0.12888700  0.62311900  1
  O  O24  1  0.37549100  0.11871000  0.64870300  1
  O  O25  1  0.29356400  0.42891200  0.60967300  1
  O  O26  1  0.78325800  0.85223800  0.54355000  1
  O  O27  1  0.50343800  0.62888700  0.62311900  1
  O  O28  1  0.12450900  0.61871000  0.64870300  1
  O  O29  1  0.73961300  0.17458200  0.75596300  1
  O  O30  1  0.20643600  0.92891200  0.60967300  1
  O  O31  1  0.71889700  0.44429700  0.73700100  1
  O  O32  1  0.05234600  0.04635300  0.83090000  1
  O  O33  1  0.76038700  0.67458200  0.75596300  1
  O  O34  1  0.40652000  0.24517700  0.83441500  1
  O  O35  1  0.05971700  0.33648700  0.82962100  1
  O  O36  1  0.78110300  0.94429700  0.73700100  1
  O  O37  1  0.44765400  0.54635300  0.83090000  1
  O  O38  1  0.09348000  0.74517700  0.83441500  1
  O  O39  1  0.44028300  0.83648700  0.82962100  1
  O  O40  1  0.19002100  0.13801800  0.99909400  1
  O  O41  1  0.27314800  0.35447400  0.99127200  1
  O  O42  1  0.30997900  0.63801800  0.99909400  1
  O  O43  1  0.22685200  0.85447400  0.99127200  1
loop_
_geom_bond_atom_site_label_1
_geom_bond_atom_site_label_2
_geom_bond_distance
_geom_bond_site_symmetry_2
Li0 O15 2.005035 1_555
Li0 O5 2.125746 1_555
Li0 O6 2.234914 1_555
Li0 O8 2.298938 1_555
Li1 O19 2.005035 1_555
Li1 O9 2.125746 1_555
Li1 O11 2.234914 1_555
Li1 O4 2.298938 1_565
Li2 O4 2.058776 1_555
Li2 O7 2.160360 1_555
Li2 O13 2.279027 1_555
Li2 O17 2.348303 1_555
Li3 O8 2.058776 1_455
Li3 O12 2.160360 1_555
Li3 O18 2.279027 1_455
Li3 O21 2.348303 1_555
Li4 O35 2.058776 1_655
Li4 O31 2.160360 1_555
Li4 O25 2.279027 1_655
Li4 O22 2.348303 1_555
Li5 O39 2.058776 1_555
Li5 O36 2.160360 1_555
Li5 O30 2.279027 1_555
Li5 O26 2.348303 1_555
Li6 O24 2.005035 1_555
Li6 O34 2.125746 1_555
Li6 O32 2.234914 1_555
Li6 O39 2.298938 1_545
Li7 O28 2.005035 1_555
Li7 O38 2.125746 1_555
Li7 O37 2.234914 1_555
Li7 O35 2.298938 1_555
Cu0 O42 1.949894 1_554
Cu0 O1 1.949894 1_555
Cu0 O37 2.042264 1_554
Cu0 O6 2.042264 1_555
Cu0 O2 2.203243 1_555
Cu0 O41 2.203243 1_554
Cu1 O41 1.958764 1_554
Cu1 O40 2.010205 1_554
Cu1 O7 2.022712 1_555
Cu1 O10 2.076684 1_555
Cu1 O4 2.248246 1_555
Cu1 O5 2.364149 1_455
Cu2 O40 1.949894 1_554
Cu2 O3 1.949894 1_445
Cu2 O32 2.042264 1_554
Cu2 O11 2.042264 1_445
Cu2 O0 2.203243 1_455
Cu2 O43 2.203243 1_544
Cu3 O43 1.958764 1_554
Cu3 O42 2.010205 1_554
Cu3 O12 2.022712 1_555
Cu3 O14 2.076684 1_555
Cu3 O8 2.248246 1_455
Cu3 O9 2.364149 1_555
Cu4 O13 1.981054 1_455
Cu4 O17 1.997135 1_555
Cu4 O5 2.168024 1_455
Cu4 O15 2.168479 1_455
Cu4 O10 2.183652 1_555
Cu4 O7 2.458655 1_555
Cu5 O18 1.981054 1_555
Cu5 O21 1.997135 1_555
Cu5 O9 2.168024 1_555
Cu5 O19 2.168479 1_555
Cu5 O14 2.183652 1_555
Cu5 O12 2.458655 1_555
Cu6 O25 1.981054 1_555
Cu6 O22 1.997135 1_555
Cu6 O34 2.168024 1_555
Cu6 O24 2.168479 1_555
Cu6 O29 2.183652 1_555
Cu6 O31 2.458655 1_555
Cu7 O30 1.981054 1_655
Cu7 O26 1.997135 1_555
Cu7 O38 2.168024 1_655
Cu7 O28 2.168479 1_655
Cu7 O33 2.183652 1_555
Cu7 O36 2.458655 1_555
Cu8 O0 1.958764 1_556
Cu8 O1 2.010205 1_556
Cu8 O31 2.022712 1_555
Cu8 O29 2.076684 1_555
Cu8 O35 2.248246 1_655
Cu8 O34 2.364149 1_555
Cu9 O2 1.958764 1_556
Cu9 O3 2.010205 1_556
Cu9 O36 2.022712 1_555
Cu9 O33 2.076684 1_555
Cu9 O39 2.248246 1_555
Cu9 O38 2.364149 1_655
O0 P0 1.572795 1_555
O1 P0 1.600022 1_555
O2 P1 1.572795 1_555
O3 P1 1.600022 1_555
O4 P0 1.529908 1_555
O5 P0 1.548491 1_555
O6 P2 1.525392 1_555
O7 P3 1.537353 1_545
O8 P1 1.529908 1_555
O9 P1 1.548491 1_555
O10 P2 1.542740 1_555
O11 P3 1.525392 1_655
O12 P2 1.537353 1_555
O13 P5 1.545728 1_545
O14 P3 1.542740 1_555
O15 P4 1.530818 1_555
O16 P2 1.619027 1_555
O16 P4 1.646929 1_555
O17 P6 1.522143 1_555
O18 P4 1.545728 1_555
O19 P5 1.530818 1_555
O20 P3 1.619027 1_555
O20 P5 1.646929 1_455
O21 P7 1.522143 1_555
O22 P4 1.522143 1_555
O23 P8 1.619027 1_555
O23 P6 1.646929 1_655
O24 P6 1.530818 1_555
O25 P7 1.545728 1_555
O26 P5 1.522143 1_555
O27 P9 1.619027 1_555
O27 P7 1.646929 1_555
O28 P7 1.530818 1_555
O29 P8 1.542740 1_555
O30 P6 1.545728 1_565
O31 P9 1.537353 1_555
O32 P8 1.525392 1_455
O33 P9 1.542740 1_555
O34 P10 1.548491 1_555
O35 P10 1.529908 1_555
O36 P8 1.537353 1_565
O37 P9 1.525392 1_555
O38 P11 1.548491 1_555
O39 P11 1.529908 1_555
O40 P10 1.600022 1_555
O41 P10 1.572795 1_555
O42 P11 1.600022 1_555
O43 P11 1.572795 1_555
