# generated using pymatgen
data_NaSnO
_symmetry_space_group_name_H-M   'P 1'
_cell_length_a   4.34308800
_cell_length_b   4.34308800
_cell_length_c   6.52090500
_cell_angle_alpha   90.00000000
_cell_angle_beta   90.00000000
_cell_angle_gamma   90.00000000
_symmetry_Int_Tables_number   1
_chemical_formula_structural   NaSnO
_chemical_formula_sum   'Na2 Sn2 O2'
_cell_volume   123.00000569
_cell_formula_units_Z   2
loop_
 _symmetry_equiv_pos_site_id
 _symmetry_equiv_pos_as_xyz
  1  'x, y, z'
loop_
 _atom_site_type_symbol
 _atom_site_label
 _atom_site_symmetry_multiplicity
 _atom_site_fract_x
 _atom_site_fract_y
 _atom_site_fract_z
 _atom_site_occupancy
  Na  Na0  1  0.50000000  0.50000000  0.00000000  1
  Na  Na1  1  0.00000000  0.00000000  0.00000000  1
  Sn  Sn0  1  0.50000000  0.00000000  0.55487200  1
  Sn  Sn1  1  0.00000000  0.50000000  0.44512800  1
  O  O0  1  0.50000000  0.00000000  0.86193200  1
  O  O1  1  0.00000000  0.50000000  0.13806800  1
loop_
_geom_bond_atom_site_label_1
_geom_bond_atom_site_label_2
_geom_bond_distance
_geom_bond_site_symmetry_2
Na0 O1 2.350786 1_555
Na0 O1 2.350786 1_655
Na0 O0 2.350786 1_564
Na0 O0 2.350786 1_554
Na1 O1 2.350786 1_545
Na1 O1 2.350786 1_555
Na1 O0 2.350786 1_454
Na1 O0 2.350786 1_554
O0 Sn0 2.002309 1_555
O1 Sn1 2.002309 1_555
