# generated using pymatgen
data_Li7Cr2O8
_symmetry_space_group_name_H-M   'P 1'
_cell_length_a   5.17662100
_cell_length_b   5.18608141
_cell_length_c   7.81010057
_cell_angle_alpha   70.86979430
_cell_angle_beta   83.02453689
_cell_angle_gamma   68.53067025
_symmetry_Int_Tables_number   1
_chemical_formula_structural   Li7Cr2O8
_chemical_formula_sum   'Li7 Cr2 O8'
_cell_volume   184.34869965
_cell_formula_units_Z   1
loop_
 _symmetry_equiv_pos_site_id
 _symmetry_equiv_pos_as_xyz
  1  'x, y, z'
loop_
 _atom_site_type_symbol
 _atom_site_label
 _atom_site_symmetry_multiplicity
 _atom_site_fract_x
 _atom_site_fract_y
 _atom_site_fract_z
 _atom_site_occupancy
  Li  Li0  1  0.76280600  0.23767000  0.99463100  1
  Li  Li1  1  0.27671800  0.20205500  0.20236700  1
  Li  Li2  1  0.74140200  0.03889800  0.45226300  1
  Li  Li3  1  0.26127000  0.94826000  0.56241600  1
  Li  Li4  1  0.75508000  0.49937400  0.58871500  1
  Li  Li5  1  0.71107200  0.80896400  0.80256600  1
  Li  Li6  1  0.24023900  0.77095100  0.98911400  1
  Cr  Cr0  1  0.71360000  0.60232600  0.23506400  1
  Cr  Cr1  1  0.27564000  0.38868000  0.76280300  1
  O  O0  1  0.83862600  0.80167800  0.03977600  1
  O  O1  1  0.51805100  0.44341900  0.17140400  1
  O  O2  1  0.96197300  0.31021600  0.37874600  1
  O  O3  1  0.54375000  0.83113600  0.36595100  1
  O  O4  1  0.47905500  0.16328700  0.63309500  1
  O  O5  1  0.00251100  0.69708400  0.63163600  1
  O  O6  1  0.50089200  0.56329300  0.80216300  1
  O  O7  1  0.16337000  0.18281700  0.97250600  1
loop_
_geom_bond_atom_site_label_1
_geom_bond_atom_site_label_2
_geom_bond_distance
_geom_bond_site_symmetry_2
Li0 O7 1.980875 1_655
Li0 O6 2.026040 1_555
Li0 O1 2.049637 1_556
Li0 O0 2.062123 1_546
Li1 O7 1.998304 1_554
Li1 O1 2.014685 1_555
Li1 O3 2.028571 1_545
Li1 O2 2.039417 1_455
Li2 O4 1.935231 1_555
Li2 O5 2.002563 1_645
Li2 O2 2.024986 1_555
Li2 O3 2.028007 1_545
Li2 O1 2.524644 1_555
Li3 O3 2.068184 1_555
Li3 O4 2.072241 1_565
Li3 O5 2.103123 1_555
Li3 O2 2.151246 1_465
Li3 O6 2.309064 1_555
Li4 O5 2.023662 1_655
Li4 O6 2.032358 1_555
Li4 O3 2.075209 1_555
Li4 O2 2.158083 1_555
Li4 O4 2.550800 1_555
Li5 O4 1.935841 1_565
Li5 O5 1.942328 1_655
Li5 O6 1.955821 1_555
Li5 O0 2.025501 1_556
Li6 O7 1.986533 1_565
Li6 O0 2.025636 1_456
Li6 O1 2.025962 1_556
Li6 O6 2.144931 1_555
Cr0 O1 1.718291 1_555
Cr0 O2 1.737170 1_555
Cr0 O0 1.740847 1_555
Cr0 O3 1.743316 1_555
Cr1 O4 1.765622 1_555
Cr1 O5 1.796992 1_555
Cr1 O7 1.799145 1_555
Cr1 O6 1.821167 1_555
