# generated using pymatgen
data_LiCr2(PO4)3
_symmetry_space_group_name_H-M   'P 1'
_cell_length_a   8.69622600
_cell_length_b   8.88429700
_cell_length_c   11.96309200
_cell_angle_alpha   90.00000000
_cell_angle_beta   90.00000000
_cell_angle_gamma   90.00000000
_symmetry_Int_Tables_number   1
_chemical_formula_structural   LiCr2(PO4)3
_chemical_formula_sum   'Li4 Cr8 P12 O48'
_cell_volume   924.26674805
_cell_formula_units_Z   4
loop_
 _symmetry_equiv_pos_site_id
 _symmetry_equiv_pos_as_xyz
  1  'x, y, z'
loop_
 _atom_site_type_symbol
 _atom_site_label
 _atom_site_symmetry_multiplicity
 _atom_site_fract_x
 _atom_site_fract_y
 _atom_site_fract_z
 _atom_site_occupancy
  Li  Li0  1  0.16104100  0.71714900  0.25000000  1
  Li  Li1  1  0.16104100  0.78285100  0.75000000  1
  Li  Li2  1  0.83895900  0.21714900  0.25000000  1
  Li  Li3  1  0.83895900  0.28285100  0.75000000  1
  Cr  Cr0  1  0.24616900  0.02597000  0.10112600  1
  Cr  Cr1  1  0.24616900  0.02597000  0.39887400  1
  Cr  Cr2  1  0.24616900  0.47403000  0.60112600  1
  Cr  Cr3  1  0.24616900  0.47403000  0.89887400  1
  Cr  Cr4  1  0.75383100  0.52597000  0.10112600  1
  Cr  Cr5  1  0.75383100  0.52597000  0.39887400  1
  Cr  Cr6  1  0.75383100  0.97403000  0.89887400  1
  Cr  Cr7  1  0.75383100  0.97403000  0.60112600  1
  P  P0  1  0.03310100  0.75000000  0.00000000  1
  P  P1  1  0.03310100  0.75000000  0.50000000  1
  P  P2  1  0.39976800  0.37162800  0.12830200  1
  P  P3  1  0.39976800  0.12837200  0.62830200  1
  P  P4  1  0.39976800  0.12837200  0.87169800  1
  P  P5  1  0.39976800  0.37162800  0.37169800  1
  P  P6  1  0.60023200  0.62837200  0.87169800  1
  P  P7  1  0.60023200  0.62837200  0.62830200  1
  P  P8  1  0.60023200  0.87162800  0.12830200  1
  P  P9  1  0.60023200  0.87162800  0.37169800  1
  P  P10  1  0.96689900  0.25000000  0.00000000  1
  P  P11  1  0.96689900  0.25000000  0.50000000  1
  O  O0  1  0.05920100  0.13969900  0.42671200  1
  O  O1  1  0.05920100  0.36030100  0.57328800  1
  O  O2  1  0.05920100  0.36030100  0.92671200  1
  O  O3  1  0.05920100  0.13969900  0.07328800  1
  O  O4  1  0.13439200  0.83041000  0.41019200  1
  O  O5  1  0.13439200  0.83041000  0.08980800  1
  O  O6  1  0.13439200  0.66959000  0.58980800  1
  O  O7  1  0.13439200  0.66959000  0.91019200  1
  O  O8  1  0.21152000  0.01839800  0.25000000  1
  O  O9  1  0.21152000  0.48160200  0.75000000  1
  O  O10  1  0.29134100  0.03189800  0.55628400  1
  O  O11  1  0.29134100  0.46810200  0.05628400  1
  O  O12  1  0.29134100  0.46810200  0.44371600  1
  O  O13  1  0.29134100  0.03189800  0.94371600  1
  O  O14  1  0.34246200  0.06988400  0.75000000  1
  O  O15  1  0.34246200  0.43011600  0.25000000  1
  O  O16  1  0.37438500  0.20342200  0.37937700  1
  O  O17  1  0.37438500  0.29657800  0.62062300  1
  O  O18  1  0.37438500  0.29657800  0.87937700  1
  O  O19  1  0.37438500  0.20342200  0.12062300  1
  O  O20  1  0.43000500  0.89935800  0.11780800  1
  O  O21  1  0.43000500  0.60064200  0.61780800  1
  O  O22  1  0.43000500  0.89935800  0.38219200  1
  O  O23  1  0.43000500  0.60064200  0.88219200  1
  O  O24  1  0.56999500  0.10064200  0.88219200  1
  O  O25  1  0.56999500  0.39935800  0.11780800  1
  O  O26  1  0.56999500  0.39935800  0.38219200  1
  O  O27  1  0.56999500  0.10064200  0.61780800  1
  O  O28  1  0.62561500  0.70342200  0.12062300  1
  O  O29  1  0.62561500  0.70342200  0.37937700  1
  O  O30  1  0.62561500  0.79657800  0.87937700  1
  O  O31  1  0.62561500  0.79657800  0.62062300  1
  O  O32  1  0.65753800  0.56988400  0.75000000  1
  O  O33  1  0.65753800  0.93011600  0.25000000  1
  O  O34  1  0.70865900  0.53189800  0.55628400  1
  O  O35  1  0.70865900  0.53189800  0.94371600  1
  O  O36  1  0.70865900  0.96810200  0.05628400  1
  O  O37  1  0.70865900  0.96810200  0.44371600  1
  O  O38  1  0.78848000  0.51839800  0.25000000  1
  O  O39  1  0.78848000  0.98160200  0.75000000  1
  O  O40  1  0.86560800  0.16959000  0.58980800  1
  O  O41  1  0.86560800  0.33041000  0.08980800  1
  O  O42  1  0.86560800  0.33041000  0.41019200  1
  O  O43  1  0.86560800  0.16959000  0.91019200  1
  O  O44  1  0.94079900  0.86030100  0.92671200  1
  O  O45  1  0.94079900  0.63969900  0.07328800  1
  O  O46  1  0.94079900  0.63969900  0.42671200  1
  O  O47  1  0.94079900  0.86030100  0.57328800  1
loop_
_geom_bond_atom_site_label_1
_geom_bond_atom_site_label_2
_geom_bond_distance
_geom_bond_site_symmetry_2
Li0 O4 2.176876 1_555
Li0 O5 2.176876 1_555
Li1 O6 2.176876 1_555
Li1 O7 2.176876 1_555
Li2 O41 2.176876 1_555
Li2 O42 2.176876 1_555
Li3 O43 2.176876 1_555
Li3 O40 2.176876 1_555
Cr0 O8 1.807555 1_555
Cr0 O13 1.924368 1_554
Cr0 O3 1.943045 1_555
Cr0 O19 1.945015 1_555
Cr0 O20 1.964920 1_545
Cr0 O5 1.995444 1_545
Cr1 O8 1.807555 1_555
Cr1 O10 1.924368 1_555
Cr1 O0 1.943045 1_555
Cr1 O16 1.945015 1_555
Cr1 O22 1.964920 1_545
Cr1 O4 1.995444 1_545
Cr2 O9 1.807555 1_555
Cr2 O12 1.924368 1_555
Cr2 O1 1.943045 1_555
Cr2 O17 1.945015 1_555
Cr2 O21 1.964920 1_555
Cr2 O6 1.995444 1_555
Cr3 O9 1.807555 1_555
Cr3 O11 1.924368 1_556
Cr3 O2 1.943045 1_555
Cr3 O18 1.945015 1_555
Cr3 O23 1.964920 1_555
Cr3 O7 1.995444 1_555
Cr4 O38 1.807555 1_555
Cr4 O35 1.924368 1_554
Cr4 O45 1.943045 1_555
Cr4 O28 1.945015 1_555
Cr4 O25 1.964920 1_555
Cr4 O41 1.995444 1_555
Cr5 O38 1.807555 1_555
Cr5 O34 1.924368 1_555
Cr5 O46 1.943045 1_555
Cr5 O29 1.945015 1_555
Cr5 O26 1.964920 1_555
Cr5 O42 1.995444 1_555
Cr6 O39 1.807555 1_555
Cr6 O36 1.924368 1_556
Cr6 O44 1.943045 1_555
Cr6 O30 1.945015 1_555
Cr6 O24 1.964920 1_565
Cr6 O43 1.995444 1_565
Cr7 O39 1.807555 1_555
Cr7 O37 1.924368 1_555
Cr7 O47 1.943045 1_555
Cr7 O31 1.945015 1_555
Cr7 O27 1.964920 1_565
Cr7 O40 1.995444 1_565
O0 P11 1.540546 1_455
O1 P11 1.540546 1_455
O2 P10 1.540546 1_456
O3 P10 1.540546 1_455
O4 P1 1.562222 1_555
O5 P0 1.562222 1_555
O6 P1 1.562222 1_555
O7 P0 1.562222 1_556
O10 P3 1.538174 1_555
O11 P2 1.538174 1_555
O12 P5 1.538174 1_555
O13 P4 1.538174 1_555
O14 P4 1.624179 1_555
O14 P3 1.624179 1_555
O15 P5 1.624179 1_555
O15 P2 1.624179 1_555
O16 P5 1.513397 1_555
O17 P3 1.513397 1_555
O18 P4 1.513397 1_555
O19 P2 1.513397 1_555
O20 P8 1.505934 1_555
O21 P7 1.505934 1_555
O22 P9 1.505934 1_555
O23 P6 1.505934 1_555
O24 P4 1.505934 1_555
O25 P2 1.505934 1_555
O26 P5 1.505934 1_555
O27 P3 1.505934 1_555
O28 P8 1.513397 1_555
O29 P9 1.513397 1_555
O30 P6 1.513397 1_555
O31 P7 1.513397 1_555
O32 P6 1.624179 1_555
O32 P7 1.624179 1_555
O33 P9 1.624179 1_555
O33 P8 1.624179 1_555
O34 P7 1.538174 1_555
O35 P6 1.538174 1_555
O36 P8 1.538174 1_555
O37 P9 1.538174 1_555
O40 P11 1.562222 1_555
O41 P10 1.562222 1_555
O42 P11 1.562222 1_555
O43 P10 1.562222 1_556
O44 P0 1.540546 1_656
O45 P0 1.540546 1_655
O46 P1 1.540546 1_655
O47 P1 1.540546 1_655
