# generated using pymatgen
data_TaFeO4
_symmetry_space_group_name_H-M   'P 1'
_cell_length_a   4.56185300
_cell_length_b   11.83667800
_cell_length_c   4.94881400
_cell_angle_alpha   89.99997874
_cell_angle_beta   90.00014482
_cell_angle_gamma   89.99992844
_symmetry_Int_Tables_number   1
_chemical_formula_structural   TaFeO4
_chemical_formula_sum   'Ta4 Fe4 O16'
_cell_volume   267.22202531
_cell_formula_units_Z   4
loop_
 _symmetry_equiv_pos_site_id
 _symmetry_equiv_pos_as_xyz
  1  'x, y, z'
loop_
 _atom_site_type_symbol
 _atom_site_label
 _atom_site_symmetry_multiplicity
 _atom_site_fract_x
 _atom_site_fract_y
 _atom_site_fract_z
 _atom_site_occupancy
  Ta  Ta0  1  0.99999900  0.17242000  0.25000000  1
  Ta  Ta1  1  0.00000000  0.82758000  0.75000000  1
  Ta  Ta2  1  0.50000000  0.67241800  0.24999900  1
  Ta  Ta3  1  0.50000100  0.32758200  0.75000000  1
  Fe  Fe0  1  0.50000100  0.06664800  0.74999900  1
  Fe  Fe1  1  0.49999700  0.93335200  0.25000100  1
  Fe  Fe2  1  0.99999900  0.43335900  0.25000200  1
  Fe  Fe3  1  0.00000000  0.56664100  0.75000100  1
  O  O0  1  0.23006100  0.30756900  0.07242300  1
  O  O1  1  0.23006100  0.69243200  0.57242300  1
  O  O2  1  0.26993700  0.19243700  0.57242200  1
  O  O3  1  0.26993600  0.80756400  0.07242100  1
  O  O4  1  0.73006400  0.19243700  0.92757800  1
  O  O5  1  0.73006400  0.80756300  0.42757900  1
  O  O6  1  0.76994000  0.30756800  0.42757700  1
  O  O7  1  0.76993900  0.69243200  0.92757700  1
  O  O8  1  0.24547800  0.43793000  0.58528700  1
  O  O9  1  0.24547800  0.56207000  0.08528700  1
  O  O10  1  0.25452200  0.06207200  0.08528700  1
  O  O11  1  0.25452100  0.93792800  0.58528700  1
  O  O12  1  0.74547900  0.06207200  0.41471200  1
  O  O13  1  0.74547900  0.93792800  0.91471300  1
  O  O14  1  0.75452200  0.56207100  0.41471200  1
  O  O15  1  0.75452300  0.43793000  0.91471300  1
loop_
_geom_bond_atom_site_label_1
_geom_bond_atom_site_label_2
_geom_bond_distance
_geom_bond_site_symmetry_2
Fe0 O12 2.002538 1_555
Fe0 O10 2.002545 1_556
Fe0 O2 2.022537 1_555
Fe0 O4 2.022541 1_555
Fe0 O13 2.059097 1_545
Fe0 O11 2.059101 1_545
Fe1 O11 2.002529 1_555
Fe1 O13 2.002553 1_554
Fe1 O3 2.022530 1_555
Fe1 O5 2.022546 1_555
Fe1 O10 2.059090 1_565
Fe1 O12 2.059104 1_565
Fe2 O8 2.002526 1_655
Fe2 O15 2.002535 1_554
Fe2 O6 2.022542 1_555
Fe2 O0 2.022548 1_655
Fe2 O14 2.059019 1_555
Fe2 O9 2.059027 1_655
Fe3 O9 2.002528 1_556
Fe3 O14 2.002540 1_455
Fe3 O7 2.022548 1_455
Fe3 O1 2.022553 1_555
Fe3 O15 2.059016 1_455
Fe3 O8 2.059021 1_555
O0 Ta3 2.029412 1_554
O0 Ta0 2.105433 1_455
O1 Ta2 2.029414 1_555
O1 Ta1 2.105420 1_555
O2 Ta0 2.029403 1_455
O2 Ta3 2.105402 1_555
O3 Ta1 2.029392 1_554
O3 Ta2 2.105408 1_555
O4 Ta0 2.029395 1_556
O4 Ta3 2.105397 1_555
O5 Ta1 2.029394 1_655
O5 Ta2 2.105406 1_555
O6 Ta3 2.029410 1_555
O6 Ta0 2.105415 1_555
O7 Ta2 2.029407 1_556
O7 Ta1 2.105422 1_655
O8 Ta3 1.928372 1_555
O9 Ta2 1.928369 1_555
O10 Ta0 1.928374 1_455
O11 Ta1 1.928370 1_555
O12 Ta0 1.928366 1_555
O13 Ta1 1.928369 1_655
O14 Ta2 1.928361 1_555
O15 Ta3 1.928371 1_555
