# generated using pymatgen
data_K6W2N4O3
_symmetry_space_group_name_H-M   'P 1'
_cell_length_a   9.66904200
_cell_length_b   6.83974100
_cell_length_c   11.75756398
_cell_angle_alpha   56.76867799
_cell_angle_beta   90.00000000
_cell_angle_gamma   90.00000000
_symmetry_Int_Tables_number   1
_chemical_formula_structural   K6W2N4O3
_chemical_formula_sum   'K12 W4 N8 O6'
_cell_volume   650.41140817
_cell_formula_units_Z   2
loop_
 _symmetry_equiv_pos_site_id
 _symmetry_equiv_pos_as_xyz
  1  'x, y, z'
loop_
 _atom_site_type_symbol
 _atom_site_label
 _atom_site_symmetry_multiplicity
 _atom_site_fract_x
 _atom_site_fract_y
 _atom_site_fract_z
 _atom_site_occupancy
  K  K0  1  0.52466800  0.20259500  0.54960400  1
  K  K1  1  0.97533200  0.20259500  0.04960400  1
  K  K2  1  0.47533200  0.79740500  0.45039600  1
  K  K3  1  0.02466800  0.79740500  0.95039600  1
  K  K4  1  0.65521700  0.95263500  0.93187200  1
  K  K5  1  0.84478300  0.95263500  0.43187200  1
  K  K6  1  0.34478300  0.04736500  0.06812800  1
  K  K7  1  0.15521700  0.04736500  0.56812800  1
  K  K8  1  0.71236200  0.59528400  0.77972500  1
  K  K9  1  0.78763800  0.59528400  0.27972500  1
  K  K10  1  0.28763800  0.40471600  0.22027500  1
  K  K11  1  0.21236200  0.40471600  0.72027500  1
  W  W0  1  0.64352400  0.31030800  0.13521200  1
  W  W1  1  0.85647600  0.31030800  0.63521200  1
  W  W2  1  0.35647600  0.68969200  0.86478800  1
  W  W3  1  0.14352400  0.68969200  0.36478800  1
  N  N0  1  0.67345500  0.04184300  0.13873100  1
  N  N1  1  0.82654500  0.04184300  0.63873100  1
  N  N2  1  0.32654500  0.95815700  0.86126900  1
  N  N3  1  0.17345500  0.95815700  0.36126900  1
  N  N4  1  0.70067800  0.49032900  0.57728000  1
  N  N5  1  0.79932200  0.49032900  0.07728000  1
  N  N6  1  0.29932200  0.50967100  0.42272000  1
  N  N7  1  0.20067800  0.50967100  0.92272000  1
  O  O0  1  0.50000000  0.50000000  0.00000000  1
  O  O1  1  0.00000000  0.50000000  0.50000000  1
  O  O2  1  0.59612300  0.24066000  0.30924900  1
  O  O3  1  0.90387700  0.24066000  0.80924900  1
  O  O4  1  0.40387700  0.75934000  0.69075100  1
  O  O5  1  0.09612300  0.75934000  0.19075100  1
loop_
_geom_bond_atom_site_label_1
_geom_bond_atom_site_label_2
_geom_bond_distance
_geom_bond_site_symmetry_2
K0 N4 2.752672 1_555
K0 O2 2.779374 1_555
K0 O4 2.791975 1_545
K0 N6 2.819607 1_555
K0 N1 3.092562 1_555
K1 N5 2.752672 1_555
K1 O3 2.779374 1_554
K1 O5 2.791975 1_645
K1 N7 2.819607 1_654
K1 N0 3.092562 1_555
K2 N6 2.752672 1_555
K2 O4 2.779374 1_555
K2 O2 2.791975 1_565
K2 N4 2.819607 1_555
K2 N3 3.092562 1_555
K3 N7 2.752672 1_555
K3 O5 2.779374 1_556
K3 O3 2.791975 1_465
K3 N5 2.819607 1_456
K3 N2 3.092562 1_555
K4 N0 2.818743 1_566
K4 O3 2.937215 1_565
K4 N5 2.989603 1_556
K4 O0 3.124198 1_556
K4 N2 3.279556 1_555
K5 N1 2.818743 1_565
K5 O2 2.937215 1_565
K5 N4 2.989603 1_555
K5 O1 3.124198 1_655
K5 N3 3.279556 1_655
K6 N2 2.818743 1_544
K6 O5 2.937215 1_545
K6 N7 2.989603 1_554
K6 O0 3.124198 1_555
K6 N0 3.279556 1_555
K7 N3 2.818743 1_545
K7 O4 2.937215 1_545
K7 N6 2.989603 1_555
K7 O1 3.124198 1_555
K7 N1 3.279556 1_455
K8 N1 2.783244 1_565
K8 N4 2.840166 1_555
K8 O3 2.917177 1_555
K8 O0 3.081965 1_556
K8 O4 3.156534 1_555
K8 N5 3.272506 1_556
K9 N0 2.783244 1_565
K9 N5 2.840166 1_555
K9 O2 2.917177 1_555
K9 O1 3.081965 1_655
K9 O5 3.156534 1_655
K9 N4 3.272506 1_555
K10 N3 2.783244 1_545
K10 N6 2.840166 1_555
K10 O5 2.917177 1_555
K10 O0 3.081965 1_555
K10 O2 3.156534 1_555
K10 N7 3.272506 1_554
K11 N2 2.783244 1_545
K11 N7 2.840166 1_555
K11 O4 2.917177 1_555
K11 O1 3.081965 1_555
K11 O3 3.156534 1_455
K11 N6 3.272506 1_555
N0 W0 1.836829 1_555
N1 W1 1.836829 1_555
N2 W2 1.836829 1_555
N3 W3 1.836829 1_555
N4 W1 1.824857 1_555
N5 W0 1.824857 1_555
N6 W3 1.824857 1_555
N7 W2 1.824857 1_555
O0 W2 1.968706 1_554
O0 W0 1.968706 1_555
O1 W3 1.968706 1_555
O1 W1 1.968706 1_455
O2 W0 1.885666 1_555
O3 W1 1.885666 1_555
O4 W2 1.885666 1_555
O5 W3 1.885666 1_555
