# generated using pymatgen
data_Hf2N2O
_symmetry_space_group_name_H-M   'P 1'
_cell_length_a   5.49390770
_cell_length_b   5.49390770
_cell_length_c   10.31758963
_cell_angle_alpha   73.91979955
_cell_angle_beta   73.91979955
_cell_angle_gamma   59.29350447
_symmetry_Int_Tables_number   1
_chemical_formula_structural   Hf2N2O
_chemical_formula_sum   'Hf8 N8 O4'
_cell_volume   253.79158418
_cell_formula_units_Z   4
loop_
 _symmetry_equiv_pos_site_id
 _symmetry_equiv_pos_as_xyz
  1  'x, y, z'
loop_
 _atom_site_type_symbol
 _atom_site_label
 _atom_site_symmetry_multiplicity
 _atom_site_fract_x
 _atom_site_fract_y
 _atom_site_fract_z
 _atom_site_occupancy
  Hf  Hf0  1  0.41776600  0.17936500  0.58990100  1
  Hf  Hf1  1  0.90629900  0.67430700  0.08743600  1
  Hf  Hf2  1  0.32569300  0.09370100  0.91256400  1
  Hf  Hf3  1  0.16959800  0.95113100  0.34033300  1
  Hf  Hf4  1  0.82063500  0.58223400  0.41009900  1
  Hf  Hf5  1  0.04886900  0.83040200  0.65966700  1
  Hf  Hf6  1  0.67886900  0.43535900  0.83910400  1
  Hf  Hf7  1  0.56464100  0.32113100  0.16089600  1
  N  N0  1  0.83604000  0.86195100  0.50515600  1
  N  N1  1  0.67503100  0.11622900  0.75708900  1
  N  N2  1  0.88377100  0.32496900  0.24291100  1
  N  N3  1  0.13804900  0.16396000  0.49484400  1
  N  N4  1  0.32957900  0.37751100  0.00204600  1
  N  N5  1  0.08265400  0.41235200  0.74892300  1
  N  N6  1  0.58764800  0.91734600  0.25107700  1
  N  N7  1  0.62248900  0.67042100  0.99795400  1
  O  O0  1  0.38135300  0.81272400  0.74135000  1
  O  O1  1  0.44654200  0.55345800  0.50000000  1
  O  O2  1  0.93352400  0.06647600  0.00000000  1
  O  O3  1  0.18727600  0.61864700  0.25865000  1
loop_
_geom_bond_atom_site_label_1
_geom_bond_atom_site_label_2
_geom_bond_distance
_geom_bond_site_symmetry_2
Hf0 O1 2.074581 1_555
Hf0 N3 2.084310 1_555
Hf0 N0 2.173744 1_545
Hf0 N5 2.191633 1_555
Hf0 O0 2.243620 1_545
Hf0 N1 2.368965 1_555
Hf1 N7 2.031349 1_554
Hf1 N4 2.151989 1_655
Hf1 O2 2.157752 1_565
Hf1 N2 2.167743 1_555
Hf1 N6 2.218655 1_555
Hf1 O3 2.515206 1_655
Hf2 N4 2.031349 1_556
Hf2 N7 2.151989 1_545
Hf2 O2 2.157752 1_456
Hf2 N1 2.167743 1_555
Hf2 N5 2.218655 1_555
Hf2 O0 2.515206 1_545
Hf3 N2 2.032589 1_465
Hf3 N3 2.147367 1_565
Hf3 N6 2.155255 1_555
Hf3 O3 2.163924 1_555
Hf3 N0 2.284564 1_455
Hf3 O1 2.408714 1_555
Hf4 O1 2.074581 1_555
Hf4 N0 2.084310 1_555
Hf4 N3 2.173744 1_655
Hf4 N6 2.191633 1_555
Hf4 O3 2.243620 1_655
Hf4 N2 2.368965 1_555
Hf5 N1 2.032589 1_465
Hf5 N0 2.147367 1_455
Hf5 N5 2.155255 1_555
Hf5 O0 2.163924 1_555
Hf5 N3 2.284564 1_565
Hf5 O1 2.408714 1_555
Hf6 O0 2.069102 1_555
Hf6 N5 2.106701 1_655
Hf6 N1 2.158695 1_555
Hf6 N7 2.220942 1_555
Hf6 N4 2.269247 1_556
Hf6 O2 2.312467 1_556
Hf7 O3 2.069102 1_555
Hf7 N6 2.106701 1_545
Hf7 N2 2.158695 1_555
Hf7 N4 2.220942 1_555
Hf7 N7 2.269247 1_554
Hf7 O2 2.312467 1_555
