# generated using pymatgen
data_Mn3CoSn2(PO4)6
_symmetry_space_group_name_H-M   'P 1'
_cell_length_a   8.58531137
_cell_length_b   8.58531137
_cell_length_c   8.58531144
_cell_angle_alpha   61.49317371
_cell_angle_beta   61.49317371
_cell_angle_gamma   61.49317668
_symmetry_Int_Tables_number   1
_chemical_formula_structural   Mn3CoSn2(PO4)6
_chemical_formula_sum   'Mn3 Co1 Sn2 P6 O24'
_cell_volume   462.45752638
_cell_formula_units_Z   1
loop_
 _symmetry_equiv_pos_site_id
 _symmetry_equiv_pos_as_xyz
  1  'x, y, z'
loop_
 _atom_site_type_symbol
 _atom_site_label
 _atom_site_symmetry_multiplicity
 _atom_site_fract_x
 _atom_site_fract_y
 _atom_site_fract_z
 _atom_site_occupancy
  Mn  Mn0  1  0.34837800  0.34837800  0.34837800  1
  Mn  Mn1  1  0.15060500  0.15060500  0.15060500  1
  Mn  Mn2  1  0.64982700  0.64982700  0.64982700  1
  Co  Co0  1  0.84897900  0.84897900  0.84897900  1
  Sn  Sn0  1  0.99917000  0.99917000  0.99917000  1
  Sn  Sn1  1  0.50016200  0.50016200  0.50016200  1
  P  P0  1  0.45287100  0.75162300  0.04835400  1
  P  P1  1  0.75162300  0.04835400  0.45287100  1
  P  P2  1  0.04835400  0.45287100  0.75162300  1
  P  P3  1  0.94623400  0.55341600  0.24884200  1
  P  P4  1  0.24884200  0.94623400  0.55341600  1
  P  P5  1  0.55341600  0.24884200  0.94623400  1
  O  O0  1  0.67613900  0.90431100  0.48738200  1
  O  O1  1  0.90431100  0.48738200  0.67613900  1
  O  O2  1  0.48738200  0.67613900  0.90431100  1
  O  O3  1  0.24938100  0.90418500  0.06558600  1
  O  O4  1  0.60504200  0.82696800  0.00173400  1
  O  O5  1  0.43947300  0.60159600  0.25045000  1
  O  O6  1  0.90418500  0.06558600  0.24938100  1
  O  O7  1  0.60159600  0.25045000  0.43947300  1
  O  O8  1  0.98220700  0.40311100  0.18005800  1
  O  O9  1  0.25045000  0.43947300  0.60159600  1
  O  O10  1  0.92776100  0.75489300  0.09082000  1
  O  O11  1  0.18005800  0.98220700  0.40311100  1
  O  O12  1  0.82696800  0.00173400  0.60504200  1
  O  O13  1  0.06558600  0.24938100  0.90418500  1
  O  O14  1  0.74344000  0.57226300  0.40107900  1
  O  O15  1  0.00173400  0.60504200  0.82696800  1
  O  O16  1  0.40107900  0.74344000  0.57226300  1
  O  O17  1  0.09082000  0.92776100  0.75489300  1
  O  O18  1  0.57226300  0.40107900  0.74344000  1
  O  O19  1  0.40311100  0.18005800  0.98220700  1
  O  O20  1  0.75489300  0.09082000  0.92776100  1
  O  O21  1  0.52214300  0.31940800  0.09208500  1
  O  O22  1  0.09208500  0.52214300  0.31940800  1
  O  O23  1  0.31940800  0.09208500  0.52214300  1
loop_
_geom_bond_atom_site_label_1
_geom_bond_atom_site_label_2
_geom_bond_distance
_geom_bond_site_symmetry_2
Mn0 O23 2.040563 1_555
Mn0 O21 2.040563 1_555
Mn0 O22 2.040563 1_555
Mn0 O5 2.301134 1_555
Mn0 O9 2.301134 1_555
Mn0 O7 2.301134 1_555
Mn1 O19 2.009060 1_554
Mn1 O11 2.009060 1_545
Mn1 O8 2.009060 1_455
Mn1 O6 2.213212 1_455
Mn1 O13 2.213212 1_554
Mn1 O3 2.213212 1_545
Mn2 O0 2.007836 1_555
Mn2 O2 2.007836 1_555
Mn2 O1 2.007836 1_555
Mn2 O18 2.204164 1_555
Mn2 O14 2.204164 1_555
Mn2 O16 2.204164 1_555
Co0 O4 1.913416 1_556
Co0 O12 1.913416 1_565
Co0 O15 1.913416 1_655
Co0 O17 2.153832 1_655
Co0 O10 2.153832 1_556
Co0 O20 2.153832 1_565
O0 P1 1.506328 1_565
O1 P2 1.506328 1_655
O2 P0 1.506328 1_556
O3 P0 1.594870 1_555
O3 Sn0 2.158210 1_454
O4 P0 1.531601 1_555
O5 P0 1.581269 1_555
O5 Sn1 2.115896 1_555
O6 P1 1.594870 1_555
O6 Sn0 2.158210 1_544
O7 P1 1.581269 1_555
O7 Sn1 2.115896 1_555
O8 P3 1.510684 1_555
O9 P2 1.581269 1_555
O9 Sn1 2.115896 1_555
O10 P3 1.600393 1_555
O10 Sn0 2.141233 1_554
O11 P4 1.510684 1_555
O12 P1 1.531601 1_555
O13 P2 1.594870 1_555
O13 Sn0 2.158210 1_445
O14 P3 1.589520 1_555
O14 Sn1 2.122421 1_555
O15 P2 1.531601 1_555
O16 P4 1.589520 1_555
O16 Sn1 2.122421 1_555
O17 P4 1.600393 1_555
O17 Sn0 2.141233 1_455
O18 P5 1.589520 1_555
O18 Sn1 2.122421 1_555
O19 P5 1.510684 1_555
O20 P5 1.600393 1_555
O20 Sn0 2.141233 1_545
O21 P5 1.501667 1_554
O22 P3 1.501667 1_455
O23 P4 1.501667 1_545
