# generated using pymatgen
data_KBePO4
_symmetry_space_group_name_H-M   'P 1'
_cell_length_a   4.98884900
_cell_length_b   8.45681900
_cell_length_c   8.62499800
_cell_angle_alpha   90.00000000
_cell_angle_beta   90.00000000
_cell_angle_gamma   90.00000000
_symmetry_Int_Tables_number   1
_chemical_formula_structural   KBePO4
_chemical_formula_sum   'K4 Be4 P4 O16'
_cell_volume   363.88688034
_cell_formula_units_Z   4
loop_
 _symmetry_equiv_pos_site_id
 _symmetry_equiv_pos_as_xyz
  1  'x, y, z'
loop_
 _atom_site_type_symbol
 _atom_site_label
 _atom_site_symmetry_multiplicity
 _atom_site_fract_x
 _atom_site_fract_y
 _atom_site_fract_z
 _atom_site_occupancy
  K  K0  1  0.25256900  0.49731800  0.29214500  1
  K  K1  1  0.75256900  0.50268200  0.70785500  1
  K  K2  1  0.75256900  0.00268200  0.79214500  1
  K  K3  1  0.25256900  0.99731800  0.20785500  1
  Be  Be0  1  0.74086200  0.81848700  0.41043800  1
  Be  Be1  1  0.24086200  0.18151300  0.58956200  1
  Be  Be2  1  0.24086200  0.68151300  0.91043800  1
  Be  Be3  1  0.74086200  0.31848700  0.08956200  1
  P  P0  1  0.73944900  0.69016900  0.08150800  1
  P  P1  1  0.23944900  0.30983100  0.91849200  1
  P  P2  1  0.23944900  0.80983100  0.58150800  1
  P  P3  1  0.73944900  0.19016900  0.41849200  1
  O  O0  1  0.64842000  0.76047800  0.23804100  1
  O  O1  1  0.14842000  0.23952200  0.76195900  1
  O  O2  1  0.14842000  0.73952200  0.73804100  1
  O  O3  1  0.64842000  0.26047800  0.26195900  1
  O  O4  1  0.02449600  0.25078100  0.46055600  1
  O  O5  1  0.52449600  0.74921900  0.53944400  1
  O  O6  1  0.52449600  0.24921900  0.96055600  1
  O  O7  1  0.02449600  0.75078100  0.03944400  1
  O  O8  1  0.04093400  0.75335600  0.45348000  1
  O  O9  1  0.54093400  0.24664400  0.54652000  1
  O  O10  1  0.54093400  0.74664400  0.95348000  1
  O  O11  1  0.04093400  0.25335600  0.04652000  1
  O  O12  1  0.73836900  0.00953400  0.40551100  1
  O  O13  1  0.23836900  0.99046600  0.59448900  1
  O  O14  1  0.23836900  0.49046600  0.90551100  1
  O  O15  1  0.73836900  0.50953400  0.09448900  1
loop_
_geom_bond_atom_site_label_1
_geom_bond_atom_site_label_2
_geom_bond_distance
_geom_bond_site_symmetry_2
K0 O8 2.781985 1_555
K0 O4 2.784135 1_555
K0 O3 2.824790 1_555
K0 O15 2.964913 1_555
K0 O0 3.011742 1_555
K0 O15 3.081809 1_455
K0 O11 3.139970 1_555
K0 O7 3.261841 1_555
K0 O5 3.305746 1_555
K0 O14 3.335973 1_554
K0 O9 3.373004 1_555
K1 O9 2.781985 1_555
K1 O5 2.784135 1_555
K1 O2 2.824790 1_655
K1 O14 2.964913 1_655
K1 O1 3.011742 1_655
K1 O14 3.081809 1_555
K1 O10 3.139970 1_555
K1 O6 3.261841 1_555
K1 O4 3.305746 1_655
K1 O15 3.335973 1_556
K1 O8 3.373004 1_655
K2 O10 2.781985 1_545
K2 O6 2.784135 1_555
K2 O1 2.824790 1_655
K2 O13 2.964913 1_645
K2 O2 3.011742 1_645
K2 O13 3.081809 1_545
K2 O9 3.139970 1_555
K2 O5 3.261841 1_545
K2 O7 3.305746 1_646
K2 O12 3.335973 1_555
K2 O11 3.373004 1_656
K3 O11 2.781985 1_565
K3 O7 2.784135 1_555
K3 O0 2.824790 1_555
K3 O12 2.964913 1_565
K3 O3 3.011742 1_565
K3 O12 3.081809 1_465
K3 O8 3.139970 1_555
K3 O4 3.261841 1_565
K3 O6 3.305746 1_564
K3 O13 3.335973 1_555
K3 O10 3.373004 1_554
Be0 O12 1.616257 1_565
Be0 O0 1.632265 1_555
Be0 O8 1.637757 1_655
Be0 O5 1.657208 1_555
Be1 O13 1.616257 1_545
Be1 O1 1.632265 1_555
Be1 O9 1.637757 1_555
Be1 O4 1.657208 1_555
Be2 O14 1.616257 1_555
Be2 O2 1.632265 1_555
Be2 O10 1.637757 1_555
Be2 O7 1.657208 1_556
Be3 O15 1.616257 1_555
Be3 O3 1.632265 1_555
Be3 O11 1.637757 1_655
Be3 O6 1.657208 1_554
O0 P0 1.543546 1_555
O1 P1 1.543546 1_555
O2 P2 1.543546 1_555
O3 P3 1.543546 1_555
O4 P3 1.554546 1_455
O5 P2 1.554546 1_555
O6 P1 1.554546 1_555
O7 P0 1.554546 1_455
O8 P2 1.558289 1_555
O9 P3 1.558289 1_555
O10 P0 1.558289 1_556
O11 P1 1.558289 1_554
O12 P3 1.531704 1_555
O13 P2 1.531704 1_555
O14 P1 1.531704 1_555
O15 P0 1.531704 1_555
