# generated using pymatgen
data_K2MnO4
_symmetry_space_group_name_H-M   'P 1'
_cell_length_a   6.12032195
_cell_length_b   8.14329785
_cell_length_c   11.71764144
_cell_angle_alpha   89.96055301
_cell_angle_beta   118.02001927
_cell_angle_gamma   90.04899879
_symmetry_Int_Tables_number   1
_chemical_formula_structural   K2MnO4
_chemical_formula_sum   'K8 Mn4 O16'
_cell_volume   515.54766036
_cell_formula_units_Z   4
loop_
 _symmetry_equiv_pos_site_id
 _symmetry_equiv_pos_as_xyz
  1  'x, y, z'
loop_
 _atom_site_type_symbol
 _atom_site_label
 _atom_site_symmetry_multiplicity
 _atom_site_fract_x
 _atom_site_fract_y
 _atom_site_fract_z
 _atom_site_occupancy
  K  K0  1  0.19823300  0.71943100  0.91109300  1
  K  K1  1  0.47965100  0.49145700  0.71732000  1
  K  K2  1  0.19812200  0.78072000  0.41109300  1
  K  K3  1  0.52043800  0.99143100  0.78267600  1
  K  K4  1  0.47962600  0.00866100  0.21735600  1
  K  K5  1  0.80183400  0.21923100  0.58895300  1
  K  K6  1  0.52044200  0.50863200  0.28268600  1
  K  K7  1  0.80189800  0.28074000  0.08892200  1
  Mn  Mn0  1  0.14670300  0.25098700  0.92828600  1
  Mn  Mn1  1  0.14667400  0.24889800  0.42832800  1
  Mn  Mn2  1  0.85325600  0.75080900  0.57175800  1
  Mn  Mn3  1  0.85333000  0.74922400  0.07162500  1
  O  O0  1  0.24163900  0.06500500  0.91457300  1
  O  O1  1  0.25626500  0.39196100  0.86623000  1
  O  O2  1  0.25183300  0.20799700  0.58524000  1
  O  O3  1  0.16295100  0.75417700  0.64833800  1
  O  O4  1  0.24161200  0.43505200  0.41461400  1
  O  O5  1  0.25624400  0.10814000  0.36630500  1
  O  O6  1  0.83693400  0.25428300  0.85168400  1
  O  O7  1  0.74818700  0.70823300  0.91476800  1
  O  O8  1  0.25191300  0.29192800  0.08516600  1
  O  O9  1  0.16311100  0.74590300  0.14826700  1
  O  O10  1  0.74362600  0.89153000  0.63373900  1
  O  O11  1  0.75829200  0.56459400  0.58539500  1
  O  O12  1  0.83691400  0.24562900  0.35173900  1
  O  O13  1  0.74810500  0.79178000  0.41482300  1
  O  O14  1  0.74379300  0.60830700  0.13370000  1
  O  O15  1  0.75837300  0.93525900  0.08532600  1
loop_
_geom_bond_atom_site_label_1
_geom_bond_atom_site_label_2
_geom_bond_distance
_geom_bond_site_symmetry_2
K0 O1 2.773569 1_555
K0 O7 2.776336 1_455
K0 O0 2.824919 1_565
K0 O9 2.894542 1_556
K0 O3 2.996726 1_555
K1 O3 2.742282 1_555
K1 O7 2.756484 1_555
K1 O2 2.763972 1_555
K1 O6 2.785495 1_555
K1 O1 2.794249 1_555
K1 O11 2.850714 1_555
K1 O4 3.171839 1_555
K2 O5 2.771798 1_565
K2 O13 2.776588 1_455
K2 O4 2.826108 1_555
K2 O3 2.895258 1_555
K2 O9 2.998654 1_555
K3 O6 2.740683 1_565
K3 O2 2.755156 1_565
K3 O7 2.762346 1_555
K3 O3 2.785445 1_555
K3 O10 2.795906 1_555
K3 O0 2.853071 1_565
K3 O15 3.170669 1_556
K4 O9 2.740117 1_545
K4 O13 2.756845 1_545
K4 O8 2.763132 1_555
K4 O12 2.783302 1_555
K4 O5 2.795954 1_555
K4 O15 2.853787 1_545
K4 O0 3.172256 1_554
K5 O10 2.774107 1_545
K5 O2 2.776430 1_655
K5 O11 2.823649 1_555
K5 O12 2.894517 1_555
K5 O6 2.997507 1_555
K6 O12 2.743257 1_555
K6 O8 2.756572 1_555
K6 O13 2.761839 1_555
K6 O9 2.786322 1_555
K6 O14 2.795264 1_555
K6 O4 2.852482 1_555
K6 O11 3.171426 1_555
K7 O14 2.774177 1_555
K7 O8 2.776601 1_655
K7 O15 2.824188 1_545
K7 O6 2.895003 1_554
K7 O12 2.998397 1_555
Mn0 O0 1.657322 1_555
Mn0 O1 1.658896 1_555
Mn0 O8 1.671324 1_556
Mn0 O6 1.673903 1_455
Mn1 O4 1.657500 1_555
Mn1 O5 1.658952 1_555
Mn1 O2 1.671359 1_555
Mn1 O12 1.673818 1_455
Mn2 O11 1.657782 1_555
Mn2 O10 1.658659 1_555
Mn2 O13 1.671727 1_555
Mn2 O3 1.673480 1_655
Mn3 O15 1.657731 1_555
Mn3 O14 1.658622 1_555
Mn3 O7 1.671211 1_554
Mn3 O9 1.673973 1_655
