# generated using pymatgen
data_Li11Mn12(BO3)12
_symmetry_space_group_name_H-M   'P 1'
_cell_length_a   9.42435100
_cell_length_b   9.74213516
_cell_length_c   9.90262580
_cell_angle_alpha   115.31641425
_cell_angle_beta   110.39067555
_cell_angle_gamma   87.70075545
_symmetry_Int_Tables_number   1
_chemical_formula_structural   Li11Mn12(BO3)12
_chemical_formula_sum   'Li11 Mn12 B12 O36'
_cell_volume   763.98853096
_cell_formula_units_Z   1
loop_
 _symmetry_equiv_pos_site_id
 _symmetry_equiv_pos_as_xyz
  1  'x, y, z'
loop_
 _atom_site_type_symbol
 _atom_site_label
 _atom_site_symmetry_multiplicity
 _atom_site_fract_x
 _atom_site_fract_y
 _atom_site_fract_z
 _atom_site_occupancy
  Li  Li0  1  0.97081200  0.96822600  0.67205400  1
  Li  Li1  1  0.69651600  0.03165700  0.66129100  1
  Li  Li2  1  0.63730000  0.46565000  0.50336800  1
  Li  Li3  1  0.71068800  0.53234600  0.16599600  1
  Li  Li4  1  0.63743000  0.96641500  0.00536700  1
  Li  Li5  1  0.30385300  0.46435700  0.83724700  1
  Li  Li6  1  0.36234500  0.03515300  0.99634700  1
  Li  Li7  1  0.36245400  0.53344700  0.49479700  1
  Li  Li8  1  0.30300100  0.96596900  0.33853900  1
  Li  Li9  1  0.03047500  0.03243600  0.32978600  1
  Li  Li10  1  0.03003400  0.53370700  0.82876500  1
  Mn  Mn0  1  0.87825000  0.20628600  0.56503900  1
  Mn  Mn1  1  0.79571800  0.29859800  0.26650900  1
  Mn  Mn2  1  0.78731600  0.79568800  0.77180900  1
  Mn  Mn3  1  0.88386200  0.69469000  0.06514700  1
  Mn  Mn4  1  0.54580400  0.20527800  0.89818000  1
  Mn  Mn5  1  0.45551000  0.29435900  0.60148200  1
  Mn  Mn6  1  0.54734500  0.70413700  0.39852100  1
  Mn  Mn7  1  0.45836100  0.79403500  0.10220000  1
  Mn  Mn8  1  0.11532400  0.30107200  0.94208300  1
  Mn  Mn9  1  0.20930500  0.20740400  0.23163600  1
  Mn  Mn10  1  0.21124200  0.70522000  0.73197600  1
  Mn  Mn11  1  0.11645900  0.78620800  0.43122800  1
  B  B0  1  0.88921400  0.12907200  0.97967400  1
  B  B1  1  0.77428300  0.36749300  0.84873900  1
  B  B2  1  0.88785900  0.63498000  0.48647100  1
  B  B3  1  0.77811300  0.86627500  0.35094100  1
  B  B4  1  0.55648100  0.13374000  0.31407000  1
  B  B5  1  0.55752700  0.63137000  0.81633500  1
  B  B6  1  0.44577100  0.36709500  0.18511200  1
  B  B7  1  0.44207300  0.86702600  0.68392500  1
  B  B8  1  0.22154400  0.13229200  0.64956800  1
  B  B9  1  0.11137900  0.36711100  0.51898500  1
  B  B10  1  0.22253900  0.63808300  0.14478500  1
  B  B11  1  0.11117400  0.86752600  0.02001400  1
  O  O0  1  0.87880400  0.01356500  0.83106400  1
  O  O1  1  0.99054900  0.24670800  0.42844600  1
  O  O2  1  0.98958700  0.74741000  0.93080000  1
  O  O3  1  0.89569900  0.36451000  0.79816200  1
  O  O4  1  0.76496500  0.48786400  0.98291700  1
  O  O5  1  0.88284300  0.52071200  0.34467900  1
  O  O6  1  0.65681100  0.24322500  0.75937100  1
  O  O7  1  0.89503300  0.86212100  0.29421700  1
  O  O8  1  0.77018300  0.13439400  0.03531500  1
  O  O9  1  0.77007900  0.64060500  0.54378300  1
  O  O10  1  0.67790100  0.25317300  0.40203200  1
  O  O11  1  0.68103000  0.75083400  0.90949800  1
  O  O12  1  0.78289000  0.98265200  0.49577300  1
  O  O13  1  0.55022400  0.01679100  0.16888500  1
  O  O14  1  0.55099000  0.51827500  0.66955900  1
  O  O15  1  0.65793000  0.74555000  0.26209000  1
  O  O16  1  0.56336900  0.36366800  0.12915100  1
  O  O17  1  0.55926200  0.86391300  0.62792100  1
  O  O18  1  0.43892000  0.13691600  0.37053700  1
  O  O19  1  0.43811500  0.63624300  0.86995600  1
  O  O20  1  0.34440300  0.25133100  0.73689300  1
  O  O21  1  0.45106300  0.48266900  0.33086500  1
  O  O22  1  0.44856600  0.98180500  0.83023800  1
  O  O23  1  0.21484400  0.01446900  0.50466800  1
  O  O24  1  0.32348300  0.24844900  0.09587800  1
  O  O25  1  0.32094300  0.74655700  0.59426700  1
  O  O26  1  0.23053200  0.36358000  0.46508800  1
  O  O27  1  0.22798300  0.86348100  0.96276000  1
  O  O28  1  0.10509700  0.14020000  0.70819600  1
  O  O29  1  0.34827600  0.75327600  0.23804700  1
  O  O30  1  0.11557000  0.48232800  0.66395200  1
  O  O31  1  0.21759900  0.51950600  0.00278400  1
  O  O32  1  0.10082700  0.65379700  0.19759700  1
  O  O33  1  0.01380100  0.24073400  0.06872000  1
  O  O34  1  0.00978200  0.75596700  0.57589000  1
  O  O35  1  0.11725400  0.98269600  0.16529700  1
loop_
_geom_bond_atom_site_label_1
_geom_bond_atom_site_label_2
_geom_bond_distance
_geom_bond_site_symmetry_2
Li0 O0 1.937085 1_565
Li0 O34 1.953565 1_655
Li0 O28 1.969348 1_665
Li0 O12 2.058910 1_555
Li1 O12 1.951002 1_545
Li1 O6 1.952150 1_555
Li1 O17 1.965422 1_545
Li1 O0 2.006326 1_555
Li2 O14 1.952098 1_555
Li2 O10 1.966149 1_555
Li2 O9 1.967212 1_555
Li2 O21 2.038563 1_555
Li3 O4 1.921671 1_554
Li3 O5 1.983013 1_555
Li3 O15 2.005838 1_555
Li3 O16 2.019508 1_555
Li4 O13 1.937436 1_565
Li4 O8 1.954979 1_565
Li4 O11 1.994596 1_554
Li4 O22 2.061100 1_554
Li5 O31 1.943420 1_556
Li5 O20 1.969209 1_555
Li5 O19 1.982573 1_555
Li5 O30 2.057745 1_555
Li6 O22 1.950006 1_545
Li6 O24 1.965297 1_556
Li6 O27 1.977848 1_545
Li6 O13 2.052864 1_556
Li7 O21 1.949893 1_555
Li7 O26 1.965886 1_555
Li7 O25 1.971817 1_555
Li7 O14 2.056424 1_555
Li8 O23 1.968775 1_565
Li8 O29 1.981751 1_555
Li8 O18 1.987907 1_565
Li8 O35 2.039011 1_555
Li9 O35 1.943797 1_545
Li9 O7 1.965519 1_445
Li9 O1 1.975492 1_455
Li9 O23 2.046177 1_555
Li10 O30 1.936447 1_555
Li10 O3 1.970925 1_455
Li10 O2 1.976433 1_455
Li10 O31 2.043282 1_556
Mn0 O3 2.108287 1_555
Mn0 O12 2.115246 1_545
Mn0 O1 2.142738 1_555
Mn0 O10 2.194754 1_555
Mn0 O28 2.356466 1_655
Mn1 O5 2.054954 1_555
Mn1 O8 2.091217 1_555
Mn1 O1 2.183016 1_555
Mn1 O10 2.194423 1_555
Mn1 O16 2.365902 1_555
Mn2 O9 2.062582 1_555
Mn2 O0 2.078992 1_565
Mn2 O11 2.133022 1_555
Mn2 O2 2.191771 1_555
Mn2 O17 2.377533 1_555
Mn3 O4 2.029952 1_554
Mn3 O7 2.121379 1_555
Mn3 O32 2.138386 1_655
Mn3 O2 2.139082 1_554
Mn3 O11 2.216511 1_554
Mn4 O16 2.092384 1_556
Mn4 O22 2.123669 1_545
Mn4 O6 2.142031 1_555
Mn4 O20 2.187905 1_555
Mn4 O8 2.340181 1_556
Mn5 O18 2.092213 1_555
Mn5 O14 2.121287 1_555
Mn5 O20 2.136494 1_555
Mn5 O6 2.194351 1_555
Mn5 O26 2.333079 1_555
Mn6 O17 2.099547 1_555
Mn6 O21 2.103461 1_555
Mn6 O15 2.134309 1_555
Mn6 O29 2.185230 1_555
Mn6 O9 2.326300 1_555
Mn7 O19 2.093530 1_554
Mn7 O13 2.102802 1_565
Mn7 O29 2.122771 1_555
Mn7 O15 2.181897 1_555
Mn7 O27 2.381244 1_554
Mn8 O33 2.084528 1_556
Mn8 O31 2.117944 1_556
Mn8 O28 2.140560 1_555
Mn8 O24 2.221683 1_556
Mn8 O3 2.300510 1_455
Mn9 O26 2.096019 1_555
Mn9 O33 2.105140 1_555
Mn9 O35 2.121744 1_545
Mn9 O24 2.151141 1_555
Mn9 O18 2.379228 1_555
Mn10 O27 2.092778 1_555
Mn10 O30 2.113004 1_555
Mn10 O25 2.139202 1_555
Mn10 O34 2.184381 1_555
Mn10 O19 2.350382 1_555
Mn11 O32 2.064860 1_555
Mn11 O34 2.130260 1_555
Mn11 O23 2.155488 1_565
Mn11 O25 2.185227 1_555
Mn11 O7 2.346026 1_455
B0 O33 1.378474 1_656
B0 O0 1.390527 1_555
B0 O8 1.402251 1_556
B1 O4 1.374343 1_555
B1 O3 1.394733 1_555
B1 O6 1.408195 1_555
B2 O5 1.354321 1_555
B2 O9 1.401682 1_555
B2 O34 1.414466 1_655
B3 O12 1.383062 1_555
B3 O7 1.392705 1_555
B3 O15 1.402755 1_555
B4 O13 1.383469 1_555
B4 O18 1.398326 1_555
B4 O10 1.402659 1_555
B5 O14 1.379770 1_555
B5 O19 1.393286 1_555
B5 O11 1.415107 1_555
B6 O21 1.384898 1_555
B6 O16 1.394879 1_555
B6 O24 1.403137 1_555
B7 O22 1.382562 1_555
B7 O17 1.392119 1_555
B7 O25 1.406743 1_555
B8 O23 1.383666 1_555
B8 O28 1.395104 1_555
B8 O20 1.409145 1_555
B9 O30 1.381396 1_555
B9 O26 1.394947 1_555
B9 O1 1.404555 1_455
B10 O31 1.372382 1_555
B10 O32 1.395759 1_555
B10 O29 1.405072 1_555
B11 O35 1.378104 1_555
B11 O27 1.395424 1_554
B11 O2 1.407436 1_454
