# generated using pymatgen
data_Li3FeBAsO7
_symmetry_space_group_name_H-M   'P 1'
_cell_length_a   6.59841800
_cell_length_b   5.09451200
_cell_length_c   8.57681324
_cell_angle_alpha   86.18171478
_cell_angle_beta   90.00000000
_cell_angle_gamma   90.00000000
_symmetry_Int_Tables_number   1
_chemical_formula_structural   Li3FeBAsO7
_chemical_formula_sum   'Li6 Fe2 B2 As2 O14'
_cell_volume   287.67576550
_cell_formula_units_Z   2
loop_
 _symmetry_equiv_pos_site_id
 _symmetry_equiv_pos_as_xyz
  1  'x, y, z'
loop_
 _atom_site_type_symbol
 _atom_site_label
 _atom_site_symmetry_multiplicity
 _atom_site_fract_x
 _atom_site_fract_y
 _atom_site_fract_z
 _atom_site_occupancy
  Li  Li0  1  0.75000000  0.26219200  0.91507300  1
  Li  Li1  1  0.01383000  0.76332400  0.77859600  1
  Li  Li2  1  0.48617000  0.76332400  0.77859600  1
  Li  Li3  1  0.51383000  0.23667600  0.22140400  1
  Li  Li4  1  0.98617000  0.23667600  0.22140400  1
  Li  Li5  1  0.25000000  0.73780800  0.08492700  1
  Fe  Fe0  1  0.25000000  0.21941700  0.68098100  1
  Fe  Fe1  1  0.75000000  0.78058300  0.31901900  1
  B  B0  1  0.25000000  0.27690900  0.96411900  1
  B  B1  1  0.75000000  0.72309100  0.03588100  1
  As  As0  1  0.75000000  0.27748500  0.57881300  1
  As  As1  1  0.25000000  0.72251500  0.42118700  1
  O  O0  1  0.75000000  0.66086500  0.88440200  1
  O  O1  1  0.25000000  0.02212600  0.91005200  1
  O  O2  1  0.25000000  0.47950800  0.84242800  1
  O  O3  1  0.94654900  0.18220800  0.70143200  1
  O  O4  1  0.55345100  0.18220800  0.70143200  1
  O  O5  1  0.75000000  0.61341300  0.53821500  1
  O  O6  1  0.25000000  0.85132000  0.60089800  1
  O  O7  1  0.75000000  0.14868000  0.39910200  1
  O  O8  1  0.25000000  0.38658700  0.46178500  1
  O  O9  1  0.44654900  0.81779200  0.29856800  1
  O  O10  1  0.05345100  0.81779200  0.29856800  1
  O  O11  1  0.75000000  0.52049200  0.15757200  1
  O  O12  1  0.75000000  0.97787400  0.08994800  1
  O  O13  1  0.25000000  0.33913500  0.11559800  1
loop_
_geom_bond_atom_site_label_1
_geom_bond_atom_site_label_2
_geom_bond_distance
_geom_bond_site_symmetry_2
Li0 O12 2.014524 1_546
Li0 O0 2.030562 1_555
Li0 O3 2.303259 1_555
Li0 O4 2.303259 1_555
Li0 O11 2.534166 1_556
Li1 O0 2.015809 1_455
Li1 O2 2.171034 1_555
Li1 O6 2.204824 1_555
Li1 O3 2.236290 1_465
Li1 O1 2.374025 1_565
Li2 O0 2.015809 1_555
Li2 O2 2.171034 1_555
Li2 O6 2.204824 1_555
Li2 O4 2.236290 1_565
Li2 O1 2.374025 1_565
Li3 O13 2.015809 1_555
Li3 O11 2.171034 1_555
Li3 O7 2.204824 1_555
Li3 O9 2.236290 1_545
Li3 O12 2.374025 1_545
Li4 O13 2.015809 1_655
Li4 O11 2.171034 1_555
Li4 O7 2.204824 1_555
Li4 O10 2.236290 1_645
Li4 O12 2.374025 1_545
Li5 O1 2.014524 1_564
Li5 O13 2.030562 1_555
Li5 O9 2.303259 1_555
Li5 O10 2.303259 1_555
Li5 O2 2.534166 1_554
Fe0 O2 1.979263 1_555
Fe0 O8 2.011586 1_555
Fe0 O3 2.017787 1_455
Fe0 O4 2.017787 1_555
Fe0 O6 2.039602 1_545
Fe0 O1 2.146455 1_555
Fe1 O11 1.979263 1_555
Fe1 O5 2.011586 1_555
Fe1 O10 2.017787 1_655
Fe1 O9 2.017787 1_555
Fe1 O7 2.039602 1_565
Fe1 O12 2.146455 1_555
B0 O13 1.357678 1_556
B0 O1 1.407123 1_555
B0 O2 1.418167 1_555
B1 O0 1.357678 1_554
B1 O12 1.407123 1_555
B1 O11 1.418167 1_555
As0 O7 1.714951 1_555
As0 O3 1.719194 1_555
As0 O4 1.719194 1_555
As0 O5 1.723581 1_555
As1 O6 1.714951 1_555
As1 O10 1.719194 1_555
As1 O9 1.719194 1_555
As1 O8 1.723581 1_555
