# generated using pymatgen
data_FeP2WO8
_symmetry_space_group_name_H-M   'P 1'
_cell_length_a   5.01556500
_cell_length_b   10.19600946
_cell_length_c   6.03758320
_cell_angle_alpha   90.01976742
_cell_angle_beta   90.01581085
_cell_angle_gamma   93.11973800
_symmetry_Int_Tables_number   1
_chemical_formula_structural   FeP2WO8
_chemical_formula_sum   'Fe2 P4 W2 O16'
_cell_volume   308.29683477
_cell_formula_units_Z   2
loop_
 _symmetry_equiv_pos_site_id
 _symmetry_equiv_pos_as_xyz
  1  'x, y, z'
loop_
 _atom_site_type_symbol
 _atom_site_label
 _atom_site_symmetry_multiplicity
 _atom_site_fract_x
 _atom_site_fract_y
 _atom_site_fract_z
 _atom_site_occupancy
  Fe  Fe0  1  0.05563800  0.72383000  0.74986500  1
  Fe  Fe1  1  0.94472600  0.27615700  0.25012100  1
  P  P0  1  0.40371700  0.08941300  0.24982000  1
  P  P1  1  0.59617400  0.91065100  0.75008100  1
  P  P2  1  0.88647200  0.40393100  0.75016300  1
  P  P3  1  0.11351000  0.59606400  0.24991100  1
  W  W0  1  0.44122800  0.21944300  0.75006100  1
  W  W1  1  0.55874500  0.78052800  0.24987400  1
  O  O0  1  0.68606900  0.05645300  0.75006000  1
  O  O1  1  0.31406500  0.94350700  0.24984100  1
  O  O2  1  0.70483500  0.11097600  0.24989200  1
  O  O3  1  0.29506700  0.88918400  0.75004000  1
  O  O4  1  0.17960600  0.37087100  0.75001800  1
  O  O5  1  0.82034800  0.62900600  0.25002800  1
  O  O6  1  0.14492200  0.44989700  0.25015400  1
  O  O7  1  0.85543100  0.55014800  0.75021000  1
  O  O8  1  0.27103100  0.16161800  0.04639500  1
  O  O9  1  0.27119900  0.16166000  0.45343000  1
  O  O10  1  0.72864100  0.83831000  0.54650900  1
  O  O11  1  0.72878300  0.83833400  0.95349200  1
  O  O12  1  0.72638200  0.33073600  0.94603200  1
  O  O13  1  0.72619600  0.33068900  0.55410200  1
  O  O14  1  0.27357100  0.66919600  0.05398700  1
  O  O15  1  0.27364300  0.66939800  0.44591300  1
loop_
_geom_bond_atom_site_label_1
_geom_bond_atom_site_label_2
_geom_bond_distance
_geom_bond_site_symmetry_2
Fe0 O7 1.987645 1_455
Fe0 O3 2.015974 1_555
Fe0 O15 2.222106 1_555
Fe0 O14 2.223160 1_556
Fe0 O10 2.401662 1_455
Fe0 O11 2.402173 1_455
Fe1 O6 1.988129 1_655
Fe1 O2 2.015834 1_555
Fe1 O13 2.223865 1_555
Fe1 O12 2.223882 1_554
Fe1 O9 2.399744 1_655
Fe1 O8 2.400711 1_655
O0 P1 1.529806 1_545
O0 W0 2.119408 1_555
O1 P0 1.530526 1_565
O1 W1 2.118814 1_555
O2 P0 1.514309 1_555
O3 P1 1.514166 1_555
O4 P2 1.526155 1_455
O4 W0 2.079941 1_555
O5 P3 1.525964 1_655
O5 W1 2.080622 1_555
O6 P3 1.507128 1_555
O7 P2 1.507341 1_555
O8 P0 1.595883 1_555
O8 W0 2.055266 1_554
O9 P0 1.596469 1_555
O9 W0 2.055613 1_555
O10 P1 1.596644 1_555
O10 W1 2.055366 1_555
O11 P1 1.596201 1_555
O11 W1 2.055148 1_556
O12 P2 1.592504 1_555
O12 W0 2.134145 1_555
O13 P2 1.593311 1_555
O13 W0 2.134141 1_555
O14 P3 1.592397 1_555
O14 W1 2.134125 1_555
O15 P3 1.593117 1_555
O15 W1 2.134254 1_555
