# generated using pymatgen
data_Na2ErPCO7
_symmetry_space_group_name_H-M   'P 1'
_cell_length_a   6.95251600
_cell_length_b   5.33177100
_cell_length_c   9.20723652
_cell_angle_alpha   88.88175969
_cell_angle_beta   90.00000000
_cell_angle_gamma   90.00000000
_symmetry_Int_Tables_number   1
_chemical_formula_structural   Na2ErPCO7
_chemical_formula_sum   'Na4 Er2 P2 C2 O14'
_cell_volume   341.24010386
_cell_formula_units_Z   2
loop_
 _symmetry_equiv_pos_site_id
 _symmetry_equiv_pos_as_xyz
  1  'x, y, z'
loop_
 _atom_site_type_symbol
 _atom_site_label
 _atom_site_symmetry_multiplicity
 _atom_site_fract_x
 _atom_site_fract_y
 _atom_site_fract_z
 _atom_site_occupancy
  Na  Na0  1  0.49552600  0.23398300  0.77716500  1
  Na  Na1  1  0.00447400  0.23398300  0.77716500  1
  Na  Na2  1  0.50447400  0.76601700  0.22283500  1
  Na  Na3  1  0.99552600  0.76601700  0.22283500  1
  Er  Er0  1  0.75000000  0.77226000  0.64066600  1
  Er  Er1  1  0.25000000  0.22774000  0.35933400  1
  P  P0  1  0.25000000  0.70878100  0.58170000  1
  P  P1  1  0.75000000  0.29121900  0.41830000  1
  C  C0  1  0.75000000  0.73139300  0.93319900  1
  C  C1  1  0.25000000  0.26860700  0.06680100  1
  O  O0  1  0.25000000  0.29208700  0.93098400  1
  O  O1  1  0.75000000  0.95131500  0.86484700  1
  O  O2  1  0.75000000  0.53495000  0.84533400  1
  O  O3  1  0.06728300  0.79758400  0.66044300  1
  O  O4  1  0.43271700  0.79758400  0.66044300  1
  O  O5  1  0.75000000  0.18497700  0.57919500  1
  O  O6  1  0.25000000  0.41604200  0.57386600  1
  O  O7  1  0.75000000  0.58395800  0.42613400  1
  O  O8  1  0.25000000  0.81502300  0.42080500  1
  O  O9  1  0.56728300  0.20241600  0.33955700  1
  O  O10  1  0.93271700  0.20241600  0.33955700  1
  O  O11  1  0.25000000  0.46505000  0.15466600  1
  O  O12  1  0.25000000  0.04868500  0.13515300  1
  O  O13  1  0.75000000  0.70791300  0.06901600  1
loop_
_geom_bond_atom_site_label_1
_geom_bond_atom_site_label_2
_geom_bond_distance
_geom_bond_site_symmetry_2
Na0 O0 2.243387 1_555
Na0 O1 2.450686 1_545
Na0 O2 2.477593 1_555
Na0 O5 2.557243 1_555
Na0 O4 2.618615 1_545
Na0 O6 2.699811 1_555
Na1 O0 2.243387 1_555
Na1 O1 2.450686 1_445
Na1 O2 2.477593 1_455
Na1 O5 2.557243 1_455
Na1 O3 2.618615 1_545
Na1 O6 2.699811 1_555
Na2 O13 2.243387 1_555
Na2 O12 2.450686 1_565
Na2 O11 2.477593 1_555
Na2 O8 2.557243 1_555
Na2 O9 2.618615 1_565
Na2 O7 2.699811 1_555
Na3 O13 2.243387 1_555
Na3 O12 2.450686 1_665
Na3 O11 2.477593 1_655
Na3 O8 2.557243 1_655
Na3 O10 2.618615 1_565
Na3 O7 2.699811 1_555
Er0 O3 2.217749 1_655
Er0 O4 2.217749 1_555
Er0 O7 2.233156 1_555
Er0 O2 2.249209 1_555
Er0 O5 2.261410 1_565
Er0 O1 2.291023 1_555
Er1 O9 2.217749 1_555
Er1 O10 2.217749 1_455
Er1 O6 2.233156 1_555
Er1 O11 2.249209 1_555
Er1 O8 2.261410 1_545
Er1 O12 2.291023 1_555
C0 O13 1.254317 1_556
C0 O1 1.319919 1_555
C0 O2 1.335877 1_555
C1 O0 1.254317 1_554
C1 O12 1.319919 1_555
C1 O11 1.335877 1_555
O3 P0 1.541747 1_555
O4 P0 1.541747 1_555
O5 P1 1.575647 1_555
O6 P0 1.563889 1_555
O7 P1 1.563889 1_555
O8 P0 1.575647 1_555
O9 P1 1.541747 1_555
O10 P1 1.541747 1_555
