# generated using pymatgen
data_Fe10OF19
_symmetry_space_group_name_H-M   'P 1'
_cell_length_a   4.96162600
_cell_length_b   5.80702033
_cell_length_c   13.30866867
_cell_angle_alpha   99.61127338
_cell_angle_beta   90.48595364
_cell_angle_gamma   90.60555658
_symmetry_Int_Tables_number   1
_chemical_formula_structural   Fe10OF19
_chemical_formula_sum   'Fe10 O1 F19'
_cell_volume   378.02888192
_cell_formula_units_Z   1
loop_
 _symmetry_equiv_pos_site_id
 _symmetry_equiv_pos_as_xyz
  1  'x, y, z'
loop_
 _atom_site_type_symbol
 _atom_site_label
 _atom_site_symmetry_multiplicity
 _atom_site_fract_x
 _atom_site_fract_y
 _atom_site_fract_z
 _atom_site_occupancy
  Fe  Fe0  1  0.51828400  0.51478000  0.00299600  1
  Fe  Fe1  1  0.49367400  0.09087600  0.39967200  1
  Fe  Fe2  1  0.50655700  0.30710000  0.20110000  1
  Fe  Fe3  1  0.50209900  0.90481300  0.59834900  1
  Fe  Fe4  1  0.50489200  0.70255900  0.80335900  1
  Fe  Fe5  1  0.00205400  0.59628800  0.40079700  1
  Fe  Fe6  1  0.00761900  0.20429700  0.80324400  1
  Fe  Fe7  1  0.98470900  0.80194500  0.18400500  1
  Fe  Fe8  1  0.99820900  0.40223900  0.59913400  1
  Fe  Fe9  1  0.98940100  0.98188100  0.00958200  1
  O  O0  1  0.78451700  0.73265500  0.05641700  1
  F  F0  1  0.79637100  0.53979000  0.25958400  1
  F  F1  1  0.80123000  0.93680300  0.85903300  1
  F  F2  1  0.79579800  0.13467700  0.65957000  1
  F  F3  1  0.79180300  0.33345400  0.46017700  1
  F  F4  1  0.70283200  0.23654700  0.05919200  1
  F  F5  1  0.70942100  0.83115000  0.45770900  1
  F  F6  1  0.70152000  0.63865000  0.65954900  1
  F  F7  1  0.70196100  0.42737700  0.85409300  1
  F  F8  1  0.70644600  0.04323300  0.26212100  1
  F  F9  1  0.29525700  0.36455600  0.34382300  1
  F  F10  1  0.29654100  0.96518500  0.74114700  1
  F  F11  1  0.29412600  0.56126700  0.14143800  1
  F  F12  1  0.29019600  0.75879100  0.93804500  1
  F  F13  1  0.29112200  0.16466700  0.54059600  1
  F  F14  1  0.21818300  0.07560200  0.14499700  1
  F  F15  1  0.20457900  0.25520000  0.94366900  1
  F  F16  1  0.21037800  0.66805800  0.54225000  1
  F  F17  1  0.19284400  0.85851500  0.33514100  1
  F  F18  1  0.20737700  0.46704700  0.73921300  1
loop_
_geom_bond_atom_site_label_1
_geom_bond_atom_site_label_2
_geom_bond_distance
_geom_bond_site_symmetry_2
Fe0 O0 1.870692 1_555
Fe7 O0 1.940770 1_555
Fe9 O0 1.948680 1_555
F0 Fe2 2.021905 1_555
F0 Fe5 2.106082 1_655
F0 Fe7 2.167875 1_555
F1 Fe4 2.040547 1_555
F1 Fe6 2.092169 1_665
F1 Fe9 2.177751 1_556
F2 Fe3 2.035850 1_545
F2 Fe8 2.113684 1_555
F2 Fe6 2.150106 1_655
F3 Fe8 2.083492 1_555
F3 Fe1 2.092307 1_555
F3 Fe5 2.103664 1_655
F4 Fe9 2.092581 1_545
F4 Fe0 2.105098 1_555
F4 Fe2 2.112892 1_555
F5 Fe5 2.063359 1_655
F5 Fe1 2.103889 1_565
F5 Fe3 2.125815 1_555
F6 Fe8 2.095792 1_555
F6 Fe3 2.114323 1_555
F6 Fe4 2.134185 1_555
F7 Fe6 2.049941 1_655
F7 Fe4 2.085100 1_555
F7 Fe0 2.172516 1_556
F8 Fe1 2.100486 1_555
F8 Fe2 2.103571 1_555
F8 Fe7 2.128155 1_545
F9 Fe5 2.054624 1_555
F9 Fe1 2.112468 1_555
F9 Fe2 2.155903 1_555
F10 Fe6 2.084458 1_565
F10 Fe4 2.126142 1_555
F10 Fe3 2.143076 1_555
F11 Fe2 2.080831 1_555
F11 Fe7 2.104013 1_455
F11 Fe0 2.139996 1_555
F12 Fe4 2.073326 1_555
F12 Fe0 2.112358 1_556
F12 Fe9 2.113097 1_456
F13 Fe8 2.079672 1_455
F13 Fe3 2.090594 1_545
F13 Fe1 2.117515 1_555
F14 Fe2 2.004475 1_555
F14 Fe7 2.093691 1_445
F14 Fe9 2.111241 1_445
F15 Fe6 2.076896 1_555
F15 Fe0 2.202364 1_556
F15 Fe9 2.207587 1_446
F16 Fe3 2.034563 1_555
F16 Fe8 2.105577 1_455
F16 Fe5 2.117066 1_555
F17 Fe1 2.082030 1_565
F17 Fe5 2.099116 1_555
F17 Fe7 2.226458 1_455
F18 Fe4 2.079499 1_555
F18 Fe8 2.102098 1_455
F18 Fe6 2.110239 1_555
