# generated using pymatgen
data_Li3Ti(PO4)2
_symmetry_space_group_name_H-M   'P 1'
_cell_length_a   5.26008860
_cell_length_b   5.26008860
_cell_length_c   13.17380321
_cell_angle_alpha   82.50380326
_cell_angle_beta   82.50380326
_cell_angle_gamma   53.94124821
_symmetry_Int_Tables_number   1
_chemical_formula_structural   Li3Ti(PO4)2
_chemical_formula_sum   'Li6 Ti2 P4 O16'
_cell_volume   291.49262255
_cell_formula_units_Z   2
loop_
 _symmetry_equiv_pos_site_id
 _symmetry_equiv_pos_as_xyz
  1  'x, y, z'
loop_
 _atom_site_type_symbol
 _atom_site_label
 _atom_site_symmetry_multiplicity
 _atom_site_fract_x
 _atom_site_fract_y
 _atom_site_fract_z
 _atom_site_occupancy
  Li  Li0  1  0.36081300  0.29911900  0.64806900  1
  Li  Li1  1  0.29911900  0.36081300  0.14806900  1
  Li  Li2  1  0.70088100  0.63918700  0.85193100  1
  Li  Li3  1  0.63918700  0.70088100  0.35193100  1
  Li  Li4  1  0.05416400  0.94583600  0.75000000  1
  Li  Li5  1  0.94583600  0.05416400  0.25000000  1
  Ti  Ti0  1  0.00000000  0.00000000  0.50000000  1
  Ti  Ti1  1  0.00000000  0.00000000  0.00000000  1
  P  P0  1  0.36510200  0.31781700  0.88465900  1
  P  P1  1  0.31781700  0.36510200  0.38465900  1
  P  P2  1  0.68218300  0.63489800  0.61534100  1
  P  P3  1  0.63489800  0.68218300  0.11534100  1
  O  O0  1  0.72669900  0.17150500  0.86792700  1
  O  O1  1  0.17150500  0.72669900  0.36792700  1
  O  O2  1  0.22923500  0.54558900  0.97265800  1
  O  O3  1  0.54558900  0.22923500  0.47265800  1
  O  O4  1  0.18606400  0.49994800  0.78805900  1
  O  O5  1  0.96069300  0.66904600  0.58428100  1
  O  O6  1  0.49994800  0.18606400  0.28805900  1
  O  O7  1  0.66904600  0.96069300  0.08428100  1
  O  O8  1  0.33095400  0.03930700  0.91571900  1
  O  O9  1  0.50005200  0.81393600  0.71194100  1
  O  O10  1  0.03930700  0.33095400  0.41571900  1
  O  O11  1  0.81393600  0.50005200  0.21194100  1
  O  O12  1  0.45441100  0.77076500  0.52734200  1
  O  O13  1  0.77076500  0.45441100  0.02734200  1
  O  O14  1  0.82849500  0.27330100  0.63207300  1
  O  O15  1  0.27330100  0.82849500  0.13207300  1
loop_
_geom_bond_atom_site_label_1
_geom_bond_atom_site_label_2
_geom_bond_distance
_geom_bond_site_symmetry_2
Li0 O5 2.033654 1_455
Li0 O4 2.069984 1_555
Li0 O9 2.271059 1_545
Li0 O14 2.365079 1_555
Li0 O3 2.373761 1_555
Li1 O7 2.033654 1_545
Li1 O6 2.069984 1_555
Li1 O11 2.271059 1_455
Li1 O15 2.365079 1_555
Li1 O2 2.373761 1_554
Li2 O8 2.033654 1_565
Li2 O9 2.069984 1_555
Li2 O4 2.271059 1_655
Li2 O0 2.365079 1_555
Li2 O13 2.373761 1_556
Li3 O10 2.033654 1_655
Li3 O11 2.069984 1_555
Li3 O6 2.271059 1_565
Li3 O1 2.365079 1_555
Li3 O12 2.373761 1_555
Li4 O9 2.025334 1_555
Li4 O4 2.025334 1_555
Li4 O14 2.040948 1_465
Li4 O0 2.040948 1_465
Li5 O11 2.025334 1_555
Li5 O6 2.025334 1_555
Li5 O15 2.040948 1_645
Li5 O1 2.040948 1_645
O0 P0 1.571695 1_555
O0 Ti1 2.150374 1_656
O1 P1 1.571695 1_555
O1 Ti0 2.150374 1_565
O2 P0 1.558320 1_555
O2 Ti1 2.003826 1_566
O3 P1 1.558320 1_555
O3 Ti0 2.003826 1_655
O4 P0 1.535145 1_555
O5 P2 1.574825 1_555
O5 Ti0 2.040973 1_665
O6 P1 1.535145 1_555
O7 P3 1.574825 1_555
O7 Ti1 2.040973 1_665
O8 P0 1.574825 1_555
O8 Ti1 2.040973 1_556
O9 P2 1.535145 1_555
O10 P1 1.574825 1_555
O10 Ti0 2.040973 1_555
O11 P3 1.535145 1_555
O12 P2 1.558320 1_555
O12 Ti0 2.003826 1_565
O13 P3 1.558320 1_555
O13 Ti1 2.003826 1_655
O14 P2 1.571695 1_555
O14 Ti0 2.150374 1_655
O15 P3 1.571695 1_555
O15 Ti1 2.150374 1_565
