# generated using pymatgen
data_Li6Mn3Cr(PO4)6
_symmetry_space_group_name_H-M   'P 1'
_cell_length_a   8.50166200
_cell_length_b   8.59772867
_cell_length_c   8.77316917
_cell_angle_alpha   60.75792647
_cell_angle_beta   61.78238260
_cell_angle_gamma   61.41351506
_symmetry_Int_Tables_number   1
_chemical_formula_structural   Li6Mn3Cr(PO4)6
_chemical_formula_sum   'Li6 Mn3 Cr1 P6 O24'
_cell_volume   466.80828126
_cell_formula_units_Z   1
loop_
 _symmetry_equiv_pos_site_id
 _symmetry_equiv_pos_as_xyz
  1  'x, y, z'
loop_
 _atom_site_type_symbol
 _atom_site_label
 _atom_site_symmetry_multiplicity
 _atom_site_fract_x
 _atom_site_fract_y
 _atom_site_fract_z
 _atom_site_occupancy
  Li  Li0  1  0.00732500  0.98370500  0.97693900  1
  Li  Li1  1  0.66072100  0.83863000  0.24694900  1
  Li  Li2  1  0.51192000  0.49620300  0.52138400  1
  Li  Li3  1  0.34101400  0.16154500  0.75202300  1
  Li  Li4  1  0.15966900  0.73951100  0.34667300  1
  Li  Li5  1  0.74861600  0.34325100  0.14940400  1
  Mn  Mn0  1  0.85621100  0.85878000  0.85644600  1
  Mn  Mn1  1  0.64080900  0.64141100  0.64628900  1
  Mn  Mn2  1  0.35570900  0.34907400  0.35218800  1
  Cr  Cr0  1  0.14652600  0.14551900  0.14437100  1
  P  P0  1  0.55411100  0.24993900  0.94729300  1
  P  P1  1  0.24918700  0.95092900  0.54746700  1
  P  P2  1  0.95638000  0.54181700  0.25007600  1
  P  P3  1  0.03660400  0.46505900  0.75441500  1
  P  P4  1  0.74788000  0.03769800  0.45466000  1
  P  P5  1  0.45937200  0.75250300  0.04581200  1
  O  O0  1  0.49375600  0.72018200  0.87720500  1
  O  O1  1  0.87448300  0.49188000  0.70324300  1
  O  O2  1  0.74054900  0.07648800  0.94044400  1
  O  O3  1  0.70761100  0.87361800  0.46895600  1
  O  O4  1  0.56762700  0.41214200  0.76012400  1
  O  O5  1  0.38877300  0.19527900  0.98158500  1
  O  O6  1  0.09053700  0.93012100  0.73260400  1
  O  O7  1  0.42285200  0.76614900  0.55161800  1
  O  O8  1  0.76201400  0.56207500  0.39963900  1
  O  O9  1  0.00028800  0.62850700  0.80491700  1
  O  O10  1  0.05820900  0.27064400  0.91753300  1
  O  O11  1  0.77838000  0.00860700  0.62403600  1
  O  O12  1  0.19872300  0.98339200  0.38476500  1
  O  O13  1  0.94096600  0.73756400  0.09752200  1
  O  O14  1  0.99328000  0.38411800  0.18964100  1
  O  O15  1  0.22965100  0.44201500  0.59926100  1
  O  O16  1  0.58348400  0.23230800  0.42573400  1
  O  O17  1  0.91210600  0.06627200  0.27020600  1
  O  O18  1  0.62070700  0.79704300  0.03533000  1
  O  O19  1  0.43624500  0.58362300  0.23254500  1
  O  O20  1  0.30166200  0.11392900  0.52134400  1
  O  O21  1  0.26383700  0.91277300  0.07367300  1
  O  O22  1  0.11734400  0.50674700  0.31310400  1
  O  O23  1  0.53386100  0.29994900  0.10258400  1
loop_
_geom_bond_atom_site_label_1
_geom_bond_atom_site_label_2
_geom_bond_distance
_geom_bond_site_symmetry_2
Li0 O13 2.075287 1_456
Li0 O6 2.127585 1_555
Li0 O2 2.142108 1_465
Li0 O21 2.412407 1_556
Li0 O10 2.469187 1_565
Li1 O8 2.051631 1_555
Li1 O13 2.080454 1_555
Li1 O18 2.247804 1_555
Li1 O3 2.337602 1_555
Li1 O7 2.467689 1_555
Li1 O2 2.470497 1_564
Li2 O4 2.065219 1_555
Li2 O8 2.096706 1_555
Li2 O7 2.181769 1_555
Li2 O15 2.377216 1_555
Li2 O16 2.505709 1_555
Li2 O19 2.572603 1_555
Li3 O15 2.089268 1_555
Li3 O10 2.154088 1_555
Li3 O5 2.400376 1_555
Li3 O20 2.440500 1_555
Li3 O21 2.581396 1_546
Li3 O16 2.594685 1_555
Li4 O19 2.096818 1_555
Li4 O21 2.123831 1_555
Li4 O22 2.363545 1_555
Li4 O15 2.461642 1_555
Li4 O12 2.464623 1_555
Li4 O17 2.570579 1_465
Li5 O17 2.117975 1_555
Li5 O16 2.135825 1_555
Li5 O23 2.269331 1_555
Li5 O10 2.461841 1_654
Li5 O14 2.467716 1_555
Li5 O19 2.498898 1_555
Mn0 O9 1.911679 1_655
Mn0 O2 1.978543 1_565
Mn0 O18 1.996293 1_556
Mn0 O6 1.999209 1_655
Mn0 O11 2.036820 1_565
Mn0 O13 2.155820 1_556
Mn1 O1 1.927715 1_555
Mn1 O4 1.983129 1_555
Mn1 O3 1.985879 1_555
Mn1 O7 1.989213 1_555
Mn1 O0 2.064203 1_555
Mn1 O8 2.206904 1_555
Mn2 O22 1.906827 1_555
Mn2 O20 1.952863 1_555
Mn2 O16 1.965290 1_555
Mn2 O19 2.052041 1_555
Mn2 O23 2.103029 1_555
Mn2 O15 2.271915 1_555
Cr0 O14 1.952550 1_455
Cr0 O5 1.982180 1_554
Cr0 O12 2.002194 1_545
Cr0 O21 2.025217 1_545
Cr0 O17 2.034421 1_455
Cr0 O10 2.056669 1_554
O0 P5 1.505231 1_556
O1 P3 1.527830 1_655
O2 P0 1.573318 1_555
O3 P4 1.540054 1_565
O4 P0 1.546619 1_555
O5 P0 1.543158 1_555
O6 P1 1.537770 1_555
O7 P1 1.566775 1_555
O8 P2 1.542750 1_555
O9 P3 1.526496 1_555
O10 P3 1.579047 1_555
O11 P4 1.508997 1_555
O12 P1 1.541023 1_555
O13 P2 1.547577 1_555
O14 P2 1.534890 1_555
O15 P3 1.557379 1_555
O16 P4 1.581157 1_555
O17 P4 1.559388 1_555
O18 P5 1.544473 1_555
O19 P5 1.573327 1_555
O20 P1 1.550286 1_545
O21 P5 1.573120 1_555
O22 P2 1.557937 1_455
O23 P0 1.533074 1_554
