# generated using pymatgen
data_LiMn(PO3)3
_symmetry_space_group_name_H-M   'P 1'
_cell_length_a   5.19220000
_cell_length_b   11.82360100
_cell_length_c   12.17913400
_cell_angle_alpha   90.00000000
_cell_angle_beta   90.00000000
_cell_angle_gamma   90.00000000
_symmetry_Int_Tables_number   1
_chemical_formula_structural   LiMn(PO3)3
_chemical_formula_sum   'Li4 Mn4 P12 O36'
_cell_volume   747.68313937
_cell_formula_units_Z   4
loop_
 _symmetry_equiv_pos_site_id
 _symmetry_equiv_pos_as_xyz
  1  'x, y, z'
loop_
 _atom_site_type_symbol
 _atom_site_label
 _atom_site_symmetry_multiplicity
 _atom_site_fract_x
 _atom_site_fract_y
 _atom_site_fract_z
 _atom_site_occupancy
  Li  Li0  1  0.00000000  0.00000000  0.00000000  1
  Li  Li1  1  0.00000000  0.00000000  0.50000000  1
  Li  Li2  1  0.00000000  0.50000000  0.00000000  1
  Li  Li3  1  0.00000000  0.50000000  0.50000000  1
  Mn  Mn0  1  0.97937800  0.25000000  0.07829000  1
  Mn  Mn1  1  0.97937800  0.75000000  0.42171000  1
  Mn  Mn2  1  0.02062200  0.25000000  0.57829000  1
  Mn  Mn3  1  0.02062200  0.75000000  0.92171000  1
  P  P0  1  0.23440200  0.00000000  0.75000000  1
  P  P1  1  0.23440200  0.50000000  0.75000000  1
  P  P2  1  0.51407700  0.63423300  0.07098600  1
  P  P3  1  0.51407700  0.13423300  0.42901400  1
  P  P4  1  0.51407700  0.86576700  0.07098600  1
  P  P5  1  0.51407700  0.36576700  0.42901400  1
  P  P6  1  0.48592300  0.63423300  0.57098600  1
  P  P7  1  0.48592300  0.36576700  0.92901400  1
  P  P8  1  0.48592300  0.13423300  0.92901400  1
  P  P9  1  0.48592300  0.86576700  0.57098600  1
  P  P10  1  0.76559800  0.00000000  0.25000000  1
  P  P11  1  0.76559800  0.50000000  0.25000000  1
  O  O0  1  0.09161600  0.09731800  0.69914100  1
  O  O1  1  0.09161600  0.40268200  0.69914100  1
  O  O2  1  0.09161600  0.59731800  0.80085900  1
  O  O3  1  0.09161600  0.90268200  0.80085900  1
  O  O4  1  0.24424000  0.12588600  0.47427400  1
  O  O5  1  0.24424000  0.62588600  0.02572600  1
  O  O6  1  0.24424000  0.37411400  0.47427400  1
  O  O7  1  0.24424000  0.87411400  0.02572600  1
  O  O8  1  0.26611400  0.12923000  0.01022200  1
  O  O9  1  0.26611400  0.37077000  0.01022200  1
  O  O10  1  0.26611400  0.87077000  0.48977800  1
  O  O11  1  0.26611400  0.62923000  0.48977800  1
  O  O12  1  0.46585300  0.25000000  0.85898400  1
  O  O13  1  0.46585300  0.75000000  0.64101600  1
  O  O14  1  0.45304200  0.54298500  0.66364800  1
  O  O15  1  0.45304200  0.04298500  0.83635200  1
  O  O16  1  0.45304200  0.95701500  0.66364800  1
  O  O17  1  0.45304200  0.45701500  0.83635200  1
  O  O18  1  0.54695800  0.54298500  0.16364800  1
  O  O19  1  0.54695800  0.04298500  0.33635200  1
  O  O20  1  0.54695800  0.45701500  0.33635200  1
  O  O21  1  0.54695800  0.95701500  0.16364800  1
  O  O22  1  0.53414700  0.75000000  0.14101600  1
  O  O23  1  0.53414700  0.25000000  0.35898400  1
  O  O24  1  0.73388600  0.37077000  0.51022200  1
  O  O25  1  0.73388600  0.62923000  0.98977800  1
  O  O26  1  0.73388600  0.12923000  0.51022200  1
  O  O27  1  0.73388600  0.87077000  0.98977800  1
  O  O28  1  0.75576000  0.87411400  0.52572600  1
  O  O29  1  0.75576000  0.62588600  0.52572600  1
  O  O30  1  0.75576000  0.37411400  0.97427400  1
  O  O31  1  0.75576000  0.12588600  0.97427400  1
  O  O32  1  0.90838400  0.40268200  0.19914100  1
  O  O33  1  0.90838400  0.59731800  0.30085900  1
  O  O34  1  0.90838400  0.09731800  0.19914100  1
  O  O35  1  0.90838400  0.90268200  0.30085900  1
loop_
_geom_bond_atom_site_label_1
_geom_bond_atom_site_label_2
_geom_bond_distance
_geom_bond_site_symmetry_2
Li0 O31 1.980345 1_454
Li0 O7 1.980345 1_545
Li0 O8 2.063811 1_555
Li0 O27 2.063811 1_444
Li1 O4 1.980345 1_555
Li1 O28 1.980345 1_445
Li1 O10 2.063811 1_545
Li1 O26 2.063811 1_455
Li2 O5 1.980345 1_555
Li2 O30 1.980345 1_454
Li2 O9 2.063811 1_555
Li2 O25 2.063811 1_454
Li3 O29 1.980345 1_455
Li3 O6 1.980345 1_555
Li3 O11 2.063811 1_555
Li3 O24 2.063811 1_455
Mn0 O8 2.223231 1_655
Mn0 O9 2.223231 1_655
Mn0 O31 2.259736 1_554
Mn0 O30 2.259736 1_554
Mn0 O34 2.358216 1_555
Mn0 O32 2.358216 1_555
Mn1 O11 2.223231 1_655
Mn1 O10 2.223231 1_655
Mn1 O28 2.259736 1_555
Mn1 O29 2.259736 1_555
Mn1 O33 2.358216 1_555
Mn1 O35 2.358216 1_555
Mn2 O26 2.223231 1_455
Mn2 O24 2.223231 1_455
Mn2 O6 2.259736 1_555
Mn2 O4 2.259736 1_555
Mn2 O0 2.358216 1_555
Mn2 O1 2.358216 1_555
Mn3 O25 2.223231 1_455
Mn3 O27 2.223231 1_455
Mn3 O7 2.259736 1_556
Mn3 O5 2.259736 1_556
Mn3 O2 2.358216 1_555
Mn3 O3 2.358216 1_555
O0 P0 1.502434 1_555
O1 P1 1.502434 1_555
O2 P1 1.502434 1_555
O3 P0 1.502434 1_565
O4 P3 1.508816 1_555
O5 P2 1.508816 1_555
O6 P5 1.508816 1_555
O7 P4 1.508816 1_555
O8 P8 1.511375 1_554
O9 P7 1.511375 1_554
O10 P9 1.511375 1_555
O11 P6 1.511375 1_555
O12 P7 1.616129 1_555
O12 P8 1.616129 1_555
O13 P9 1.616129 1_555
O13 P6 1.616129 1_555
O14 P6 1.570585 1_555
O14 P1 1.628832 1_555
O15 P8 1.570585 1_555
O15 P0 1.628832 1_555
O16 P9 1.570585 1_555
O16 P0 1.628832 1_565
O17 P7 1.570585 1_555
O17 P1 1.628832 1_555
O18 P2 1.570585 1_555
O18 P11 1.628832 1_555
O19 P3 1.570585 1_555
O19 P10 1.628832 1_555
O20 P5 1.570585 1_555
O20 P11 1.628832 1_555
O21 P4 1.570585 1_555
O21 P10 1.628832 1_565
O22 P4 1.616129 1_555
O22 P2 1.616129 1_555
O23 P3 1.616129 1_555
O23 P5 1.616129 1_555
O24 P5 1.511375 1_555
O25 P2 1.511375 1_556
O26 P3 1.511375 1_555
O27 P4 1.511375 1_556
O28 P9 1.508816 1_555
O29 P6 1.508816 1_555
O30 P7 1.508816 1_555
O31 P8 1.508816 1_555
O32 P11 1.502434 1_555
O33 P11 1.502434 1_555
O34 P10 1.502434 1_555
O35 P10 1.502434 1_565
