# generated using pymatgen
data_CaSm2O4
_symmetry_space_group_name_H-M   'P 1'
_cell_length_a   7.00146588
_cell_length_b   7.00146588
_cell_length_c   7.00146588
_cell_angle_alpha   60.00000000
_cell_angle_beta   60.00000000
_cell_angle_gamma   60.00000000
_symmetry_Int_Tables_number   1
_chemical_formula_structural   CaSm2O4
_chemical_formula_sum   'Ca2 Sm4 O8'
_cell_volume   242.69002802
_cell_formula_units_Z   2
loop_
 _symmetry_equiv_pos_site_id
 _symmetry_equiv_pos_as_xyz
  1  'x, y, z'
loop_
 _atom_site_type_symbol
 _atom_site_label
 _atom_site_symmetry_multiplicity
 _atom_site_fract_x
 _atom_site_fract_y
 _atom_site_fract_z
 _atom_site_occupancy
  Ca  Ca0  1  0.50000000  0.50000000  0.50000000  1
  Ca  Ca1  1  0.75000000  0.75000000  0.75000000  1
  Sm  Sm0  1  0.12500000  0.12500000  0.12500000  1
  Sm  Sm1  1  0.62500000  0.12500000  0.12500000  1
  Sm  Sm2  1  0.12500000  0.62500000  0.12500000  1
  Sm  Sm3  1  0.12500000  0.12500000  0.62500000  1
  O  O0  1  0.36364200  0.36364200  0.90907300  1
  O  O1  1  0.90907300  0.36364200  0.36364200  1
  O  O2  1  0.36364200  0.90907300  0.36364200  1
  O  O3  1  0.88635800  0.88635800  0.88635800  1
  O  O4  1  0.36364200  0.36364200  0.36364200  1
  O  O5  1  0.88635800  0.34092700  0.88635800  1
  O  O6  1  0.34092700  0.88635800  0.88635800  1
  O  O7  1  0.88635800  0.88635800  0.34092700  1
loop_
_geom_bond_atom_site_label_1
_geom_bond_atom_site_label_2
_geom_bond_distance
_geom_bond_site_symmetry_2
Ca0 O0 2.338537 1_555
Ca0 O1 2.338537 1_555
Ca0 O2 2.338537 1_555
Ca0 O4 2.338542 1_555
Ca1 O6 2.338537 1_555
Ca1 O7 2.338537 1_555
Ca1 O5 2.338537 1_555
Ca1 O3 2.338542 1_555
O0 Sm0 2.368276 1_556
O0 Sm1 2.368281 1_556
O0 Sm2 2.368281 1_556
O1 Sm0 2.368276 1_655
O1 Sm3 2.368281 1_655
O1 Sm2 2.368281 1_655
O2 Sm0 2.368276 1_565
O2 Sm3 2.368281 1_565
O2 Sm1 2.368281 1_565
O3 Sm1 2.368276 1_566
O3 Sm2 2.368276 1_656
O3 Sm3 2.368276 1_665
O4 Sm2 2.368276 1_555
O4 Sm1 2.368276 1_555
O4 Sm3 2.368276 1_555
O5 Sm0 2.368276 1_656
O5 Sm1 2.368281 1_556
O5 Sm3 2.368281 1_655
O6 Sm0 2.368276 1_566
O6 Sm3 2.368281 1_565
O6 Sm2 2.368281 1_556
O7 Sm0 2.368276 1_665
O7 Sm1 2.368281 1_565
O7 Sm2 2.368281 1_655
