# generated using pymatgen
data_Mn3VFe2(PO4)6
_symmetry_space_group_name_H-M   'P 1'
_cell_length_a   8.53553993
_cell_length_b   8.53553993
_cell_length_c   8.53553989
_cell_angle_alpha   60.82233025
_cell_angle_beta   60.82233025
_cell_angle_gamma   60.82233117
_symmetry_Int_Tables_number   1
_chemical_formula_structural   Mn3VFe2(PO4)6
_chemical_formula_sum   'Mn3 V1 Fe2 P6 O24'
_cell_volume   447.87645652
_cell_formula_units_Z   1
loop_
 _symmetry_equiv_pos_site_id
 _symmetry_equiv_pos_as_xyz
  1  'x, y, z'
loop_
 _atom_site_type_symbol
 _atom_site_label
 _atom_site_symmetry_multiplicity
 _atom_site_fract_x
 _atom_site_fract_y
 _atom_site_fract_z
 _atom_site_occupancy
  Mn  Mn0  1  0.64314300  0.64314300  0.64314300  1
  Mn  Mn1  1  0.85689100  0.85689100  0.85689100  1
  Mn  Mn2  1  0.35667100  0.35667100  0.35667100  1
  V  V0  1  0.14267400  0.14267400  0.14267400  1
  Fe  Fe0  1  0.00015700  0.00015700  0.00015700  1
  Fe  Fe1  1  0.49934500  0.49934500  0.49934500  1
  P  P0  1  0.95746000  0.24930400  0.54212100  1
  P  P1  1  0.54212100  0.95746000  0.24930400  1
  P  P2  1  0.24930400  0.54212100  0.95746000  1
  P  P3  1  0.74933500  0.45857900  0.04331600  1
  P  P4  1  0.45857900  0.04331600  0.74933500  1
  P  P5  1  0.04331600  0.74933500  0.45857900  1
  O  O0  1  0.51100300  0.11410000  0.30960200  1
  O  O1  1  0.30960200  0.51100300  0.11410000  1
  O  O2  1  0.11410000  0.30960200  0.51100300  1
  O  O3  1  0.94276000  0.08631500  0.73857300  1
  O  O4  1  0.00209900  0.18340300  0.38103000  1
  O  O5  1  0.76136500  0.40954800  0.55103100  1
  O  O6  1  0.73857300  0.94276000  0.08631500  1
  O  O7  1  0.55103100  0.76136500  0.40954800  1
  O  O8  1  0.80838600  0.61781300  0.00999800  1
  O  O9  1  0.40954800  0.55103100  0.76136500  1
  O  O10  1  0.91439600  0.26082700  0.06259700  1
  O  O11  1  0.61781300  0.00999800  0.80838600  1
  O  O12  1  0.38103000  0.00209900  0.18340300  1
  O  O13  1  0.08631500  0.73857300  0.94276000  1
  O  O14  1  0.58966300  0.44115000  0.24104800  1
  O  O15  1  0.18340300  0.38103000  0.00209900  1
  O  O16  1  0.44115000  0.24104800  0.58966300  1
  O  O17  1  0.26082700  0.06259700  0.91439600  1
  O  O18  1  0.24104800  0.58966300  0.44115000  1
  O  O19  1  0.00999800  0.80838600  0.61781300  1
  O  O20  1  0.06259700  0.91439600  0.26082700  1
  O  O21  1  0.88669100  0.69048100  0.48714900  1
  O  O22  1  0.69048100  0.48714900  0.88669100  1
  O  O23  1  0.48714900  0.88669100  0.69048100  1
loop_
_geom_bond_atom_site_label_1
_geom_bond_atom_site_label_2
_geom_bond_distance
_geom_bond_site_symmetry_2
Mn0 O21 1.962954 1_555
Mn0 O22 1.962954 1_555
Mn0 O23 1.962954 1_555
Mn0 O9 2.098822 1_555
Mn0 O7 2.098822 1_555
Mn0 O5 2.098822 1_555
Mn1 O8 1.933783 1_556
Mn1 O19 1.933783 1_655
Mn1 O11 1.933783 1_565
Mn1 O3 2.035024 1_565
Mn1 O6 2.035024 1_556
Mn1 O13 2.035024 1_655
Mn2 O2 1.954288 1_555
Mn2 O1 1.954288 1_555
Mn2 O0 1.954288 1_555
Mn2 O14 2.059022 1_555
Mn2 O16 2.059022 1_555
Mn2 O18 2.059022 1_555
Fe0 O3 2.209146 1_454
Fe0 O6 2.209146 1_445
Fe0 O13 2.209146 1_544
Fe0 O20 2.226679 1_545
Fe0 O17 2.226679 1_554
Fe0 O10 2.226679 1_455
Fe1 O14 2.176919 1_555
Fe1 O16 2.176919 1_555
Fe1 O18 2.176919 1_555
Fe1 O9 2.178276 1_555
Fe1 O7 2.178277 1_555
Fe1 O5 2.178277 1_555
O0 P1 1.521325 1_545
O1 P2 1.521325 1_554
O2 P0 1.521325 1_455
O3 P0 1.566335 1_555
O4 P0 1.544843 1_455
O4 V0 1.898008 1_555
O5 P0 1.556669 1_555
O6 P1 1.566335 1_555
O7 P1 1.556669 1_555
O8 P3 1.527588 1_555
O9 P2 1.556669 1_555
O10 P3 1.580384 1_555
O10 V0 1.997812 1_655
O11 P4 1.527588 1_555
O12 P1 1.544843 1_545
O12 V0 1.898008 1_555
O13 P2 1.566335 1_555
O14 P3 1.561465 1_555
O15 P2 1.544843 1_554
O15 V0 1.898008 1_555
O16 P4 1.561465 1_555
O17 P4 1.580384 1_555
O17 V0 1.997812 1_556
O18 P5 1.561465 1_555
O19 P5 1.527588 1_555
O20 P5 1.580384 1_555
O20 V0 1.997812 1_565
O21 P5 1.522028 1_655
O22 P3 1.522028 1_556
O23 P4 1.522028 1_565
