# generated using pymatgen
data_Li4MnFe3(PO4)4
_symmetry_space_group_name_H-M   'P 1'
_cell_length_a   7.72961700
_cell_length_b   7.74046378
_cell_length_c   10.51703237
_cell_angle_alpha   90.07980201
_cell_angle_beta   90.05412493
_cell_angle_gamma   103.98916235
_symmetry_Int_Tables_number   1
_chemical_formula_structural   Li4MnFe3(PO4)4
_chemical_formula_sum   'Li8 Mn2 Fe6 P8 O32'
_cell_volume   610.57913757
_cell_formula_units_Z   2
loop_
 _symmetry_equiv_pos_site_id
 _symmetry_equiv_pos_as_xyz
  1  'x, y, z'
loop_
 _atom_site_type_symbol
 _atom_site_label
 _atom_site_symmetry_multiplicity
 _atom_site_fract_x
 _atom_site_fract_y
 _atom_site_fract_z
 _atom_site_occupancy
  Li  Li0  1  0.24951500  0.25016100  0.49948900  1
  Li  Li1  1  0.50000000  0.00000000  0.50000000  1
  Li  Li2  1  0.75048500  0.74983900  0.50051100  1
  Li  Li3  1  0.00000000  0.50000000  0.50000000  1
  Li  Li4  1  0.24962800  0.74996900  0.00051500  1
  Li  Li5  1  0.50000000  0.50000000  0.00000000  1
  Li  Li6  1  0.75037200  0.25003100  0.99948500  1
  Li  Li7  1  0.00000000  0.00000000  0.00000000  1
  Mn  Mn0  1  0.61471000  0.36423900  0.28241900  1
  Mn  Mn1  1  0.38529000  0.63576100  0.71758100  1
  Fe  Fe0  1  0.61279300  0.86300000  0.21739300  1
  Fe  Fe1  1  0.11239700  0.36213700  0.21742700  1
  Fe  Fe2  1  0.11302200  0.86342900  0.28243700  1
  Fe  Fe3  1  0.88697800  0.13657100  0.71756300  1
  Fe  Fe4  1  0.38720700  0.13700000  0.78260700  1
  Fe  Fe5  1  0.88760300  0.63786300  0.78257300  1
  P  P0  1  0.33263600  0.08260400  0.09507000  1
  P  P1  1  0.83534200  0.58538700  0.09427900  1
  P  P2  1  0.33125400  0.58339300  0.40339400  1
  P  P3  1  0.83368300  0.08158600  0.40447500  1
  P  P4  1  0.16631700  0.91841400  0.59552500  1
  P  P5  1  0.66874600  0.41660700  0.59660600  1
  P  P6  1  0.16465800  0.41461300  0.90572100  1
  P  P7  1  0.66736400  0.91739600  0.90493000  1
  O  O0  1  0.72874100  0.97887600  0.04204700  1
  O  O1  1  0.22762800  0.47763000  0.04237000  1
  O  O2  1  0.99638700  0.74631300  0.09780900  1
  O  O3  1  0.49446300  0.24429900  0.09796100  1
  O  O4  1  0.36805900  0.91514800  0.16541900  1
  O  O5  1  0.66683100  0.62043100  0.16427900  1
  O  O6  1  0.16507000  0.11790500  0.16539400  1
  O  O7  1  0.87028900  0.41701300  0.16417100  1
  O  O8  1  0.66359400  0.11250400  0.33484400  1
  O  O9  1  0.86960700  0.91346100  0.33496800  1
  O  O10  1  0.36270900  0.41374400  0.33399500  1
  O  O11  1  0.16348900  0.61992500  0.33417000  1
  O  O12  1  0.49449800  0.74315800  0.40082500  1
  O  O13  1  0.99340600  0.24449900  0.40060100  1
  O  O14  1  0.72945600  0.47778200  0.45925800  1
  O  O15  1  0.22710700  0.97878700  0.45800000  1
  O  O16  1  0.27054400  0.52221800  0.54074200  1
  O  O17  1  0.77289300  0.02121300  0.54200000  1
  O  O18  1  0.50550200  0.25684200  0.59917500  1
  O  O19  1  0.00659400  0.75550100  0.59939900  1
  O  O20  1  0.13039300  0.08653900  0.66503200  1
  O  O21  1  0.33640600  0.88749600  0.66515600  1
  O  O22  1  0.63729100  0.58625600  0.66600500  1
  O  O23  1  0.83651100  0.38007500  0.66583000  1
  O  O24  1  0.33316900  0.37956900  0.83572100  1
  O  O25  1  0.63194100  0.08485200  0.83458100  1
  O  O26  1  0.12971100  0.58298700  0.83582900  1
  O  O27  1  0.83493000  0.88209500  0.83460600  1
  O  O28  1  0.00361300  0.25368700  0.90219100  1
  O  O29  1  0.50553700  0.75570100  0.90203900  1
  O  O30  1  0.27125900  0.02112400  0.95795300  1
  O  O31  1  0.77237200  0.52237000  0.95763000  1
loop_
_geom_bond_atom_site_label_1
_geom_bond_atom_site_label_2
_geom_bond_distance
_geom_bond_site_symmetry_2
Li0 O15 2.110486 1_545
Li0 O16 2.116855 1_555
Li0 O10 2.207162 1_555
Li0 O20 2.219994 1_555
Li0 O13 2.226317 1_455
Li0 O18 2.227882 1_555
Li1 O17 2.121804 1_555
Li1 O15 2.121804 1_545
Li1 O21 2.202345 1_545
Li1 O8 2.202345 1_555
Li1 O12 2.235044 1_545
Li1 O18 2.235044 1_555
Li2 O17 2.110486 1_565
Li2 O14 2.116855 1_555
Li2 O22 2.207162 1_555
Li2 O9 2.219994 1_555
Li2 O19 2.226317 1_655
Li2 O12 2.227882 1_555
Li3 O16 2.100125 1_555
Li3 O14 2.100125 1_455
Li3 O11 2.223027 1_555
Li3 O23 2.223027 1_455
Li3 O19 2.225334 1_555
Li3 O13 2.225334 1_455
Li4 O30 2.113446 1_564
Li4 O1 2.120351 1_555
Li4 O2 2.203757 1_455
Li4 O4 2.214830 1_555
Li4 O26 2.222864 1_554
Li4 O29 2.224624 1_554
Li5 O31 2.118184 1_554
Li5 O1 2.118184 1_555
Li5 O5 2.219697 1_555
Li5 O24 2.219697 1_554
Li5 O29 2.223844 1_554
Li5 O3 2.223844 1_555
Li6 O0 2.113446 1_546
Li6 O31 2.120351 1_555
Li6 O28 2.203757 1_655
Li6 O25 2.214830 1_555
Li6 O7 2.222864 1_556
Li6 O3 2.224624 1_556
Li7 O30 2.110629 1_554
Li7 O0 2.110629 1_445
Li7 O2 2.212246 1_445
Li7 O28 2.212246 1_554
Li7 O27 2.216979 1_444
Li7 O6 2.216979 1_555
Mn0 O10 2.144190 1_555
Mn0 O8 2.145265 1_555
Mn0 O14 2.152552 1_555
Mn0 O3 2.250245 1_555
Mn0 O7 2.287369 1_555
Mn0 O5 2.293488 1_555
Mn1 O22 2.144190 1_555
Mn1 O21 2.145265 1_555
Mn1 O16 2.152552 1_555
Mn1 O29 2.250245 1_555
Mn1 O26 2.287369 1_555
Mn1 O24 2.293488 1_555
Fe0 O5 2.094890 1_555
Fe0 O4 2.099544 1_555
Fe0 O0 2.151182 1_555
Fe0 O12 2.239749 1_555
Fe0 O8 2.244018 1_565
Fe0 O9 2.289381 1_555
Fe1 O7 2.092673 1_455
Fe1 O6 2.099706 1_555
Fe1 O1 2.145880 1_555
Fe1 O13 2.233743 1_455
Fe1 O10 2.241989 1_555
Fe1 O11 2.292665 1_555
Fe2 O9 2.085406 1_455
Fe2 O11 2.087756 1_555
Fe2 O15 2.143777 1_555
Fe2 O2 2.236422 1_455
Fe2 O6 2.276312 1_565
Fe2 O4 2.277152 1_555
Fe3 O20 2.085406 1_655
Fe3 O23 2.087756 1_555
Fe3 O17 2.143777 1_555
Fe3 O28 2.236422 1_655
Fe3 O27 2.276312 1_545
Fe3 O25 2.277152 1_555
Fe4 O24 2.094890 1_555
Fe4 O25 2.099544 1_555
Fe4 O30 2.151182 1_555
Fe4 O18 2.239749 1_555
Fe4 O21 2.244018 1_545
Fe4 O20 2.289381 1_555
Fe5 O26 2.092673 1_655
Fe5 O27 2.099706 1_555
Fe5 O31 2.145880 1_555
Fe5 O19 2.233743 1_655
Fe5 O22 2.241989 1_555
Fe5 O23 2.292665 1_555
O0 P7 1.555227 1_554
O1 P6 1.556328 1_554
O2 P1 1.533844 1_555
O3 P0 1.541094 1_555
O4 P0 1.573640 1_565
O5 P1 1.576137 1_555
O6 P0 1.572140 1_555
O7 P1 1.576183 1_555
O8 P3 1.572527 1_555
O9 P3 1.573999 1_565
O10 P2 1.571066 1_555
O11 P2 1.570876 1_555
O12 P2 1.538813 1_555
O13 P3 1.537401 1_555
O14 P5 1.557802 1_555
O15 P4 1.558242 1_555
O16 P2 1.557802 1_555
O17 P3 1.558242 1_555
O18 P5 1.538813 1_555
O19 P4 1.537401 1_555
O20 P4 1.573999 1_545
O21 P4 1.572527 1_555
O22 P5 1.571066 1_555
O23 P5 1.570876 1_555
O24 P6 1.576137 1_555
O25 P7 1.573640 1_545
O26 P6 1.576183 1_555
O27 P7 1.572140 1_555
O28 P6 1.533844 1_555
O29 P7 1.541094 1_555
O30 P0 1.555227 1_556
O31 P1 1.556328 1_556
