# generated using pymatgen
data_Al2O3
_symmetry_space_group_name_H-M   'P 1'
_cell_length_a   4.79304880
_cell_length_b   4.79305372
_cell_length_c   8.96664666
_cell_angle_alpha   90.00017947
_cell_angle_beta   89.99988973
_cell_angle_gamma   119.99998085
_symmetry_Int_Tables_number   1
_chemical_formula_structural   Al2O3
_chemical_formula_sum   'Al8 O12'
_cell_volume   178.39592041
_cell_formula_units_Z   4
loop_
 _symmetry_equiv_pos_site_id
 _symmetry_equiv_pos_as_xyz
  1  'x, y, z'
loop_
 _atom_site_type_symbol
 _atom_site_label
 _atom_site_symmetry_multiplicity
 _atom_site_fract_x
 _atom_site_fract_y
 _atom_site_fract_z
 _atom_site_occupancy
  Al  Al0  1  0.33331882  0.66666518  0.96281672  1
  Al  Al1  1  0.33332240  0.66666899  0.25000008  1
  Al  Al2  1  0.99998570  0.99999901  -0.00000014  1
  Al  Al3  1  0.99999395  0.00000000  0.49999993  1
  Al  Al4  1  0.33332794  0.66666683  0.53718317  1
  Al  Al5  1  0.66665338  0.33333383  0.03718395  1
  Al  Al6  1  0.66665341  0.33333023  0.75000012  1
  Al  Al7  1  0.66666219  0.33333497  0.46281672  1
  O  O0  1  0.03182862  0.67665438  0.11195982  1
  O  O1  1  0.96815110  0.64480985  0.61195949  1
  O  O2  1  0.03183787  0.35519104  0.38804007  1
  O  O3  1  0.96814260  0.32334666  0.88804162  1
  O  O4  1  0.32333462  0.35519228  0.11195866  1
  O  O5  1  0.35518393  0.32334752  0.61195925  1
  O  O6  1  0.32334259  0.96815864  0.38804068  1
  O  O7  1  0.35517605  0.03183971  0.88803984  1
  O  O8  1  0.64480196  0.67665159  0.38804075  1
  O  O9  1  0.67663829  0.64480729  0.88804004  1
  O  O10  1  0.64479603  0.96815777  0.11195996  1
  O  O11  1  0.67664658  0.03184324  0.61195926  1
loop_
_geom_bond_atom_site_label_1
_geom_bond_atom_site_label_2
_geom_bond_distance
_geom_bond_site_symmetry_2
Al0 O3 1.827766 1_455
Al0 O7 1.827768 1_565
Al0 O9 1.827774 1_555
Al0 O4 1.986960 1_556
Al0 O0 1.986975 1_556
Al0 O10 1.986978 1_556
Al1 O6 1.921364 1_555
Al1 O10 1.921371 1_555
Al1 O2 1.921372 1_555
Al1 O4 1.921381 1_555
Al1 O0 1.921392 1_555
Al1 O8 1.921400 1_555
Al2 O0 1.915613 1_655
Al2 O3 1.915618 1_564
Al2 O10 1.915620 1_555
Al2 O9 1.915623 1_554
Al2 O7 1.915624 1_664
Al2 O4 1.915625 1_665
Al3 O11 1.915617 1_555
Al3 O6 1.915617 1_645
Al3 O5 1.915617 1_655
Al3 O1 1.915622 1_545
Al3 O8 1.915623 1_545
Al3 O2 1.915626 1_655
Al4 O11 1.827770 1_565
Al4 O5 1.827772 1_555
Al4 O1 1.827773 1_455
Al4 O8 1.986959 1_555
Al4 O2 1.986970 1_555
Al4 O6 1.986976 1_555
Al5 O4 1.827766 1_555
Al5 O0 1.827770 1_655
Al5 O10 1.827772 1_545
Al5 O3 1.986963 1_554
Al5 O9 1.986972 1_554
Al5 O7 1.986986 1_554
Al6 O5 1.921364 1_555
Al6 O3 1.921378 1_555
Al6 O9 1.921379 1_555
Al6 O7 1.921379 1_555
Al6 O11 1.921381 1_555
Al6 O1 1.921402 1_555
Al7 O8 1.827770 1_555
Al7 O2 1.827770 1_655
Al7 O6 1.827772 1_545
Al7 O1 1.986964 1_555
Al7 O5 1.986971 1_555
Al7 O11 1.986974 1_555
