# generated using pymatgen
data_Li4Fe3TeO8
_symmetry_space_group_name_H-M   'P 1'
_cell_length_a   4.99179200
_cell_length_b   5.99467960
_cell_length_c   6.64901511
_cell_angle_alpha   92.77912004
_cell_angle_beta   90.48271445
_cell_angle_gamma   90.66732916
_symmetry_Int_Tables_number   1
_chemical_formula_structural   Li4Fe3TeO8
_chemical_formula_sum   'Li4 Fe3 Te1 O8'
_cell_volume   198.71087693
_cell_formula_units_Z   1
loop_
 _symmetry_equiv_pos_site_id
 _symmetry_equiv_pos_as_xyz
  1  'x, y, z'
loop_
 _atom_site_type_symbol
 _atom_site_label
 _atom_site_symmetry_multiplicity
 _atom_site_fract_x
 _atom_site_fract_y
 _atom_site_fract_z
 _atom_site_occupancy
  Li  Li0  1  0.97336100  0.09433500  0.60537700  1
  Li  Li1  1  0.50731900  0.41818000  0.13552900  1
  Li  Li2  1  0.98456700  0.54690300  0.88369700  1
  Li  Li3  1  0.50355600  0.91138700  0.37303700  1
  Fe  Fe0  1  0.96626600  0.09393200  0.14840000  1
  Fe  Fe1  1  0.51027300  0.42247700  0.61894800  1
  Fe  Fe2  1  0.00286200  0.59087500  0.37429000  1
  Te  Te0  1  0.43420600  0.91341400  0.86287900  1
  O  O0  1  0.40264900  0.07770500  0.12418100  1
  O  O1  1  0.40709000  0.11706500  0.61518000  1
  O  O2  1  0.90694900  0.41890300  0.13788700  1
  O  O3  1  0.89348300  0.42769700  0.60659200  1
  O  O4  1  0.39103800  0.58614300  0.39628100  1
  O  O5  1  0.42292200  0.55815600  0.87718100  1
  O  O6  1  0.90030600  0.89309800  0.37002400  1
  O  O7  1  0.81955300  0.92972900  0.87051800  1
loop_
_geom_bond_atom_site_label_1
_geom_bond_atom_site_label_2
_geom_bond_distance
_geom_bond_site_symmetry_2
Li0 O6 1.958099 1_545
Li0 O3 2.041984 1_555
Li0 O1 2.168017 1_655
Li0 O7 2.201122 1_545
Li1 O5 1.992011 1_554
Li1 O2 1.994752 1_555
Li1 O4 2.053752 1_555
Li1 O0 2.098592 1_555
Li2 O2 1.930090 1_556
Li2 O3 1.990663 1_555
Li2 O5 2.189290 1_655
Li2 O7 2.452582 1_555
Li3 O6 1.985016 1_555
Li3 O0 2.035501 1_565
Li3 O4 2.036170 1_555
Li3 O1 2.044172 1_565
Fe0 O6 1.974916 1_545
Fe0 O2 1.978367 1_555
Fe0 O7 2.168665 1_544
Fe0 O0 2.188574 1_655
Fe1 O1 1.895071 1_555
Fe1 O4 1.910080 1_555
Fe1 O3 1.915316 1_555
Fe1 O5 1.919687 1_555
Fe2 O6 1.889866 1_455
Fe2 O2 1.892460 1_455
Fe2 O4 1.942614 1_555
Fe2 O3 1.946535 1_455
O0 Te0 1.963580 1_544
O1 Te0 2.101489 1_545
O5 Te0 2.136491 1_555
O7 Te0 1.925036 1_555
