# generated using pymatgen
data_Na3LiSbP2O9
_symmetry_space_group_name_H-M   'P 1'
_cell_length_a   7.32515600
_cell_length_b   9.49811200
_cell_length_c   12.72838100
_cell_angle_alpha   90.00000000
_cell_angle_beta   90.00000000
_cell_angle_gamma   90.00000000
_symmetry_Int_Tables_number   1
_chemical_formula_structural   Na3LiSbP2O9
_chemical_formula_sum   'Na12 Li4 Sb4 P8 O36'
_cell_volume   885.57904413
_cell_formula_units_Z   4
loop_
 _symmetry_equiv_pos_site_id
 _symmetry_equiv_pos_as_xyz
  1  'x, y, z'
loop_
 _atom_site_type_symbol
 _atom_site_label
 _atom_site_symmetry_multiplicity
 _atom_site_fract_x
 _atom_site_fract_y
 _atom_site_fract_z
 _atom_site_occupancy
  Na  Na0  1  0.14249500  0.10764600  0.14929200  1
  Na  Na1  1  0.15696400  0.24191400  0.76606400  1
  Na  Na2  1  0.23505500  0.58510400  0.50133900  1
  Na  Na3  1  0.26494500  0.41489600  0.00133900  1
  Na  Na4  1  0.34303600  0.75808600  0.26606400  1
  Na  Na5  1  0.35750500  0.89235400  0.64929200  1
  Na  Na6  1  0.64249500  0.39235400  0.85070800  1
  Na  Na7  1  0.65696400  0.25808600  0.23393600  1
  Na  Na8  1  0.73505500  0.91489600  0.49866100  1
  Na  Na9  1  0.76494500  0.08510400  0.99866100  1
  Na  Na10  1  0.84303600  0.74191400  0.73393600  1
  Na  Na11  1  0.85750500  0.60764600  0.35070800  1
  Li  Li0  1  0.09633100  0.55748100  0.16511500  1
  Li  Li1  1  0.40366900  0.44251900  0.66511500  1
  Li  Li2  1  0.59633100  0.94251900  0.83488500  1
  Li  Li3  1  0.90366900  0.05748100  0.33488500  1
  Sb  Sb0  1  0.01751500  0.75377200  0.99607900  1
  Sb  Sb1  1  0.48248500  0.24622800  0.49607900  1
  Sb  Sb2  1  0.51751500  0.74622800  0.00392100  1
  Sb  Sb3  1  0.98248500  0.25377200  0.50392100  1
  P  P0  1  0.22060800  0.37357900  0.29056700  1
  P  P1  1  0.23276000  0.95975800  0.42087200  1
  P  P2  1  0.26724000  0.04024200  0.92087200  1
  P  P3  1  0.27939200  0.62642100  0.79056700  1
  P  P4  1  0.72060800  0.12642100  0.70943300  1
  P  P5  1  0.73276000  0.54024200  0.57912800  1
  P  P6  1  0.76724000  0.45975800  0.07912800  1
  P  P7  1  0.77939200  0.87357900  0.20943300  1
  O  O0  1  0.05740400  0.28512000  0.33874800  1
  O  O1  1  0.04960100  0.02696200  0.46607600  1
  O  O2  1  0.09499400  0.68094600  0.83911300  1
  O  O3  1  0.10316400  0.97050900  0.98632900  1
  O  O4  1  0.18862400  0.53255900  0.31394600  1
  O  O5  1  0.23666700  0.31059900  0.56095100  1
  O  O6  1  0.24214600  0.80401800  0.44778300  1
  O  O7  1  0.22417100  0.35008200  0.17193800  1
  O  O8  1  0.25636000  0.01076800  0.80297800  1
  O  O9  1  0.24364000  0.98923200  0.30297800  1
  O  O10  1  0.27582900  0.64991800  0.67193800  1
  O  O11  1  0.25785400  0.19598200  0.94778300  1
  O  O12  1  0.26333300  0.68940100  0.06095100  1
  O  O13  1  0.31137600  0.46744100  0.81394600  1
  O  O14  1  0.39683600  0.02949100  0.48632900  1
  O  O15  1  0.40500600  0.31905400  0.33911300  1
  O  O16  1  0.45039900  0.97303800  0.96607600  1
  O  O17  1  0.44259600  0.71488000  0.83874800  1
  O  O18  1  0.55740400  0.21488000  0.66125200  1
  O  O19  1  0.54960100  0.47303800  0.53392400  1
  O  O20  1  0.59499400  0.81905400  0.16088700  1
  O  O21  1  0.60316400  0.52949100  0.01367100  1
  O  O22  1  0.68862400  0.96744100  0.68605400  1
  O  O23  1  0.73666700  0.18940100  0.43904900  1
  O  O24  1  0.74214600  0.69598200  0.55221700  1
  O  O25  1  0.72417100  0.14991800  0.82806200  1
  O  O26  1  0.75636000  0.48923200  0.19702200  1
  O  O27  1  0.74364000  0.51076800  0.69702200  1
  O  O28  1  0.77582900  0.85008200  0.32806200  1
  O  O29  1  0.75785400  0.30401800  0.05221700  1
  O  O30  1  0.76333300  0.81059900  0.93904900  1
  O  O31  1  0.81137600  0.03255900  0.18605400  1
  O  O32  1  0.89683600  0.47050900  0.51367100  1
  O  O33  1  0.90500600  0.18094600  0.66088700  1
  O  O34  1  0.95039900  0.52696200  0.03392400  1
  O  O35  1  0.94259600  0.78512000  0.16125200  1
loop_
_geom_bond_atom_site_label_1
_geom_bond_atom_site_label_2
_geom_bond_distance
_geom_bond_site_symmetry_2
Na0 O9 2.374979 1_545
Na0 O7 2.396537 1_555
Na0 O3 2.466203 1_544
Na0 O31 2.571113 1_455
Na0 O11 2.827835 1_554
Na1 O33 2.352424 1_455
Na1 O8 2.360272 1_555
Na1 O11 2.467067 1_555
Na1 O13 2.497863 1_555
Na1 O5 2.753636 1_555
Na2 O6 2.188778 1_555
Na2 O10 2.276703 1_555
Na2 O4 2.460484 1_555
Na2 O19 2.571745 1_555
Na2 O32 2.710604 1_455
Na2 O5 2.715468 1_555
Na3 O11 2.188778 1_554
Na3 O7 2.276703 1_555
Na3 O13 2.460484 1_554
Na3 O34 2.571745 1_455
Na3 O21 2.710604 1_555
Na3 O12 2.715468 1_555
Na4 O20 2.352424 1_555
Na4 O9 2.360272 1_555
Na4 O6 2.467067 1_555
Na4 O4 2.497863 1_555
Na4 O12 2.753636 1_555
Na5 O8 2.374979 1_565
Na5 O10 2.396537 1_555
Na5 O14 2.466203 1_565
Na5 O22 2.571113 1_555
Na5 O6 2.827835 1_555
Na6 O27 2.374979 1_555
Na6 O25 2.396537 1_555
Na6 O21 2.466203 1_556
Na6 O13 2.571113 1_555
Na6 O29 2.827835 1_556
Na7 O15 2.352424 1_555
Na7 O26 2.360272 1_555
Na7 O29 2.467067 1_555
Na7 O31 2.497863 1_555
Na7 O23 2.753636 1_555
Na8 O24 2.188778 1_555
Na8 O28 2.276703 1_555
Na8 O22 2.460484 1_555
Na8 O1 2.571745 1_665
Na8 O14 2.710604 1_565
Na8 O23 2.715468 1_565
Na9 O29 2.188778 1_556
Na9 O25 2.276703 1_555
Na9 O31 2.460484 1_556
Na9 O16 2.571745 1_545
Na9 O3 2.710604 1_645
Na9 O30 2.715468 1_545
Na10 O2 2.352424 1_655
Na10 O27 2.360272 1_555
Na10 O24 2.467067 1_555
Na10 O22 2.497863 1_555
Na10 O30 2.753636 1_555
Na11 O26 2.374979 1_555
Na11 O28 2.396537 1_555
Na11 O32 2.466203 1_555
Na11 O4 2.571113 1_655
Na11 O24 2.827835 1_555
Li0 O34 2.003779 1_455
Li0 O4 2.025280 1_555
Li0 O7 2.182883 1_555
Li0 O12 2.196437 1_555
Li0 O35 2.438328 1_455
Li0 O26 2.605176 1_455
Li1 O19 2.003779 1_555
Li1 O13 2.025280 1_555
Li1 O10 2.182883 1_555
Li1 O5 2.196437 1_555
Li1 O18 2.438328 1_555
Li1 O27 2.605176 1_555
Li2 O16 2.003779 1_555
Li2 O22 2.025280 1_555
Li2 O25 2.182883 1_565
Li2 O30 2.196437 1_555
Li2 O17 2.438328 1_555
Li2 O8 2.605176 1_565
Li3 O1 2.003779 1_655
Li3 O31 2.025280 1_555
Li3 O28 2.182883 1_545
Li3 O23 2.196437 1_555
Li3 O0 2.438328 1_655
Li3 O9 2.605176 1_645
O0 P0 1.584686 1_555
O0 Sb3 2.193137 1_455
O1 P1 1.593289 1_545
O1 Sb3 2.261551 1_455
O2 P3 1.573064 1_555
O2 Sb0 2.189125 1_555
O3 P2 1.605417 1_565
O3 Sb0 2.155649 1_555
O4 P0 1.556783 1_555
O5 Sb3 2.070028 1_455
O5 Sb1 2.073157 1_555
O6 P1 1.519933 1_555
O7 P0 1.526582 1_555
O8 P2 1.528569 1_555
O9 P1 1.528569 1_555
O10 P3 1.526582 1_555
O11 P2 1.519933 1_555
O12 Sb2 2.070028 1_555
O12 Sb0 2.073157 1_554
O13 P3 1.556783 1_555
O14 P1 1.605417 1_545
O14 Sb1 2.155649 1_555
O15 P0 1.573064 1_555
O15 Sb1 2.189125 1_555
O16 P2 1.593289 1_565
O16 Sb2 2.261551 1_556
O17 P3 1.584686 1_555
O17 Sb2 2.193137 1_556
O18 P4 1.584686 1_555
O18 Sb1 2.193137 1_555
O19 P5 1.593289 1_555
O19 Sb1 2.261551 1_555
O20 P7 1.573064 1_555
O20 Sb2 2.189125 1_555
O21 P6 1.605417 1_555
O21 Sb2 2.155649 1_555
O22 P4 1.556783 1_565
O23 Sb1 2.070028 1_555
O23 Sb3 2.073157 1_555
O24 P5 1.519933 1_555
O25 P4 1.526582 1_555
O26 P6 1.528569 1_555
O27 P5 1.528569 1_555
O28 P7 1.526582 1_555
O29 P6 1.519933 1_555
O30 Sb0 2.070028 1_655
O30 Sb2 2.073157 1_556
O31 P7 1.556783 1_545
O32 P5 1.605417 1_555
O32 Sb3 2.155649 1_555
O33 P4 1.573064 1_555
O33 Sb3 2.189125 1_555
O34 P6 1.593289 1_555
O34 Sb0 2.261551 1_654
O35 P7 1.584686 1_555
O35 Sb0 2.193137 1_654
