# generated using pymatgen
data_V3(O2F)2
_symmetry_space_group_name_H-M   'P 1'
_cell_length_a   4.70797300
_cell_length_b   4.71327400
_cell_length_c   9.03428100
_cell_angle_alpha   90.00000000
_cell_angle_beta   90.00000000
_cell_angle_gamma   90.00000000
_symmetry_Int_Tables_number   1
_chemical_formula_structural   V3(O2F)2
_chemical_formula_sum   'V6 O8 F4'
_cell_volume   200.47039485
_cell_formula_units_Z   2
loop_
 _symmetry_equiv_pos_site_id
 _symmetry_equiv_pos_as_xyz
  1  'x, y, z'
loop_
 _atom_site_type_symbol
 _atom_site_label
 _atom_site_symmetry_multiplicity
 _atom_site_fract_x
 _atom_site_fract_y
 _atom_site_fract_z
 _atom_site_occupancy
  V  V0  1  0.98773500  0.71353500  0.84610200  1
  V  V1  1  0.98773500  0.71353500  0.15389800  1
  V  V2  1  0.02012500  0.74772300  0.50000000  1
  V  V3  1  0.52012500  0.25227700  0.00000000  1
  V  V4  1  0.48773500  0.28646500  0.65389800  1
  V  V5  1  0.48773500  0.28646500  0.34610200  1
  O  O0  1  0.20767400  0.52967700  0.00000000  1
  O  O1  1  0.19703500  0.55989800  0.32834700  1
  O  O2  1  0.19703500  0.55989800  0.67165300  1
  O  O3  1  0.69703500  0.44010200  0.82834700  1
  O  O4  1  0.69703500  0.44010200  0.17165300  1
  O  O5  1  0.70767400  0.47032300  0.50000000  1
  O  O6  1  0.30188800  0.05945700  0.50000000  1
  O  O7  1  0.80188800  0.94054300  0.00000000  1
  F  F0  1  0.30054300  0.04694800  0.82973300  1
  F  F1  1  0.30054300  0.04694800  0.17026700  1
  F  F2  1  0.80054300  0.95305200  0.67026700  1
  F  F3  1  0.80054300  0.95305200  0.32973300  1
loop_
_geom_bond_atom_site_label_1
_geom_bond_atom_site_label_2
_geom_bond_distance
_geom_bond_site_symmetry_2
O0 V0 1.938101 1_454
O0 V1 1.938101 1_455
O0 V3 1.968078 1_555
O1 V5 1.886725 1_555
O1 V2 1.970347 1_555
O1 V1 1.994789 1_455
O2 V4 1.886725 1_555
O2 V2 1.970347 1_555
O2 V0 1.994789 1_455
O3 V0 1.886725 1_555
O3 V3 1.970347 1_556
O3 V4 1.994789 1_555
O4 V1 1.886725 1_555
O4 V3 1.970347 1_555
O4 V5 1.994789 1_555
O5 V4 1.938101 1_555
O5 V5 1.938101 1_555
O5 V2 1.968078 1_655
O6 V4 1.960472 1_555
O6 V5 1.960472 1_555
O6 V2 1.979519 1_545
O7 V0 1.960472 1_554
O7 V1 1.960472 1_555
O7 V3 1.979519 1_565
F0 V3 2.090808 1_556
F0 V4 2.138828 1_555
F0 V0 2.158749 1_445
F1 V3 2.090808 1_555
F1 V5 2.138828 1_555
F1 V1 2.158749 1_445
F2 V2 2.090808 1_655
F2 V0 2.138828 1_555
F2 V4 2.158749 1_565
F3 V2 2.090808 1_655
F3 V1 2.138828 1_555
F3 V5 2.158749 1_565
