# generated using pymatgen
data_LiCuBO3
_symmetry_space_group_name_H-M   'P 1'
_cell_length_a   3.14218500
_cell_length_b   14.06892106
_cell_length_c   14.07991035
_cell_angle_alpha   119.73799552
_cell_angle_beta   91.40986344
_cell_angle_gamma   89.67091519
_symmetry_Int_Tables_number   1
_chemical_formula_structural   LiCuBO3
_chemical_formula_sum   'Li9 Cu9 B9 O27'
_cell_volume   540.28149260
_cell_formula_units_Z   9
loop_
 _symmetry_equiv_pos_site_id
 _symmetry_equiv_pos_as_xyz
  1  'x, y, z'
loop_
 _atom_site_type_symbol
 _atom_site_label
 _atom_site_symmetry_multiplicity
 _atom_site_fract_x
 _atom_site_fract_y
 _atom_site_fract_z
 _atom_site_occupancy
  Li  Li0  1  0.48411800  0.90218000  0.77821900  1
  Li  Li1  1  0.51572000  0.89140800  0.45258400  1
  Li  Li2  1  0.44380300  0.54731600  0.43899400  1
  Li  Li3  1  0.49361300  0.87667400  0.09724100  1
  Li  Li4  1  0.54772700  0.56209500  0.10988300  1
  Li  Li5  1  0.49801600  0.55221100  0.80197400  1
  Li  Li6  1  0.51216000  0.22134200  0.12492600  1
  Li  Li7  1  0.50973300  0.19878800  0.75055700  1
  Li  Li8  1  0.49702000  0.25084200  0.44855600  1
  Cu  Cu0  1  0.93614900  0.75531900  0.54390000  1
  Cu  Cu1  1  0.99066300  0.79353500  0.24633200  1
  Cu  Cu2  1  0.00396900  0.78513700  0.88288700  1
  Cu  Cu3  1  0.06020800  0.45348400  0.20893100  1
  Cu  Cu4  1  0.03147600  0.41997900  0.88690000  1
  Cu  Cu5  1  0.96019300  0.46746400  0.58145100  1
  Cu  Cu6  1  0.03243300  0.11850400  0.90228900  1
  Cu  Cu7  1  0.03190700  0.11674200  0.53567300  1
  Cu  Cu8  1  0.97225100  0.09950100  0.21771400  1
  B  B0  1  0.00309600  0.99339000  0.65898400  1
  B  B1  1  0.00167400  0.66685200  0.33397100  1
  B  B2  1  0.01031500  0.66671200  0.00839000  1
  B  B3  1  0.98610200  0.34215300  0.33476300  1
  B  B4  1  0.46798600  0.66958200  0.67696300  1
  B  B5  1  0.53665900  0.32278900  0.99202000  1
  B  B6  1  0.99895100  0.33362800  0.66676300  1
  B  B7  1  0.99187200  0.00006900  0.00018600  1
  B  B8  1  0.49125100  0.00920900  0.33126300  1
  O  O0  1  0.98576000  0.97199300  0.89092300  1
  O  O1  1  0.03878800  0.99015500  0.55901800  1
  O  O2  1  0.91243400  0.89994300  0.66466700  1
  O  O3  1  0.44683500  0.68244200  0.58639400  1
  O  O4  1  0.48910600  0.90583900  0.31813000  1
  O  O5  1  0.00148800  0.77916800  0.37932600  1
  O  O6  1  0.94318200  0.62269900  0.40076400  1
  O  O7  1  0.97049400  0.91837000  0.02770000  1
  O  O8  1  0.93837100  0.44203100  0.42950600  1
  O  O9  1  0.92174500  0.76568400  0.10029300  1
  O  O10  1  0.05992500  0.60000800  0.22372500  1
  O  O11  1  0.09685900  0.33458900  0.23627100  1
  O  O12  1  0.05752500  0.66244400  0.90854200  1
  O  O13  1  0.04730900  0.57023400  0.01262800  1
  O  O14  1  0.48138800  0.75969600  0.78221800  1
  O  O15  1  0.54747000  0.41249600  0.09556200  1
  O  O16  1  0.52985100  0.33606200  0.89990900  1
  O  O17  1  0.47692700  0.56449600  0.66446900  1
  O  O18  1  0.02106500  0.10868500  0.08101600  1
  O  O19  1  0.53109900  0.21700400  0.97705800  1
  O  O20  1  0.98674100  0.43844000  0.75622400  1
  O  O21  1  0.02111000  0.31807200  0.56220200  1
  O  O22  1  0.98961800  0.24394800  0.68249500  1
  O  O23  1  0.05526900  0.09335900  0.75445300  1
  O  O24  1  0.92783700  0.24682400  0.33929900  1
  O  O25  1  0.50356300  0.10062900  0.43568900  1
  O  O26  1  0.48335900  0.02331900  0.23964800  1
loop_
_geom_bond_atom_site_label_1
_geom_bond_atom_site_label_2
_geom_bond_distance
_geom_bond_site_symmetry_2
Li0 O14 2.033186 1_555
Li0 O0 2.077465 1_555
Li0 O2 2.103317 1_555
Li0 O0 2.119752 1_455
Li0 O2 2.365035 1_455
Li1 O4 2.001340 1_555
Li1 O5 2.078750 1_655
Li1 O1 2.107797 1_555
Li1 O5 2.121260 1_555
Li1 O1 2.171810 1_655
Li2 O3 2.001612 1_555
Li2 O6 2.096307 1_455
Li2 O8 2.101045 1_555
Li2 O6 2.122204 1_555
Li2 O8 2.134119 1_455
Li3 O26 2.043620 1_565
Li3 O7 2.049459 1_555
Li3 O9 2.071112 1_555
Li3 O7 2.117601 1_455
Li3 O9 2.402429 1_455
Li4 O15 2.012311 1_555
Li4 O13 2.099572 1_555
Li4 O10 2.113394 1_555
Li4 O10 2.116297 1_655
Li4 O13 2.148444 1_655
Li5 O17 2.026847 1_555
Li5 O20 2.081537 1_555
Li5 O12 2.083577 1_555
Li5 O20 2.124526 1_455
Li5 O12 2.310924 1_655
Li6 O19 2.054716 1_554
Li6 O18 2.069915 1_555
Li6 O11 2.073151 1_555
Li6 O18 2.121033 1_655
Li6 O11 2.405323 1_655
Li7 O16 2.030210 1_555
Li7 O22 2.069274 1_555
Li7 O23 2.085959 1_555
Li7 O22 2.123203 1_455
Li7 O23 2.277803 1_655
Li8 O25 2.029602 1_555
Li8 O24 2.053655 1_555
Li8 O21 2.071539 1_555
Li8 O21 2.133939 1_655
Li8 O24 2.312533 1_455
Cu0 O2 1.899747 1_555
Cu0 O6 1.953113 1_555
Cu0 O3 2.108348 1_555
Cu0 O3 2.127586 1_655
Cu1 O9 1.899529 1_555
Cu1 O5 1.980079 1_655
Cu1 O4 2.082608 1_655
Cu1 O4 2.113595 1_555
Cu2 O12 1.936665 1_555
Cu2 O7 1.974496 1_456
Cu2 O14 1.995680 1_555
Cu2 O14 2.054847 1_455
Cu3 O11 1.895747 1_555
Cu3 O10 1.966444 1_555
Cu3 O15 2.102756 1_555
Cu3 O15 2.108819 1_455
Cu4 O13 1.972131 1_556
Cu4 O20 1.983282 1_455
Cu4 O16 2.014674 1_555
Cu4 O16 2.040082 1_455
Cu5 O8 1.985770 1_555
Cu5 O21 1.990077 1_655
Cu5 O17 2.004062 1_555
Cu5 O17 2.053106 1_655
Cu6 O23 1.933791 1_555
Cu6 O0 1.992723 1_445
Cu6 O19 1.995073 1_555
Cu6 O19 2.029635 1_455
Cu7 O22 1.958183 1_455
Cu7 O1 1.964744 1_545
Cu7 O25 2.002952 1_555
Cu7 O25 2.088546 1_455
Cu8 O24 1.932467 1_555
Cu8 O26 1.993650 1_555
Cu8 O18 2.001536 1_655
Cu8 O26 2.026709 1_655
B0 O2 1.387723 1_455
B0 O23 1.388561 1_565
B0 O1 1.392802 1_555
B1 O10 1.375207 1_555
B1 O6 1.376026 1_455
B1 O5 1.379728 1_555
B2 O9 1.384372 1_455
B2 O12 1.388683 1_554
B2 O13 1.391993 1_555
B3 O8 1.387199 1_555
B3 O24 1.387344 1_555
B3 O11 1.390129 1_655
B4 O3 1.373999 1_555
B4 O14 1.392463 1_555
B4 O17 1.399746 1_555
B5 O15 1.375526 1_556
B5 O19 1.395973 1_555
B5 O16 1.398630 1_555
B6 O21 1.380351 1_655
B6 O22 1.385574 1_555
B6 O20 1.386200 1_555
B7 O18 1.381996 1_655
B7 O0 1.385240 1_544
B7 O7 1.385518 1_545
B8 O4 1.372044 1_545
B8 O25 1.392571 1_555
B8 O26 1.398696 1_555
