# generated using pymatgen
data_Cr4P2O9
_symmetry_space_group_name_H-M   'P 1'
_cell_length_a   12.06953700
_cell_length_b   6.53635000
_cell_length_c   9.59937735
_cell_angle_alpha   74.95191186
_cell_angle_beta   90.00000000
_cell_angle_gamma   90.00000000
_symmetry_Int_Tables_number   1
_chemical_formula_structural   Cr4P2O9
_chemical_formula_sum   'Cr16 P8 O36'
_cell_volume   731.33257780
_cell_formula_units_Z   4
loop_
 _symmetry_equiv_pos_site_id
 _symmetry_equiv_pos_as_xyz
  1  'x, y, z'
loop_
 _atom_site_type_symbol
 _atom_site_label
 _atom_site_symmetry_multiplicity
 _atom_site_fract_x
 _atom_site_fract_y
 _atom_site_fract_z
 _atom_site_occupancy
  Cr  Cr0  1  0.38939700  0.92781900  0.88901600  1
  Cr  Cr1  1  0.11060300  0.92781900  0.38901600  1
  Cr  Cr2  1  0.61692900  0.77427100  0.75352600  1
  Cr  Cr3  1  0.39897200  0.81867000  0.53616700  1
  Cr  Cr4  1  0.88307100  0.77427100  0.25352600  1
  Cr  Cr5  1  0.10102800  0.81867000  0.03616700  1
  Cr  Cr6  1  0.86886700  0.54169500  0.69108500  1
  Cr  Cr7  1  0.36886700  0.45830500  0.80891500  1
  Cr  Cr8  1  0.63113300  0.54169500  0.19108500  1
  Cr  Cr9  1  0.13113300  0.45830500  0.30891500  1
  Cr  Cr10  1  0.89897200  0.18133000  0.96383300  1
  Cr  Cr11  1  0.11692900  0.22572900  0.74647400  1
  Cr  Cr12  1  0.60102800  0.18133000  0.46383300  1
  Cr  Cr13  1  0.38307100  0.22572900  0.24647400  1
  Cr  Cr14  1  0.88939700  0.07218100  0.61098400  1
  Cr  Cr15  1  0.61060300  0.07218100  0.11098400  1
  P  P0  1  0.82435900  0.70652800  0.92409200  1
  P  P1  1  0.12489400  0.76117200  0.68423700  1
  P  P2  1  0.67564100  0.70652800  0.42409200  1
  P  P3  1  0.37510600  0.76117200  0.18423700  1
  P  P4  1  0.62489400  0.23882800  0.81576300  1
  P  P5  1  0.32435900  0.29347200  0.57590800  1
  P  P6  1  0.87510600  0.23882800  0.31576300  1
  P  P7  1  0.17564100  0.29347200  0.07590800  1
  O  O0  1  0.11177400  0.88925300  0.80064400  1
  O  O1  1  0.80047800  0.81926500  0.75654500  1
  O  O2  1  0.21291900  0.87193600  0.57166100  1
  O  O3  1  0.44543500  0.75463800  0.75678000  1
  O  O4  1  0.60317800  0.84864100  0.49215700  1
  O  O5  1  0.70963900  0.65061000  0.99104800  1
  O  O6  1  0.38822600  0.88925300  0.30064400  1
  O  O7  1  0.01703800  0.77778600  0.58891500  1
  O  O8  1  0.69952200  0.81926500  0.25654500  1
  O  O9  1  0.28708100  0.87193600  0.07166100  1
  O  O10  1  0.05456500  0.75463800  0.25678000  1
  O  O11  1  0.89682200  0.84864100  0.99215700  1
  O  O12  1  0.79036100  0.65061000  0.49104800  1
  O  O13  1  0.89264800  0.51005900  0.91194100  1
  O  O14  1  0.48296200  0.77778600  0.08891500  1
  O  O15  1  0.15432600  0.53161100  0.75805300  1
  O  O16  1  0.65432600  0.46838900  0.74194700  1
  O  O17  1  0.39264800  0.48994100  0.58805900  1
  O  O18  1  0.60735200  0.51005900  0.41194100  1
  O  O19  1  0.34567400  0.53161100  0.25805300  1
  O  O20  1  0.84567400  0.46838900  0.24194700  1
  O  O21  1  0.51703800  0.22221400  0.91108500  1
  O  O22  1  0.10735200  0.48994100  0.08805900  1
  O  O23  1  0.20963900  0.34939000  0.50895200  1
  O  O24  1  0.10317800  0.15135900  0.00784300  1
  O  O25  1  0.94543500  0.24536200  0.74322000  1
  O  O26  1  0.71291900  0.12806400  0.92833900  1
  O  O27  1  0.30047800  0.18073500  0.74345500  1
  O  O28  1  0.98296200  0.22221400  0.41108500  1
  O  O29  1  0.61177400  0.11074700  0.69935600  1
  O  O30  1  0.29036100  0.34939000  0.00895200  1
  O  O31  1  0.39682200  0.15135900  0.50784300  1
  O  O32  1  0.55456500  0.24536200  0.24322000  1
  O  O33  1  0.78708100  0.12806400  0.42833900  1
  O  O34  1  0.19952200  0.18073500  0.24345500  1
  O  O35  1  0.88822600  0.11074700  0.19935600  1
loop_
_geom_bond_atom_site_label_1
_geom_bond_atom_site_label_2
_geom_bond_distance
_geom_bond_site_symmetry_2
Cr0 O3 2.023925 1_555
Cr0 O9 2.097584 1_556
Cr0 O27 2.153522 1_565
Cr0 O14 2.223072 1_556
Cr0 O21 2.516489 1_565
Cr1 O10 2.023925 1_555
Cr1 O2 2.097584 1_555
Cr1 O34 2.153522 1_565
Cr1 O7 2.223072 1_555
Cr1 O28 2.516489 1_465
Cr2 O3 2.073561 1_555
Cr2 O16 2.080598 1_555
Cr2 O29 2.125430 1_565
Cr2 O1 2.235965 1_555
Cr2 O4 2.434239 1_555
Cr2 O5 2.479342 1_555
Cr3 O17 2.077268 1_555
Cr3 O31 2.120460 1_565
Cr3 O3 2.124679 1_555
Cr3 O6 2.190799 1_555
Cr3 O2 2.311170 1_555
Cr3 O4 2.499698 1_555
Cr4 O10 2.073561 1_655
Cr4 O20 2.080598 1_555
Cr4 O35 2.125430 1_565
Cr4 O8 2.235965 1_555
Cr4 O11 2.434239 1_554
Cr4 O12 2.479342 1_555
Cr5 O22 2.077268 1_555
Cr5 O24 2.120460 1_565
Cr5 O10 2.124679 1_555
Cr5 O0 2.190799 1_554
Cr5 O9 2.311170 1_555
Cr5 O11 2.499698 1_454
Cr6 O25 2.086353 1_555
Cr6 O12 2.093340 1_555
Cr6 O13 2.095767 1_555
Cr6 O1 2.227068 1_555
Cr6 O7 2.399085 1_655
Cr6 O16 2.655473 1_555
Cr7 O3 2.086353 1_555
Cr7 O30 2.093340 1_556
Cr7 O17 2.095767 1_555
Cr7 O27 2.227068 1_555
Cr7 O21 2.399085 1_555
Cr7 O15 2.655473 1_555
Cr8 O32 2.086353 1_555
Cr8 O5 2.093340 1_554
Cr8 O18 2.095767 1_555
Cr8 O8 2.227068 1_555
Cr8 O14 2.399085 1_555
Cr8 O20 2.655473 1_555
Cr9 O10 2.086353 1_555
Cr9 O23 2.093340 1_555
Cr9 O22 2.095767 1_555
Cr9 O34 2.227068 1_555
Cr9 O28 2.399085 1_455
Cr9 O19 2.655473 1_555
Cr10 O13 2.077268 1_555
Cr10 O11 2.120460 1_545
Cr10 O25 2.124679 1_555
Cr10 O35 2.190799 1_556
Cr10 O26 2.311170 1_555
Cr10 O24 2.499698 1_656
Cr11 O25 2.073561 1_455
Cr11 O15 2.080598 1_555
Cr11 O0 2.125430 1_545
Cr11 O27 2.235965 1_555
Cr11 O24 2.434239 1_556
Cr11 O23 2.479342 1_555
Cr12 O18 2.077268 1_555
Cr12 O4 2.120460 1_545
Cr12 O32 2.124679 1_555
Cr12 O29 2.190799 1_555
Cr12 O33 2.311170 1_555
Cr12 O31 2.499698 1_555
Cr13 O32 2.073561 1_555
Cr13 O19 2.080598 1_555
Cr13 O6 2.125430 1_545
Cr13 O34 2.235965 1_555
Cr13 O31 2.434239 1_555
Cr13 O30 2.479342 1_555
Cr14 O25 2.023925 1_555
Cr14 O33 2.097584 1_555
Cr14 O1 2.153522 1_545
Cr14 O28 2.223072 1_555
Cr14 O7 2.516489 1_645
Cr15 O32 2.023925 1_555
Cr15 O26 2.097584 1_554
Cr15 O8 2.153522 1_545
Cr15 O21 2.223072 1_554
Cr15 O14 2.516489 1_545
O0 P1 1.568558 1_555
O1 P0 1.611661 1_555
O2 P1 1.553855 1_555
O4 P2 1.539426 1_555
O5 P0 1.530320 1_555
O6 P3 1.568558 1_555
O7 P1 1.578635 1_555
O8 P2 1.611661 1_555
O9 P3 1.553855 1_555
O11 P0 1.539426 1_555
O12 P2 1.530320 1_555
O13 P0 1.555591 1_555
O14 P3 1.578635 1_555
O15 P1 1.525669 1_555
O16 P4 1.525669 1_555
O17 P5 1.555591 1_555
O18 P2 1.555591 1_555
O19 P3 1.525669 1_555
O20 P6 1.525669 1_555
O21 P4 1.578635 1_555
O22 P7 1.555591 1_555
O23 P5 1.530320 1_555
O24 P7 1.539426 1_555
O26 P4 1.553855 1_555
O27 P5 1.611661 1_555
O28 P6 1.578635 1_555
O29 P4 1.568558 1_555
O30 P7 1.530320 1_555
O31 P5 1.539426 1_555
O33 P6 1.553855 1_555
O34 P7 1.611661 1_555
O35 P6 1.568558 1_555
