# generated using pymatgen
data_Li3Mn2(SiO4)2
_symmetry_space_group_name_H-M   'P 1'
_cell_length_a   5.09422700
_cell_length_b   6.68952500
_cell_length_c   10.61038183
_cell_angle_alpha   89.17502836
_cell_angle_beta   90.00000000
_cell_angle_gamma   90.00000000
_symmetry_Int_Tables_number   1
_chemical_formula_structural   Li3Mn2(SiO4)2
_chemical_formula_sum   'Li6 Mn4 Si4 O16'
_cell_volume   361.54267566
_cell_formula_units_Z   2
loop_
 _symmetry_equiv_pos_site_id
 _symmetry_equiv_pos_as_xyz
  1  'x, y, z'
loop_
 _atom_site_type_symbol
 _atom_site_label
 _atom_site_symmetry_multiplicity
 _atom_site_fract_x
 _atom_site_fract_y
 _atom_site_fract_z
 _atom_site_occupancy
  Li  Li0  1  0.43249900  0.88446600  0.15669200  1
  Li  Li1  1  0.93136900  0.37971000  0.34162200  1
  Li  Li2  1  0.53677300  0.62928000  0.42127400  1
  Li  Li3  1  0.56750100  0.88446600  0.65669200  1
  Li  Li4  1  0.06863100  0.37971000  0.84162200  1
  Li  Li5  1  0.46322700  0.62928000  0.92127400  1
  Mn  Mn0  1  0.42732200  0.37048200  0.15978700  1
  Mn  Mn1  1  0.94412200  0.88883500  0.33856800  1
  Mn  Mn2  1  0.57267800  0.37048200  0.65978700  1
  Mn  Mn3  1  0.05587800  0.88883500  0.83856800  1
  Si  Si0  1  0.93698700  0.63223500  0.09069600  1
  Si  Si1  1  0.42945800  0.13477700  0.41195800  1
  Si  Si2  1  0.06301300  0.63223500  0.59069600  1
  Si  Si3  1  0.57054200  0.13477700  0.91195800  1
  O  O0  1  0.49919600  0.12821200  0.06056300  1
  O  O1  1  0.61225000  0.62964000  0.09142700  1
  O  O2  1  0.04991200  0.83045400  0.16411900  1
  O  O3  1  0.04403700  0.43405200  0.16625100  1
  O  O4  1  0.54204100  0.92708500  0.34486200  1
  O  O5  1  0.54557600  0.34268000  0.34509900  1
  O  O6  1  0.10875000  0.13714000  0.38905300  1
  O  O7  1  0.94983400  0.63464400  0.44280300  1
  O  O8  1  0.50080400  0.12821200  0.56056300  1
  O  O9  1  0.38775000  0.62964000  0.59142700  1
  O  O10  1  0.95008800  0.83045400  0.66411900  1
  O  O11  1  0.95596300  0.43405200  0.66625100  1
  O  O12  1  0.45795900  0.92708500  0.84486200  1
  O  O13  1  0.45442400  0.34268000  0.84509900  1
  O  O14  1  0.89125000  0.13714000  0.88905300  1
  O  O15  1  0.05016600  0.63464400  0.94280300  1
loop_
_geom_bond_atom_site_label_1
_geom_bond_atom_site_label_2
_geom_bond_distance
_geom_bond_site_symmetry_2
Li0 O0 1.940763 1_565
Li0 O2 1.983553 1_555
Li0 O1 2.063469 1_555
Li0 O4 2.096499 1_555
Li1 O6 1.918168 1_655
Li1 O3 1.975980 1_655
Li1 O5 1.981144 1_555
Li1 O7 2.030386 1_555
Li2 O9 1.958540 1_555
Li2 O5 2.091798 1_555
Li2 O7 2.116949 1_555
Li2 O4 2.140163 1_555
Li3 O8 1.940763 1_565
Li3 O10 1.983553 1_555
Li3 O9 2.063469 1_555
Li3 O12 2.096499 1_555
Li4 O14 1.918168 1_455
Li4 O11 1.975980 1_455
Li4 O13 1.981144 1_555
Li4 O15 2.030386 1_555
Li5 O1 1.958540 1_556
Li5 O13 2.091798 1_555
Li5 O15 2.116949 1_555
Li5 O12 2.140163 1_555
Mn0 O0 1.979436 1_555
Mn0 O3 1.999700 1_555
Mn0 O5 2.062286 1_555
Mn0 O1 2.093537 1_555
Mn1 O6 1.942925 1_665
Mn1 O2 1.972274 1_655
Mn1 O7 2.015264 1_555
Mn1 O4 2.065411 1_555
Mn2 O8 1.979436 1_555
Mn2 O11 1.999700 1_555
Mn2 O13 2.062286 1_555
Mn2 O9 2.093537 1_555
Mn3 O14 1.942925 1_465
Mn3 O10 1.972274 1_455
Mn3 O15 2.015264 1_555
Mn3 O12 2.065411 1_555
O0 Si3 1.618083 1_554
O1 Si0 1.654392 1_555
O2 Si0 1.651012 1_455
O3 Si0 1.633117 1_455
O4 Si1 1.671693 1_565
O5 Si1 1.661022 1_555
O6 Si1 1.651779 1_555
O7 Si2 1.671629 1_655
O8 Si1 1.618083 1_555
O9 Si2 1.654392 1_555
O10 Si2 1.651012 1_655
O11 Si2 1.633117 1_655
O12 Si3 1.671693 1_565
O13 Si3 1.661022 1_555
O14 Si3 1.651779 1_555
O15 Si0 1.671629 1_456
