# generated using pymatgen
data_Ca(GaO2)2
_symmetry_space_group_name_H-M   'P 1'
_cell_length_a   8.93786900
_cell_length_b   8.07387100
_cell_length_c   10.72860865
_cell_angle_alpha   85.13213138
_cell_angle_beta   90.00000000
_cell_angle_gamma   90.00000000
_symmetry_Int_Tables_number   1
_chemical_formula_structural   Ca(GaO2)2
_chemical_formula_sum   'Ca8 Ga16 O32'
_cell_volume   771.41819960
_cell_formula_units_Z   8
loop_
 _symmetry_equiv_pos_site_id
 _symmetry_equiv_pos_as_xyz
  1  'x, y, z'
loop_
 _atom_site_type_symbol
 _atom_site_label
 _atom_site_symmetry_multiplicity
 _atom_site_fract_x
 _atom_site_fract_y
 _atom_site_fract_z
 _atom_site_occupancy
  Ca  Ca0  1  0.71473800  0.00063400  0.87182700  1
  Ca  Ca1  1  0.21473800  0.99936600  0.62817300  1
  Ca  Ca2  1  0.28526200  0.99936600  0.12817300  1
  Ca  Ca3  1  0.78526200  0.00063400  0.37182700  1
  Ca  Ca4  1  0.73897800  0.46259200  0.85552000  1
  Ca  Ca5  1  0.23897800  0.53740800  0.64448000  1
  Ca  Ca6  1  0.26102200  0.53740800  0.14448000  1
  Ca  Ca7  1  0.76102200  0.46259200  0.35552000  1
  Ga  Ga0  1  0.05816000  0.76513300  0.86984800  1
  Ga  Ga1  1  0.55816000  0.23486700  0.63015200  1
  Ga  Ga2  1  0.94184000  0.23486700  0.13015200  1
  Ga  Ga3  1  0.44184000  0.76513300  0.36984800  1
  Ga  Ga4  1  0.05592400  0.17535600  0.86182500  1
  Ga  Ga5  1  0.55592400  0.82464400  0.63817500  1
  Ga  Ga6  1  0.94407600  0.82464400  0.13817500  1
  Ga  Ga7  1  0.44407600  0.17535600  0.36182500  1
  Ga  Ga8  1  0.90449900  0.30061100  0.61019700  1
  Ga  Ga9  1  0.40449900  0.69938900  0.88980300  1
  Ga  Ga10  1  0.09550100  0.69938900  0.38980300  1
  Ga  Ga11  1  0.59550100  0.30061100  0.11019700  1
  Ga  Ga12  1  0.89170400  0.70906900  0.61683700  1
  Ga  Ga13  1  0.39170400  0.29093100  0.88316300  1
  Ga  Ga14  1  0.10829600  0.29093100  0.38316300  1
  Ga  Ga15  1  0.60829600  0.70906900  0.11683700  1
  O  O0  1  0.97080500  0.97226400  0.82864200  1
  O  O1  1  0.47080500  0.02773600  0.67135800  1
  O  O2  1  0.02919500  0.02773600  0.17135800  1
  O  O3  1  0.52919500  0.97226400  0.32864200  1
  O  O4  1  0.74402100  0.23272000  0.71466300  1
  O  O5  1  0.24402100  0.76728000  0.78533700  1
  O  O6  1  0.25597900  0.76728000  0.28533700  1
  O  O7  1  0.75597900  0.23272000  0.21466300  1
  O  O8  1  0.08627200  0.27409800  0.69732100  1
  O  O9  1  0.58627200  0.72590200  0.80267900  1
  O  O10  1  0.91372800  0.72590200  0.30267900  1
  O  O11  1  0.41372800  0.27409800  0.19732100  1
  O  O12  1  0.07159500  0.79106000  0.54376800  1
  O  O13  1  0.57159500  0.20894000  0.95623200  1
  O  O14  1  0.92840500  0.20894000  0.45623200  1
  O  O15  1  0.42840500  0.79106000  0.04376800  1
  O  O16  1  0.83679800  0.51219700  0.55227200  1
  O  O17  1  0.33679800  0.48780300  0.94772800  1
  O  O18  1  0.16320200  0.48780300  0.44772800  1
  O  O19  1  0.66320200  0.51219700  0.05227200  1
  O  O20  1  0.74404500  0.86217100  0.56924900  1
  O  O21  1  0.24404500  0.13782900  0.93075100  1
  O  O22  1  0.25595500  0.13782900  0.43075100  1
  O  O23  1  0.75595500  0.86217100  0.06924900  1
  O  O24  1  0.56584400  0.63061300  0.28223800  1
  O  O25  1  0.06584400  0.36938700  0.21776200  1
  O  O26  1  0.43415600  0.36938700  0.71776200  1
  O  O27  1  0.93415600  0.63061300  0.78223800  1
  O  O28  1  0.58257500  0.27778600  0.45900800  1
  O  O29  1  0.08257500  0.72221400  0.04099200  1
  O  O30  1  0.41742500  0.72221400  0.54099200  1
  O  O31  1  0.91742500  0.27778600  0.95900800  1
loop_
_geom_bond_atom_site_label_1
_geom_bond_atom_site_label_2
_geom_bond_distance
_geom_bond_site_symmetry_2
Ca0 O23 2.338764 1_546
Ca0 O0 2.350161 1_545
Ca0 O13 2.354551 1_555
Ca0 O4 2.426237 1_555
Ca0 O9 2.658613 1_545
Ca1 O22 2.338764 1_565
Ca1 O1 2.350161 1_565
Ca1 O12 2.354551 1_555
Ca1 O5 2.426237 1_555
Ca1 O8 2.658613 1_565
Ca2 O21 2.338764 1_564
Ca2 O2 2.350161 1_565
Ca2 O15 2.354551 1_555
Ca2 O6 2.426237 1_555
Ca2 O11 2.658613 1_565
Ca3 O20 2.338764 1_545
Ca3 O3 2.350161 1_545
Ca3 O14 2.354551 1_555
Ca3 O7 2.426237 1_555
Ca3 O10 2.658613 1_545
Ca4 O19 2.284378 1_556
Ca4 O27 2.306648 1_555
Ca4 O31 2.392018 1_555
Ca4 O4 2.491252 1_555
Ca4 O9 2.549370 1_555
Ca4 O13 2.687787 1_555
Ca5 O18 2.284378 1_555
Ca5 O26 2.306648 1_555
Ca5 O30 2.392018 1_555
Ca5 O5 2.491252 1_555
Ca5 O8 2.549370 1_555
Ca5 O12 2.687787 1_555
Ca6 O17 2.284378 1_554
Ca6 O25 2.306648 1_555
Ca6 O29 2.392018 1_555
Ca6 O6 2.491252 1_555
Ca6 O11 2.549370 1_555
Ca6 O15 2.687787 1_555
Ca7 O16 2.284378 1_555
Ca7 O24 2.306648 1_555
Ca7 O28 2.392018 1_555
Ca7 O7 2.491252 1_555
Ca7 O10 2.549370 1_555
Ca7 O14 2.687787 1_555
Ga0 O29 1.852326 1_556
Ga0 O27 1.861380 1_455
Ga0 O0 1.864487 1_455
Ga0 O5 1.891904 1_555
Ga1 O28 1.852326 1_555
Ga1 O26 1.861380 1_555
Ga1 O1 1.864487 1_555
Ga1 O4 1.891904 1_555
Ga2 O31 1.852326 1_554
Ga2 O25 1.861380 1_655
Ga2 O2 1.864487 1_655
Ga2 O7 1.891904 1_555
Ga3 O30 1.852326 1_555
Ga3 O24 1.861380 1_555
Ga3 O3 1.864487 1_555
Ga3 O6 1.891904 1_555
Ga4 O21 1.851409 1_555
Ga4 O31 1.857347 1_455
Ga4 O0 1.869050 1_445
Ga4 O8 1.893469 1_555
Ga5 O20 1.851409 1_555
Ga5 O30 1.857347 1_555
Ga5 O1 1.869050 1_565
Ga5 O9 1.893469 1_555
Ga6 O23 1.851409 1_555
Ga6 O29 1.857347 1_655
Ga6 O2 1.869050 1_665
Ga6 O10 1.893469 1_555
Ga7 O22 1.851409 1_555
Ga7 O28 1.857347 1_555
Ga7 O3 1.869050 1_545
Ga7 O11 1.893469 1_555
Ga8 O16 1.868295 1_555
Ga8 O4 1.873403 1_555
Ga8 O8 1.877524 1_655
Ga8 O14 1.878696 1_555
Ga9 O17 1.868295 1_555
Ga9 O5 1.873403 1_555
Ga9 O9 1.877524 1_555
Ga9 O15 1.878696 1_556
Ga10 O18 1.868295 1_555
Ga10 O6 1.873403 1_555
Ga10 O10 1.877524 1_455
Ga10 O12 1.878696 1_555
Ga11 O19 1.868295 1_555
Ga11 O7 1.873403 1_555
Ga11 O11 1.877524 1_555
Ga11 O13 1.878696 1_554
Ga12 O20 1.850222 1_555
Ga12 O16 1.853129 1_555
Ga12 O27 1.871731 1_555
Ga12 O12 1.884105 1_655
Ga13 O21 1.850222 1_555
Ga13 O17 1.853129 1_555
Ga13 O26 1.871731 1_555
Ga13 O13 1.884105 1_555
Ga14 O22 1.850222 1_555
Ga14 O18 1.853129 1_555
Ga14 O25 1.871731 1_555
Ga14 O14 1.884105 1_455
Ga15 O23 1.850222 1_555
Ga15 O19 1.853129 1_555
Ga15 O24 1.871731 1_555
Ga15 O15 1.884105 1_555
