# generated using pymatgen
data_Ca9LaTi6Mn4O30
_symmetry_space_group_name_H-M   'P 1'
_cell_length_a   5.41380125
_cell_length_b   5.46916819
_cell_length_c   38.42007073
_cell_angle_alpha   89.94115510
_cell_angle_beta   90.05487439
_cell_angle_gamma   89.91859979
_symmetry_Int_Tables_number   1
_chemical_formula_structural   Ca9LaTi6Mn4O30
_chemical_formula_sum   'Ca18 La2 Ti12 Mn8 O60'
_cell_volume   1137.57720381
_cell_formula_units_Z   2
loop_
 _symmetry_equiv_pos_site_id
 _symmetry_equiv_pos_as_xyz
  1  'x, y, z'
loop_
 _atom_site_type_symbol
 _atom_site_label
 _atom_site_symmetry_multiplicity
 _atom_site_fract_x
 _atom_site_fract_y
 _atom_site_fract_z
 _atom_site_occupancy
  Ca  Ca0  1  0.01210411  0.96377686  0.15063473  1
  Ca  Ca1  1  0.01202287  0.96391667  0.35035566  1
  Ca  Ca2  1  0.01132208  0.96484702  0.55006307  1
  Ca  Ca3  1  0.01258478  0.96746776  0.75158750  1
  Ca  Ca4  1  0.48961473  0.46063367  0.35048623  1
  Ca  Ca5  1  0.48974707  0.46086842  0.15065441  1
  Ca  Ca6  1  0.49111908  0.46019345  0.54926207  1
  Ca  Ca7  1  0.49292021  0.45895604  0.75277710  1
  Ca  Ca8  1  0.49101525  0.46293202  0.94802684  1
  Ca  Ca9  1  0.50901769  0.53710131  0.04918536  1
  Ca  Ca10  1  0.51020840  0.53909595  0.24926043  1
  Ca  Ca11  1  0.51011551  0.53912761  0.44889604  1
  Ca  Ca12  1  0.51036406  0.53812239  0.85112700  1
  Ca  Ca13  1  0.98885209  0.03545216  0.05010324  1
  Ca  Ca14  1  0.98771824  0.03614002  0.24944329  1
  Ca  Ca15  1  0.98765863  0.03271782  0.65078201  1
  Ca  Ca16  1  0.98774427  0.03605073  0.44918878  1
  Ca  Ca17  1  0.98775793  0.03628266  0.84984513  1
  La  La0  1  0.00571813  0.97432979  0.94800694  1
  La  La1  1  0.50350567  0.52946722  0.65084994  1
  Ti  Ti0  1  0.99820369  0.49961136  0.10043356  1
  Ti  Ti1  1  -0.00010405  0.50008604  0.29983608  1
  Ti  Ti2  1  0.00235874  0.49996866  0.49911877  1
  Ti  Ti3  1  0.00207572  0.49864143  0.70276853  1
  Ti  Ti4  1  0.49873977  0.99873015  0.09970959  1
  Ti  Ti5  1  0.49982634  0.99996962  0.29996055  1
  Ti  Ti6  1  0.50242453  0.00006663  0.50012534  1
  Ti  Ti7  1  0.00036958  0.49897582  0.00053096  1
  Ti  Ti8  1  0.00066433  0.50003112  0.20015091  1
  Ti  Ti9  1  0.99905922  0.49980436  0.39951636  1
  Ti  Ti10  1  -0.00003107  0.49823895  0.59869439  1
  Ti  Ti11  1  0.00074367  0.50273250  0.80172793  1
  Mn  Mn0  1  0.00068080  0.49950477  0.89907252  1
  Mn  Mn1  1  0.49942017  0.99936652  0.00003821  1
  Mn  Mn2  1  0.50035315  0.00013905  0.19992630  1
  Mn  Mn3  1  0.49943691  0.99982605  0.40004860  1
  Mn  Mn4  1  0.50279141  0.99981587  0.70154020  1
  Mn  Mn5  1  0.49991092  0.99961625  0.89843410  1
  Mn  Mn6  1  0.50006723  0.99953329  0.59968681  1
  Mn  Mn7  1  0.50024815  0.00039671  0.80036532  1
  O  O0  1  0.07773115  0.48327609  0.04944001  1
  O  O1  1  0.07839668  0.48270265  0.24979691  1
  O  O2  1  0.07839952  0.48254035  0.44991259  1
  O  O3  1  0.06189032  0.48749772  0.65000472  1
  O  O4  1  0.07636676  0.48493642  0.85023305  1
  O  O5  1  0.21430491  0.21519554  0.10820574  1
  O  O6  1  0.21537419  0.21608810  0.30844126  1
  O  O7  1  0.22146743  0.21812354  0.19130915  1
  O  O8  1  0.21293670  0.21742496  0.50871449  1
  O  O9  1  0.22472930  0.22191022  0.70831323  1
  O  O10  1  0.22052964  0.21770013  0.39139356  1
  O  O11  1  0.22474720  0.22232488  0.59175424  1
  O  O12  1  0.22358509  0.22387826  0.90729180  1
  O  O13  1  0.21853575  0.21910740  0.79199257  1
  O  O14  1  0.22556796  0.21988478  0.99202472  1
  O  O15  1  0.28338285  0.72133185  0.19149286  1
  O  O16  1  0.28421240  0.71606864  0.30837538  1
  O  O17  1  0.28332769  0.72059873  0.39157294  1
  O  O18  1  0.28416589  0.71462066  0.10826724  1
  O  O19  1  0.28549809  0.71917258  0.59212982  1
  O  O20  1  0.28157029  0.71730761  0.50849300  1
  O  O21  1  0.28617172  0.71810237  0.70804886  1
  O  O22  1  0.28068402  0.72102452  0.79195750  1
  O  O23  1  0.27923756  0.71975024  0.90827805  1
  O  O24  1  0.28172715  0.72206760  0.99123963  1
  O  O25  1  0.41913217  0.98020806  0.05006908  1
  O  O26  1  0.41891177  0.98215284  0.24947664  1
  O  O27  1  0.41993764  0.99099319  0.64929176  1
  O  O28  1  0.41741392  0.97923063  0.84956979  1
  O  O29  1  0.41831796  0.98276035  0.44931378  1
  O  O30  1  0.58123082  0.01798581  0.35040530  1
  O  O31  1  0.58071633  0.01759272  0.15050993  1
  O  O32  1  0.58225069  0.01784020  0.54925894  1
  O  O33  1  0.58346509  0.01875788  0.75110841  1
  O  O34  1  0.56677569  0.01578658  0.95055458  1
  O  O35  1  0.72229195  0.27457828  0.00776314  1
  O  O36  1  0.71559068  0.28376019  0.09128243  1
  O  O37  1  0.71675166  0.27880625  0.20832258  1
  O  O38  1  0.71564143  0.28411357  0.29153481  1
  O  O39  1  0.72106376  0.27603544  0.60777511  1
  O  O40  1  0.71693177  0.27873155  0.40842037  1
  O  O41  1  0.71316352  0.28695857  0.49164240  1
  O  O42  1  0.72414137  0.27788350  0.89191051  1
  O  O43  1  0.72275290  0.27576259  0.69273418  1
  O  O44  1  0.71463639  0.28173923  0.80825033  1
  O  O45  1  0.78037792  0.78192694  0.00760980  1
  O  O46  1  0.77906571  0.78233959  0.20848085  1
  O  O47  1  0.78461698  0.78308156  0.09133335  1
  O  O48  1  0.77882985  0.78173652  0.40863108  1
  O  O49  1  0.77699561  0.78121001  0.60891863  1
  O  O50  1  0.77778085  0.77979643  0.69167876  1
  O  O51  1  0.77932232  0.78227485  0.80839226  1
  O  O52  1  0.78462082  0.78405515  0.29146043  1
  O  O53  1  0.78343534  0.78477323  0.49139262  1
  O  O54  1  0.78609401  0.78239252  0.89192589  1
  O  O55  1  0.92162641  0.51706224  0.14998591  1
  O  O56  1  0.92119137  0.51745510  0.35013082  1
  O  O57  1  0.92031473  0.52018682  0.55029236  1
  O  O58  1  0.92431290  0.51811741  0.75025211  1
  O  O59  1  0.92740744  0.50674363  0.94941694  1
loop_
_geom_bond_atom_site_label_1
_geom_bond_atom_site_label_2
_geom_bond_distance
_geom_bond_site_symmetry_2
Ca0 O31 2.353506 1_465
Ca0 O7 2.380630 1_565
Ca0 O5 2.397807 1_565
Ca0 O55 2.492604 1_455
Ca0 O15 2.522914 1_555
Ca0 O18 2.584443 1_555
Ca0 O46 2.742274 1_455
Ca0 O47 2.772554 1_455
Ca1 O30 2.350481 1_465
Ca1 O10 2.385828 1_565
Ca1 O6 2.389661 1_565
Ca1 O56 2.491504 1_455
Ca1 O17 2.534086 1_555
Ca1 O16 2.571701 1_555
Ca1 O48 2.757508 1_455
Ca1 O52 2.757905 1_455
Ca2 O32 2.340680 1_465
Ca2 O8 2.372006 1_565
Ca2 O11 2.426818 1_565
Ca2 O57 2.482023 1_455
Ca2 O20 2.554905 1_555
Ca2 O19 2.570215 1_555
Ca2 O53 2.752415 1_455
Ca2 O49 2.781308 1_455
Ca3 O33 2.339700 1_465
Ca3 O13 2.356382 1_565
Ca3 O9 2.454237 1_565
Ca3 O58 2.504839 1_455
Ca3 O22 2.512933 1_555
Ca3 O21 2.618322 1_555
Ca3 O51 2.718097 1_455
Ca3 O50 2.823151 1_455
Ca4 O56 2.357535 1_555
Ca4 O17 2.400841 1_555
Ca4 O16 2.406932 1_555
Ca4 O30 2.470517 1_555
Ca4 O10 2.522539 1_555
Ca4 O6 2.570602 1_555
Ca4 O40 2.728606 1_555
Ca4 O38 2.750578 1_555
Ca5 O55 2.358815 1_555
Ca5 O15 2.396385 1_555
Ca5 O18 2.409214 1_555
Ca5 O31 2.473194 1_555
Ca5 O7 2.513431 1_555
Ca5 O5 2.587332 1_555
Ca5 O37 2.719842 1_555
Ca5 O36 2.764598 1_555
Ca6 O57 2.347396 1_555
Ca6 O20 2.388594 1_555
Ca6 O19 2.441671 1_555
Ca6 O32 2.468411 1_555
Ca6 O11 2.538260 1_555
Ca6 O8 2.542304 1_555
Ca6 O41 2.692505 1_555
Ca6 O39 2.757610 1_555
Ca7 O58 2.360310 1_555
Ca7 O22 2.375623 1_555
Ca7 O33 2.457146 1_555
Ca7 O21 2.490285 1_555
Ca7 O13 2.490610 1_555
Ca7 O9 2.590816 1_555
Ca7 O44 2.628710 1_555
Ca7 O43 2.807190 1_555
Ca8 O23 2.367957 1_555
Ca8 O59 2.375554 1_555
Ca8 O24 2.460217 1_555
Ca8 O34 2.480883 1_555
Ca8 O12 2.502024 1_555
Ca8 O14 2.587483 1_555
Ca8 O42 2.696578 1_555
Ca8 O35 2.807532 1_556
Ca9 O0 2.353827 1_555
Ca9 O36 2.402896 1_555
Ca9 O35 2.435329 1_555
Ca9 O25 2.471395 1_555
Ca9 O45 2.551137 1_555
Ca9 O47 2.581436 1_555
Ca9 O24 2.735034 1_554
Ca9 O18 2.753813 1_555
Ca10 O1 2.358542 1_555
Ca10 O37 2.398778 1_555
Ca10 O38 2.409799 1_555
Ca10 O26 2.472383 1_555
Ca10 O46 2.519665 1_555
Ca10 O52 2.576065 1_555
Ca10 O15 2.722861 1_555
Ca10 O16 2.756554 1_555
Ca11 O2 2.358417 1_555
Ca11 O40 2.388193 1_555
Ca11 O41 2.407329 1_555
Ca11 O29 2.476056 1_555
Ca11 O48 2.505127 1_555
Ca11 O53 2.581811 1_555
Ca11 O17 2.707351 1_555
Ca11 O20 2.780279 1_555
Ca12 O4 2.368144 1_555
Ca12 O42 2.409910 1_555
Ca12 O44 2.430364 1_555
Ca12 O28 2.464373 1_555
Ca12 O54 2.544720 1_555
Ca12 O51 2.569939 1_555
Ca12 O23 2.716607 1_555
Ca12 O22 2.775077 1_555
Ca13 O25 2.348540 1_645
Ca13 O47 2.374893 1_545
Ca13 O45 2.422263 1_545
Ca13 O0 2.496822 1_655
Ca13 O35 2.534738 1_555
Ca13 O36 2.557165 1_555
Ca13 O5 2.728005 1_655
Ca13 O14 2.764665 1_654
Ca14 O26 2.352578 1_645
Ca14 O46 2.384341 1_545
Ca14 O52 2.391415 1_545
Ca14 O1 2.491907 1_655
Ca14 O37 2.528846 1_555
Ca14 O38 2.574401 1_555
Ca14 O7 2.754100 1_655
Ca14 O6 2.761926 1_655
Ca15 O27 2.351807 1_645
Ca15 O50 2.382590 1_545
Ca15 O49 2.405252 1_545
Ca15 O3 2.520240 1_655
Ca15 O43 2.534762 1_555
Ca15 O39 2.563127 1_555
Ca15 O9 2.758008 1_655
Ca15 O11 2.805447 1_655
Ca16 O29 2.348779 1_645
Ca16 O48 2.376426 1_545
Ca16 O53 2.396754 1_545
Ca16 O2 2.491621 1_655
Ca16 O40 2.519985 1_555
Ca16 O41 2.599363 1_555
Ca16 O10 2.740477 1_655
Ca16 O8 2.775492 1_655
Ca17 O28 2.346503 1_645
Ca17 O54 2.395208 1_545
Ca17 O51 2.396928 1_545
Ca17 O4 2.500940 1_655
Ca17 O42 2.529465 1_555
Ca17 O44 2.554948 1_555
Ca17 O13 2.739609 1_655
Ca17 O12 2.748994 1_655
La0 O12 2.388435 1_565
La0 O34 2.388928 1_465
La0 O14 2.466906 1_565
La0 O23 2.542441 1_555
La0 O59 2.593325 1_455
La0 O24 2.622955 1_555
La0 O54 2.676083 1_455
La0 O45 2.800620 1_456
La0 O59 2.942528 1_465
La0 O34 3.047712 1_565
La0 O42 3.115155 1_465
La0 O35 3.213899 1_466
La1 O3 2.402328 1_555
La1 O43 2.431207 1_555
La1 O39 2.459887 1_555
La1 O50 2.558444 1_555
La1 O27 2.564383 1_555
La1 O49 2.586314 1_555
La1 O21 2.698944 1_555
La1 O19 2.746952 1_555
La1 O27 2.980842 1_545
La1 O3 3.031568 1_655
La1 O9 3.160269 1_555
La1 O11 3.203553 1_555
Mn0 O4 1.922724 1_555
Mn0 O42 1.947129 1_455
Mn0 O54 1.952466 1_455
Mn0 O12 1.954869 1_555
Mn0 O23 1.963488 1_555
Mn0 O59 1.975292 1_455
Mn1 O14 1.934084 1_564
Mn1 O34 1.938177 1_564
Mn1 O45 1.950832 1_555
Mn1 O24 1.951582 1_554
Mn1 O35 1.953173 1_565
Mn1 O25 1.973839 1_555
Mn2 O46 1.948547 1_545
Mn2 O7 1.950293 1_555
Mn2 O31 1.950470 1_555
Mn2 O37 1.950573 1_555
Mn2 O15 1.953272 1_545
Mn2 O26 1.956937 1_545
Mn3 O29 1.945637 1_555
Mn3 O10 1.950261 1_565
Mn3 O17 1.952537 1_555
Mn3 O48 1.952544 1_555
Mn3 O40 1.955012 1_565
Mn3 O30 1.960891 1_565
Mn4 O50 1.950590 1_555
Mn4 O9 1.950767 1_565
Mn4 O43 1.953215 1_565
Mn4 O21 1.953617 1_555
Mn4 O33 1.956328 1_565
Mn4 O27 2.057103 1_555
Mn5 O28 1.932715 1_555
Mn5 O12 1.963348 1_565
Mn5 O42 1.964094 1_565
Mn5 O54 1.967363 1_555
Mn5 O23 1.979398 1_555
Mn5 O34 2.036620 1_565
Mn6 O19 1.946832 1_555
Mn6 O49 1.947378 1_555
Mn6 O11 1.947426 1_565
Mn6 O39 1.954551 1_565
Mn6 O27 1.955505 1_555
Mn6 O32 1.990740 1_565
Mn7 O28 1.946687 1_545
Mn7 O51 1.947853 1_545
Mn7 O33 1.948283 1_555
Mn7 O44 1.952404 1_555
Mn7 O13 1.963011 1_555
Mn7 O22 1.964006 1_545
O0 Ti7 1.926608 1_555
O0 Ti0 2.008379 1_455
O1 Ti8 1.955055 1_555
O1 Ti1 1.971679 1_555
O2 Ti2 1.937606 1_555
O2 Ti9 1.985020 1_455
O3 Ti10 2.000119 1_555
O3 Ti3 2.054149 1_555
O4 Ti11 1.909983 1_555
O5 Ti0 1.967420 1_455
O5 Ti4 1.968737 1_545
O6 Ti5 1.967572 1_545
O6 Ti1 1.968692 1_555
O7 Ti8 1.979420 1_555
O8 Ti2 1.953583 1_555
O8 Ti6 1.993685 1_555
O9 Ti3 1.944913 1_555
O10 Ti9 1.977853 1_455
O11 Ti10 1.955845 1_555
O13 Ti11 1.983224 1_555
O14 Ti7 1.979795 1_556
O15 Ti8 1.980819 1_555
O16 Ti1 1.969063 1_555
O16 Ti5 1.970486 1_555
O17 Ti9 1.981213 1_455
O18 Ti0 1.968535 1_455
O18 Ti4 1.968957 1_555
O19 Ti10 1.979539 1_555
O20 Ti2 1.957677 1_555
O20 Ti6 1.982285 1_565
O21 Ti3 1.962782 1_555
O22 Ti11 1.966831 1_555
O24 Ti7 1.985383 1_556
O25 Ti4 1.957634 1_555
O26 Ti5 1.990553 1_555
O29 Ti6 2.006517 1_565
O30 Ti5 1.989726 1_545
O31 Ti4 2.003953 1_545
O32 Ti6 1.938716 1_555
O35 Ti7 1.963452 1_655
O36 Ti0 1.965488 1_555
O36 Ti4 1.979410 1_545
O37 Ti8 1.982525 1_655
O38 Ti1 1.967265 1_655
O38 Ti5 1.972249 1_545
O39 Ti10 1.970751 1_655
O40 Ti9 1.979193 1_555
O41 Ti6 1.968393 1_555
O41 Ti2 1.973819 1_655
O43 Ti3 1.981495 1_655
O44 Ti11 1.981981 1_655
O45 Ti7 1.970648 1_655
O46 Ti8 1.980425 1_655
O47 Ti0 1.963645 1_555
O47 Ti4 1.971411 1_555
O48 Ti9 1.979496 1_555
O49 Ti10 2.000860 1_655
O50 Ti3 2.003212 1_655
O51 Ti11 1.958603 1_655
O52 Ti1 1.966467 1_655
O52 Ti5 1.968478 1_555
O53 Ti6 1.951969 1_565
O53 Ti2 1.977932 1_655
O55 Ti0 1.951211 1_555
O55 Ti8 1.975945 1_655
O56 Ti9 1.945539 1_555
O56 Ti1 1.981491 1_655
O57 Ti10 1.912165 1_655
O57 Ti2 2.019162 1_655
O58 Ti3 1.875760 1_655
O58 Ti11 2.021782 1_655
O59 Ti7 2.003161 1_656
