# generated using pymatgen
data_Li5V6O5F19
_symmetry_space_group_name_H-M   'P 1'
_cell_length_a   5.21695400
_cell_length_b   5.40783046
_cell_length_c   16.13730996
_cell_angle_alpha   80.90703700
_cell_angle_beta   89.71063881
_cell_angle_gamma   89.40513495
_symmetry_Int_Tables_number   1
_chemical_formula_structural   Li5V6O5F19
_chemical_formula_sum   'Li5 V6 O5 F19'
_cell_volume   449.52407401
_cell_formula_units_Z   1
loop_
 _symmetry_equiv_pos_site_id
 _symmetry_equiv_pos_as_xyz
  1  'x, y, z'
loop_
 _atom_site_type_symbol
 _atom_site_label
 _atom_site_symmetry_multiplicity
 _atom_site_fract_x
 _atom_site_fract_y
 _atom_site_fract_z
 _atom_site_occupancy
  Li  Li0  1  0.96514200  0.04384000  0.77294600  1
  Li  Li1  1  0.17264400  0.69612100  0.15213000  1
  Li  Li2  1  0.54247100  0.50563400  0.78666700  1
  Li  Li3  1  0.02253700  0.62897400  0.90049900  1
  Li  Li4  1  0.26262500  0.99216300  0.48348200  1
  V  V0  1  0.47659200  0.13293800  0.66624900  1
  V  V1  1  0.02462700  0.30277800  0.33422000  1
  V  V2  1  0.96921600  0.04416700  0.99614800  1
  V  V3  1  0.47141800  0.51775300  0.00661500  1
  V  V4  1  0.02296000  0.63494300  0.66494100  1
  V  V5  1  0.50708500  0.83011400  0.33051200  1
  O  O0  1  0.21733900  0.03702700  0.35243100  1
  O  O1  1  0.19722700  0.36269600  0.69457800  1
  O  O2  1  0.21082100  0.70200400  0.01863200  1
  O  O3  1  0.80213400  0.31601700  0.96868500  1
  O  O4  1  0.29890200  0.86609500  0.69463100  1
  F  F0  1  0.29201400  0.19496100  0.02648500  1
  F  F1  1  0.71240400  0.12778000  0.30771600  1
  F  F2  1  0.08180900  0.00893500  0.88154400  1
  F  F3  1  0.41725400  0.20297000  0.55218400  1
  F  F4  1  0.59581300  0.46386900  0.11318300  1
  F  F5  1  0.92605100  0.28159200  0.44547800  1
  F  F6  1  0.08546500  0.39879000  0.21853400  1
  F  F7  1  0.61691200  0.15996800  0.77618100  1
  F  F8  1  0.30292100  0.53117200  0.35631700  1
  F  F9  1  0.69244100  0.47844100  0.64742900  1
  F  F10  1  0.80273900  0.62659900  0.31477700  1
  F  F11  1  0.37451400  0.53021900  0.88473600  1
  F  F12  1  0.91624400  0.94163500  0.11025700  1
  F  F13  1  0.41292100  0.85508100  0.22156100  1
  F  F14  1  0.88871600  0.65070400  0.78073300  1
  F  F15  1  0.08879000  0.72658700  0.55235900  1
  F  F16  1  0.56745300  0.80522900  0.44211600  1
  F  F17  1  0.71351000  0.79880600  0.96897100  1
  F  F18  1  0.81295500  0.97311600  0.65043400  1
loop_
_geom_bond_atom_site_label_1
_geom_bond_atom_site_label_2
_geom_bond_distance
_geom_bond_site_symmetry_2
Li0 O1 2.318886 1_655
Li0 O4 2.424851 1_645
Li1 O2 2.157734 1_555
Li2 O1 2.543416 1_555
Li2 O4 2.583191 1_555
Li3 O3 2.199128 1_455
Li3 O2 2.240519 1_556
Li4 O0 2.104468 1_565
O0 V1 1.732624 1_555
O0 V5 1.935626 1_545
O1 V4 1.725365 1_555
O1 V0 2.003021 1_555
O2 V3 1.705579 1_555
O2 V2 2.210923 1_464
O3 V2 1.699650 1_555
O3 V3 2.168619 1_556
O4 V0 1.722225 1_565
O4 V4 2.024387 1_555
F0 V3 1.969751 1_555
F0 V2 1.975756 1_454
F1 V5 1.928352 1_545
F1 V1 1.974504 1_655
F2 Li0 1.838776 1_455
F2 V2 1.974763 1_455
F2 Li3 2.055436 1_545
F3 V0 1.846734 1_555
F3 Li4 1.899242 1_545
F4 V3 1.820016 1_555
F5 V1 1.851474 1_655
F5 Li4 2.357855 1_645
F6 Li1 1.845588 1_555
F6 V1 1.883230 1_555
F7 Li0 1.919172 1_555
F7 Li2 1.938553 1_555
F7 V0 1.949783 1_555
F8 V5 1.933870 1_555
F8 V1 1.985496 1_555
F9 V4 1.969818 1_655
F9 V0 2.170750 1_555
F9 Li2 2.401401 1_555
F10 V5 1.924553 1_555
F10 V1 2.071941 1_655
F11 Li2 1.827580 1_555
F11 Li3 1.933799 1_555
F11 V3 2.023820 1_556
F12 V2 1.857401 1_564
F12 Li1 1.922839 1_655
F13 V5 1.811920 1_555
F13 Li1 1.976514 1_555
F14 Li2 1.972675 1_555
F14 V4 2.006287 1_655
F14 Li3 2.043692 1_655
F14 Li0 2.151127 1_565
F15 V4 1.837624 1_555
F15 Li4 1.905993 1_555
F16 V5 1.813587 1_555
F16 Li4 2.041004 1_555
F17 V2 1.989746 1_565
F17 V3 2.003619 1_556
F17 Li3 2.221613 1_655
F18 V0 1.981192 1_565
F18 V4 2.103622 1_655
F18 Li0 2.224045 1_565
