# generated using pymatgen
data_LiNi(PO3)3
_symmetry_space_group_name_H-M   'P 1'
_cell_length_a   9.35778000
_cell_length_b   9.43299878
_cell_length_c   9.60279108
_cell_angle_alpha   108.91327264
_cell_angle_beta   104.68258998
_cell_angle_gamma   110.22962869
_symmetry_Int_Tables_number   1
_chemical_formula_structural   LiNi(PO3)3
_chemical_formula_sum   'Li4 Ni4 P12 O36'
_cell_volume   685.66389737
_cell_formula_units_Z   4
loop_
 _symmetry_equiv_pos_site_id
 _symmetry_equiv_pos_as_xyz
  1  'x, y, z'
loop_
 _atom_site_type_symbol
 _atom_site_label
 _atom_site_symmetry_multiplicity
 _atom_site_fract_x
 _atom_site_fract_y
 _atom_site_fract_z
 _atom_site_occupancy
  Li  Li0  1  0.23316400  0.77136100  0.73469400  1
  Li  Li1  1  0.92609900  0.69561900  0.78426400  1
  Li  Li2  1  0.07390100  0.30438100  0.21573600  1
  Li  Li3  1  0.76683600  0.22863900  0.26530600  1
  Ni  Ni0  1  0.66623200  0.06468100  0.49213400  1
  Ni  Ni1  1  0.62062200  0.82803200  0.69117100  1
  Ni  Ni2  1  0.37937800  0.17196800  0.30882900  1
  Ni  Ni3  1  0.33376800  0.93531900  0.50786600  1
  P  P0  1  0.19615700  0.08254000  0.92003200  1
  P  P1  1  0.52141800  0.14468900  0.89451800  1
  P  P2  1  0.00732900  0.39554000  0.64537000  1
  P  P3  1  0.95201000  0.21371200  0.84454800  1
  P  P4  1  0.58359700  0.34027500  0.70976400  1
  P  P5  1  0.32596800  0.43148600  0.59129100  1
  P  P6  1  0.67403200  0.56851400  0.40870900  1
  P  P7  1  0.41640300  0.65972500  0.29023600  1
  P  P8  1  0.04799000  0.78628800  0.15545200  1
  P  P9  1  0.99267100  0.60446000  0.35463000  1
  P  P10  1  0.47858200  0.85531100  0.10548200  1
  P  P11  1  0.80384300  0.91746000  0.07996800  1
  O  O0  1  0.05645200  0.73313400  0.99795400  1
  O  O1  1  0.36933200  0.18065000  0.90756200  1
  O  O2  1  0.10460900  0.17403700  0.84578800  1
  O  O3  1  0.00880300  0.37063700  0.80278700  1
  O  O4  1  0.61721300  0.30009300  0.85946600  1
  O  O5  1  0.37003100  0.83339000  0.95224600  1
  O  O6  1  0.11046800  0.90083300  0.80155400  1
  O  O7  1  0.03541200  0.56870200  0.67508500  1
  O  O8  1  0.16418100  0.37063300  0.62705000  1
  O  O9  1  0.43363900  0.38360500  0.71305000  1
  O  O10  1  0.79063800  0.06413300  0.69800100  1
  O  O11  1  0.77455300  0.86263700  0.90480200  1
  O  O12  1  0.73261500  0.47935700  0.73010900  1
  O  O13  1  0.50891300  0.16942300  0.55108300  1
  O  O14  1  0.40825100  0.61948900  0.64741400  1
  O  O15  1  0.45720500  0.98005800  0.74034900  1
  O  O16  1  0.28333200  0.31088600  0.42162800  1
  O  O17  1  0.14815500  0.75267200  0.49756600  1
  O  O18  1  0.85184500  0.24732800  0.50243400  1
  O  O19  1  0.71666800  0.68911400  0.57837200  1
  O  O20  1  0.54279500  0.01994200  0.25965100  1
  O  O21  1  0.59174900  0.38051100  0.35258600  1
  O  O22  1  0.49108700  0.83057700  0.44891700  1
  O  O23  1  0.26738500  0.52064300  0.26989100  1
  O  O24  1  0.22544700  0.13736300  0.09519800  1
  O  O25  1  0.20936200  0.93586700  0.30199900  1
  O  O26  1  0.56636100  0.61639500  0.28695000  1
  O  O27  1  0.83581900  0.62936700  0.37295000  1
  O  O28  1  0.96458800  0.43129800  0.32491500  1
  O  O29  1  0.88953200  0.09916700  0.19844600  1
  O  O30  1  0.62996900  0.16661000  0.04775400  1
  O  O31  1  0.38278700  0.69990700  0.14053400  1
  O  O32  1  0.99119700  0.62936300  0.19721300  1
  O  O33  1  0.89539100  0.82596300  0.15421200  1
  O  O34  1  0.63066800  0.81935000  0.09243800  1
  O  O35  1  0.94354800  0.26686600  0.00204600  1
loop_
_geom_bond_atom_site_label_1
_geom_bond_atom_site_label_2
_geom_bond_distance
_geom_bond_site_symmetry_2
Li0 O5 1.918342 1_555
Li0 O7 1.927112 1_555
Li0 O6 2.014251 1_555
Li0 O17 2.138586 1_555
Li0 O15 2.300562 1_555
Li1 O0 1.945714 1_655
Li1 O12 1.997706 1_555
Li1 O6 2.021926 1_655
Li1 O7 2.038571 1_655
Li1 O19 2.372262 1_555
Li2 O35 1.945714 1_455
Li2 O23 1.997706 1_555
Li2 O29 2.021926 1_455
Li2 O28 2.038571 1_455
Li2 O16 2.372262 1_555
Li3 O30 1.918342 1_555
Li3 O28 1.927112 1_555
Li3 O29 2.014251 1_555
Li3 O18 2.138586 1_555
Li3 O20 2.300562 1_555
Ni0 O18 1.930800 1_555
Ni0 O10 2.026710 1_555
Ni0 O20 2.059420 1_555
Ni0 O22 2.071984 1_545
Ni0 O13 2.128302 1_555
Ni1 O19 2.021416 1_555
Ni1 O11 2.032890 1_555
Ni1 O14 2.081592 1_555
Ni1 O10 2.213056 1_565
Ni1 O22 2.347021 1_555
Ni1 O15 2.462057 1_555
Ni2 O16 2.021416 1_555
Ni2 O24 2.032890 1_555
Ni2 O21 2.081592 1_555
Ni2 O25 2.213056 1_545
Ni2 O13 2.347021 1_555
Ni2 O20 2.462057 1_555
Ni3 O17 1.930800 1_555
Ni3 O25 2.026710 1_555
Ni3 O15 2.059420 1_555
Ni3 O13 2.071984 1_565
Ni3 O22 2.128302 1_555
O0 P8 1.463439 1_556
O1 P1 1.597785 1_555
O1 P0 1.621727 1_555
O2 P3 1.594748 1_455
O2 P0 1.608654 1_555
O3 P2 1.600721 1_555
O3 P3 1.607261 1_455
O4 P4 1.586079 1_555
O4 P1 1.621686 1_555
O5 P10 1.462755 1_556
O6 P0 1.482618 1_565
O7 P2 1.477013 1_555
O8 P5 1.590543 1_555
O8 P2 1.607214 1_555
O9 P4 1.596239 1_555
O9 P5 1.626696 1_555
O10 P3 1.553574 1_555
O11 P11 1.508743 1_556
O12 P4 1.460988 1_555
O13 P4 1.580167 1_555
O14 P5 1.501361 1_555
O15 P1 1.542001 1_565
O16 P5 1.504269 1_555
O17 P9 1.514074 1_455
O18 P2 1.514074 1_655
O19 P6 1.504269 1_555
O20 P10 1.542001 1_545
O21 P6 1.501361 1_555
O22 P7 1.580167 1_555
O23 P7 1.460988 1_555
O24 P0 1.508743 1_554
O25 P8 1.553574 1_555
O26 P7 1.596239 1_555
O26 P6 1.626696 1_555
O27 P6 1.590543 1_555
O27 P9 1.607214 1_555
O28 P9 1.477013 1_555
O29 P11 1.482618 1_545
O30 P1 1.462755 1_554
O31 P7 1.586079 1_555
O31 P10 1.621686 1_555
O32 P9 1.600721 1_555
O32 P8 1.607261 1_655
O33 P8 1.594748 1_655
O33 P11 1.608654 1_555
O34 P10 1.597785 1_555
O34 P11 1.621727 1_555
O35 P3 1.463439 1_554
