# generated using pymatgen
data_Li2Mn3F8
_symmetry_space_group_name_H-M   'P 1'
_cell_length_a   8.84197300
_cell_length_b   8.84197300
_cell_length_c   8.84197300
_cell_angle_alpha   90.00000000
_cell_angle_beta   90.00000000
_cell_angle_gamma   90.00000000
_symmetry_Int_Tables_number   1
_chemical_formula_structural   Li2Mn3F8
_chemical_formula_sum   'Li8 Mn12 F32'
_cell_volume   691.26975105
_cell_formula_units_Z   4
loop_
 _symmetry_equiv_pos_site_id
 _symmetry_equiv_pos_as_xyz
  1  'x, y, z'
loop_
 _atom_site_type_symbol
 _atom_site_label
 _atom_site_symmetry_multiplicity
 _atom_site_fract_x
 _atom_site_fract_y
 _atom_site_fract_z
 _atom_site_occupancy
  Li  Li0  1  0.98571600  0.98571600  0.98571600  1
  Li  Li1  1  0.01428400  0.48571600  0.51428400  1
  Li  Li2  1  0.26428400  0.26428400  0.26428400  1
  Li  Li3  1  0.23571600  0.73571600  0.76428400  1
  Li  Li4  1  0.51428400  0.01428400  0.48571600  1
  Li  Li5  1  0.48571600  0.51428400  0.01428400  1
  Li  Li6  1  0.76428400  0.23571600  0.73571600  1
  Li  Li7  1  0.73571600  0.76428400  0.23571600  1
  Mn  Mn0  1  0.14999100  0.10000900  0.62500000  1
  Mn  Mn1  1  0.10000900  0.62500000  0.14999100  1
  Mn  Mn2  1  0.12500000  0.35000900  0.89999100  1
  Mn  Mn3  1  0.39999100  0.37500000  0.64999100  1
  Mn  Mn4  1  0.37500000  0.64999100  0.39999100  1
  Mn  Mn5  1  0.35000900  0.89999100  0.12500000  1
  Mn  Mn6  1  0.62500000  0.14999100  0.10000900  1
  Mn  Mn7  1  0.64999100  0.39999100  0.37500000  1
  Mn  Mn8  1  0.60000900  0.87500000  0.85000900  1
  Mn  Mn9  1  0.89999100  0.12500000  0.35000900  1
  Mn  Mn10  1  0.85000900  0.60000900  0.87500000  1
  Mn  Mn11  1  0.87500000  0.85000900  0.60000900  1
  F  F0  1  0.13269600  0.14125300  0.38567600  1
  F  F1  1  0.14125300  0.38567600  0.13269600  1
  F  F2  1  0.10874700  0.11730400  0.86432400  1
  F  F3  1  0.11730400  0.86432400  0.10874700  1
  F  F4  1  0.14708800  0.35291200  0.64708800  1
  F  F5  1  0.13567600  0.60874700  0.38269600  1
  F  F6  1  0.10291200  0.60291200  0.89708800  1
  F  F7  1  0.11432400  0.86730400  0.64125300  1
  F  F8  1  0.38567600  0.13269600  0.14125300  1
  F  F9  1  0.38269600  0.13567600  0.60874700  1
  F  F10  1  0.39708800  0.39708800  0.39708800  1
  F  F11  1  0.36432400  0.39125300  0.88269600  1
  F  F12  1  0.35291200  0.64708800  0.14708800  1
  F  F13  1  0.39125300  0.88269600  0.36432400  1
  F  F14  1  0.35874700  0.61432400  0.63269600  1
  F  F15  1  0.36730400  0.85874700  0.88567600  1
  F  F16  1  0.64708800  0.14708800  0.35291200  1
  F  F17  1  0.60874700  0.38269600  0.13567600  1
  F  F18  1  0.63269600  0.35874700  0.61432400  1
  F  F19  1  0.61432400  0.63269600  0.35874700  1
  F  F20  1  0.64125300  0.11432400  0.86730400  1
  F  F21  1  0.61730400  0.63567600  0.89125300  1
  F  F22  1  0.60291200  0.89708800  0.10291200  1
  F  F23  1  0.63567600  0.89125300  0.61730400  1
  F  F24  1  0.86432400  0.10874700  0.11730400  1
  F  F25  1  0.89708800  0.10291200  0.60291200  1
  F  F26  1  0.88269600  0.36432400  0.39125300  1
  F  F27  1  0.86730400  0.64125300  0.11432400  1
  F  F28  1  0.89125300  0.61730400  0.63567600  1
  F  F29  1  0.88567600  0.36730400  0.85874700  1
  F  F30  1  0.85874700  0.88567600  0.36730400  1
  F  F31  1  0.85291200  0.85291200  0.85291200  1
loop_
_geom_bond_atom_site_label_1
_geom_bond_atom_site_label_2
_geom_bond_distance
_geom_bond_site_symmetry_2
F0 Li2 1.920725 1_555
F0 Mn9 2.086554 1_455
F0 Mn0 2.152728 1_555
F1 Li2 1.920725 1_555
F1 Mn2 2.086554 1_554
F1 Mn1 2.152728 1_555
F2 Li0 1.920725 1_445
F2 Mn2 2.086554 1_555
F2 Mn0 2.152728 1_555
F3 Li0 1.920725 1_454
F3 Mn5 2.086554 1_555
F3 Mn1 2.152728 1_555
F4 Li1 2.033860 1_555
F4 Mn3 2.244821 1_555
F4 Mn2 2.244821 1_555
F4 Mn0 2.244821 1_555
F5 Li1 1.920725 1_555
F5 Mn1 2.086554 1_555
F5 Mn4 2.152728 1_555
F6 Li3 2.033860 1_555
F6 Mn1 2.244821 1_556
F6 Mn10 2.244821 1_455
F6 Mn2 2.244821 1_555
F7 Li3 1.920725 1_555
F7 Mn0 2.086554 1_565
F7 Mn11 2.152728 1_455
F8 Li2 1.920725 1_555
F8 Mn5 2.086554 1_545
F8 Mn6 2.152728 1_555
F9 Li4 1.920725 1_555
F9 Mn0 2.086554 1_555
F9 Mn3 2.152728 1_555
F10 Li2 2.033860 1_555
F10 Mn7 2.244821 1_555
F10 Mn3 2.244821 1_555
F10 Mn4 2.244821 1_555
F11 Li5 1.920725 1_556
F11 Mn3 2.086554 1_555
F11 Mn2 2.152728 1_555
F12 Li5 2.033860 1_555
F12 Mn5 2.244821 1_555
F12 Mn1 2.244821 1_555
F12 Mn4 2.244821 1_555
F13 Li4 1.920725 1_565
F13 Mn4 2.086554 1_555
F13 Mn5 2.152728 1_555
F14 Li3 1.920725 1_555
F14 Mn4 2.086554 1_555
F14 Mn3 2.152728 1_555
F15 Li3 1.920725 1_555
F15 Mn8 2.086554 1_555
F15 Mn5 2.152728 1_556
F16 Li4 2.033860 1_555
F16 Mn7 2.244821 1_555
F16 Mn6 2.244821 1_555
F16 Mn9 2.244821 1_555
F17 Li5 1.920725 1_555
F17 Mn6 2.086554 1_555
F17 Mn7 2.152728 1_555
F18 Li6 1.920725 1_555
F18 Mn3 2.086554 1_555
F18 Mn7 2.152728 1_555
F19 Li7 1.920725 1_555
F19 Mn7 2.086554 1_555
F19 Mn4 2.152728 1_555
F20 Li6 1.920725 1_555
F20 Mn6 2.086554 1_556
F20 Mn8 2.152728 1_545
F21 Li5 1.920725 1_556
F21 Mn10 2.086554 1_555
F21 Mn8 2.152728 1_555
F22 Li7 2.033860 1_555
F22 Mn8 2.244821 1_554
F22 Mn5 2.244821 1_555
F22 Mn6 2.244821 1_565
F23 Li4 1.920725 1_565
F23 Mn8 2.086554 1_555
F23 Mn11 2.152728 1_555
F24 Li0 1.920725 1_544
F24 Mn9 2.086554 1_555
F24 Mn6 2.152728 1_555
F25 Li6 2.033860 1_555
F25 Mn0 2.244821 1_655
F25 Mn9 2.244821 1_555
F25 Mn11 2.244821 1_545
F26 Li1 1.920725 1_655
F26 Mn7 2.086554 1_555
F26 Mn9 2.152728 1_555
F27 Li7 1.920725 1_555
F27 Mn1 2.086554 1_655
F27 Mn10 2.152728 1_554
F28 Li1 1.920725 1_655
F28 Mn11 2.086554 1_555
F28 Mn10 2.152728 1_555
F29 Li6 1.920725 1_555
F29 Mn10 2.086554 1_555
F29 Mn2 2.152728 1_655
F30 Li7 1.920725 1_555
F30 Mn11 2.086554 1_555
F30 Mn9 2.152728 1_565
F31 Li0 2.033860 1_555
F31 Mn10 2.244821 1_555
F31 Mn11 2.244821 1_555
F31 Mn8 2.244821 1_555
