# generated using pymatgen
data_Li2BiS2
_symmetry_space_group_name_H-M   'P 1'
_cell_length_a   7.28617003
_cell_length_b   7.28617003
_cell_length_c   7.28617003
_cell_angle_alpha   148.01162666
_cell_angle_beta   147.52384737
_cell_angle_gamma   46.22956753
_symmetry_Int_Tables_number   1
_chemical_formula_structural   Li2BiS2
_chemical_formula_sum   'Li2 Bi1 S2'
_cell_volume   109.64291027
_cell_formula_units_Z   1
loop_
 _symmetry_equiv_pos_site_id
 _symmetry_equiv_pos_as_xyz
  1  'x, y, z'
loop_
 _atom_site_type_symbol
 _atom_site_label
 _atom_site_symmetry_multiplicity
 _atom_site_fract_x
 _atom_site_fract_y
 _atom_site_fract_z
 _atom_site_occupancy
  Li  Li0  1  0.26048600  0.26377700  0.00329100  1
  Li  Li1  1  0.73951400  0.74280400  0.00329100  1
  Bi  Bi0  1  0.00000000  0.01630900  0.01630900  1
  S  S0  1  0.85185300  0.36470400  0.51285100  1
  S  S1  1  0.14814700  0.66099700  0.51285100  1
loop_
_geom_bond_atom_site_label_1
_geom_bond_atom_site_label_2
_geom_bond_distance
_geom_bond_site_symmetry_2
Li0 S0 2.377412 1_454
Li0 S0 2.377412 1_555
Li0 S1 2.478880 1_544
Li0 S1 2.540293 1_555
Li1 S1 2.377412 1_554
Li1 S1 2.377412 1_655
Li1 S0 2.478876 1_554
Li1 S0 2.540296 1_565
Bi0 S1 2.813777 1_555
Bi0 S0 2.813783 1_455
Bi0 S1 2.833524 1_544
Bi0 S0 2.833527 1_444
