# generated using pymatgen
data_Li4Fe2Ni3Sn(PO4)6
_symmetry_space_group_name_H-M   'P 1'
_cell_length_a   8.46631400
_cell_length_b   8.60338442
_cell_length_c   8.60606869
_cell_angle_alpha   62.38204840
_cell_angle_beta   62.76491927
_cell_angle_gamma   62.84222398
_symmetry_Int_Tables_number   1
_chemical_formula_structural   Li4Fe2Ni3Sn(PO4)6
_chemical_formula_sum   'Li4 Fe2 Ni3 Sn1 P6 O24'
_cell_volume   469.51242275
_cell_formula_units_Z   1
loop_
 _symmetry_equiv_pos_site_id
 _symmetry_equiv_pos_as_xyz
  1  'x, y, z'
loop_
 _atom_site_type_symbol
 _atom_site_label
 _atom_site_symmetry_multiplicity
 _atom_site_fract_x
 _atom_site_fract_y
 _atom_site_fract_z
 _atom_site_occupancy
  Li  Li0  1  0.25492700  0.64706000  0.85050800  1
  Li  Li1  1  0.70120100  0.35879400  0.15810000  1
  Li  Li2  1  0.36259500  0.15245600  0.70107400  1
  Li  Li3  1  0.15184600  0.69700600  0.36206700  1
  Fe  Fe0  1  0.98498900  0.99943800  0.99599900  1
  Fe  Fe1  1  0.51245700  0.50193200  0.49701300  1
  Ni  Ni0  1  0.85745800  0.85300400  0.85154300  1
  Ni  Ni1  1  0.64406100  0.64791500  0.64566500  1
  Ni  Ni2  1  0.35376000  0.34930100  0.35230000  1
  Sn  Sn0  1  0.14696500  0.14836100  0.15261700  1
  P  P0  1  0.74975300  0.04542400  0.45866600  1
  P  P1  1  0.44735200  0.74938500  0.04358200  1
  P  P2  1  0.05572800  0.45883300  0.75241600  1
  P  P3  1  0.94375200  0.55718500  0.25560300  1
  P  P4  1  0.55977000  0.25276000  0.94650600  1
  P  P5  1  0.25412800  0.94634100  0.55778300  1
  O  O0  1  0.88930000  0.50372300  0.70008000  1
  O  O1  1  0.68965000  0.89235400  0.48542000  1
  O  O2  1  0.94649900  0.73769700  0.08840000  1
  O  O3  1  0.45124200  0.69460100  0.89628900  1
  O  O4  1  0.97876200  0.39483400  0.19381700  1
  O  O5  1  0.75068500  0.57247100  0.40402400  1
  O  O6  1  0.74926400  0.09948600  0.92436000  1
  O  O7  1  0.55032600  0.41567600  0.76455900  1
  O  O8  1  0.82588600  0.01181900  0.60276300  1
  O  O9  1  0.40179700  0.75206700  0.57388800  1
  O  O10  1  0.89856100  0.08246800  0.24922400  1
  O  O11  1  0.60629400  0.81597800  0.99196600  1
  O  O12  1  0.39888800  0.18086700  0.98846600  1
  O  O13  1  0.10149700  0.92318600  0.75054000  1
  O  O14  1  0.59266800  0.24197400  0.43794000  1
  O  O15  1  0.18907200  0.98148400  0.39783700  1
  O  O16  1  0.43625700  0.59098500  0.23819300  1
  O  O17  1  0.24175800  0.90190800  0.08550400  1
  O  O18  1  0.25025700  0.43324200  0.59192400  1
  O  O19  1  0.04646500  0.59880300  0.82038400  1
  O  O20  1  0.52527400  0.31187100  0.10617200  1
  O  O21  1  0.08100600  0.25292900  0.90299500  1
  O  O22  1  0.31592200  0.10475200  0.52255900  1
  O  O23  1  0.10193000  0.51663000  0.32425800  1
loop_
_geom_bond_atom_site_label_1
_geom_bond_atom_site_label_2
_geom_bond_distance
_geom_bond_site_symmetry_2
Li0 O9 2.086079 1_555
Li0 O13 2.093321 1_555
Li0 O3 2.110532 1_555
Li0 O19 2.131187 1_555
Li0 O7 2.427304 1_555
Li0 O2 2.519198 1_456
Li1 O20 1.976505 1_555
Li1 O14 2.056189 1_555
Li1 O10 2.214325 1_555
Li1 O16 2.295228 1_555
Li2 O22 1.993269 1_555
Li2 O18 2.058893 1_555
Li2 O21 2.273786 1_555
Li2 O14 2.287059 1_555
Li3 O23 1.971142 1_555
Li3 O16 2.076909 1_555
Li3 O17 2.242467 1_555
Li3 O18 2.318940 1_555
Fe0 O6 2.042035 1_565
Fe0 O2 2.140532 1_556
Fe0 O13 2.157008 1_655
Fe0 O17 2.300310 1_656
Fe0 O10 2.302509 1_566
Fe0 O21 2.337131 1_665
Fe1 O5 2.065534 1_555
Fe1 O7 2.197582 1_555
Fe1 O9 2.204258 1_555
Fe1 O18 2.243807 1_555
Fe1 O14 2.252406 1_555
Fe1 O16 2.290505 1_555
Ni0 O11 1.998252 1_555
Ni0 O8 2.000115 1_565
Ni0 O19 2.090859 1_655
Ni0 O13 2.096998 1_655
Ni0 O2 2.134586 1_556
Ni0 O6 2.159184 1_565
Ni1 O1 2.009559 1_555
Ni1 O0 2.017214 1_555
Ni1 O9 2.088091 1_555
Ni1 O3 2.111948 1_555
Ni1 O7 2.116060 1_555
Ni1 O5 2.135225 1_555
Ni2 O22 2.000906 1_555
Ni2 O23 2.005819 1_555
Ni2 O20 2.022206 1_555
Ni2 O14 2.124979 1_555
Ni2 O16 2.140212 1_555
Ni2 O18 2.165929 1_555
O0 P2 1.503402 1_655
O1 P0 1.506518 1_565
O2 P3 1.553519 1_555
O3 P1 1.526968 1_556
O4 P3 1.577327 1_555
O4 Sn0 2.031865 1_655
O5 P3 1.539209 1_555
O6 P4 1.539785 1_555
O7 P4 1.549283 1_555
O8 P0 1.505325 1_555
O9 P5 1.553094 1_555
O10 P0 1.641089 1_555
O10 Sn0 2.118138 1_655
O11 P1 1.502355 1_556
O12 P4 1.574813 1_555
O12 Sn0 2.010821 1_556
O13 P5 1.558195 1_555
O14 P0 1.595142 1_555
O15 P5 1.563839 1_555
O15 Sn0 2.013520 1_565
O16 P1 1.589898 1_555
O17 P1 1.631225 1_555
O17 Sn0 2.152029 1_565
O18 P2 1.592951 1_555
O19 P2 1.524242 1_555
O20 P4 1.541771 1_554
O21 P2 1.625610 1_555
O21 Sn0 2.140975 1_556
O22 P5 1.531571 1_545
O23 P3 1.539739 1_455
