# generated using pymatgen
data_Tb2Pb2O7
_symmetry_space_group_name_H-M   'P 1'
_cell_length_a   7.38762800
_cell_length_b   7.38762800
_cell_length_c   12.90419500
_cell_angle_alpha   90.00000000
_cell_angle_beta   90.00000000
_cell_angle_gamma   90.00000000
_symmetry_Int_Tables_number   1
_chemical_formula_structural   Tb2Pb2O7
_chemical_formula_sum   'Tb8 Pb8 O28'
_cell_volume   704.27286303
_cell_formula_units_Z   4
loop_
 _symmetry_equiv_pos_site_id
 _symmetry_equiv_pos_as_xyz
  1  'x, y, z'
loop_
 _atom_site_type_symbol
 _atom_site_label
 _atom_site_symmetry_multiplicity
 _atom_site_fract_x
 _atom_site_fract_y
 _atom_site_fract_z
 _atom_site_occupancy
  Tb  Tb0  1  0.64310000  0.12464800  0.13935600  1
  Tb  Tb1  1  0.62464800  0.85690000  0.88935600  1
  Tb  Tb2  1  0.87535200  0.35690000  0.36064400  1
  Tb  Tb3  1  0.85690000  0.62464800  0.11064400  1
  Tb  Tb4  1  0.14310000  0.37535200  0.61064400  1
  Tb  Tb5  1  0.12464800  0.64310000  0.86064400  1
  Tb  Tb6  1  0.37535200  0.14310000  0.38935600  1
  Tb  Tb7  1  0.35690000  0.87535200  0.63935600  1
  Pb  Pb0  1  0.61231200  0.37424600  0.59848900  1
  Pb  Pb1  1  0.62575400  0.38768800  0.90151100  1
  Pb  Pb2  1  0.87424600  0.88768800  0.34848900  1
  Pb  Pb3  1  0.88768800  0.87424600  0.65151100  1
  Pb  Pb4  1  0.11231200  0.12575400  0.15151100  1
  Pb  Pb5  1  0.12575400  0.11231200  0.84848900  1
  Pb  Pb6  1  0.37424600  0.61231200  0.40151100  1
  Pb  Pb7  1  0.38768800  0.62575400  0.09848900  1
  O  O0  1  0.56965600  0.40392000  0.41110700  1
  O  O1  1  0.59568100  0.82504900  0.07530200  1
  O  O2  1  0.59608000  0.43034400  0.08889300  1
  O  O3  1  0.66952600  0.12982400  0.96175600  1
  O  O4  1  0.67495100  0.09568100  0.32530200  1
  O  O5  1  0.62982400  0.83047400  0.71175600  1
  O  O6  1  0.69917600  0.30082400  0.75000000  1
  O  O7  1  0.80082400  0.80082400  0.50000000  1
  O  O8  1  0.87017600  0.33047400  0.53824400  1
  O  O9  1  0.82504900  0.59568100  0.92469800  1
  O  O10  1  0.83047400  0.62982400  0.28824400  1
  O  O11  1  0.90392000  0.93034400  0.16110700  1
  O  O12  1  0.90431900  0.32504900  0.17469800  1
  O  O13  1  0.93034400  0.90392000  0.83889300  1
  O  O14  1  0.06965600  0.09608000  0.33889300  1
  O  O15  1  0.09568100  0.67495100  0.67469800  1
  O  O16  1  0.09608000  0.06965600  0.66110700  1
  O  O17  1  0.16952600  0.37017600  0.78824400  1
  O  O18  1  0.17495100  0.40431900  0.42469800  1
  O  O19  1  0.12982400  0.66952600  0.03824400  1
  O  O20  1  0.19917600  0.19917600  0.00000000  1
  O  O21  1  0.30082400  0.69917600  0.25000000  1
  O  O22  1  0.37017600  0.16952600  0.21175600  1
  O  O23  1  0.32504900  0.90431900  0.82530200  1
  O  O24  1  0.33047400  0.87017600  0.46175600  1
  O  O25  1  0.40392000  0.56965600  0.58889300  1
  O  O26  1  0.40431900  0.17495100  0.57530200  1
  O  O27  1  0.43034400  0.59608000  0.91110700  1
loop_
_geom_bond_atom_site_label_1
_geom_bond_atom_site_label_2
_geom_bond_distance
_geom_bond_site_symmetry_2
O0 Pb6 2.114117 1_555
O0 Tb2 2.375907 1_555
O0 Tb6 2.419091 1_555
O0 Pb0 2.448296 1_555
O1 Pb7 2.149025 1_555
O1 Tb0 2.388460 1_565
O1 Tb1 2.420472 1_554
O1 Tb3 2.474656 1_555
O2 Pb7 2.114117 1_555
O2 Tb0 2.375907 1_555
O2 Tb3 2.419091 1_555
O2 Pb1 2.448296 1_554
O3 Pb1 2.082781 1_555
O3 Tb1 2.246793 1_545
O3 Tb0 2.300403 1_556
O4 Pb2 2.149025 1_545
O4 Tb6 2.388460 1_555
O4 Tb0 2.420472 1_555
O4 Tb2 2.474656 1_555
O5 Pb3 2.082781 1_555
O5 Tb7 2.246793 1_555
O5 Tb1 2.300403 1_555
O6 Pb1 2.128037 1_555
O6 Pb0 2.128037 1_555
O7 Pb3 2.128037 1_555
O7 Pb2 2.128037 1_555
O8 Pb0 2.082781 1_555
O8 Tb4 2.246793 1_655
O8 Tb2 2.300403 1_555
O9 Pb1 2.149025 1_555
O9 Tb5 2.388460 1_655
O9 Tb3 2.420472 1_556
O9 Tb1 2.474656 1_555
O10 Pb2 2.082781 1_555
O10 Tb2 2.246793 1_555
O10 Tb3 2.300403 1_555
O11 Pb4 2.114117 1_665
O11 Tb3 2.375907 1_555
O11 Tb0 2.419091 1_565
O11 Pb2 2.448296 1_555
O12 Pb4 2.149025 1_655
O12 Tb3 2.388460 1_555
O12 Tb2 2.420472 1_555
O12 Tb0 2.474656 1_555
O13 Pb5 2.114117 1_665
O13 Tb1 2.375907 1_555
O13 Tb5 2.419091 1_655
O13 Pb3 2.448296 1_555
O14 Pb2 2.114117 1_445
O14 Tb6 2.375907 1_555
O14 Tb2 2.419091 1_455
O14 Pb4 2.448296 1_555
O15 Pb3 2.149025 1_455
O15 Tb4 2.388460 1_555
O15 Tb5 2.420472 1_555
O15 Tb7 2.474656 1_555
O16 Pb3 2.114117 1_445
O16 Tb4 2.375907 1_555
O16 Tb7 2.419091 1_545
O16 Pb5 2.448296 1_555
O17 Pb5 2.082781 1_555
O17 Tb5 2.246793 1_555
O17 Tb4 2.300403 1_555
O18 Pb6 2.149025 1_555
O18 Tb2 2.388460 1_455
O18 Tb4 2.420472 1_555
O18 Tb6 2.474656 1_555
O19 Pb7 2.082781 1_555
O19 Tb3 2.246793 1_455
O19 Tb5 2.300403 1_554
O20 Pb4 2.128037 1_555
O20 Pb5 2.128037 1_554
O21 Pb6 2.128037 1_555
O21 Pb7 2.128037 1_555
O22 Pb4 2.082781 1_555
O22 Tb0 2.246793 1_555
O22 Tb6 2.300403 1_555
O23 Pb5 2.149025 1_565
O23 Tb1 2.388460 1_555
O23 Tb7 2.420472 1_555
O23 Tb5 2.474656 1_555
O24 Pb6 2.082781 1_555
O24 Tb6 2.246793 1_565
O24 Tb7 2.300403 1_555
O25 Pb0 2.114117 1_555
O25 Tb7 2.375907 1_555
O25 Tb4 2.419091 1_555
O25 Pb6 2.448296 1_555
O26 Pb0 2.149025 1_555
O26 Tb7 2.388460 1_545
O26 Tb6 2.420472 1_555
O26 Tb4 2.474656 1_555
O27 Pb1 2.114117 1_555
O27 Tb5 2.375907 1_555
O27 Tb1 2.419091 1_555
O27 Pb7 2.448296 1_556
