# generated using pymatgen
data_Li3Bi3(PO4)4
_symmetry_space_group_name_H-M   'P 1'
_cell_length_a   9.60498398
_cell_length_b   9.60498398
_cell_length_c   10.98688283
_cell_angle_alpha   87.74368585
_cell_angle_beta   87.74368585
_cell_angle_gamma   41.11761999
_symmetry_Int_Tables_number   1
_chemical_formula_structural   Li3Bi3(PO4)4
_chemical_formula_sum   'Li6 Bi6 P8 O32'
_cell_volume   665.96272183
_cell_formula_units_Z   2
loop_
 _symmetry_equiv_pos_site_id
 _symmetry_equiv_pos_as_xyz
  1  'x, y, z'
loop_
 _atom_site_type_symbol
 _atom_site_label
 _atom_site_symmetry_multiplicity
 _atom_site_fract_x
 _atom_site_fract_y
 _atom_site_fract_z
 _atom_site_occupancy
  Li  Li0  1  0.57148600  0.74007400  0.73796900  1
  Li  Li1  1  0.74007400  0.57148600  0.23796900  1
  Li  Li2  1  0.50000000  0.00000000  0.50000000  1
  Li  Li3  1  0.00000000  0.50000000  0.00000000  1
  Li  Li4  1  0.25992600  0.42851400  0.76203100  1
  Li  Li5  1  0.42851400  0.25992600  0.26203100  1
  Bi  Bi0  1  0.32278200  0.95540200  0.99079200  1
  Bi  Bi1  1  0.95540200  0.32278200  0.49079200  1
  Bi  Bi2  1  0.04459800  0.67721800  0.50920800  1
  Bi  Bi3  1  0.67721800  0.04459800  0.00920800  1
  Bi  Bi4  1  0.64371600  0.35628400  0.75000000  1
  Bi  Bi5  1  0.35628400  0.64371600  0.25000000  1
  P  P0  1  0.75629100  0.37608900  0.00630500  1
  P  P1  1  0.37608900  0.75629100  0.50630500  1
  P  P2  1  0.13438600  0.24855900  0.74185100  1
  P  P3  1  0.24855900  0.13438600  0.24185100  1
  P  P4  1  0.75144100  0.86561400  0.75814900  1
  P  P5  1  0.86561400  0.75144100  0.25814900  1
  P  P6  1  0.62391100  0.24370900  0.49369500  1
  P  P7  1  0.24370900  0.62391100  0.99369500  1
  O  O0  1  0.77539500  0.20641300  0.96858800  1
  O  O1  1  0.20641300  0.77539500  0.46858800  1
  O  O2  1  0.47574000  0.65661900  0.63382900  1
  O  O3  1  0.61940200  0.55535100  0.90561100  1
  O  O4  1  0.65661900  0.47574000  0.13382900  1
  O  O5  1  0.55535100  0.61940200  0.40561100  1
  O  O6  1  0.98126600  0.26979900  0.00553800  1
  O  O7  1  0.91062600  0.35102300  0.71377500  1
  O  O8  1  0.26979900  0.98126600  0.50553800  1
  O  O9  1  0.27978200  0.01331800  0.78164100  1
  O  O10  1  0.35102300  0.91062600  0.21377500  1
  O  O11  1  0.01331800  0.27978200  0.28164100  1
  O  O12  1  0.72112500  0.80568000  0.88445300  1
  O  O13  1  0.65277900  0.85517900  0.65806100  1
  O  O14  1  0.80568000  0.72112500  0.38445300  1
  O  O15  1  0.85517900  0.65277900  0.15806100  1
  O  O16  1  0.14482100  0.34722100  0.84193900  1
  O  O17  1  0.19432000  0.27887500  0.61554700  1
  O  O18  1  0.34722100  0.14482100  0.34193900  1
  O  O19  1  0.27887500  0.19432000  0.11554700  1
  O  O20  1  0.98668200  0.72021800  0.71835900  1
  O  O21  1  0.64897700  0.08937400  0.78622500  1
  O  O22  1  0.72021800  0.98668200  0.21835900  1
  O  O23  1  0.73020100  0.01873400  0.49446200  1
  O  O24  1  0.08937400  0.64897700  0.28622500  1
  O  O25  1  0.01873400  0.73020100  0.99446200  1
  O  O26  1  0.44464900  0.38059800  0.59438900  1
  O  O27  1  0.34338100  0.52426000  0.86617100  1
  O  O28  1  0.38059800  0.44464900  0.09438900  1
  O  O29  1  0.52426000  0.34338100  0.36617100  1
  O  O30  1  0.79358700  0.22460500  0.53141200  1
  O  O31  1  0.22460500  0.79358700  0.03141200  1
loop_
_geom_bond_atom_site_label_1
_geom_bond_atom_site_label_2
_geom_bond_distance
_geom_bond_site_symmetry_2
Li0 O13 1.942434 1_555
Li0 O9 1.970334 1_565
Li0 O2 2.015734 1_555
Li0 O3 2.308973 1_555
Li0 O7 2.512950 1_555
Li0 O12 2.584503 1_555
Li1 O15 1.942434 1_555
Li1 O11 1.970334 1_655
Li1 O4 2.015734 1_555
Li1 O5 2.308973 1_555
Li1 O10 2.512950 1_555
Li1 O14 2.584503 1_555
Li2 O18 2.009714 1_555
Li2 O13 2.009714 1_545
Li2 O23 2.347968 1_555
Li2 O8 2.347968 1_545
Li2 O17 2.351926 1_555
Li2 O14 2.351926 1_545
Li3 O15 2.009714 1_455
Li3 O16 2.009714 1_554
Li3 O25 2.347968 1_554
Li3 O6 2.347968 1_455
Li3 O19 2.351926 1_555
Li3 O12 2.351926 1_454
Li4 O16 1.942434 1_555
Li4 O20 1.970334 1_455
Li4 O27 2.015734 1_555
Li4 O26 2.308973 1_555
Li4 O21 2.512950 1_555
Li4 O17 2.584503 1_555
Li5 O18 1.942434 1_555
Li5 O22 1.970334 1_545
Li5 O29 2.015734 1_555
Li5 O28 2.308973 1_555
Li5 O24 2.512950 1_555
Li5 O19 2.584503 1_555
Bi0 O6 2.230921 1_466
Bi0 O9 2.321284 1_565
Bi0 O31 2.371616 1_556
Bi0 O10 2.460505 1_556
Bi0 O19 2.463065 1_566
Bi0 O3 2.708524 1_555
Bi1 O8 2.230921 1_645
Bi1 O11 2.321284 1_655
Bi1 O30 2.371616 1_555
Bi1 O7 2.460505 1_555
Bi1 O17 2.463065 1_655
Bi1 O5 2.708524 1_555
Bi2 O23 2.230921 1_465
Bi2 O20 2.321284 1_455
Bi2 O1 2.371616 1_555
Bi2 O24 2.460505 1_555
Bi2 O14 2.463065 1_455
Bi2 O26 2.708524 1_555
Bi3 O25 2.230921 1_644
Bi3 O22 2.321284 1_545
Bi3 O0 2.371616 1_554
Bi3 O21 2.460505 1_554
Bi3 O12 2.463065 1_544
Bi3 O28 2.708524 1_555
Bi4 O27 2.326663 1_555
Bi4 O2 2.326663 1_555
Bi4 O3 2.487285 1_555
Bi4 O26 2.487285 1_555
Bi4 O7 2.541534 1_555
Bi4 O21 2.541534 1_555
Bi4 O30 2.581330 1_555
Bi4 O0 2.581330 1_555
Bi5 O29 2.326663 1_555
Bi5 O4 2.326663 1_555
Bi5 O5 2.487285 1_555
Bi5 O28 2.487285 1_555
Bi5 O10 2.541534 1_555
Bi5 O24 2.541534 1_555
Bi5 O1 2.581330 1_555
Bi5 O31 2.581330 1_555
O0 P0 1.567813 1_556
O1 P1 1.567813 1_555
O2 P1 1.554038 1_555
O3 P0 1.571888 1_556
O4 P0 1.554038 1_555
O5 P1 1.571888 1_555
O6 P0 1.545007 1_555
O7 P2 1.588758 1_655
O8 P1 1.545007 1_555
O9 P2 1.569272 1_555
O10 P3 1.588758 1_565
O11 P3 1.569272 1_555
O12 P4 1.581044 1_555
O13 P4 1.533350 1_555
O14 P5 1.581044 1_555
O15 P5 1.533350 1_555
O16 P2 1.533350 1_555
O17 P2 1.581044 1_555
O18 P3 1.533350 1_555
O19 P3 1.581044 1_555
O20 P4 1.569272 1_555
O21 P4 1.588758 1_545
O22 P5 1.569272 1_555
O23 P6 1.545007 1_555
O24 P5 1.588758 1_455
O25 P7 1.545007 1_555
O26 P6 1.571888 1_555
O27 P7 1.554038 1_555
O28 P7 1.571888 1_554
O29 P6 1.554038 1_555
O30 P6 1.567813 1_555
O31 P7 1.567813 1_554
