# generated using pymatgen
data_Li2Mn3WO8
_symmetry_space_group_name_H-M   'P 1'
_cell_length_a   8.51085400
_cell_length_b   8.52205300
_cell_length_c   9.09924200
_cell_angle_alpha   90.00000000
_cell_angle_beta   90.00000000
_cell_angle_gamma   90.00000000
_symmetry_Int_Tables_number   1
_chemical_formula_structural   Li2Mn3WO8
_chemical_formula_sum   'Li8 Mn12 W4 O32'
_cell_volume   659.96755695
_cell_formula_units_Z   4
loop_
 _symmetry_equiv_pos_site_id
 _symmetry_equiv_pos_as_xyz
  1  'x, y, z'
loop_
 _atom_site_type_symbol
 _atom_site_label
 _atom_site_symmetry_multiplicity
 _atom_site_fract_x
 _atom_site_fract_y
 _atom_site_fract_z
 _atom_site_occupancy
  Li  Li0  1  0.75388300  0.75111600  0.74735100  1
  Li  Li1  1  0.50221800  0.48972800  0.50050500  1
  Li  Li2  1  0.00221800  0.01027200  0.49949500  1
  Li  Li3  1  0.25388300  0.74888400  0.25264900  1
  Li  Li4  1  0.74611700  0.24888400  0.24735100  1
  Li  Li5  1  0.99778200  0.51027200  0.00050500  1
  Li  Li6  1  0.49778200  0.98972800  0.99949500  1
  Li  Li7  1  0.24611700  0.25111600  0.75264900  1
  Mn  Mn0  1  0.13031200  0.60580100  0.63566500  1
  Mn  Mn1  1  0.87210600  0.36414800  0.62520100  1
  Mn  Mn2  1  0.62096700  0.12893600  0.62010800  1
  Mn  Mn3  1  0.12096700  0.37106400  0.37989200  1
  Mn  Mn4  1  0.37210600  0.13585200  0.37479900  1
  Mn  Mn5  1  0.63031200  0.89419900  0.36433500  1
  Mn  Mn6  1  0.36968800  0.39419900  0.13566500  1
  Mn  Mn7  1  0.62789400  0.63585200  0.12520100  1
  Mn  Mn8  1  0.87903300  0.87106400  0.12010800  1
  Mn  Mn9  1  0.37903300  0.62893600  0.87989200  1
  Mn  Mn10  1  0.12789400  0.86414800  0.87479900  1
  Mn  Mn11  1  0.86968800  0.10580100  0.86433500  1
  W  W0  1  0.37146500  0.87564500  0.61700600  1
  W  W1  1  0.87146500  0.62435500  0.38299400  1
  W  W2  1  0.12853500  0.12435500  0.11700600  1
  W  W3  1  0.62853500  0.37564500  0.88299400  1
  O  O0  1  0.38271300  0.65371300  0.61642200  1
  O  O1  1  0.14886800  0.88056800  0.62968600  1
  O  O2  1  0.84987200  0.13711900  0.63212300  1
  O  O3  1  0.87220500  0.60383800  0.59560400  1
  O  O4  1  0.63453900  0.36129500  0.65438600  1
  O  O5  1  0.09595600  0.36405400  0.61631700  1
  O  O6  1  0.38825500  0.10806900  0.63124500  1
  O  O7  1  0.60600700  0.89692100  0.62106700  1
  O  O8  1  0.10600700  0.60307900  0.37893300  1
  O  O9  1  0.88825500  0.39193100  0.36875500  1
  O  O10  1  0.59595600  0.13594600  0.38368300  1
  O  O11  1  0.13453900  0.13870500  0.34561400  1
  O  O12  1  0.37220500  0.89616200  0.40439600  1
  O  O13  1  0.34987200  0.36288100  0.36787700  1
  O  O14  1  0.64886800  0.61943200  0.37031400  1
  O  O15  1  0.88271300  0.84628700  0.38357800  1
  O  O16  1  0.11728700  0.34628700  0.11642200  1
  O  O17  1  0.35113200  0.11943200  0.12968600  1
  O  O18  1  0.65012800  0.86288100  0.13212300  1
  O  O19  1  0.62779500  0.39616200  0.09560400  1
  O  O20  1  0.86546100  0.63870500  0.15438600  1
  O  O21  1  0.40404400  0.63594600  0.11631700  1
  O  O22  1  0.11174500  0.89193100  0.13124500  1
  O  O23  1  0.89399300  0.10307900  0.12106700  1
  O  O24  1  0.39399300  0.39692100  0.87893300  1
  O  O25  1  0.61174500  0.60806900  0.86875500  1
  O  O26  1  0.90404400  0.86405400  0.88368300  1
  O  O27  1  0.36546100  0.86129500  0.84561400  1
  O  O28  1  0.12779500  0.10383800  0.90439600  1
  O  O29  1  0.15012800  0.63711900  0.86787700  1
  O  O30  1  0.85113200  0.38056800  0.87031400  1
  O  O31  1  0.61728700  0.15371300  0.88357800  1
loop_
_geom_bond_atom_site_label_1
_geom_bond_atom_site_label_2
_geom_bond_distance
_geom_bond_site_symmetry_2
Li0 O26 2.024475 1_555
Li0 O25 2.042017 1_555
Li0 O7 2.109101 1_555
Li0 O3 2.120367 1_555
Li1 O0 2.024835 1_555
Li1 O14 2.045227 1_555
Li1 O13 2.075117 1_555
Li1 O4 2.103988 1_555
Li2 O15 2.024835 1_445
Li2 O1 2.045227 1_545
Li2 O2 2.075117 1_455
Li2 O11 2.103988 1_555
Li3 O21 2.024475 1_555
Li3 O22 2.042017 1_555
Li3 O8 2.109101 1_555
Li3 O12 2.120367 1_555
Li4 O10 2.024475 1_555
Li4 O9 2.042017 1_555
Li4 O23 2.109101 1_555
Li4 O19 2.120367 1_555
Li5 O16 2.024835 1_655
Li5 O30 2.045227 1_554
Li5 O29 2.075117 1_654
Li5 O20 2.103988 1_555
Li6 O31 2.024835 1_565
Li6 O17 2.045227 1_566
Li6 O18 2.075117 1_556
Li6 O27 2.103988 1_555
Li7 O5 2.024475 1_555
Li7 O6 2.042017 1_555
Li7 O24 2.109101 1_555
Li7 O28 2.120367 1_555
Mn0 O5 2.088262 1_555
Mn0 O29 2.136410 1_555
Mn0 O0 2.193608 1_555
Mn0 O3 2.226813 1_455
Mn0 O8 2.345322 1_555
Mn0 O1 2.347529 1_555
Mn1 O5 1.906869 1_655
Mn1 O2 1.945005 1_555
Mn1 O4 2.039408 1_555
Mn1 O3 2.060328 1_555
Mn1 O30 2.241846 1_555
Mn1 O9 2.349469 1_555
Mn2 O2 1.952488 1_555
Mn2 O7 1.981358 1_545
Mn2 O6 1.991126 1_555
Mn2 O4 2.007915 1_555
Mn2 O10 2.162619 1_555
Mn2 O31 2.406862 1_555
Mn3 O13 1.952488 1_555
Mn3 O8 1.981358 1_555
Mn3 O9 1.991126 1_455
Mn3 O11 2.007915 1_555
Mn3 O5 2.162619 1_555
Mn3 O16 2.406862 1_555
Mn4 O10 1.906869 1_555
Mn4 O13 1.945005 1_555
Mn4 O11 2.039408 1_555
Mn4 O12 2.060328 1_545
Mn4 O17 2.241846 1_555
Mn4 O6 2.349469 1_555
Mn5 O10 2.088262 1_565
Mn5 O18 2.136410 1_555
Mn5 O15 2.193608 1_555
Mn5 O12 2.226813 1_555
Mn5 O7 2.345322 1_555
Mn5 O14 2.347529 1_555
Mn6 O21 2.088262 1_555
Mn6 O13 2.136410 1_555
Mn6 O16 2.193608 1_555
Mn6 O19 2.226813 1_555
Mn6 O24 2.345322 1_554
Mn6 O17 2.347529 1_555
Mn7 O21 1.906869 1_555
Mn7 O18 1.945005 1_555
Mn7 O20 2.039408 1_555
Mn7 O19 2.060328 1_555
Mn7 O14 2.241846 1_555
Mn7 O25 2.349469 1_554
Mn8 O18 1.952488 1_555
Mn8 O23 1.981358 1_565
Mn8 O22 1.991126 1_655
Mn8 O20 2.007915 1_555
Mn8 O26 2.162619 1_554
Mn8 O15 2.406862 1_555
Mn9 O29 1.952488 1_555
Mn9 O24 1.981358 1_555
Mn9 O25 1.991126 1_555
Mn9 O27 2.007915 1_555
Mn9 O21 2.162619 1_556
Mn9 O0 2.406862 1_555
Mn10 O26 1.906869 1_455
Mn10 O29 1.945005 1_555
Mn10 O27 2.039408 1_555
Mn10 O28 2.060328 1_565
Mn10 O1 2.241846 1_555
Mn10 O22 2.349469 1_556
Mn11 O26 2.088262 1_545
Mn11 O2 2.136410 1_555
Mn11 O31 2.193608 1_555
Mn11 O28 2.226813 1_655
Mn11 O23 2.345322 1_556
Mn11 O30 2.347529 1_555
O0 W0 1.893745 1_555
O1 W0 1.898464 1_555
O3 W1 1.942485 1_555
O4 W3 2.084378 1_555
O6 W0 1.990100 1_545
O7 W0 2.004711 1_555
O8 W1 2.004711 1_455
O9 W1 1.990100 1_555
O11 W2 2.084378 1_555
O12 W0 1.942485 1_555
O14 W1 1.898464 1_555
O15 W1 1.893745 1_555
O16 W2 1.893745 1_555
O17 W2 1.898464 1_555
O19 W3 1.942485 1_554
O20 W1 2.084378 1_555
O22 W2 1.990100 1_565
O23 W2 2.004711 1_655
O24 W3 2.004711 1_555
O25 W3 1.990100 1_555
O27 W0 2.084378 1_555
O28 W2 1.942485 1_556
O30 W3 1.898464 1_555
O31 W3 1.893745 1_555
