# generated using pymatgen
data_Li3Mn7O16
_symmetry_space_group_name_H-M   'P 1'
_cell_length_a   10.04643034
_cell_length_b   10.04643034
_cell_length_c   10.04643025
_cell_angle_alpha   33.73531772
_cell_angle_beta   33.73531772
_cell_angle_gamma   33.73531803
_symmetry_Int_Tables_number   1
_chemical_formula_structural   Li3Mn7O16
_chemical_formula_sum   'Li3 Mn7 O16'
_cell_volume   278.64447288
_cell_formula_units_Z   1
loop_
 _symmetry_equiv_pos_site_id
 _symmetry_equiv_pos_as_xyz
  1  'x, y, z'
loop_
 _atom_site_type_symbol
 _atom_site_label
 _atom_site_symmetry_multiplicity
 _atom_site_fract_x
 _atom_site_fract_y
 _atom_site_fract_z
 _atom_site_occupancy
  Li  Li0  1  0.31104900  0.31104900  0.31104900  1
  Li  Li1  1  0.18922900  0.18922900  0.18922900  1
  Li  Li2  1  0.81033100  0.81033100  0.81033100  1
  Mn  Mn0  1  0.25506500  0.74492000  0.74492000  1
  Mn  Mn1  1  0.00100800  0.00100800  0.00100800  1
  Mn  Mn2  1  0.74492000  0.25506500  0.74492000  1
  Mn  Mn3  1  0.25403300  0.74693900  0.25403300  1
  Mn  Mn4  1  0.74492000  0.74492000  0.25506500  1
  Mn  Mn5  1  0.74693900  0.25403300  0.25403300  1
  Mn  Mn6  1  0.25403300  0.25403300  0.74693900  1
  O  O0  1  0.39097800  0.39097800  0.86515100  1
  O  O1  1  0.39097800  0.86515100  0.39097800  1
  O  O2  1  0.88032700  0.88032700  0.88032700  1
  O  O3  1  0.38173300  0.38173300  0.38173300  1
  O  O4  1  0.10340800  0.66116600  0.10340800  1
  O  O5  1  0.66116600  0.10340800  0.10340800  1
  O  O6  1  0.10340800  0.10340800  0.66116600  1
  O  O7  1  0.13563900  0.60858000  0.60858000  1
  O  O8  1  0.33543800  0.89912000  0.89912000  1
  O  O9  1  0.89912000  0.89912000  0.33543800  1
  O  O10  1  0.86515100  0.39097800  0.39097800  1
  O  O11  1  0.89912000  0.33543800  0.89912000  1
  O  O12  1  0.12002900  0.12002900  0.12002900  1
  O  O13  1  0.61731600  0.61731600  0.61731600  1
  O  O14  1  0.60858000  0.13563900  0.60858000  1
  O  O15  1  0.60858000  0.60858000  0.13563900  1
loop_
_geom_bond_atom_site_label_1
_geom_bond_atom_site_label_2
_geom_bond_distance
_geom_bond_site_symmetry_2
Li0 O6 1.976181 1_555
Li0 O5 1.976181 1_555
Li0 O4 1.976181 1_555
Li0 O3 2.007231 1_555
Li1 O0 1.923001 1_554
Li1 O1 1.923001 1_545
Li1 O10 1.923001 1_455
Li1 O12 1.965090 1_555
Li2 O15 1.922321 1_556
Li2 O14 1.922321 1_565
Li2 O7 1.922321 1_655
Li2 O2 1.987694 1_555
Mn0 O1 1.868565 1_555
Mn0 O0 1.868565 1_555
Mn0 O13 1.935321 1_555
Mn0 O2 1.978991 1_455
Mn0 O4 1.991411 1_556
Mn0 O6 1.991411 1_565
Mn1 O9 1.920031 1_445
Mn1 O8 1.920031 1_544
Mn1 O11 1.920031 1_454
Mn1 O6 1.962129 1_554
Mn1 O5 1.962129 1_455
Mn1 O4 1.962129 1_545
Mn2 O10 1.868565 1_555
Mn2 O0 1.868565 1_555
Mn2 O13 1.935321 1_555
Mn2 O2 1.978991 1_545
Mn2 O5 1.991411 1_556
Mn2 O6 1.991411 1_655
Mn3 O7 1.871552 1_555
Mn3 O15 1.871552 1_555
Mn3 O3 1.957837 1_555
Mn3 O8 1.970428 1_554
Mn3 O9 1.970428 1_455
Mn3 O12 1.975582 1_565
Mn4 O10 1.868565 1_555
Mn4 O1 1.868565 1_555
Mn4 O13 1.935321 1_555
Mn4 O2 1.978991 1_554
Mn4 O4 1.991411 1_655
Mn4 O5 1.991411 1_565
Mn5 O14 1.871552 1_555
Mn5 O15 1.871552 1_555
Mn5 O3 1.957837 1_555
Mn5 O11 1.970428 1_554
Mn5 O9 1.970428 1_545
Mn5 O12 1.975582 1_655
Mn6 O7 1.871552 1_555
Mn6 O14 1.871552 1_555
Mn6 O3 1.957837 1_555
Mn6 O8 1.970428 1_545
Mn6 O11 1.970428 1_455
Mn6 O12 1.975582 1_556
