# generated using pymatgen
data_Li8Mn(FeO4)3
_symmetry_space_group_name_H-M   'P 1'
_cell_length_a   8.54662100
_cell_length_b   4.94898100
_cell_length_c   5.00874218
_cell_angle_alpha   89.53749849
_cell_angle_beta   90.00000000
_cell_angle_gamma   90.00000000
_symmetry_Int_Tables_number   1
_chemical_formula_structural   Li8Mn(FeO4)3
_chemical_formula_sum   'Li8 Mn1 Fe3 O12'
_cell_volume   211.84819124
_cell_formula_units_Z   1
loop_
 _symmetry_equiv_pos_site_id
 _symmetry_equiv_pos_as_xyz
  1  'x, y, z'
loop_
 _atom_site_type_symbol
 _atom_site_label
 _atom_site_symmetry_multiplicity
 _atom_site_fract_x
 _atom_site_fract_y
 _atom_site_fract_z
 _atom_site_occupancy
  Li  Li0  1  0.58252500  0.00000000  0.00000000  1
  Li  Li1  1  0.26824900  0.00000000  0.00000000  1
  Li  Li2  1  0.93332100  0.00000000  0.50000000  1
  Li  Li3  1  0.24446000  0.00000000  0.50000000  1
  Li  Li4  1  0.74420300  0.50000000  0.00000000  1
  Li  Li5  1  0.43022800  0.50000000  0.00000000  1
  Li  Li6  1  0.08296600  0.50000000  0.50000000  1
  Li  Li7  1  0.76799500  0.50000000  0.50000000  1
  Mn  Mn0  1  0.09675100  0.50000000  0.00000000  1
  Fe  Fe0  1  0.91791500  0.00000000  0.00000000  1
  Fe  Fe1  1  0.59899000  0.00000000  0.50000000  1
  Fe  Fe2  1  0.41332600  0.50000000  0.50000000  1
  O  O0  1  0.25293700  0.35227400  0.24327700  1
  O  O1  1  0.93206700  0.32498100  0.21358500  1
  O  O2  1  0.58539600  0.31833900  0.28014700  1
  O  O3  1  0.43103200  0.17728500  0.71800400  1
  O  O4  1  0.08298900  0.18107000  0.78081500  1
  O  O5  1  0.75840000  0.14443200  0.74765200  1
  O  O6  1  0.75840000  0.85556800  0.25234800  1
  O  O7  1  0.08298900  0.81893000  0.21918500  1
  O  O8  1  0.43103200  0.82271500  0.28199600  1
  O  O9  1  0.58539600  0.68166100  0.71985300  1
  O  O10  1  0.93206700  0.67501900  0.78641500  1
  O  O11  1  0.25293700  0.64772600  0.75672300  1
loop_
_geom_bond_atom_site_label_1
_geom_bond_atom_site_label_2
_geom_bond_distance
_geom_bond_site_symmetry_2
Li0 O6 2.086461 1_545
Li0 O5 2.086461 1_554
Li0 O8 2.102659 1_545
Li0 O3 2.102659 1_554
Li0 O2 2.118318 1_555
Li0 O9 2.118318 1_544
Li1 O7 2.121174 1_545
Li1 O4 2.121174 1_554
Li1 O0 2.139072 1_555
Li1 O11 2.139072 1_544
Li1 O8 2.163412 1_545
Li1 O3 2.163412 1_554
Li2 O5 2.073372 1_555
Li2 O6 2.073372 1_545
Li2 O4 2.106640 1_655
Li2 O7 2.106640 1_645
Li2 O1 2.146530 1_555
Li2 O10 2.146530 1_545
Li3 O3 2.126073 1_555
Li3 O8 2.126073 1_545
Li3 O11 2.159149 1_545
Li3 O0 2.159149 1_555
Li3 O4 2.169373 1_555
Li3 O7 2.169373 1_545
Li4 O10 2.111326 1_554
Li4 O1 2.111326 1_555
Li4 O2 2.144526 1_555
Li4 O9 2.144526 1_554
Li4 O6 2.178240 1_555
Li4 O5 2.178240 1_554
Li5 O0 2.073846 1_555
Li5 O11 2.073846 1_554
Li5 O2 2.124978 1_555
Li5 O9 2.124978 1_554
Li5 O8 2.140614 1_555
Li5 O3 2.140614 1_554
Li6 O11 2.076868 1_555
Li6 O0 2.076868 1_555
Li6 O4 2.105651 1_555
Li6 O7 2.105651 1_555
Li6 O10 2.119336 1_455
Li6 O1 2.119336 1_455
Li7 O2 2.114793 1_555
Li7 O9 2.114793 1_555
Li7 O5 2.146318 1_555
Li7 O6 2.146318 1_555
Li7 O10 2.189670 1_555
Li7 O1 2.189670 1_555
Mn0 O7 1.933479 1_555
Mn0 O4 1.933479 1_554
Mn0 O0 1.945956 1_555
Mn0 O11 1.945956 1_554
Mn0 O10 1.964885 1_454
Mn0 O1 1.964885 1_455
Fe0 O1 1.942568 1_555
Fe0 O10 1.942568 1_544
Fe0 O6 1.988096 1_545
Fe0 O5 1.988096 1_554
Fe0 O7 1.995699 1_645
Fe0 O4 1.995699 1_654
Fe1 O9 1.918374 1_545
Fe1 O2 1.918374 1_555
Fe1 O5 1.979918 1_555
Fe1 O6 1.979918 1_545
Fe1 O3 2.009514 1_555
Fe1 O8 2.009514 1_545
Fe2 O3 1.933341 1_555
Fe2 O8 1.933341 1_555
Fe2 O11 2.020435 1_555
Fe2 O0 2.020435 1_555
Fe2 O9 2.049287 1_555
Fe2 O2 2.049287 1_555
