# generated using pymatgen
data_Li2B5SbO10
_symmetry_space_group_name_H-M   'P 1'
_cell_length_a   16.31032000
_cell_length_b   6.95551200
_cell_length_c   7.10775267
_cell_angle_alpha   84.41304939
_cell_angle_beta   90.00000000
_cell_angle_gamma   90.00000000
_symmetry_Int_Tables_number   1
_chemical_formula_structural   Li2B5SbO10
_chemical_formula_sum   'Li8 B20 Sb4 O40'
_cell_volume   802.52007439
_cell_formula_units_Z   4
loop_
 _symmetry_equiv_pos_site_id
 _symmetry_equiv_pos_as_xyz
  1  'x, y, z'
loop_
 _atom_site_type_symbol
 _atom_site_label
 _atom_site_symmetry_multiplicity
 _atom_site_fract_x
 _atom_site_fract_y
 _atom_site_fract_z
 _atom_site_occupancy
  Li  Li0  1  0.84305700  0.96804900  0.10594200  1
  Li  Li1  1  0.65694300  0.46804900  0.10594200  1
  Li  Li2  1  0.09124000  0.41565800  0.32365200  1
  Li  Li3  1  0.40876000  0.91565800  0.32365200  1
  Li  Li4  1  0.59124000  0.08434200  0.67634800  1
  Li  Li5  1  0.90876000  0.58434200  0.67634800  1
  Li  Li6  1  0.34305700  0.53195100  0.89405800  1
  Li  Li7  1  0.15694300  0.03195100  0.89405800  1
  B  B0  1  0.97492000  0.10362400  0.19770300  1
  B  B1  1  0.52508000  0.60362400  0.19770300  1
  B  B2  1  0.23603700  0.52323500  0.22510100  1
  B  B3  1  0.26396300  0.02323500  0.22510100  1
  B  B4  1  0.48328100  0.26381400  0.25992600  1
  B  B5  1  0.01671900  0.76381400  0.25992600  1
  B  B6  1  0.38446700  0.52498800  0.31721100  1
  B  B7  1  0.11553300  0.02498800  0.31721100  1
  B  B8  1  0.72701800  0.42479400  0.45287000  1
  B  B9  1  0.77298200  0.92479400  0.45287000  1
  B  B10  1  0.22701800  0.07520600  0.54713000  1
  B  B11  1  0.27298200  0.57520600  0.54713000  1
  B  B12  1  0.88446700  0.97501200  0.68278900  1
  B  B13  1  0.61553300  0.47501200  0.68278900  1
  B  B14  1  0.98328100  0.23618600  0.74007400  1
  B  B15  1  0.51671900  0.73618600  0.74007400  1
  B  B16  1  0.73603700  0.97676500  0.77489900  1
  B  B17  1  0.76396300  0.47676500  0.77489900  1
  B  B18  1  0.47492000  0.39637600  0.80229700  1
  B  B19  1  0.02508000  0.89637600  0.80229700  1
  Sb  Sb0  1  0.86698600  0.49066800  0.16835200  1
  Sb  Sb1  1  0.63301400  0.99066800  0.16835200  1
  Sb  Sb2  1  0.36698600  0.00933200  0.83164800  1
  Sb  Sb3  1  0.13301400  0.50933200  0.83164800  1
  O  O0  1  0.17032700  0.51192300  0.10809000  1
  O  O1  1  0.32967300  0.01192300  0.10809000  1
  O  O2  1  0.90596000  0.21618700  0.15613800  1
  O  O3  1  0.59404000  0.71618700  0.15613800  1
  O  O4  1  0.18369000  0.03849300  0.16838900  1
  O  O5  1  0.53863200  0.40729500  0.17569000  1
  O  O6  1  0.31631000  0.53849300  0.16838900  1
  O  O7  1  0.96136800  0.90729500  0.17569000  1
  O  O8  1  0.50029700  0.07418500  0.25499600  1
  O  O9  1  0.99970300  0.57418500  0.25499600  1
  O  O10  1  0.75032200  0.38207100  0.27539600  1
  O  O11  1  0.04957700  0.16557400  0.25146500  1
  O  O12  1  0.74967800  0.88207100  0.27539600  1
  O  O13  1  0.45042300  0.66557400  0.25146500  1
  O  O14  1  0.41454600  0.32853200  0.34513700  1
  O  O15  1  0.08545400  0.82853200  0.34513700  1
  O  O16  1  0.21479100  0.51462700  0.41871100  1
  O  O17  1  0.28520900  0.01462700  0.41871100  1
  O  O18  1  0.64723000  0.40710900  0.50764000  1
  O  O19  1  0.14723000  0.09289100  0.49236000  1
  O  O20  1  0.85277000  0.90710900  0.50764000  1
  O  O21  1  0.35277000  0.59289100  0.49236000  1
  O  O22  1  0.71479100  0.98537300  0.58128900  1
  O  O23  1  0.78520900  0.48537300  0.58128900  1
  O  O24  1  0.91454600  0.17146800  0.65486300  1
  O  O25  1  0.58545400  0.67146800  0.65486300  1
  O  O26  1  0.54957700  0.33442600  0.74853500  1
  O  O27  1  0.25032200  0.11792900  0.72460400  1
  O  O28  1  0.95042300  0.83442600  0.74853500  1
  O  O29  1  0.24967800  0.61792900  0.72460400  1
  O  O30  1  0.00029700  0.42581500  0.74500400  1
  O  O31  1  0.49970300  0.92581500  0.74500400  1
  O  O32  1  0.03863200  0.09270500  0.82431000  1
  O  O33  1  0.68369000  0.46150700  0.83161100  1
  O  O34  1  0.46136800  0.59270500  0.82431000  1
  O  O35  1  0.81631000  0.96150700  0.83161100  1
  O  O36  1  0.40596000  0.28381300  0.84386200  1
  O  O37  1  0.09404000  0.78381300  0.84386200  1
  O  O38  1  0.67032700  0.98807700  0.89191000  1
  O  O39  1  0.82967300  0.48807700  0.89191000  1
loop_
_geom_bond_atom_site_label_1
_geom_bond_atom_site_label_2
_geom_bond_distance
_geom_bond_site_symmetry_2
Li0 O12 1.996924 1_555
Li0 O35 2.002918 1_554
Li0 O7 2.026636 1_555
Li0 O2 2.068484 1_565
Li1 O10 1.996924 1_555
Li1 O33 2.002918 1_554
Li1 O5 2.026636 1_555
Li1 O3 2.068484 1_555
Li2 O9 1.891617 1_455
Li2 O11 1.981045 1_555
Li2 O0 2.063982 1_555
Li2 O16 2.254284 1_555
Li3 O8 1.891617 1_565
Li3 O13 1.981045 1_555
Li3 O1 2.063982 1_565
Li3 O17 2.254284 1_565
Li4 O31 1.891617 1_545
Li4 O26 1.981045 1_555
Li4 O38 2.063982 1_545
Li4 O22 2.254284 1_545
Li5 O30 1.891617 1_655
Li5 O28 1.981045 1_555
Li5 O39 2.063982 1_555
Li5 O23 2.254284 1_555
Li6 O29 1.996924 1_555
Li6 O6 2.002918 1_556
Li6 O34 2.026636 1_555
Li6 O36 2.068484 1_555
Li7 O27 1.996924 1_555
Li7 O4 2.002918 1_556
Li7 O32 2.026636 1_555
Li7 O37 2.068484 1_545
B0 O11 1.358858 1_655
B0 O2 1.385753 1_555
B0 O7 1.407025 1_545
B1 O13 1.358858 1_555
B1 O3 1.385753 1_555
B1 O5 1.407025 1_555
B2 O0 1.363555 1_555
B2 O6 1.370995 1_555
B2 O16 1.414696 1_555
B3 O1 1.363555 1_555
B3 O4 1.370995 1_555
B3 O17 1.414696 1_555
B4 O8 1.351639 1_555
B4 O14 1.370906 1_555
B4 O5 1.432877 1_555
B5 O9 1.351639 1_455
B5 O15 1.370906 1_555
B5 O7 1.432877 1_455
B6 O14 1.447227 1_555
B6 O21 1.467871 1_555
B6 O13 1.497616 1_555
B6 O6 1.531075 1_555
B7 O15 1.447227 1_545
B7 O19 1.467871 1_555
B7 O11 1.497616 1_555
B7 O4 1.531075 1_555
B8 O18 1.360483 1_555
B8 O10 1.377316 1_555
B8 O23 1.409396 1_555
B9 O20 1.360483 1_555
B9 O12 1.377316 1_555
B9 O22 1.409396 1_555
B10 O19 1.360483 1_555
B10 O27 1.377316 1_555
B10 O17 1.409396 1_555
B11 O21 1.360483 1_555
B11 O29 1.377316 1_555
B11 O16 1.409396 1_555
B12 O24 1.447227 1_565
B12 O20 1.467871 1_555
B12 O28 1.497616 1_555
B12 O35 1.531075 1_555
B13 O25 1.447227 1_555
B13 O18 1.467871 1_555
B13 O26 1.497616 1_555
B13 O33 1.531075 1_555
B14 O30 1.351639 1_655
B14 O24 1.370906 1_555
B14 O32 1.432877 1_655
B15 O31 1.351639 1_555
B15 O25 1.370906 1_555
B15 O34 1.432877 1_555
B16 O38 1.363555 1_555
B16 O35 1.370995 1_555
B16 O22 1.414696 1_555
B17 O39 1.363555 1_555
B17 O33 1.370995 1_555
B17 O23 1.414696 1_555
B18 O26 1.358858 1_555
B18 O36 1.385753 1_555
B18 O34 1.407025 1_555
B19 O28 1.358858 1_455
B19 O37 1.385753 1_555
B19 O32 1.407025 1_565
O0 Sb3 2.058727 1_554
O1 Sb2 2.058727 1_554
O2 Sb0 2.022071 1_555
O3 Sb1 2.022071 1_555
O8 Sb1 2.339254 1_545
O9 Sb0 2.339254 1_555
O10 Sb0 2.158305 1_555
O12 Sb1 2.158305 1_555
O27 Sb2 2.158305 1_555
O29 Sb3 2.158305 1_555
O30 Sb3 2.339254 1_555
O31 Sb2 2.339254 1_565
O36 Sb2 2.022071 1_555
O37 Sb3 2.022071 1_555
O38 Sb1 2.058727 1_556
O39 Sb0 2.058727 1_556
