# generated using pymatgen
data_Li2MnFe(BO3)2
_symmetry_space_group_name_H-M   'P 1'
_cell_length_a   3.16511100
_cell_length_b   8.24376100
_cell_length_c   14.30912600
_cell_angle_alpha   89.84852712
_cell_angle_beta   90.00000000
_cell_angle_gamma   90.00000000
_symmetry_Int_Tables_number   1
_chemical_formula_structural   Li2MnFe(BO3)2
_chemical_formula_sum   'Li6 Mn3 Fe3 B6 O18'
_cell_volume   373.35840109
_cell_formula_units_Z   3
loop_
 _symmetry_equiv_pos_site_id
 _symmetry_equiv_pos_as_xyz
  1  'x, y, z'
loop_
 _atom_site_type_symbol
 _atom_site_label
 _atom_site_symmetry_multiplicity
 _atom_site_fract_x
 _atom_site_fract_y
 _atom_site_fract_z
 _atom_site_occupancy
  Li  Li0  1  0.50000000  0.70724300  0.99023800  1
  Li  Li1  1  0.50000000  0.65831200  0.35759400  1
  Li  Li2  1  0.50000000  0.63204300  0.65113300  1
  Li  Li3  1  0.50000000  0.20724000  0.49203700  1
  Li  Li4  1  0.50000000  0.15863600  0.85755300  1
  Li  Li5  1  0.50000000  0.13298300  0.15066600  1
  Mn  Mn0  1  0.00000000  0.86674500  0.50628300  1
  Mn  Mn1  1  0.00000000  0.80818100  0.17976600  1
  Mn  Mn2  1  0.00000000  0.36550000  0.00594500  1
  Fe  Fe0  1  0.00000000  0.82505100  0.81607900  1
  Fe  Fe1  1  0.00000000  0.32447800  0.31664900  1
  Fe  Fe2  1  0.00000000  0.31208100  0.68024000  1
  B  B0  1  0.50000000  0.00079600  0.66808100  1
  B  B1  1  0.00000000  0.00023200  0.99873200  1
  B  B2  1  0.50000000  0.00212900  0.33334500  1
  B  B3  1  0.50000000  0.49817800  0.16759100  1
  B  B4  1  0.00000000  0.49875300  0.49931400  1
  B  B5  1  0.50000000  0.50132100  0.83249700  1
  O  O0  1  0.50000000  0.99100100  0.43008800  1
  O  O1  1  0.50000000  0.98265600  0.76466900  1
  O  O2  1  0.50000000  0.86297200  0.61135400  1
  O  O3  1  0.50000000  0.86189700  0.27981500  1
  O  O4  1  0.00000000  0.84609100  0.95815300  1
  O  O5  1  0.50000000  0.65148000  0.12593200  1
  O  O6  1  0.50000000  0.65336500  0.79011600  1
  O  O7  1  0.00000000  0.63651300  0.44329800  1
  O  O8  1  0.00000000  0.51251800  0.59653400  1
  O  O9  1  0.50000000  0.48902200  0.92909200  1
  O  O10  1  0.50000000  0.48242800  0.26438500  1
  O  O11  1  0.50000000  0.36076000  0.11133100  1
  O  O12  1  0.50000000  0.36162400  0.77789500  1
  O  O13  1  0.00000000  0.34550100  0.45819200  1
  O  O14  1  0.50000000  0.15498600  0.62785900  1
  O  O15  1  0.50000000  0.15351300  0.29022300  1
  O  O16  1  0.00000000  0.13693900  0.94176200  1
  O  O17  1  0.00000000  0.01683100  0.09555900  1
loop_
_geom_bond_atom_site_label_1
_geom_bond_atom_site_label_2
_geom_bond_distance
_geom_bond_site_symmetry_2
Li0 O5 1.994155 1_556
Li0 O9 2.002527 1_555
Li0 O4 2.005657 1_555
Li0 O4 2.005657 1_655
Li1 O10 1.972670 1_555
Li1 O7 2.009862 1_655
Li1 O7 2.009862 1_555
Li1 O3 2.011341 1_555
Li2 O2 1.985554 1_555
Li2 O6 1.996941 1_555
Li2 O8 2.022328 1_655
Li2 O8 2.022328 1_555
Li3 O14 1.989549 1_555
Li3 O0 1.992954 1_545
Li3 O13 2.008787 1_555
Li3 O13 2.008787 1_655
Li4 O1 1.970104 1_545
Li4 O16 1.996812 1_655
Li4 O16 1.996812 1_555
Li4 O12 2.022216 1_555
Li5 O11 1.958856 1_555
Li5 O15 2.004544 1_555
Li5 O17 2.011746 1_555
Li5 O17 2.011746 1_655
Mn0 O7 2.103244 1_555
Mn0 O0 2.176364 1_555
Mn0 O0 2.176364 1_455
Mn0 O2 2.183034 1_555
Mn0 O2 2.183034 1_455
Mn1 O17 2.097499 1_565
Mn1 O3 2.180239 1_555
Mn1 O3 2.180239 1_455
Mn1 O5 2.184467 1_455
Mn1 O5 2.184467 1_555
Mn2 O16 2.098292 1_554
Mn2 O9 2.178257 1_454
Mn2 O9 2.178257 1_554
Mn2 O11 2.186254 1_455
Mn2 O11 2.186254 1_555
Fe0 O4 2.040797 1_555
Fe0 O6 2.156029 1_555
Fe0 O6 2.156029 1_455
Fe0 O1 2.174547 1_455
Fe0 O1 2.174547 1_555
Fe1 O13 2.033215 1_555
Fe1 O15 2.153295 1_555
Fe1 O15 2.153295 1_455
Fe1 O10 2.180387 1_555
Fe1 O10 2.180387 1_455
Fe2 O8 2.038244 1_555
Fe2 O12 2.151027 1_455
Fe2 O12 2.151027 1_555
Fe2 O14 2.179121 1_455
Fe2 O14 2.179121 1_555
B0 O1 1.389763 1_545
B0 O14 1.393947 1_555
B0 O2 1.398098 1_545
B1 O16 1.389159 1_555
B1 O17 1.392611 1_556
B1 O4 1.398477 1_545
B2 O0 1.387102 1_545
B2 O3 1.388458 1_545
B2 O15 1.390720 1_555
B3 O10 1.390768 1_555
B3 O11 1.391484 1_555
B3 O5 1.395890 1_555
B4 O7 1.388300 1_555
B4 O13 1.395091 1_555
B4 O8 1.396053 1_555
B5 O9 1.385636 1_555
B5 O6 1.390968 1_555
B5 O12 1.393358 1_555
