# generated using pymatgen
data_Li2MnCoO4
_symmetry_space_group_name_H-M   'P 1'
_cell_length_a   2.91730958
_cell_length_b   5.21227985
_cell_length_c   5.10917018
_cell_angle_alpha   69.92139940
_cell_angle_beta   89.99906090
_cell_angle_gamma   89.99955999
_symmetry_Int_Tables_number   1
_chemical_formula_structural   Li2MnCoO4
_chemical_formula_sum   'Li2 Mn1 Co1 O4'
_cell_volume   72.96744152
_cell_formula_units_Z   1
loop_
 _symmetry_equiv_pos_site_id
 _symmetry_equiv_pos_as_xyz
  1  'x, y, z'
loop_
 _atom_site_type_symbol
 _atom_site_label
 _atom_site_symmetry_multiplicity
 _atom_site_fract_x
 _atom_site_fract_y
 _atom_site_fract_z
 _atom_site_occupancy
  Li  Li0  1  0.50000000  0.50000000  0.00000000  1
  Li  Li1  1  0.00000000  0.00000000  0.00000000  1
  Mn  Mn0  1  0.50000000  0.00000000  0.50000000  1
  Co  Co0  1  0.00000000  0.50000000  0.50000000  1
  O  O0  1  0.00000600  0.77992600  0.73034400  1
  O  O1  1  0.99999400  0.22007400  0.26965600  1
  O  O2  1  0.50000800  0.23689000  0.72019500  1
  O  O3  1  0.49999200  0.76311000  0.27980600  1
loop_
_geom_bond_atom_site_label_1
_geom_bond_atom_site_label_2
_geom_bond_distance
_geom_bond_site_symmetry_2
Li0 O1 2.185036 1_555
Li0 O0 2.185036 1_554
Li0 O0 2.185045 1_654
Li0 O1 2.185045 1_455
Li0 O2 2.295767 1_554
Li0 O3 2.295771 1_555
Li1 O1 2.073409 1_455
Li1 O0 2.073409 1_544
Li1 O2 2.117526 1_454
Li1 O3 2.117528 1_545
Li1 O2 2.117539 1_554
Li1 O3 2.117541 1_445
Mn0 O3 1.934940 1_545
Mn0 O2 1.934944 1_555
Mn0 O1 1.975222 1_555
Mn0 O0 1.975222 1_545
Mn0 O0 1.975264 1_645
Mn0 O1 1.975264 1_455
Co0 O3 2.052957 1_555
Co0 O2 2.052958 1_455
Co0 O3 2.053001 1_455
Co0 O2 2.053003 1_555
Co0 O1 2.166298 1_455
Co0 O0 2.166298 1_555
