# generated using pymatgen
data_Li2Mn2F7
_symmetry_space_group_name_H-M   'P 1'
_cell_length_a   5.42735772
_cell_length_b   5.42735772
_cell_length_c   9.82232836
_cell_angle_alpha   84.12321283
_cell_angle_beta   84.12321283
_cell_angle_gamma   108.16109423
_symmetry_Int_Tables_number   1
_chemical_formula_structural   Li2Mn2F7
_chemical_formula_sum   'Li4 Mn4 F14'
_cell_volume   270.69576384
_cell_formula_units_Z   2
loop_
 _symmetry_equiv_pos_site_id
 _symmetry_equiv_pos_as_xyz
  1  'x, y, z'
loop_
 _atom_site_type_symbol
 _atom_site_label
 _atom_site_symmetry_multiplicity
 _atom_site_fract_x
 _atom_site_fract_y
 _atom_site_fract_z
 _atom_site_occupancy
  Li  Li0  1  0.81256600  0.75040600  0.70699000  1
  Li  Li1  1  0.75040600  0.81256600  0.20699000  1
  Li  Li2  1  0.24959400  0.18743400  0.79301000  1
  Li  Li3  1  0.18743400  0.24959400  0.29301000  1
  Mn  Mn0  1  0.69702000  0.29606900  0.03583300  1
  Mn  Mn1  1  0.70393100  0.30298000  0.46416700  1
  Mn  Mn2  1  0.29606900  0.69702000  0.53583300  1
  Mn  Mn3  1  0.30298000  0.70393100  0.96416700  1
  F  F0  1  0.66517400  0.95412000  0.57147200  1
  F  F1  1  0.88581900  0.49521400  0.61351300  1
  F  F2  1  0.59919900  0.63012800  0.87387600  1
  F  F3  1  0.95412000  0.66517400  0.07147200  1
  F  F4  1  0.16425900  0.83574100  0.75000000  1
  F  F5  1  0.49521400  0.88581900  0.11351300  1
  F  F6  1  0.63012800  0.59919900  0.37387600  1
  F  F7  1  0.36987200  0.40080100  0.62612400  1
  F  F8  1  0.50478600  0.11418100  0.88648700  1
  F  F9  1  0.83574100  0.16425900  0.25000000  1
  F  F10  1  0.04588000  0.33482600  0.92852800  1
  F  F11  1  0.40080100  0.36987200  0.12612400  1
  F  F12  1  0.11418100  0.50478600  0.38648700  1
  F  F13  1  0.33482600  0.04588000  0.42852800  1
loop_
_geom_bond_atom_site_label_1
_geom_bond_atom_site_label_2
_geom_bond_distance
_geom_bond_site_symmetry_2
F0 Mn1 2.009407 1_565
F0 Li0 2.025386 1_555
F0 Mn2 2.140975 1_555
F1 Li0 1.856954 1_555
F1 Mn1 2.045192 1_555
F1 Mn2 2.167984 1_655
F2 Li0 1.837135 1_555
F2 Mn3 1.927133 1_555
F2 Mn0 2.506400 1_556
F3 Mn3 2.009407 1_654
F3 Li1 2.025386 1_555
F3 Mn0 2.140975 1_555
F4 Li0 1.921057 1_455
F4 Li2 1.921057 1_565
F4 Mn2 2.419862 1_555
F4 Mn3 2.419862 1_555
F5 Li1 1.856954 1_555
F5 Mn3 2.045192 1_554
F5 Mn0 2.167984 1_565
F6 Li1 1.837135 1_555
F6 Mn1 1.927133 1_555
F6 Mn2 2.506400 1_555
F7 Li2 1.837135 1_555
F7 Mn2 1.927133 1_555
F7 Mn1 2.506400 1_555
F8 Li2 1.856954 1_555
F8 Mn0 2.045192 1_556
F8 Mn3 2.167984 1_545
F9 Li1 1.921057 1_545
F9 Li3 1.921057 1_655
F9 Mn0 2.419862 1_555
F9 Mn1 2.419862 1_555
F10 Mn0 2.009407 1_456
F10 Li2 2.025386 1_555
F10 Mn3 2.140975 1_555
F11 Li3 1.837135 1_555
F11 Mn0 1.927133 1_555
F11 Mn3 2.506400 1_554
F12 Li3 1.856954 1_555
F12 Mn2 2.045192 1_555
F12 Mn1 2.167984 1_455
F13 Mn2 2.009407 1_545
F13 Li3 2.025386 1_555
F13 Mn1 2.140975 1_555
