# generated using pymatgen
data_FeOF
_symmetry_space_group_name_H-M   'P 1'
_cell_length_a   14.14238266
_cell_length_b   14.17154058
_cell_length_c   3.11061200
_cell_angle_alpha   90.00000000
_cell_angle_beta   90.00000000
_cell_angle_gamma   89.90743240
_symmetry_Int_Tables_number   1
_chemical_formula_structural   FeOF
_chemical_formula_sum   'Fe18 O18 F18'
_cell_volume   623.42602070
_cell_formula_units_Z   18
loop_
 _symmetry_equiv_pos_site_id
 _symmetry_equiv_pos_as_xyz
  1  'x, y, z'
loop_
 _atom_site_type_symbol
 _atom_site_label
 _atom_site_symmetry_multiplicity
 _atom_site_fract_x
 _atom_site_fract_y
 _atom_site_fract_z
 _atom_site_occupancy
  Fe  Fe0  1  0.01204600  0.99790600  0.00000000  1
  Fe  Fe1  1  0.00798100  0.32830900  0.00000000  1
  Fe  Fe2  1  0.00521700  0.66988300  0.00000000  1
  Fe  Fe3  1  0.15348500  0.16531000  0.50000000  1
  Fe  Fe4  1  0.14869300  0.49813300  0.50000000  1
  Fe  Fe5  1  0.15327300  0.82991200  0.50000000  1
  Fe  Fe6  1  0.34559800  0.99728500  0.00000000  1
  Fe  Fe7  1  0.34360500  0.33346300  0.00000000  1
  Fe  Fe8  1  0.34365900  0.66275800  0.00000000  1
  Fe  Fe9  1  0.48791700  0.49759000  0.50000000  1
  Fe  Fe10  1  0.48548400  0.16589300  0.50000000  1
  Fe  Fe11  1  0.48589500  0.82874400  0.50000000  1
  Fe  Fe12  1  0.66985900  0.00118500  0.00000000  1
  Fe  Fe13  1  0.68021600  0.33000500  0.00000000  1
  Fe  Fe14  1  0.68026400  0.66509900  0.00000000  1
  Fe  Fe15  1  0.84158300  0.18395000  0.50000000  1
  Fe  Fe16  1  0.82121800  0.49726700  0.50000000  1
  Fe  Fe17  1  0.83565000  0.81743400  0.50000000  1
  O  O0  1  0.06807300  0.27174500  0.50000000  1
  O  O1  1  0.06214600  0.60292800  0.50000000  1
  O  O2  1  0.06412600  0.93553000  0.50000000  1
  O  O3  1  0.09988400  0.10320300  0.00000000  1
  O  O4  1  0.09742200  0.43577800  0.00000000  1
  O  O5  1  0.10436000  0.76728500  0.00000000  1
  O  O6  1  0.39613900  0.27022600  0.50000000  1
  O  O7  1  0.39709600  0.60114900  0.50000000  1
  O  O8  1  0.39942400  0.93530300  0.50000000  1
  O  O9  1  0.43496300  0.10154100  0.00000000  1
  O  O10  1  0.43473200  0.43587400  0.00000000  1
  O  O11  1  0.43399200  0.76734600  0.00000000  1
  O  O12  1  0.72979500  0.26429800  0.50000000  1
  O  O13  1  0.73184500  0.60284900  0.50000000  1
  O  O14  1  0.76783900  0.43419600  0.00000000  1
  O  O15  1  0.76878700  0.77031600  0.00000000  1
  O  O16  1  0.90325400  0.23557600  0.00000000  1
  O  O17  1  0.93876100  0.72852400  0.50000000  1
  F  F0  1  0.23211200  0.23309800  0.00000000  1
  F  F1  1  0.22907900  0.56611500  0.00000000  1
  F  F2  1  0.23285200  0.89973400  0.00000000  1
  F  F3  1  0.26730900  0.06636500  0.50000000  1
  F  F4  1  0.26762800  0.73253700  0.50000000  1
  F  F5  1  0.26464000  0.40109400  0.50000000  1
  F  F6  1  0.56437500  0.23337800  0.00000000  1
  F  F7  1  0.56587900  0.56692400  0.00000000  1
  F  F8  1  0.56751000  0.89792100  0.00000000  1
  F  F9  1  0.60064500  0.07077100  0.50000000  1
  F  F10  1  0.60086800  0.39887900  0.50000000  1
  F  F11  1  0.60098000  0.73414900  0.50000000  1
  F  F12  1  0.73846500  0.93300200  0.50000000  1
  F  F13  1  0.77246300  0.10225300  0.00000000  1
  F  F14  1  0.89816600  0.56303600  0.00000000  1
  F  F15  1  0.89816000  0.90050900  0.00000000  1
  F  F16  1  0.93054000  0.06393900  0.50000000  1
  F  F17  1  0.93405100  0.40250300  0.50000000  1
loop_
_geom_bond_atom_site_label_1
_geom_bond_atom_site_label_2
_geom_bond_distance
_geom_bond_site_symmetry_2
Fe0 O2 1.934102 1_555
Fe0 O2 1.934102 1_554
Fe0 O3 1.943160 1_565
Fe1 O0 1.944626 1_554
Fe1 O0 1.944626 1_555
Fe1 O4 1.981351 1_555
Fe1 O16 1.981655 1_455
Fe2 O5 1.969141 1_555
Fe2 O1 1.991241 1_554
Fe2 O1 1.991241 1_555
Fe2 O17 1.997594 1_455
Fe2 O17 1.997594 1_454
Fe3 O0 1.930886 1_555
Fe3 O3 1.941760 1_556
Fe3 O3 1.941760 1_555
Fe4 O1 1.922966 1_555
Fe4 O4 1.930719 1_556
Fe4 O4 1.930719 1_555
Fe5 O5 1.920200 1_556
Fe5 O5 1.920200 1_555
Fe5 O2 1.955432 1_555
Fe6 O8 1.941092 1_555
Fe6 O8 1.941092 1_554
Fe6 O9 1.945822 1_565
Fe7 O6 1.942144 1_554
Fe7 O6 1.942144 1_555
Fe7 O10 1.942489 1_555
Fe8 O7 1.936559 1_555
Fe8 O7 1.936559 1_554
Fe8 O11 1.958321 1_555
Fe9 O10 1.936955 1_556
Fe9 O10 1.936955 1_555
Fe9 O7 1.948712 1_555
Fe10 O9 1.939912 1_556
Fe10 O9 1.939912 1_555
Fe10 O6 1.943364 1_555
Fe11 O11 1.927933 1_555
Fe11 O11 1.927933 1_556
Fe11 O8 1.941636 1_555
Fe13 O14 1.929175 1_555
Fe13 O12 1.943084 1_554
Fe13 O12 1.943084 1_555
Fe14 O13 1.930615 1_555
Fe14 O13 1.930615 1_554
Fe14 O15 1.948510 1_555
Fe15 O16 1.927951 1_555
Fe15 O16 1.927951 1_556
Fe15 O12 1.946822 1_555
Fe16 O14 1.946777 1_555
Fe16 O14 1.946777 1_556
Fe16 O13 1.957101 1_555
Fe17 O17 1.925641 1_555
Fe17 O15 1.939343 1_555
Fe17 O15 1.939343 1_556
F0 Fe7 2.125202 1_555
F0 Fe3 2.140510 1_555
F0 Fe3 2.140510 1_554
F1 Fe8 2.123377 1_555
F1 Fe4 2.154786 1_555
F1 Fe4 2.154786 1_554
F2 Fe6 2.112038 1_555
F2 Fe5 2.160617 1_555
F2 Fe5 2.160617 1_554
F3 Fe3 2.133108 1_555
F3 Fe6 2.144699 1_546
F3 Fe6 2.144699 1_545
F4 Fe5 2.124280 1_555
F4 Fe8 2.132979 1_556
F4 Fe8 2.132979 1_555
F5 Fe4 2.138388 1_555
F5 Fe7 2.140387 1_555
F5 Fe7 2.140387 1_556
F6 Fe13 2.136890 1_555
F6 Fe10 2.140529 1_555
F6 Fe10 2.140529 1_554
F7 Fe14 2.135378 1_555
F7 Fe9 2.145595 1_554
F7 Fe9 2.145595 1_555
F8 Fe12 2.059988 1_565
F8 Fe11 2.171625 1_555
F8 Fe11 2.171625 1_554
F9 Fe12 2.084821 1_556
F9 Fe12 2.084821 1_555
F9 Fe10 2.112482 1_555
F10 Fe9 2.121636 1_555
F10 Fe13 2.151134 1_555
F10 Fe13 2.151134 1_556
F11 Fe11 2.106905 1_555
F11 Fe14 2.151794 1_555
F11 Fe14 2.151794 1_556
F12 Fe12 2.071471 1_565
F12 Fe12 2.071471 1_566
F12 Fe17 2.136373 1_555
F13 Fe12 2.040529 1_555
F13 Fe15 2.172238 1_555
F13 Fe15 2.172238 1_554
F14 Fe16 2.115469 1_555
F14 Fe16 2.115469 1_554
F14 Fe2 2.142949 1_655
F15 Fe0 2.122831 1_655
F15 Fe17 2.142406 1_554
F15 Fe17 2.142406 1_555
F16 Fe15 2.113843 1_555
F16 Fe0 2.149392 1_645
F16 Fe0 2.149392 1_646
F17 Fe16 2.083973 1_555
F17 Fe1 2.148051 1_655
F17 Fe1 2.148051 1_656
