# generated using pymatgen
data_Na3CrBAsO7
_symmetry_space_group_name_H-M   'P 1'
_cell_length_a   8.61727047
_cell_length_b   8.61711623
_cell_length_c   10.41095985
_cell_angle_alpha   107.54067675
_cell_angle_beta   107.54439798
_cell_angle_gamma   103.02843047
_symmetry_Int_Tables_number   1
_chemical_formula_structural   Na3CrBAsO7
_chemical_formula_sum   'Na12 Cr4 B4 As4 O28'
_cell_volume   658.93927338
_cell_formula_units_Z   4
loop_
 _symmetry_equiv_pos_site_id
 _symmetry_equiv_pos_as_xyz
  1  'x, y, z'
loop_
 _atom_site_type_symbol
 _atom_site_label
 _atom_site_symmetry_multiplicity
 _atom_site_fract_x
 _atom_site_fract_y
 _atom_site_fract_z
 _atom_site_occupancy
  Na  Na0  1  0.54021100  0.29021500  0.07251400  1
  Na  Na1  1  0.04019100  0.79019000  0.07251100  1
  Na  Na2  1  0.95980900  0.20981200  0.92750900  1
  Na  Na3  1  0.45981700  0.70982100  0.92750400  1
  Na  Na4  1  0.24656200  0.24612800  0.24406700  1
  Na  Na5  1  0.74651900  0.74608800  0.24401800  1
  Na  Na6  1  0.49611800  0.99655000  0.24404900  1
  Na  Na7  1  0.99613900  0.49653900  0.24405500  1
  Na  Na8  1  0.00388700  0.50347000  0.75596900  1
  Na  Na9  1  0.50387400  0.00347500  0.75596400  1
  Na  Na10  1  0.25345400  0.25389300  0.75596200  1
  Na  Na11  1  0.75347500  0.75389200  0.75597200  1
  Cr  Cr0  1  0.42976500  0.67978800  0.32826200  1
  Cr  Cr1  1  0.07027200  0.82021200  0.67175300  1
  Cr  Cr2  1  0.92972700  0.17977100  0.32819600  1
  Cr  Cr3  1  0.57025500  0.32022600  0.67179900  1
  B  B0  1  0.76974000  0.01973300  0.06439200  1
  B  B1  1  0.26975300  0.51975800  0.06442000  1
  B  B2  1  0.73023400  0.48022500  0.93556800  1
  B  B3  1  0.23026300  0.98025800  0.93559400  1
  As  As0  1  0.69434900  0.44434200  0.42414800  1
  As  As1  1  0.19433000  0.94433700  0.42413700  1
  As  As2  1  0.80565600  0.05566100  0.57585500  1
  As  As3  1  0.30565500  0.55565400  0.57586400  1
  O  O0  1  0.32030700  0.07031000  0.08106900  1
  O  O1  1  0.82019800  0.57015400  0.08107400  1
  O  O2  1  0.17973100  0.42973200  0.91890800  1
  O  O3  1  0.67977200  0.92976700  0.91885900  1
  O  O4  1  0.91990900  0.16991600  0.13044000  1
  O  O5  1  0.41989100  0.66993000  0.13043900  1
  O  O6  1  0.58006600  0.33006500  0.86952700  1
  O  O7  1  0.08012000  0.83008000  0.86957700  1
  O  O8  1  0.72626700  0.97627300  0.17261000  1
  O  O9  1  0.22628200  0.47628300  0.17262200  1
  O  O10  1  0.77374500  0.52374500  0.82739700  1
  O  O11  1  0.27372300  0.02371900  0.82738100  1
  O  O12  1  0.55683500  0.30684000  0.46641100  1
  O  O13  1  0.05682000  0.80682000  0.46640400  1
  O  O14  1  0.94316900  0.19317200  0.53359800  1
  O  O15  1  0.44317400  0.69316900  0.53359900  1
  O  O16  1  0.64750000  0.89750100  0.41569700  1
  O  O17  1  0.14748300  0.39748800  0.41571600  1
  O  O18  1  0.85250300  0.60250100  0.58431100  1
  O  O19  1  0.35248500  0.10252100  0.58429200  1
  O  O20  1  0.57650900  0.52317400  0.31003100  1
  O  O21  1  0.07647300  0.02312400  0.31000700  1
  O  O22  1  0.77316600  0.32651600  0.31001400  1
  O  O23  1  0.27317300  0.82654600  0.30999000  1
  O  O24  1  0.72681300  0.17347700  0.68996800  1
  O  O25  1  0.22684500  0.67347300  0.69002500  1
  O  O26  1  0.92349000  0.97682900  0.68997500  1
  O  O27  1  0.42349400  0.47683900  0.68997600  1
loop_
_geom_bond_atom_site_label_1
_geom_bond_atom_site_label_2
_geom_bond_distance
_geom_bond_site_symmetry_2
Na0 O6 2.350251 1_554
Na0 O0 2.402946 1_555
Na0 O22 2.549428 1_555
Na0 O20 2.549660 1_555
Na0 O11 2.759810 1_554
Na0 O1 2.960554 1_555
Na1 O7 2.350084 1_554
Na1 O1 2.404168 1_455
Na1 O23 2.549221 1_555
Na1 O21 2.549455 1_565
Na1 O10 2.759433 1_454
Na1 O0 2.962225 1_565
Na2 O4 2.349977 1_556
Na2 O2 2.403368 1_655
Na2 O24 2.549789 1_555
Na2 O26 2.549816 1_545
Na2 O9 2.759596 1_656
Na2 O3 2.960958 1_545
Na3 O5 2.350088 1_556
Na3 O3 2.403919 1_555
Na3 O25 2.549204 1_555
Na3 O27 2.549757 1_555
Na3 O8 2.759433 1_556
Na3 O2 2.961716 1_555
Na4 O0 2.261289 1_555
Na4 O9 2.341848 1_555
Na4 O17 2.374998 1_555
Na4 O21 2.538545 1_555
Na4 O4 2.538664 1_455
Na4 O12 2.772864 1_555
Na5 O1 2.261066 1_555
Na5 O8 2.341843 1_555
Na5 O16 2.375032 1_555
Na5 O20 2.538174 1_555
Na5 O5 2.538503 1_555
Na5 O13 2.773191 1_655
Na6 O0 2.261131 1_565
Na6 O8 2.341836 1_555
Na6 O16 2.374782 1_555
Na6 O23 2.537853 1_555
Na6 O5 2.538394 1_555
Na6 O12 2.773118 1_565
Na7 O1 2.260884 1_555
Na7 O9 2.341721 1_655
Na7 O17 2.374756 1_655
Na7 O22 2.538230 1_555
Na7 O4 2.538417 1_555
Na7 O13 2.773087 1_655
Na8 O2 2.260880 1_555
Na8 O10 2.341712 1_455
Na8 O18 2.374751 1_455
Na8 O25 2.537949 1_555
Na8 O7 2.538308 1_555
Na8 O14 2.773207 1_455
Na9 O3 2.260656 1_545
Na9 O11 2.341678 1_555
Na9 O19 2.374961 1_555
Na9 O6 2.538172 1_555
Na9 O24 2.538193 1_555
Na9 O15 2.773267 1_545
Na10 O2 2.260913 1_555
Na10 O11 2.341840 1_555
Na10 O19 2.374898 1_555
Na10 O27 2.538307 1_555
Na10 O6 2.538354 1_555
Na10 O14 2.773013 1_455
Na11 O3 2.260568 1_555
Na11 O10 2.341653 1_555
Na11 O18 2.374881 1_555
Na11 O26 2.538224 1_555
Na11 O7 2.538617 1_655
Na11 O15 2.773146 1_555
Cr0 O9 1.990807 1_555
Cr0 O5 2.010409 1_555
Cr0 O23 2.053289 1_555
Cr0 O20 2.053320 1_555
Cr0 O16 2.054873 1_555
Cr0 O15 2.071988 1_555
Cr1 O11 1.990659 1_565
Cr1 O7 2.010458 1_555
Cr1 O25 2.053034 1_555
Cr1 O26 2.053591 1_455
Cr1 O18 2.055024 1_455
Cr1 O13 2.071988 1_555
Cr2 O8 1.990535 1_545
Cr2 O4 2.009853 1_555
Cr2 O22 2.052921 1_555
Cr2 O21 2.053517 1_655
Cr2 O17 2.054902 1_655
Cr2 O14 2.072541 1_555
Cr3 O10 1.990762 1_555
Cr3 O6 2.009616 1_555
Cr3 O24 2.052917 1_555
Cr3 O27 2.053384 1_555
Cr3 O19 2.054926 1_555
Cr3 O12 2.072481 1_555
B0 O3 1.345557 1_544
B0 O4 1.412189 1_555
B0 O8 1.412610 1_545
B1 O2 1.345492 1_554
B1 O5 1.412005 1_555
B1 O9 1.412500 1_555
B2 O1 1.345300 1_556
B2 O6 1.412077 1_555
B2 O10 1.412518 1_555
B3 O0 1.345236 1_566
B3 O7 1.412060 1_555
B3 O11 1.412514 1_565
As0 O18 1.708182 1_555
As0 O20 1.724601 1_555
As0 O22 1.724634 1_555
As0 O12 1.731263 1_555
As1 O19 1.708213 1_565
As1 O21 1.724471 1_565
As1 O23 1.724742 1_555
As1 O13 1.731348 1_555
As2 O16 1.708165 1_545
As2 O26 1.724597 1_545
As2 O24 1.724620 1_555
As2 O14 1.731263 1_555
As3 O17 1.708174 1_555
As3 O27 1.724457 1_555
As3 O25 1.724739 1_555
As3 O15 1.731371 1_555
