# generated using pymatgen
data_LiMnVP2(HO5)2
_symmetry_space_group_name_H-M   'P 1'
_cell_length_a   6.78567400
_cell_length_b   7.43211375
_cell_length_c   7.99028129
_cell_angle_alpha   116.45600696
_cell_angle_beta   89.98428186
_cell_angle_gamma   91.11162323
_symmetry_Int_Tables_number   1
_chemical_formula_structural   LiMnVP2(HO5)2
_chemical_formula_sum   'Li2 Mn2 V2 P4 H4 O20'
_cell_volume   360.68158019
_cell_formula_units_Z   2
loop_
 _symmetry_equiv_pos_site_id
 _symmetry_equiv_pos_as_xyz
  1  'x, y, z'
loop_
 _atom_site_type_symbol
 _atom_site_label
 _atom_site_symmetry_multiplicity
 _atom_site_fract_x
 _atom_site_fract_y
 _atom_site_fract_z
 _atom_site_occupancy
  Li  Li0  1  0.17333900  0.61682800  0.76166800  1
  Li  Li1  1  0.82666100  0.38317200  0.23833200  1
  Mn  Mn0  1  0.00000000  0.00000000  0.00000000  1
  Mn  Mn1  1  0.50000000  0.50000000  0.50000000  1
  V  V0  1  0.25489900  0.74956000  0.24999800  1
  V  V1  1  0.74510100  0.25044000  0.75000200  1
  P  P0  1  0.60035100  0.72520600  0.95107800  1
  P  P1  1  0.09966300  0.22316300  0.45441800  1
  P  P2  1  0.90033700  0.77683700  0.54558200  1
  P  P3  1  0.39964900  0.27479400  0.04892200  1
  H  H0  1  0.03524100  0.31941500  0.97489100  1
  H  H1  1  0.51607200  0.83393000  0.49743400  1
  H  H2  1  0.48392800  0.16607000  0.50256600  1
  H  H3  1  0.96475900  0.68058500  0.02510900  1
  O  O0  1  0.04446500  0.82056200  0.70470800  1
  O  O1  1  0.00809800  0.70871600  0.35330800  1
  O  O2  1  0.45328500  0.66594300  0.79097900  1
  O  O3  1  0.73104700  0.90572300  0.97224900  1
  O  O4  1  0.08779400  0.76179400  0.04024600  1
  O  O5  1  0.23122200  0.41155600  0.48963400  1
  O  O6  1  0.41032900  0.72919700  0.44495800  1
  O  O7  1  0.73868300  0.54671600  0.92266100  1
  O  O8  1  0.51415100  0.21287500  0.86165000  1
  O  O9  1  0.76297600  0.95591700  0.58109700  1
  O  O10  1  0.23702400  0.04408300  0.41890300  1
  O  O11  1  0.48584900  0.78712500  0.13835000  1
  O  O12  1  0.26131700  0.45328400  0.07733900  1
  O  O13  1  0.58967100  0.27080300  0.55504200  1
  O  O14  1  0.76877800  0.58844400  0.51036600  1
  O  O15  1  0.91220600  0.23820600  0.95975400  1
  O  O16  1  0.26895300  0.09427700  0.02775100  1
  O  O17  1  0.54671500  0.33405700  0.20902100  1
  O  O18  1  0.99190200  0.29128400  0.64669200  1
  O  O19  1  0.95553500  0.17943800  0.29529200  1
loop_
_geom_bond_atom_site_label_1
_geom_bond_atom_site_label_2
_geom_bond_distance
_geom_bond_site_symmetry_2
Li0 O2 1.921933 1_555
Li0 O0 1.982484 1_555
Li0 O5 2.067479 1_555
Li0 O4 2.083066 1_556
Li0 O18 2.473496 1_455
Li1 O17 1.921933 1_555
Li1 O19 1.982484 1_555
Li1 O14 2.067479 1_555
Li1 O15 2.083066 1_554
Li1 O1 2.473496 1_655
Mn0 O3 1.919117 1_444
Mn0 O16 1.919117 1_555
Mn0 O15 2.034905 1_454
Mn0 O4 2.034905 1_545
Mn0 O19 2.155959 1_455
Mn0 O0 2.155959 1_544
Mn1 O14 1.915825 1_555
Mn1 O5 1.915825 1_555
Mn1 O6 2.042839 1_555
Mn1 O13 2.042839 1_555
Mn1 O2 2.118251 1_555
Mn1 O17 2.118251 1_555
H0 O15 0.995683 1_455
H1 O6 0.992091 1_555
H2 O13 0.992091 1_555
H3 O4 0.995683 1_655
O0 P2 1.516215 1_455
O1 P2 1.572263 1_455
O1 V0 1.944480 1_555
O2 P0 1.519190 1_555
O3 P0 1.538436 1_555
O4 V0 2.060040 1_555
O5 P1 1.561139 1_555
O6 V0 1.944002 1_555
O7 P0 1.572336 1_555
O7 V1 2.012642 1_555
O8 P3 1.566593 1_556
O8 V1 1.879874 1_555
O9 P2 1.559546 1_555
O9 V1 2.001379 1_565
O10 P1 1.559546 1_555
O10 V0 2.001379 1_545
O11 P0 1.566593 1_554
O11 V0 1.879874 1_555
O12 P3 1.572336 1_555
O12 V0 2.012642 1_555
O13 V1 1.944002 1_555
O14 P2 1.561139 1_555
O15 V1 2.060040 1_555
O16 P3 1.538436 1_555
O17 P3 1.519190 1_555
O18 P1 1.572263 1_655
O18 V1 1.944480 1_555
O19 P1 1.516215 1_655
