# generated using pymatgen
data_LiCrO2
_symmetry_space_group_name_H-M   'P 1'
_cell_length_a   5.24401913
_cell_length_b   5.73875100
_cell_length_c   5.26719518
_cell_angle_alpha   89.99994742
_cell_angle_beta   66.18786734
_cell_angle_gamma   90.00001023
_symmetry_Int_Tables_number   1
_chemical_formula_structural   LiCrO2
_chemical_formula_sum   'Li4 Cr4 O8'
_cell_volume   145.01817604
_cell_formula_units_Z   4
loop_
 _symmetry_equiv_pos_site_id
 _symmetry_equiv_pos_as_xyz
  1  'x, y, z'
loop_
 _atom_site_type_symbol
 _atom_site_label
 _atom_site_symmetry_multiplicity
 _atom_site_fract_x
 _atom_site_fract_y
 _atom_site_fract_z
 _atom_site_occupancy
  Li  Li0  1  0.50000000  0.25004000  0.00000000  1
  Li  Li1  1  0.00000100  0.75004000  0.50000000  1
  Li  Li2  1  0.50000100  0.99995900  0.49999900  1
  Li  Li3  1  0.00000000  0.49995900  0.00000000  1
  Cr  Cr0  1  0.50000500  0.49898100  0.50001000  1
  Cr  Cr1  1  0.49999300  0.75101500  0.00000000  1
  Cr  Cr2  1  0.99999900  0.99902000  0.99999700  1
  Cr  Cr3  1  0.99999700  0.25098700  0.49999700  1
  O  O0  1  0.76993600  0.24950200  0.26914000  1
  O  O1  1  0.26994700  0.74949700  0.76913500  1
  O  O2  1  0.73005400  0.50050300  0.73086600  1
  O  O3  1  0.23006400  0.00049700  0.23085900  1
  O  O4  1  0.23006400  0.24950200  0.73085900  1
  O  O5  1  0.73005300  0.74949500  0.23086300  1
  O  O6  1  0.76993700  0.00049800  0.76913900  1
  O  O7  1  0.26994900  0.50050400  0.26913500  1
loop_
_geom_bond_atom_site_label_1
_geom_bond_atom_site_label_2
_geom_bond_distance
_geom_bond_site_symmetry_2
Li0 O3 2.035509 1_555
Li0 O6 2.035513 1_554
Li0 O2 2.037150 1_554
Li0 O7 2.037153 1_555
Li0 O0 2.373559 1_555
Li0 O4 2.373564 1_554
Li1 O7 2.035522 1_555
Li1 O2 2.035523 1_455
Li1 O3 2.037157 1_565
Li1 O6 2.037160 1_465
Li1 O1 2.373581 1_555
Li1 O5 2.373599 1_455
Li2 O0 2.035507 1_565
Li2 O4 2.035515 1_565
Li2 O1 2.037150 1_555
Li2 O5 2.037157 1_555
Li2 O6 2.373559 1_565
Li2 O3 2.373564 1_565
Li3 O5 2.035516 1_455
Li3 O1 2.035525 1_554
Li3 O0 2.037156 1_455
Li3 O4 2.037161 1_554
Li3 O2 2.373577 1_454
Li3 O7 2.373594 1_555
Cr0 O2 2.029409 1_555
Cr0 O7 2.029524 1_555
Cr0 O4 2.035246 1_555
Cr0 O0 2.035259 1_555
Cr0 O1 2.037351 1_555
Cr0 O5 2.037378 1_555
Cr1 O1 2.029436 1_554
Cr1 O5 2.029488 1_555
Cr1 O3 2.035248 1_565
Cr1 O6 2.035289 1_564
Cr1 O7 2.037330 1_555
Cr1 O2 2.037362 1_554
Cr2 O6 2.029474 1_565
Cr2 O3 2.029505 1_666
Cr2 O1 2.035464 1_655
Cr2 O5 2.035472 1_556
Cr2 O4 2.037254 1_665
Cr2 O0 2.037265 1_566
Cr3 O0 2.029465 1_555
Cr3 O4 2.029514 1_655
Cr3 O2 2.035436 1_555
Cr3 O7 2.035447 1_655
Cr3 O6 2.037284 1_555
Cr3 O3 2.037292 1_655
