# generated using pymatgen
data_Mn3(OF3)2
_symmetry_space_group_name_H-M   'P 1'
_cell_length_a   10.25167487
_cell_length_b   4.73458601
_cell_length_c   5.50224484
_cell_angle_alpha   90.00044125
_cell_angle_beta   95.50249226
_cell_angle_gamma   89.99252129
_symmetry_Int_Tables_number   1
_chemical_formula_structural   Mn3(OF3)2
_chemical_formula_sum   'Mn6 O4 F12'
_cell_volume   265.83422947
_cell_formula_units_Z   2
loop_
 _symmetry_equiv_pos_site_id
 _symmetry_equiv_pos_as_xyz
  1  'x, y, z'
loop_
 _atom_site_type_symbol
 _atom_site_label
 _atom_site_symmetry_multiplicity
 _atom_site_fract_x
 _atom_site_fract_y
 _atom_site_fract_z
 _atom_site_occupancy
  Mn  Mn0  1  0.00000300  0.49998600  0.49992800  1
  Mn  Mn1  1  0.24558600  0.97721900  0.73776600  1
  Mn  Mn2  1  0.25436900  0.47722100  0.26219700  1
  Mn  Mn3  1  0.49999000  0.00005400  0.50005200  1
  Mn  Mn4  1  0.74564300  0.52281200  0.73780100  1
  Mn  Mn5  1  0.75438900  0.02277000  0.26224000  1
  O  O0  1  0.17456200  0.68106800  0.51520200  1
  O  O1  1  0.32542300  0.18121700  0.48476900  1
  O  O2  1  0.67457500  0.81874300  0.51527200  1
  O  O3  1  0.82543400  0.31891800  0.48479500  1
  F  F0  1  0.08531400  0.16595300  0.70189400  1
  F  F1  1  0.08541000  0.31302700  0.22126200  1
  F  F2  1  0.18950500  0.76174900  0.01159700  1
  F  F3  1  0.31043300  0.26177300  0.98844300  1
  F  F4  1  0.41454700  0.81312000  0.77865200  1
  F  F5  1  0.41465600  0.66587500  0.29806000  1
  F  F6  1  0.58536900  0.33415800  0.70195000  1
  F  F7  1  0.58544500  0.18685700  0.22139000  1
  F  F8  1  0.68957400  0.73820500  0.01153000  1
  F  F9  1  0.81048300  0.23825800  0.98839800  1
  F  F10  1  0.91460600  0.68695300  0.77870800  1
  F  F11  1  0.91468100  0.83406100  0.29809600  1
loop_
_geom_bond_atom_site_label_1
_geom_bond_atom_site_label_2
_geom_bond_distance
_geom_bond_site_symmetry_2
Mn0 O0 1.978903 1_555
Mn0 O3 1.979001 1_455
Mn1 O1 1.938885 1_565
Mn1 O0 1.955779 1_555
Mn2 O0 1.938294 1_555
Mn2 O1 1.955280 1_555
Mn3 O1 1.978939 1_555
Mn3 O2 1.979424 1_545
Mn4 O3 1.938329 1_555
Mn4 O2 1.954937 1_555
Mn5 O2 1.938984 1_545
Mn5 O3 1.955807 1_555
F0 Mn1 1.864001 1_545
F0 Mn0 2.077077 1_555
F1 Mn2 1.892303 1_555
F1 Mn0 2.039205 1_555
F2 Mn1 1.951325 1_554
F2 Mn2 1.995528 1_555
F3 Mn2 1.950776 1_556
F3 Mn1 1.995947 1_545
F4 Mn1 1.891944 1_555
F4 Mn3 2.039160 1_565
F5 Mn2 1.864156 1_555
F5 Mn3 2.077922 1_565
F6 Mn4 1.864039 1_555
F6 Mn3 2.077567 1_555
F7 Mn5 1.891757 1_555
F7 Mn3 2.039223 1_555
F8 Mn4 1.950549 1_554
F8 Mn5 1.996014 1_565
F9 Mn5 1.951467 1_556
F9 Mn4 1.995535 1_555
F10 Mn4 1.892232 1_555
F10 Mn0 2.039668 1_655
F11 Mn5 1.864121 1_565
F11 Mn0 2.076906 1_655
