# generated using pymatgen
data_Li4NbTe2WO12
_symmetry_space_group_name_H-M   'P 1'
_cell_length_a   5.24959200
_cell_length_b   5.70154217
_cell_length_c   7.89129681
_cell_angle_alpha   96.89946854
_cell_angle_beta   90.13462671
_cell_angle_gamma   90.30761669
_symmetry_Int_Tables_number   1
_chemical_formula_structural   Li4NbTe2WO12
_chemical_formula_sum   'Li4 Nb1 Te2 W1 O12'
_cell_volume   234.47774611
_cell_formula_units_Z   1
loop_
 _symmetry_equiv_pos_site_id
 _symmetry_equiv_pos_as_xyz
  1  'x, y, z'
loop_
 _atom_site_type_symbol
 _atom_site_label
 _atom_site_symmetry_multiplicity
 _atom_site_fract_x
 _atom_site_fract_y
 _atom_site_fract_z
 _atom_site_occupancy
  Li  Li0  1  0.99943200  0.42477400  0.29600200  1
  Li  Li1  1  0.50073700  0.90662100  0.78830000  1
  Li  Li2  1  0.00444600  0.43027900  0.78063800  1
  Li  Li3  1  0.49259800  0.92668300  0.29237400  1
  Nb  Nb0  1  0.50054600  0.49116500  0.51224000  1
  Te  Te0  1  0.01133300  0.99062400  0.51604100  1
  Te  Te1  1  0.49933000  0.46282500  0.01899500  1
  W  W0  1  0.99845900  0.98964200  0.00918600  1
  O  O0  1  0.30578100  0.19830900  0.42927000  1
  O  O1  1  0.13769400  0.04210900  0.75124500  1
  O  O2  1  0.31012700  0.87651600  0.06121100  1
  O  O3  1  0.20336900  0.70590500  0.41903300  1
  O  O4  1  0.84850800  0.71887500  0.90657000  1
  O  O5  1  0.35521300  0.53705000  0.72497100  1
  O  O6  1  0.62636400  0.49151700  0.24942400  1
  O  O7  1  0.15650600  0.32851800  0.05617400  1
  O  O8  1  0.81633900  0.32623600  0.55528500  1
  O  O9  1  0.69259600  0.18124100  0.92583400  1
  O  O10  1  0.85560800  0.00777800  0.22587000  1
  O  O11  1  0.68501300  0.82093200  0.55253600  1
loop_
_geom_bond_atom_site_label_1
_geom_bond_atom_site_label_2
_geom_bond_distance
_geom_bond_site_symmetry_2
Li0 O6 2.038058 1_555
Li0 O3 2.064166 1_655
Li0 O7 2.079790 1_655
Li0 O0 2.387489 1_655
Li0 O8 2.388627 1_555
Li0 O10 2.488288 1_555
Li1 O9 2.052702 1_565
Li1 O1 2.093295 1_565
Li1 O11 2.105007 1_555
Li1 O5 2.236348 1_555
Li1 O4 2.367050 1_555
Li1 O2 2.401227 1_556
Li2 O4 1.997649 1_455
Li2 O5 2.002565 1_555
Li2 O8 2.054623 1_455
Li2 O1 2.309818 1_555
Li2 O7 2.449792 1_556
Li2 O9 2.526601 1_455
Li3 O0 2.036316 1_565
Li3 O10 2.043100 1_565
Li3 O2 2.047068 1_555
Li3 O3 2.275466 1_555
Li3 O11 2.427532 1_555
Li3 O6 2.565485 1_555
Nb0 O5 1.836104 1_555
Nb0 O8 1.959266 1_555
Nb0 O0 1.994475 1_555
Nb0 O11 2.099835 1_555
Nb0 O3 2.169167 1_555
Nb0 O6 2.178299 1_555
O0 Te0 2.107231 1_545
O1 Te0 1.957650 1_545
O1 W0 2.217632 1_446
O2 W0 1.825727 1_455
O2 Te1 2.549272 1_555
O3 Te0 1.990016 1_555
O4 W0 1.828191 1_556
O4 Te1 2.562901 1_556
O5 Te1 2.523101 1_556
O6 Te1 1.923452 1_555
O7 Te1 1.988213 1_555
O7 W0 2.090012 1_445
O8 Te0 2.164578 1_645
O9 Te1 1.970977 1_556
O9 W0 2.095385 1_546
O10 W0 1.860445 1_545
O10 Te0 2.442750 1_645
O11 Te0 2.001250 1_655
