# generated using pymatgen
data_InCuPO5
_symmetry_space_group_name_H-M   'P 1'
_cell_length_a   6.71456200
_cell_length_b   7.38048400
_cell_length_c   7.93096700
_cell_angle_alpha   90.00000000
_cell_angle_beta   90.00000000
_cell_angle_gamma   90.00000000
_symmetry_Int_Tables_number   1
_chemical_formula_structural   InCuPO5
_chemical_formula_sum   'In4 Cu4 P4 O20'
_cell_volume   393.03269039
_cell_formula_units_Z   4
loop_
 _symmetry_equiv_pos_site_id
 _symmetry_equiv_pos_as_xyz
  1  'x, y, z'
loop_
 _atom_site_type_symbol
 _atom_site_label
 _atom_site_symmetry_multiplicity
 _atom_site_fract_x
 _atom_site_fract_y
 _atom_site_fract_z
 _atom_site_occupancy
  In  In0  1  0.25000000  0.21114000  0.17396200  1
  In  In1  1  0.75000000  0.71114000  0.32603800  1
  In  In2  1  0.75000000  0.78886000  0.82603800  1
  In  In3  1  0.25000000  0.28886000  0.67396200  1
  Cu  Cu0  1  0.00000000  0.00000000  0.50000000  1
  Cu  Cu1  1  0.50000000  0.50000000  0.00000000  1
  Cu  Cu2  1  0.00000000  0.50000000  0.00000000  1
  Cu  Cu3  1  0.50000000  0.00000000  0.50000000  1
  P  P0  1  0.25000000  0.64185000  0.39148400  1
  P  P1  1  0.75000000  0.14185000  0.10851600  1
  P  P2  1  0.75000000  0.35815000  0.60851600  1
  P  P3  1  0.25000000  0.85815000  0.89148400  1
  O  O0  1  0.75000000  0.04839600  0.93640200  1
  O  O1  1  0.06324200  0.76923700  0.37684100  1
  O  O2  1  0.43675800  0.76923700  0.37684100  1
  O  O3  1  0.25000000  0.98918300  0.74060300  1
  O  O4  1  0.56324200  0.23076300  0.62315900  1
  O  O5  1  0.75000000  0.01081700  0.25939700  1
  O  O6  1  0.43675800  0.73076300  0.87684100  1
  O  O7  1  0.56324200  0.26923700  0.12315900  1
  O  O8  1  0.93675800  0.26923700  0.12315900  1
  O  O9  1  0.06324200  0.73076300  0.87684100  1
  O  O10  1  0.75000000  0.87540600  0.56995100  1
  O  O11  1  0.25000000  0.37540600  0.93004900  1
  O  O12  1  0.25000000  0.12459400  0.43004900  1
  O  O13  1  0.75000000  0.45160400  0.43640200  1
  O  O14  1  0.25000000  0.51081700  0.24060300  1
  O  O15  1  0.25000000  0.95160400  0.06359800  1
  O  O16  1  0.25000000  0.54839600  0.56359800  1
  O  O17  1  0.75000000  0.62459400  0.06995100  1
  O  O18  1  0.75000000  0.48918300  0.75939700  1
  O  O19  1  0.93675800  0.23076300  0.62315900  1
loop_
_geom_bond_atom_site_label_1
_geom_bond_atom_site_label_2
_geom_bond_distance
_geom_bond_site_symmetry_2
In0 O15 2.106011 1_545
In0 O12 2.129093 1_555
In0 O8 2.184032 1_455
In0 O7 2.184032 1_555
In0 O14 2.274034 1_555
In0 O11 2.282976 1_554
In1 O13 2.106011 1_555
In1 O17 2.129093 1_555
In1 O1 2.184032 1_655
In1 O2 2.184032 1_555
In1 O5 2.274034 1_565
In1 O10 2.282976 1_555
In2 O0 2.106011 1_565
In2 O10 2.129093 1_555
In2 O9 2.184032 1_655
In2 O6 2.184032 1_555
In2 O18 2.274034 1_555
In2 O17 2.282976 1_556
In3 O16 2.106011 1_555
In3 O11 2.129093 1_555
In3 O19 2.184032 1_455
In3 O4 2.184032 1_555
In3 O3 2.274034 1_545
In3 O12 2.282976 1_555
Cu0 O12 1.992790 1_555
Cu0 O10 1.992790 1_445
Cu0 O1 2.008755 1_545
Cu0 O19 2.008755 1_455
Cu0 O5 2.542733 1_455
Cu0 O3 2.542733 1_545
Cu1 O17 1.992790 1_555
Cu1 O11 1.992790 1_554
Cu1 O6 2.008755 1_554
Cu1 O7 2.008755 1_555
Cu1 O14 2.542733 1_555
Cu1 O18 2.542733 1_554
Cu2 O17 1.992790 1_455
Cu2 O11 1.992790 1_554
Cu2 O9 2.008755 1_554
Cu2 O8 2.008755 1_455
Cu2 O14 2.542733 1_555
Cu2 O18 2.542733 1_454
Cu3 O12 1.992790 1_555
Cu3 O10 1.992790 1_545
Cu3 O4 2.008755 1_555
Cu3 O2 2.008755 1_545
Cu3 O5 2.542733 1_555
Cu3 O3 2.542733 1_545
O0 P1 1.529393 1_556
O1 P0 1.571602 1_555
O2 P0 1.571602 1_555
O3 P3 1.538566 1_555
O4 P2 1.571602 1_555
O5 P1 1.538566 1_555
O6 P3 1.571602 1_555
O7 P1 1.571602 1_555
O8 P1 1.571602 1_555
O9 P3 1.571602 1_555
O13 P2 1.529393 1_555
O14 P0 1.538566 1_555
O15 P3 1.529393 1_554
O16 P0 1.529393 1_555
O18 P2 1.538566 1_555
O19 P2 1.571602 1_555
