# generated using pymatgen
data_FeO
_symmetry_space_group_name_H-M   'P 1'
_cell_length_a   4.30754178
_cell_length_b   4.30754178
_cell_length_c   6.25608833
_cell_angle_alpha   69.85860741
_cell_angle_beta   69.85861979
_cell_angle_gamma   89.99879603
_symmetry_Int_Tables_number   1
_chemical_formula_structural   FeO
_chemical_formula_sum   'Fe4 O4'
_cell_volume   101.38798594
_cell_formula_units_Z   4
loop_
 _symmetry_equiv_pos_site_id
 _symmetry_equiv_pos_as_xyz
  1  'x, y, z'
loop_
 _atom_site_type_symbol
 _atom_site_label
 _atom_site_symmetry_multiplicity
 _atom_site_fract_x
 _atom_site_fract_y
 _atom_site_fract_z
 _atom_site_occupancy
  Fe  Fe0  1  0.50000000  0.00000200  0.50000000  1
  Fe  Fe1  1  0.25000100  0.24999900  0.00000000  1
  Fe  Fe2  1  0.00000000  0.50000000  0.50000000  1
  Fe  Fe3  1  0.75000200  0.74999800  0.00000000  1
  O  O0  1  0.37499400  0.37499500  0.24999800  1
  O  O1  1  0.87499300  0.87499300  0.24999900  1
  O  O2  1  0.12500400  0.12500600  0.75000200  1
  O  O3  1  0.62500700  0.62500700  0.75000100  1
loop_
_geom_bond_atom_site_label_1
_geom_bond_atom_site_label_2
_geom_bond_distance
_geom_bond_site_symmetry_2
Fe0 O0 2.045834 1_555
Fe0 O2 2.045836 1_555
Fe0 O3 2.045837 1_545
Fe0 O1 2.045837 1_545
Fe1 O3 2.045780 1_554
Fe1 O1 2.045780 1_445
Fe1 O0 2.045919 1_555
Fe1 O2 2.045922 1_554
Fe2 O2 2.045832 1_555
Fe2 O1 2.045832 1_455
Fe2 O3 2.045833 1_455
Fe2 O0 2.045834 1_555
Fe3 O2 2.045769 1_664
Fe3 O0 2.045772 1_555
Fe3 O3 2.045918 1_554
Fe3 O1 2.045918 1_555
