# generated using pymatgen
data_Li9Mn7V12O48
_symmetry_space_group_name_H-M   'P 1'
_cell_length_a   5.02400900
_cell_length_b   10.25294309
_cell_length_c   17.08067259
_cell_angle_alpha   90.21437543
_cell_angle_beta   90.58368619
_cell_angle_gamma   90.23750594
_symmetry_Int_Tables_number   1
_chemical_formula_structural   Li9Mn7V12O48
_chemical_formula_sum   'Li9 Mn7 V12 O48'
_cell_volume   879.78093588
_cell_formula_units_Z   1
loop_
 _symmetry_equiv_pos_site_id
 _symmetry_equiv_pos_as_xyz
  1  'x, y, z'
loop_
 _atom_site_type_symbol
 _atom_site_label
 _atom_site_symmetry_multiplicity
 _atom_site_fract_x
 _atom_site_fract_y
 _atom_site_fract_z
 _atom_site_occupancy
  Li  Li0  1  0.24523900  0.42037600  0.96556200  1
  Li  Li1  1  0.26095500  0.74395600  0.30562500  1
  Li  Li2  1  0.25482500  0.25901700  0.79887300  1
  Li  Li3  1  0.25453800  0.58344600  0.46834400  1
  Li  Li4  1  0.40111400  0.74666800  0.74919800  1
  Li  Li5  1  0.59720600  0.25123000  0.25067000  1
  Li  Li6  1  0.74767900  0.08394100  0.53282600  1
  Li  Li7  1  0.74778100  0.74271100  0.20235500  1
  Li  Li8  1  0.74585500  0.25002100  0.69703600  1
  Mn  Mn0  1  0.09651800  0.25179000  0.25331500  1
  Mn  Mn1  1  0.23947400  0.06904000  0.97418900  1
  Mn  Mn2  1  0.26605100  0.93565100  0.47606600  1
  Mn  Mn3  1  0.73169200  0.43565900  0.52374800  1
  Mn  Mn4  1  0.75696700  0.56527900  0.02614600  1
  Mn  Mn5  1  0.74424500  0.92441600  0.02823300  1
  Mn  Mn6  1  0.90122300  0.74698800  0.74586500  1
  V  V0  1  0.20892300  0.74253900  0.94267600  1
  V  V1  1  0.22055000  0.02415000  0.66009000  1
  V  V2  1  0.20758900  0.47469100  0.65182800  1
  V  V3  1  0.28060300  0.52817600  0.15559700  1
  V  V4  1  0.29174800  0.97449800  0.15791900  1
  V  V5  1  0.27040600  0.25335100  0.44455200  1
  V  V6  1  0.72817800  0.75307700  0.55471100  1
  V  V7  1  0.69873000  0.02677400  0.84142600  1
  V  V8  1  0.72643700  0.47372000  0.84202600  1
  V  V9  1  0.78471000  0.52517600  0.34223700  1
  V  V10  1  0.79062400  0.97579900  0.34660600  1
  V  V11  1  0.78416400  0.25011100  0.05757300  1
  O  O0  1  0.06305000  0.23430900  0.99484000  1
  O  O1  1  0.05483300  0.61164200  0.37037200  1
  O  O2  1  0.08215500  0.89092600  0.37876900  1
  O  O3  1  0.09932400  0.62903900  0.20786600  1
  O  O4  1  0.10308500  0.87816500  0.20981000  1
  O  O5  1  0.10135200  0.10852200  0.46680900  1
  O  O6  1  0.05012900  0.37495000  0.46755700  1
  O  O7  1  0.07883300  0.00552600  0.07138800  1
  O  O8  1  0.06914500  0.49455000  0.07282700  1
  O  O9  1  0.13033300  0.74664200  0.84545400  1
  O  O10  1  0.13416800  0.62168700  0.70381800  1
  O  O11  1  0.13663400  0.87567300  0.70898200  1
  O  O12  1  0.33246300  0.12422500  0.20558600  1
  O  O13  1  0.32331000  0.37619500  0.20375000  1
  O  O14  1  0.32730500  0.25389500  0.34212900  1
  O  O15  1  0.41840300  0.98899600  0.57348700  1
  O  O16  1  0.42398400  0.50993400  0.57138900  1
  O  O17  1  0.40209500  0.89159000  0.96611800  1
  O  O18  1  0.43571400  0.62467700  0.96647200  1
  O  O19  1  0.42351500  0.11368400  0.72041200  1
  O  O20  1  0.39010200  0.37588700  0.70598400  1
  O  O21  1  0.40916800  0.11073800  0.88083000  1
  O  O22  1  0.44779000  0.39371000  0.86909600  1
  O  O23  1  0.43917600  0.76719600  0.49416200  1
  O  O24  1  0.55833100  0.26698500  0.50556000  1
  O  O25  1  0.57796200  0.60884200  0.12097400  1
  O  O26  1  0.58142700  0.88830800  0.12447500  1
  O  O27  1  0.58695900  0.61773500  0.28518300  1
  O  O28  1  0.61219000  0.87982200  0.28748600  1
  O  O29  1  0.55841200  0.11722300  0.03623900  1
  O  O30  1  0.60204900  0.39027900  0.03516500  1
  O  O31  1  0.57431400  0.00791900  0.42728600  1
  O  O32  1  0.58082600  0.48805200  0.42682700  1
  O  O33  1  0.67247300  0.75430100  0.65693600  1
  O  O34  1  0.66670700  0.62362700  0.79021000  1
  O  O35  1  0.67184000  0.87437300  0.79654000  1
  O  O36  1  0.86619600  0.12214600  0.29589000  1
  O  O37  1  0.86365700  0.37591500  0.29099900  1
  O  O38  1  0.86846900  0.24474800  0.15483500  1
  O  O39  1  0.91912400  0.51802500  0.92992200  1
  O  O40  1  0.91306600  0.98783900  0.93114800  1
  O  O41  1  0.89854400  0.60874300  0.53322600  1
  O  O42  1  0.94845500  0.87562500  0.53187600  1
  O  O43  1  0.90929600  0.12116900  0.79652700  1
  O  O44  1  0.91634500  0.37459100  0.78854900  1
  O  O45  1  0.95189700  0.11122800  0.63278300  1
  O  O46  1  0.91391300  0.39005800  0.61962000  1
  O  O47  1  0.92745900  0.73784300  0.00854200  1
loop_
_geom_bond_atom_site_label_1
_geom_bond_atom_site_label_2
_geom_bond_distance
_geom_bond_site_symmetry_2
Li0 O22 1.964262 1_555
Li0 O39 2.013746 1_455
Li0 O30 2.164720 1_556
Li0 O0 2.174704 1_555
Li0 O8 2.178539 1_556
Li0 O18 2.299247 1_555
Li1 O1 2.039300 1_555
Li1 O27 2.122520 1_555
Li1 O2 2.158350 1_555
Li1 O3 2.187593 1_555
Li1 O28 2.268115 1_555
Li1 O4 2.280441 1_555
Li2 O22 2.058766 1_555
Li2 O44 2.083077 1_455
Li2 O20 2.108197 1_555
Li2 O19 2.180216 1_555
Li2 O21 2.208127 1_555
Li2 O43 2.233935 1_455
Li3 O1 1.965299 1_555
Li3 O32 2.044138 1_555
Li3 O16 2.091743 1_555
Li3 O41 2.129862 1_455
Li3 O23 2.138993 1_555
Li3 O6 2.367671 1_555
Li4 O34 1.965750 1_555
Li4 O11 1.997420 1_555
Li4 O10 1.999663 1_555
Li4 O35 2.042828 1_555
Li4 O33 2.095710 1_555
Li4 O9 2.144620 1_555
Li5 O37 1.964996 1_555
Li5 O12 2.003751 1_555
Li5 O36 2.043459 1_555
Li5 O13 2.043837 1_555
Li5 O14 2.079182 1_555
Li5 O38 2.141642 1_555
Li6 O45 2.001069 1_555
Li6 O15 2.044937 1_545
Li6 O5 2.128729 1_655
Li6 O31 2.137226 1_555
Li6 O24 2.157848 1_555
Li6 O42 2.365912 1_545
Li7 O27 2.079554 1_555
Li7 O25 2.120346 1_555
Li7 O3 2.121554 1_655
Li7 O28 2.137174 1_555
Li7 O26 2.167728 1_555
Li7 O4 2.259399 1_655
Li8 O45 2.079598 1_555
Li8 O46 2.133028 1_555
Li8 O19 2.175911 1_555
Li8 O44 2.181040 1_555
Li8 O20 2.215043 1_555
Li8 O43 2.303220 1_555
Mn0 O37 1.850446 1_455
Mn0 O14 1.899963 1_555
Mn0 O36 1.909527 1_455
Mn0 O13 1.912488 1_555
Mn0 O12 1.950636 1_555
Mn0 O38 2.026451 1_455
Mn1 O21 1.866078 1_555
Mn1 O0 1.948257 1_555
Mn1 O7 1.965399 1_556
Mn1 O40 1.970367 1_445
Mn1 O29 1.972253 1_556
Mn1 O17 2.002351 1_545
Mn2 O15 1.902033 1_555
Mn2 O31 1.913937 1_565
Mn2 O2 1.945577 1_555
Mn2 O23 1.961150 1_555
Mn2 O42 1.964865 1_455
Mn2 O5 1.965399 1_565
Mn3 O32 1.894234 1_555
Mn3 O16 1.913833 1_555
Mn3 O46 1.927961 1_555
Mn3 O24 1.955484 1_555
Mn3 O41 1.964924 1_555
Mn3 O6 1.975637 1_655
Mn4 O8 1.899935 1_655
Mn4 O39 1.903773 1_554
Mn4 O25 1.912952 1_555
Mn4 O30 1.960056 1_555
Mn4 O47 1.987749 1_555
Mn4 O18 1.998500 1_554
Mn5 O26 1.880945 1_555
Mn5 O40 1.980975 1_554
Mn5 O7 2.004788 1_665
Mn5 O17 2.036943 1_554
Mn5 O47 2.153079 1_555
Mn5 O29 2.194113 1_565
Mn6 O11 1.882806 1_655
Mn6 O10 1.886423 1_655
Mn6 O34 1.890674 1_555
Mn6 O33 1.897272 1_555
Mn6 O35 1.951266 1_555
Mn6 O9 2.044182 1_655
O0 V11 1.780094 1_456
O1 V9 1.682900 1_455
O2 V10 1.789416 1_455
O3 V3 1.647256 1_555
O4 V4 1.635679 1_555
O5 V5 1.752492 1_555
O6 V5 1.717598 1_555
O7 V4 1.845012 1_545
O8 V3 1.791351 1_555
O9 V0 1.703707 1_555
O10 V2 1.788126 1_555
O11 V1 1.789969 1_565
O12 V4 1.745294 1_545
O13 V3 1.777480 1_555
O14 V5 1.775552 1_555
O15 V1 1.826215 1_565
O16 V2 1.797539 1_555
O17 V0 1.847384 1_555
O18 V0 1.711549 1_555
O19 V1 1.705239 1_555
O20 V2 1.649279 1_555
O21 V7 1.826590 1_555
O22 V8 1.689094 1_555
O23 V6 1.780726 1_555
O24 V5 1.778881 1_555
O25 V3 1.810256 1_555
O26 V4 1.802531 1_555
O27 V9 1.682960 1_555
O28 V10 1.660873 1_555
O29 V11 1.802940 1_555
O30 V11 1.748388 1_555
O31 V10 1.794052 1_545
O32 V9 1.820094 1_555
O33 V6 1.771177 1_555
O34 V8 1.801192 1_555
O35 V7 1.742073 1_565
O36 V10 1.777001 1_545
O37 V9 1.807582 1_555
O38 V11 1.711396 1_555
O39 V8 1.832785 1_555
O40 V7 1.908409 1_565
O41 V6 1.752159 1_555
O42 V6 1.719455 1_555
O43 V7 1.630199 1_555
O44 V8 1.672271 1_555
O45 V1 1.684239 1_655
O46 V2 1.789354 1_655
O47 V0 1.816561 1_654
