# generated using pymatgen
data_Li2CrFeO4
_symmetry_space_group_name_H-M   'P 1'
_cell_length_a   5.87734944
_cell_length_b   5.87734944
_cell_length_c   5.06018446
_cell_angle_alpha   73.45918933
_cell_angle_beta   73.45918933
_cell_angle_gamma   59.72173320
_symmetry_Int_Tables_number   1
_chemical_formula_structural   Li2CrFeO4
_chemical_formula_sum   'Li4 Cr2 Fe2 O8'
_cell_volume   142.58507010
_cell_formula_units_Z   2
loop_
 _symmetry_equiv_pos_site_id
 _symmetry_equiv_pos_as_xyz
  1  'x, y, z'
loop_
 _atom_site_type_symbol
 _atom_site_label
 _atom_site_symmetry_multiplicity
 _atom_site_fract_x
 _atom_site_fract_y
 _atom_site_fract_z
 _atom_site_occupancy
  Li  Li0  1  0.12580400  0.37599100  0.74536800  1
  Li  Li1  1  0.62400900  0.87419600  0.75463200  1
  Li  Li2  1  0.37599100  0.12580400  0.24536800  1
  Li  Li3  1  0.87419600  0.62400900  0.25463200  1
  Cr  Cr0  1  0.12696000  0.87304000  0.75000000  1
  Cr  Cr1  1  0.87304000  0.12696000  0.25000000  1
  Fe  Fe0  1  0.62389800  0.37610200  0.75000000  1
  Fe  Fe1  1  0.37610200  0.62389800  0.25000000  1
  O  O0  1  0.49007100  0.73199600  0.50632000  1
  O  O1  1  0.98399300  0.24085200  0.51157800  1
  O  O2  1  0.24085200  0.98399300  0.01157800  1
  O  O3  1  0.50992900  0.26800400  0.49368000  1
  O  O4  1  0.01600700  0.75914800  0.48842200  1
  O  O5  1  0.26800400  0.50992900  0.99368000  1
  O  O6  1  0.73199600  0.49007100  0.00632000  1
  O  O7  1  0.75914800  0.01600700  0.98842200  1
loop_
_geom_bond_atom_site_label_1
_geom_bond_atom_site_label_2
_geom_bond_distance
_geom_bond_site_symmetry_2
Li0 O1 2.118742 1_455
Li0 O3 2.121303 1_555
Li0 O4 2.126817 1_555
Li0 O5 2.172916 1_555
Li0 O6 2.179285 1_456
Li0 O2 2.181829 1_546
Li1 O7 2.118742 1_565
Li1 O6 2.121303 1_556
Li1 O2 2.126817 1_556
Li1 O0 2.172916 1_555
Li1 O3 2.179285 1_565
Li1 O4 2.181829 1_655
Li2 O2 2.118742 1_545
Li2 O5 2.121303 1_554
Li2 O7 2.126817 1_554
Li2 O3 2.172916 1_555
Li2 O0 2.179285 1_545
Li2 O1 2.181829 1_455
Li3 O4 2.118742 1_655
Li3 O0 2.121303 1_555
Li3 O1 2.126817 1_555
Li3 O6 2.172916 1_555
Li3 O5 2.179285 1_654
Li3 O7 2.181829 1_564
Cr0 O2 2.015310 1_556
Cr0 O4 2.015310 1_555
Cr0 O0 2.015392 1_555
Cr0 O5 2.015392 1_555
Cr0 O1 2.023680 1_465
Cr0 O7 2.023680 1_465
Cr1 O1 2.015310 1_555
Cr1 O7 2.015310 1_554
Cr1 O6 2.015392 1_555
Cr1 O3 2.015392 1_555
Cr1 O2 2.023680 1_645
Cr1 O4 2.023680 1_645
Fe0 O6 1.981827 1_556
Fe0 O3 1.981827 1_555
Fe0 O0 1.984681 1_555
Fe0 O5 1.984681 1_555
Fe0 O7 1.990554 1_555
Fe0 O1 1.990554 1_555
Fe1 O0 1.981827 1_555
Fe1 O5 1.981827 1_554
Fe1 O6 1.984681 1_555
Fe1 O3 1.984681 1_555
Fe1 O4 1.990554 1_555
Fe1 O2 1.990554 1_555
