# generated using pymatgen
data_LiVOF3
_symmetry_space_group_name_H-M   'P 1'
_cell_length_a   6.87885532
_cell_length_b   6.87885532
_cell_length_c   6.39179941
_cell_angle_alpha   89.50017111
_cell_angle_beta   89.50017111
_cell_angle_gamma   113.65482259
_symmetry_Int_Tables_number   1
_chemical_formula_structural   LiVOF3
_chemical_formula_sum   'Li4 V4 O4 F12'
_cell_volume   277.00392082
_cell_formula_units_Z   4
loop_
 _symmetry_equiv_pos_site_id
 _symmetry_equiv_pos_as_xyz
  1  'x, y, z'
loop_
 _atom_site_type_symbol
 _atom_site_label
 _atom_site_symmetry_multiplicity
 _atom_site_fract_x
 _atom_site_fract_y
 _atom_site_fract_z
 _atom_site_occupancy
  Li  Li0  1  0.76274000  0.84276100  0.72749900  1
  Li  Li1  1  0.19045300  0.80954700  0.50000000  1
  Li  Li2  1  0.72716400  0.27283600  0.00000000  1
  Li  Li3  1  0.15723900  0.23726000  0.27250100  1
  V  V0  1  0.34096200  0.65903800  0.00000000  1
  V  V1  1  0.30947500  0.19999600  0.76452800  1
  V  V2  1  0.80000400  0.69052500  0.23547200  1
  V  V3  1  0.71103600  0.28896400  0.50000000  1
  O  O0  1  0.62849800  0.74408900  0.03130100  1
  O  O1  1  0.25591100  0.37150200  0.96869900  1
  O  O2  1  0.43614400  0.10559400  0.54754500  1
  O  O3  1  0.89440600  0.56385600  0.45245500  1
  F  F0  1  0.06208100  0.94696000  0.73939100  1
  F  F1  1  0.31047700  0.70976900  0.72905700  1
  F  F2  1  0.61030200  0.42329400  0.75220600  1
  F  F3  1  0.05304000  0.93791900  0.26060900  1
  F  F4  1  0.41499500  0.04994400  0.96996400  1
  F  F5  1  0.80535700  0.16844600  0.72705900  1
  F  F6  1  0.83155400  0.19464300  0.27294100  1
  F  F7  1  0.21168500  0.33051900  0.54964600  1
  F  F8  1  0.95005600  0.58500500  0.03003600  1
  F  F9  1  0.57670600  0.38969800  0.24779400  1
  F  F10  1  0.66948100  0.78831500  0.45035400  1
  F  F11  1  0.29023100  0.68952300  0.27094300  1
loop_
_geom_bond_atom_site_label_1
_geom_bond_atom_site_label_2
_geom_bond_distance
_geom_bond_site_symmetry_2
Li0 O0 2.127659 1_556
Li1 O3 2.086574 1_455
Li1 O2 2.086574 1_565
Li3 O1 2.127659 1_554
O0 V0 1.837073 1_555
O0 V2 1.896834 1_555
O1 V0 1.837073 1_556
O1 V1 1.896834 1_555
O2 V3 1.824383 1_555
O2 V1 1.884973 1_555
O3 V3 1.824383 1_555
O3 V2 1.884973 1_555
F0 Li0 1.891786 1_455
F0 V1 1.893215 1_565
F0 Li1 2.164731 1_555
F1 V0 1.794282 1_556
F1 Li1 1.937675 1_555
F2 V1 2.022914 1_555
F2 V3 2.110217 1_555
F2 Li2 2.210708 1_556
F3 Li3 1.891786 1_565
F3 V2 1.893215 1_455
F3 Li1 2.164731 1_555
F4 V1 1.977553 1_555
F4 Li2 2.090258 1_556
F4 V0 2.533232 1_546
F5 V3 1.908307 1_555
F5 Li2 2.040577 1_556
F5 Li0 2.139608 1_545
F6 V3 1.908307 1_555
F6 Li2 2.040577 1_555
F6 Li3 2.139608 1_655
F7 Li3 1.878422 1_555
F7 V1 1.903772 1_555
F8 V2 1.977553 1_555
F8 Li2 2.090258 1_555
F8 V0 2.533232 1_655
F9 V2 2.022914 1_555
F9 V3 2.110217 1_555
F9 Li2 2.210708 1_555
F10 Li0 1.878422 1_555
F10 V2 1.903772 1_555
F11 V0 1.794282 1_555
F11 Li1 1.937675 1_555
