# generated using pymatgen
data_Li5Ti6FeO16
_symmetry_space_group_name_H-M   'P 1'
_cell_length_a   8.43666900
_cell_length_b   8.43845100
_cell_length_c   8.43873164
_cell_angle_alpha   89.96428660
_cell_angle_beta   90.00000000
_cell_angle_gamma   90.00000000
_symmetry_Int_Tables_number   1
_chemical_formula_structural   Li5Ti6FeO16
_chemical_formula_sum   'Li10 Ti12 Fe2 O32'
_cell_volume   600.77359321
_cell_formula_units_Z   2
loop_
 _symmetry_equiv_pos_site_id
 _symmetry_equiv_pos_as_xyz
  1  'x, y, z'
loop_
 _atom_site_type_symbol
 _atom_site_label
 _atom_site_symmetry_multiplicity
 _atom_site_fract_x
 _atom_site_fract_y
 _atom_site_fract_z
 _atom_site_occupancy
  Li  Li0  1  0.50363200  0.24812200  0.49692500  1
  Li  Li1  1  0.37506700  0.12462200  0.87438000  1
  Li  Li2  1  0.75136500  0.00327100  0.74577700  1
  Li  Li3  1  0.25136500  0.99672900  0.25422300  1
  Li  Li4  1  0.87506700  0.87537800  0.12562000  1
  Li  Li5  1  0.00363200  0.75187800  0.50307500  1
  Li  Li6  1  0.62504300  0.62413100  0.62509800  1
  Li  Li7  1  0.24702800  0.50160500  0.75025700  1
  Li  Li8  1  0.74702800  0.49839500  0.24974300  1
  Li  Li9  1  0.12504300  0.37586900  0.37490200  1
  Ti  Ti0  1  0.13619800  0.13619700  0.61636800  1
  Ti  Ti1  1  0.88090500  0.12070700  0.37798700  1
  Ti  Ti2  1  0.62077100  0.12283700  0.12015200  1
  Ti  Ti3  1  0.12077100  0.87716300  0.87984800  1
  Ti  Ti4  1  0.38090500  0.87929300  0.62201300  1
  Ti  Ti5  1  0.63619800  0.86380300  0.38363200  1
  Ti  Ti6  1  0.87317000  0.63648900  0.87186200  1
  Ti  Ti7  1  0.11027600  0.63427300  0.13745000  1
  Ti  Ti8  1  0.37564400  0.61573200  0.39085900  1
  Ti  Ti9  1  0.87564400  0.38426800  0.60914100  1
  Ti  Ti10  1  0.61027600  0.36572700  0.86255000  1
  Ti  Ti11  1  0.37317000  0.36351100  0.12813800  1
  Fe  Fe0  1  0.49771400  0.74647500  0.00185500  1
  Fe  Fe1  1  0.99771400  0.25352500  0.99814500  1
  O  O0  1  0.39072200  0.14213500  0.12552400  1
  O  O1  1  0.62659400  0.14068600  0.89333900  1
  O  O2  1  0.88778800  0.13773700  0.60752400  1
  O  O3  1  0.10802800  0.12401300  0.39157600  1
  O  O4  1  0.86552800  0.13125200  0.13691500  1
  O  O5  1  0.64163200  0.10845500  0.35468300  1
  O  O6  1  0.35787600  0.10964300  0.62643200  1
  O  O7  1  0.11878200  0.11207400  0.86753200  1
  O  O8  1  0.61878200  0.88792600  0.13246800  1
  O  O9  1  0.85787600  0.89035700  0.37356800  1
  O  O10  1  0.14163200  0.89154500  0.64531700  1
  O  O11  1  0.36552800  0.86874800  0.86308500  1
  O  O12  1  0.60802800  0.87598700  0.60842400  1
  O  O13  1  0.38778800  0.86226300  0.39247600  1
  O  O14  1  0.12659400  0.85931400  0.10666100  1
  O  O15  1  0.89072200  0.85786500  0.87447600  1
  O  O16  1  0.60780600  0.64376600  0.37255500  1
  O  O17  1  0.37388900  0.64101900  0.60777800  1
  O  O18  1  0.10872000  0.64164700  0.88721600  1
  O  O19  1  0.89308700  0.62381300  0.10946300  1
  O  O20  1  0.14340300  0.62486800  0.35519800  1
  O  O21  1  0.36546400  0.61531400  0.13104000  1
  O  O22  1  0.63918500  0.61362300  0.88225800  1
  O  O23  1  0.87472800  0.60620500  0.64507900  1
  O  O24  1  0.37472800  0.39379500  0.35492100  1
  O  O25  1  0.13918500  0.38637700  0.11774200  1
  O  O26  1  0.86546400  0.38468600  0.86896000  1
  O  O27  1  0.64340300  0.37513200  0.64480200  1
  O  O28  1  0.39308700  0.37618700  0.89053700  1
  O  O29  1  0.60872000  0.35835300  0.11278400  1
  O  O30  1  0.87388900  0.35898100  0.39222200  1
  O  O31  1  0.10780600  0.35623400  0.62744500  1
loop_
_geom_bond_atom_site_label_1
_geom_bond_atom_site_label_2
_geom_bond_distance
_geom_bond_site_symmetry_2
Li0 O6 2.017533 1_555
Li0 O27 2.024379 1_555
Li0 O24 2.031732 1_555
Li0 O5 2.046246 1_555
Li1 O6 2.101271 1_555
Li1 O0 2.128676 1_556
Li1 O1 2.132392 1_555
Li1 O28 2.132703 1_555
Li1 O11 2.162840 1_545
Li1 O7 2.165556 1_555
Li2 O12 1.990239 1_545
Li2 O2 1.992913 1_555
Li2 O1 2.001272 1_555
Li2 O15 2.016353 1_545
Li3 O3 1.990239 1_565
Li3 O13 1.992913 1_555
Li3 O14 2.001272 1_555
Li3 O0 2.016353 1_565
Li4 O9 2.101271 1_555
Li4 O15 2.128676 1_554
Li4 O14 2.132392 1_655
Li4 O19 2.132703 1_555
Li4 O4 2.162840 1_565
Li4 O8 2.165556 1_555
Li5 O9 2.017533 1_455
Li5 O20 2.024379 1_555
Li5 O23 2.031732 1_455
Li5 O10 2.046246 1_555
Li6 O27 2.113316 1_555
Li6 O23 2.118647 1_555
Li6 O17 2.128708 1_555
Li6 O12 2.134672 1_555
Li6 O16 2.142412 1_555
Li6 O22 2.175135 1_555
Li7 O31 1.989996 1_555
Li7 O17 1.993333 1_555
Li7 O28 2.009552 1_555
Li7 O18 2.023746 1_555
Li8 O16 1.989996 1_555
Li8 O30 1.993333 1_555
Li8 O19 2.009552 1_555
Li8 O29 2.023746 1_555
Li9 O20 2.113316 1_555
Li9 O24 2.118647 1_555
Li9 O30 2.128708 1_455
Li9 O3 2.134672 1_555
Li9 O31 2.142412 1_555
Li9 O25 2.175135 1_555
Fe0 O21 1.912285 1_555
Fe0 O11 1.917845 1_554
Fe0 O8 1.919513 1_555
Fe0 O22 1.923883 1_554
Fe1 O26 1.912285 1_555
Fe1 O4 1.917845 1_556
Fe1 O7 1.919513 1_655
Fe1 O25 1.923883 1_656
O0 Ti11 1.874074 1_555
O0 Ti2 1.948197 1_555
O1 Ti2 1.920466 1_556
O1 Ti10 1.921467 1_555
O2 Ti1 1.943282 1_555
O2 Ti9 2.082914 1_555
O2 Ti0 2.097121 1_655
O3 Ti0 1.914615 1_555
O3 Ti1 1.919794 1_455
O4 Ti1 2.040360 1_555
O4 Ti2 2.070994 1_555
O5 Ti2 1.990582 1_555
O5 Ti1 2.030863 1_555
O5 Ti5 2.079242 1_545
O6 Ti0 1.885507 1_555
O6 Ti4 1.953862 1_545
O7 Ti3 1.985014 1_545
O7 Ti0 2.134196 1_555
O8 Ti2 1.985014 1_565
O8 Ti5 2.134196 1_555
O9 Ti5 1.885507 1_555
O9 Ti1 1.953862 1_565
O10 Ti3 1.990582 1_555
O10 Ti4 2.030863 1_555
O10 Ti0 2.079242 1_565
O11 Ti4 2.040360 1_555
O11 Ti3 2.070994 1_555
O12 Ti5 1.914615 1_555
O12 Ti4 1.919794 1_555
O13 Ti4 1.943282 1_555
O13 Ti8 2.082914 1_555
O13 Ti5 2.097121 1_555
O14 Ti3 1.920466 1_554
O14 Ti7 1.921467 1_555
O15 Ti6 1.874074 1_555
O15 Ti3 1.948197 1_655
O16 Ti5 1.874548 1_555
O16 Ti8 1.978934 1_555
O17 Ti8 1.843108 1_555
O17 Ti4 2.015193 1_555
O18 Ti3 1.990922 1_555
O18 Ti6 1.991954 1_455
O18 Ti7 2.112576 1_556
O19 Ti7 1.849624 1_655
O19 Ti6 2.014855 1_554
O20 Ti7 1.860294 1_555
O20 Ti8 1.983807 1_555
O21 Ti11 2.125978 1_555
O21 Ti7 2.159553 1_555
O21 Ti8 2.194229 1_555
O22 Ti6 1.985396 1_555
O22 Ti10 2.112688 1_555
O23 Ti9 1.897403 1_555
O23 Ti6 1.930950 1_555
O24 Ti8 1.897403 1_555
O24 Ti11 1.930950 1_555
O25 Ti11 1.985396 1_555
O25 Ti7 2.112688 1_555
O26 Ti6 2.125978 1_555
O26 Ti10 2.159553 1_555
O26 Ti9 2.194229 1_555
O27 Ti10 1.860294 1_555
O27 Ti9 1.983807 1_555
O28 Ti10 1.849624 1_555
O28 Ti11 2.014855 1_556
O29 Ti2 1.990922 1_555
O29 Ti11 1.991954 1_555
O29 Ti10 2.112576 1_554
O30 Ti9 1.843108 1_555
O30 Ti1 2.015193 1_555
O31 Ti0 1.874548 1_555
O31 Ti9 1.978934 1_455
