# generated using pymatgen
data_Li8Mn15NiO32
_symmetry_space_group_name_H-M   'P 1'
_cell_length_a   8.37453439
_cell_length_b   8.37453439
_cell_length_c   8.37453439
_cell_angle_alpha   90.21078887
_cell_angle_beta   89.78921113
_cell_angle_gamma   89.78921113
_symmetry_Int_Tables_number   1
_chemical_formula_structural   Li8Mn15NiO32
_chemical_formula_sum   'Li8 Mn15 Ni1 O32'
_cell_volume   587.31781176
_cell_formula_units_Z   1
loop_
 _symmetry_equiv_pos_site_id
 _symmetry_equiv_pos_as_xyz
  1  'x, y, z'
loop_
 _atom_site_type_symbol
 _atom_site_label
 _atom_site_symmetry_multiplicity
 _atom_site_fract_x
 _atom_site_fract_y
 _atom_site_fract_z
 _atom_site_occupancy
  Li  Li0  1  0.00352600  0.00146300  0.00098900  1
  Li  Li1  1  0.24647400  0.24901100  0.24853700  1
  Li  Li2  1  0.25146300  0.75352600  0.74901100  1
  Li  Li3  1  0.49901100  0.99647400  0.50146300  1
  Li  Li4  1  0.50187600  0.49812400  0.99812400  1
  Li  Li5  1  0.74812400  0.25187600  0.75187600  1
  Li  Li6  1  0.75098900  0.74853700  0.25352600  1
  Li  Li7  1  0.99853700  0.50098900  0.49647400  1
  Mn  Mn0  1  0.12036500  0.12384300  0.62722900  1
  Mn  Mn1  1  0.12500000  0.37906100  0.87093900  1
  Mn  Mn2  1  0.12963500  0.62277100  0.12615700  1
  Mn  Mn3  1  0.37444000  0.37500000  0.62444000  1
  Mn  Mn4  1  0.36839100  0.11839100  0.87500000  1
  Mn  Mn5  1  0.37722900  0.62615700  0.37036500  1
  Mn  Mn6  1  0.37384300  0.87036500  0.12277100  1
  Mn  Mn7  1  0.62093900  0.37093900  0.37500000  1
  Mn  Mn8  1  0.62500000  0.12444000  0.12556000  1
  Mn  Mn9  1  0.62500000  0.63160900  0.61839100  1
  Mn  Mn10  1  0.62906100  0.87500000  0.87906100  1
  Mn  Mn11  1  0.87615700  0.12722900  0.37963500  1
  Mn  Mn12  1  0.88160900  0.37500000  0.13160900  1
  Mn  Mn13  1  0.87277100  0.87963500  0.62384300  1
  Mn  Mn14  1  0.87556000  0.62556000  0.87500000  1
  Ni  Ni0  1  0.12500000  0.87500000  0.37500000  1
  O  O0  1  0.10551200  0.12376200  0.39790400  1
  O  O1  1  0.10209600  0.89448800  0.62376200  1
  O  O2  1  0.11339100  0.61250600  0.88890100  1
  O  O3  1  0.12745600  0.39139000  0.10170100  1
  O  O4  1  0.12254400  0.14829900  0.85861000  1
  O  O5  1  0.13660900  0.36109900  0.63749400  1
  O  O6  1  0.14790400  0.62623800  0.35551200  1
  O  O7  1  0.14448800  0.85209600  0.12623800  1
  O  O8  1  0.34874200  0.11626600  0.64404700  1
  O  O9  1  0.35582100  0.37066800  0.85814100  1
  O  O10  1  0.36413000  0.63587000  0.13587000  1
  O  O11  1  0.37376200  0.85551200  0.35209600  1
  O  O12  1  0.39404700  0.63373500  0.59874200  1
  O  O13  1  0.38749400  0.38890100  0.38660900  1
  O  O14  1  0.36626600  0.09874200  0.10595300  1
  O  O15  1  0.39829900  0.87254400  0.89139000  1
  O  O16  1  0.60814100  0.37933200  0.60582100  1
  O  O17  1  0.60861000  0.60170100  0.37254400  1
  O  O18  1  0.61109900  0.88660900  0.11250600  1
  O  O19  1  0.62066800  0.10582100  0.89185900  1
  O  O20  1  0.62933200  0.35814100  0.14417900  1
  O  O21  1  0.63890100  0.13749400  0.36339100  1
  O  O22  1  0.64139000  0.87745600  0.64829900  1
  O  O23  1  0.64185900  0.64417900  0.87066800  1
  O  O24  1  0.85170100  0.35861000  0.37745600  1
  O  O25  1  0.88373500  0.14404700  0.15125800  1
  O  O26  1  0.86250600  0.86339100  0.86109900  1
  O  O27  1  0.85595300  0.65125800  0.61626500  1
  O  O28  1  0.87623800  0.89790400  0.39448800  1
  O  O29  1  0.88587000  0.11413000  0.61413000  1
  O  O30  1  0.89417900  0.39185900  0.87933200  1
  O  O31  1  0.90125800  0.60595300  0.13373500  1
loop_
_geom_bond_atom_site_label_1
_geom_bond_atom_site_label_2
_geom_bond_distance
_geom_bond_site_symmetry_2
Li0 O4 1.984528 1_554
Li0 O25 1.996674 1_455
Li0 O7 2.016520 1_545
Li0 O26 2.028402 1_444
Li1 O3 1.984528 1_555
Li1 O14 1.996678 1_555
Li1 O0 2.016520 1_555
Li1 O13 2.028402 1_555
Li2 O15 1.984528 1_555
Li2 O12 1.996674 1_555
Li2 O1 2.016520 1_555
Li2 O2 2.028402 1_555
Li3 O22 1.984528 1_555
Li3 O8 1.996678 1_565
Li3 O11 2.016520 1_555
Li3 O21 2.028402 1_565
Li4 O10 1.990658 1_556
Li4 O23 2.005145 1_555
Li4 O9 2.005145 1_555
Li4 O20 2.005145 1_556
Li5 O29 1.990658 1_555
Li5 O16 2.005145 1_555
Li5 O30 2.005145 1_555
Li5 O19 2.005145 1_555
Li6 O17 1.984528 1_555
Li6 O31 1.996674 1_555
Li6 O28 2.016520 1_555
Li6 O18 2.028402 1_555
Li7 O24 1.984528 1_555
Li7 O27 1.996674 1_555
Li7 O6 2.016520 1_655
Li7 O5 2.028402 1_655
Mn0 O8 1.919080 1_555
Mn0 O0 1.924968 1_555
Mn0 O1 1.927507 1_545
Mn0 O4 1.947912 1_555
Mn0 O29 1.969214 1_455
Mn0 O5 1.993620 1_555
Mn1 O4 1.935090 1_555
Mn1 O3 1.935090 1_556
Mn1 O9 1.936597 1_555
Mn1 O30 1.936597 1_455
Mn1 O2 1.962245 1_555
Mn1 O5 1.962245 1_555
Mn2 O31 1.919081 1_455
Mn2 O7 1.924968 1_555
Mn2 O6 1.927507 1_555
Mn2 O3 1.947912 1_555
Mn2 O10 1.969214 1_555
Mn2 O2 1.993620 1_554
Mn3 O16 1.963246 1_555
Mn3 O9 1.963246 1_555
Mn3 O5 1.998165 1_555
Mn3 O13 1.998165 1_555
Mn3 O8 2.184945 1_555
Mn3 O12 2.184954 1_555
Mn4 O8 1.941736 1_555
Mn4 O14 1.941736 1_556
Mn4 O15 2.078218 1_545
Mn4 O4 2.078218 1_555
Mn4 O9 2.120187 1_555
Mn4 O19 2.120187 1_555
Mn5 O12 1.919081 1_555
Mn5 O6 1.924968 1_555
Mn5 O11 1.927507 1_555
Mn5 O17 1.947912 1_555
Mn5 O10 1.969214 1_555
Mn5 O13 1.993620 1_555
Mn6 O14 1.919080 1_565
Mn6 O11 1.924968 1_555
Mn6 O7 1.927507 1_555
Mn6 O15 1.947912 1_554
Mn6 O10 1.969214 1_555
Mn6 O18 1.993620 1_555
Mn7 O24 1.935090 1_555
Mn7 O17 1.935090 1_555
Mn7 O20 1.936597 1_555
Mn7 O16 1.936597 1_555
Mn7 O13 1.962245 1_555
Mn7 O21 1.962245 1_555
Mn8 O20 1.963246 1_555
Mn8 O19 1.963246 1_554
Mn8 O18 1.998165 1_545
Mn8 O21 1.998165 1_555
Mn8 O14 2.184945 1_555
Mn8 O25 2.184954 1_555
Mn9 O27 1.941736 1_555
Mn9 O12 1.941736 1_555
Mn9 O17 2.078218 1_555
Mn9 O22 2.078218 1_555
Mn9 O23 2.120187 1_555
Mn9 O16 2.120187 1_555
Mn10 O15 1.935090 1_555
Mn10 O22 1.935090 1_555
Mn10 O19 1.936597 1_565
Mn10 O23 1.936597 1_555
Mn10 O26 1.962245 1_555
Mn10 O18 1.962245 1_556
Mn11 O25 1.919081 1_555
Mn11 O28 1.924968 1_545
Mn11 O0 1.927507 1_655
Mn11 O24 1.947912 1_555
Mn11 O29 1.969214 1_555
Mn11 O21 1.993620 1_555
Mn12 O31 1.941736 1_555
Mn12 O25 1.941736 1_555
Mn12 O24 2.078218 1_555
Mn12 O3 2.078218 1_655
Mn12 O20 2.120187 1_555
Mn12 O30 2.120187 1_554
Mn13 O27 1.919081 1_555
Mn13 O1 1.924968 1_655
Mn13 O28 1.927507 1_555
Mn13 O22 1.947912 1_555
Mn13 O29 1.969214 1_565
Mn13 O26 1.993620 1_555
Mn14 O30 1.963246 1_555
Mn14 O23 1.963246 1_555
Mn14 O26 1.998165 1_555
Mn14 O2 1.998165 1_655
Mn14 O31 2.184954 1_556
Mn14 O27 2.184954 1_555
Ni0 O0 2.097082 1_565
Ni0 O11 2.097082 1_555
Ni0 O28 2.097082 1_455
Ni0 O6 2.097082 1_555
Ni0 O7 2.097082 1_555
Ni0 O1 2.097082 1_555
