# generated using pymatgen
data_NaFePCO7
_symmetry_space_group_name_H-M   'P 1'
_cell_length_a   9.21206288
_cell_length_b   6.44809500
_cell_length_c   5.28184385
_cell_angle_alpha   90.00000000
_cell_angle_beta   87.84037741
_cell_angle_gamma   90.00000000
_symmetry_Int_Tables_number   1
_chemical_formula_structural   NaFePCO7
_chemical_formula_sum   'Na2 Fe2 P2 C2 O14'
_cell_volume   313.52003537
_cell_formula_units_Z   2
loop_
 _symmetry_equiv_pos_site_id
 _symmetry_equiv_pos_as_xyz
  1  'x, y, z'
loop_
 _atom_site_type_symbol
 _atom_site_label
 _atom_site_symmetry_multiplicity
 _atom_site_fract_x
 _atom_site_fract_y
 _atom_site_fract_z
 _atom_site_occupancy
  Na  Na0  1  0.24037700  0.47323800  0.23632800  1
  Na  Na1  1  0.75962300  0.97323800  0.76367200  1
  Fe  Fe0  1  0.35588400  0.76557800  0.78915200  1
  Fe  Fe1  1  0.64411600  0.26557800  0.21084800  1
  P  P0  1  0.42957600  0.25662300  0.72319600  1
  P  P1  1  0.57042400  0.75662300  0.27680400  1
  C  C0  1  0.08217700  0.74403200  0.72551000  1
  C  C1  1  0.91782300  0.24403200  0.27449000  1
  O  O0  1  0.05179300  0.24427800  0.30913900  1
  O  O1  1  0.13655000  0.74798700  0.94824600  1
  O  O2  1  0.17905500  0.74159700  0.53960000  1
  O  O3  1  0.33501300  0.06486500  0.78305100  1
  O  O4  1  0.33819600  0.44957700  0.79747000  1
  O  O5  1  0.42716800  0.74559500  0.13137600  1
  O  O6  1  0.47010600  0.26448200  0.43286900  1
  O  O7  1  0.52989400  0.76448200  0.56713100  1
  O  O8  1  0.57283200  0.24559500  0.86862400  1
  O  O9  1  0.66180400  0.94957700  0.20253000  1
  O  O10  1  0.66498700  0.56486500  0.21694900  1
  O  O11  1  0.82094500  0.24159700  0.46040000  1
  O  O12  1  0.86345000  0.24798700  0.05175400  1
  O  O13  1  0.94820700  0.74427800  0.69086100  1
loop_
_geom_bond_atom_site_label_1
_geom_bond_atom_site_label_2
_geom_bond_distance
_geom_bond_site_symmetry_2
Na0 O0 2.301131 1_555
Na0 O2 2.410621 1_555
Na0 O4 2.459856 1_554
Na0 O5 2.506092 1_555
Na0 O1 2.545265 1_554
Na0 O6 2.744774 1_555
Na1 O13 2.301131 1_555
Na1 O11 2.410621 1_565
Na1 O9 2.459856 1_556
Na1 O8 2.506092 1_565
Na1 O12 2.545265 1_566
Na1 O7 2.744774 1_555
Fe0 O3 1.939773 1_565
Fe0 O7 1.950163 1_555
Fe0 O5 1.950540 1_556
Fe0 O4 2.044449 1_555
Fe0 O2 2.139303 1_555
Fe0 O1 2.161832 1_555
Fe1 O10 1.939773 1_555
Fe1 O6 1.950163 1_555
Fe1 O8 1.950540 1_554
Fe1 O9 2.044449 1_545
Fe1 O11 2.139303 1_555
Fe1 O12 2.161832 1_555
C0 O13 1.254440 1_455
C0 O1 1.296149 1_555
C0 O2 1.301876 1_555
C1 O0 1.254440 1_655
C1 O12 1.296149 1_555
C1 O11 1.301876 1_555
O3 P0 1.538476 1_555
O4 P0 1.544550 1_555
O5 P1 1.553396 1_555
O6 P0 1.565351 1_555
O7 P1 1.565351 1_555
O8 P0 1.553396 1_555
O9 P1 1.544550 1_555
O10 P1 1.538476 1_555
