# generated using pymatgen
data_Li2Ni2SnO6
_symmetry_space_group_name_H-M   'P 1'
_cell_length_a   5.15231956
_cell_length_b   5.15230598
_cell_length_c   10.12561600
_cell_angle_alpha   90.00017749
_cell_angle_beta   90.00002460
_cell_angle_gamma   117.86165013
_symmetry_Int_Tables_number   1
_chemical_formula_structural   Li2Ni2SnO6
_chemical_formula_sum   'Li4 Ni4 Sn2 O12'
_cell_volume   237.63849080
_cell_formula_units_Z   2
loop_
 _symmetry_equiv_pos_site_id
 _symmetry_equiv_pos_as_xyz
  1  'x, y, z'
loop_
 _atom_site_type_symbol
 _atom_site_label
 _atom_site_symmetry_multiplicity
 _atom_site_fract_x
 _atom_site_fract_y
 _atom_site_fract_z
 _atom_site_occupancy
  Li  Li0  1  0.14125700  0.64125800  0.75000000  1
  Li  Li1  1  0.35874100  0.85874300  0.24999900  1
  Li  Li2  1  0.64125900  0.14125700  0.75000000  1
  Li  Li3  1  0.85874300  0.35874000  0.24999900  1
  Ni  Ni0  1  0.16379700  0.83620700  0.50000300  1
  Ni  Ni1  1  0.33620900  0.66379700  0.00000200  1
  Ni  Ni2  1  0.66379900  0.33620900  0.99999900  1
  Ni  Ni3  1  0.83620200  0.16379100  0.50000200  1
  Sn  Sn0  1  0.99999900  0.00000200  0.00000000  1
  Sn  Sn1  1  0.50000000  0.49999900  0.50000000  1
  O  O0  1  0.03613900  0.67465800  0.10937100  1
  O  O1  1  0.96385900  0.32534200  0.89062900  1
  O  O2  1  0.17466000  0.53613900  0.39062700  1
  O  O3  1  0.46386200  0.82533900  0.60937200  1
  O  O4  1  0.14692300  0.14692300  0.59757400  1
  O  O5  1  0.35307300  0.35307400  0.09757500  1
  O  O6  1  0.64692400  0.64692600  0.90242500  1
  O  O7  1  0.32534100  0.96386000  0.89062900  1
  O  O8  1  0.85307600  0.85307500  0.40242500  1
  O  O9  1  0.53613900  0.17465900  0.39062700  1
  O  O10  1  0.82533900  0.46386000  0.60937200  1
  O  O11  1  0.67465700  0.03614100  0.10937000  1
loop_
_geom_bond_atom_site_label_1
_geom_bond_atom_site_label_2
_geom_bond_distance
_geom_bond_site_symmetry_2
Li0 O10 2.030248 1_455
Li0 O1 2.030253 1_455
Li0 O7 2.053396 1_555
Li0 O3 2.053406 1_555
Li1 O9 2.030238 1_565
Li1 O11 2.030254 1_565
Li1 O0 2.053393 1_555
Li1 O2 2.053402 1_555
Li2 O3 2.030244 1_545
Li2 O7 2.030259 1_545
Li2 O1 2.053394 1_555
Li2 O10 2.053398 1_555
Li3 O2 2.030245 1_655
Li3 O0 2.030251 1_655
Li3 O11 2.053388 1_555
Li3 O9 2.053403 1_555
Ni0 O4 1.917449 1_565
Ni0 O8 1.917500 1_455
Ni0 O3 1.923710 1_555
Ni0 O2 1.923747 1_555
Ni0 O10 2.195656 1_455
Ni0 O9 2.195668 1_565
Ni1 O5 1.917473 1_555
Ni1 O6 1.917476 1_554
Ni1 O0 1.923717 1_555
Ni1 O7 1.923724 1_554
Ni1 O11 2.195617 1_565
Ni1 O1 2.195673 1_454
Ni2 O6 1.917476 1_555
Ni2 O5 1.917505 1_556
Ni2 O1 1.923693 1_555
Ni2 O11 1.923713 1_556
Ni2 O0 2.195630 1_656
Ni2 O7 2.195660 1_545
Ni3 O4 1.917469 1_655
Ni3 O8 1.917480 1_545
Ni3 O10 1.923716 1_555
Ni3 O9 1.923736 1_555
Ni3 O3 2.195632 1_545
Ni3 O2 2.195689 1_655
O0 Sn0 2.088721 1_465
O1 Sn0 2.088703 1_556
O2 Sn1 2.088715 1_555
O3 Sn1 2.088698 1_555
O4 Sn1 2.121715 1_555
O5 Sn0 2.121697 1_455
O6 Sn0 2.121709 1_566
O7 Sn0 2.088718 1_466
O8 Sn1 2.121717 1_555
O9 Sn1 2.088706 1_555
O10 Sn1 2.088703 1_555
O11 Sn0 2.088705 1_555
