# generated using pymatgen
data_Li4Ti2Mn5O12
_symmetry_space_group_name_H-M   'P 1'
_cell_length_a   9.07305100
_cell_length_b   5.29415600
_cell_length_c   10.06514192
_cell_angle_alpha   81.00035210
_cell_angle_beta   90.00000000
_cell_angle_gamma   90.00000000
_symmetry_Int_Tables_number   1
_chemical_formula_structural   Li4Ti2Mn5O12
_chemical_formula_sum   'Li8 Ti4 Mn10 O24'
_cell_volume   477.51865116
_cell_formula_units_Z   2
loop_
 _symmetry_equiv_pos_site_id
 _symmetry_equiv_pos_as_xyz
  1  'x, y, z'
loop_
 _atom_site_type_symbol
 _atom_site_label
 _atom_site_symmetry_multiplicity
 _atom_site_fract_x
 _atom_site_fract_y
 _atom_site_fract_z
 _atom_site_occupancy
  Li  Li0  1  0.90735900  0.00721400  0.74168700  1
  Li  Li1  1  0.91097500  0.49221300  0.25914600  1
  Li  Li2  1  0.58547900  0.75264500  0.50178200  1
  Li  Li3  1  0.58967900  0.50174100  0.25935500  1
  Li  Li4  1  0.40735900  0.99278600  0.25831300  1
  Li  Li5  1  0.41097500  0.50778700  0.74085400  1
  Li  Li6  1  0.08547900  0.24735500  0.49821800  1
  Li  Li7  1  0.08967900  0.49825900  0.74064500  1
  Ti  Ti0  1  0.75725700  0.24129500  0.50483800  1
  Ti  Ti1  1  0.75327600  0.75833000  0.99339900  1
  Ti  Ti2  1  0.25327600  0.24167000  0.00660100  1
  Ti  Ti3  1  0.25725700  0.75870500  0.49516200  1
  Mn  Mn0  1  0.92177800  0.25007900  0.00518800  1
  Mn  Mn1  1  0.92640300  0.75067400  0.49469400  1
  Mn  Mn2  1  0.74699100  0.98985800  0.25667800  1
  Mn  Mn3  1  0.57995300  0.24585200  0.99841000  1
  Mn  Mn4  1  0.73750400  0.51772600  0.73957600  1
  Mn  Mn5  1  0.42640300  0.24932600  0.50530600  1
  Mn  Mn6  1  0.42177800  0.74992100  0.99481200  1
  Mn  Mn7  1  0.24699100  0.01014200  0.74332200  1
  Mn  Mn8  1  0.23750400  0.48227400  0.26042400  1
  Mn  Mn9  1  0.07995300  0.75414800  0.00159000  1
  O  O0  1  0.89520200  0.14265400  0.38110500  1
  O  O1  1  0.89744500  0.85436600  0.11676700  1
  O  O2  1  0.76948400  0.88734100  0.60466300  1
  O  O3  1  0.76039200  0.10286700  0.89297700  1
  O  O4  1  0.90007300  0.63546400  0.87833700  1
  O  O5  1  0.89803600  0.36388800  0.62465500  1
  O  O6  1  0.58818700  0.14316400  0.38654300  1
  O  O7  1  0.76244500  0.61487300  0.38665300  1
  O  O8  1  0.59022800  0.85737000  0.11701900  1
  O  O9  1  0.75258400  0.38795800  0.11358100  1
  O  O10  1  0.59035900  0.62570900  0.88582200  1
  O  O11  1  0.58795500  0.37919500  0.60779900  1
  O  O12  1  0.39744500  0.14563400  0.88323300  1
  O  O13  1  0.39520200  0.85734600  0.61889500  1
  O  O14  1  0.26948400  0.11265900  0.39533700  1
  O  O15  1  0.39803600  0.63611200  0.37534500  1
  O  O16  1  0.26039200  0.89713300  0.10702300  1
  O  O17  1  0.40007300  0.36453600  0.12166300  1
  O  O18  1  0.09022800  0.14263000  0.88298100  1
  O  O19  1  0.26244500  0.38512700  0.61334700  1
  O  O20  1  0.08818700  0.85683600  0.61345700  1
  O  O21  1  0.25258400  0.61204200  0.88641900  1
  O  O22  1  0.08795500  0.62080500  0.39220100  1
  O  O23  1  0.09035900  0.37429100  0.11417800  1
loop_
_geom_bond_atom_site_label_1
_geom_bond_atom_site_label_2
_geom_bond_distance
_geom_bond_site_symmetry_2
Li0 O2 2.035570 1_545
Li0 O5 2.065055 1_555
Li0 O3 2.143487 1_555
Li0 O4 2.218704 1_545
Li0 O20 2.304959 1_645
Li0 O18 2.368187 1_655
Li1 O7 2.036066 1_555
Li1 O0 2.059466 1_555
Li1 O9 2.183913 1_555
Li1 O1 2.210239 1_555
Li1 O22 2.262883 1_655
Li1 O23 2.335108 1_655
Li2 O11 2.094767 1_555
Li2 O2 2.144529 1_555
Li2 O7 2.171922 1_555
Li2 O6 2.206840 1_565
Li2 O13 2.209429 1_555
Li2 O15 2.266736 1_555
Li3 O6 2.117186 1_555
Li3 O7 2.167389 1_555
Li3 O8 2.180220 1_555
Li3 O9 2.230870 1_555
Li3 O15 2.269851 1_555
Li3 O17 2.392221 1_555
Li4 O14 2.035570 1_565
Li4 O15 2.065055 1_555
Li4 O16 2.143487 1_555
Li4 O17 2.218704 1_565
Li4 O6 2.304959 1_565
Li4 O8 2.368187 1_555
Li5 O19 2.036066 1_555
Li5 O13 2.059466 1_555
Li5 O21 2.183913 1_555
Li5 O12 2.210239 1_555
Li5 O11 2.262883 1_555
Li5 O10 2.335108 1_555
Li6 O22 2.094767 1_555
Li6 O14 2.144529 1_555
Li6 O19 2.171922 1_555
Li6 O20 2.206840 1_545
Li6 O0 2.209429 1_455
Li6 O5 2.266736 1_455
Li7 O20 2.117186 1_555
Li7 O19 2.167389 1_555
Li7 O18 2.180220 1_555
Li7 O21 2.230870 1_555
Li7 O5 2.269851 1_455
Li7 O4 2.392221 1_455
Mn0 O23 2.049643 1_655
Mn0 O3 2.074234 1_554
Mn0 O9 2.080575 1_555
Mn0 O18 2.095554 1_654
Mn0 O1 2.227736 1_545
Mn0 O4 2.239804 1_554
Mn1 O22 1.976693 1_655
Mn1 O2 2.006539 1_555
Mn1 O20 2.027223 1_655
Mn1 O7 2.038869 1_555
Mn1 O0 2.225185 1_565
Mn1 O5 2.265480 1_555
Mn2 O0 2.085196 1_565
Mn2 O1 2.162661 1_555
Mn2 O6 2.185220 1_565
Mn2 O8 2.190752 1_555
Mn2 O7 2.204473 1_555
Mn2 O9 2.359939 1_565
Mn3 O12 2.135385 1_555
Mn3 O10 2.150424 1_555
Mn3 O3 2.151904 1_555
Mn3 O9 2.153111 1_556
Mn3 O17 2.200290 1_556
Mn3 O8 2.212619 1_546
Mn4 O5 2.101768 1_555
Mn4 O11 2.107728 1_555
Mn4 O10 2.130540 1_555
Mn4 O4 2.187953 1_555
Mn4 O2 2.219433 1_555
Mn4 O3 2.487968 1_555
Mn5 O11 1.976693 1_555
Mn5 O14 2.006539 1_555
Mn5 O6 2.027223 1_555
Mn5 O19 2.038869 1_555
Mn5 O13 2.225185 1_545
Mn5 O15 2.265480 1_555
Mn6 O10 2.049643 1_555
Mn6 O16 2.074234 1_556
Mn6 O21 2.080575 1_555
Mn6 O8 2.095554 1_556
Mn6 O12 2.227736 1_565
Mn6 O17 2.239804 1_556
Mn7 O13 2.085196 1_545
Mn7 O12 2.162661 1_555
Mn7 O20 2.185220 1_545
Mn7 O18 2.190752 1_555
Mn7 O19 2.204473 1_555
Mn7 O21 2.359939 1_545
Mn8 O15 2.101768 1_555
Mn8 O22 2.107728 1_555
Mn8 O23 2.130540 1_555
Mn8 O17 2.187953 1_555
Mn8 O14 2.219433 1_555
Mn8 O16 2.487968 1_555
Mn9 O1 2.135385 1_455
Mn9 O23 2.150424 1_555
Mn9 O16 2.151904 1_555
Mn9 O21 2.153111 1_554
Mn9 O4 2.200290 1_454
Mn9 O18 2.212619 1_564
O0 Ti0 1.895690 1_555
O1 Ti1 1.925844 1_554
O2 Ti0 1.986012 1_565
O3 Ti1 1.943219 1_545
O4 Ti1 1.942672 1_555
O5 Ti0 1.937000 1_555
O6 Ti0 2.057713 1_555
O7 Ti0 2.143084 1_555
O8 Ti1 2.053206 1_554
O9 Ti1 2.136818 1_554
O10 Ti1 2.021920 1_555
O11 Ti0 2.050172 1_555
O12 Ti2 1.925844 1_556
O13 Ti3 1.895690 1_555
O14 Ti3 1.986012 1_545
O15 Ti3 1.937000 1_555
O16 Ti2 1.943219 1_565
O17 Ti2 1.942672 1_555
O18 Ti2 2.053206 1_556
O19 Ti3 2.143084 1_555
O20 Ti3 2.057713 1_555
O21 Ti2 2.136818 1_556
O22 Ti3 2.050172 1_555
O23 Ti2 2.021920 1_555
