# generated using pymatgen
data_Li4TiMn3(PO4)4
_symmetry_space_group_name_H-M   'P 1'
_cell_length_a   6.15828800
_cell_length_b   4.77873000
_cell_length_c   10.59456943
_cell_angle_alpha   89.87445242
_cell_angle_beta   90.00000000
_cell_angle_gamma   90.00000000
_symmetry_Int_Tables_number   1
_chemical_formula_structural   Li4TiMn3(PO4)4
_chemical_formula_sum   'Li4 Ti1 Mn3 P4 O16'
_cell_volume   311.78467000
_cell_formula_units_Z   1
loop_
 _symmetry_equiv_pos_site_id
 _symmetry_equiv_pos_as_xyz
  1  'x, y, z'
loop_
 _atom_site_type_symbol
 _atom_site_label
 _atom_site_symmetry_multiplicity
 _atom_site_fract_x
 _atom_site_fract_y
 _atom_site_fract_z
 _atom_site_occupancy
  Li  Li0  1  0.24971000  0.00040900  0.00006100  1
  Li  Li1  1  0.75029000  0.00040900  0.00006100  1
  Li  Li2  1  0.75063900  0.50092600  0.50019000  1
  Li  Li3  1  0.24936100  0.50092600  0.50019000  1
  Ti  Ti0  1  0.00000000  0.02607400  0.72032000  1
  Mn  Mn0  1  0.50000000  0.97224800  0.28095800  1
  Mn  Mn1  1  0.50000000  0.52705700  0.78112400  1
  Mn  Mn2  1  0.00000000  0.47264000  0.21874100  1
  P  P0  1  0.00000000  0.90968700  0.40765800  1
  P  P1  1  0.00000000  0.59004300  0.90796200  1
  P  P2  1  0.50000000  0.40991800  0.09170400  1
  P  P3  1  0.50000000  0.08843200  0.59161500  1
  O  O0  1  0.00000000  0.78785100  0.54407100  1
  O  O1  1  0.20107000  0.77639500  0.33843600  1
  O  O2  1  0.79893000  0.77639500  0.33843600  1
  O  O3  1  0.50000000  0.76694200  0.59581200  1
  O  O4  1  0.50000000  0.73139800  0.09581000  1
  O  O5  1  0.20010000  0.72747400  0.83840100  1
  O  O6  1  0.79990000  0.72747400  0.83840100  1
  O  O7  1  0.00000000  0.71193000  0.04394600  1
  O  O8  1  0.50000000  0.28872000  0.95534700  1
  O  O9  1  0.70111200  0.27602400  0.16103700  1
  O  O10  1  0.29888800  0.27602400  0.16103700  1
  O  O11  1  0.00000000  0.26852300  0.90578100  1
  O  O12  1  0.00000000  0.23144100  0.40392000  1
  O  O13  1  0.70134300  0.22075700  0.66165100  1
  O  O14  1  0.29865700  0.22075700  0.66165100  1
  O  O15  1  0.50000000  0.21312400  0.45567800  1
loop_
_geom_bond_atom_site_label_1
_geom_bond_atom_site_label_2
_geom_bond_distance
_geom_bond_site_symmetry_2
Li0 O7 2.116267 1_545
Li0 O8 2.120274 1_554
Li0 O5 2.176622 1_544
Li0 O10 2.178284 1_555
Li0 O11 2.235728 1_554
Li0 O4 2.247600 1_545
Li1 O7 2.116267 1_645
Li1 O8 2.120274 1_554
Li1 O6 2.176622 1_544
Li1 O9 2.178284 1_555
Li1 O11 2.235728 1_654
Li1 O4 2.247600 1_545
Li2 O0 2.111190 1_655
Li2 O15 2.121126 1_555
Li2 O2 2.179050 1_555
Li2 O13 2.191081 1_555
Li2 O3 2.242849 1_555
Li2 O12 2.250029 1_655
Li3 O0 2.111190 1_555
Li3 O15 2.121126 1_555
Li3 O1 2.179050 1_555
Li3 O14 2.191081 1_555
Li3 O3 2.242849 1_555
Li3 O12 2.250029 1_555
Mn0 O1 2.152485 1_555
Mn0 O2 2.152485 1_555
Mn0 O15 2.181934 1_565
Mn0 O4 2.276473 1_555
Mn0 O9 2.290707 1_565
Mn0 O10 2.290707 1_565
Mn1 O8 2.166802 1_555
Mn1 O5 2.167713 1_555
Mn1 O6 2.167713 1_555
Mn1 O3 2.271298 1_555
Mn1 O14 2.300042 1_555
Mn1 O13 2.300042 1_555
Mn2 O10 2.155694 1_555
Mn2 O9 2.155694 1_455
Mn2 O7 2.174343 1_555
Mn2 O12 2.273247 1_555
Mn2 O1 2.292701 1_555
Mn2 O2 2.292701 1_455
O0 P0 1.556921 1_555
O0 Ti0 2.189069 1_565
O1 P0 1.574443 1_555
O2 P0 1.574443 1_655
O3 P3 1.536860 1_565
O4 P2 1.536977 1_555
O5 P1 1.578231 1_555
O5 Ti0 2.260939 1_565
O6 P1 1.578231 1_655
O6 Ti0 2.260939 1_665
O7 P1 1.555164 1_554
O8 P2 1.557595 1_556
O9 P2 1.575057 1_555
O10 P2 1.575057 1_555
O11 P1 1.536682 1_555
O11 Ti0 2.283217 1_555
O12 P0 1.537999 1_545
O13 P3 1.577943 1_555
O13 Ti0 2.152222 1_655
O14 P3 1.577943 1_555
O14 Ti0 2.152222 1_555
O15 P3 1.557388 1_555
