# generated using pymatgen
data_Li2VO2F
_symmetry_space_group_name_H-M   'P 1'
_cell_length_a   2.94545613
_cell_length_b   7.90396545
_cell_length_c   5.16137911
_cell_angle_alpha   96.43987456
_cell_angle_beta   73.42048049
_cell_angle_gamma   79.26140268
_symmetry_Int_Tables_number   1
_chemical_formula_structural   Li2VO2F
_chemical_formula_sum   'Li4 V2 O4 F2'
_cell_volume   111.39074078
_cell_formula_units_Z   2
loop_
 _symmetry_equiv_pos_site_id
 _symmetry_equiv_pos_as_xyz
  1  'x, y, z'
loop_
 _atom_site_type_symbol
 _atom_site_label
 _atom_site_symmetry_multiplicity
 _atom_site_fract_x
 _atom_site_fract_y
 _atom_site_fract_z
 _atom_site_occupancy
  Li  Li0  1  0.83334000  0.83333000  0.49998900  1
  Li  Li1  1  0.33331600  0.33331900  0.00004800  1
  Li  Li2  1  0.50787300  0.50669900  0.47761100  1
  Li  Li3  1  0.15877900  0.15996400  0.52239000  1
  V  V0  1  0.00399600  0.99837600  0.99354600  1
  V  V1  1  0.66269400  0.66829900  0.00641700  1
  O  O0  1  0.24304100  0.74718600  0.76674000  1
  O  O1  1  0.42362100  0.91949800  0.23326100  1
  O  O2  1  0.09707900  0.58277900  0.22316300  1
  O  O3  1  0.56960700  0.08390400  0.77680500  1
  F  F0  1  0.91860200  0.41809400  0.74494400  1
  F  F1  1  0.74804900  0.24855100  0.25508400  1
loop_
_geom_bond_atom_site_label_1
_geom_bond_atom_site_label_2
_geom_bond_distance
_geom_bond_site_symmetry_2
Li0 O0 2.160455 1_555
Li0 O1 2.160468 1_655
Li0 O1 2.160482 1_555
Li0 O0 2.160491 1_655
Li0 O2 2.173769 1_655
Li0 O3 2.173885 1_565
Li1 O3 2.054225 1_554
Li1 O2 2.054286 1_555
Li2 O2 2.088847 1_555
Li2 O2 2.088921 1_655
Li2 O0 2.143670 1_555
Li3 O3 2.088697 1_455
Li3 O3 2.088737 1_555
Li3 O1 2.143547 1_545
O0 V1 2.050495 1_456
O0 V1 2.050714 1_556
O0 V0 2.072497 1_555
O1 V0 2.050595 1_654
O1 V0 2.050795 1_554
O1 V1 2.072627 1_555
O2 V1 2.002399 1_555
O2 V1 2.002406 1_455
O3 V0 2.002412 1_645
O3 V0 2.002417 1_545
F0 Li3 2.110738 1_655
F0 Li1 2.117908 1_656
F0 Li1 2.118389 1_556
F0 V1 2.136748 1_556
F0 Li2 2.170228 1_655
F0 Li2 2.170617 1_555
F1 Li2 2.110811 1_555
F1 Li1 2.117643 1_555
F1 Li1 2.118171 1_655
F1 V0 2.136705 1_644
F1 Li3 2.170087 1_555
F1 Li3 2.170462 1_655
