# generated using pymatgen
data_LiFeP2H5O9
_symmetry_space_group_name_H-M   'P 1'
_cell_length_a   6.51819400
_cell_length_b   7.81374000
_cell_length_c   15.04533800
_cell_angle_alpha   90.00000000
_cell_angle_beta   90.00000000
_cell_angle_gamma   90.00000000
_symmetry_Int_Tables_number   1
_chemical_formula_structural   LiFeP2H5O9
_chemical_formula_sum   'Li4 Fe4 P8 H20 O36'
_cell_volume   766.28122891
_cell_formula_units_Z   4
loop_
 _symmetry_equiv_pos_site_id
 _symmetry_equiv_pos_as_xyz
  1  'x, y, z'
loop_
 _atom_site_type_symbol
 _atom_site_label
 _atom_site_symmetry_multiplicity
 _atom_site_fract_x
 _atom_site_fract_y
 _atom_site_fract_z
 _atom_site_occupancy
  Li  Li0  1  0.74366000  0.72887100  0.52924500  1
  Li  Li1  1  0.24366000  0.22887100  0.97075500  1
  Li  Li2  1  0.75634000  0.72887100  0.02924500  1
  Li  Li3  1  0.25634000  0.22887100  0.47075500  1
  Fe  Fe0  1  0.43828700  0.25480500  0.68964800  1
  Fe  Fe1  1  0.93828700  0.75480500  0.81035200  1
  Fe  Fe2  1  0.06171300  0.25480500  0.18964800  1
  Fe  Fe3  1  0.56171300  0.75480500  0.31035200  1
  P  P0  1  0.14353200  0.93616700  0.63179100  1
  P  P1  1  0.13072500  0.56430300  0.63558100  1
  P  P2  1  0.64353200  0.43616700  0.86820900  1
  P  P3  1  0.63072500  0.06430300  0.86441900  1
  P  P4  1  0.35646800  0.93616700  0.13179100  1
  P  P5  1  0.36927500  0.56430300  0.13558100  1
  P  P6  1  0.85646800  0.43616700  0.36820900  1
  P  P7  1  0.86927500  0.06430300  0.36441900  1
  H  H0  1  0.99349300  0.99217100  0.50561400  1
  H  H1  1  0.78433400  0.35556100  0.59434400  1
  H  H2  1  0.77923900  0.15133100  0.59281700  1
  H  H3  1  0.60695900  0.85668300  0.71887400  1
  H  H4  1  0.60731300  0.64957700  0.72180000  1
  H  H5  1  0.10695900  0.35668300  0.78112600  1
  H  H6  1  0.10731300  0.14957700  0.77820000  1
  H  H7  1  0.28433400  0.85556100  0.90565600  1
  H  H8  1  0.27923900  0.65133100  0.90718300  1
  H  H9  1  0.49349300  0.49217100  0.99438600  1
  H  H10  1  0.50650700  0.99217100  0.00561400  1
  H  H11  1  0.71566600  0.35556100  0.09434400  1
  H  H12  1  0.72076100  0.15133100  0.09281700  1
  H  H13  1  0.89304100  0.85668300  0.21887400  1
  H  H14  1  0.89268700  0.64957700  0.22180000  1
  H  H15  1  0.39304100  0.35668300  0.28112600  1
  H  H16  1  0.39268700  0.14957700  0.27820000  1
  H  H17  1  0.21566600  0.85556100  0.40565600  1
  H  H18  1  0.22076100  0.65133100  0.40718300  1
  H  H19  1  0.00650700  0.49217100  0.49438600  1
  O  O0  1  0.94407800  0.94566700  0.56992300  1
  O  O1  1  0.93796100  0.55410200  0.57471700  1
  O  O2  1  0.69405200  0.25446800  0.59828700  1
  O  O3  1  0.24003200  0.74836000  0.61204400  1
  O  O4  1  0.28571700  0.42898200  0.60789900  1
  O  O5  1  0.29855000  0.06671000  0.59943200  1
  O  O6  1  0.68644200  0.75239800  0.70414100  1
  O  O7  1  0.07824200  0.94538600  0.72815700  1
  O  O8  1  0.07620200  0.56502200  0.73385900  1
  O  O9  1  0.57824200  0.44538600  0.77184300  1
  O  O10  1  0.57620200  0.06502200  0.76614100  1
  O  O11  1  0.18644200  0.25239800  0.79585900  1
  O  O12  1  0.78571700  0.92898200  0.89210100  1
  O  O13  1  0.79855000  0.56671000  0.90056800  1
  O  O14  1  0.74003200  0.24836000  0.88795600  1
  O  O15  1  0.19405200  0.75446800  0.90171300  1
  O  O16  1  0.44407800  0.44566700  0.93007700  1
  O  O17  1  0.43796100  0.05410200  0.92528300  1
  O  O18  1  0.55592200  0.94566700  0.06992300  1
  O  O19  1  0.56203900  0.55410200  0.07471700  1
  O  O20  1  0.80594800  0.25446800  0.09828700  1
  O  O21  1  0.25996800  0.74836000  0.11204400  1
  O  O22  1  0.21428300  0.42898200  0.10789900  1
  O  O23  1  0.20145000  0.06671000  0.09943200  1
  O  O24  1  0.81355800  0.75239800  0.20414100  1
  O  O25  1  0.42175800  0.94538600  0.22815700  1
  O  O26  1  0.42379800  0.56502200  0.23385900  1
  O  O27  1  0.92175800  0.44538600  0.27184300  1
  O  O28  1  0.92379800  0.06502200  0.26614100  1
  O  O29  1  0.31355800  0.25239800  0.29585900  1
  O  O30  1  0.71428300  0.92898200  0.39210100  1
  O  O31  1  0.70145000  0.56671000  0.40056800  1
  O  O32  1  0.75996800  0.24836000  0.38795600  1
  O  O33  1  0.30594800  0.75446800  0.40171300  1
  O  O34  1  0.05592200  0.44566700  0.43007700  1
  O  O35  1  0.06203900  0.05410200  0.42528300  1
loop_
_geom_bond_atom_site_label_1
_geom_bond_atom_site_label_2
_geom_bond_distance
_geom_bond_site_symmetry_2
Li0 O1 1.984166 1_555
Li0 O0 2.225026 1_555
Li0 O31 2.330076 1_555
Li0 O30 2.595975 1_555
Li0 O6 2.664019 1_555
Li1 O17 1.984166 1_555
Li1 O16 2.225026 1_555
Li1 O23 2.330076 1_556
Li1 O22 2.595975 1_556
Li1 O11 2.664019 1_555
Li2 O19 1.984166 1_555
Li2 O18 2.225026 1_555
Li2 O13 2.330076 1_554
Li2 O12 2.595975 1_554
Li2 O24 2.664019 1_555
Li3 O35 1.984166 1_555
Li3 O34 2.225026 1_555
Li3 O5 2.330076 1_555
Li3 O4 2.595975 1_555
Li3 O29 2.664019 1_555
Fe0 O10 2.081261 1_555
Fe0 O4 2.086623 1_555
Fe0 O9 2.139879 1_555
Fe0 O2 2.160723 1_555
Fe0 O5 2.198193 1_555
Fe0 O11 2.290996 1_555
Fe1 O8 2.081261 1_655
Fe1 O12 2.086623 1_555
Fe1 O7 2.139879 1_655
Fe1 O15 2.160723 1_655
Fe1 O13 2.198193 1_555
Fe1 O6 2.290996 1_555
Fe2 O28 2.081261 1_455
Fe2 O22 2.086623 1_555
Fe2 O27 2.139879 1_455
Fe2 O20 2.160723 1_455
Fe2 O23 2.198193 1_555
Fe2 O29 2.290996 1_555
Fe3 O26 2.081261 1_555
Fe3 O30 2.086623 1_555
Fe3 O25 2.139879 1_555
Fe3 O33 2.160723 1_555
Fe3 O31 2.198193 1_555
Fe3 O24 2.290996 1_555
H0 O0 1.082561 1_555
H0 O35 1.376419 1_665
H1 O2 0.986807 1_555
H2 O2 0.982112 1_555
H3 O6 0.990726 1_555
H4 O6 0.991007 1_555
H5 O11 0.990726 1_555
H6 O11 0.991007 1_555
H7 O15 0.986807 1_555
H8 O15 0.982112 1_555
H9 O16 1.082561 1_555
H9 O19 1.376419 1_556
H10 O18 1.082561 1_555
H10 O17 1.376419 1_564
H11 O20 0.986807 1_555
H12 O20 0.982112 1_555
H13 O24 0.990726 1_555
H14 O24 0.991007 1_555
H15 O29 0.990726 1_555
H16 O29 0.991007 1_555
H17 O33 0.986807 1_555
H18 O33 0.982112 1_555
H19 O34 1.082561 1_555
H19 O1 1.376419 1_455
O0 P0 1.600673 1_655
O1 P1 1.556798 1_655
O3 P0 1.624007 1_555
O3 P1 1.643587 1_555
O4 P1 1.520565 1_555
O5 P0 1.516070 1_545
O7 P0 1.512743 1_555
O8 P1 1.520746 1_555
O9 P2 1.512743 1_555
O10 P3 1.520746 1_555
O12 P3 1.520565 1_565
O13 P2 1.516070 1_555
O14 P2 1.624007 1_555
O14 P3 1.643587 1_555
O16 P2 1.600673 1_555
O17 P3 1.556798 1_555
O18 P4 1.600673 1_555
O19 P5 1.556798 1_555
O21 P4 1.624007 1_555
O21 P5 1.643587 1_555
O22 P5 1.520565 1_555
O23 P4 1.516070 1_545
O25 P4 1.512743 1_555
O26 P5 1.520746 1_555
O27 P6 1.512743 1_555
O28 P7 1.520746 1_555
O30 P7 1.520565 1_565
O31 P6 1.516070 1_555
O32 P6 1.624007 1_555
O32 P7 1.643587 1_555
O34 P6 1.600673 1_455
O35 P7 1.556798 1_455
