# generated using pymatgen
data_MgCdH4(N2O5)2
_symmetry_space_group_name_H-M   'P 1'
_cell_length_a   6.78675485
_cell_length_b   6.78675485
_cell_length_c   12.22924922
_cell_angle_alpha   88.62148788
_cell_angle_beta   88.62148788
_cell_angle_gamma   62.99000648
_symmetry_Int_Tables_number   1
_chemical_formula_structural   MgCdH4(N2O5)2
_chemical_formula_sum   'Mg2 Cd2 H8 N8 O20'
_cell_volume   501.64152608
_cell_formula_units_Z   2
loop_
 _symmetry_equiv_pos_site_id
 _symmetry_equiv_pos_as_xyz
  1  'x, y, z'
loop_
 _atom_site_type_symbol
 _atom_site_label
 _atom_site_symmetry_multiplicity
 _atom_site_fract_x
 _atom_site_fract_y
 _atom_site_fract_z
 _atom_site_occupancy
  Mg  Mg0  1  0.00000000  0.50000000  0.50000000  1
  Mg  Mg1  1  0.50000000  0.00000000  0.00000000  1
  Cd  Cd0  1  0.01372400  0.98627600  0.75000000  1
  Cd  Cd1  1  0.98627600  0.01372400  0.25000000  1
  H  H0  1  0.77463700  0.59115100  0.93846100  1
  H  H1  1  0.40884900  0.22536300  0.56153900  1
  H  H2  1  0.22536300  0.40884900  0.06153900  1
  H  H3  1  0.59115100  0.77463700  0.43846100  1
  H  H4  1  0.77040600  0.57944200  0.06716800  1
  H  H5  1  0.42055800  0.22959400  0.43283200  1
  H  H6  1  0.22959400  0.42055800  0.93283200  1
  H  H7  1  0.57944200  0.77040600  0.56716800  1
  N  N0  1  0.73292100  0.28605700  0.57928000  1
  N  N1  1  0.71394300  0.26707900  0.92072000  1
  N  N2  1  0.26707900  0.71394300  0.42072000  1
  N  N3  1  0.28605700  0.73292100  0.07928000  1
  N  N4  1  0.13264200  0.51056700  0.72875400  1
  N  N5  1  0.48943300  0.86735800  0.77124600  1
  N  N6  1  0.86735800  0.48943300  0.27124600  1
  N  N7  1  0.51056700  0.13264200  0.22875400  1
  O  O0  1  0.68474200  0.15991100  0.63901100  1
  O  O1  1  0.84008900  0.31525800  0.86098900  1
  O  O2  1  0.31525800  0.84008900  0.36098900  1
  O  O3  1  0.15991100  0.68474200  0.13901100  1
  O  O4  1  0.92434300  0.27172900  0.59823500  1
  O  O5  1  0.72827100  0.07565700  0.90176500  1
  O  O6  1  0.07565700  0.72827100  0.40176500  1
  O  O7  1  0.27172900  0.92434300  0.09823500  1
  O  O8  1  0.14655100  0.60692800  0.81328500  1
  O  O9  1  0.39307200  0.85344900  0.68671500  1
  O  O10  1  0.85344900  0.39307200  0.18671500  1
  O  O11  1  0.60692800  0.14655100  0.31328500  1
  O  O12  1  0.04977400  0.64204800  0.64729600  1
  O  O13  1  0.35795200  0.95022600  0.85270400  1
  O  O14  1  0.95022600  0.35795200  0.35270400  1
  O  O15  1  0.64204800  0.04977400  0.14729600  1
  O  O16  1  0.74600200  0.68176900  0.00421000  1
  O  O17  1  0.31823100  0.25399800  0.49579000  1
  O  O18  1  0.25399800  0.31823100  0.99579000  1
  O  O19  1  0.68176900  0.74600200  0.50421000  1
loop_
_geom_bond_atom_site_label_1
_geom_bond_atom_site_label_2
_geom_bond_distance
_geom_bond_site_symmetry_2
Mg0 O19 2.044077 1_455
Mg0 O17 2.044077 1_555
Mg0 O12 2.167226 1_555
Mg0 O14 2.167226 1_455
Mg0 O6 2.170308 1_555
Mg0 O4 2.170308 1_455
Mg1 O16 2.044077 1_545
Mg1 O18 2.044077 1_554
Mg1 O15 2.167226 1_555
Mg1 O13 2.167226 1_544
Mg1 O7 2.170308 1_545
Mg1 O5 2.170308 1_554
Cd0 O8 2.422716 1_555
Cd0 O9 2.422716 1_555
Cd0 O0 2.427977 1_465
Cd0 O1 2.427977 1_465
Cd0 O5 2.525767 1_465
Cd0 O4 2.525767 1_465
Cd0 O13 2.588899 1_555
Cd0 O12 2.588899 1_555
Cd1 O11 2.422716 1_555
Cd1 O10 2.422716 1_555
Cd1 O3 2.427977 1_645
Cd1 O2 2.427977 1_645
Cd1 O6 2.525767 1_645
Cd1 O7 2.525767 1_645
Cd1 O14 2.588899 1_555
Cd1 O15 2.588899 1_555
H0 O16 0.985000 1_556
H1 O17 0.985000 1_555
H2 O18 0.985000 1_554
H3 O19 0.985000 1_555
H4 O16 0.989164 1_555
H5 O17 0.989164 1_555
H6 O18 0.989164 1_555
H7 O19 0.989164 1_555
N0 O0 1.259413 1_555
N0 O4 1.284368 1_555
N1 O1 1.259413 1_555
N1 O5 1.284368 1_555
N2 O2 1.259413 1_555
N2 O6 1.284368 1_555
N3 O3 1.259413 1_555
N3 O7 1.284368 1_555
N4 O8 1.264332 1_555
N4 O12 1.277993 1_555
N5 O9 1.264332 1_555
N5 O13 1.277993 1_555
N6 O10 1.264332 1_555
N6 O14 1.277993 1_555
N7 O11 1.264332 1_555
N7 O15 1.277993 1_555
