# generated using pymatgen
data_Ti2Sn(PO4)3
_symmetry_space_group_name_H-M   'P 1'
_cell_length_a   9.04861576
_cell_length_b   9.04861576
_cell_length_c   9.04861633
_cell_angle_alpha   57.23965491
_cell_angle_beta   57.23965491
_cell_angle_gamma   57.23965966
_symmetry_Int_Tables_number   1
_chemical_formula_structural   Ti2Sn(PO4)3
_chemical_formula_sum   'Ti4 Sn2 P6 O24'
_cell_volume   490.57605414
_cell_formula_units_Z   2
loop_
 _symmetry_equiv_pos_site_id
 _symmetry_equiv_pos_as_xyz
  1  'x, y, z'
loop_
 _atom_site_type_symbol
 _atom_site_label
 _atom_site_symmetry_multiplicity
 _atom_site_fract_x
 _atom_site_fract_y
 _atom_site_fract_z
 _atom_site_occupancy
  Ti  Ti0  1  0.14863000  0.14863000  0.14863000  1
  Ti  Ti1  1  0.35137000  0.35137000  0.35137000  1
  Ti  Ti2  1  0.64863000  0.64863000  0.64863000  1
  Ti  Ti3  1  0.85137000  0.85137000  0.85137000  1
  Sn  Sn0  1  0.00000000  0.00000000  0.00000000  1
  Sn  Sn1  1  0.50000000  0.50000000  0.50000000  1
  P  P0  1  0.46193300  0.75000000  0.03806700  1
  P  P1  1  0.75000000  0.03806700  0.46193300  1
  P  P2  1  0.03806700  0.46193300  0.75000000  1
  P  P3  1  0.96193300  0.53806700  0.25000000  1
  P  P4  1  0.25000000  0.96193300  0.53806700  1
  P  P5  1  0.53806700  0.25000000  0.96193300  1
  O  O0  1  0.50591800  0.28723900  0.12633600  1
  O  O1  1  0.12633600  0.50591800  0.28723900  1
  O  O2  1  0.27854800  0.92269700  0.06171100  1
  O  O3  1  0.28723900  0.12633600  0.50591800  1
  O  O4  1  0.62633600  0.78723900  0.00591800  1
  O  O5  1  0.43828900  0.57730300  0.22145200  1
  O  O6  1  0.92269700  0.06171100  0.27854800  1
  O  O7  1  0.57730300  0.22145200  0.43828900  1
  O  O8  1  0.99408200  0.37366400  0.21276100  1
  O  O9  1  0.22145200  0.43828900  0.57730300  1
  O  O10  1  0.93828900  0.72145200  0.07730300  1
  O  O11  1  0.21276100  0.99408200  0.37366400  1
  O  O12  1  0.78723900  0.00591800  0.62633600  1
  O  O13  1  0.06171100  0.27854800  0.92269700  1
  O  O14  1  0.77854800  0.56171100  0.42269700  1
  O  O15  1  0.00591800  0.62633600  0.78723900  1
  O  O16  1  0.42269700  0.77854800  0.56171100  1
  O  O17  1  0.07730300  0.93828900  0.72145200  1
  O  O18  1  0.56171100  0.42269700  0.77854800  1
  O  O19  1  0.37366400  0.21276100  0.99408200  1
  O  O20  1  0.71276100  0.87366400  0.49408200  1
  O  O21  1  0.72145200  0.07730300  0.93828900  1
  O  O22  1  0.87366400  0.49408200  0.71276100  1
  O  O23  1  0.49408200  0.71276100  0.87366400  1
loop_
_geom_bond_atom_site_label_1
_geom_bond_atom_site_label_2
_geom_bond_distance
_geom_bond_site_symmetry_2
O0 P5 1.542480 1_554
O0 Ti1 1.938414 1_555
O1 P3 1.542480 1_455
O1 Ti1 1.938414 1_555
O2 P0 1.553225 1_555
O2 Ti0 2.078114 1_565
O2 Sn0 2.519187 1_565
O3 P4 1.542480 1_545
O3 Ti1 1.938414 1_555
O4 P0 1.542480 1_555
O4 Ti3 1.938414 1_554
O5 P0 1.553225 1_555
O5 Ti1 2.078114 1_555
O5 Sn1 2.519188 1_555
O6 P1 1.553225 1_555
O6 Ti0 2.078114 1_655
O6 Sn0 2.519188 1_655
O7 P1 1.553225 1_555
O7 Ti1 2.078114 1_555
O7 Sn1 2.519187 1_555
O8 P3 1.542480 1_555
O8 Ti0 1.938414 1_655
O9 P2 1.553225 1_555
O9 Ti1 2.078114 1_555
O9 Sn1 2.519187 1_555
O10 P3 1.553225 1_555
O10 Ti3 2.078114 1_554
O10 Sn0 2.519187 1_665
O11 P4 1.542480 1_555
O11 Ti0 1.938414 1_565
O12 P1 1.542480 1_555
O12 Ti3 1.938414 1_545
O13 P2 1.553225 1_555
O13 Ti0 2.078114 1_556
O13 Sn0 2.519187 1_556
O14 P3 1.553225 1_555
O14 Ti2 2.078114 1_555
O14 Sn1 2.519187 1_555
O15 P2 1.542480 1_555
O15 Ti3 1.938414 1_455
O16 P4 1.553225 1_555
O16 Ti2 2.078114 1_555
O16 Sn1 2.519187 1_555
O17 P4 1.553225 1_555
O17 Ti3 2.078114 1_455
O17 Sn0 2.519188 1_566
O18 P5 1.553225 1_555
O18 Ti2 2.078114 1_555
O18 Sn1 2.519188 1_555
O19 P5 1.542480 1_555
O19 Ti0 1.938414 1_556
O20 P1 1.542480 1_565
O20 Ti2 1.938414 1_555
O21 P5 1.553225 1_555
O21 Ti3 2.078114 1_545
O21 Sn0 2.519187 1_656
O22 P2 1.542480 1_655
O22 Ti2 1.938414 1_555
O23 P0 1.542480 1_556
O23 Ti2 1.938414 1_555
