# generated using pymatgen
data_Fe23O25
_symmetry_space_group_name_H-M   'P 1'
_cell_length_a   6.81750000
_cell_length_b   6.85195072
_cell_length_c   12.06887789
_cell_angle_alpha   87.11632903
_cell_angle_beta   106.31714808
_cell_angle_gamma   107.22456387
_symmetry_Int_Tables_number   1
_chemical_formula_structural   Fe23O25
_chemical_formula_sum   'Fe23 O25'
_cell_volume   516.46865576
_cell_formula_units_Z   1
loop_
 _symmetry_equiv_pos_site_id
 _symmetry_equiv_pos_as_xyz
  1  'x, y, z'
loop_
 _atom_site_type_symbol
 _atom_site_label
 _atom_site_symmetry_multiplicity
 _atom_site_fract_x
 _atom_site_fract_y
 _atom_site_fract_z
 _atom_site_occupancy
  Fe  Fe0  1  0.73537600  0.31271700  0.16143500  1
  Fe  Fe1  1  0.47986100  0.69895600  0.43825600  1
  Fe  Fe2  1  0.88102100  0.68347500  0.64014200  1
  Fe  Fe3  1  0.22957600  0.10264700  0.72280100  1
  Fe  Fe4  1  0.26462400  0.68728300  0.83856500  1
  Fe  Fe5  1  0.61891900  0.49354700  0.79860200  1
  Fe  Fe6  1  0.64674600  0.09960600  0.91714200  1
  Fe  Fe7  1  0.69116900  0.70424300  0.04534200  1
  Fe  Fe8  1  0.00000000  0.50000000  0.00000000  1
  Fe  Fe9  1  0.03847400  0.08592600  0.12575700  1
  Fe  Fe10  1  0.35325400  0.90039400  0.08285800  1
  Fe  Fe11  1  0.38108100  0.50645300  0.20139800  1
  Fe  Fe12  1  0.43665900  0.08767300  0.31868100  1
  Fe  Fe13  1  0.77042400  0.89735300  0.27719900  1
  Fe  Fe14  1  0.80354400  0.50416000  0.39178000  1
  Fe  Fe15  1  0.11897900  0.31652500  0.35985800  1
  Fe  Fe16  1  0.84521900  0.10555100  0.52514700  1
  Fe  Fe17  1  0.15478100  0.89444900  0.47485300  1
  Fe  Fe18  1  0.19645600  0.49584000  0.60822000  1
  Fe  Fe19  1  0.52013900  0.30104400  0.56174400  1
  Fe  Fe20  1  0.56334100  0.91232700  0.68131900  1
  Fe  Fe21  1  0.96152600  0.91407400  0.87424300  1
  Fe  Fe22  1  0.30883100  0.29575700  0.95465800  1
  O  O0  1  0.31062700  0.99913700  0.90105600  1
  O  O1  1  0.65009000  0.40457800  0.96939500  1
  O  O2  1  0.68937300  0.00086300  0.09894400  1
  O  O3  1  0.06484600  0.39457500  0.17864400  1
  O  O4  1  0.11940900  0.02777200  0.30379700  1
  O  O5  1  0.42739300  0.80487400  0.26219500  1
  O  O6  1  0.45662700  0.39246900  0.36932900  1
  O  O7  1  0.50000000  0.00000000  0.50000000  1
  O  O8  1  0.81253700  0.80398700  0.46061300  1
  O  O9  1  0.84331900  0.40342800  0.56258700  1
  O  O10  1  0.18746300  0.19601300  0.53938700  1
  O  O11  1  0.54337300  0.60753100  0.63067100  1
  O  O12  1  0.88059100  0.97222800  0.69620300  1
  O  O13  1  0.23667400  0.81363600  0.66214500  1
  O  O14  1  0.29466700  0.40556200  0.77848700  1
  O  O15  1  0.57260700  0.19512600  0.73780500  1
  O  O16  1  0.60777300  0.79112700  0.84640700  1
  O  O17  1  0.93515400  0.60542500  0.82135600  1
  O  O18  1  0.98789400  0.20060100  0.95715100  1
  O  O19  1  0.01210600  0.79939900  0.04284900  1
  O  O20  1  0.34991000  0.59542200  0.03060500  1
  O  O21  1  0.39222700  0.20887300  0.15359300  1
  O  O22  1  0.70533300  0.59443800  0.22151300  1
  O  O23  1  0.76332600  0.18636400  0.33785500  1
  O  O24  1  0.15668100  0.59657200  0.43741300  1
loop_
_geom_bond_atom_site_label_1
_geom_bond_atom_site_label_2
_geom_bond_distance
_geom_bond_site_symmetry_2
Fe0 O3 2.099151 1_655
Fe0 O22 2.179981 1_555
Fe0 O2 2.205781 1_555
Fe0 O21 2.210126 1_555
Fe0 O23 2.236865 1_555
Fe0 O1 2.327820 1_554
Fe1 O24 2.102240 1_555
Fe1 O8 2.107996 1_555
Fe1 O5 2.177424 1_555
Fe1 O7 2.181394 1_565
Fe1 O6 2.243206 1_555
Fe1 O11 2.328506 1_555
Fe2 O9 2.092284 1_555
Fe2 O12 2.124047 1_555
Fe2 O11 2.175177 1_555
Fe2 O17 2.179693 1_555
Fe2 O8 2.252633 1_555
Fe2 O13 2.264128 1_655
Fe3 O14 2.093761 1_555
Fe3 O13 2.163863 1_545
Fe3 O15 2.190752 1_555
Fe3 O0 2.201640 1_545
Fe3 O12 2.214222 1_445
Fe3 O10 2.236270 1_555
Fe4 O17 2.099151 1_455
Fe4 O14 2.179981 1_555
Fe4 O0 2.205781 1_555
Fe4 O16 2.210126 1_555
Fe4 O13 2.236865 1_555
Fe4 O20 2.327820 1_556
Fe5 O17 2.005199 1_555
Fe5 O14 2.057424 1_555
Fe5 O1 2.090410 1_555
Fe5 O15 2.111299 1_555
Fe5 O11 2.115497 1_555
Fe5 O16 2.175074 1_555
Fe6 O18 2.137913 1_555
Fe6 O0 2.142839 1_545
Fe6 O15 2.192515 1_555
Fe6 O1 2.204806 1_555
Fe6 O2 2.228290 1_556
Fe6 O16 2.233504 1_545
Fe7 O19 2.098441 1_655
Fe7 O2 2.168152 1_565
Fe7 O20 2.180324 1_555
Fe7 O1 2.199805 1_554
Fe7 O22 2.205169 1_555
Fe7 O16 2.394097 1_554
Fe8 O19 2.113114 1_555
Fe8 O18 2.113114 1_454
Fe8 O20 2.204553 1_555
Fe8 O1 2.204553 1_454
Fe8 O3 2.205124 1_555
Fe8 O17 2.205124 1_454
Fe9 O4 2.111441 1_555
Fe9 O18 2.117161 1_454
Fe9 O3 2.181391 1_555
Fe9 O19 2.185297 1_545
Fe9 O2 2.207598 1_455
Fe9 O21 2.238050 1_555
Fe10 O19 2.137913 1_555
Fe10 O2 2.142839 1_565
Fe10 O5 2.192515 1_555
Fe10 O20 2.204806 1_555
Fe10 O0 2.228290 1_554
Fe10 O21 2.233504 1_565
Fe11 O3 2.005199 1_555
Fe11 O22 2.057424 1_555
Fe11 O20 2.090410 1_555
Fe11 O5 2.111299 1_555
Fe11 O6 2.115497 1_555
Fe11 O21 2.175074 1_555
Fe12 O4 2.035196 1_555
Fe12 O5 2.063912 1_545
Fe12 O23 2.074814 1_555
Fe12 O21 2.096318 1_555
Fe12 O6 2.160348 1_555
Fe12 O7 2.196920 1_555
Fe13 O22 2.093761 1_555
Fe13 O23 2.163863 1_565
Fe13 O5 2.190752 1_555
Fe13 O2 2.201640 1_565
Fe13 O4 2.214222 1_665
Fe13 O8 2.236270 1_555
Fe14 O22 2.097130 1_555
Fe14 O9 2.110230 1_555
Fe14 O6 2.200374 1_555
Fe14 O24 2.210790 1_655
Fe14 O23 2.220151 1_555
Fe14 O8 2.232251 1_555
Fe15 O24 2.092284 1_555
Fe15 O4 2.124047 1_555
Fe15 O6 2.175177 1_555
Fe15 O3 2.179693 1_555
Fe15 O10 2.252633 1_555
Fe15 O23 2.264128 1_455
Fe16 O9 2.117055 1_555
Fe16 O8 2.172007 1_545
Fe16 O7 2.183330 1_555
Fe16 O10 2.187846 1_655
Fe16 O12 2.194451 1_545
Fe16 O23 2.252948 1_555
Fe17 O24 2.117055 1_555
Fe17 O10 2.172007 1_565
Fe17 O7 2.183330 1_565
Fe17 O8 2.187846 1_455
Fe17 O4 2.194451 1_565
Fe17 O13 2.252948 1_555
Fe18 O14 2.097130 1_555
Fe18 O24 2.110230 1_555
Fe18 O11 2.200374 1_555
Fe18 O9 2.210790 1_455
Fe18 O13 2.220151 1_555
Fe18 O10 2.232251 1_555
Fe19 O9 2.102240 1_555
Fe19 O10 2.107996 1_555
Fe19 O15 2.177424 1_555
Fe19 O7 2.181394 1_555
Fe19 O11 2.243206 1_555
Fe19 O6 2.328506 1_555
Fe20 O12 2.035196 1_555
Fe20 O15 2.063912 1_565
Fe20 O13 2.074814 1_555
Fe20 O16 2.096318 1_555
Fe20 O11 2.160348 1_555
Fe20 O7 2.196920 1_565
Fe21 O12 2.111441 1_555
Fe21 O19 2.117161 1_656
Fe21 O17 2.181391 1_555
Fe21 O18 2.185297 1_565
Fe21 O0 2.207598 1_655
Fe21 O16 2.238050 1_555
Fe22 O18 2.098441 1_455
Fe22 O0 2.168152 1_545
Fe22 O1 2.180324 1_555
Fe22 O20 2.199805 1_556
Fe22 O14 2.205169 1_555
Fe22 O21 2.394097 1_556
