# generated using pymatgen
data_LiMnF4
_symmetry_space_group_name_H-M   'P 1'
_cell_length_a   7.02374063
_cell_length_b   7.02374063
_cell_length_c   10.71111400
_cell_angle_alpha   90.00000000
_cell_angle_beta   90.00000000
_cell_angle_gamma   120.00000596
_symmetry_Int_Tables_number   1
_chemical_formula_structural   LiMnF4
_chemical_formula_sum   'Li6 Mn6 F24'
_cell_volume   457.61703090
_cell_formula_units_Z   6
loop_
 _symmetry_equiv_pos_site_id
 _symmetry_equiv_pos_as_xyz
  1  'x, y, z'
loop_
 _atom_site_type_symbol
 _atom_site_label
 _atom_site_symmetry_multiplicity
 _atom_site_fract_x
 _atom_site_fract_y
 _atom_site_fract_z
 _atom_site_occupancy
  Li  Li0  1  0.15789800  0.74650900  0.32318400  1
  Li  Li1  1  0.25349100  0.41138900  0.65651700  1
  Li  Li2  1  0.58861100  0.84210200  0.98985000  1
  Li  Li3  1  0.45762900  0.32842100  0.08706300  1
  Li  Li4  1  0.87079200  0.54237100  0.75373000  1
  Li  Li5  1  0.67157900  0.12920800  0.42039700  1
  Mn  Mn0  1  0.00978600  0.84263900  0.01158800  1
  Mn  Mn1  1  0.99206200  0.37007300  0.06769700  1
  Mn  Mn2  1  0.37801100  0.00793800  0.73436400  1
  Mn  Mn3  1  0.15736100  0.16714700  0.34492200  1
  Mn  Mn4  1  0.62992700  0.62198900  0.40103100  1
  Mn  Mn5  1  0.83285300  0.99021400  0.67825500  1
  F  F0  1  0.09517900  0.64337800  0.15464300  1
  F  F1  1  0.27724200  0.00479900  0.92991200  1
  F  F2  1  0.18136600  0.71615100  0.68703500  1
  F  F3  1  0.99520100  0.27244300  0.26324600  1
  F  F4  1  0.28384900  0.46521500  0.02036800  1
  F  F5  1  0.18524200  0.09551800  0.66580100  1
  F  F6  1  0.54819800  0.90482100  0.82130900  1
  F  F7  1  0.35662200  0.45180200  0.48797600  1
  F  F8  1  0.53478500  0.81863400  0.35370100  1
  F  F9  1  0.17170000  0.04190700  0.15241200  1
  F  F10  1  0.42751400  0.39685100  0.26122400  1
  F  F11  1  0.31222600  0.03475800  0.40501100  1
  F  F12  1  0.72755700  0.72275800  0.59657900  1
  F  F13  1  0.56708400  0.30740000  0.76366400  1
  F  F14  1  0.72253200  0.68777400  0.07167700  1
  F  F15  1  0.87020700  0.82830000  0.81907900  1
  F  F16  1  0.91027600  0.81475800  0.33246700  1
  F  F17  1  0.74031600  0.43291600  0.43033100  1
  F  F18  1  0.60314900  0.03066300  0.59455800  1
  F  F19  1  0.96933700  0.57248600  0.92789100  1
  F  F20  1  0.69260000  0.25968400  0.09699800  1
  F  F21  1  0.96524200  0.27746800  0.73834400  1
  F  F22  1  0.95809300  0.12979300  0.48574500  1
  F  F23  1  0.90448200  0.08972400  0.99913400  1
loop_
_geom_bond_atom_site_label_1
_geom_bond_atom_site_label_2
_geom_bond_distance
_geom_bond_site_symmetry_2
F0 Li0 1.912756 1_555
F0 Mn1 1.920025 1_455
F0 Mn0 2.346443 1_555
F1 Mn0 1.857933 1_546
F1 Mn2 2.207467 1_555
F2 Mn2 1.879948 1_565
F2 Li4 2.023872 1_455
F2 Li1 2.455586 1_555
F3 Mn3 1.857933 1_655
F3 Mn1 2.207478 1_555
F4 Mn1 1.879948 1_455
F4 Li3 2.023872 1_555
F4 Li2 2.455586 1_554
F5 Mn2 1.893092 1_555
F5 Li1 2.024434 1_555
F5 Mn5 2.204601 1_445
F6 Li2 1.912758 1_555
F6 Mn2 1.920014 1_565
F6 Mn5 2.346441 1_555
F7 Li1 1.912756 1_555
F7 Mn4 1.920019 1_555
F7 Mn3 2.346440 1_555
F8 Mn4 1.879951 1_555
F8 Li5 2.023876 1_565
F8 Li0 2.455585 1_555
F9 Mn0 1.983871 1_545
F9 Li3 2.128719 1_555
F9 Mn3 2.263704 1_555
F10 Li3 1.964013 1_555
F10 Mn3 1.986401 1_555
F10 Mn4 2.125110 1_555
F11 Mn3 1.863733 1_555
F11 Li0 1.961511 1_545
F11 Li5 2.272319 1_555
F12 Mn5 1.857933 1_555
F12 Mn4 2.207467 1_555
F13 Mn2 1.868927 1_555
F13 Li4 1.940344 1_555
F14 Mn0 1.863733 1_655
F14 Li2 1.961512 1_554
F14 Li3 2.272319 1_555
F15 Mn5 1.983871 1_555
F15 Li4 2.128720 1_555
F15 Mn0 2.263694 1_656
F16 Mn4 1.893096 1_555
F16 Li0 2.024433 1_655
F16 Mn3 2.204601 1_665
F17 Mn4 1.868928 1_555
F17 Li5 1.940344 1_555
F18 Li5 1.964013 1_555
F18 Mn5 1.986397 1_545
F18 Mn2 2.125103 1_555
F19 Li4 1.964013 1_555
F19 Mn0 1.986397 1_656
F19 Mn1 2.125103 1_556
F20 Mn1 1.868929 1_555
F20 Li3 1.940344 1_555
F21 Mn5 1.863733 1_545
F21 Li1 1.961511 1_655
F21 Li4 2.272319 1_555
F22 Mn3 1.983862 1_655
F22 Li5 2.128716 1_555
F22 Mn5 2.263704 1_545
F23 Mn1 1.893092 1_556
F23 Li2 2.024434 1_545
F23 Mn0 2.204601 1_646
