# generated using pymatgen
data_LiNi2O3
_symmetry_space_group_name_H-M   'P 1'
_cell_length_a   4.98875447
_cell_length_b   5.01983371
_cell_length_c   9.56469827
_cell_angle_alpha   94.96673588
_cell_angle_beta   100.85796341
_cell_angle_gamma   60.38968971
_symmetry_Int_Tables_number   1
_chemical_formula_structural   LiNi2O3
_chemical_formula_sum   'Li4 Ni8 O12'
_cell_volume   204.51128208
_cell_formula_units_Z   4
loop_
 _symmetry_equiv_pos_site_id
 _symmetry_equiv_pos_as_xyz
  1  'x, y, z'
loop_
 _atom_site_type_symbol
 _atom_site_label
 _atom_site_symmetry_multiplicity
 _atom_site_fract_x
 _atom_site_fract_y
 _atom_site_fract_z
 _atom_site_occupancy
  Li  Li0  1  0.90815287  0.68361681  0.74946551  1
  Li  Li1  1  0.42517492  0.64970871  0.25053204  1
  Li  Li2  1  0.24971256  0.99813959  0.74916948  1
  Li  Li3  1  0.08360741  0.33521791  0.25083435  1
  Ni  Ni0  1  0.33208427  0.33350354  -0.00047107  1
  Ni  Ni1  1  0.00124997  -0.00019904  0.00031868  1
  Ni  Ni2  1  0.57996943  0.34022259  0.74965806  1
  Ni  Ni3  1  0.75333719  0.99313759  0.25034858  1
  Ni  Ni4  1  0.16659940  0.66673033  0.50001729  1
  Ni  Ni5  1  0.66668085  0.66670846  -0.00001234  1
  Ni  Ni6  1  0.83353768  0.33277170  0.49991193  1
  Ni  Ni7  1  0.49978418  0.00060469  0.50023523  1
  O  O0  1  0.93024918  0.36095056  0.88334320  1
  O  O1  1  0.21033800  0.35707626  0.61671884  1
  O  O2  1  0.12302303  0.97621929  0.38342195  1
  O  O3  1  0.40310884  0.97232142  0.11651754  1
  O  O4  1  0.61856870  0.02027383  0.87708744  1
  O  O5  1  0.85825488  0.02217202  0.62657616  1
  O  O6  1  0.47513982  0.31115258  0.37352712  1
  O  O7  1  0.71478433  0.31298996  0.12279154  1
  O  O8  1  0.31294110  0.66968662  0.88564371  1
  O  O9  1  0.51955499  0.66307841  0.61525228  1
  O  O10  1  0.81385777  0.67026652  0.38489327  1
  O  O11  1  0.02029165  0.66365165  0.11422020  1
loop_
_geom_bond_atom_site_label_1
_geom_bond_atom_site_label_2
_geom_bond_distance
_geom_bond_site_symmetry_2
Li0 O5 2.037007 1_565
Li0 O4 2.080294 1_565
Li0 O0 2.098779 1_555
Li0 O1 2.119069 1_655
Li0 O9 2.157264 1_555
Li0 O8 2.159772 1_655
Li1 O6 2.037511 1_555
Li1 O7 2.081209 1_555
Li1 O3 2.099504 1_555
Li1 O2 2.119853 1_555
Li1 O10 2.158248 1_555
Li1 O11 2.160679 1_555
Li2 O5 2.032781 1_465
Li2 O8 2.055595 1_555
Li2 O4 2.055643 1_565
Li2 O9 2.078679 1_555
Li2 O1 2.200393 1_565
Li2 O0 2.236378 1_465
Li3 O6 2.033409 1_555
Li3 O7 2.056223 1_455
Li3 O11 2.056266 1_555
Li3 O10 2.079389 1_455
Li3 O2 2.201388 1_545
Li3 O3 2.237507 1_545
Ni0 O4 1.994365 1_554
Ni0 O7 2.006073 1_555
Ni0 O11 2.037173 1_555
Ni0 O8 2.040448 1_554
Ni0 O0 2.046179 1_454
Ni0 O3 2.057168 1_545
Ni1 O7 1.994441 1_455
Ni1 O4 2.005948 1_454
Ni1 O8 2.036777 1_544
Ni1 O11 2.040631 1_545
Ni1 O3 2.046265 1_545
Ni1 O0 2.057000 1_454
Ni2 O5 1.990535 1_555
Ni2 O1 2.001341 1_555
Ni2 O0 2.003556 1_555
Ni2 O4 2.011727 1_555
Ni2 O9 2.025384 1_555
Ni2 O8 2.074776 1_555
Ni3 O6 1.990885 1_565
Ni3 O2 2.002035 1_655
Ni3 O3 2.004202 1_555
Ni3 O7 2.012237 1_565
Ni3 O10 2.026149 1_555
Ni3 O11 2.075615 1_655
Ni4 O10 1.884668 1_455
Ni4 O9 1.885743 1_555
Ni4 O2 1.891947 1_555
Ni4 O1 1.892946 1_555
Ni4 O5 2.151837 1_465
Ni4 O6 2.152120 1_555
Ni5 O11 1.885729 1_655
Ni5 O8 1.886848 1_554
Ni5 O3 1.894051 1_555
Ni5 O0 1.895058 1_554
Ni5 O4 2.103203 1_564
Ni5 O7 2.103301 1_555
Ni6 O5 1.998683 1_555
Ni6 O6 2.006140 1_555
Ni6 O9 2.046363 1_555
Ni6 O10 2.051285 1_555
Ni6 O1 2.051438 1_655
Ni6 O2 2.058435 1_645
Ni7 O6 1.998911 1_555
Ni7 O5 2.006137 1_555
Ni7 O10 2.046645 1_545
Ni7 O9 2.051200 1_545
Ni7 O2 2.051485 1_545
Ni7 O1 2.058133 1_555
