# generated using pymatgen
data_Li4FeO4
_symmetry_space_group_name_H-M   'P 1'
_cell_length_a   5.27330927
_cell_length_b   8.33118475
_cell_length_c   8.89270448
_cell_angle_alpha   71.27636950
_cell_angle_beta   88.42532210
_cell_angle_gamma   100.86183112
_symmetry_Int_Tables_number   1
_chemical_formula_structural   Li4FeO4
_chemical_formula_sum   'Li16 Fe4 O16'
_cell_volume   361.74890481
_cell_formula_units_Z   4
loop_
 _symmetry_equiv_pos_site_id
 _symmetry_equiv_pos_as_xyz
  1  'x, y, z'
loop_
 _atom_site_type_symbol
 _atom_site_label
 _atom_site_symmetry_multiplicity
 _atom_site_fract_x
 _atom_site_fract_y
 _atom_site_fract_z
 _atom_site_occupancy
  Li  Li0  1  0.66702700  0.46946400  0.22004000  1
  Li  Li1  1  0.16697500  0.96946200  0.72006500  1
  Li  Li2  1  0.33294400  0.53053500  0.77997300  1
  Li  Li3  1  0.83297800  0.03053300  0.27997400  1
  Li  Li4  1  0.85164600  0.63490800  0.87892100  1
  Li  Li5  1  0.35161500  0.13492600  0.37893400  1
  Li  Li6  1  0.14830700  0.36507700  0.12109600  1
  Li  Li7  1  0.64835500  0.86506600  0.62110800  1
  Li  Li8  1  0.88139000  0.82730500  0.10489900  1
  Li  Li9  1  0.38133400  0.32730200  0.60489400  1
  Li  Li10  1  0.11861000  0.17269900  0.89511800  1
  Li  Li11  1  0.61862400  0.67267800  0.39512600  1
  Li  Li12  1  0.87966400  0.46446400  0.67523700  1
  Li  Li13  1  0.37963300  0.96446800  0.17523100  1
  Li  Li14  1  0.12033300  0.53552500  0.32479300  1
  Li  Li15  1  0.62031200  0.03553900  0.82477600  1
  Fe  Fe0  1  0.17896000  0.77098200  0.48306600  1
  Fe  Fe1  1  0.32125200  0.72909100  0.01685500  1
  Fe  Fe2  1  0.67879400  0.27089800  0.98303700  1
  Fe  Fe3  1  0.82114100  0.22905900  0.51689200  1
  O  O0  1  0.51305900  0.34395100  0.80726300  1
  O  O1  1  0.01317300  0.84395800  0.30730100  1
  O  O2  1  0.48688400  0.65604400  0.19272100  1
  O  O3  1  0.98681800  0.15604800  0.69273800  1
  O  O4  1  0.46494500  0.26418000  0.14902000  1
  O  O5  1  0.96492700  0.76418300  0.64907800  1
  O  O6  1  0.53512000  0.73581600  0.85091200  1
  O  O7  1  0.03512100  0.23581900  0.35090300  1
  O  O8  1  0.76042100  0.05857400  0.05228300  1
  O  O9  1  0.26046200  0.55857900  0.55228000  1
  O  O10  1  0.23955200  0.94142000  0.94774100  1
  O  O11  1  0.73953600  0.44139300  0.44773500  1
  O  O12  1  0.99833800  0.40142000  0.90239300  1
  O  O13  1  0.49838100  0.90140900  0.40240200  1
  O  O14  1  0.00171400  0.59861200  0.09760100  1
  O  O15  1  0.50165500  0.09861300  0.59759400  1
loop_
_geom_bond_atom_site_label_1
_geom_bond_atom_site_label_2
_geom_bond_distance
_geom_bond_site_symmetry_2
Li0 O2 1.924693 1_555
Li0 O14 1.970958 1_655
Li0 O11 2.018179 1_555
Li0 O4 2.122029 1_555
Li1 O3 1.924775 1_465
Li1 O15 1.971035 1_565
Li1 O10 2.018142 1_555
Li1 O5 2.121764 1_455
Li2 O0 1.924656 1_555
Li2 O12 1.970512 1_455
Li2 O9 2.018166 1_555
Li2 O6 2.121776 1_555
Li3 O1 1.924826 1_645
Li3 O13 1.970515 1_545
Li3 O8 2.018248 1_555
Li3 O7 2.121697 1_655
Li4 O5 1.992883 1_555
Li4 O6 1.993007 1_555
Li4 O14 2.072826 1_656
Li4 O12 2.177427 1_555
Li5 O7 1.992787 1_555
Li5 O4 1.993433 1_555
Li5 O15 2.072590 1_555
Li5 O13 2.177863 1_545
Li6 O7 1.992506 1_555
Li6 O4 1.993492 1_555
Li6 O12 2.072751 1_454
Li6 O14 2.177479 1_555
Li7 O6 1.992517 1_555
Li7 O5 1.993114 1_555
Li7 O13 2.072787 1_555
Li7 O15 2.177838 1_565
Li8 O1 1.983570 1_655
Li8 O8 2.058893 1_565
Li8 O14 2.137675 1_655
Li8 O10 2.179309 1_654
Li8 O2 2.247264 1_555
Li9 O0 1.983174 1_555
Li9 O9 2.058704 1_555
Li9 O15 2.137641 1_555
Li9 O11 2.179461 1_555
Li9 O3 2.247309 1_455
Li10 O3 1.983399 1_455
Li10 O10 2.058896 1_545
Li10 O12 2.137708 1_455
Li10 O8 2.179453 1_456
Li10 O0 2.247034 1_555
Li11 O2 1.983467 1_555
Li11 O11 2.058872 1_555
Li11 O13 2.137720 1_555
Li11 O9 2.179283 1_555
Li11 O1 2.247503 1_655
Li12 O12 2.064030 1_555
Li12 O0 2.123859 1_555
Li12 O9 2.139672 1_655
Li12 O11 2.225809 1_555
Li12 O5 2.385279 1_555
Li13 O13 2.064298 1_555
Li13 O1 2.123386 1_555
Li13 O8 2.139596 1_565
Li13 O10 2.225563 1_554
Li13 O4 2.385106 1_565
Li14 O14 2.064210 1_555
Li14 O2 2.123789 1_555
Li14 O11 2.139623 1_455
Li14 O9 2.225640 1_555
Li14 O7 2.385282 1_555
Li15 O15 2.064205 1_555
Li15 O3 2.123474 1_555
Li15 O10 2.139528 1_545
Li15 O8 2.225722 1_556
Li15 O6 2.385366 1_545
Fe0 O1 1.800646 1_555
Fe0 O13 1.809937 1_555
Fe0 O5 1.813058 1_455
Fe0 O9 1.815722 1_555
Fe1 O2 1.800961 1_555
Fe1 O14 1.810694 1_555
Fe1 O6 1.812272 1_554
Fe1 O10 1.815580 1_554
Fe2 O0 1.800647 1_555
Fe2 O12 1.810665 1_555
Fe2 O4 1.812513 1_556
Fe2 O8 1.815415 1_556
Fe3 O3 1.800914 1_555
Fe3 O15 1.810321 1_555
Fe3 O7 1.812844 1_655
Fe3 O11 1.815415 1_555
