# generated using pymatgen
data_Na3CrH14(C3O8)2
_symmetry_space_group_name_H-M   'P 1'
_cell_length_a   6.50876000
_cell_length_b   7.75789055
_cell_length_c   8.83398435
_cell_angle_alpha   78.63904164
_cell_angle_beta   82.42773545
_cell_angle_gamma   79.28539032
_symmetry_Int_Tables_number   1
_chemical_formula_structural   Na3CrH14(C3O8)2
_chemical_formula_sum   'Na3 Cr1 H14 C6 O16'
_cell_volume   427.59904977
_cell_formula_units_Z   1
loop_
 _symmetry_equiv_pos_site_id
 _symmetry_equiv_pos_as_xyz
  1  'x, y, z'
loop_
 _atom_site_type_symbol
 _atom_site_label
 _atom_site_symmetry_multiplicity
 _atom_site_fract_x
 _atom_site_fract_y
 _atom_site_fract_z
 _atom_site_occupancy
  Na  Na0  1  0.00000000  0.50000000  0.50000000  1
  Na  Na1  1  0.29066300  0.55339800  0.12572600  1
  Na  Na2  1  0.70933700  0.44660200  0.87427400  1
  Cr  Cr0  1  0.00000000  0.00000000  0.00000000  1
  H  H0  1  0.05044300  0.25789300  0.25765100  1
  H  H1  1  0.94955700  0.74210700  0.74234900  1
  H  H2  1  0.89236900  0.43819300  0.21930400  1
  H  H3  1  0.10763100  0.56180700  0.78069600  1
  H  H4  1  0.43131300  0.34743300  0.57658500  1
  H  H5  1  0.56868700  0.65256700  0.42341500  1
  H  H6  1  0.37911600  0.27458000  0.43558500  1
  H  H7  1  0.62088400  0.72542000  0.56441500  1
  H  H8  1  0.40164100  0.15384900  0.95003600  1
  H  H9  1  0.59835900  0.84615100  0.04996400  1
  H  H10  1  0.30594800  0.96971700  0.70817300  1
  H  H11  1  0.69405200  0.03028300  0.29182700  1
  H  H12  1  0.20300200  0.95183900  0.41572600  1
  H  H13  1  0.79699800  0.04816100  0.58427400  1
  C  C0  1  0.27660700  0.26817100  0.91882100  1
  C  C1  1  0.72339300  0.73182900  0.08117900  1
  C  C2  1  0.36734900  0.85638000  0.79670700  1
  C  C3  1  0.63265100  0.14362000  0.20329300  1
  C  C4  1  0.18036900  0.89257000  0.31574900  1
  C  C5  1  0.81963100  0.10743000  0.68425100  1
  O  O0  1  0.09174100  0.23529900  0.91487600  1
  O  O1  1  0.90825900  0.76470100  0.08512400  1
  O  O2  1  0.32207100  0.42319500  0.88851300  1
  O  O3  1  0.67792900  0.57680500  0.11148700  1
  O  O4  1  0.27296900  0.84832200  0.93586000  1
  O  O5  1  0.72703100  0.15167800  0.06414000  1
  O  O6  1  0.52285100  0.74581300  0.76047500  1
  O  O7  1  0.47714900  0.25418700  0.23952500  1
  O  O8  1  0.10185000  0.01065100  0.20452800  1
  O  O9  1  0.89815000  0.98934900  0.79547200  1
  O  O10  1  0.23174800  0.72825100  0.32140200  1
  O  O11  1  0.76825200  0.27174900  0.67859800  1
  O  O12  1  0.01994400  0.38307000  0.27192100  1
  O  O13  1  0.98005600  0.61693000  0.72807900  1
  O  O14  1  0.31988700  0.30374200  0.53877200  1
  O  O15  1  0.68011300  0.69625800  0.46122800  1
loop_
_geom_bond_atom_site_label_1
_geom_bond_atom_site_label_2
_geom_bond_distance
_geom_bond_site_symmetry_2
Na0 O12 2.346638 1_555
Na0 O13 2.346638 1_455
Na0 O14 2.360981 1_555
Na0 O15 2.360981 1_455
Na0 O11 2.676806 1_455
Na0 O10 2.676806 1_555
Na1 O10 2.351779 1_555
Na1 O2 2.469335 1_554
Na1 O12 2.472338 1_555
Na1 O7 2.495332 1_555
Na1 O3 2.545577 1_555
Na1 O4 2.549981 1_554
Na1 O1 2.738131 1_455
Na2 O11 2.351779 1_555
Na2 O3 2.469335 1_556
Na2 O13 2.472338 1_555
Na2 O6 2.495332 1_555
Na2 O2 2.545577 1_555
Na2 O5 2.549981 1_556
Na2 O0 2.738131 1_655
Cr0 O0 2.000088 1_554
Cr0 O1 2.000088 1_445
Cr0 O5 2.020469 1_455
Cr0 O4 2.020469 1_544
Cr0 O8 2.026243 1_555
Cr0 O9 2.026243 1_444
H0 O12 0.984025 1_555
H1 O13 0.984025 1_555
H2 O12 0.989845 1_655
H3 O13 0.989845 1_455
H4 O14 0.975864 1_555
H5 O15 0.975864 1_555
H6 O14 0.993443 1_555
H7 O15 0.993443 1_555
C0 H8 1.104235 1_555
C0 O2 1.261042 1_555
C0 O0 1.281681 1_555
C1 H9 1.104235 1_555
C1 O3 1.261042 1_555
C1 O1 1.281681 1_555
C2 H10 1.106928 1_555
C2 O6 1.250032 1_555
C2 O4 1.295133 1_555
C3 H11 1.106928 1_555
C3 O7 1.250032 1_555
C3 O5 1.295133 1_555
C4 H12 1.110235 1_555
C4 O10 1.249067 1_555
C4 O8 1.292038 1_565
C5 H13 1.110235 1_555
C5 O11 1.249067 1_555
C5 O9 1.292038 1_545
