# generated using pymatgen
data_Li3SbO3
_symmetry_space_group_name_H-M   'P 1'
_cell_length_a   7.16338400
_cell_length_b   7.16338400
_cell_length_c   7.16338400
_cell_angle_alpha   90.00000000
_cell_angle_beta   90.00000000
_cell_angle_gamma   90.00000000
_symmetry_Int_Tables_number   1
_chemical_formula_structural   Li3SbO3
_chemical_formula_sum   'Li12 Sb4 O12'
_cell_volume   367.58239039
_cell_formula_units_Z   4
loop_
 _symmetry_equiv_pos_site_id
 _symmetry_equiv_pos_as_xyz
  1  'x, y, z'
loop_
 _atom_site_type_symbol
 _atom_site_label
 _atom_site_symmetry_multiplicity
 _atom_site_fract_x
 _atom_site_fract_y
 _atom_site_fract_z
 _atom_site_occupancy
  Li  Li0  1  0.96892200  0.96892200  0.96892200  1
  Li  Li1  1  0.26093100  0.23906900  0.76093100  1
  Li  Li2  1  0.24052100  0.74052100  0.75947900  1
  Li  Li3  1  0.25947900  0.25947900  0.25947900  1
  Li  Li4  1  0.23906900  0.76093100  0.26093100  1
  Li  Li5  1  0.53107800  0.03107800  0.46892200  1
  Li  Li6  1  0.46892200  0.53107800  0.03107800  1
  Li  Li7  1  0.76093100  0.26093100  0.23906900  1
  Li  Li8  1  0.74052100  0.75947900  0.24052100  1
  Li  Li9  1  0.75947900  0.24052100  0.74052100  1
  Li  Li10  1  0.73906900  0.73906900  0.73906900  1
  Li  Li11  1  0.03107800  0.46892200  0.53107800  1
  Sb  Sb0  1  0.02314700  0.97685300  0.47685300  1
  Sb  Sb1  1  0.47685300  0.02314700  0.97685300  1
  Sb  Sb2  1  0.52314700  0.52314700  0.52314700  1
  Sb  Sb3  1  0.97685300  0.47685300  0.02314700  1
  O  O0  1  0.99435700  0.24101100  0.40131100  1
  O  O1  1  0.09868900  0.00564300  0.74101100  1
  O  O2  1  0.24101100  0.40131100  0.99435700  1
  O  O3  1  0.25898900  0.59868900  0.49435700  1
  O  O4  1  0.40131100  0.99435700  0.24101100  1
  O  O5  1  0.50564300  0.75898900  0.90131100  1
  O  O6  1  0.49435700  0.25898900  0.59868900  1
  O  O7  1  0.59868900  0.49435700  0.25898900  1
  O  O8  1  0.74101100  0.09868900  0.00564300  1
  O  O9  1  0.75898900  0.90131100  0.50564300  1
  O  O10  1  0.90131100  0.50564300  0.75898900  1
  O  O11  1  0.00564300  0.74101100  0.09868900  1
loop_
_geom_bond_atom_site_label_1
_geom_bond_atom_site_label_2
_geom_bond_distance
_geom_bond_site_symmetry_2
Li0 O1 1.897030 1_665
Li0 O11 1.897030 1_656
Li0 O8 1.897030 1_566
Li1 O1 2.041338 1_555
Li1 O6 2.041338 1_555
Li1 O2 2.041338 1_555
Li2 O1 2.157916 1_565
Li2 O3 2.157916 1_555
Li2 O5 2.157916 1_555
Li3 O2 2.157916 1_554
Li3 O4 2.157916 1_545
Li3 O0 2.157916 1_455
Li4 O11 2.041338 1_555
Li4 O3 2.041338 1_555
Li4 O4 2.041338 1_555
Li5 O9 1.897030 1_545
Li5 O6 1.897030 1_555
Li5 O4 1.897030 1_545
Li6 O5 1.897030 1_554
Li6 O7 1.897030 1_555
Li6 O2 1.897030 1_554
Li7 O8 2.041338 1_555
Li7 O7 2.041338 1_555
Li7 O0 2.041338 1_555
Li8 O11 2.157916 1_655
Li8 O7 2.157916 1_555
Li8 O9 2.157916 1_555
Li9 O8 2.157916 1_556
Li9 O6 2.157916 1_555
Li9 O10 2.157916 1_555
Li10 O9 2.041338 1_555
Li10 O10 2.041338 1_555
Li10 O5 2.041338 1_555
Li11 O10 1.897030 1_455
Li11 O3 1.897030 1_555
Li11 O0 1.897030 1_455
O0 Sb0 1.978896 1_645
O1 Sb0 1.978896 1_545
O2 Sb3 1.978896 1_456
O3 Sb2 1.978896 1_555
O4 Sb1 1.978896 1_564
O5 Sb1 1.978896 1_565
O6 Sb2 1.978896 1_555
O7 Sb2 1.978896 1_555
O8 Sb1 1.978896 1_554
O9 Sb0 1.978896 1_655
O10 Sb3 1.978896 1_556
O11 Sb3 1.978896 1_455
