# generated using pymatgen
data_K3Al2Si4O13
_symmetry_space_group_name_H-M   'P 1'
_cell_length_a   10.16763400
_cell_length_b   8.52751100
_cell_length_c   15.48454926
_cell_angle_alpha   89.71671597
_cell_angle_beta   90.00000000
_cell_angle_gamma   90.00000000
_symmetry_Int_Tables_number   1
_chemical_formula_structural   K3Al2Si4O13
_chemical_formula_sum   'K12 Al8 Si16 O52'
_cell_volume   1342.56540696
_cell_formula_units_Z   4
loop_
 _symmetry_equiv_pos_site_id
 _symmetry_equiv_pos_as_xyz
  1  'x, y, z'
loop_
 _atom_site_type_symbol
 _atom_site_label
 _atom_site_symmetry_multiplicity
 _atom_site_fract_x
 _atom_site_fract_y
 _atom_site_fract_z
 _atom_site_occupancy
  K  K0  1  0.44863200  0.75341200  0.05212200  1
  K  K1  1  0.94863200  0.24658800  0.44787800  1
  K  K2  1  0.55136800  0.24658800  0.94787800  1
  K  K3  1  0.05136800  0.75341200  0.55212200  1
  K  K4  1  0.45051600  0.75382400  0.32647900  1
  K  K5  1  0.95051600  0.24617600  0.17352100  1
  K  K6  1  0.54948400  0.24617600  0.67352100  1
  K  K7  1  0.04948400  0.75382400  0.82647900  1
  K  K8  1  0.44283500  0.74812600  0.60121400  1
  K  K9  1  0.94283500  0.25187400  0.89878600  1
  K  K10  1  0.55716500  0.25187400  0.39878600  1
  K  K11  1  0.05716500  0.74812600  0.10121400  1
  Al  Al0  1  0.38718200  0.93234800  0.84138400  1
  Al  Al1  1  0.88718200  0.06765200  0.65861600  1
  Al  Al2  1  0.61281800  0.06765200  0.15861600  1
  Al  Al3  1  0.11281800  0.93234800  0.34138400  1
  Al  Al4  1  0.31081500  0.44350000  0.18427000  1
  Al  Al5  1  0.81081500  0.55650000  0.31573000  1
  Al  Al6  1  0.68918500  0.55650000  0.81573000  1
  Al  Al7  1  0.18918500  0.44350000  0.68427000  1
  Si  Si0  1  0.29092600  0.43615700  0.48884300  1
  Si  Si1  1  0.79092600  0.56384300  0.01115700  1
  Si  Si2  1  0.70907400  0.56384300  0.51115700  1
  Si  Si3  1  0.20907400  0.43615700  0.98884300  1
  Si  Si4  1  0.28876300  0.06318900  0.49418700  1
  Si  Si5  1  0.78876300  0.93681100  0.00581300  1
  Si  Si6  1  0.71123700  0.93681100  0.50581300  1
  Si  Si7  1  0.21123700  0.06318900  0.99418700  1
  Si  Si8  1  0.30584000  0.05473100  0.18801000  1
  Si  Si9  1  0.80584000  0.94526900  0.31199000  1
  Si  Si10  1  0.69416000  0.94526900  0.81199000  1
  Si  Si11  1  0.19416000  0.05473100  0.68801000  1
  Si  Si12  1  0.38271300  0.55975000  0.83701400  1
  Si  Si13  1  0.88271300  0.44025000  0.66298600  1
  Si  Si14  1  0.61728700  0.44025000  0.16298600  1
  Si  Si15  1  0.11728700  0.55975000  0.33701400  1
  O  O0  1  0.32602600  0.24933300  0.50111000  1
  O  O1  1  0.82602600  0.75066700  0.99889000  1
  O  O2  1  0.67397400  0.75066700  0.49889000  1
  O  O3  1  0.17397400  0.24933300  0.00111000  1
  O  O4  1  0.27499700  0.94997200  0.75748600  1
  O  O5  1  0.77499700  0.05002800  0.74251400  1
  O  O6  1  0.72500300  0.05002800  0.24251400  1
  O  O7  1  0.22500300  0.94997200  0.25748600  1
  O  O8  1  0.77621900  0.44421500  0.74044100  1
  O  O9  1  0.27621900  0.55578500  0.75955900  1
  O  O10  1  0.22378100  0.55578500  0.25955900  1
  O  O11  1  0.72378100  0.44421500  0.24044100  1
  O  O12  1  0.41260000  0.96512400  0.45432700  1
  O  O13  1  0.91260000  0.03487600  0.04567300  1
  O  O14  1  0.58740000  0.03487600  0.54567300  1
  O  O15  1  0.08740000  0.96512400  0.95432700  1
  O  O16  1  0.45874200  0.99575800  0.19198300  1
  O  O17  1  0.95874200  0.00424200  0.30801700  1
  O  O18  1  0.54125800  0.00424200  0.80801700  1
  O  O19  1  0.04125800  0.99575800  0.69198300  1
  O  O20  1  0.47545200  0.50988700  0.19394100  1
  O  O21  1  0.97545200  0.49011300  0.30605900  1
  O  O22  1  0.52454800  0.49011300  0.80605900  1
  O  O23  1  0.02454800  0.50988700  0.69394100  1
  O  O24  1  0.91840300  0.47393700  0.05283600  1
  O  O25  1  0.41840300  0.52606300  0.44716400  1
  O  O26  1  0.08159700  0.52606300  0.94716400  1
  O  O27  1  0.58159700  0.47393700  0.55283600  1
  O  O28  1  0.28709000  0.24179700  0.20032000  1
  O  O29  1  0.78709000  0.75820300  0.29968000  1
  O  O30  1  0.71291000  0.75820300  0.79968000  1
  O  O31  1  0.21291000  0.24179700  0.70032000  1
  O  O32  1  0.33354300  0.44767800  0.91975600  1
  O  O33  1  0.83354300  0.55232200  0.58024400  1
  O  O34  1  0.66645700  0.55232200  0.08024400  1
  O  O35  1  0.16645700  0.44767800  0.41975600  1
  O  O36  1  0.34155200  0.03883800  0.93440900  1
  O  O37  1  0.84155200  0.96116200  0.56559100  1
  O  O38  1  0.65844800  0.96116200  0.06559100  1
  O  O39  1  0.15844800  0.03883800  0.43440900  1
  O  O40  1  0.89894400  0.26375700  0.62449700  1
  O  O41  1  0.39894400  0.73624300  0.87550300  1
  O  O42  1  0.10105600  0.73624300  0.37550300  1
  O  O43  1  0.60105600  0.26375700  0.12449700  1
  O  O44  1  0.24362100  0.50822100  0.58082600  1
  O  O45  1  0.74362100  0.49177900  0.91917400  1
  O  O46  1  0.75637900  0.49177900  0.41917400  1
  O  O47  1  0.25637900  0.50822100  0.08082600  1
  O  O48  1  0.25307500  0.99834000  0.59216800  1
  O  O49  1  0.75307500  0.00166000  0.90783200  1
  O  O50  1  0.74692500  0.00166000  0.40783200  1
  O  O51  1  0.24692500  0.99834000  0.09216800  1
loop_
_geom_bond_atom_site_label_1
_geom_bond_atom_site_label_2
_geom_bond_distance
_geom_bond_site_symmetry_2
K0 O38 2.781509 1_555
K0 O41 2.785699 1_554
K0 O34 2.833364 1_555
K0 O47 2.895026 1_555
K0 O51 2.994295 1_555
K0 O16 3.002646 1_555
K0 O20 3.027247 1_555
K0 O36 3.223056 1_564
K1 O39 2.781509 1_655
K1 O40 2.785699 1_555
K1 O35 2.833364 1_655
K1 O46 2.895026 1_555
K1 O50 2.994295 1_555
K1 O17 3.002646 1_555
K1 O21 3.027247 1_555
K1 O37 3.223056 1_545
K2 O36 2.781509 1_555
K2 O43 2.785699 1_556
K2 O32 2.833364 1_555
K2 O45 2.895026 1_555
K2 O49 2.994295 1_555
K2 O18 3.002646 1_555
K2 O22 3.027247 1_555
K2 O38 3.223056 1_546
K3 O37 2.781509 1_455
K3 O42 2.785699 1_555
K3 O33 2.833364 1_455
K3 O44 2.895026 1_555
K3 O48 2.994295 1_555
K3 O19 3.002646 1_555
K3 O23 3.027247 1_555
K3 O39 3.223056 1_565
K4 O25 2.708363 1_555
K4 O12 2.711032 1_555
K4 O16 2.925429 1_555
K4 O20 2.940328 1_555
K4 O7 3.029681 1_555
K4 O10 3.042651 1_555
K5 O24 2.708363 1_555
K5 O13 2.711032 1_555
K5 O17 2.925429 1_555
K5 O21 2.940328 1_555
K5 O6 3.029681 1_555
K5 O11 3.042651 1_555
K6 O27 2.708363 1_555
K6 O14 2.711032 1_555
K6 O18 2.925429 1_555
K6 O22 2.940328 1_555
K6 O5 3.029681 1_555
K6 O8 3.042651 1_555
K7 O26 2.708363 1_555
K7 O15 2.711032 1_555
K7 O19 2.925429 1_555
K7 O23 2.940328 1_555
K7 O4 3.029681 1_555
K7 O9 3.042651 1_555
K8 O2 2.834383 1_555
K8 O27 2.834787 1_555
K8 O48 2.879579 1_555
K8 O44 2.897259 1_555
K8 O12 2.941142 1_555
K8 O14 2.976361 1_565
K8 O25 3.063066 1_555
K9 O3 2.834383 1_656
K9 O26 2.834787 1_655
K9 O49 2.879579 1_555
K9 O45 2.897259 1_555
K9 O13 2.941142 1_556
K9 O15 2.976361 1_645
K9 O24 3.063066 1_556
K10 O0 2.834383 1_555
K10 O25 2.834787 1_555
K10 O50 2.879579 1_555
K10 O46 2.897259 1_555
K10 O14 2.941142 1_555
K10 O12 2.976361 1_545
K10 O27 3.063066 1_555
K11 O1 2.834383 1_454
K11 O24 2.834787 1_455
K11 O51 2.879579 1_555
K11 O47 2.897259 1_555
K11 O15 2.941142 1_554
K11 O13 2.976361 1_465
K11 O26 3.063066 1_554
Al0 O4 1.734783 1_555
Al0 O41 1.755343 1_555
Al0 O18 1.758943 1_565
Al0 O36 1.768535 1_565
Al1 O5 1.734783 1_555
Al1 O40 1.755343 1_555
Al1 O19 1.758943 1_645
Al1 O37 1.768535 1_545
Al2 O6 1.734783 1_555
Al2 O43 1.755343 1_555
Al2 O16 1.758943 1_545
Al2 O38 1.768535 1_545
Al3 O7 1.734783 1_555
Al3 O42 1.755343 1_555
Al3 O17 1.758943 1_465
Al3 O39 1.768535 1_565
Al4 O10 1.752169 1_555
Al4 O28 1.753344 1_555
Al4 O20 1.773675 1_555
Al4 O47 1.779865 1_555
Al5 O11 1.752169 1_555
Al5 O29 1.753344 1_555
Al5 O21 1.773675 1_555
Al5 O46 1.779865 1_555
Al6 O8 1.752169 1_555
Al6 O30 1.753344 1_555
Al6 O22 1.773675 1_555
Al6 O45 1.779865 1_555
Al7 O9 1.752169 1_555
Al7 O31 1.753344 1_555
Al7 O23 1.773675 1_555
Al7 O44 1.779865 1_555
O0 Si4 1.635966 1_555
O0 Si0 1.642730 1_555
O1 Si5 1.635966 1_556
O1 Si1 1.642730 1_556
O2 Si6 1.635966 1_555
O2 Si2 1.642730 1_555
O3 Si7 1.635966 1_554
O3 Si3 1.642730 1_554
O4 Si11 1.619090 1_565
O5 Si10 1.619090 1_545
O6 Si9 1.619090 1_545
O7 Si8 1.619090 1_565
O8 Si13 1.616304 1_555
O9 Si12 1.616304 1_555
O10 Si15 1.616304 1_555
O11 Si14 1.616304 1_555
O12 Si4 1.634252 1_565
O13 Si5 1.634252 1_545
O14 Si6 1.634252 1_545
O15 Si7 1.634252 1_565
O16 Si8 1.635030 1_565
O17 Si9 1.635030 1_545
O18 Si10 1.635030 1_545
O19 Si11 1.635030 1_565
O20 Si14 1.632461 1_555
O21 Si15 1.632461 1_655
O22 Si12 1.632461 1_555
O23 Si13 1.632461 1_455
O24 Si1 1.636884 1_555
O25 Si0 1.636884 1_555
O26 Si3 1.636884 1_555
O27 Si2 1.636884 1_555
O28 Si8 1.618756 1_555
O29 Si9 1.618756 1_555
O30 Si10 1.618756 1_555
O31 Si11 1.618756 1_555
O32 Si3 1.659721 1_555
O32 Si12 1.671143 1_555
O33 Si2 1.659721 1_555
O33 Si13 1.671143 1_555
O34 Si1 1.659721 1_555
O34 Si14 1.671143 1_555
O35 Si0 1.659721 1_555
O35 Si15 1.671143 1_555
O36 Si7 1.630164 1_555
O37 Si6 1.630164 1_555
O38 Si5 1.630164 1_555
O39 Si4 1.630164 1_555
O40 Si13 1.629867 1_555
O41 Si12 1.629867 1_555
O42 Si15 1.629867 1_555
O43 Si14 1.629867 1_555
O44 Si0 1.626749 1_555
O45 Si1 1.626749 1_556
O46 Si2 1.626749 1_555
O47 Si3 1.626749 1_554
O48 Si4 1.652590 1_565
O48 Si11 1.673199 1_565
O49 Si5 1.652590 1_546
O49 Si10 1.673199 1_545
O50 Si6 1.652590 1_545
O50 Si9 1.673199 1_545
O51 Si7 1.652590 1_564
O51 Si8 1.673199 1_565
