# generated using pymatgen
data_Li2CuPO4
_symmetry_space_group_name_H-M   'P 1'
_cell_length_a   5.38854700
_cell_length_b   6.24568507
_cell_length_c   10.08389900
_cell_angle_alpha   90.10927880
_cell_angle_beta   90.17723034
_cell_angle_gamma   90.39453463
_symmetry_Int_Tables_number   1
_chemical_formula_structural   Li2CuPO4
_chemical_formula_sum   'Li8 Cu4 P4 O16'
_cell_volume   339.36500977
_cell_formula_units_Z   4
loop_
 _symmetry_equiv_pos_site_id
 _symmetry_equiv_pos_as_xyz
  1  'x, y, z'
loop_
 _atom_site_type_symbol
 _atom_site_label
 _atom_site_symmetry_multiplicity
 _atom_site_fract_x
 _atom_site_fract_y
 _atom_site_fract_z
 _atom_site_occupancy
  Li  Li0  1  0.15473700  0.00126500  0.74540000  1
  Li  Li1  1  0.15520900  0.00042200  0.24638300  1
  Li  Li2  1  0.32843000  0.75419900  0.49589200  1
  Li  Li3  1  0.32775200  0.75117200  0.99720500  1
  Li  Li4  1  0.67254200  0.74609700  0.24564900  1
  Li  Li5  1  0.67261800  0.74656600  0.74551200  1
  Li  Li6  1  0.84572200  0.49889500  0.49516700  1
  Li  Li7  1  0.67397000  0.25227400  0.24480000  1
  Cu  Cu0  1  0.82657500  0.50187000  0.99790300  1
  Cu  Cu1  1  0.66744500  0.26011400  0.74509500  1
  Cu  Cu2  1  0.33745900  0.24264400  0.49656400  1
  Cu  Cu3  1  0.32728000  0.24794200  0.00000100  1
  P  P0  1  0.82751200  0.99301500  0.00246700  1
  P  P1  1  0.82639400  0.99289800  0.49681400  1
  P  P2  1  0.17420900  0.50471600  0.25209000  1
  P  P3  1  0.17624900  0.50902700  0.74669700  1
  O  O0  1  0.82783200  0.99155800  0.65167700  1
  O  O1  1  0.09898900  0.98606900  0.44410400  1
  O  O2  1  0.82343600  0.99518700  0.15651000  1
  O  O3  1  0.09790000  0.98619800  0.94756600  1
  O  O4  1  0.68232600  0.79210100  0.44474700  1
  O  O5  1  0.67833700  0.79735900  0.94634500  1
  O  O6  1  0.31087700  0.70647200  0.19596400  1
  O  O7  1  0.31902400  0.70808500  0.69306400  1
  O  O8  1  0.18267200  0.51439400  0.90109900  1
  O  O9  1  0.90390600  0.51416800  0.69318800  1
  O  O10  1  0.17634400  0.51200700  0.40622600  1
  O  O11  1  0.89618900  0.50055400  0.20619600  1
  O  O12  1  0.29690000  0.29290600  0.70121000  1
  O  O13  1  0.31007800  0.29567800  0.20625600  1
  O  O14  1  0.70375500  0.20320700  0.44334900  1
  O  O15  1  0.69733100  0.20094100  0.95145200  1
loop_
_geom_bond_atom_site_label_1
_geom_bond_atom_site_label_2
_geom_bond_distance
_geom_bond_site_symmetry_2
Li0 O0 1.996978 1_445
Li0 O12 2.022189 1_555
Li0 O3 2.064663 1_545
Li0 O7 2.106351 1_545
Li1 O2 2.001897 1_445
Li1 O1 2.019675 1_545
Li1 O13 2.060221 1_555
Li1 O6 2.086385 1_545
Li2 O10 1.936599 1_555
Li2 O1 1.980425 1_555
Li2 O4 1.989712 1_555
Li2 O7 2.010302 1_555
Li3 O8 1.926463 1_555
Li3 O5 1.978425 1_555
Li3 O3 1.990813 1_555
Li3 O6 2.026377 1_556
Li4 O2 1.970241 1_555
Li4 O11 1.997146 1_555
Li4 O6 2.024136 1_555
Li4 O4 2.028070 1_555
Li5 O0 1.982170 1_555
Li5 O7 1.988678 1_555
Li5 O9 1.991115 1_555
Li5 O5 2.049383 1_555
Li6 O10 1.998310 1_655
Li6 O9 2.022299 1_555
Li6 O14 2.059907 1_555
Li6 O4 2.100064 1_555
Li7 O11 1.992389 1_555
Li7 O2 2.009064 1_545
Li7 O13 2.018042 1_555
Li7 O14 2.032068 1_555
Cu0 O15 2.052700 1_555
Cu0 O5 2.082244 1_555
Cu0 O11 2.132538 1_556
Cu0 O8 2.156569 1_655
Cu1 O12 2.055505 1_555
Cu1 O9 2.096356 1_555
Cu1 O0 2.113455 1_545
Cu1 O15 2.119971 1_555
Cu2 O14 2.063315 1_555
Cu2 O12 2.099081 1_555
Cu2 O10 2.105936 1_555
Cu2 O1 2.112641 1_545
Cu3 O15 2.077398 1_554
Cu3 O8 2.095399 1_554
Cu3 O13 2.102971 1_555
Cu3 O3 2.108232 1_544
O0 P1 1.561657 1_555
O1 P1 1.564475 1_455
O2 P0 1.553612 1_555
O3 P0 1.561058 1_456
O4 P1 1.559710 1_555
O5 P0 1.562289 1_556
O6 P2 1.563026 1_555
O7 P3 1.556291 1_555
O8 P3 1.557543 1_555
O9 P3 1.562577 1_655
O10 P2 1.554877 1_555
O11 P2 1.566638 1_655
O12 P3 1.570560 1_555
O13 P2 1.570716 1_555
O14 P1 1.570089 1_545
O15 P0 1.567179 1_546
