# generated using pymatgen
data_Li17Fe6(Si2O7)6
_symmetry_space_group_name_H-M   'P 1'
_cell_length_a   8.61155300
_cell_length_b   8.63221220
_cell_length_c   13.13406785
_cell_angle_alpha   90.40920539
_cell_angle_beta   90.14666770
_cell_angle_gamma   119.87651288
_symmetry_Int_Tables_number   1
_chemical_formula_structural   Li17Fe6(Si2O7)6
_chemical_formula_sum   'Li17 Fe6 Si12 O42'
_cell_volume   846.54617847
_cell_formula_units_Z   1
loop_
 _symmetry_equiv_pos_site_id
 _symmetry_equiv_pos_as_xyz
  1  'x, y, z'
loop_
 _atom_site_type_symbol
 _atom_site_label
 _atom_site_symmetry_multiplicity
 _atom_site_fract_x
 _atom_site_fract_y
 _atom_site_fract_z
 _atom_site_occupancy
  Li  Li0  1  0.96936900  0.30592400  0.40062700  1
  Li  Li1  1  0.97132000  0.29563700  0.06715400  1
  Li  Li2  1  0.32298500  0.02726700  0.06814300  1
  Li  Li3  1  0.66052300  0.32947900  0.71283700  1
  Li  Li4  1  0.66157500  0.32490700  0.24261500  1
  Li  Li5  1  0.00307400  0.00309200  0.94370300  1
  Li  Li6  1  0.02719700  0.99799100  0.43664900  1
  Li  Li7  1  0.31297100  0.33512100  0.90018000  1
  Li  Li8  1  0.30804200  0.33316500  0.56671800  1
  Li  Li9  1  0.69162700  0.66350900  0.40063300  1
  Li  Li10  1  0.70316100  0.67512200  0.06727100  1
  Li  Li11  1  0.32831600  0.64779200  0.72983900  1
  Li  Li12  1  0.33371400  0.66995500  0.27522800  1
  Li  Li13  1  0.66613600  0.97637000  0.90149100  1
  Li  Li14  1  0.67420900  0.97889600  0.56400400  1
  Li  Li15  1  0.02421900  0.69231700  0.56529100  1
  Li  Li16  1  0.02133300  0.68764300  0.90146900  1
  Fe  Fe0  1  0.00140400  0.00055900  0.72791700  1
  Fe  Fe1  1  0.99938100  0.99984000  0.22403500  1
  Fe  Fe2  1  0.65840200  0.32709700  0.45831400  1
  Fe  Fe3  1  0.66586900  0.33280400  0.01139800  1
  Fe  Fe4  1  0.33316100  0.66720300  0.95588800  1
  Fe  Fe5  1  0.33170300  0.66779800  0.51170900  1
  Si  Si0  1  0.35156600  0.02418600  0.84770700  1
  Si  Si1  1  0.35520300  0.02808500  0.62060800  1
  Si  Si2  1  0.97735000  0.32946700  0.62380200  1
  Si  Si3  1  0.97128400  0.32485300  0.84660600  1
  Si  Si4  1  0.32485600  0.35029700  0.34320000  1
  Si  Si5  1  0.33034800  0.36467000  0.12190800  1
  Si  Si6  1  0.67366200  0.64671100  0.84620600  1
  Si  Si7  1  0.67275500  0.64934100  0.62237000  1
  Si  Si8  1  0.02128700  0.66655300  0.34517800  1
  Si  Si9  1  0.64515800  0.97109400  0.34528800  1
  Si  Si10  1  0.03187300  0.66935800  0.12311200  1
  Si  Si11  1  0.63670100  0.96742500  0.12290700  1
  O  O0  1  0.86292700  0.06331900  0.33903300  1
  O  O1  1  0.85579900  0.06029000  0.12828200  1
  O  O2  1  0.58910800  0.12394100  0.36195500  1
  O  O3  1  0.57429800  0.11625400  0.10620700  1
  O  O4  1  0.81308800  0.24239500  0.93327100  1
  O  O5  1  0.81825400  0.25016800  0.53750700  1
  O  O6  1  0.43543000  0.12159300  0.73681700  1
  O  O7  1  0.86827600  0.30442400  0.73459600  1
  O  O8  1  0.42829500  0.18602300  0.93376400  1
  O  O9  1  0.44908700  0.20771700  0.55112900  1
  O  O10  1  0.87088800  0.45657500  0.35724800  1
  O  O11  1  0.88337300  0.45865000  0.10531000  1
  O  O12  1  0.19933900  0.14619300  0.12225900  1
  O  O13  1  0.19671200  0.13617400  0.32866700  1
  O  O14  1  0.53509000  0.41499400  0.36059900  1
  O  O15  1  0.54152900  0.42554000  0.10631800  1
  O  O16  1  0.06896200  0.20226600  0.84251500  1
  O  O17  1  0.07500600  0.20996200  0.63170400  1
  O  O18  1  0.75466900  0.56820200  0.93308200  1
  O  O19  1  0.75396500  0.57118700  0.53668600  1
  O  O20  1  0.69444400  0.56452100  0.73391100  1
  O  O21  1  0.30938300  0.44477800  0.23417900  1
  O  O22  1  0.24214300  0.42619200  0.42992700  1
  O  O23  1  0.24274300  0.43485900  0.03422500  1
  O  O24  1  0.94037200  0.79634000  0.12884600  1
  O  O25  1  0.93123200  0.79308200  0.33865000  1
  O  O26  1  0.46089400  0.57819100  0.85857200  1
  O  O27  1  0.46096000  0.58298000  0.60617300  1
  O  O28  1  0.79807300  0.86559900  0.84412300  1
  O  O29  1  0.79140000  0.86556000  0.63251900  1
  O  O30  1  0.11581800  0.53688000  0.86034200  1
  O  O31  1  0.12240800  0.54053500  0.61088900  1
  O  O32  1  0.56330700  0.80715100  0.42672600  1
  O  O33  1  0.56723500  0.80834300  0.03566100  1
  O  O34  1  0.55734100  0.86795000  0.23380500  1
  O  O35  1  0.13055600  0.68744900  0.23568100  1
  O  O36  1  0.17473000  0.73050500  0.43324500  1
  O  O37  1  0.18843900  0.75712600  0.03651400  1
  O  O38  1  0.42045400  0.88079100  0.86367500  1
  O  O39  1  0.42416900  0.88608900  0.60052800  1
  O  O40  1  0.13801900  0.93188800  0.62588600  1
  O  O41  1  0.13212800  0.92894900  0.84172800  1
loop_
_geom_bond_atom_site_label_1
_geom_bond_atom_site_label_2
_geom_bond_distance
_geom_bond_site_symmetry_2
Li0 O10 1.960071 1_555
Li0 O0 1.984933 1_555
Li0 O22 2.074567 1_655
Li0 O5 2.134835 1_555
Li1 O1 1.943039 1_555
Li1 O11 1.964298 1_555
Li1 O23 2.075747 1_655
Li1 O4 2.124221 1_554
Li2 O12 1.943017 1_555
Li2 O3 1.963794 1_555
Li2 O37 2.060288 1_545
Li2 O8 2.149437 1_554
Li3 O6 1.903308 1_555
Li3 O20 1.918231 1_555
Li3 O7 1.926916 1_555
Li4 O10 2.174466 1_555
Li4 O2 2.195679 1_555
Li4 O14 2.242268 1_555
Li4 O3 2.370050 1_555
Li4 O15 2.436250 1_555
Li4 O11 2.466517 1_555
Li5 O16 2.027030 1_555
Li5 O28 2.028387 1_445
Li5 O41 2.035335 1_545
Li6 O13 1.966016 1_565
Li6 O25 1.993512 1_455
Li6 O0 2.181451 1_465
Li7 O26 1.918595 1_555
Li7 O16 1.970508 1_555
Li7 O8 2.028945 1_555
Li7 O23 2.170046 1_556
Li8 O17 1.944807 1_555
Li8 O27 1.950477 1_555
Li8 O9 1.999592 1_555
Li8 O22 2.159665 1_555
Li9 O14 1.948053 1_555
Li9 O25 1.973228 1_555
Li9 O32 2.058387 1_555
Li9 O19 2.134964 1_555
Li10 O24 1.942098 1_555
Li10 O15 1.968222 1_555
Li10 O33 2.051927 1_555
Li10 O18 2.131536 1_554
Li11 O31 2.184433 1_555
Li11 O27 2.211139 1_555
Li11 O26 2.282813 1_555
Li11 O30 2.344625 1_555
Li11 O38 2.473304 1_555
Li11 O39 2.482475 1_555
Li12 O35 1.900801 1_555
Li12 O34 1.914491 1_555
Li12 O21 1.921337 1_555
Li13 O38 1.911366 1_555
Li13 O28 1.961989 1_555
Li13 O4 2.034079 1_565
Li13 O33 2.178987 1_556
Li14 O29 1.943448 1_555
Li14 O39 1.949498 1_555
Li14 O5 2.064764 1_565
Li14 O32 2.214341 1_555
Li15 O40 1.955487 1_555
Li15 O31 1.975510 1_555
Li15 O19 2.053376 1_455
Li15 O36 2.095336 1_555
Li16 O30 1.922156 1_555
Li16 O41 1.977899 1_555
Li16 O18 2.039858 1_455
Li16 O37 2.165272 1_556
Fe0 O29 2.016534 1_445
Fe0 O17 2.039938 1_555
Fe0 O40 2.054944 1_545
Fe0 O41 2.140488 1_545
Fe0 O16 2.141143 1_555
Fe0 O28 2.181620 1_445
Fe1 O24 1.995786 1_555
Fe1 O1 2.006732 1_565
Fe1 O13 2.033175 1_665
Fe1 O12 2.053442 1_665
Fe1 O0 2.145023 1_565
Fe1 O25 2.189828 1_555
Fe2 O2 1.988736 1_555
Fe2 O9 1.993921 1_555
Fe2 O14 2.039629 1_555
Fe2 O5 2.081121 1_555
Fe2 O10 2.087010 1_555
Fe2 O19 2.100851 1_555
Fe3 O11 2.037571 1_555
Fe3 O15 2.046490 1_555
Fe3 O8 2.054031 1_554
Fe3 O3 2.058262 1_555
Fe3 O4 2.061607 1_554
Fe3 O18 2.063409 1_554
Fe4 O38 2.021645 1_555
Fe4 O23 2.040887 1_556
Fe4 O33 2.041961 1_556
Fe4 O30 2.052701 1_555
Fe4 O37 2.058139 1_556
Fe4 O26 2.066212 1_555
Fe5 O36 1.977922 1_555
Fe5 O39 2.003652 1_555
Fe5 O27 2.032790 1_555
Fe5 O31 2.052326 1_555
Fe5 O32 2.076324 1_555
Fe5 O22 2.111762 1_555
O0 Si9 1.634544 1_545
O1 Si11 1.642917 1_545
O2 Si9 1.628686 1_545
O3 Si11 1.636657 1_545
O4 Si3 1.646706 1_555
O5 Si2 1.636118 1_555
O6 Si0 1.663635 1_555
O6 Si1 1.697015 1_555
O7 Si3 1.678098 1_555
O7 Si2 1.689894 1_555
O8 Si0 1.649168 1_555
O9 Si1 1.632736 1_555
O10 Si8 1.629219 1_655
O11 Si10 1.635061 1_655
O12 Si5 1.646209 1_555
O13 Si4 1.622471 1_555
O14 Si4 1.621900 1_555
O15 Si5 1.636079 1_555
O16 Si3 1.648158 1_455
O17 Si2 1.627134 1_455
O18 Si6 1.651017 1_555
O19 Si7 1.635216 1_555
O20 Si6 1.680356 1_555
O20 Si7 1.693319 1_555
O21 Si5 1.672223 1_555
O21 Si4 1.690326 1_555
O22 Si4 1.640873 1_555
O23 Si5 1.650274 1_555
O24 Si10 1.639418 1_655
O25 Si8 1.626836 1_655
O26 Si6 1.629912 1_555
O27 Si7 1.629519 1_555
O28 Si6 1.644036 1_555
O29 Si7 1.625175 1_555
O30 Si3 1.629778 1_455
O31 Si2 1.626914 1_455
O32 Si9 1.635652 1_555
O33 Si11 1.646904 1_555
O34 Si11 1.662597 1_555
O34 Si9 1.677348 1_555
O35 Si10 1.670495 1_555
O35 Si8 1.681594 1_555
O36 Si8 1.626353 1_555
O37 Si10 1.639505 1_555
O38 Si0 1.631790 1_565
O39 Si1 1.626700 1_565
O40 Si1 1.626825 1_565
O41 Si0 1.644258 1_565
