# generated using pymatgen
data_Na3Mn2P2(CO7)2
_symmetry_space_group_name_H-M   'P 1'
_cell_length_a   6.58578700
_cell_length_b   8.97902200
_cell_length_c   10.38326247
_cell_angle_alpha   88.48816030
_cell_angle_beta   90.00000000
_cell_angle_gamma   90.00000000
_symmetry_Int_Tables_number   1
_chemical_formula_structural   Na3Mn2P2(CO7)2
_chemical_formula_sum   'Na6 Mn4 P4 C4 O28'
_cell_volume   613.78934048
_cell_formula_units_Z   2
loop_
 _symmetry_equiv_pos_site_id
 _symmetry_equiv_pos_as_xyz
  1  'x, y, z'
loop_
 _atom_site_type_symbol
 _atom_site_label
 _atom_site_symmetry_multiplicity
 _atom_site_fract_x
 _atom_site_fract_y
 _atom_site_fract_z
 _atom_site_occupancy
  Na  Na0  1  0.47407300  0.24045100  0.61910200  1
  Na  Na1  1  0.01092700  0.24152000  0.12699500  1
  Na  Na2  1  0.49225400  0.24051100  0.12246100  1
  Na  Na3  1  0.51092700  0.75848000  0.87300500  1
  Na  Na4  1  0.99225400  0.75948900  0.87753900  1
  Na  Na5  1  0.97407300  0.75954900  0.38089800  1
  Mn  Mn0  1  0.75686700  0.34763100  0.88849900  1
  Mn  Mn1  1  0.75660600  0.34604400  0.39575900  1
  Mn  Mn2  1  0.25660600  0.65395600  0.60424100  1
  Mn  Mn3  1  0.25686700  0.65236900  0.11150100  1
  P  P0  1  0.25385700  0.42762500  0.85711300  1
  P  P1  1  0.25039500  0.42525100  0.35710500  1
  P  P2  1  0.75039500  0.57474900  0.64289500  1
  P  P3  1  0.75385700  0.57237500  0.14288700  1
  C  C0  1  0.75015700  0.07755900  0.86466500  1
  C  C1  1  0.74455300  0.07652400  0.36605700  1
  C  C2  1  0.24455300  0.92347600  0.63394300  1
  C  C3  1  0.25015700  0.92244100  0.13533500  1
  O  O0  1  0.24521000  0.05886500  0.64990100  1
  O  O1  1  0.24996700  0.06079500  0.14392000  1
  O  O2  1  0.75681800  0.14578000  0.97620800  1
  O  O3  1  0.74293700  0.14260400  0.47737700  1
  O  O4  1  0.74400200  0.17296700  0.76757400  1
  O  O5  1  0.74762700  0.17806000  0.26929200  1
  O  O6  1  0.06749200  0.33255800  0.89605600  1
  O  O7  1  0.44092700  0.33133000  0.89444700  1
  O  O8  1  0.06383000  0.32437200  0.38114800  1
  O  O9  1  0.43917200  0.33049900  0.39243700  1
  O  O10  1  0.25937500  0.46721000  0.71030100  1
  O  O11  1  0.73928400  0.42770400  0.57069000  1
  O  O12  1  0.25764100  0.46259700  0.20732000  1
  O  O13  1  0.75392800  0.42235700  0.07040400  1
  O  O14  1  0.25392800  0.57764300  0.92959600  1
  O  O15  1  0.75764100  0.53740300  0.79268000  1
  O  O16  1  0.23928400  0.57229600  0.42931000  1
  O  O17  1  0.75937500  0.53279000  0.28969900  1
  O  O18  1  0.56383000  0.67562800  0.61885200  1
  O  O19  1  0.93917200  0.66950100  0.60756300  1
  O  O20  1  0.56749200  0.66744200  0.10394400  1
  O  O21  1  0.94092700  0.66867000  0.10555300  1
  O  O22  1  0.24762700  0.82194000  0.73070800  1
  O  O23  1  0.24400200  0.82703300  0.23242600  1
  O  O24  1  0.24293700  0.85739600  0.52262300  1
  O  O25  1  0.25681800  0.85422000  0.02379200  1
  O  O26  1  0.74996700  0.93920500  0.85608000  1
  O  O27  1  0.74521000  0.94113500  0.35009900  1
loop_
_geom_bond_atom_site_label_1
_geom_bond_atom_site_label_2
_geom_bond_distance
_geom_bond_site_symmetry_2
Na0 O0 2.237175 1_555
Na0 O4 2.419644 1_555
Na0 O11 2.466923 1_555
Na0 O3 2.478090 1_555
Na0 O9 2.478957 1_555
Na0 O10 2.672696 1_555
Na1 O1 2.264380 1_555
Na1 O5 2.338840 1_455
Na1 O13 2.407520 1_455
Na1 O2 2.462101 1_454
Na1 O6 2.540367 1_554
Na1 O12 2.713561 1_555
Na1 O8 2.782517 1_555
Na2 O1 2.276119 1_555
Na2 O5 2.328572 1_555
Na2 O13 2.425178 1_555
Na2 O2 2.476608 1_554
Na2 O7 2.506505 1_554
Na2 O12 2.689412 1_555
Na3 O26 2.264380 1_555
Na3 O22 2.338840 1_555
Na3 O14 2.407520 1_555
Na3 O25 2.462101 1_556
Na3 O20 2.540367 1_556
Na3 O15 2.713561 1_555
Na3 O18 2.782517 1_555
Na4 O26 2.276119 1_555
Na4 O22 2.328572 1_655
Na4 O14 2.425178 1_655
Na4 O25 2.476608 1_656
Na4 O21 2.506505 1_556
Na4 O15 2.689412 1_555
Na5 O27 2.237175 1_555
Na5 O23 2.419644 1_655
Na5 O16 2.466923 1_655
Na5 O24 2.478090 1_655
Na5 O19 2.478957 1_555
Na5 O17 2.672696 1_555
Mn0 O15 1.950366 1_555
Mn0 O2 2.006781 1_555
Mn0 O13 2.021110 1_556
Mn0 O4 2.036470 1_555
Mn0 O6 2.051547 1_655
Mn0 O7 2.086655 1_555
Mn1 O11 1.979913 1_555
Mn1 O17 1.981739 1_555
Mn1 O3 1.995348 1_555
Mn1 O5 2.026675 1_555
Mn1 O8 2.038684 1_655
Mn1 O9 2.095552 1_555
Mn2 O16 1.979913 1_555
Mn2 O10 1.981739 1_555
Mn2 O24 1.995348 1_555
Mn2 O22 2.026675 1_555
Mn2 O18 2.038684 1_555
Mn2 O19 2.095552 1_455
Mn3 O12 1.950366 1_555
Mn3 O25 2.006781 1_555
Mn3 O14 2.021110 1_554
Mn3 O23 2.036470 1_555
Mn3 O20 2.051547 1_555
Mn3 O21 2.086655 1_455
C0 O26 1.247822 1_545
C0 O4 1.306241 1_555
C0 O2 1.325130 1_555
C1 O27 1.231233 1_545
C1 O3 1.313153 1_555
C1 O5 1.338938 1_555
C2 O0 1.231233 1_565
C2 O24 1.313153 1_555
C2 O22 1.338938 1_555
C3 O1 1.247822 1_565
C3 O23 1.306241 1_555
C3 O25 1.325130 1_555
O6 P0 1.542839 1_555
O7 P0 1.548551 1_555
O8 P1 1.542888 1_555
O9 P1 1.545187 1_555
O10 P0 1.556542 1_555
O11 P2 1.537179 1_555
O12 P1 1.583044 1_555
O13 P3 1.560245 1_555
O14 P0 1.560245 1_555
O15 P2 1.583044 1_555
O16 P1 1.537179 1_555
O17 P3 1.556542 1_555
O18 P2 1.542888 1_555
O19 P2 1.545187 1_555
O20 P3 1.542839 1_555
O21 P3 1.548551 1_555
