# generated using pymatgen
data_Li4Ti3V3(SbO8)2
_symmetry_space_group_name_H-M   'P 1'
_cell_length_a   6.01891810
_cell_length_b   10.36298234
_cell_length_c   10.54535638
_cell_angle_alpha   89.79099985
_cell_angle_beta   89.60494716
_cell_angle_gamma   89.75839587
_symmetry_Int_Tables_number   1
_chemical_formula_structural   Li4Ti3V3(SbO8)2
_chemical_formula_sum   'Li8 Ti6 V6 Sb4 O32'
_cell_volume   657.72965776
_cell_formula_units_Z   2
loop_
 _symmetry_equiv_pos_site_id
 _symmetry_equiv_pos_as_xyz
  1  'x, y, z'
loop_
 _atom_site_type_symbol
 _atom_site_label
 _atom_site_symmetry_multiplicity
 _atom_site_fract_x
 _atom_site_fract_y
 _atom_site_fract_z
 _atom_site_occupancy
  Li  Li0  1  0.99911000  0.33379900  0.89200500  1
  Li  Li1  1  0.49913000  0.83384200  0.89204000  1
  Li  Li2  1  0.50154300  0.49950600  0.99323200  1
  Li  Li3  1  0.00158400  0.99950500  0.99321400  1
  Li  Li4  1  0.00791800  0.99996400  0.49483300  1
  Li  Li5  1  0.50790200  0.49991400  0.49482200  1
  Li  Li6  1  0.49784800  0.16761000  0.38975000  1
  Li  Li7  1  0.99785800  0.66757400  0.38969400  1
  Ti  Ti0  1  0.76257800  0.41666200  0.22341100  1
  Ti  Ti1  1  0.26261100  0.91667100  0.22344700  1
  Ti  Ti2  1  0.00421300  0.17310900  0.22297600  1
  Ti  Ti3  1  0.50423100  0.67308800  0.22298900  1
  Ti  Ti4  1  0.26236400  0.08591200  0.72745600  1
  Ti  Ti5  1  0.76246500  0.58586700  0.72741800  1
  V  V0  1  0.74466900  0.91512700  0.21325500  1
  V  V1  1  0.00827500  0.82638800  0.71983400  1
  V  V2  1  0.24513200  0.58402900  0.71356800  1
  V  V3  1  0.24467900  0.41511600  0.21322700  1
  V  V4  1  0.50819400  0.32637100  0.71977700  1
  V  V5  1  0.74493200  0.08406600  0.71355000  1
  Sb  Sb0  1  0.00351700  0.33308000  0.51628200  1
  Sb  Sb1  1  0.50354700  0.83317600  0.51626200  1
  Sb  Sb2  1  0.50114300  0.16784200  0.01490300  1
  Sb  Sb3  1  0.00114400  0.66787600  0.01494500  1
  O  O0  1  0.73407400  0.42117800  0.60644900  1
  O  O1  1  0.23406500  0.92115200  0.60643500  1
  O  O2  1  0.76791900  0.25596400  0.31809600  1
  O  O3  1  0.26793100  0.75597700  0.31813600  1
  O  O4  1  0.98470300  0.32869500  0.11159100  1
  O  O5  1  0.48469500  0.82870100  0.11161300  1
  O  O6  1  0.00748500  0.00229600  0.31115600  1
  O  O7  1  0.50746600  0.50229400  0.31116900  1
  O  O8  1  0.50699500  0.49885700  0.81095200  1
  O  O9  1  0.00705800  0.99883500  0.81092100  1
  O  O10  1  0.99818200  0.15693800  0.60719500  1
  O  O11  1  0.49817700  0.65692400  0.60717300  1
  O  O12  1  0.98965300  0.49240000  0.31394700  1
  O  O13  1  0.48964700  0.99240000  0.31397900  1
  O  O14  1  0.23087500  0.24917400  0.31475100  1
  O  O15  1  0.73090700  0.74916100  0.31473400  1
  O  O16  1  0.23197400  0.07759600  0.10507900  1
  O  O17  1  0.73195300  0.57761400  0.10507200  1
  O  O18  1  0.27472900  0.41829200  0.61074200  1
  O  O19  1  0.77461300  0.91836300  0.61081400  1
  O  O20  1  0.26396800  0.24305500  0.81918400  1
  O  O21  1  0.76391000  0.74304300  0.81916300  1
  O  O22  1  0.49276000  0.00868600  0.81722300  1
  O  O23  1  0.99278300  0.50858600  0.81711100  1
  O  O24  1  0.48491800  0.16772400  0.61132500  1
  O  O25  1  0.98519600  0.66764900  0.61143200  1
  O  O26  1  0.50011500  0.34369500  0.10753300  1
  O  O27  1  0.00013600  0.84368800  0.10753800  1
  O  O28  1  0.72665900  0.25390600  0.81416900  1
  O  O29  1  0.22663600  0.75394000  0.81432500  1
  O  O30  1  0.76648400  0.07869000  0.10690500  1
  O  O31  1  0.26645400  0.57873400  0.10688100  1
loop_
_geom_bond_atom_site_label_1
_geom_bond_atom_site_label_2
_geom_bond_distance
_geom_bond_site_symmetry_2
Li0 O23 1.973693 1_555
Li0 O20 1.997775 1_655
Li0 O28 2.020719 1_555
Li0 O4 2.317057 1_556
Li1 O22 1.973917 1_565
Li1 O21 1.997894 1_555
Li1 O29 2.020442 1_555
Li1 O5 2.316933 1_556
Li2 O8 1.922297 1_555
Li2 O17 2.002099 1_556
Li2 O26 2.011431 1_556
Li2 O31 2.021534 1_556
Li3 O9 1.922437 1_555
Li3 O16 2.002100 1_566
Li3 O27 2.011626 1_556
Li3 O30 2.021661 1_466
Li4 O6 1.937022 1_565
Li4 O1 1.977513 1_555
Li4 O10 2.016415 1_465
Li4 O19 2.040013 1_455
Li5 O7 1.936773 1_555
Li5 O0 1.977453 1_555
Li5 O11 2.016647 1_555
Li5 O18 2.039177 1_555
Li6 O14 1.980716 1_555
Li6 O13 1.987343 1_545
Li6 O2 2.010530 1_555
Li6 O24 2.337351 1_555
Li7 O15 1.980543 1_555
Li7 O12 1.986900 1_555
Li7 O3 2.010399 1_655
Li7 O25 2.339025 1_555
O0 V4 2.054794 1_555
O0 Sb0 2.083331 1_655
O0 Ti5 2.142564 1_555
O1 V1 2.054654 1_555
O1 Sb1 2.082989 1_555
O1 Ti4 2.143432 1_565
O2 Ti2 1.934543 1_655
O2 Ti0 1.938847 1_555
O2 Sb0 2.660820 1_655
O3 Ti3 1.934872 1_555
O3 Ti1 1.938831 1_555
O3 Sb1 2.660641 1_555
O4 Ti2 1.994887 1_655
O4 Ti0 1.996184 1_555
O4 V3 2.107429 1_655
O5 Ti3 1.995066 1_555
O5 Ti1 1.996121 1_555
O5 V0 2.107475 1_555
O6 Ti1 1.993931 1_545
O6 Ti2 1.996597 1_555
O6 V0 2.103697 1_445
O7 Ti0 1.994137 1_555
O7 Ti3 1.996421 1_555
O7 V3 2.103820 1_555
O8 Ti5 1.985096 1_555
O8 V4 2.032698 1_555
O8 V2 2.078903 1_555
O9 Ti4 1.984332 1_565
O9 V1 2.031900 1_555
O9 V5 2.080294 1_465
O10 V5 2.032628 1_555
O10 Sb0 2.058977 1_655
O10 Ti4 2.165546 1_655
O11 V2 2.032025 1_555
O11 Sb1 2.059979 1_555
O11 Ti5 2.166024 1_555
O12 Ti0 1.851497 1_555
O12 V3 2.024615 1_655
O12 Sb0 2.694645 1_655
O13 Ti1 1.851261 1_555
O13 V0 2.024574 1_555
O13 Sb1 2.693613 1_555
O14 Ti2 1.857966 1_555
O14 V3 2.024070 1_555
O14 Sb0 2.666195 1_555
O15 Ti3 1.857897 1_555
O15 V0 2.024021 1_555
O15 Sb1 2.666546 1_555
O16 Ti1 2.087722 1_545
O16 Ti2 2.092544 1_555
O16 Sb2 2.094923 1_555
O17 Ti0 2.087756 1_555
O17 Ti3 2.092326 1_555
O17 Sb3 2.094869 1_655
O18 V2 2.041022 1_555
O18 V4 2.051116 1_555
O18 Sb0 2.116071 1_555
O19 V5 2.040259 1_565
O19 V1 2.052099 1_655
O19 Sb1 2.115743 1_555
O20 Ti4 1.897219 1_555
O20 V4 1.997008 1_555
O20 Sb2 2.631478 1_556
O21 Ti5 1.897594 1_555
O21 V1 1.997327 1_655
O21 Sb3 2.632056 1_656
O22 Ti4 1.860864 1_555
O22 V5 2.022390 1_555
O22 Sb2 2.663767 1_556
O23 Ti5 1.860356 1_555
O23 V2 2.022709 1_655
O23 Sb3 2.665902 1_656
O24 Ti4 1.998068 1_555
O24 V4 2.012060 1_555
O24 V5 2.089956 1_555
O25 Ti5 1.997721 1_555
O25 V1 2.012449 1_655
O25 V2 2.088955 1_655
O26 V3 2.031410 1_555
O26 Sb2 2.070753 1_555
O26 Ti0 2.145698 1_555
O27 V0 2.031751 1_455
O27 Sb3 2.070194 1_555
O27 Ti1 2.145999 1_555
O28 V4 1.813295 1_555
O28 V5 2.060608 1_555
O28 Sb2 2.659998 1_556
O29 V1 1.813344 1_555
O29 V2 2.062054 1_555
O29 Sb3 2.658974 1_556
O30 V0 2.033225 1_545
O30 Sb2 2.085146 1_555
O30 Ti2 2.132529 1_655
O31 V3 2.033661 1_555
O31 Sb3 2.084631 1_555
O31 Ti3 2.132638 1_555
