# generated using pymatgen
data_Sr2Hf7O16
_symmetry_space_group_name_H-M   'P 1'
_cell_length_a   9.58991507
_cell_length_b   9.58991507
_cell_length_c   9.58991499
_cell_angle_alpha   38.66123742
_cell_angle_beta   38.66123741
_cell_angle_gamma   38.66124342
_symmetry_Int_Tables_number   1
_chemical_formula_structural   Sr2Hf7O16
_chemical_formula_sum   'Sr2 Hf7 O16'
_cell_volume   309.34569718
_cell_formula_units_Z   1
loop_
 _symmetry_equiv_pos_site_id
 _symmetry_equiv_pos_as_xyz
  1  'x, y, z'
loop_
 _atom_site_type_symbol
 _atom_site_label
 _atom_site_symmetry_multiplicity
 _atom_site_fract_x
 _atom_site_fract_y
 _atom_site_fract_z
 _atom_site_occupancy
  Sr  Sr0  1  0.33367499  0.33367499  0.33367499  1
  Sr  Sr1  1  0.66632501  0.66632501  0.66632501  1
  Hf  Hf0  1  -0.00000000  -0.00000000  0.00000000  1
  Hf  Hf1  1  0.88689833  0.25232565  0.51464868  1
  Hf  Hf2  1  0.48535132  0.11310167  0.74767435  1
  Hf  Hf3  1  0.74767435  0.48535132  0.11310167  1
  Hf  Hf4  1  0.25232565  0.51464868  0.88689833  1
  Hf  Hf5  1  0.51464868  0.88689833  0.25232565  1
  Hf  Hf6  1  0.11310167  0.74767435  0.48535132  1
  O  O0  1  0.23576008  0.23576008  0.23576008  1
  O  O1  1  0.96278565  0.22923230  0.67960873  1
  O  O2  1  0.85067791  0.14976764  0.40980779  1
  O  O3  1  0.59019221  0.14932209  0.85023236  1
  O  O4  1  0.32039127  0.03721435  0.77076770  1
  O  O5  1  0.77076770  0.32039127  0.03721435  1
  O  O6  1  0.85023236  0.59019221  0.14932209  1
  O  O7  1  0.57013733  0.57013733  0.57013733  1
  O  O8  1  0.42986267  0.42986267  0.42986267  1
  O  O9  1  0.14976764  0.40980779  0.85067791  1
  O  O10  1  0.22923230  0.67960873  0.96278565  1
  O  O11  1  0.67960873  0.96278565  0.22923230  1
  O  O12  1  0.40980779  0.85067791  0.14976764  1
  O  O13  1  0.14932209  0.85023236  0.59019221  1
  O  O14  1  0.03721435  0.77076770  0.32039127  1
  O  O15  1  0.76423992  0.76423992  0.76423992  1
loop_
_geom_bond_atom_site_label_1
_geom_bond_atom_site_label_2
_geom_bond_distance
_geom_bond_site_symmetry_2
Hf0 O11 2.083085 1_445
Hf0 O4 2.083085 1_554
Hf0 O1 2.083085 1_454
Hf0 O14 2.083085 1_545
Hf0 O10 2.083085 1_544
Hf0 O5 2.083085 1_455
Hf1 O1 2.019989 1_555
Hf1 O0 2.056887 1_655
Hf1 O7 2.085543 1_555
Hf1 O3 2.133795 1_555
Hf1 O2 2.173025 1_555
Hf1 O13 2.248725 1_645
Hf1 O6 2.304976 1_555
Hf2 O4 2.019989 1_555
Hf2 O15 2.056887 1_545
Hf2 O8 2.085543 1_555
Hf2 O9 2.133796 1_555
Hf2 O3 2.173025 1_555
Hf2 O12 2.248725 1_546
Hf2 O2 2.304976 1_555
Hf3 O5 2.019989 1_555
Hf3 O15 2.056887 1_554
Hf3 O8 2.085543 1_555
Hf3 O2 2.133795 1_555
Hf3 O6 2.173025 1_555
Hf3 O9 2.248725 1_654
Hf3 O12 2.304977 1_555
Hf4 O10 2.019989 1_555
Hf4 O0 2.056887 1_556
Hf4 O7 2.085543 1_555
Hf4 O13 2.133795 1_555
Hf4 O9 2.173025 1_555
Hf4 O6 2.248725 1_456
Hf4 O3 2.304977 1_555
Hf5 O11 2.019989 1_555
Hf5 O0 2.056887 1_565
Hf5 O7 2.085543 1_555
Hf5 O6 2.133796 1_555
Hf5 O12 2.173025 1_555
Hf5 O3 2.248725 1_564
Hf5 O13 2.304976 1_555
Hf6 O14 2.019989 1_555
Hf6 O15 2.056887 1_455
Hf6 O8 2.085543 1_555
Hf6 O12 2.133795 1_555
Hf6 O13 2.173025 1_555
Hf6 O2 2.248725 1_465
Hf6 O9 2.304976 1_555
O0 Sr0 2.603088 1_555
O1 Sr0 2.570311 1_655
O1 Sr1 2.605755 1_555
O4 Sr1 2.570312 1_545
O4 Sr0 2.605755 1_555
O5 Sr1 2.570312 1_554
O5 Sr0 2.605755 1_555
O7 Sr1 2.557169 1_555
O8 Sr0 2.557169 1_555
O10 Sr0 2.570312 1_556
O10 Sr1 2.605755 1_555
O11 Sr0 2.570312 1_565
O11 Sr1 2.605755 1_555
O14 Sr1 2.570311 1_455
O14 Sr0 2.605755 1_555
O15 Sr1 2.603088 1_555
