# generated using pymatgen
data_ZrO2
_symmetry_space_group_name_H-M   'P 1'
_cell_length_a   10.21635077
_cell_length_b   5.21884202
_cell_length_c   5.31038101
_cell_angle_alpha   90.00000000
_cell_angle_beta   90.00000000
_cell_angle_gamma   90.00000000
_symmetry_Int_Tables_number   1
_chemical_formula_structural   ZrO2
_chemical_formula_sum   'Zr8 O16'
_cell_volume   283.13634937
_cell_formula_units_Z   8
loop_
 _symmetry_equiv_pos_site_id
 _symmetry_equiv_pos_as_xyz
  1  'x, y, z'
loop_
 _atom_site_type_symbol
 _atom_site_label
 _atom_site_symmetry_multiplicity
 _atom_site_fract_x
 _atom_site_fract_y
 _atom_site_fract_z
 _atom_site_occupancy
  Zr  Zr0  1  0.13815356  0.54093797  0.84118113  1
  Zr  Zr1  1  0.13815356  0.95906203  0.34118113  1
  Zr  Zr2  1  0.36184644  0.45906203  0.34118113  1
  Zr  Zr3  1  0.36184644  0.04093797  0.84118113  1
  Zr  Zr4  1  0.63815356  0.95906203  0.15881887  1
  Zr  Zr5  1  0.63815356  0.54093797  0.65881887  1
  Zr  Zr6  1  0.86184644  0.45906203  0.15881887  1
  Zr  Zr7  1  0.86184644  0.04093797  0.65881887  1
  O  O0  1  0.03380397  0.83463440  0.66986895  1
  O  O1  1  0.03380397  0.66536560  0.16986895  1
  O  O2  1  0.22457427  0.24891431  0.08711387  1
  O  O3  1  0.22457427  0.25108569  0.58711387  1
  O  O4  1  0.27542573  0.74891431  0.08711387  1
  O  O5  1  0.27542573  0.75108569  0.58711387  1
  O  O6  1  0.46619603  0.16536560  0.16986895  1
  O  O7  1  0.46619603  0.33463440  0.66986895  1
  O  O8  1  0.53380397  0.66536560  0.33013105  1
  O  O9  1  0.53380397  0.83463440  0.83013105  1
  O  O10  1  0.72457427  0.24891431  0.41288613  1
  O  O11  1  0.72457427  0.25108569  0.91288613  1
  O  O12  1  0.77542573  0.74891431  0.41288613  1
  O  O13  1  0.77542573  0.75108569  0.91288613  1
  O  O14  1  0.96619603  0.16536560  0.33013105  1
  O  O15  1  0.96619603  0.33463440  0.83013105  1
loop_
_geom_bond_atom_site_label_1
_geom_bond_atom_site_label_2
_geom_bond_distance
_geom_bond_site_symmetry_2
O0 Zr7 2.061292 1_465
O0 Zr0 2.076888 1_555
O0 Zr1 2.145882 1_555
O1 Zr6 2.061292 1_455
O1 Zr1 2.076888 1_555
O1 Zr0 2.145882 1_554
O2 Zr0 2.192670 1_554
O2 Zr3 2.202384 1_554
O2 Zr1 2.210901 1_545
O2 Zr2 2.233813 1_555
O3 Zr1 2.192670 1_545
O3 Zr2 2.202384 1_555
O3 Zr0 2.210901 1_555
O3 Zr3 2.233813 1_555
O4 Zr3 2.192670 1_564
O4 Zr0 2.202384 1_554
O4 Zr2 2.210901 1_555
O4 Zr1 2.233813 1_555
O5 Zr2 2.192670 1_555
O5 Zr1 2.202384 1_555
O5 Zr3 2.210901 1_565
O5 Zr0 2.233813 1_555
O6 Zr4 2.061292 1_545
O6 Zr2 2.076888 1_555
O6 Zr3 2.145882 1_554
O7 Zr5 2.061292 1_555
O7 Zr3 2.076888 1_555
O7 Zr2 2.145882 1_555
O8 Zr2 2.061292 1_555
O8 Zr4 2.076888 1_555
O8 Zr5 2.145882 1_555
O9 Zr3 2.061292 1_565
O9 Zr5 2.076888 1_555
O9 Zr4 2.145882 1_556
O10 Zr5 2.192670 1_555
O10 Zr7 2.202384 1_555
O10 Zr4 2.210901 1_545
O10 Zr6 2.233813 1_555
O11 Zr4 2.192670 1_546
O11 Zr6 2.202384 1_556
O11 Zr5 2.210901 1_555
O11 Zr7 2.233813 1_555
O12 Zr7 2.192670 1_565
O12 Zr5 2.202384 1_555
O12 Zr6 2.210901 1_555
O12 Zr4 2.233813 1_555
O13 Zr6 2.192670 1_556
O13 Zr4 2.202384 1_556
O13 Zr7 2.210901 1_565
O13 Zr5 2.233813 1_555
O14 Zr1 2.061292 1_645
O14 Zr6 2.076888 1_555
O14 Zr7 2.145882 1_555
O15 Zr0 2.061292 1_655
O15 Zr7 2.076888 1_555
O15 Zr6 2.145882 1_556
