# generated using pymatgen
data_KPH2O3
_symmetry_space_group_name_H-M   'P 1'
_cell_length_a   8.72055300
_cell_length_b   7.98162000
_cell_length_c   12.77499226
_cell_angle_alpha   81.04417610
_cell_angle_beta   90.00000000
_cell_angle_gamma   90.00000000
_symmetry_Int_Tables_number   1
_chemical_formula_structural   KPH2O3
_chemical_formula_sum   'K8 P8 H16 O24'
_cell_volume   878.35190746
_cell_formula_units_Z   8
loop_
 _symmetry_equiv_pos_site_id
 _symmetry_equiv_pos_as_xyz
  1  'x, y, z'
loop_
 _atom_site_type_symbol
 _atom_site_label
 _atom_site_symmetry_multiplicity
 _atom_site_fract_x
 _atom_site_fract_y
 _atom_site_fract_z
 _atom_site_occupancy
  K  K0  1  0.45066800  0.03097900  0.74053600  1
  K  K1  1  0.95066800  0.96902100  0.75946400  1
  K  K2  1  0.54933200  0.96902100  0.25946400  1
  K  K3  1  0.04933200  0.03097900  0.24053600  1
  K  K4  1  0.72406800  0.53088800  0.98365900  1
  K  K5  1  0.22406800  0.46911200  0.51634100  1
  K  K6  1  0.27593200  0.46911200  0.01634100  1
  K  K7  1  0.77593200  0.53088800  0.48365900  1
  P  P0  1  0.49946600  0.45158700  0.75663500  1
  P  P1  1  0.99946600  0.54841300  0.74336500  1
  P  P2  1  0.50053400  0.54841300  0.24336500  1
  P  P3  1  0.00053400  0.45158700  0.25663500  1
  P  P4  1  0.69255100  0.04719200  0.98808100  1
  P  P5  1  0.19255100  0.95280800  0.51191900  1
  P  P6  1  0.30744900  0.95280800  0.01191900  1
  P  P7  1  0.80744900  0.04719200  0.48808100  1
  H  H0  1  0.34019200  0.36077900  0.31095400  1
  H  H1  1  0.84019200  0.63922100  0.18904600  1
  H  H2  1  0.65980800  0.63922100  0.68904600  1
  H  H3  1  0.15980800  0.36077900  0.81095400  1
  H  H4  1  0.59330300  0.85436900  0.50446000  1
  H  H5  1  0.09330300  0.14563100  0.99554000  1
  H  H6  1  0.40669700  0.14563100  0.49554000  1
  H  H7  1  0.90669700  0.85436900  0.00446000  1
  H  H8  1  0.62445700  0.33708800  0.77362800  1
  H  H9  1  0.12445700  0.66291200  0.72637200  1
  H  H10  1  0.37554300  0.66291200  0.22637200  1
  H  H11  1  0.87554300  0.33708800  0.27362800  1
  H  H12  1  0.48887400  0.16844300  0.50506000  1
  H  H13  1  0.98887400  0.83155700  0.99494000  1
  H  H14  1  0.51112600  0.83155700  0.49494000  1
  H  H15  1  0.01112600  0.16844300  0.00506000  1
  O  O0  1  0.36534200  0.36573500  0.71084400  1
  O  O1  1  0.86534200  0.63426500  0.78915600  1
  O  O2  1  0.63465800  0.63426500  0.28915600  1
  O  O3  1  0.13465800  0.36573500  0.21084400  1
  O  O4  1  0.47922600  0.53072900  0.85536700  1
  O  O5  1  0.97922600  0.46927100  0.64463300  1
  O  O6  1  0.52077400  0.46927100  0.14463300  1
  O  O7  1  0.02077400  0.53072900  0.35536700  1
  O  O8  1  0.56569200  0.59399900  0.66106100  1
  O  O9  1  0.06569200  0.40600100  0.83893900  1
  O  O10  1  0.43430800  0.40600100  0.33893900  1
  O  O11  1  0.93430800  0.59399900  0.16106100  1
  O  O12  1  0.75881600  0.18261300  0.04397600  1
  O  O13  1  0.25881600  0.81738700  0.45602400  1
  O  O14  1  0.24118400  0.81738700  0.95602400  1
  O  O15  1  0.74118400  0.18261300  0.54397600  1
  O  O16  1  0.70685100  0.05983000  0.87085400  1
  O  O17  1  0.20685100  0.94017000  0.62914600  1
  O  O18  1  0.29314900  0.94017000  0.12914600  1
  O  O19  1  0.79314900  0.05983000  0.37085400  1
  O  O20  1  0.62545900  0.89028600  0.05252000  1
  O  O21  1  0.12545900  0.10971400  0.44748000  1
  O  O22  1  0.37454100  0.10971400  0.94748000  1
  O  O23  1  0.87454100  0.89028600  0.55252000  1
loop_
_geom_bond_atom_site_label_1
_geom_bond_atom_site_label_2
_geom_bond_distance
_geom_bond_site_symmetry_2
K0 O17 2.718863 1_545
K0 O0 2.742449 1_555
K0 O16 2.816913 1_555
K0 O22 2.888271 1_555
K1 O16 2.718863 1_565
K1 O1 2.742449 1_555
K1 O17 2.816913 1_655
K1 O23 2.888271 1_555
K2 O19 2.718863 1_565
K2 O2 2.742449 1_555
K2 O18 2.816913 1_555
K2 O20 2.888271 1_555
K3 O18 2.718863 1_545
K3 O3 2.742449 1_555
K3 O19 2.816913 1_455
K3 O21 2.888271 1_555
K4 O4 2.691772 1_555
K4 O6 2.701645 1_556
K4 O1 2.781076 1_555
K4 O12 2.783156 1_556
K5 O5 2.691772 1_455
K5 O7 2.701645 1_555
K5 O0 2.781076 1_555
K5 O13 2.783156 1_555
K6 O6 2.691772 1_555
K6 O4 2.701645 1_554
K6 O3 2.781076 1_555
K6 O14 2.783156 1_554
K7 O7 2.691772 1_655
K7 O5 2.701645 1_555
K7 O2 2.781076 1_555
K7 O15 2.783156 1_555
H0 O10 0.985845 1_555
H1 O11 0.985845 1_555
H2 O8 0.985845 1_555
H3 O9 0.985845 1_555
H8 P0 1.417261 1_555
H9 P1 1.417261 1_455
H10 P2 1.417261 1_555
H11 P3 1.417261 1_655
H12 H6 0.753919 1_555
H13 H7 0.753919 1_556
H14 H4 0.753919 1_555
H15 H5 0.753919 1_554
O0 P0 1.518092 1_555
O1 P1 1.518092 1_555
O2 P2 1.518092 1_555
O3 P3 1.518092 1_555
O4 P0 1.506358 1_555
O5 P1 1.506358 1_555
O6 P2 1.506358 1_555
O7 P3 1.506358 1_555
O8 P0 1.638357 1_555
O9 P1 1.638357 1_455
O10 P2 1.638357 1_555
O11 P3 1.638357 1_655
O12 P4 1.500803 1_554
O13 P5 1.500803 1_555
O14 P6 1.500803 1_556
O15 P7 1.500803 1_555
O16 P4 1.490443 1_555
O17 P5 1.490443 1_555
O18 P6 1.490443 1_555
O19 P7 1.490443 1_555
O20 P4 1.505796 1_564
O21 P5 1.505796 1_545
O22 P6 1.505796 1_546
O23 P7 1.505796 1_565
