# generated using pymatgen
data_Li4Ti3Fe3(CoO8)2
_symmetry_space_group_name_H-M   'P 1'
_cell_length_a   5.93265866
_cell_length_b   5.93265866
_cell_length_c   9.62021177
_cell_angle_alpha   89.30265586
_cell_angle_beta   89.30265586
_cell_angle_gamma   60.28344949
_symmetry_Int_Tables_number   1
_chemical_formula_structural   Li4Ti3Fe3(CoO8)2
_chemical_formula_sum   'Li4 Ti3 Fe3 Co2 O16'
_cell_volume   294.03859840
_cell_formula_units_Z   1
loop_
 _symmetry_equiv_pos_site_id
 _symmetry_equiv_pos_as_xyz
  1  'x, y, z'
loop_
 _atom_site_type_symbol
 _atom_site_label
 _atom_site_symmetry_multiplicity
 _atom_site_fract_x
 _atom_site_fract_y
 _atom_site_fract_z
 _atom_site_occupancy
  Li  Li0  1  0.66468200  0.66468200  0.89212300  1
  Li  Li1  1  0.99907500  0.99907500  0.99358900  1
  Li  Li2  1  0.00214100  0.00214100  0.49696800  1
  Li  Li3  1  0.33099600  0.33099600  0.39610800  1
  Ti  Ti0  1  0.82807700  0.33950600  0.21424200  1
  Ti  Ti1  1  0.33950600  0.82807700  0.21424200  1
  Ti  Ti2  1  0.17131300  0.17131300  0.71749200  1
  Fe  Fe0  1  0.83048900  0.83048900  0.21617500  1
  Fe  Fe1  1  0.65977900  0.17023400  0.71151500  1
  Fe  Fe2  1  0.17023400  0.65977900  0.71151500  1
  Co  Co0  1  0.67566400  0.67566400  0.49159800  1
  Co  Co1  1  0.33710500  0.33710500  0.98828200  1
  O  O0  1  0.83373500  0.33213000  0.60061700  1
  O  O1  1  0.51829900  0.51829900  0.33289000  1
  O  O2  1  0.66408600  0.66408600  0.10394600  1
  O  O3  1  0.00335100  0.00335100  0.31203800  1
  O  O4  1  0.99991900  0.99991900  0.80651500  1
  O  O5  1  0.33213000  0.83373500  0.60061700  1
  O  O6  1  0.95560800  0.51450600  0.34117700  1
  O  O7  1  0.51450600  0.95560800  0.34117700  1
  O  O8  1  0.16918000  0.16918000  0.10372400  1
  O  O9  1  0.83375100  0.83375100  0.59392900  1
  O  O10  1  0.47551600  0.03592300  0.83679300  1
  O  O11  1  0.03592300  0.47551600  0.83679300  1
  O  O12  1  0.32885500  0.32885500  0.60142600  1
  O  O13  1  0.67628200  0.17107200  0.10447400  1
  O  O14  1  0.47597200  0.47597200  0.84370500  1
  O  O15  1  0.17107200  0.67628200  0.10447400  1
loop_
_geom_bond_atom_site_label_1
_geom_bond_atom_site_label_2
_geom_bond_distance
_geom_bond_site_symmetry_2
Li0 O10 1.982186 1_565
Li0 O11 1.982186 1_655
Li0 O14 1.997945 1_555
Li0 O2 2.037705 1_556
Li1 O4 1.799590 1_555
Li1 O13 1.971269 1_566
Li1 O15 1.971269 1_656
Li1 O8 2.054557 1_666
Li2 O3 1.778934 1_555
Li2 O9 1.951964 1_445
Li2 O0 1.977169 1_455
Li2 O5 1.977169 1_545
Li3 O12 1.975016 1_555
Li3 O1 2.007661 1_555
Li3 O7 2.008764 1_545
Li3 O6 2.008764 1_455
Fe0 O3 2.010635 1_665
Fe0 O6 2.024498 1_555
Fe0 O7 2.024498 1_555
Fe0 O2 2.032971 1_555
Fe0 O15 2.052508 1_655
Fe0 O13 2.052508 1_565
Fe1 O4 1.982223 1_545
Fe1 O12 2.014024 1_555
Fe1 O0 2.014139 1_555
Fe1 O10 2.022522 1_555
Fe1 O14 2.039062 1_555
Fe1 O9 2.076952 1_545
Fe2 O4 1.982223 1_455
Fe2 O12 2.014024 1_555
Fe2 O5 2.014139 1_555
Fe2 O11 2.022522 1_555
Fe2 O14 2.039062 1_555
Fe2 O9 2.076952 1_455
Co0 O9 1.909285 1_555
Co0 O6 2.041414 1_555
Co0 O7 2.041414 1_555
Co0 O5 2.051868 1_555
Co0 O0 2.051868 1_555
Co0 O1 2.237819 1_555
Co1 O14 1.977139 1_555
Co1 O8 2.036785 1_556
Co1 O13 2.081258 1_556
Co1 O15 2.081258 1_556
Co1 O10 2.137866 1_555
Co1 O11 2.137866 1_555
O0 Ti2 2.078397 1_655
O1 Ti0 1.962457 1_555
O1 Ti1 1.962457 1_555
O2 Ti1 1.974451 1_555
O2 Ti0 1.974451 1_555
O3 Ti1 1.966164 1_545
O3 Ti0 1.966164 1_455
O4 Ti2 1.945243 1_665
O5 Ti2 2.078397 1_565
O6 Ti0 1.993399 1_555
O7 Ti1 1.993399 1_555
O8 Ti1 2.047706 1_545
O8 Ti0 2.047706 1_455
O10 Ti2 1.951988 1_555
O11 Ti2 1.951988 1_555
O12 Ti2 1.951697 1_555
O13 Ti0 1.966118 1_555
O15 Ti1 1.966118 1_555
