# generated using pymatgen
data_Ti3CrFe2(PO4)6
_symmetry_space_group_name_H-M   'P 1'
_cell_length_a   8.54407165
_cell_length_b   8.54407165
_cell_length_c   8.54407195
_cell_angle_alpha   60.95782621
_cell_angle_beta   60.95782621
_cell_angle_gamma   60.95781953
_symmetry_Int_Tables_number   1
_chemical_formula_structural   Ti3CrFe2(PO4)6
_chemical_formula_sum   'Ti3 Cr1 Fe2 P6 O24'
_cell_volume   450.55983639
_cell_formula_units_Z   1
loop_
 _symmetry_equiv_pos_site_id
 _symmetry_equiv_pos_as_xyz
  1  'x, y, z'
loop_
 _atom_site_type_symbol
 _atom_site_label
 _atom_site_symmetry_multiplicity
 _atom_site_fract_x
 _atom_site_fract_y
 _atom_site_fract_z
 _atom_site_occupancy
  Ti  Ti0  1  0.14329500  0.14329500  0.14329500  1
  Ti  Ti1  1  0.35557500  0.35557500  0.35557500  1
  Ti  Ti2  1  0.64389100  0.64389100  0.64389100  1
  Cr  Cr0  1  0.85923200  0.85923200  0.85923200  1
  Fe  Fe0  1  0.00015500  0.00015500  0.00015500  1
  Fe  Fe1  1  0.49908100  0.49908100  0.49908100  1
  P  P0  1  0.75026400  0.04237200  0.46064400  1
  P  P1  1  0.04237200  0.46064400  0.75026400  1
  P  P2  1  0.54363700  0.24852400  0.95635900  1
  P  P3  1  0.95635900  0.54363700  0.24852400  1
  P  P4  1  0.24852400  0.95635900  0.54363700  1
  P  P5  1  0.46064400  0.75026400  0.04237200  1
  O  O0  1  0.31514000  0.11601300  0.49921000  1
  O  O1  1  0.49921000  0.31514000  0.11601300  1
  O  O2  1  0.90998100  0.05502500  0.26339100  1
  O  O3  1  0.11601300  0.49921000  0.31514000  1
  O  O4  1  0.81151600  0.00703000  0.61642700  1
  O  O5  1  0.58816300  0.23828000  0.44053400  1
  O  O6  1  0.05502500  0.26339100  0.90998100  1
  O  O7  1  0.23828000  0.44053400  0.58816300  1
  O  O8  1  0.38313300  0.18453700  0.99876500  1
  O  O9  1  0.44053400  0.58816300  0.23828000  1
  O  O10  1  0.73830300  0.09049700  0.94430000  1
  O  O11  1  0.99876500  0.38313300  0.18453700  1
  O  O12  1  0.00703000  0.61642700  0.81151600  1
  O  O13  1  0.26339100  0.90998100  0.05502500  1
  O  O14  1  0.55625900  0.41032200  0.76190700  1
  O  O15  1  0.61642700  0.81151600  0.00703000  1
  O  O16  1  0.76190700  0.55625900  0.41032200  1
  O  O17  1  0.94430000  0.73830300  0.09049700  1
  O  O18  1  0.41032200  0.76190700  0.55625900  1
  O  O19  1  0.18453700  0.99876500  0.38313300  1
  O  O20  1  0.88102500  0.50276000  0.68445000  1
  O  O21  1  0.09049700  0.94430000  0.73830300  1
  O  O22  1  0.50276000  0.68445000  0.88102500  1
  O  O23  1  0.68445000  0.88102500  0.50276000  1
loop_
_geom_bond_atom_site_label_1
_geom_bond_atom_site_label_2
_geom_bond_distance
_geom_bond_site_symmetry_2
Cr0 O12 1.960203 1_655
Cr0 O4 1.960204 1_565
Cr0 O15 1.960204 1_556
Cr0 O10 2.045299 1_565
Cr0 O17 2.045299 1_556
Cr0 O21 2.045299 1_655
Fe0 O10 2.198018 1_454
Fe0 O17 2.198018 1_445
Fe0 O21 2.198018 1_544
Fe0 O13 2.205106 1_545
Fe0 O6 2.205106 1_554
Fe0 O2 2.205106 1_455
Fe1 O5 2.204716 1_555
Fe1 O7 2.204717 1_555
Fe1 O9 2.204717 1_555
Fe1 O18 2.215515 1_555
Fe1 O16 2.215515 1_555
Fe1 O14 2.215515 1_555
O0 P4 1.539520 1_545
O0 Ti1 1.910771 1_555
O1 P2 1.539520 1_554
O1 Ti1 1.910771 1_555
O2 P0 1.564502 1_555
O2 Ti0 2.077953 1_655
O3 P3 1.539520 1_455
O3 Ti1 1.910771 1_555
O4 P0 1.506432 1_555
O5 P0 1.565409 1_555
O5 Ti1 2.059384 1_555
O6 P1 1.564502 1_555
O6 Ti0 2.077952 1_556
O7 P1 1.565409 1_555
O7 Ti1 2.059384 1_555
O8 P2 1.537523 1_555
O8 Ti0 1.915724 1_556
O9 P5 1.565409 1_555
O9 Ti1 2.059384 1_555
O10 P2 1.545422 1_555
O11 P3 1.537522 1_555
O11 Ti0 1.915723 1_655
O12 P1 1.506432 1_555
O13 P5 1.564502 1_555
O13 Ti0 2.077952 1_565
O14 P2 1.556868 1_555
O14 Ti2 2.079393 1_555
O15 P5 1.506432 1_555
O16 P3 1.556868 1_555
O16 Ti2 2.079393 1_555
O17 P3 1.545422 1_555
O18 P4 1.556867 1_555
O18 Ti2 2.079393 1_555
O19 P4 1.537523 1_555
O19 Ti0 1.915724 1_565
O20 P1 1.555849 1_655
O20 Ti2 1.892907 1_555
O21 P4 1.545422 1_555
O22 P5 1.555849 1_556
O22 Ti2 1.892907 1_555
O23 P0 1.555849 1_565
O23 Ti2 1.892907 1_555
