# generated using pymatgen
data_Li2V2SnO6
_symmetry_space_group_name_H-M   'P 1'
_cell_length_a   5.33706414
_cell_length_b   10.33150101
_cell_length_c   5.33714878
_cell_angle_alpha   89.99754430
_cell_angle_beta   119.54186474
_cell_angle_gamma   89.99837136
_symmetry_Int_Tables_number   1
_chemical_formula_structural   Li2V2SnO6
_chemical_formula_sum   'Li4 V4 Sn2 O12'
_cell_volume   256.03081529
_cell_formula_units_Z   2
loop_
 _symmetry_equiv_pos_site_id
 _symmetry_equiv_pos_as_xyz
  1  'x, y, z'
loop_
 _atom_site_type_symbol
 _atom_site_label
 _atom_site_symmetry_multiplicity
 _atom_site_fract_x
 _atom_site_fract_y
 _atom_site_fract_z
 _atom_site_occupancy
  Li  Li0  1  0.64134600  0.74988900  0.14109200  1
  Li  Li1  1  0.85888700  0.25012200  0.35865500  1
  Li  Li2  1  0.14138600  0.74971800  0.64182600  1
  Li  Li3  1  0.35818100  0.25028500  0.85863500  1
  V  V0  1  0.33581400  0.99999300  0.66420400  1
  V  V1  1  0.16346400  0.50003400  0.83673400  1
  V  V2  1  0.83571100  0.49999800  0.16415400  1
  V  V3  1  0.66427600  0.99999300  0.33575100  1
  Sn  Sn0  1  0.99981900  0.99998100  0.00008900  1
  Sn  Sn1  1  0.50010300  0.50005500  0.49992700  1
  O  O0  1  0.16592200  0.59696100  0.16480600  1
  O  O1  1  0.33433000  0.09685200  0.33467900  1
  O  O2  1  0.66534400  0.90312700  0.66571000  1
  O  O3  1  0.83518500  0.40299200  0.83406900  1
  O  O4  1  0.66480600  0.10893000  0.01631500  1
  O  O5  1  0.33564300  0.89133400  0.98422000  1
  O  O6  1  0.51652600  0.39130600  0.16381500  1
  O  O7  1  0.83626200  0.60860500  0.48345500  1
  O  O8  1  0.98366200  0.89110400  0.33521000  1
  O  O9  1  0.16423500  0.39180700  0.51663400  1
  O  O10  1  0.48331000  0.60822000  0.83566700  1
  O  O11  1  0.01578700  0.10869300  0.66435300  1
loop_
_geom_bond_atom_site_label_1
_geom_bond_atom_site_label_2
_geom_bond_distance
_geom_bond_site_symmetry_2
Li0 O5 2.037444 1_554
Li0 O10 2.038471 1_554
Li0 O8 2.161826 1_555
Li0 O7 2.162609 1_555
Li1 O11 2.037319 1_655
Li1 O9 2.038316 1_655
Li1 O4 2.161756 1_555
Li1 O6 2.161870 1_555
Li2 O7 2.033405 1_455
Li2 O8 2.040005 1_455
Li2 O10 2.162306 1_555
Li2 O5 2.164948 1_555
Li3 O6 2.032922 1_556
Li3 O4 2.039794 1_556
Li3 O9 2.162767 1_555
Li3 O11 2.164765 1_555
O0 V1 2.011559 1_554
O0 V2 2.025714 1_455
O0 Sn1 2.058265 1_555
O1 V0 2.020070 1_545
O1 V3 2.022947 1_545
O1 Sn0 2.057737 1_445
O2 V0 2.020067 1_555
O2 V3 2.023064 1_555
O2 Sn0 2.057071 1_556
O3 V1 2.012605 1_655
O3 V2 2.025674 1_556
O3 Sn1 2.058871 1_555
O4 V3 2.043996 1_545
O4 Sn0 2.150342 1_545
O4 V0 2.151222 1_544
O5 V0 2.044211 1_555
O5 V3 2.147523 1_556
O5 Sn0 2.151541 1_456
O6 V2 2.039618 1_555
O6 V1 2.148455 1_554
O6 Sn1 2.154820 1_555
O7 V2 2.039223 1_555
O7 V1 2.148408 1_655
O7 Sn1 2.154043 1_555
O8 V3 2.043515 1_555
O8 Sn0 2.150287 1_555
O8 V0 2.151066 1_655
O9 V1 2.043543 1_555
O9 V2 2.147032 1_455
O9 Sn1 2.151661 1_555
O10 V1 2.042796 1_555
O10 V2 2.146921 1_556
O10 Sn1 2.150878 1_555
O11 V0 2.044436 1_545
O11 V3 2.147626 1_445
O11 Sn0 2.151738 1_446
