# generated using pymatgen
data_Li3Mn2P2(CO7)2
_symmetry_space_group_name_H-M   'P 1'
_cell_length_a   6.47932000
_cell_length_b   8.29658768
_cell_length_c   10.10134891
_cell_angle_alpha   85.69766062
_cell_angle_beta   89.81364876
_cell_angle_gamma   89.52452022
_symmetry_Int_Tables_number   1
_chemical_formula_structural   Li3Mn2P2(CO7)2
_chemical_formula_sum   'Li6 Mn4 P4 C4 O28'
_cell_volume   541.45990870
_cell_formula_units_Z   2
loop_
 _symmetry_equiv_pos_site_id
 _symmetry_equiv_pos_as_xyz
  1  'x, y, z'
loop_
 _atom_site_type_symbol
 _atom_site_label
 _atom_site_symmetry_multiplicity
 _atom_site_fract_x
 _atom_site_fract_y
 _atom_site_fract_z
 _atom_site_occupancy
  Li  Li0  1  0.02184300  0.73888200  0.87449800  1
  Li  Li1  1  0.47874000  0.74392100  0.87442200  1
  Li  Li2  1  0.05314900  0.72546800  0.38063900  1
  Li  Li3  1  0.97008000  0.26979800  0.63341500  1
  Li  Li4  1  0.53431400  0.26326600  0.11523300  1
  Li  Li5  1  0.74114700  0.09759700  0.38363400  1
  Mn  Mn0  1  0.74394300  0.67054300  0.59757900  1
  Mn  Mn1  1  0.75038200  0.66840800  0.10425200  1
  Mn  Mn2  1  0.24642300  0.32993900  0.89863200  1
  Mn  Mn3  1  0.25205100  0.32852900  0.39706500  1
  P  P0  1  0.24312300  0.57995400  0.63725600  1
  P  P1  1  0.25187900  0.57820300  0.13420100  1
  P  P2  1  0.75206700  0.42042200  0.86153000  1
  P  P3  1  0.75161900  0.42045400  0.36036000  1
  C  C0  1  0.75818700  0.95739800  0.64540900  1
  C  C1  1  0.74870400  0.94891200  0.14927600  1
  C  C2  1  0.24682600  0.04643100  0.85744000  1
  C  C3  1  0.24649900  0.04550300  0.35346700  1
  O  O0  1  0.75133300  0.91428500  0.52342000  1
  O  O1  1  0.24677800  0.89913000  0.83547400  1
  O  O2  1  0.74377100  0.90069000  0.02879500  1
  O  O3  1  0.74449500  0.82950700  0.73430500  1
  O  O4  1  0.22710700  0.90303200  0.32785600  1
  O  O5  1  0.77338100  0.82674000  0.23978700  1
  O  O6  1  0.06020800  0.69162400  0.59114200  1
  O  O7  1  0.43773700  0.67441900  0.59813600  1
  O  O8  1  0.06239300  0.67491300  0.07805900  1
  O  O9  1  0.43744100  0.68567100  0.08995300  1
  O  O10  1  0.74520900  0.59007100  0.92154300  1
  O  O11  1  0.23635500  0.54649000  0.79362100  1
  O  O12  1  0.77091800  0.58085700  0.42615200  1
  O  O13  1  0.23237500  0.54325900  0.28761000  1
  O  O14  1  0.76357600  0.45777100  0.70829500  1
  O  O15  1  0.22408700  0.41576300  0.57510600  1
  O  O16  1  0.74277100  0.46040300  0.20733500  1
  O  O17  1  0.27322800  0.41193100  0.07485600  1
  O  O18  1  0.94006500  0.31906800  0.90914900  1
  O  O19  1  0.56223600  0.32050100  0.90841000  1
  O  O20  1  0.56447700  0.31483400  0.40262600  1
  O  O21  1  0.93241700  0.30285300  0.40183500  1
  O  O22  1  0.23140300  0.16524400  0.76404600  1
  O  O23  1  0.77694500  0.09735400  0.67719500  1
  O  O24  1  0.27233900  0.16700600  0.26205900  1
  O  O25  1  0.26288700  0.09981300  0.97515100  1
  O  O26  1  0.72785000  0.09095300  0.18137600  1
  O  O27  1  0.24143200  0.09841700  0.47323200  1
loop_
_geom_bond_atom_site_label_1
_geom_bond_atom_site_label_2
_geom_bond_distance
_geom_bond_site_symmetry_2
Li0 O1 1.999217 1_555
Li0 O8 2.101496 1_556
Li0 O10 2.214945 1_455
Li0 O11 2.301853 1_555
Li0 O3 2.373699 1_455
Li1 O1 1.991873 1_555
Li1 O10 2.171262 1_555
Li1 O9 2.210351 1_556
Li1 O3 2.307835 1_555
Li1 O11 2.463189 1_555
Li2 O4 1.905452 1_555
Li2 O6 2.124429 1_555
Li2 O13 2.166515 1_555
Li2 O12 2.223293 1_455
Li2 O5 2.414196 1_455
Li3 O23 1.933808 1_555
Li3 O15 2.107571 1_655
Li3 O14 2.220429 1_555
Li3 O22 2.275740 1_655
Li3 O21 2.348041 1_555
Li4 O26 1.973586 1_555
Li4 O17 2.108020 1_555
Li4 O19 2.114960 1_554
Li4 O24 2.355240 1_555
Li4 O16 2.374459 1_555
Li5 O0 1.996982 1_545
Li5 O26 2.050062 1_555
Li5 O21 2.133800 1_555
Li5 O20 2.147494 1_555
Mn0 O12 1.942164 1_555
Mn0 O3 1.979973 1_555
Mn0 O7 1.983997 1_555
Mn0 O14 2.020930 1_555
Mn0 O6 2.058480 1_655
Mn0 O0 2.104029 1_555
Mn1 O16 1.948411 1_555
Mn1 O5 1.973981 1_555
Mn1 O10 2.002632 1_554
Mn1 O2 2.018702 1_555
Mn1 O9 2.036345 1_555
Mn1 O8 2.038639 1_655
Mn2 O17 1.961459 1_556
Mn2 O18 1.989918 1_455
Mn2 O22 2.001640 1_555
Mn2 O25 2.007445 1_555
Mn2 O11 2.017402 1_555
Mn2 O19 2.049521 1_555
Mn3 O24 1.985705 1_555
Mn3 O15 1.995513 1_555
Mn3 O27 2.005735 1_555
Mn3 O20 2.027277 1_555
Mn3 O13 2.028336 1_555
Mn3 O21 2.083727 1_455
C0 O23 1.234782 1_565
C0 O0 1.309624 1_555
C0 O3 1.340952 1_555
C1 O26 1.251623 1_565
C1 O2 1.309864 1_555
C1 O5 1.322158 1_555
C2 O1 1.258350 1_545
C2 O25 1.304369 1_555
C2 O22 1.315727 1_555
C3 O4 1.236306 1_545
C3 O27 1.317793 1_555
C3 O24 1.326244 1_555
O6 P0 1.549380 1_555
O7 P0 1.525493 1_555
O8 P1 1.546821 1_555
O9 P1 1.547522 1_555
O10 P2 1.573961 1_555
O11 P0 1.583595 1_555
O12 P3 1.537640 1_555
O13 P1 1.559912 1_555
O14 P2 1.557299 1_555
O15 P0 1.548098 1_555
O16 P3 1.557531 1_555
O17 P1 1.549792 1_555
O18 P2 1.532438 1_555
O19 P2 1.542262 1_555
O20 P3 1.542263 1_555
O21 P3 1.556493 1_555
