# generated using pymatgen
data_La2Se2O
_symmetry_space_group_name_H-M   'P 1'
_cell_length_a   4.18262210
_cell_length_b   7.37701765
_cell_length_c   16.52874803
_cell_angle_alpha   90.00000000
_cell_angle_beta   90.00000000
_cell_angle_gamma   90.00000000
_symmetry_Int_Tables_number   1
_chemical_formula_structural   La2Se2O
_chemical_formula_sum   'La8 Se8 O4'
_cell_volume   509.99909984
_cell_formula_units_Z   4
loop_
 _symmetry_equiv_pos_site_id
 _symmetry_equiv_pos_as_xyz
  1  'x, y, z'
loop_
 _atom_site_type_symbol
 _atom_site_label
 _atom_site_symmetry_multiplicity
 _atom_site_fract_x
 _atom_site_fract_y
 _atom_site_fract_z
 _atom_site_occupancy
  La  La0  1  0.25000000  0.69943647  0.03684580  1
  La  La1  1  0.25000000  0.25817158  0.16717663  1
  La  La2  1  0.75000000  0.75817158  0.33282337  1
  La  La3  1  0.75000000  0.19943647  0.46315420  1
  La  La4  1  0.25000000  0.80056353  0.53684580  1
  La  La5  1  0.25000000  0.24182842  0.66717663  1
  La  La6  1  0.75000000  0.74182842  0.83282337  1
  La  La7  1  0.75000000  0.30056353  0.96315420  1
  Se  Se0  1  0.75000000  0.00918963  0.10337071  1
  Se  Se1  1  0.75000000  0.54665863  0.17416492  1
  Se  Se2  1  0.25000000  0.04665863  0.32583508  1
  Se  Se3  1  0.25000000  0.50918963  0.39662929  1
  Se  Se4  1  0.75000000  0.49081037  0.60337071  1
  Se  Se5  1  0.75000000  0.95334137  0.67416492  1
  Se  Se6  1  0.25000000  0.45334137  0.82583508  1
  Se  Se7  1  0.25000000  0.99081037  0.89662929  1
  O  O0  1  0.25000000  0.37071451  0.03269556  1
  O  O1  1  0.75000000  0.87071451  0.46730444  1
  O  O2  1  0.25000000  0.12928549  0.53269556  1
  O  O3  1  0.75000000  0.62928549  0.96730444  1
loop_
_geom_bond_atom_site_label_1
_geom_bond_atom_site_label_2
_geom_bond_distance
_geom_bond_site_symmetry_2
La0 O0 2.425958 1_555
La0 O3 2.441841 1_554
La0 O3 2.441841 1_454
La0 Se7 3.160935 1_554
La0 Se1 3.285637 1_555
La0 Se1 3.285637 1_455
La0 Se0 3.286962 1_565
La0 Se0 3.286962 1_465
La1 O0 2.372792 1_555
La1 Se0 2.976484 1_555
La1 Se0 2.976484 1_455
La1 Se1 2.985975 1_555
La1 Se1 2.985975 1_455
La1 Se2 3.051518 1_555
La2 O1 2.372792 1_555
La2 Se3 2.976484 1_555
La2 Se3 2.976484 1_655
La2 Se2 2.985975 1_565
La2 Se2 2.985975 1_665
La2 Se1 3.051518 1_555
La3 O1 2.425958 1_545
La3 O2 2.441841 1_655
La3 O2 2.441841 1_555
La3 Se4 3.160935 1_555
La3 Se2 3.285637 1_555
La3 Se2 3.285637 1_655
La3 Se3 3.286962 1_555
La3 Se3 3.286962 1_655
La4 O2 2.425958 1_565
La4 O1 2.441841 1_455
La4 O1 2.441841 1_555
La4 Se3 3.160935 1_555
La4 Se5 3.285637 1_455
La4 Se5 3.285637 1_555
La4 Se4 3.286962 1_455
La4 Se4 3.286962 1_555
La5 O2 2.372792 1_555
La5 Se4 2.976484 1_455
La5 Se4 2.976484 1_555
La5 Se5 2.985975 1_445
La5 Se5 2.985975 1_545
La5 Se6 3.051518 1_555
La6 O3 2.372792 1_555
La6 Se7 2.976484 1_555
La6 Se7 2.976484 1_655
La6 Se6 2.985975 1_555
La6 Se6 2.985975 1_655
La6 Se5 3.051518 1_555
La7 O3 2.425958 1_555
La7 O0 2.441841 1_556
La7 O0 2.441841 1_656
La7 Se0 3.160935 1_556
La7 Se6 3.285637 1_555
La7 Se6 3.285637 1_655
La7 Se7 3.286962 1_645
La7 Se7 3.286962 1_545
