# generated using pymatgen
data_Li5V3(FeO5)2
_symmetry_space_group_name_H-M   'P 1'
_cell_length_a   5.10557735
_cell_length_b   5.24227141
_cell_length_c   7.93921031
_cell_angle_alpha   108.13615644
_cell_angle_beta   102.28896777
_cell_angle_gamma   100.71424667
_symmetry_Int_Tables_number   1
_chemical_formula_structural   Li5V3(FeO5)2
_chemical_formula_sum   'Li5 V3 Fe2 O10'
_cell_volume   189.89282527
_cell_formula_units_Z   1
loop_
 _symmetry_equiv_pos_site_id
 _symmetry_equiv_pos_as_xyz
  1  'x, y, z'
loop_
 _atom_site_type_symbol
 _atom_site_label
 _atom_site_symmetry_multiplicity
 _atom_site_fract_x
 _atom_site_fract_y
 _atom_site_fract_z
 _atom_site_occupancy
  Li  Li0  1  0.20566700  0.92573100  0.41419500  1
  Li  Li1  1  0.38970200  0.28193800  0.77559000  1
  Li  Li2  1  0.50000000  0.50000000  0.50000000  1
  Li  Li3  1  0.61029800  0.71806200  0.22441000  1
  Li  Li4  1  0.79433300  0.07426900  0.58580500  1
  V  V0  1  0.69993400  0.89778800  0.89440200  1
  V  V1  1  0.30006600  0.10221200  0.10559800  1
  V  V2  1  0.00000000  0.50000000  0.00000000  1
  Fe  Fe0  1  0.09252400  0.67320400  0.67277100  1
  Fe  Fe1  1  0.90747600  0.32679600  0.32722900  1
  O  O0  1  0.05631800  0.10960500  0.86577200  1
  O  O1  1  0.34037200  0.72745300  0.95548300  1
  O  O2  1  0.14631200  0.29981000  0.54989000  1
  O  O3  1  0.23309400  0.47269000  0.22885900  1
  O  O4  1  0.46804000  0.89486600  0.67471700  1
  O  O5  1  0.53196000  0.10513400  0.32528300  1
  O  O6  1  0.76690600  0.52731000  0.77114100  1
  O  O7  1  0.85368800  0.70019000  0.45011000  1
  O  O8  1  0.65962800  0.27254700  0.04451700  1
  O  O9  1  0.94368200  0.89039500  0.13422800  1
loop_
_geom_bond_atom_site_label_1
_geom_bond_atom_site_label_2
_geom_bond_distance
_geom_bond_site_symmetry_2
Li0 O2 2.035377 1_565
Li0 O7 2.084859 1_455
Li0 O5 2.118816 1_565
Li0 O9 2.269332 1_455
Li0 O4 2.282136 1_555
Li0 O3 2.420941 1_555
Li1 O2 1.990910 1_555
Li1 O4 2.084507 1_545
Li1 O6 2.121524 1_555
Li1 O0 2.139083 1_555
Li1 O8 2.301805 1_556
Li1 O1 2.419312 1_555
Li2 O7 2.092294 1_555
Li2 O2 2.092294 1_555
Li2 O5 2.161015 1_555
Li2 O4 2.161015 1_555
Li2 O6 2.235674 1_555
Li2 O3 2.235674 1_555
Li3 O7 1.990910 1_555
Li3 O5 2.084507 1_565
Li3 O3 2.121524 1_555
Li3 O9 2.139083 1_555
Li3 O1 2.301805 1_554
Li3 O8 2.419312 1_555
Li4 O7 2.035377 1_545
Li4 O2 2.084859 1_655
Li4 O4 2.118816 1_545
Li4 O0 2.269332 1_655
Li4 O5 2.282136 1_555
Li4 O6 2.420941 1_555
Fe0 O7 1.983461 1_455
Fe0 O2 1.995942 1_555
Fe0 O4 2.043067 1_555
Fe0 O6 2.100108 1_455
Fe0 O1 2.231531 1_555
Fe0 O0 2.389823 1_565
Fe1 O2 1.983461 1_655
Fe1 O7 1.995942 1_555
Fe1 O5 2.043067 1_555
Fe1 O3 2.100108 1_655
Fe1 O8 2.231531 1_555
Fe1 O9 2.389823 1_545
O0 V0 2.043857 1_445
O0 V1 2.056879 1_556
O0 V2 2.097188 1_556
O1 V1 2.029635 1_566
O1 V2 2.078449 1_556
O1 V0 2.107509 1_555
O3 V2 2.010710 1_555
O3 V1 2.013119 1_555
O4 V0 1.881902 1_555
O5 V1 1.881902 1_555
O6 V2 2.010710 1_656
O6 V0 2.013119 1_555
O8 V0 2.029635 1_544
O8 V2 2.078449 1_655
O8 V1 2.107509 1_555
O9 V1 2.043857 1_665
O9 V0 2.056879 1_554
O9 V2 2.097188 1_655
