# generated using pymatgen
data_BeH2SeO4
_symmetry_space_group_name_H-M   'P 1'
_cell_length_a   5.71814700
_cell_length_b   7.62828000
_cell_length_c   7.95244800
_cell_angle_alpha   90.00000000
_cell_angle_beta   90.00000000
_cell_angle_gamma   90.00000000
_symmetry_Int_Tables_number   1
_chemical_formula_structural   BeH2SeO4
_chemical_formula_sum   'Be4 H8 Se4 O16'
_cell_volume   346.88281070
_cell_formula_units_Z   4
loop_
 _symmetry_equiv_pos_site_id
 _symmetry_equiv_pos_as_xyz
  1  'x, y, z'
loop_
 _atom_site_type_symbol
 _atom_site_label
 _atom_site_symmetry_multiplicity
 _atom_site_fract_x
 _atom_site_fract_y
 _atom_site_fract_z
 _atom_site_occupancy
  Be  Be0  1  0.11106200  0.26788100  0.26627000  1
  Be  Be1  1  0.38893800  0.73211900  0.76627000  1
  Be  Be2  1  0.61106200  0.23211900  0.73373000  1
  Be  Be3  1  0.88893800  0.76788100  0.23373000  1
  H  H0  1  0.14577600  0.90465000  0.94381700  1
  H  H1  1  0.21759800  0.96919400  0.31586000  1
  H  H2  1  0.28240200  0.03080600  0.81586000  1
  H  H3  1  0.35422400  0.09535000  0.44381700  1
  H  H4  1  0.64577600  0.59535000  0.05618300  1
  H  H5  1  0.71759800  0.53080600  0.68414000  1
  H  H6  1  0.78240200  0.46919400  0.18414000  1
  H  H7  1  0.85422400  0.40465000  0.55618300  1
  Se  Se0  1  0.21276600  0.41253900  0.92255200  1
  Se  Se1  1  0.28723400  0.58746100  0.42255200  1
  Se  Se2  1  0.71276600  0.08746100  0.07744800  1
  Se  Se3  1  0.78723400  0.91253900  0.57744800  1
  O  O0  1  0.08283800  0.41850200  0.41284300  1
  O  O1  1  0.15921200  0.74248900  0.29232500  1
  O  O2  1  0.21086000  0.66805600  0.61766300  1
  O  O3  1  0.22355800  0.09120400  0.35972100  1
  O  O4  1  0.27644200  0.90879600  0.85972100  1
  O  O5  1  0.28914100  0.33194400  0.11766300  1
  O  O6  1  0.34078800  0.25751100  0.79232500  1
  O  O7  1  0.41716200  0.58149800  0.91284300  1
  O  O8  1  0.58283800  0.08149800  0.58715700  1
  O  O9  1  0.65921200  0.75751100  0.70767500  1
  O  O10  1  0.71085900  0.83194400  0.38233700  1
  O  O11  1  0.72355800  0.40879600  0.64027900  1
  O  O12  1  0.77644200  0.59120400  0.14027900  1
  O  O13  1  0.78914100  0.16805600  0.88233700  1
  O  O14  1  0.84078800  0.24248900  0.20767500  1
  O  O15  1  0.91716200  0.91850200  0.08715700  1
loop_
_geom_bond_atom_site_label_1
_geom_bond_atom_site_label_2
_geom_bond_distance
_geom_bond_site_symmetry_2
Be0 O14 1.625766 1_455
Be0 O5 1.634730 1_555
Be0 O0 1.644645 1_555
Be0 O3 1.668081 1_555
Be1 O9 1.625766 1_555
Be1 O2 1.634727 1_555
Be1 O7 1.644645 1_555
Be1 O4 1.668081 1_555
Be2 O6 1.625766 1_555
Be2 O13 1.634730 1_555
Be2 O8 1.644645 1_555
Be2 O11 1.668081 1_555
Be3 O1 1.625766 1_655
Be3 O10 1.634730 1_555
Be3 O15 1.644645 1_555
Be3 O12 1.668081 1_555
H0 O4 1.003250 1_555
H0 O15 1.737655 1_456
H1 O3 0.994523 1_565
H2 O4 0.994523 1_545
H3 O3 1.003250 1_555
H3 O8 1.737655 1_555
H4 O12 1.003250 1_555
H4 O7 1.737655 1_554
H5 O11 0.994523 1_555
H6 O12 0.994523 1_555
H7 O11 1.003250 1_555
H7 O0 1.737655 1_655
O0 Se1 1.741595 1_555
O1 Se1 1.734055 1_555
O2 Se1 1.725166 1_555
O5 Se0 1.725167 1_554
O6 Se0 1.734055 1_555
O7 Se0 1.741595 1_555
O8 Se3 1.741595 1_545
O9 Se3 1.734055 1_555
O10 Se3 1.725167 1_555
O13 Se2 1.725167 1_556
O14 Se2 1.734055 1_555
O15 Se2 1.741595 1_565
