# generated using pymatgen
data_Li4Ti3Ni3(SbO8)2
_symmetry_space_group_name_H-M   'P 1'
_cell_length_a   5.98651864
_cell_length_b   5.98651864
_cell_length_c   9.70472983
_cell_angle_alpha   89.48284370
_cell_angle_beta   89.48284370
_cell_angle_gamma   59.76107250
_symmetry_Int_Tables_number   1
_chemical_formula_structural   Li4Ti3Ni3(SbO8)2
_chemical_formula_sum   'Li4 Ti3 Ni3 Sb2 O16'
_cell_volume   300.46132663
_cell_formula_units_Z   1
loop_
 _symmetry_equiv_pos_site_id
 _symmetry_equiv_pos_as_xyz
  1  'x, y, z'
loop_
 _atom_site_type_symbol
 _atom_site_label
 _atom_site_symmetry_multiplicity
 _atom_site_fract_x
 _atom_site_fract_y
 _atom_site_fract_z
 _atom_site_occupancy
  Li  Li0  1  0.66338400  0.66338400  0.10497200  1
  Li  Li1  1  0.99220500  0.99220500  0.01816300  1
  Li  Li2  1  0.99929800  0.99929800  0.50450700  1
  Li  Li3  1  0.33227300  0.33227300  0.59297700  1
  Ti  Ti0  1  0.34064400  0.83467100  0.78597100  1
  Ti  Ti1  1  0.83467100  0.34064400  0.78597100  1
  Ti  Ti2  1  0.17327600  0.17327600  0.28256400  1
  Ni  Ni0  1  0.82811000  0.82811000  0.78852500  1
  Ni  Ni1  1  0.17063300  0.65750900  0.28849800  1
  Ni  Ni2  1  0.65750900  0.17063300  0.28849800  1
  Sb  Sb0  1  0.67186000  0.67186000  0.50599100  1
  Sb  Sb1  1  0.34207100  0.34207100  0.01766100  1
  O  O0  1  0.33972300  0.83829000  0.40493100  1
  O  O1  1  0.52049300  0.52049300  0.66056700  1
  O  O2  1  0.65286000  0.65286000  0.89470900  1
  O  O3  1  0.00553600  0.00553600  0.69688800  1
  O  O4  1  0.00837500  0.00837500  0.20211600  1
  O  O5  1  0.83829000  0.33972300  0.40493100  1
  O  O6  1  0.50723200  0.95818000  0.65749500  1
  O  O7  1  0.95818000  0.50723200  0.65749500  1
  O  O8  1  0.17218300  0.17218300  0.89445000  1
  O  O9  1  0.83771600  0.83771600  0.41195000  1
  O  O10  1  0.03444200  0.47192000  0.14680000  1
  O  O11  1  0.47192000  0.03444200  0.14680000  1
  O  O12  1  0.31917100  0.31917100  0.39624600  1
  O  O13  1  0.17460500  0.66932100  0.90053300  1
  O  O14  1  0.48367100  0.48367100  0.15138800  1
  O  O15  1  0.66932100  0.17460500  0.90053300  1
loop_
_geom_bond_atom_site_label_1
_geom_bond_atom_site_label_2
_geom_bond_distance
_geom_bond_site_symmetry_2
Li0 O14 1.914721 1_555
Li0 O10 1.963755 1_655
Li0 O11 1.963755 1_565
Li0 O2 2.044604 1_554
Li1 O4 1.794828 1_665
Li1 O13 2.030578 1_654
Li1 O15 2.030578 1_564
Li1 O8 2.210375 1_664
Li2 O3 1.868802 1_665
Li2 O9 1.911032 1_555
Li2 O5 2.004729 1_565
Li2 O0 2.004729 1_655
Li3 O12 1.915472 1_555
Li3 O6 2.031858 1_545
Li3 O7 2.031858 1_455
Li3 O1 2.067612 1_555
Ni0 O3 2.037030 1_665
Ni0 O2 2.081557 1_555
Ni0 O13 2.103316 1_655
Ni0 O15 2.103316 1_565
Ni0 O6 2.105467 1_555
Ni0 O7 2.105467 1_555
Ni1 O4 1.996535 1_565
Ni1 O12 2.037429 1_555
Ni1 O14 2.093115 1_555
Ni1 O9 2.094263 1_455
Ni1 O0 2.149155 1_555
Ni1 O10 2.179524 1_555
Ni2 O4 1.996535 1_655
Ni2 O12 2.037429 1_555
Ni2 O14 2.093115 1_555
Ni2 O9 2.094263 1_545
Ni2 O5 2.149155 1_555
Ni2 O11 2.179524 1_555
O0 Sb0 1.982499 1_555
O0 Ti2 2.095343 1_565
O1 Ti1 2.038600 1_555
O1 Ti0 2.038600 1_555
O1 Sb0 2.161154 1_555
O2 Ti1 1.938450 1_555
O2 Ti0 1.938450 1_555
O3 Ti0 1.940814 1_545
O3 Ti1 1.940814 1_455
O4 Ti2 1.888910 1_555
O5 Sb0 1.982499 1_555
O5 Ti2 2.095343 1_655
O6 Ti0 1.949218 1_555
O6 Sb0 2.094986 1_555
O7 Ti1 1.949218 1_555
O7 Sb0 2.094986 1_555
O8 Ti0 2.043213 1_545
O8 Ti1 2.043213 1_455
O8 Sb1 2.141082 1_556
O9 Sb0 1.940326 1_555
O10 Sb1 2.024976 1_555
O10 Ti2 2.025756 1_555
O11 Sb1 2.024976 1_555
O11 Ti2 2.025756 1_555
O12 Ti2 1.883072 1_555
O13 Sb1 2.034042 1_556
O13 Ti0 2.038422 1_555
O14 Sb1 1.971012 1_555
O15 Sb1 2.034042 1_556
O15 Ti1 2.038422 1_555
