# generated using pymatgen
data_Li3Mn4(BO3)4
_symmetry_space_group_name_H-M   'P 1'
_cell_length_a   7.88181000
_cell_length_b   7.93364474
_cell_length_c   8.27488431
_cell_angle_alpha   81.54997914
_cell_angle_beta   80.58360096
_cell_angle_gamma   83.63712592
_symmetry_Int_Tables_number   1
_chemical_formula_structural   Li3Mn4(BO3)4
_chemical_formula_sum   'Li6 Mn8 B8 O24'
_cell_volume   502.92625013
_cell_formula_units_Z   2
loop_
 _symmetry_equiv_pos_site_id
 _symmetry_equiv_pos_as_xyz
  1  'x, y, z'
loop_
 _atom_site_type_symbol
 _atom_site_label
 _atom_site_symmetry_multiplicity
 _atom_site_fract_x
 _atom_site_fract_y
 _atom_site_fract_z
 _atom_site_occupancy
  Li  Li0  1  0.31187000  0.15016600  0.22023800  1
  Li  Li1  1  0.70508700  0.36589200  0.27130300  1
  Li  Li2  1  0.18695600  0.84438300  0.27415700  1
  Li  Li3  1  0.81304400  0.15561700  0.72584300  1
  Li  Li4  1  0.29491300  0.63410800  0.72869700  1
  Li  Li5  1  0.68813000  0.84983400  0.77976200  1
  Mn  Mn0  1  0.18074900  0.99657800  0.57619900  1
  Mn  Mn1  1  0.67706000  0.98771300  0.08462200  1
  Mn  Mn2  1  0.17444300  0.49356300  0.07916500  1
  Mn  Mn3  1  0.32078000  0.49078500  0.42751500  1
  Mn  Mn4  1  0.67922000  0.50921500  0.57248500  1
  Mn  Mn5  1  0.82555700  0.50643700  0.92083500  1
  Mn  Mn6  1  0.32294000  0.01228700  0.91537800  1
  Mn  Mn7  1  0.81925100  0.00342200  0.42380100  1
  B  B0  1  0.00425700  0.32614100  0.40557000  1
  B  B1  1  0.50144600  0.16757000  0.58904400  1
  B  B2  1  0.51087800  0.33734600  0.91220600  1
  B  B3  1  0.00355900  0.82843900  0.89385000  1
  B  B4  1  0.99644100  0.17156100  0.10615000  1
  B  B5  1  0.48912200  0.66265400  0.08779400  1
  B  B6  1  0.49855400  0.83243000  0.41095600  1
  B  B7  1  0.99574300  0.67385900  0.59443000  1
  O  O0  1  0.13139200  0.04774000  0.12112300  1
  O  O1  1  0.17029800  0.34167400  0.31335000  1
  O  O2  1  0.48174400  0.18281600  0.01360100  1
  O  O3  1  0.01788400  0.33080900  0.01266800  1
  O  O4  1  0.33649500  0.13581700  0.66880700  1
  O  O5  1  0.63833300  0.05006200  0.62559600  1
  O  O6  1  0.12566700  0.55068100  0.61342500  1
  O  O7  1  0.53058800  0.31644400  0.48082000  1
  O  O8  1  0.02282800  0.82973900  0.49049200  1
  O  O9  1  0.83098900  0.14698500  0.19182200  1
  O  O10  1  0.32172200  0.64393800  0.18152400  1
  O  O11  1  0.38155000  0.46484600  0.89248700  1
  O  O12  1  0.61845000  0.53515400  0.10751300  1
  O  O13  1  0.67827800  0.35606200  0.81847600  1
  O  O14  1  0.16901100  0.85301500  0.80817800  1
  O  O15  1  0.97717200  0.17026100  0.50950800  1
  O  O16  1  0.46941200  0.68355600  0.51918000  1
  O  O17  1  0.87433300  0.44931900  0.38657500  1
  O  O18  1  0.36166700  0.94993800  0.37440400  1
  O  O19  1  0.66350500  0.86418300  0.33119300  1
  O  O20  1  0.98211600  0.66919100  0.98733200  1
  O  O21  1  0.51825600  0.81718400  0.98639900  1
  O  O22  1  0.82970200  0.65832600  0.68665000  1
  O  O23  1  0.86860800  0.95226000  0.87887700  1
loop_
_geom_bond_atom_site_label_1
_geom_bond_atom_site_label_2
_geom_bond_distance
_geom_bond_site_symmetry_2
Li0 O18 1.932613 1_545
Li0 O1 1.958099 1_555
Li0 O2 1.995272 1_555
Li0 O0 2.047032 1_555
Li1 O12 1.916044 1_555
Li1 O17 1.981163 1_555
Li1 O9 2.042956 1_555
Li1 O7 2.047145 1_555
Li2 O0 1.955189 1_565
Li2 O10 1.990523 1_555
Li2 O8 2.026331 1_555
Li2 O18 2.029582 1_555
Li3 O23 1.955189 1_545
Li3 O13 1.990523 1_555
Li3 O15 2.026331 1_555
Li3 O5 2.029582 1_555
Li4 O11 1.916044 1_555
Li4 O6 1.981163 1_555
Li4 O14 2.042956 1_555
Li4 O16 2.047145 1_555
Li5 O5 1.932613 1_565
Li5 O22 1.958099 1_555
Li5 O21 1.995272 1_555
Li5 O23 2.047032 1_555
Mn0 O4 2.042456 1_565
Mn0 O18 2.060125 1_555
Mn0 O14 2.076866 1_555
Mn0 O15 2.086639 1_465
Mn0 O8 2.175827 1_555
Mn1 O23 2.112475 1_554
Mn1 O19 2.121112 1_555
Mn1 O2 2.147492 1_565
Mn1 O9 2.208377 1_565
Mn1 O21 2.255895 1_554
Mn2 O3 2.068066 1_555
Mn2 O11 2.073324 1_554
Mn2 O10 2.100930 1_555
Mn2 O20 2.101054 1_454
Mn2 O1 2.123715 1_555
Mn3 O6 2.058188 1_555
Mn3 O7 2.096355 1_555
Mn3 O1 2.169053 1_555
Mn3 O10 2.211345 1_555
Mn3 O16 2.305546 1_555
Mn4 O17 2.058188 1_555
Mn4 O16 2.096355 1_555
Mn4 O22 2.169053 1_555
Mn4 O13 2.211345 1_555
Mn4 O7 2.305546 1_555
Mn5 O20 2.068066 1_555
Mn5 O12 2.073324 1_556
Mn5 O13 2.100930 1_555
Mn5 O3 2.101054 1_656
Mn5 O22 2.123715 1_555
Mn6 O0 2.112475 1_556
Mn6 O4 2.121112 1_555
Mn6 O21 2.147492 1_545
Mn6 O14 2.208377 1_545
Mn6 O2 2.255895 1_556
Mn7 O19 2.042456 1_545
Mn7 O5 2.060125 1_555
Mn7 O9 2.076866 1_555
Mn7 O8 2.086639 1_645
Mn7 O15 2.175827 1_555
B0 O17 1.346880 1_455
B0 O1 1.411223 1_555
B0 O15 1.414411 1_455
B1 O5 1.387672 1_555
B1 O7 1.389872 1_555
B1 O4 1.390084 1_555
B2 O11 1.366112 1_555
B2 O2 1.398853 1_556
B2 O13 1.428002 1_555
B3 O23 1.373859 1_455
B3 O20 1.393016 1_455
B3 O14 1.397997 1_555
B4 O0 1.373859 1_655
B4 O3 1.393016 1_655
B4 O9 1.397997 1_555
B5 O12 1.366112 1_555
B5 O21 1.398853 1_554
B5 O10 1.428002 1_555
B6 O18 1.387672 1_555
B6 O16 1.389872 1_555
B6 O19 1.390084 1_555
B7 O6 1.346880 1_655
B7 O22 1.411223 1_555
B7 O8 1.414411 1_655
