# generated using pymatgen
data_Li4Mn3V2Co3O16
_symmetry_space_group_name_H-M   'P 1'
_cell_length_a   5.85558205
_cell_length_b   5.85558205
_cell_length_c   9.49559132
_cell_angle_alpha   89.36721512
_cell_angle_beta   89.36721512
_cell_angle_gamma   59.89470245
_symmetry_Int_Tables_number   1
_chemical_formula_structural   Li4Mn3V2Co3O16
_chemical_formula_sum   'Li4 Mn3 V2 Co3 O16'
_cell_volume   281.64090005
_cell_formula_units_Z   1
loop_
 _symmetry_equiv_pos_site_id
 _symmetry_equiv_pos_as_xyz
  1  'x, y, z'
loop_
 _atom_site_type_symbol
 _atom_site_label
 _atom_site_symmetry_multiplicity
 _atom_site_fract_x
 _atom_site_fract_y
 _atom_site_fract_z
 _atom_site_occupancy
  Li  Li0  1  0.66899800  0.66899800  0.89732100  1
  Li  Li1  1  0.99693600  0.99693600  0.99916300  1
  Li  Li2  1  0.00250700  0.00250700  0.48837900  1
  Li  Li3  1  0.33478900  0.33478900  0.40083700  1
  Mn  Mn0  1  0.82381200  0.82381200  0.21777200  1
  Mn  Mn1  1  0.66258200  0.16993400  0.71583100  1
  Mn  Mn2  1  0.16993400  0.66258200  0.71583100  1
  V  V0  1  0.65965000  0.65965000  0.48313500  1
  V  V1  1  0.32739100  0.32739100  0.99676900  1
  Co  Co0  1  0.82544200  0.34098600  0.21293300  1
  Co  Co1  1  0.34098600  0.82544200  0.21293300  1
  Co  Co2  1  0.16975100  0.16975100  0.71067100  1
  O  O0  1  0.83301500  0.33062500  0.59984300  1
  O  O1  1  0.52259000  0.52259000  0.36358000  1
  O  O2  1  0.67051000  0.67051000  0.10633400  1
  O  O3  1  0.99294500  0.99294500  0.29896100  1
  O  O4  1  0.00238500  0.00238500  0.80832100  1
  O  O5  1  0.33062500  0.83301500  0.59984300  1
  O  O6  1  0.96519600  0.53515600  0.34712100  1
  O  O7  1  0.53515600  0.96519600  0.34712100  1
  O  O8  1  0.17144000  0.17144000  0.07956100  1
  O  O9  1  0.83934900  0.83934900  0.60399800  1
  O  O10  1  0.48820900  0.04228200  0.84002700  1
  O  O11  1  0.04228200  0.48820900  0.84002700  1
  O  O12  1  0.33526300  0.33526300  0.61189000  1
  O  O13  1  0.64681200  0.16008600  0.08683400  1
  O  O14  1  0.48086600  0.48086600  0.83563400  1
  O  O15  1  0.16008600  0.64681200  0.08683400  1
loop_
_geom_bond_atom_site_label_1
_geom_bond_atom_site_label_2
_geom_bond_distance
_geom_bond_site_symmetry_2
Li0 O11 1.964567 1_655
Li0 O10 1.964567 1_565
Li0 O2 1.984957 1_556
Li0 O14 2.004044 1_555
Li1 O4 1.812296 1_665
Li1 O8 1.937257 1_666
Li1 O13 1.955496 1_566
Li1 O15 1.955496 1_656
Li2 O3 1.802486 1_445
Li2 O9 1.974885 1_445
Li2 O0 1.976237 1_455
Li2 O5 1.976237 1_545
Li3 O1 1.933839 1_555
Li3 O6 1.945335 1_455
Li3 O7 1.945335 1_545
Li3 O12 2.004140 1_555
Mn0 O3 1.890425 1_555
Mn0 O2 1.892537 1_555
Mn0 O6 1.903613 1_555
Mn0 O7 1.903613 1_555
Mn0 O15 2.103431 1_655
Mn0 O13 2.103431 1_565
Mn1 O10 1.926560 1_555
Mn1 O12 1.934979 1_555
Mn1 O4 1.937570 1_655
Mn1 O14 1.953660 1_555
Mn1 O9 1.989306 1_545
Mn1 O0 1.997305 1_555
Mn2 O11 1.926560 1_555
Mn2 O12 1.934979 1_555
Mn2 O4 1.937570 1_565
Mn2 O14 1.953660 1_555
Mn2 O9 1.989306 1_455
Mn2 O5 1.997305 1_555
Co0 O3 1.938648 1_545
Co0 O2 1.947271 1_555
Co0 O1 2.099456 1_555
Co0 O6 2.138785 1_555
Co0 O8 2.155820 1_655
Co0 O13 2.194780 1_555
Co1 O3 1.938648 1_455
Co1 O2 1.947271 1_555
Co1 O1 2.099456 1_555
Co1 O7 2.138785 1_555
Co1 O8 2.155820 1_565
Co1 O15 2.194780 1_555
Co2 O12 1.913246 1_555
Co2 O4 1.924589 1_555
Co2 O5 2.010822 1_545
Co2 O0 2.010822 1_455
Co2 O11 2.043829 1_555
Co2 O10 2.043829 1_555
O0 V0 1.996552 1_555
O1 V0 1.806493 1_555
O5 V0 1.996552 1_555
O6 V0 2.015410 1_555
O7 V0 2.015410 1_555
O8 V1 1.758038 1_554
O9 V0 2.166944 1_555
O10 V1 2.082292 1_555
O11 V1 2.082292 1_555
O13 V1 1.835255 1_554
O14 V1 2.169298 1_555
O15 V1 1.835255 1_554
