# generated using pymatgen
data_BiSbO3
_symmetry_space_group_name_H-M   'P 1'
_cell_length_a   5.97899072
_cell_length_b   5.97899072
_cell_length_c   5.97899023
_cell_angle_alpha   64.72337449
_cell_angle_beta   64.72337449
_cell_angle_gamma   64.72337334
_symmetry_Int_Tables_number   1
_chemical_formula_structural   BiSbO3
_chemical_formula_sum   'Bi2 Sb2 O6'
_cell_volume   166.76267335
_cell_formula_units_Z   2
loop_
 _symmetry_equiv_pos_site_id
 _symmetry_equiv_pos_as_xyz
  1  'x, y, z'
loop_
 _atom_site_type_symbol
 _atom_site_label
 _atom_site_symmetry_multiplicity
 _atom_site_fract_x
 _atom_site_fract_y
 _atom_site_fract_z
 _atom_site_occupancy
  Bi  Bi0  1  0.86683300  0.86683300  0.86683300  1
  Bi  Bi1  1  0.13316700  0.13316700  0.13316700  1
  Sb  Sb0  1  0.64774600  0.64774600  0.64774600  1
  Sb  Sb1  1  0.35225400  0.35225400  0.35225400  1
  O  O0  1  0.23112800  0.51037800  0.02278300  1
  O  O1  1  0.02278300  0.23112800  0.51037800  1
  O  O2  1  0.51037800  0.02278400  0.23112800  1
  O  O3  1  0.48962200  0.97721700  0.76887200  1
  O  O4  1  0.97721700  0.76887200  0.48962200  1
  O  O5  1  0.76887200  0.48962200  0.97721700  1
loop_
_geom_bond_atom_site_label_1
_geom_bond_atom_site_label_2
_geom_bond_distance
_geom_bond_site_symmetry_2
Bi0 O4 2.322074 1_555
Bi0 O3 2.322074 1_555
Bi0 O5 2.322074 1_555
Bi0 O0 2.495771 1_656
Bi0 O1 2.495771 1_665
Bi0 O2 2.495774 1_566
Bi1 O1 2.322074 1_555
Bi1 O0 2.322074 1_555
Bi1 O2 2.322075 1_555
Bi1 O3 2.495771 1_544
Bi1 O5 2.495771 1_454
Bi1 O4 2.495771 1_445
O0 Sb1 2.083744 1_555
O0 Sb0 2.704061 1_554
O1 Sb1 2.083744 1_555
O1 Sb0 2.704061 1_455
O2 Sb1 2.083738 1_555
O2 Sb0 2.704062 1_545
O3 Sb0 2.083744 1_555
O3 Sb1 2.704061 1_565
O4 Sb0 2.083744 1_555
O4 Sb1 2.704061 1_655
O5 Sb0 2.083744 1_555
O5 Sb1 2.704061 1_556
