# generated using pymatgen
data_Li8Fe3Co7O20
_symmetry_space_group_name_H-M   'P 1'
_cell_length_a   20.50750105
_cell_length_b   2.87642100
_cell_length_c   5.92033179
_cell_angle_alpha   90.00000000
_cell_angle_beta   83.14895588
_cell_angle_gamma   90.00000000
_symmetry_Int_Tables_number   1
_chemical_formula_structural   Li8Fe3Co7O20
_chemical_formula_sum   'Li8 Fe3 Co7 O20'
_cell_volume   346.73612521
_cell_formula_units_Z   1
loop_
 _symmetry_equiv_pos_site_id
 _symmetry_equiv_pos_as_xyz
  1  'x, y, z'
loop_
 _atom_site_type_symbol
 _atom_site_label
 _atom_site_symmetry_multiplicity
 _atom_site_fract_x
 _atom_site_fract_y
 _atom_site_fract_z
 _atom_site_occupancy
  Li  Li0  1  0.10696300  0.50000000  0.24001600  1
  Li  Li1  1  0.28908400  0.50000000  0.56308900  1
  Li  Li2  1  0.39847200  0.00000000  0.79517900  1
  Li  Li3  1  0.49973200  0.50000000  0.99949800  1
  Li  Li4  1  0.60342800  0.00000000  0.21050800  1
  Li  Li5  1  0.79718800  0.00000000  0.58890900  1
  Li  Li6  1  0.90287100  0.50000000  0.79455900  1
  Li  Li7  1  0.00171600  0.00000000  0.00598900  1
  Fe  Fe0  1  0.39840800  0.00000000  0.29816300  1
  Fe  Fe1  1  0.60158500  0.00000000  0.68121700  1
  Fe  Fe2  1  0.80031600  0.00000000  0.11794500  1
  Co  Co0  1  0.00155600  0.00000000  0.50355500  1
  Co  Co1  1  0.10057600  0.50000000  0.70144700  1
  Co  Co2  1  0.19847700  0.00000000  0.90168200  1
  Co  Co3  1  0.29674900  0.50000000  0.09712400  1
  Co  Co4  1  0.49843800  0.50000000  0.49916600  1
  Co  Co5  1  0.70065700  0.50000000  0.89986100  1
  Co  Co6  1  0.90373100  0.50000000  0.30176800  1
  O  O0  1  0.00539600  0.50000000  0.72517100  1
  O  O1  1  0.09512900  0.00000000  0.48623800  1
  O  O2  1  0.10527700  0.00000000  0.92289300  1
  O  O3  1  0.20272800  0.50000000  0.10885600  1
  O  O4  1  0.19455500  0.50000000  0.69395100  1
  O  O5  1  0.29984400  0.00000000  0.31586300  1
  O  O6  1  0.29143100  0.00000000  0.87825800  1
  O  O7  1  0.39387900  0.50000000  0.05850300  1
  O  O8  1  0.40134400  0.50000000  0.53656800  1
  O  O9  1  0.49814100  0.00000000  0.27430500  1
  O  O10  1  0.50109400  0.00000000  0.72441000  1
  O  O11  1  0.59347000  0.50000000  0.45626300  1
  O  O12  1  0.60678400  0.50000000  0.92759100  1
  O  O13  1  0.70122100  0.00000000  0.10924100  1
  O  O14  1  0.70014500  0.00000000  0.68981700  1
  O  O15  1  0.80831600  0.50000000  0.34311200  1
  O  O16  1  0.79455100  0.50000000  0.87161600  1
  O  O17  1  0.90115800  0.00000000  0.07442300  1
  O  O18  1  0.90646300  0.00000000  0.52193000  1
  O  O19  1  0.99885000  0.50000000  0.28134200  1
loop_
_geom_bond_atom_site_label_1
_geom_bond_atom_site_label_2
_geom_bond_distance
_geom_bond_site_symmetry_2
Li0 O3 2.023869 1_555
Li0 O1 2.041539 1_555
Li0 O1 2.041539 1_565
Li0 O19 2.201386 1_455
Li0 O2 2.368552 1_564
Li0 O2 2.368552 1_554
Li1 O4 1.999977 1_555
Li1 O5 2.045089 1_565
Li1 O5 2.045089 1_555
Li1 O8 2.288757 1_555
Li1 O6 2.360888 1_555
Li1 O6 2.360888 1_565
Li2 O10 2.096231 1_555
Li2 O8 2.096320 1_545
Li2 O8 2.096320 1_555
Li2 O7 2.114867 1_556
Li2 O7 2.114867 1_546
Li2 O6 2.191572 1_555
Li3 O7 2.157175 1_556
Li3 O9 2.168827 1_566
Li3 O9 2.168827 1_556
Li3 O10 2.170427 1_555
Li3 O10 2.170427 1_565
Li3 O12 2.185842 1_555
Li4 O13 2.023506 1_555
Li4 O11 2.038664 1_545
Li4 O11 2.038664 1_555
Li4 O9 2.147119 1_555
Li4 O12 2.202540 1_554
Li4 O12 2.202540 1_544
Li5 O14 2.008429 1_555
Li5 O15 2.039340 1_555
Li5 O15 2.039340 1_545
Li5 O16 2.202525 1_555
Li5 O16 2.202525 1_545
Li5 O18 2.228705 1_555
Li6 O0 2.093641 1_655
Li6 O18 2.156544 1_555
Li6 O18 2.156544 1_565
Li6 O17 2.191135 1_556
Li6 O17 2.191135 1_566
Li6 O16 2.213785 1_555
Li7 O17 2.053645 1_455
Li7 O2 2.122071 1_554
Li7 O19 2.169455 1_455
Li7 O19 2.169455 1_445
Li7 O0 2.192769 1_554
Li7 O0 2.192769 1_544
Fe0 O5 2.011494 1_555
Fe0 O8 2.021015 1_545
Fe0 O8 2.021015 1_555
Fe0 O7 2.030197 1_545
Fe0 O7 2.030197 1_555
Fe0 O9 2.033267 1_555
Fe1 O11 1.980586 1_545
Fe1 O11 1.980586 1_555
Fe1 O14 2.027923 1_555
Fe1 O10 2.046128 1_555
Fe1 O12 2.060213 1_545
Fe1 O12 2.060213 1_555
Fe2 O15 1.981060 1_545
Fe2 O15 1.981060 1_555
Fe2 O13 2.038980 1_555
Fe2 O17 2.053280 1_555
Fe2 O16 2.061636 1_544
Fe2 O16 2.061636 1_554
Co0 O1 1.909434 1_555
Co0 O18 1.940152 1_455
Co0 O19 1.954401 1_455
Co0 O19 1.954401 1_445
Co0 O0 1.954674 1_545
Co0 O0 1.954674 1_555
Co1 O4 1.922486 1_555
Co1 O1 1.933452 1_555
Co1 O1 1.933452 1_565
Co1 O0 1.940167 1_555
Co1 O2 1.956197 1_555
Co1 O2 1.956197 1_565
Co2 O6 1.894721 1_555
Co2 O3 1.898936 1_546
Co2 O3 1.898936 1_556
Co2 O4 1.900267 1_545
Co2 O4 1.900267 1_555
Co2 O2 1.900414 1_555
Co3 O3 1.921088 1_555
Co3 O5 1.941425 1_565
Co3 O5 1.941425 1_555
Co3 O6 1.947575 1_564
Co3 O6 1.947575 1_554
Co3 O7 1.977691 1_555
Co4 O11 1.935073 1_555
Co4 O9 1.960268 1_555
Co4 O9 1.960268 1_565
Co4 O10 1.966474 1_555
Co4 O10 1.966474 1_565
Co4 O8 1.977003 1_555
Co5 O13 1.899634 1_556
Co5 O13 1.899634 1_566
Co5 O14 1.902115 1_565
Co5 O14 1.902115 1_555
Co5 O12 1.912476 1_555
Co5 O16 1.912803 1_555
Co6 O19 1.939947 1_555
Co6 O15 1.942785 1_555
Co6 O18 1.946265 1_565
Co6 O18 1.946265 1_555
Co6 O17 1.974786 1_565
Co6 O17 1.974786 1_555
