# generated using pymatgen
data_VOF3
_symmetry_space_group_name_H-M   'P 1'
_cell_length_a   5.34303500
_cell_length_b   5.56106608
_cell_length_c   9.63472490
_cell_angle_alpha   88.77500877
_cell_angle_beta   87.73720758
_cell_angle_gamma   88.66473128
_symmetry_Int_Tables_number   1
_chemical_formula_structural   VOF3
_chemical_formula_sum   'V4 O4 F12'
_cell_volume   285.91541761
_cell_formula_units_Z   4
loop_
 _symmetry_equiv_pos_site_id
 _symmetry_equiv_pos_as_xyz
  1  'x, y, z'
loop_
 _atom_site_type_symbol
 _atom_site_label
 _atom_site_symmetry_multiplicity
 _atom_site_fract_x
 _atom_site_fract_y
 _atom_site_fract_z
 _atom_site_occupancy
  V  V0  1  0.47894400  0.78131800  0.77340000  1
  V  V1  1  0.03570200  0.53397100  0.52721800  1
  V  V2  1  0.54308600  0.26309000  0.27646000  1
  V  V3  1  0.02105500  0.03558400  0.02032700  1
  O  O0  1  0.28400700  0.94904100  0.87153100  1
  O  O1  1  0.21136400  0.69507100  0.62535300  1
  O  O2  1  0.78106100  0.29353100  0.37119200  1
  O  O3  1  0.19647700  0.19278600  0.11301200  1
  F  F0  1  0.40144300  0.99433300  0.33910900  1
  F  F1  1  0.76391500  0.78996400  0.86552000  1
  F  F2  1  0.93056000  0.74225200  0.39932000  1
  F  F3  1  0.05613800  0.73545900  0.08287900  1
  F  F4  1  0.73452000  0.53881000  0.62057500  1
  F  F5  1  0.56396900  0.50232800  0.15195900  1
  F  F6  1  0.41459500  0.48463200  0.83069800  1
  F  F7  1  0.29730800  0.45042200  0.37728600  1
  F  F8  1  0.88947200  0.24128900  0.89852700  1
  F  F9  1  0.09939100  0.23437800  0.58358100  1
  F  F10  1  0.71134300  0.05871400  0.13102100  1
  F  F11  1  0.58564700  0.98302900  0.64103400  1
loop_
_geom_bond_atom_site_label_1
_geom_bond_atom_site_label_2
_geom_bond_distance
_geom_bond_site_symmetry_2
O0 V0 1.662340 1_555
O0 V3 2.024774 1_566
O1 V1 1.650147 1_555
O1 V0 2.128589 1_555
O2 V2 1.608329 1_555
O3 V3 1.605568 1_555
F0 V2 1.774519 1_565
F1 V0 1.794533 1_555
F1 V3 2.512839 1_666
F2 V1 1.771709 1_655
F3 V3 1.770676 1_565
F4 V1 1.812207 1_655
F4 V0 2.385750 1_555
F5 V2 1.774671 1_555
F6 V0 1.765677 1_555
F7 V2 1.905840 1_555
F7 V1 2.023698 1_555
F8 V3 1.774901 1_656
F9 V1 1.770854 1_555
F10 V3 1.936216 1_655
F10 V2 1.996119 1_555
F11 V0 1.766621 1_555
