# generated using pymatgen
data_Li4Ti3Cr5O16
_symmetry_space_group_name_H-M   'P 1'
_cell_length_a   5.89458181
_cell_length_b   5.89458181
_cell_length_c   9.54893015
_cell_angle_alpha   89.79323734
_cell_angle_beta   89.79323734
_cell_angle_gamma   60.29381146
_symmetry_Int_Tables_number   1
_chemical_formula_structural   Li4Ti3Cr5O16
_chemical_formula_sum   'Li4 Ti3 Cr5 O16'
_cell_volume   288.18127354
_cell_formula_units_Z   1
loop_
 _symmetry_equiv_pos_site_id
 _symmetry_equiv_pos_as_xyz
  1  'x, y, z'
loop_
 _atom_site_type_symbol
 _atom_site_label
 _atom_site_symmetry_multiplicity
 _atom_site_fract_x
 _atom_site_fract_y
 _atom_site_fract_z
 _atom_site_occupancy
  Li  Li0  1  0.66676000  0.66676000  0.10966900  1
  Li  Li1  1  0.99617200  0.99617200  0.00525500  1
  Li  Li2  1  0.00042200  0.00042200  0.50157000  1
  Li  Li3  1  0.33314000  0.33314000  0.60657600  1
  Ti  Ti0  1  0.33737800  0.83173600  0.78637700  1
  Ti  Ti1  1  0.83173600  0.33737800  0.78637700  1
  Ti  Ti2  1  0.17055900  0.17055900  0.28312900  1
  Cr  Cr0  1  0.66736000  0.66736000  0.51404900  1
  Cr  Cr1  1  0.82950400  0.82950400  0.78631900  1
  Cr  Cr2  1  0.33617700  0.33617700  0.01626200  1
  Cr  Cr3  1  0.16969900  0.66133700  0.28974700  1
  Cr  Cr4  1  0.66133700  0.16969900  0.28974700  1
  O  O0  1  0.33000300  0.83749000  0.39734300  1
  O  O1  1  0.52080800  0.52080800  0.66113800  1
  O  O2  1  0.66155300  0.66155300  0.89689800  1
  O  O3  1  0.00173900  0.00173900  0.68808700  1
  O  O4  1  0.00111400  0.00111400  0.19105300  1
  O  O5  1  0.83749000  0.33000300  0.39734300  1
  O  O6  1  0.51663900  0.95920500  0.65932800  1
  O  O7  1  0.95920500  0.51663900  0.65932800  1
  O  O8  1  0.16509400  0.16509400  0.89527300  1
  O  O9  1  0.83466300  0.83466300  0.39501700  1
  O  O10  1  0.04081000  0.47808200  0.15999000  1
  O  O11  1  0.47808200  0.04081000  0.15999000  1
  O  O12  1  0.32917200  0.32917200  0.39795900  1
  O  O13  1  0.17132800  0.67319200  0.89708900  1
  O  O14  1  0.47873400  0.47873400  0.16420800  1
  O  O15  1  0.67319200  0.17132800  0.89708900  1
loop_
_geom_bond_atom_site_label_1
_geom_bond_atom_site_label_2
_geom_bond_distance
_geom_bond_site_symmetry_2
Li0 O11 1.975518 1_565
Li0 O10 1.975518 1_655
Li0 O14 1.984233 1_555
Li0 O2 2.032650 1_554
Li1 O4 1.775097 1_665
Li1 O13 1.953387 1_654
Li1 O15 1.953387 1_564
Li1 O8 2.013313 1_664
Li2 O3 1.781144 1_555
Li2 O0 1.957264 1_545
Li2 O5 1.957264 1_455
Li2 O9 1.976146 1_445
Li3 O6 1.978667 1_545
Li3 O7 1.978667 1_455
Li3 O1 1.984964 1_555
Li3 O12 1.992649 1_555
Cr0 O6 2.041273 1_555
Cr0 O7 2.041273 1_555
Cr0 O9 2.045667 1_555
Cr0 O1 2.046305 1_555
Cr0 O5 2.057547 1_555
Cr0 O0 2.057547 1_555
Cr1 O3 1.987251 1_665
Cr1 O2 2.007846 1_555
Cr1 O7 2.016957 1_555
Cr1 O6 2.016957 1_555
Cr1 O15 2.048406 1_565
Cr1 O13 2.048406 1_655
Cr2 O14 2.031017 1_555
Cr2 O10 2.040159 1_555
Cr2 O11 2.040159 1_555
Cr2 O15 2.064972 1_554
Cr2 O13 2.064972 1_554
Cr2 O8 2.096072 1_554
Cr3 O4 1.976764 1_565
Cr3 O9 1.986914 1_455
Cr3 O12 1.988283 1_555
Cr3 O14 1.991028 1_555
Cr3 O0 2.003446 1_555
Cr3 O10 2.027100 1_555
Cr4 O4 1.976764 1_655
Cr4 O9 1.986914 1_545
Cr4 O12 1.988283 1_555
Cr4 O14 1.991028 1_555
Cr4 O5 2.003446 1_555
Cr4 O11 2.027100 1_555
O0 Ti2 2.022493 1_565
O1 Ti0 2.000201 1_555
O1 Ti1 2.000201 1_555
O2 Ti1 1.969418 1_555
O2 Ti0 1.969418 1_555
O3 Ti0 1.959852 1_545
O3 Ti1 1.959852 1_455
O4 Ti2 1.941569 1_555
O5 Ti2 2.022493 1_655
O6 Ti0 1.980906 1_555
O7 Ti1 1.980906 1_555
O8 Ti1 2.000793 1_455
O8 Ti0 2.000793 1_545
O10 Ti2 1.967372 1_555
O11 Ti2 1.967372 1_555
O12 Ti2 1.957493 1_555
O13 Ti0 1.959861 1_555
O15 Ti1 1.959861 1_555
