# generated using pymatgen
data_ZnAu2(Cl4O)2
_symmetry_space_group_name_H-M   'P 1'
_cell_length_a   12.56097700
_cell_length_b   7.77714700
_cell_length_c   15.56082105
_cell_angle_alpha   75.64054611
_cell_angle_beta   90.00000000
_cell_angle_gamma   90.00000000
_symmetry_Int_Tables_number   1
_chemical_formula_structural   ZnAu2(Cl4O)2
_chemical_formula_sum   'Zn4 Au8 Cl32 O8'
_cell_volume   1472.62424165
_cell_formula_units_Z   4
loop_
 _symmetry_equiv_pos_site_id
 _symmetry_equiv_pos_as_xyz
  1  'x, y, z'
loop_
 _atom_site_type_symbol
 _atom_site_label
 _atom_site_symmetry_multiplicity
 _atom_site_fract_x
 _atom_site_fract_y
 _atom_site_fract_z
 _atom_site_occupancy
  Zn  Zn0  1  0.75939000  0.80401100  0.29700500  1
  Zn  Zn1  1  0.74061000  0.80401100  0.79700500  1
  Zn  Zn2  1  0.24061000  0.19598900  0.70299500  1
  Zn  Zn3  1  0.25939000  0.19598900  0.20299500  1
  Au  Au0  1  0.55952400  0.49283100  0.36476000  1
  Au  Au1  1  0.94047600  0.49283100  0.86476000  1
  Au  Au2  1  0.44047600  0.50716900  0.63524000  1
  Au  Au3  1  0.05952400  0.50716900  0.13524000  1
  Au  Au4  1  0.97529100  0.77694800  0.44737500  1
  Au  Au5  1  0.52470900  0.77694800  0.94737500  1
  Au  Au6  1  0.02470900  0.22305200  0.55262500  1
  Au  Au7  1  0.47529100  0.22305200  0.05262500  1
  Cl  Cl0  1  0.56295600  0.80251200  0.31597800  1
  Cl  Cl1  1  0.93704400  0.80251200  0.81597800  1
  Cl  Cl2  1  0.43704400  0.19748800  0.68402200  1
  Cl  Cl3  1  0.06295600  0.19748800  0.18402200  1
  Cl  Cl4  1  0.73901400  0.49110100  0.32120200  1
  Cl  Cl5  1  0.76098600  0.49110100  0.82120200  1
  Cl  Cl6  1  0.26098600  0.50889900  0.67879800  1
  Cl  Cl7  1  0.23901400  0.50889900  0.17879800  1
  Cl  Cl8  1  0.55836700  0.18907200  0.41575000  1
  Cl  Cl9  1  0.94163300  0.18907200  0.91575000  1
  Cl  Cl10  1  0.44163300  0.81092800  0.58425000  1
  Cl  Cl11  1  0.05836700  0.81092800  0.08425000  1
  Cl  Cl12  1  0.38263200  0.50193100  0.39997300  1
  Cl  Cl13  1  0.11736800  0.50193100  0.89997300  1
  Cl  Cl14  1  0.61736800  0.49806900  0.60002700  1
  Cl  Cl15  1  0.88263200  0.49806900  0.10002700  1
  Cl  Cl16  1  0.96686600  0.77850900  0.29744300  1
  Cl  Cl17  1  0.53313400  0.77850900  0.79744300  1
  Cl  Cl18  1  0.03313400  0.22149100  0.70255700  1
  Cl  Cl19  1  0.46686600  0.22149100  0.20255700  1
  Cl  Cl20  1  0.79155300  0.83377700  0.44360100  1
  Cl  Cl21  1  0.70844700  0.83377700  0.94360100  1
  Cl  Cl22  1  0.20844700  0.16622300  0.55639900  1
  Cl  Cl23  1  0.29155300  0.16622300  0.05639900  1
  Cl  Cl24  1  0.97918700  0.76480900  0.59700900  1
  Cl  Cl25  1  0.52081300  0.76480900  0.09700900  1
  Cl  Cl26  1  0.02081300  0.23519100  0.40299100  1
  Cl  Cl27  1  0.47918700  0.23519100  0.90299100  1
  Cl  Cl28  1  0.15599000  0.73038400  0.44663100  1
  Cl  Cl29  1  0.34401000  0.73038400  0.94663100  1
  Cl  Cl30  1  0.84401000  0.26961600  0.55336900  1
  Cl  Cl31  1  0.65599000  0.26961600  0.05336900  1
  O  O0  1  0.77473600  0.88472700  0.16445000  1
  O  O1  1  0.72526400  0.88472700  0.66445000  1
  O  O2  1  0.22526400  0.11527300  0.83555000  1
  O  O3  1  0.27473600  0.11527300  0.33555000  1
  O  O4  1  0.77280400  0.06845100  0.23390600  1
  O  O5  1  0.72719600  0.06845100  0.73390600  1
  O  O6  1  0.22719600  0.93154900  0.76609400  1
  O  O7  1  0.27280400  0.93154900  0.26609400  1
loop_
_geom_bond_atom_site_label_1
_geom_bond_atom_site_label_2
_geom_bond_distance
_geom_bond_site_symmetry_2
Au0 Cl12 2.293793 1_555
Au0 Cl8 2.298015 1_555
Au0 Cl0 2.339192 1_555
Au0 Cl4 2.355249 1_555
Au1 Cl13 2.293793 1_655
Au1 Cl9 2.298015 1_555
Au1 Cl1 2.339192 1_555
Au1 Cl5 2.355249 1_555
Au2 Cl14 2.293793 1_555
Au2 Cl10 2.298015 1_555
Au2 Cl2 2.339192 1_555
Au2 Cl6 2.355249 1_555
Au3 Cl15 2.293793 1_455
Au3 Cl11 2.298015 1_555
Au3 Cl3 2.339192 1_555
Au3 Cl7 2.355249 1_555
Au4 Cl28 2.298945 1_655
Au4 Cl24 2.307347 1_555
Au4 Cl16 2.332486 1_555
Au4 Cl20 2.347860 1_555
Au5 Cl29 2.298945 1_555
Au5 Cl25 2.307347 1_556
Au5 Cl17 2.332486 1_555
Au5 Cl21 2.347860 1_555
Au6 Cl30 2.298945 1_455
Au6 Cl26 2.307347 1_555
Au6 Cl18 2.332486 1_555
Au6 Cl22 2.347860 1_555
Au7 Cl31 2.298945 1_555
Au7 Cl27 2.307347 1_554
Au7 Cl19 2.332486 1_555
Au7 Cl23 2.347860 1_555
Cl0 Zn0 2.484687 1_555
Cl1 Zn1 2.484687 1_555
Cl2 Zn2 2.484687 1_555
Cl3 Zn3 2.484687 1_555
Cl4 Zn0 2.382213 1_555
Cl5 Zn1 2.382213 1_555
Cl6 Zn2 2.382213 1_555
Cl7 Zn3 2.382213 1_555
Cl16 Zn0 2.613518 1_555
Cl17 Zn1 2.613518 1_555
Cl18 Zn2 2.613518 1_555
Cl19 Zn3 2.613518 1_555
Cl20 Zn0 2.383778 1_555
Cl21 Zn1 2.383778 1_555
Cl22 Zn2 2.383778 1_555
Cl23 Zn3 2.383778 1_555
O0 Zn0 2.010860 1_555
O1 Zn1 2.010860 1_555
O2 Zn2 2.010860 1_555
O3 Zn3 2.010860 1_555
O4 Zn0 2.054368 1_545
O5 Zn1 2.054368 1_545
O6 Zn2 2.054368 1_565
O7 Zn3 2.054368 1_565
