# generated using pymatgen
data_Li3V3P8O29
_symmetry_space_group_name_H-M   'P 1'
_cell_length_a   9.73619700
_cell_length_b   9.76584969
_cell_length_c   14.27289935
_cell_angle_alpha   89.67897083
_cell_angle_beta   89.83022674
_cell_angle_gamma   60.22727012
_symmetry_Int_Tables_number   1
_chemical_formula_structural   Li3V3P8O29
_chemical_formula_sum   'Li6 V6 P16 O58'
_cell_volume   1177.94614826
_cell_formula_units_Z   2
loop_
 _symmetry_equiv_pos_site_id
 _symmetry_equiv_pos_as_xyz
  1  'x, y, z'
loop_
 _atom_site_type_symbol
 _atom_site_label
 _atom_site_symmetry_multiplicity
 _atom_site_fract_x
 _atom_site_fract_y
 _atom_site_fract_z
 _atom_site_occupancy
  Li  Li0  1  0.69415500  0.08276000  0.05525900  1
  Li  Li1  1  0.08442900  0.22647600  0.05848900  1
  Li  Li2  1  0.22533700  0.68243800  0.05659300  1
  Li  Li3  1  0.09278300  0.67532700  0.55931600  1
  Li  Li4  1  0.31633200  0.91006900  0.93704200  1
  Li  Li5  1  0.98295200  0.05429100  0.50445700  1
  V  V0  1  0.99752400  0.43571400  0.25305400  1
  V  V1  1  0.99794900  0.56533800  0.75286200  1
  V  V2  1  0.56738700  0.42989100  0.74639500  1
  V  V3  1  0.44030700  0.56210900  0.25517400  1
  V  V4  1  0.56480500  0.99872600  0.25687000  1
  V  V5  1  0.43433500  0.00550800  0.73800600  1
  P  P0  1  0.68158100  0.08771900  0.84037800  1
  P  P1  1  0.69673400  0.22157200  0.34374300  1
  P  P2  1  0.21872000  0.08274000  0.34034100  1
  P  P3  1  0.33381200  0.33179900  0.13394900  1
  P  P4  1  0.32943000  0.34101600  0.62905100  1
  P  P5  1  0.09230100  0.22563400  0.84192700  1
  P  P6  1  0.91704500  0.30676300  0.66132200  1
  P  P7  1  0.23178500  0.67934800  0.84213600  1
  P  P8  1  0.77214500  0.31390800  0.15932100  1
  P  P9  1  0.08766000  0.68500500  0.34285600  1
  P  P10  1  0.91183700  0.77423900  0.16273600  1
  P  P11  1  0.66807100  0.66578500  0.36923800  1
  P  P12  1  0.65844000  0.66986800  0.86510900  1
  P  P13  1  0.78359200  0.91469900  0.65940500  1
  P  P14  1  0.30708400  0.77549300  0.66072200  1
  P  P15  1  0.31982100  0.90975500  0.15823700  1
  O  O0  1  0.80320200  0.99519000  0.57722500  1
  O  O1  1  0.65468400  0.08789800  0.33055500  1
  O  O2  1  0.76334500  0.22986000  0.07560900  1
  O  O3  1  0.65841000  0.25602200  0.82884700  1
  O  O4  1  0.52221600  0.09548400  0.81515800  1
  O  O5  1  0.47956300  0.18076400  0.17722100  1
  O  O6  1  0.38121400  0.07961100  0.32970800  1
  O  O7  1  0.24630400  0.99518200  0.06819500  1
  O  O8  1  0.26049800  0.07923900  0.83321000  1
  O  O9  1  0.47993200  0.33223100  0.67523300  1
  O  O10  1  0.53759500  0.38207300  0.33015600  1
  O  O11  1  0.32656000  0.19037600  0.67126900  1
  O  O12  1  0.33494000  0.33198000  0.02969100  1
  O  O13  1  0.32838100  0.34483600  0.52527400  1
  O  O14  1  0.18092000  0.33438300  0.17339300  1
  O  O15  1  0.38209300  0.52070000  0.82332200  1
  O  O16  1  0.33835300  0.47841300  0.17632300  1
  O  O17  1  0.08542900  0.25806500  0.32857600  1
  O  O18  1  0.99365900  0.20884400  0.75757100  1
  O  O19  1  0.99758800  0.20940700  0.57899300  1
  O  O20  1  0.01911800  0.23239100  0.93419700  1
  O  O21  1  0.10030800  0.37889700  0.82068400  1
  O  O22  1  0.18295300  0.49128300  0.67124700  1
  O  O23  1  0.91687500  0.34059500  0.15998000  1
  O  O24  1  0.09121500  0.52544500  0.32435200  1
  O  O25  1  0.25839800  0.65585100  0.32777900  1
  O  O26  1  0.79849100  0.20784500  0.25195700  1
  O  O27  1  0.78874200  0.20405200  0.42908600  1
  O  O28  1  0.20078100  0.79218500  0.58185400  1
  O  O29  1  0.74078900  0.34800000  0.66800600  1
  O  O30  1  0.92180600  0.46272900  0.67276300  1
  O  O31  1  0.08536800  0.65685000  0.83377300  1
  O  O32  1  0.81364200  0.51700000  0.32354600  1
  O  O33  1  0.90552100  0.61980300  0.17897100  1
  O  O34  1  0.00847600  0.76766700  0.08069700  1
  O  O35  1  0.02103700  0.75459300  0.43510600  1
  O  O36  1  0.98704400  0.79962400  0.25876200  1
  O  O37  1  0.91773600  0.73800500  0.66458700  1
  O  O38  1  0.65467700  0.52638800  0.81884700  1
  O  O39  1  0.61956400  0.47431300  0.17886000  1
  O  O40  1  0.81486400  0.65902000  0.82073700  1
  O  O41  1  0.65867500  0.66824800  0.96895300  1
  O  O42  1  0.66894700  0.66528200  0.47253700  1
  O  O43  1  0.67123500  0.81286000  0.32442500  1
  O  O44  1  0.46214300  0.61595600  0.66890700  1
  O  O45  1  0.51805600  0.66945600  0.32352800  1
  O  O46  1  0.74187900  0.91870200  0.16238800  1
  O  O47  1  0.80142400  0.98673800  0.75751300  1
  O  O48  1  0.74500300  0.01394900  0.93250400  1
  O  O49  1  0.62029600  0.91786400  0.66846400  1
  O  O50  1  0.51478000  0.82232800  0.82354100  1
  O  O51  1  0.47839600  0.90338500  0.17979200  1
  O  O52  1  0.34119900  0.74152900  0.16067300  1
  O  O53  1  0.23925800  0.75406100  0.93235300  1
  O  O54  1  0.21308100  0.79886600  0.75909700  1
  O  O55  1  0.34722400  0.91149300  0.66413100  1
  O  O56  1  0.19714500  0.00614900  0.42371200  1
  O  O57  1  0.20335400  0.00332100  0.24385700  1
loop_
_geom_bond_atom_site_label_1
_geom_bond_atom_site_label_2
_geom_bond_distance
_geom_bond_site_symmetry_2
Li0 O48 1.855823 1_554
Li0 O2 1.889119 1_555
Li0 O46 2.087639 1_545
Li0 O5 2.514491 1_555
Li1 O20 1.877190 1_554
Li1 O7 2.016814 1_545
Li1 O23 2.049434 1_455
Li1 O14 2.386297 1_555
Li2 O34 1.876901 1_555
Li2 O53 1.931556 1_554
Li2 O52 2.116207 1_555
Li2 O16 2.428312 1_555
Li3 O35 1.919655 1_555
Li3 O28 1.925963 1_555
Li3 O37 2.120368 1_455
Li3 O22 2.227671 1_555
Li4 O53 2.006404 1_555
Li4 O7 2.026559 1_556
Li4 O8 2.075237 1_565
Li4 O50 2.333350 1_555
Li5 O19 1.918371 1_555
Li5 O27 2.029691 1_555
Li5 O56 2.217280 1_655
Li5 O0 2.336725 1_545
Li5 O28 2.619371 1_645
O0 P13 1.472257 1_555
O1 P1 1.562437 1_555
O1 V4 1.844648 1_545
O2 P8 1.479888 1_555
O3 P0 1.551907 1_555
O3 V2 1.882233 1_555
O4 P0 1.558514 1_555
O4 V5 1.865446 1_555
O5 P3 1.577039 1_555
O5 V4 1.912915 1_545
O6 P2 1.574020 1_555
O6 V4 1.869700 1_545
O7 P15 1.503453 1_555
O8 P5 1.554616 1_555
O8 V5 2.004128 1_555
O9 P4 1.571380 1_555
O9 V2 1.867813 1_555
O10 P1 1.575309 1_555
O10 V3 1.861405 1_555
O11 P4 1.599651 1_555
O11 V5 1.836594 1_555
O12 P3 1.488070 1_555
O13 P4 1.481397 1_555
O14 P3 1.578404 1_555
O14 V0 1.925117 1_455
O15 P7 1.537776 1_555
O15 V2 1.912308 1_555
O16 P3 1.578147 1_555
O16 V3 1.934611 1_555
O17 P2 1.560551 1_555
O17 V0 1.847744 1_455
O18 P5 1.601354 1_655
O18 P6 1.625115 1_555
O19 P6 1.471838 1_555
O20 P5 1.481603 1_555
O21 P5 1.564897 1_555
O21 V1 1.851836 1_455
O22 P4 1.573677 1_555
O22 V1 1.956458 1_455
O23 P8 1.555139 1_555
O23 V0 1.997144 1_555
O24 P9 1.565265 1_555
O24 V0 1.856049 1_455
O25 P9 1.555401 1_555
O25 V3 1.854262 1_555
O26 P1 1.605654 1_555
O26 P8 1.615438 1_555
O27 P1 1.472212 1_555
O28 P14 1.483984 1_555
O29 P6 1.558616 1_555
O29 V2 1.843800 1_555
O30 P6 1.556188 1_555
O30 V1 1.901672 1_555
O31 P7 1.551469 1_555
O31 V1 1.905139 1_455
O32 P11 1.582800 1_555
O32 V0 1.853245 1_555
O33 P10 1.555714 1_555
O33 V0 1.880817 1_555
O34 P10 1.481497 1_455
O35 P9 1.477635 1_555
O36 P9 1.598798 1_655
O36 P10 1.632823 1_555
O37 P13 1.565180 1_555
O37 V1 1.927420 1_555
O38 P12 1.569139 1_555
O38 V2 1.868485 1_555
O39 P8 1.558809 1_555
O39 V3 1.865646 1_555
O40 P12 1.602051 1_555
O40 V1 1.825681 1_555
O41 P12 1.482147 1_555
O42 P11 1.474393 1_555
O43 P11 1.583217 1_555
O43 V4 1.848388 1_555
O44 P14 1.543787 1_555
O44 V2 1.926141 1_555
O45 P11 1.585432 1_555
O45 V3 1.851428 1_555
O46 P10 1.552443 1_555
O46 V4 2.015322 1_555
O47 P0 1.610885 1_565
O47 P13 1.618539 1_555
O48 P0 1.477052 1_555
O49 P13 1.579690 1_555
O49 V5 1.858959 1_565
O50 P12 1.565889 1_555
O50 V5 1.973266 1_565
O51 P15 1.545774 1_555
O51 V4 1.892054 1_555
O52 P15 1.550277 1_555
O52 V3 2.030430 1_555
O53 P7 1.503174 1_555
O54 P7 1.604652 1_555
O54 P14 1.627803 1_555
O55 P14 1.560584 1_555
O55 V5 1.861067 1_565
O56 P2 1.471104 1_555
O57 P15 1.609178 1_545
O57 P2 1.627506 1_555
