# generated using pymatgen
data_ZrP2(HO4)2
_symmetry_space_group_name_H-M   'P 1'
_cell_length_a   9.79414535
_cell_length_b   9.79414535
_cell_length_c   9.79414535
_cell_angle_alpha   108.07205056
_cell_angle_beta   108.07205056
_cell_angle_gamma   112.30733218
_symmetry_Int_Tables_number   1
_chemical_formula_structural   ZrP2(HO4)2
_chemical_formula_sum   'Zr4 P8 H8 O32'
_cell_volume   721.89596314
_cell_formula_units_Z   4
loop_
 _symmetry_equiv_pos_site_id
 _symmetry_equiv_pos_as_xyz
  1  'x, y, z'
loop_
 _atom_site_type_symbol
 _atom_site_label
 _atom_site_symmetry_multiplicity
 _atom_site_fract_x
 _atom_site_fract_y
 _atom_site_fract_z
 _atom_site_occupancy
  Zr  Zr0  1  0.75500300  0.25500300  0.50000000  1
  Zr  Zr1  1  0.25500300  0.75500300  0.50000000  1
  Zr  Zr2  1  0.50500300  0.50500300  0.00000000  1
  Zr  Zr3  1  0.00500300  0.00500300  0.00000000  1
  P  P0  1  0.46503600  0.80710200  0.26711800  1
  P  P1  1  0.96503600  0.69791700  0.65793300  1
  P  P2  1  0.44791700  0.21503600  0.15793300  1
  P  P3  1  0.55710200  0.71503600  0.76711800  1
  P  P4  1  0.53998400  0.19791700  0.73288200  1
  P  P5  1  0.03998400  0.30710200  0.34206700  1
  P  P6  1  0.05710200  0.28998400  0.84206700  1
  P  P7  1  0.94791700  0.78998400  0.23288200  1
  H  H0  1  0.21838000  0.68000900  0.05209100  1
  H  H1  1  0.71838000  0.66628900  0.53837100  1
  H  H2  1  0.41628900  0.96838000  0.03837100  1
  H  H3  1  0.43000900  0.46838000  0.55209100  1
  H  H4  1  0.62791800  0.16628900  0.94790900  1
  H  H5  1  0.12791800  0.18000900  0.46162900  1
  H  H6  1  0.93000900  0.37791800  0.96162900  1
  H  H7  1  0.91628900  0.87791800  0.44790900  1
  O  O0  1  0.32223500  0.79267600  0.11697400  1
  O  O1  1  0.82223500  0.70526100  0.52955800  1
  O  O2  1  0.45526100  0.07223500  0.02955800  1
  O  O3  1  0.54267600  0.57223500  0.61697400  1
  O  O4  1  0.67570200  0.20526100  0.88302600  1
  O  O5  1  0.17570200  0.29267600  0.47044200  1
  O  O6  1  0.04267600  0.42570200  0.97044200  1
  O  O7  1  0.95526100  0.92570200  0.38302600  1
  O  O8  1  0.60680500  0.99162300  0.35749200  1
  O  O9  1  0.10680500  0.74931400  0.61518200  1
  O  O10  1  0.49931400  0.35680500  0.11518200  1
  O  O11  1  0.74162300  0.85680500  0.85749200  1
  O  O12  1  0.63413200  0.24931400  0.64250800  1
  O  O13  1  0.13413200  0.49162300  0.38481800  1
  O  O14  1  0.24162300  0.38413200  0.88481800  1
  O  O15  1  0.99931400  0.88413200  0.14250800  1
  O  O16  1  0.57318000  0.27001800  0.33249600  1
  O  O17  1  0.07318000  0.74068400  0.30316200  1
  O  O18  1  0.49068400  0.32318000  0.80316200  1
  O  O19  1  0.02001800  0.82318000  0.83249600  1
  O  O20  1  0.93752200  0.24068400  0.66750400  1
  O  O21  1  0.43752200  0.77001800  0.69683800  1
  O  O22  1  0.52001800  0.68752200  0.19683800  1
  O  O23  1  0.99068400  0.18752200  0.16750400  1
  O  O24  1  0.89389900  0.51880100  0.63419700  1
  O  O25  1  0.39389900  0.75970200  0.37509800  1
  O  O26  1  0.50970200  0.64389900  0.87509800  1
  O  O27  1  0.26880100  0.14389900  0.13419700  1
  O  O28  1  0.88460400  0.25970200  0.36580300  1
  O  O29  1  0.38460400  0.01880100  0.62490200  1
  O  O30  1  0.76880100  0.63460400  0.12490200  1
  O  O31  1  0.00970200  0.13460400  0.86580300  1
loop_
_geom_bond_atom_site_label_1
_geom_bond_atom_site_label_2
_geom_bond_distance
_geom_bond_site_symmetry_2
H0 O0 0.983840 1_555
H1 O1 0.983846 1_555
H2 O2 0.983846 1_565
H3 O3 0.983840 1_555
H4 O4 0.983840 1_555
H5 O5 0.983836 1_555
H6 O6 0.983836 1_655
H7 O7 0.983840 1_555
O0 P0 1.607356 1_555
O1 P1 1.607362 1_555
O2 P2 1.607362 1_555
O3 P3 1.607356 1_555
O4 P4 1.607350 1_555
O5 P5 1.607356 1_555
O6 P6 1.607356 1_555
O7 P7 1.607350 1_555
O8 P0 1.522348 1_555
O8 Zr0 2.091890 1_565
O9 P1 1.522342 1_455
O9 Zr1 2.091891 1_555
O10 P2 1.522342 1_555
O10 Zr2 2.091891 1_555
O11 P3 1.522348 1_555
O11 Zr3 2.091890 1_666
O12 P4 1.522360 1_555
O12 Zr0 2.091883 1_555
O13 P5 1.522351 1_555
O13 Zr1 2.091891 1_555
O14 P6 1.522351 1_555
O14 Zr2 2.091891 1_556
O15 P7 1.522360 1_555
O15 Zr3 2.091883 1_665
O16 P2 1.531039 1_555
O16 Zr0 2.102433 1_555
O17 P7 1.531036 1_455
O17 Zr1 2.102433 1_555
O18 P4 1.531036 1_555
O18 Zr2 2.102433 1_556
O19 P1 1.531039 1_455
O19 Zr3 2.102433 1_566
O20 P6 1.531036 1_655
O20 Zr0 2.102433 1_555
O21 P3 1.531029 1_555
O21 Zr1 2.102433 1_555
O22 P0 1.531029 1_555
O22 Zr2 2.102433 1_555
O23 P5 1.531036 1_655
O23 Zr3 2.102433 1_655
O24 P1 1.528269 1_555
O24 Zr0 2.090235 1_555
O25 P0 1.528275 1_555
O25 Zr1 2.090235 1_555
O26 P3 1.528275 1_555
O26 Zr2 2.090235 1_556
O27 P2 1.528269 1_555
O27 Zr3 2.090235 1_555
O28 P5 1.528269 1_655
O28 Zr0 2.090235 1_555
O29 P4 1.528269 1_555
O29 Zr1 2.090235 1_545
O30 P7 1.528269 1_555
O30 Zr2 2.090235 1_555
O31 P6 1.528269 1_555
O31 Zr3 2.090235 1_556
