# generated using pymatgen
data_Hf2N2O
_symmetry_space_group_name_H-M   'P 1'
_cell_length_a   8.66894908
_cell_length_b   8.67044718
_cell_length_c   8.67522047
_cell_angle_alpha   109.40738054
_cell_angle_beta   109.52509262
_cell_angle_gamma   109.43445115
_symmetry_Int_Tables_number   1
_chemical_formula_structural   Hf2N2O
_chemical_formula_sum   'Hf16 N16 O8'
_cell_volume   502.24595982
_cell_formula_units_Z   8
loop_
 _symmetry_equiv_pos_site_id
 _symmetry_equiv_pos_as_xyz
  1  'x, y, z'
loop_
 _atom_site_type_symbol
 _atom_site_label
 _atom_site_symmetry_multiplicity
 _atom_site_fract_x
 _atom_site_fract_y
 _atom_site_fract_z
 _atom_site_occupancy
  Hf  Hf0  1  0.21526193  0.96547364  0.25013479  1
  Hf  Hf1  1  0.99658751  0.50754383  0.00591147  1
  Hf  Hf2  1  0.75865704  0.78922078  0.03491998  1
  Hf  Hf3  1  0.24998331  0.71448340  0.46615179  1
  Hf  Hf4  1  0.53153491  0.75476962  0.29521329  1
  Hf  Hf5  1  0.03072852  0.74956548  0.77850435  1
  Hf  Hf6  1  0.99640535  0.00896122  0.50524629  1
  Hf  Hf7  1  0.50539715  0.00575139  0.99513655  1
  Hf  Hf8  1  0.51256128  0.50248381  0.50940869  1
  Hf  Hf9  1  0.72010449  0.45658004  0.24938289  1
  Hf  Hf10  1  0.29124233  0.53803418  0.75087562  1
  Hf  Hf11  1  0.47114173  0.25669884  0.71689526  1
  Hf  Hf12  1  0.95546267  0.24011839  0.21222769  1
  Hf  Hf13  1  0.74300628  0.28048432  0.53344936  1
  Hf  Hf14  1  0.24835963  0.21387284  0.95444228  1
  Hf  Hf15  1  0.77982260  0.03086359  0.74500992  1
  N  N0  1  0.27440220  0.74103427  0.22544175  1
  N  N1  1  0.26067087  0.77037714  0.72778079  1
  N  N2  1  0.01430289  0.04679658  0.27793689  1
  N  N3  1  0.53160018  0.76815845  0.54390977  1
  N  N4  1  0.46288969  0.22559636  0.45155363  1
  N  N5  1  0.96696563  0.51240721  0.23943043  1
  N  N6  1  0.72804917  0.98847053  0.95515450  1
  N  N7  1  0.22186122  0.27378251  0.73572509  1
  N  N8  1  0.99403808  0.95935685  0.73238427  1
  N  N9  1  0.77309967  0.54491812  0.53321370  1
  N  N10  1  0.73723566  0.22280081  0.27094405  1
  N  N11  1  0.54319311  0.53580035  0.77164107  1
  N  N12  1  0.75833460  0.02952703  0.48296187  1
  N  N13  1  0.95416648  0.72653187  0.98473423  1
  N  N14  1  0.73126715  0.26329061  0.77627586  1
  N  N15  1  0.50647419  0.23585914  0.96594590  1
  O  O0  1  0.48771061  0.75711894  0.03351348  1
  O  O1  1  0.05409528  0.27829518  0.01804942  1
  O  O2  1  0.23759982  0.96324080  0.51089000  1
  O  O3  1  0.45099452  0.46488613  0.22509557  1
  O  O4  1  0.22663061  0.45365644  0.46541856  1
  O  O5  1  0.27495209  0.01286111  0.04848188  1
  O  O6  1  0.76575541  0.72264990  0.25676556  1
  O  O7  1  0.03745612  0.48768132  0.76383950  1
loop_
_geom_bond_atom_site_label_1
_geom_bond_atom_site_label_2
_geom_bond_distance
_geom_bond_site_symmetry_2
Hf0 N4 2.097620 1_565
Hf0 O5 2.106701 1_565
Hf0 N0 2.134455 1_555
Hf0 N2 2.139052 1_565
Hf0 O2 2.212194 1_555
Hf0 N13 2.223144 1_454
Hf1 N13 2.103676 1_554
Hf1 N5 2.114206 1_555
Hf1 N14 2.153105 1_554
Hf1 N0 2.157080 1_655
Hf1 O7 2.205194 1_654
Hf1 O1 2.230235 1_655
Hf2 N13 2.075223 1_554
Hf2 N6 2.123809 1_554
Hf2 N11 2.148378 1_554
Hf2 O6 2.173381 1_555
Hf2 N2 2.190440 1_665
Hf2 O0 2.266741 1_555
Hf3 O2 2.107067 1_555
Hf3 N1 2.119789 1_555
Hf3 N3 2.136861 1_555
Hf3 N5 2.140433 1_455
Hf3 O4 2.200060 1_555
Hf3 N0 2.245209 1_555
Hf4 N0 2.054964 1_555
Hf4 N12 2.087493 1_565
Hf4 N3 2.121548 1_555
Hf4 O3 2.169575 1_555
Hf4 O0 2.181369 1_555
Hf4 O6 2.253613 1_555
Hf5 N9 2.083608 1_455
Hf5 N8 2.086517 1_455
Hf5 N1 2.144622 1_555
Hf5 N13 2.150399 1_455
Hf5 O7 2.253122 1_555
Hf5 O5 2.257279 1_566
Hf6 N12 2.080780 1_555
Hf6 N7 2.107220 1_655
Hf6 N2 2.149619 1_655
Hf6 N8 2.156971 1_545
Hf6 O2 2.242200 1_645
Hf6 O6 2.250963 1_545
Hf7 N15 2.090391 1_555
Hf7 N6 2.115110 1_545
Hf7 N10 2.140581 1_556
Hf7 N1 2.174691 1_545
Hf7 O5 2.211291 1_556
Hf7 O0 2.252279 1_546
Hf8 N9 2.089019 1_555
Hf8 N11 2.106577 1_555
Hf8 N4 2.137223 1_555
Hf8 N3 2.163056 1_555
Hf8 O3 2.223642 1_555
Hf8 O4 2.242972 1_555
Hf9 N5 2.069643 1_555
Hf9 N10 2.144613 1_555
Hf9 N15 2.146773 1_554
Hf9 N9 2.148713 1_555
Hf9 O6 2.181752 1_555
Hf9 O3 2.298985 1_555
Hf10 N7 2.111524 1_555
Hf10 O0 2.116950 1_556
Hf10 N11 2.137942 1_555
Hf10 O4 2.139547 1_555
Hf10 O7 2.145311 1_555
Hf10 N1 2.180980 1_555
Hf11 N14 2.114687 1_555
Hf11 N11 2.122229 1_555
Hf11 N15 2.156024 1_555
Hf11 N4 2.200256 1_555
Hf11 O2 2.213215 1_545
Hf11 N7 2.269678 1_555
Hf12 N10 2.089701 1_555
Hf12 N2 2.098648 1_655
Hf12 N6 2.141446 1_544
Hf12 O4 2.174440 1_655
Hf12 O1 2.196211 1_655
Hf12 N5 2.257581 1_555
Hf13 N4 2.116843 1_555
Hf13 N12 2.131208 1_555
Hf13 N10 2.142191 1_555
Hf13 N14 2.193658 1_555
Hf13 O7 2.211276 1_655
Hf13 N9 2.220416 1_555
Hf14 N7 2.089461 1_555
Hf14 O1 2.120114 1_556
Hf14 N8 2.130688 1_445
Hf14 N15 2.146465 1_555
Hf14 O3 2.153675 1_556
Hf14 O5 2.200643 1_556
Hf15 N3 2.109586 1_545
Hf15 N6 2.131321 1_545
Hf15 N14 2.142313 1_555
Hf15 N8 2.168393 1_545
Hf15 N12 2.213782 1_555
Hf15 O1 2.308745 1_656
