# generated using pymatgen
data_Tl2Sn2S5
_symmetry_space_group_name_H-M   'P 1'
_cell_length_a   6.84374613
_cell_length_b   6.84374592
_cell_length_c   11.58122040
_cell_angle_alpha   74.85000634
_cell_angle_beta   74.85000342
_cell_angle_gamma   69.49701394
_symmetry_Int_Tables_number   1
_chemical_formula_structural   Tl2Sn2S5
_chemical_formula_sum   'Tl4 Sn4 S10'
_cell_volume   481.68178774
_cell_formula_units_Z   2
loop_
 _symmetry_equiv_pos_site_id
 _symmetry_equiv_pos_as_xyz
  1  'x, y, z'
loop_
 _atom_site_type_symbol
 _atom_site_label
 _atom_site_symmetry_multiplicity
 _atom_site_fract_x
 _atom_site_fract_y
 _atom_site_fract_z
 _atom_site_occupancy
  Tl  Tl0  1  0.89734675  0.54203372  0.18203162  1
  Tl  Tl1  1  0.45796628  0.10265325  0.31796838  1
  Tl  Tl2  1  0.10265325  0.45796628  0.81796838  1
  Tl  Tl3  1  0.54203372  0.89734675  0.68203162  1
  Sn  Sn0  1  0.06191403  0.75002156  0.44176548  1
  Sn  Sn1  1  0.24997844  0.93808597  0.05823452  1
  Sn  Sn2  1  0.93808597  0.24997844  0.55823452  1
  Sn  Sn3  1  0.75002156  0.06191403  0.94176548  1
  S  S0  1  0.68103973  0.31896027  0.75000000  1
  S  S1  1  0.31896027  0.68103973  0.25000000  1
  S  S2  1  0.87440672  0.15045508  0.38553005  1
  S  S3  1  0.84954492  0.12559328  0.11446995  1
  S  S4  1  0.12559328  0.84954492  0.61446995  1
  S  S5  1  0.15045508  0.87440672  0.88553005  1
  S  S6  1  0.25053898  0.35537397  0.53886455  1
  S  S7  1  0.64462603  0.74946102  0.96113545  1
  S  S8  1  0.35537397  0.25053898  0.03886455  1
  S  S9  1  0.74946102  0.64462603  0.46113545  1
loop_
_geom_bond_atom_site_label_1
_geom_bond_atom_site_label_2
_geom_bond_distance
_geom_bond_site_symmetry_2
S0 Sn2 2.484748 1_555
S0 Sn3 2.484748 1_555
S1 Sn0 2.484748 1_555
S1 Sn1 2.484748 1_555
S2 Sn2 2.455601 1_555
S2 Sn0 2.573225 1_645
S2 Tl0 3.092045 1_555
S3 Sn3 2.455601 1_554
S3 Sn1 2.573225 1_645
S3 Tl1 3.092045 1_555
S4 Sn0 2.455601 1_555
S4 Sn2 2.573225 1_465
S4 Tl2 3.092045 1_555
S5 Sn1 2.455601 1_556
S5 Sn3 2.573225 1_465
S5 Tl3 3.092045 1_555
S6 Sn2 2.426580 1_455
S6 Sn0 2.637147 1_555
S6 Tl1 3.200901 1_555
S7 Sn3 2.426580 1_565
S7 Sn1 2.637147 1_556
S7 Tl0 3.200901 1_556
S8 Sn1 2.426580 1_545
S8 Sn3 2.637147 1_554
S8 Tl2 3.200901 1_554
S9 Sn0 2.426580 1_655
S9 Sn2 2.637147 1_555
S9 Tl3 3.200901 1_555
