# generated using pymatgen
data_Gd2(WO4)3
_symmetry_space_group_name_H-M   'P 1'
_cell_length_a   10.58607600
_cell_length_b   10.60985400
_cell_length_c   10.87085900
_cell_angle_alpha   90.00000000
_cell_angle_beta   90.00000000
_cell_angle_gamma   90.00000000
_symmetry_Int_Tables_number   1
_chemical_formula_structural   Gd2(WO4)3
_chemical_formula_sum   'Gd8 W12 O48'
_cell_volume   1220.97923508
_cell_formula_units_Z   4
loop_
 _symmetry_equiv_pos_site_id
 _symmetry_equiv_pos_as_xyz
  1  'x, y, z'
loop_
 _atom_site_type_symbol
 _atom_site_label
 _atom_site_symmetry_multiplicity
 _atom_site_fract_x
 _atom_site_fract_y
 _atom_site_fract_z
 _atom_site_occupancy
  Gd  Gd0  1  0.00629800  0.81127300  0.26300000  1
  Gd  Gd1  1  0.18912800  0.49595000  0.73815200  1
  Gd  Gd2  1  0.31087200  0.99595000  0.73815200  1
  Gd  Gd3  1  0.49370200  0.31127300  0.26300000  1
  Gd  Gd4  1  0.50629800  0.68872700  0.26300000  1
  Gd  Gd5  1  0.68912800  0.00405000  0.73815200  1
  Gd  Gd6  1  0.81087200  0.50405000  0.73815200  1
  Gd  Gd7  1  0.99370200  0.18872700  0.26300000  1
  W  W0  1  0.00330300  0.20638200  0.64340100  1
  W  W1  1  0.20557900  0.48841900  0.35730700  1
  W  W2  1  0.24283900  0.24358600  0.00036100  1
  W  W3  1  0.25716100  0.74358600  0.00036100  1
  W  W4  1  0.29442100  0.98841900  0.35730700  1
  W  W5  1  0.49669700  0.70638200  0.64340100  1
  W  W6  1  0.50330300  0.29361800  0.64340100  1
  W  W7  1  0.70557900  0.01158100  0.35730700  1
  W  W8  1  0.74283900  0.25641400  0.00036100  1
  W  W9  1  0.75716100  0.75641400  0.00036100  1
  W  W10  1  0.79442100  0.51158100  0.35730700  1
  W  W11  1  0.99669700  0.79361800  0.64340100  1
  O  O0  1  0.00679200  0.62712600  0.69094600  1
  O  O1  1  0.02060800  0.80566600  0.47946100  1
  O  O2  1  0.11347500  0.61551700  0.29243500  1
  O  O3  1  0.11772200  0.88460400  0.72008900  1
  O  O4  1  0.12300300  0.17032900  0.09501400  1
  O  O5  1  0.12773100  0.00615800  0.31117500  1
  O  O6  1  0.14313600  0.81990400  0.09984300  1
  O  O7  1  0.15530200  0.33471300  0.30528600  1
  O  O8  1  0.16041400  0.15366600  0.68248100  1
  O  O9  1  0.16934800  0.35865300  0.90044300  1
  O  O10  1  0.18166200  0.62483600  0.90582100  1
  O  O11  1  0.19267600  0.48893800  0.52254200  1
  O  O12  1  0.30732400  0.98893800  0.52254200  1
  O  O13  1  0.31833800  0.12483600  0.90582100  1
  O  O14  1  0.33065200  0.85865300  0.90044300  1
  O  O15  1  0.33958600  0.65366600  0.68248100  1
  O  O16  1  0.34469800  0.83471300  0.30528600  1
  O  O17  1  0.35686400  0.31990400  0.09984300  1
  O  O18  1  0.37226900  0.50615800  0.31117500  1
  O  O19  1  0.37699700  0.67032900  0.09501400  1
  O  O20  1  0.38227800  0.38460400  0.72008900  1
  O  O21  1  0.38652500  0.11551700  0.29243500  1
  O  O22  1  0.47939200  0.30566600  0.47946100  1
  O  O23  1  0.49320800  0.12712600  0.69094600  1
  O  O24  1  0.50679200  0.87287400  0.69094600  1
  O  O25  1  0.52060800  0.69433400  0.47946100  1
  O  O26  1  0.61347500  0.88448300  0.29243500  1
  O  O27  1  0.61772200  0.61539600  0.72008900  1
  O  O28  1  0.62300300  0.32967100  0.09501400  1
  O  O29  1  0.62773100  0.49384200  0.31117500  1
  O  O30  1  0.64313600  0.68009600  0.09984300  1
  O  O31  1  0.65530200  0.16528700  0.30528600  1
  O  O32  1  0.66041400  0.34633400  0.68248100  1
  O  O33  1  0.66934800  0.14134700  0.90044300  1
  O  O34  1  0.68166200  0.87516400  0.90582100  1
  O  O35  1  0.69267600  0.01106200  0.52254200  1
  O  O36  1  0.80732400  0.51106200  0.52254200  1
  O  O37  1  0.81833800  0.37516400  0.90582100  1
  O  O38  1  0.83065200  0.64134700  0.90044300  1
  O  O39  1  0.83958600  0.84633400  0.68248100  1
  O  O40  1  0.84469800  0.66528700  0.30528600  1
  O  O41  1  0.85686400  0.18009600  0.09984300  1
  O  O42  1  0.87226900  0.99384200  0.31117500  1
  O  O43  1  0.87699700  0.82967100  0.09501400  1
  O  O44  1  0.88227800  0.11539600  0.72008900  1
  O  O45  1  0.88652500  0.38448300  0.29243500  1
  O  O46  1  0.97939200  0.19433400  0.47946100  1
  O  O47  1  0.99320800  0.37287400  0.69094600  1
loop_
_geom_bond_atom_site_label_1
_geom_bond_atom_site_label_2
_geom_bond_distance
_geom_bond_site_symmetry_2
Gd0 O43 2.290529 1_455
Gd0 O6 2.291860 1_555
Gd0 O40 2.353062 1_455
Gd0 O1 2.358738 1_555
Gd0 O2 2.388171 1_555
Gd0 O42 2.457532 1_455
Gd0 O5 2.490414 1_565
Gd1 O10 2.280012 1_555
Gd1 O9 2.297472 1_555
Gd1 O11 2.345347 1_555
Gd1 O20 2.369595 1_555
Gd1 O15 2.388142 1_555
Gd1 O0 2.434357 1_555
Gd1 O47 2.504013 1_455
Gd2 O13 2.280012 1_565
Gd2 O14 2.297472 1_555
Gd2 O12 2.345347 1_555
Gd2 O3 2.369595 1_555
Gd2 O8 2.388142 1_565
Gd2 O23 2.434357 1_565
Gd2 O24 2.504013 1_555
Gd3 O28 2.290529 1_555
Gd3 O17 2.291860 1_555
Gd3 O31 2.353062 1_555
Gd3 O22 2.358738 1_555
Gd3 O21 2.388171 1_555
Gd3 O29 2.457532 1_555
Gd3 O18 2.490414 1_555
Gd4 O19 2.290529 1_555
Gd4 O30 2.291860 1_555
Gd4 O16 2.353062 1_555
Gd4 O25 2.358738 1_555
Gd4 O26 2.388171 1_555
Gd4 O18 2.457532 1_555
Gd4 O29 2.490414 1_555
Gd5 O34 2.280012 1_545
Gd5 O33 2.297472 1_555
Gd5 O35 2.345347 1_555
Gd5 O44 2.369595 1_555
Gd5 O39 2.388142 1_545
Gd5 O24 2.434357 1_545
Gd5 O23 2.504013 1_555
Gd6 O37 2.280012 1_555
Gd6 O38 2.297472 1_555
Gd6 O36 2.345347 1_555
Gd6 O27 2.369595 1_555
Gd6 O32 2.388142 1_555
Gd6 O47 2.434357 1_555
Gd6 O0 2.504013 1_655
Gd7 O4 2.290529 1_655
Gd7 O41 2.291860 1_555
Gd7 O7 2.353062 1_655
Gd7 O46 2.358738 1_555
Gd7 O45 2.388171 1_555
Gd7 O5 2.457532 1_655
Gd7 O42 2.490414 1_545
O0 W11 1.843618 1_455
O1 W11 1.804588 1_455
O2 W1 1.807324 1_555
O3 W11 1.807848 1_455
O4 W2 1.808922 1_555
O5 W4 1.844101 1_545
O6 W3 1.811693 1_555
O7 W1 1.806262 1_555
O8 W0 1.805411 1_555
O9 W2 1.809844 1_556
O10 W3 1.811743 1_556
O11 W1 1.801441 1_555
O12 W4 1.801441 1_555
O13 W2 1.811743 1_556
O14 W3 1.809844 1_556
O15 W5 1.805411 1_555
O16 W4 1.806262 1_555
O17 W2 1.811693 1_555
O18 W1 1.844101 1_555
O19 W3 1.808922 1_555
O20 W6 1.807848 1_555
O21 W4 1.807324 1_545
O22 W6 1.804588 1_555
O23 W6 1.843618 1_555
O24 W5 1.843618 1_555
O25 W5 1.804588 1_555
O26 W7 1.807324 1_565
O27 W5 1.807848 1_555
O28 W8 1.808922 1_555
O29 W10 1.844101 1_555
O30 W9 1.811693 1_555
O31 W7 1.806262 1_555
O32 W6 1.805411 1_555
O33 W8 1.809844 1_556
O34 W9 1.811743 1_556
O35 W7 1.801441 1_555
O36 W10 1.801441 1_555
O37 W8 1.811743 1_556
O38 W9 1.809844 1_556
O39 W11 1.805411 1_555
O40 W10 1.806262 1_555
O41 W8 1.811693 1_555
O42 W7 1.844101 1_565
O43 W9 1.808922 1_555
O44 W0 1.807848 1_655
O45 W10 1.807324 1_555
O46 W0 1.804588 1_655
O47 W0 1.843618 1_655
