# generated using pymatgen
data_KNbF6
_symmetry_space_group_name_H-M   'P 1'
_cell_length_a   5.26510201
_cell_length_b   5.26510201
_cell_length_c   9.62034936
_cell_angle_alpha   90.00000000
_cell_angle_beta   90.00000000
_cell_angle_gamma   90.00000000
_symmetry_Int_Tables_number   1
_chemical_formula_structural   KNbF6
_chemical_formula_sum   'K2 Nb2 F12'
_cell_volume   266.68858278
_cell_formula_units_Z   2
loop_
 _symmetry_equiv_pos_site_id
 _symmetry_equiv_pos_as_xyz
  1  'x, y, z'
loop_
 _atom_site_type_symbol
 _atom_site_label
 _atom_site_symmetry_multiplicity
 _atom_site_fract_x
 _atom_site_fract_y
 _atom_site_fract_z
 _atom_site_occupancy
  K  K0  1  0.50000000  0.50000000  0.50000000  1
  K  K1  1  0.50000000  0.50000000  0.00000000  1
  Nb  Nb0  1  -0.00000000  0.00000000  0.75000000  1
  Nb  Nb1  1  -0.00000000  0.00000000  0.25000000  1
  F  F0  1  0.18412043  0.81618046  0.60929004  1
  F  F1  1  0.81587957  0.18381954  0.60929004  1
  F  F2  1  0.81618046  0.81587957  0.39070996  1
  F  F3  1  0.18381954  0.18412043  0.39070996  1
  F  F4  1  0.26052235  0.73947765  0.25000000  1
  F  F5  1  0.73947765  0.73947765  0.75000000  1
  F  F6  1  0.26052235  0.26052235  0.75000000  1
  F  F7  1  0.73947765  0.26052235  0.25000000  1
  F  F8  1  0.18412043  0.18381954  0.10929004  1
  F  F9  1  0.18381954  0.81587957  0.89070996  1
  F  F10  1  0.81618046  0.18412043  0.89070996  1
  F  F11  1  0.81587957  0.81618046  0.10929004  1
loop_
_geom_bond_atom_site_label_1
_geom_bond_atom_site_label_2
_geom_bond_distance
_geom_bond_site_symmetry_2
F0 Nb0 1.925851 1_565
F0 K0 2.577361 1_555
F1 Nb0 1.925851 1_655
F1 K0 2.577361 1_555
F2 Nb1 1.925851 1_665
F2 K0 2.577361 1_555
F3 Nb1 1.925851 1_555
F3 K0 2.577361 1_555
F4 Nb1 1.939844 1_565
F4 K1 2.994003 1_555
F4 K0 2.994003 1_555
F5 Nb0 1.939844 1_665
F5 K1 2.994003 1_556
F5 K0 2.994003 1_555
F6 Nb0 1.939844 1_555
F6 K1 2.994003 1_556
F6 K0 2.994003 1_555
F7 Nb1 1.939844 1_655
F7 K1 2.994003 1_555
F7 K0 2.994003 1_555
F8 Nb1 1.925851 1_555
F8 K1 2.577361 1_555
F9 Nb0 1.925851 1_565
F9 K1 2.577361 1_556
F10 Nb0 1.925851 1_655
F10 K1 2.577361 1_556
F11 Nb1 1.925851 1_665
F11 K1 2.577361 1_555
