# generated using pymatgen
data_Fe3Ni2Sb(PO4)6
_symmetry_space_group_name_H-M   'P 1'
_cell_length_a   8.50535811
_cell_length_b   8.50535811
_cell_length_c   8.50535763
_cell_angle_alpha   61.00848785
_cell_angle_beta   61.00848785
_cell_angle_gamma   61.00848251
_symmetry_Int_Tables_number   1
_chemical_formula_structural   Fe3Ni2Sb(PO4)6
_chemical_formula_sum   'Fe3 Ni2 Sb1 P6 O24'
_cell_volume   444.95623288
_cell_formula_units_Z   1
loop_
 _symmetry_equiv_pos_site_id
 _symmetry_equiv_pos_as_xyz
  1  'x, y, z'
loop_
 _atom_site_type_symbol
 _atom_site_label
 _atom_site_symmetry_multiplicity
 _atom_site_fract_x
 _atom_site_fract_y
 _atom_site_fract_z
 _atom_site_occupancy
  Fe  Fe0  1  0.14532400  0.14532400  0.14532400  1
  Fe  Fe1  1  0.35535000  0.35535000  0.35535000  1
  Fe  Fe2  1  0.64312700  0.64312700  0.64312700  1
  Ni  Ni0  1  0.00631100  0.00631100  0.00631100  1
  Ni  Ni1  1  0.49953400  0.49953400  0.49953400  1
  Sb  Sb0  1  0.85720900  0.85720900  0.85720900  1
  P  P0  1  0.45087800  0.74601500  0.04820700  1
  P  P1  1  0.74601500  0.04820700  0.45087800  1
  P  P2  1  0.04820700  0.45087800  0.74601500  1
  P  P3  1  0.95248000  0.54112900  0.25339300  1
  P  P4  1  0.25339300  0.95248000  0.54112900  1
  P  P5  1  0.54112900  0.25339300  0.95248000  1
  O  O0  1  0.50952600  0.31223700  0.11034700  1
  O  O1  1  0.11034700  0.50952600  0.31223700  1
  O  O2  1  0.25824200  0.90964000  0.05923000  1
  O  O3  1  0.31223700  0.11034700  0.50952600  1
  O  O4  1  0.61154300  0.81462700  0.01178200  1
  O  O5  1  0.44074100  0.59004700  0.24467100  1
  O  O6  1  0.90964000  0.05923000  0.25824200  1
  O  O7  1  0.59004700  0.24467100  0.44074100  1
  O  O8  1  0.99409500  0.39088100  0.17882700  1
  O  O9  1  0.24467100  0.44074100  0.59004700  1
  O  O10  1  0.93992100  0.74547200  0.08696100  1
  O  O11  1  0.17882700  0.99409500  0.39088100  1
  O  O12  1  0.81462700  0.01178200  0.61154300  1
  O  O13  1  0.05923000  0.25824200  0.90964000  1
  O  O14  1  0.75388200  0.56207400  0.40677400  1
  O  O15  1  0.01178200  0.61154300  0.81462700  1
  O  O16  1  0.40677400  0.75388200  0.56207400  1
  O  O17  1  0.08696100  0.93992100  0.74547200  1
  O  O18  1  0.56207400  0.40677400  0.75388200  1
  O  O19  1  0.39088100  0.17882700  0.99409500  1
  O  O20  1  0.68093900  0.88859200  0.49999400  1
  O  O21  1  0.74547200  0.08696100  0.93992100  1
  O  O22  1  0.88859200  0.49999400  0.68093900  1
  O  O23  1  0.49999400  0.68093900  0.88859200  1
loop_
_geom_bond_atom_site_label_1
_geom_bond_atom_site_label_2
_geom_bond_distance
_geom_bond_site_symmetry_2
Fe0 O8 1.927488 1_455
Fe0 O11 1.927488 1_545
Fe0 O19 1.927488 1_554
Fe0 O13 2.086113 1_554
Fe0 O2 2.086113 1_545
Fe0 O6 2.086114 1_455
Fe1 O1 1.955032 1_555
Fe1 O0 1.955032 1_555
Fe1 O3 1.955032 1_555
Fe1 O9 2.078330 1_555
Fe1 O7 2.078330 1_555
Fe1 O5 2.078330 1_555
Fe2 O23 1.936964 1_555
Fe2 O22 1.936964 1_555
Fe2 O20 1.936964 1_555
Fe2 O14 2.069302 1_555
Fe2 O16 2.069302 1_555
Fe2 O18 2.069303 1_555
Ni0 O6 2.082878 1_455
Ni0 O2 2.082878 1_545
Ni0 O13 2.082878 1_554
Ni0 O17 2.252766 1_544
Ni0 O21 2.252766 1_454
Ni0 O10 2.252767 1_445
Ni1 O5 2.145127 1_555
Ni1 O7 2.145127 1_555
Ni1 O9 2.145127 1_555
Ni1 O18 2.153959 1_555
Ni1 O16 2.153959 1_555
Ni1 O14 2.153960 1_555
O0 P5 1.515515 1_554
O1 P3 1.515515 1_455
O2 P0 1.548325 1_555
O3 P4 1.515515 1_545
O4 P0 1.578377 1_555
O4 Sb0 1.958229 1_554
O5 P0 1.543335 1_555
O6 P1 1.548325 1_555
O7 P1 1.543335 1_555
O8 P3 1.513320 1_555
O9 P2 1.543335 1_555
O10 P3 1.617912 1_555
O10 Sb0 2.025086 1_554
O11 P4 1.513320 1_555
O12 P1 1.578377 1_555
O12 Sb0 1.958229 1_545
O13 P2 1.548325 1_555
O14 P3 1.544131 1_555
O15 P2 1.578377 1_555
O15 Sb0 1.958229 1_455
O16 P4 1.544131 1_555
O17 P4 1.617912 1_555
O17 Sb0 2.025086 1_455
O18 P5 1.544131 1_555
O19 P5 1.513321 1_555
O20 P1 1.509438 1_565
O21 P5 1.617912 1_555
O21 Sb0 2.025086 1_545
O22 P2 1.509438 1_655
O23 P0 1.509438 1_556
