# generated using pymatgen
data_Li8Mn5Fe3(BO3)8
_symmetry_space_group_name_H-M   'P 1'
_cell_length_a   5.23084400
_cell_length_b   6.03024198
_cell_length_c   16.20807146
_cell_angle_alpha   82.00287766
_cell_angle_beta   89.20286370
_cell_angle_gamma   89.35763446
_symmetry_Int_Tables_number   1
_chemical_formula_structural   Li8Mn5Fe3(BO3)8
_chemical_formula_sum   'Li8 Mn5 Fe3 B8 O24'
_cell_volume   506.21219373
_cell_formula_units_Z   1
loop_
 _symmetry_equiv_pos_site_id
 _symmetry_equiv_pos_as_xyz
  1  'x, y, z'
loop_
 _atom_site_type_symbol
 _atom_site_label
 _atom_site_symmetry_multiplicity
 _atom_site_fract_x
 _atom_site_fract_y
 _atom_site_fract_z
 _atom_site_occupancy
  Li  Li0  1  0.85025300  0.06448800  0.38872900  1
  Li  Li1  1  0.15035400  0.43533800  0.11114800  1
  Li  Li2  1  0.65035100  0.18667600  0.85956100  1
  Li  Li3  1  0.34870200  0.31312900  0.63938000  1
  Li  Li4  1  0.64936600  0.68719100  0.35768600  1
  Li  Li5  1  0.34888600  0.81279700  0.14244600  1
  Li  Li6  1  0.84894400  0.56346800  0.89157900  1
  Li  Li7  1  0.15150200  0.93613100  0.60794300  1
  Mn  Mn0  1  0.66888000  0.27221600  0.04132000  1
  Mn  Mn1  1  0.16814900  0.02478400  0.78978300  1
  Mn  Mn2  1  0.83162600  0.47571700  0.71046800  1
  Mn  Mn3  1  0.66695600  0.77526900  0.53937900  1
  Mn  Mn4  1  0.33173600  0.72416200  0.96051300  1
  Fe  Fe0  1  0.33295000  0.22584800  0.46065800  1
  Fe  Fe1  1  0.17254000  0.52149800  0.29217800  1
  Fe  Fe2  1  0.83831400  0.97122200  0.20981700  1
  B  B0  1  0.33113500  0.03877800  0.29718400  1
  B  B1  1  0.82742000  0.28713100  0.54556600  1
  B  B2  1  0.67213300  0.46236000  0.20434400  1
  B  B3  1  0.16962200  0.21470800  0.95251300  1
  B  B4  1  0.83189400  0.78435900  0.04957100  1
  B  B5  1  0.33048100  0.53542100  0.79785200  1
  B  B6  1  0.16718600  0.71484200  0.45127200  1
  B  B7  1  0.66894700  0.96557800  0.70165700  1
  O  O0  1  0.59039500  0.01283900  0.30856400  1
  O  O1  1  0.18530200  0.17099500  0.34552400  1
  O  O2  1  0.70537400  0.17238800  0.48857700  1
  O  O3  1  0.28642300  0.33310200  0.00916900  1
  O  O4  1  0.78494900  0.08379300  0.75844200  1
  O  O5  1  0.81694200  0.32677100  0.15736100  1
  O  O6  1  0.31993200  0.08026900  0.90639500  1
  O  O7  1  0.08820700  0.26379500  0.55704400  1
  O  O8  1  0.40971500  0.48606300  0.19207100  1
  O  O9  1  0.91004800  0.23547000  0.93868700  1
  O  O10  1  0.68249500  0.41832400  0.59385300  1
  O  O11  1  0.21521900  0.41668500  0.74078100  1
  O  O12  1  0.79503500  0.58219200  0.25913600  1
  O  O13  1  0.31428700  0.57942800  0.40462500  1
  O  O14  1  0.09196100  0.76391700  0.06229600  1
  O  O15  1  0.58979500  0.51519400  0.81204300  1
  O  O16  1  0.90760900  0.73742600  0.43817000  1
  O  O17  1  0.68336800  0.91688400  0.09695500  1
  O  O18  1  0.17914600  0.66933800  0.84361500  1
  O  O19  1  0.20622100  0.92535100  0.24043000  1
  O  O20  1  0.71397800  0.66883700  0.99226200  1
  O  O21  1  0.28595200  0.83059700  0.50817400  1
  O  O22  1  0.82000800  0.83141600  0.65566600  1
  O  O23  1  0.40931100  0.98581500  0.68761200  1
loop_
_geom_bond_atom_site_label_1
_geom_bond_atom_site_label_2
_geom_bond_distance
_geom_bond_site_symmetry_2
Li0 O0 1.950412 1_555
Li0 O1 1.959693 1_655
Li0 O2 1.965841 1_555
Li0 O16 2.043440 1_545
Li1 O8 1.955734 1_555
Li1 O3 1.964603 1_555
Li1 O5 1.970808 1_455
Li1 O14 2.050086 1_555
Li2 O9 1.933678 1_555
Li2 O4 1.951351 1_555
Li2 O6 1.956538 1_555
Li2 O15 2.046025 1_555
Li3 O11 1.955118 1_555
Li3 O10 1.963219 1_555
Li3 O7 1.973897 1_555
Li3 O23 2.042300 1_545
Li4 O12 1.941550 1_555
Li4 O16 1.945857 1_555
Li4 O13 1.980930 1_555
Li4 O0 2.035565 1_565
Li5 O14 1.935109 1_555
Li5 O19 1.948160 1_555
Li5 O17 1.964371 1_555
Li5 O8 2.045072 1_555
Li6 O15 1.935469 1_555
Li6 O20 1.952325 1_555
Li6 O18 1.960752 1_655
Li6 O9 2.041976 1_555
Li7 O23 1.934151 1_555
Li7 O21 1.938857 1_555
Li7 O22 1.963440 1_455
Li7 O7 2.057602 1_565
Mn0 O3 2.089964 1_555
Mn0 O9 2.108458 1_554
Mn0 O5 2.112790 1_555
Mn0 O17 2.206997 1_545
Mn0 O20 2.426210 1_554
Mn1 O4 2.089154 1_455
Mn1 O23 2.105322 1_545
Mn1 O6 2.130327 1_555
Mn1 O18 2.199346 1_545
Mn1 O11 2.400365 1_555
Mn2 O11 2.087334 1_655
Mn2 O15 2.100385 1_555
Mn2 O10 2.128355 1_555
Mn2 O22 2.204978 1_555
Mn2 O4 2.397121 1_555
Mn3 O21 2.074909 1_555
Mn3 O16 2.089948 1_555
Mn3 O22 2.129234 1_555
Mn3 O10 2.211003 1_555
Mn3 O2 2.431175 1_565
Mn4 O20 2.083219 1_555
Mn4 O14 2.097096 1_556
Mn4 O18 2.135069 1_555
Mn4 O6 2.204315 1_565
Mn4 O3 2.393537 1_556
Fe0 O2 2.018319 1_555
Fe0 O7 2.041844 1_555
Fe0 O1 2.099002 1_555
Fe0 O13 2.199885 1_555
Fe0 O21 2.414861 1_545
Fe1 O13 2.052812 1_555
Fe1 O8 2.062030 1_555
Fe1 O12 2.068518 1_455
Fe1 O1 2.170110 1_555
Fe1 O19 2.470327 1_555
Fe2 O19 2.000678 1_655
Fe2 O17 2.079547 1_555
Fe2 O0 2.086395 1_565
Fe2 O5 2.195985 1_565
Fe2 O12 2.383019 1_555
B0 O0 1.375428 1_555
B0 O19 1.393831 1_545
B0 O1 1.405352 1_555
B1 O7 1.382300 1_655
B1 O2 1.394151 1_555
B1 O10 1.398361 1_555
B2 O12 1.388887 1_555
B2 O8 1.392661 1_555
B2 O5 1.401959 1_555
B3 O9 1.380702 1_455
B3 O3 1.390703 1_556
B3 O6 1.404322 1_555
B4 O14 1.380331 1_655
B4 O20 1.390736 1_554
B4 O17 1.404398 1_555
B5 O15 1.380164 1_555
B5 O11 1.393307 1_555
B5 O18 1.401765 1_555
B6 O16 1.379533 1_455
B6 O21 1.388731 1_555
B6 O13 1.404281 1_555
B7 O23 1.381429 1_555
B7 O4 1.389696 1_565
B7 O22 1.404153 1_555
