# generated using pymatgen
data_Li2Cr2(SO4)3
_symmetry_space_group_name_H-M   'P 1'
_cell_length_a   8.62601000
_cell_length_b   8.78089600
_cell_length_c   13.23570700
_cell_angle_alpha   90.00000000
_cell_angle_beta   90.00000000
_cell_angle_gamma   90.00000000
_symmetry_Int_Tables_number   1
_chemical_formula_structural   Li2Cr2(SO4)3
_chemical_formula_sum   'Li8 Cr8 S12 O48'
_cell_volume   1002.52667097
_cell_formula_units_Z   4
loop_
 _symmetry_equiv_pos_site_id
 _symmetry_equiv_pos_as_xyz
  1  'x, y, z'
loop_
 _atom_site_type_symbol
 _atom_site_label
 _atom_site_symmetry_multiplicity
 _atom_site_fract_x
 _atom_site_fract_y
 _atom_site_fract_z
 _atom_site_occupancy
  Li  Li0  1  0.22330400  0.27739100  0.18522600  1
  Li  Li1  1  0.77669600  0.77739100  0.18522600  1
  Li  Li2  1  0.27669600  0.77739100  0.31477400  1
  Li  Li3  1  0.72330400  0.27739100  0.31477400  1
  Li  Li4  1  0.27669600  0.72260900  0.68522600  1
  Li  Li5  1  0.72330400  0.22260900  0.68522600  1
  Li  Li6  1  0.22330400  0.22260900  0.81477400  1
  Li  Li7  1  0.77669600  0.72260900  0.81477400  1
  Cr  Cr0  1  0.24927600  0.96033800  0.10851700  1
  Cr  Cr1  1  0.75072400  0.46033800  0.10851700  1
  Cr  Cr2  1  0.74927600  0.96033800  0.39148300  1
  Cr  Cr3  1  0.25072400  0.46033800  0.39148300  1
  Cr  Cr4  1  0.25072400  0.03966200  0.60851700  1
  Cr  Cr5  1  0.74927600  0.53966200  0.60851700  1
  Cr  Cr6  1  0.24927600  0.53966200  0.89148300  1
  Cr  Cr7  1  0.75072400  0.03966200  0.89148300  1
  S  S0  1  0.45511700  0.25000000  0.00000000  1
  S  S1  1  0.54488300  0.75000000  0.00000000  1
  S  S2  1  0.09919500  0.60705800  0.14495800  1
  S  S3  1  0.90080500  0.10705800  0.14495800  1
  S  S4  1  0.40080500  0.10705800  0.35504200  1
  S  S5  1  0.59919500  0.60705800  0.35504200  1
  S  S6  1  0.04488300  0.75000000  0.50000000  1
  S  S7  1  0.95511700  0.25000000  0.50000000  1
  S  S8  1  0.40080500  0.39294200  0.64495800  1
  S  S9  1  0.59919500  0.89294200  0.64495800  1
  S  S10  1  0.09919500  0.89294200  0.85504200  1
  S  S11  1  0.90080500  0.39294200  0.85504200  1
  O  O0  1  0.13218300  0.58319100  0.03841100  1
  O  O1  1  0.86781700  0.08319100  0.03841100  1
  O  O2  1  0.54770700  0.36318800  0.05457600  1
  O  O3  1  0.45229300  0.86318800  0.05457600  1
  O  O4  1  0.35238900  0.17432200  0.07658700  1
  O  O5  1  0.64761100  0.67432200  0.07658700  1
  O  O6  1  0.07367200  0.11284500  0.16172900  1
  O  O7  1  0.92632800  0.61284500  0.16172900  1
  O  O8  1  0.16504600  0.75681500  0.18107100  1
  O  O9  1  0.83495400  0.25681500  0.18107100  1
  O  O10  1  0.83595400  0.98408700  0.20911900  1
  O  O11  1  0.16404600  0.48408700  0.20911900  1
  O  O12  1  0.33595400  0.98408700  0.29088100  1
  O  O13  1  0.66404600  0.48408700  0.29088100  1
  O  O14  1  0.66504600  0.75681500  0.31892900  1
  O  O15  1  0.33495400  0.25681500  0.31892900  1
  O  O16  1  0.42632800  0.61284500  0.33827100  1
  O  O17  1  0.57367200  0.11284500  0.33827100  1
  O  O18  1  0.14761100  0.67432200  0.42341300  1
  O  O19  1  0.85238900  0.17432200  0.42341300  1
  O  O20  1  0.04770700  0.36318800  0.44542400  1
  O  O21  1  0.95229300  0.86318800  0.44542400  1
  O  O22  1  0.63218300  0.58319100  0.46158900  1
  O  O23  1  0.36781700  0.08319100  0.46158900  1
  O  O24  1  0.36781700  0.41680900  0.53841100  1
  O  O25  1  0.63218300  0.91680900  0.53841100  1
  O  O26  1  0.04770700  0.13681200  0.55457600  1
  O  O27  1  0.95229300  0.63681200  0.55457600  1
  O  O28  1  0.14761100  0.82567800  0.57658700  1
  O  O29  1  0.85238900  0.32567800  0.57658700  1
  O  O30  1  0.42632800  0.88715500  0.66172900  1
  O  O31  1  0.57367200  0.38715500  0.66172900  1
  O  O32  1  0.33495400  0.24318500  0.68107100  1
  O  O33  1  0.66504600  0.74318500  0.68107100  1
  O  O34  1  0.33595400  0.51591300  0.70911900  1
  O  O35  1  0.66404600  0.01591300  0.70911900  1
  O  O36  1  0.16404600  0.01591300  0.79088100  1
  O  O37  1  0.83595400  0.51591300  0.79088100  1
  O  O38  1  0.16504600  0.74318500  0.81892900  1
  O  O39  1  0.83495400  0.24318500  0.81892900  1
  O  O40  1  0.07367200  0.38715500  0.83827100  1
  O  O41  1  0.92632800  0.88715500  0.83827100  1
  O  O42  1  0.35238900  0.32567800  0.92341300  1
  O  O43  1  0.64761100  0.82567800  0.92341300  1
  O  O44  1  0.45229300  0.63681200  0.94542400  1
  O  O45  1  0.54770700  0.13681200  0.94542400  1
  O  O46  1  0.13218300  0.91680900  0.96158900  1
  O  O47  1  0.86781700  0.41680900  0.96158900  1
loop_
_geom_bond_atom_site_label_1
_geom_bond_atom_site_label_2
_geom_bond_distance
_geom_bond_site_symmetry_2
Li0 O11 1.911918 1_555
Li0 O6 1.962224 1_555
Li0 O15 2.022837 1_555
Li0 O4 2.031390 1_555
Li1 O10 1.911918 1_555
Li1 O7 1.962224 1_555
Li1 O14 2.022837 1_555
Li1 O5 2.031390 1_555
Li2 O12 1.911918 1_555
Li2 O16 1.962224 1_555
Li2 O8 2.022837 1_555
Li2 O18 2.031390 1_555
Li3 O13 1.911918 1_555
Li3 O17 1.962224 1_555
Li3 O9 2.022837 1_555
Li3 O19 2.031390 1_555
Li4 O34 1.911918 1_555
Li4 O30 1.962224 1_555
Li4 O38 2.022837 1_555
Li4 O28 2.031390 1_555
Li5 O35 1.911918 1_555
Li5 O31 1.962224 1_555
Li5 O39 2.022837 1_555
Li5 O29 2.031390 1_555
Li6 O36 1.911918 1_555
Li6 O40 1.962224 1_555
Li6 O32 2.022837 1_555
Li6 O42 2.031390 1_555
Li7 O37 1.911918 1_555
Li7 O41 1.962224 1_555
Li7 O33 2.022837 1_555
Li7 O43 2.031390 1_555
Cr0 O3 2.074665 1_555
Cr0 O4 2.121383 1_565
Cr0 O6 2.140994 1_565
Cr0 O8 2.154962 1_555
Cr0 O46 2.224439 1_554
Cr0 O12 2.535458 1_555
Cr1 O2 2.074665 1_555
Cr1 O5 2.121383 1_555
Cr1 O7 2.140994 1_555
Cr1 O9 2.154962 1_555
Cr1 O47 2.224439 1_554
Cr1 O13 2.535458 1_555
Cr2 O21 2.074665 1_555
Cr2 O19 2.121383 1_565
Cr2 O17 2.140994 1_565
Cr2 O14 2.154962 1_555
Cr2 O25 2.224439 1_555
Cr2 O10 2.535458 1_555
Cr3 O20 2.074665 1_555
Cr3 O18 2.121383 1_555
Cr3 O16 2.140994 1_555
Cr3 O15 2.154962 1_555
Cr3 O24 2.224439 1_555
Cr3 O11 2.535458 1_555
Cr4 O26 2.074665 1_555
Cr4 O28 2.121383 1_545
Cr4 O30 2.140994 1_545
Cr4 O32 2.154962 1_555
Cr4 O23 2.224439 1_555
Cr4 O36 2.535458 1_555
Cr5 O27 2.074665 1_555
Cr5 O29 2.121383 1_555
Cr5 O31 2.140994 1_555
Cr5 O33 2.154962 1_555
Cr5 O22 2.224439 1_555
Cr5 O37 2.535458 1_555
Cr6 O44 2.074665 1_555
Cr6 O42 2.121383 1_555
Cr6 O40 2.140994 1_555
Cr6 O38 2.154962 1_555
Cr6 O0 2.224439 1_556
Cr6 O34 2.535458 1_555
Cr7 O45 2.074665 1_555
Cr7 O43 2.121383 1_545
Cr7 O41 2.140994 1_545
Cr7 O39 2.154962 1_555
Cr7 O1 2.224439 1_556
Cr7 O35 2.535458 1_555
O0 S2 1.453832 1_555
O1 S3 1.453832 1_555
O2 S0 1.465438 1_555
O3 S1 1.465438 1_555
O4 S0 1.501457 1_555
O5 S1 1.501457 1_555
O6 S3 1.508440 1_455
O7 S2 1.508440 1_655
O8 S2 1.510084 1_555
O9 S3 1.510084 1_555
O10 S3 1.483260 1_565
O11 S2 1.483260 1_555
O12 S4 1.483260 1_565
O13 S5 1.483260 1_555
O14 S5 1.510084 1_555
O15 S4 1.510084 1_555
O16 S5 1.508440 1_555
O17 S4 1.508440 1_555
O18 S6 1.501457 1_555
O19 S7 1.501457 1_555
O20 S7 1.465438 1_455
O21 S6 1.465438 1_655
O22 S5 1.453832 1_555
O23 S4 1.453832 1_555
O24 S8 1.453832 1_555
O25 S9 1.453832 1_555
O26 S7 1.465438 1_455
O27 S6 1.465438 1_655
O28 S6 1.501457 1_555
O29 S7 1.501457 1_555
O30 S9 1.508440 1_555
O31 S8 1.508440 1_555
O32 S8 1.510084 1_555
O33 S9 1.510084 1_555
O34 S8 1.483260 1_555
O35 S9 1.483260 1_545
O36 S10 1.483260 1_545
O37 S11 1.483260 1_555
O38 S10 1.510084 1_555
O39 S11 1.510084 1_555
O40 S11 1.508440 1_455
O41 S10 1.508440 1_655
O42 S0 1.501457 1_556
O43 S1 1.501457 1_556
O44 S1 1.465438 1_556
O45 S0 1.465438 1_556
O46 S10 1.453832 1_555
O47 S11 1.453832 1_555
