# generated using pymatgen
data_LiFeSiO4
_symmetry_space_group_name_H-M   'P 1'
_cell_length_a   10.34728200
_cell_length_b   10.34728200
_cell_length_c   17.29286117
_cell_angle_alpha   69.98702783
_cell_angle_beta   69.98702783
_cell_angle_gamma   57.38433276
_symmetry_Int_Tables_number   1
_chemical_formula_structural   LiFeSiO4
_chemical_formula_sum   'Li16 Fe16 Si16 O64'
_cell_volume   1435.93157804
_cell_formula_units_Z   16
loop_
 _symmetry_equiv_pos_site_id
 _symmetry_equiv_pos_as_xyz
  1  'x, y, z'
loop_
 _atom_site_type_symbol
 _atom_site_label
 _atom_site_symmetry_multiplicity
 _atom_site_fract_x
 _atom_site_fract_y
 _atom_site_fract_z
 _atom_site_occupancy
  Li  Li0  1  0.37177500  0.42484400  0.18470900  1
  Li  Li1  1  0.92284300  0.35754100  0.68799000  1
  Li  Li2  1  0.18666900  0.27880900  0.43386000  1
  Li  Li3  1  0.61047000  0.77591500  0.43688500  1
  Li  Li4  1  0.27775000  0.68717000  0.93416300  1
  Li  Li5  1  0.77643200  0.11054300  0.93689100  1
  Li  Li6  1  0.88160800  0.49779200  0.18675200  1
  Li  Li7  1  0.35754100  0.92284300  0.18799000  1
  Li  Li8  1  0.99964600  0.87024900  0.68802600  1
  Li  Li9  1  0.42484400  0.37177500  0.68470900  1
  Li  Li10  1  0.68717000  0.27775000  0.43416300  1
  Li  Li11  1  0.11054300  0.77643200  0.43689100  1
  Li  Li12  1  0.27880900  0.18666900  0.93386000  1
  Li  Li13  1  0.77591500  0.61047000  0.93688500  1
  Li  Li14  1  0.87024900  0.99964600  0.18802600  1
  Li  Li15  1  0.49779200  0.88160800  0.68675200  1
  Fe  Fe0  1  0.05326100  0.69789800  0.12166300  1
  Fe  Fe1  1  0.55011900  0.12512300  0.12130300  1
  Fe  Fe2  1  0.19860700  0.04656900  0.61891300  1
  Fe  Fe3  1  0.62379400  0.55899700  0.62584400  1
  Fe  Fe4  1  0.88023900  0.44134500  0.37696900  1
  Fe  Fe5  1  0.31196600  0.93953200  0.37642900  1
  Fe  Fe6  1  0.44125400  0.37880200  0.87555800  1
  Fe  Fe7  1  0.94120700  0.81131800  0.87787900  1
  Fe  Fe8  1  0.04656900  0.19860700  0.11891300  1
  Fe  Fe9  1  0.55899700  0.62379400  0.12584400  1
  Fe  Fe10  1  0.69789800  0.05326100  0.62166300  1
  Fe  Fe11  1  0.12512300  0.55011900  0.62130300  1
  Fe  Fe12  1  0.37880200  0.44125400  0.37555800  1
  Fe  Fe13  1  0.81131800  0.94120700  0.37787900  1
  Fe  Fe14  1  0.44134500  0.88023900  0.87696900  1
  Fe  Fe15  1  0.93953200  0.31196600  0.87642900  1
  Si  Si0  1  0.50074000  0.12678600  0.31305500  1
  Si  Si1  1  0.62655700  0.57256100  0.81108200  1
  Si  Si2  1  0.12934200  0.00020600  0.81236900  1
  Si  Si3  1  0.22833300  0.39221800  0.06038400  1
  Si  Si4  1  0.73327400  0.81138900  0.06336100  1
  Si  Si5  1  0.88928800  0.23253400  0.56166700  1
  Si  Si6  1  0.31363200  0.72976300  0.56242600  1
  Si  Si7  1  0.57256100  0.62655700  0.31108200  1
  Si  Si8  1  0.00020600  0.12934200  0.31236900  1
  Si  Si9  1  0.63244200  0.07258900  0.80982200  1
  Si  Si10  1  0.12678600  0.50074000  0.81305500  1
  Si  Si11  1  0.23253400  0.88928800  0.06166700  1
  Si  Si12  1  0.72976300  0.31363200  0.06242600  1
  Si  Si13  1  0.39221800  0.22833300  0.56038400  1
  Si  Si14  1  0.81138900  0.73327400  0.56336100  1
  Si  Si15  1  0.07258900  0.63244200  0.30982200  1
  O  O0  1  0.60085800  0.00127800  0.38735600  1
  O  O1  1  0.69258600  0.19440900  0.04088400  1
  O  O2  1  0.14812100  0.57898800  0.21773100  1
  O  O3  1  0.61240700  0.07239200  0.22334300  1
  O  O4  1  0.18813400  0.57737700  0.03670300  1
  O  O5  1  0.34699300  0.29701700  0.12795600  1
  O  O6  1  0.02486200  0.49837400  0.37715900  1
  O  O7  1  0.00179400  0.10085900  0.88630400  1
  O  O8  1  0.69146500  0.69816700  0.54056000  1
  O  O9  1  0.57490700  0.64830600  0.71854800  1
  O  O10  1  0.07124500  0.10808300  0.72259600  1
  O  O11  1  0.85601000  0.71867700  0.12901100  1
  O  O12  1  0.07402000  0.19454400  0.53781400  1
  O  O13  1  0.33427500  0.12097200  0.34304000  1
  O  O14  1  0.79126300  0.35222300  0.62912400  1
  O  O15  1  0.56385800  0.94619900  0.10548500  1
  O  O16  1  0.49219600  0.52620900  0.87854500  1
  O  O17  1  0.69886800  0.62853400  0.34802700  1
  O  O18  1  0.21569000  0.85079900  0.62858100  1
  O  O19  1  0.39288300  0.81223600  0.47512400  1
  O  O20  1  0.12389400  0.83310500  0.84301000  1
  O  O21  1  0.95521200  0.31438400  0.29803600  1
  O  O22  1  0.42525000  0.80531900  0.29738400  1
  O  O23  1  0.81799100  0.31794700  0.47559900  1
  O  O24  1  0.06554700  0.37898100  0.10238900  1
  O  O25  1  0.45109400  0.56553600  0.60627200  1
  O  O26  1  0.63133400  0.19826800  0.84909900  1
  O  O27  1  0.81250600  0.89338900  0.97565400  1
  O  O28  1  0.10085900  0.00179400  0.38630400  1
  O  O29  1  0.69816700  0.69146500  0.04056000  1
  O  O30  1  0.64830600  0.57490700  0.21854800  1
  O  O31  1  0.10808300  0.07124500  0.22259600  1
  O  O32  1  0.81376800  0.92797200  0.79507000  1
  O  O33  1  0.31333600  0.45035500  0.79800100  1
  O  O34  1  0.88200500  0.06659200  0.60215500  1
  O  O35  1  0.31624100  0.31908300  0.97475300  1
  O  O36  1  0.19454400  0.07402000  0.03781400  1
  O  O37  1  0.35222300  0.79126300  0.12912400  1
  O  O38  1  0.00127800  0.60085800  0.88735600  1
  O  O39  1  0.52620900  0.49219600  0.37854500  1
  O  O40  1  0.19440900  0.69258600  0.54088400  1
  O  O41  1  0.57898800  0.14812100  0.71773100  1
  O  O42  1  0.07239200  0.61240700  0.72334300  1
  O  O43  1  0.85079900  0.21568900  0.12858100  1
  O  O44  1  0.83310500  0.12389400  0.34301000  1
  O  O45  1  0.57737700  0.18813400  0.53670300  1
  O  O46  1  0.56553600  0.45109400  0.10627200  1
  O  O47  1  0.29701700  0.34699300  0.62795600  1
  O  O48  1  0.49837400  0.02486200  0.87715900  1
  O  O49  1  0.19826800  0.63133400  0.34909900  1
  O  O50  1  0.71867700  0.85601000  0.62901100  1
  O  O51  1  0.89338900  0.81250600  0.47565400  1
  O  O52  1  0.12097200  0.33427500  0.84304000  1
  O  O53  1  0.92797200  0.81376800  0.29507000  1
  O  O54  1  0.45035500  0.31333600  0.29800100  1
  O  O55  1  0.06659200  0.88200500  0.10215500  1
  O  O56  1  0.31908300  0.31624100  0.47475300  1
  O  O57  1  0.94619900  0.56385800  0.60548500  1
  O  O58  1  0.62853400  0.69886800  0.84802700  1
  O  O59  1  0.81223600  0.39288300  0.97512400  1
  O  O60  1  0.31438400  0.95521200  0.79803600  1
  O  O61  1  0.80532000  0.42525000  0.79738400  1
  O  O62  1  0.31794700  0.81799100  0.97559900  1
  O  O63  1  0.37898100  0.06554700  0.60238900  1
loop_
_geom_bond_atom_site_label_1
_geom_bond_atom_site_label_2
_geom_bond_distance
_geom_bond_site_symmetry_2
Li0 O2 1.991347 1_555
Li0 O5 2.050549 1_555
Li0 O54 2.088638 1_555
Li0 O46 2.099219 1_555
Li1 O14 1.990146 1_555
Li1 O61 1.990589 1_555
Li1 O10 2.162785 1_655
Li1 O57 2.210623 1_555
Li2 O12 1.984694 1_555
Li2 O56 1.987472 1_555
Li2 O6 2.103463 1_555
Li2 O13 2.211656 1_555
Li3 O8 1.969327 1_555
Li3 O19 1.971396 1_555
Li3 O0 2.149987 1_565
Li3 O17 2.159080 1_555
Li4 O4 1.981437 1_556
Li4 O62 1.998402 1_555
Li4 O16 2.067458 1_555
Li4 O20 2.190045 1_555
Li5 O27 1.968160 1_545
Li5 O1 1.982023 1_556
Li5 O26 2.128540 1_555
Li5 O7 2.150545 1_655
Li6 O24 2.016644 1_655
Li6 O30 2.020373 1_555
Li6 O11 2.063330 1_555
Li6 O21 2.197798 1_555
Li7 O37 1.990146 1_555
Li7 O22 1.990590 1_555
Li7 O31 2.162785 1_565
Li7 O15 2.210623 1_555
Li8 O18 2.044080 1_655
Li8 O34 2.078621 1_565
Li8 O32 2.136354 1_555
Li8 O42 2.256571 1_655
Li9 O41 1.991347 1_555
Li9 O47 2.050549 1_555
Li9 O33 2.088638 1_555
Li9 O25 2.099219 1_555
Li10 O45 1.981437 1_555
Li10 O23 1.998402 1_555
Li10 O39 2.067458 1_555
Li10 O44 2.190045 1_555
Li11 O51 1.968160 1_455
Li11 O40 1.982023 1_555
Li11 O49 2.128540 1_555
Li11 O28 2.150545 1_565
Li12 O36 1.984694 1_556
Li12 O35 1.987472 1_555
Li12 O48 2.103463 1_555
Li12 O52 2.211656 1_555
Li13 O29 1.969327 1_556
Li13 O59 1.971396 1_555
Li13 O38 2.149987 1_655
Li13 O58 2.159080 1_555
Li14 O43 2.044071 1_565
Li14 O55 2.078621 1_655
Li14 O53 2.136354 1_555
Li14 O3 2.256571 1_565
Li15 O63 2.016644 1_565
Li15 O9 2.020373 1_555
Li15 O50 2.063330 1_555
Li15 O60 2.197798 1_555
Fe0 O55 1.890352 1_555
Fe0 O11 1.896372 1_455
Fe0 O4 1.906798 1_555
Fe0 O2 1.911107 1_555
Fe1 O5 1.881214 1_555
Fe1 O15 1.886510 1_545
Fe1 O3 1.888685 1_555
Fe1 O1 1.916960 1_555
Fe2 O18 1.888129 1_545
Fe2 O63 1.896111 1_555
Fe2 O12 1.900780 1_555
Fe2 O10 1.901634 1_555
Fe3 O14 1.889749 1_555
Fe3 O25 1.892187 1_555
Fe3 O9 1.906532 1_555
Fe3 O8 1.914559 1_555
Fe4 O6 1.882611 1_655
Fe4 O17 1.893390 1_555
Fe4 O21 1.895983 1_555
Fe4 O23 1.896903 1_555
Fe5 O28 1.875815 1_565
Fe5 O13 1.882905 1_565
Fe5 O19 1.897204 1_555
Fe5 O22 1.902326 1_555
Fe6 O16 1.883134 1_555
Fe6 O26 1.890943 1_555
Fe6 O33 1.891520 1_555
Fe6 O35 1.901305 1_555
Fe7 O38 1.876649 1_655
Fe7 O20 1.890467 1_655
Fe7 O27 1.891014 1_555
Fe7 O32 1.907877 1_555
Fe8 O43 1.888134 1_455
Fe8 O24 1.896111 1_555
Fe8 O36 1.900780 1_555
Fe8 O31 1.901634 1_555
Fe9 O37 1.889749 1_555
Fe9 O46 1.892187 1_555
Fe9 O30 1.906532 1_555
Fe9 O29 1.914559 1_555
Fe10 O34 1.890352 1_555
Fe10 O50 1.896372 1_545
Fe10 O45 1.906798 1_555
Fe10 O41 1.911107 1_555
Fe11 O47 1.881214 1_555
Fe11 O57 1.886510 1_455
Fe11 O42 1.888685 1_555
Fe11 O40 1.916960 1_555
Fe12 O39 1.883134 1_555
Fe12 O49 1.890943 1_555
Fe12 O54 1.891520 1_555
Fe12 O56 1.901305 1_555
Fe13 O0 1.876649 1_565
Fe13 O44 1.890467 1_565
Fe13 O51 1.891014 1_555
Fe13 O53 1.907877 1_555
Fe14 O48 1.882611 1_565
Fe14 O58 1.893390 1_555
Fe14 O60 1.895983 1_555
Fe14 O62 1.896903 1_555
Fe15 O7 1.875815 1_655
Fe15 O52 1.882905 1_655
Fe15 O59 1.897204 1_555
Fe15 O61 1.902319 1_555
O0 Si0 1.652057 1_555
O1 Si12 1.653122 1_555
O2 Si15 1.654644 1_555
O3 Si0 1.651751 1_555
O4 Si3 1.652831 1_555
O5 Si3 1.653368 1_555
O6 Si15 1.662379 1_555
O7 Si2 1.654056 1_555
O8 Si14 1.657132 1_555
O9 Si1 1.654042 1_555
O10 Si2 1.657321 1_555
O11 Si4 1.658330 1_555
O12 Si5 1.655208 1_455
O13 Si0 1.648753 1_555
O14 Si5 1.657765 1_555
O15 Si4 1.653741 1_555
O16 Si1 1.658186 1_555
O17 Si7 1.651045 1_555
O18 Si6 1.650209 1_555
O19 Si6 1.644712 1_555
O20 Si2 1.652594 1_565
O21 Si8 1.654511 1_655
O22 Si7 1.645835 1_555
O23 Si5 1.639787 1_555
O24 Si3 1.651279 1_555
O25 Si6 1.654194 1_555
O26 Si9 1.654014 1_555
O27 Si4 1.646323 1_556
O28 Si8 1.654056 1_555
O29 Si4 1.657132 1_555
O30 Si7 1.654042 1_555
O31 Si8 1.657321 1_555
O32 Si9 1.652759 1_565
O33 Si10 1.652173 1_555
O34 Si5 1.650655 1_555
O35 Si3 1.641910 1_556
O36 Si11 1.655208 1_545
O37 Si11 1.657765 1_555
O38 Si10 1.652057 1_555
O39 Si7 1.658186 1_555
O40 Si6 1.653122 1_555
O41 Si9 1.654644 1_555
O42 Si10 1.651751 1_555
O43 Si12 1.650208 1_555
O44 Si8 1.652594 1_655
O45 Si13 1.652831 1_555
O46 Si12 1.654194 1_555
O47 Si13 1.653368 1_555
O48 Si9 1.662379 1_555
O49 Si15 1.654014 1_555
O50 Si14 1.658330 1_555
O51 Si14 1.646323 1_555
O52 Si10 1.648753 1_555
O53 Si15 1.652759 1_655
O54 Si0 1.652173 1_555
O55 Si11 1.650655 1_555
O56 Si13 1.641910 1_555
O57 Si14 1.653741 1_555
O58 Si1 1.651045 1_555
O59 Si12 1.644712 1_556
O60 Si2 1.654511 1_565
O61 Si1 1.645840 1_555
O62 Si11 1.639787 1_556
O63 Si13 1.651279 1_555
