# generated using pymatgen
data_Mn3CrTe2(PO4)6
_symmetry_space_group_name_H-M   'P 1'
_cell_length_a   8.78284345
_cell_length_b   8.78284345
_cell_length_c   8.78284314
_cell_angle_alpha   60.29347199
_cell_angle_beta   60.29347199
_cell_angle_gamma   60.29347365
_symmetry_Int_Tables_number   1
_chemical_formula_structural   Mn3CrTe2(PO4)6
_chemical_formula_sum   'Mn3 Cr1 Te2 P6 O24'
_cell_volume   482.24215458
_cell_formula_units_Z   1
loop_
 _symmetry_equiv_pos_site_id
 _symmetry_equiv_pos_as_xyz
  1  'x, y, z'
loop_
 _atom_site_type_symbol
 _atom_site_label
 _atom_site_symmetry_multiplicity
 _atom_site_fract_x
 _atom_site_fract_y
 _atom_site_fract_z
 _atom_site_occupancy
  Mn  Mn0  1  0.84497900  0.84497900  0.84497900  1
  Mn  Mn1  1  0.65378400  0.65378400  0.65378400  1
  Mn  Mn2  1  0.34931200  0.34931200  0.34931200  1
  Cr  Cr0  1  0.14566200  0.14566200  0.14566200  1
  Te  Te0  1  0.99267400  0.99267400  0.99267400  1
  Te  Te1  1  0.49934100  0.49934100  0.49934100  1
  P  P0  1  0.95626300  0.24996800  0.54184800  1
  P  P1  1  0.54184800  0.95626300  0.24996800  1
  P  P2  1  0.24996800  0.54184800  0.95626300  1
  P  P3  1  0.75322200  0.44709200  0.05314800  1
  P  P4  1  0.44709200  0.05314800  0.75322200  1
  P  P5  1  0.05314800  0.75322200  0.44709200  1
  O  O0  1  0.90580700  0.69243400  0.47423000  1
  O  O1  1  0.69243400  0.47423000  0.90580700  1
  O  O2  1  0.93533000  0.08804600  0.74443800  1
  O  O3  1  0.47423000  0.90580700  0.69243400  1
  O  O4  1  0.75612200  0.40124600  0.56568500  1
  O  O5  1  0.00048400  0.17999700  0.39321600  1
  O  O6  1  0.74443800  0.93533000  0.08804600  1
  O  O7  1  0.56568500  0.75612200  0.40124600  1
  O  O8  1  0.40124600  0.56568500  0.75612200  1
  O  O9  1  0.81060200  0.60030200  0.02044600  1
  O  O10  1  0.91290500  0.25129700  0.07757500  1
  O  O11  1  0.60030200  0.02044600  0.81060200  1
  O  O12  1  0.39321600  0.00048400  0.17999700  1
  O  O13  1  0.08804600  0.74443800  0.93533000  1
  O  O14  1  0.17999700  0.39321600  0.00048400  1
  O  O15  1  0.59460000  0.42472600  0.25234400  1
  O  O16  1  0.42472600  0.25234400  0.59460000  1
  O  O17  1  0.25129700  0.07757500  0.91290500  1
  O  O18  1  0.02044600  0.81060200  0.60030200  1
  O  O19  1  0.25234400  0.59460000  0.42472600  1
  O  O20  1  0.51494000  0.09957300  0.31636200  1
  O  O21  1  0.07757500  0.91290500  0.25129700  1
  O  O22  1  0.31636200  0.51494000  0.09957300  1
  O  O23  1  0.09957300  0.31636200  0.51494000  1
loop_
_geom_bond_atom_site_label_1
_geom_bond_atom_site_label_2
_geom_bond_distance
_geom_bond_site_symmetry_2
Mn0 O18 1.995930 1_655
Mn0 O9 1.995930 1_556
Mn0 O11 1.995931 1_565
Mn0 O6 2.254562 1_556
Mn0 O2 2.254562 1_565
Mn0 O13 2.254562 1_655
Mn1 O1 2.063041 1_555
Mn1 O0 2.063041 1_555
Mn1 O3 2.063041 1_555
Mn1 O7 2.315578 1_555
Mn1 O8 2.315578 1_555
Mn1 O4 2.315578 1_555
Mn2 O22 2.015054 1_555
Mn2 O23 2.015054 1_555
Mn2 O20 2.015054 1_555
Mn2 O16 2.200423 1_555
Mn2 O15 2.200423 1_555
Mn2 O19 2.200423 1_555
Cr0 O5 1.991253 1_555
Cr0 O14 1.991253 1_555
Cr0 O12 1.991253 1_555
Cr0 O17 2.044348 1_554
Cr0 O21 2.044348 1_545
Cr0 O10 2.044348 1_455
O0 P5 1.506456 1_655
O1 P3 1.506456 1_556
O2 P0 1.627638 1_555
O2 Te0 2.137478 1_545
O3 P4 1.506456 1_565
O4 P0 1.579626 1_555
O4 Te1 2.246586 1_555
O5 P0 1.512830 1_455
O6 P1 1.627638 1_555
O6 Te0 2.137478 1_554
O7 P1 1.579626 1_555
O7 Te1 2.246586 1_555
O8 P2 1.579626 1_555
O8 Te1 2.246586 1_555
O9 P3 1.514187 1_555
O10 P3 1.585039 1_555
O10 Te0 2.406247 1_544
O11 P4 1.514187 1_555
O12 P1 1.512830 1_545
O13 P2 1.627638 1_555
O13 Te0 2.137478 1_455
O14 P2 1.512830 1_554
O15 P3 1.598494 1_555
O15 Te1 2.214093 1_555
O16 P4 1.598494 1_555
O16 Te1 2.214094 1_555
O17 P4 1.585039 1_555
O17 Te0 2.406247 1_445
O18 P5 1.514187 1_555
O19 P5 1.598494 1_555
O19 Te1 2.214094 1_555
O20 P1 1.508701 1_545
O21 P5 1.585039 1_555
O21 Te0 2.406247 1_454
O22 P2 1.508701 1_554
O23 P0 1.508701 1_455
