# generated using pymatgen
data_Li2Fe(CO3)2
_symmetry_space_group_name_H-M   'P 1'
_cell_length_a   9.70986300
_cell_length_b   7.60409700
_cell_length_c   9.19804441
_cell_angle_alpha   58.72892913
_cell_angle_beta   90.00000000
_cell_angle_gamma   90.00000000
_symmetry_Int_Tables_number   1
_chemical_formula_structural   Li2Fe(CO3)2
_chemical_formula_sum   'Li8 Fe4 C8 O24'
_cell_volume   580.47115407
_cell_formula_units_Z   4
loop_
 _symmetry_equiv_pos_site_id
 _symmetry_equiv_pos_as_xyz
  1  'x, y, z'
loop_
 _atom_site_type_symbol
 _atom_site_label
 _atom_site_symmetry_multiplicity
 _atom_site_fract_x
 _atom_site_fract_y
 _atom_site_fract_z
 _atom_site_occupancy
  Li  Li0  1  0.60363600  0.62541700  0.35091500  1
  Li  Li1  1  0.72211700  0.05368700  0.79966500  1
  Li  Li2  1  0.10363600  0.37458300  0.14908500  1
  Li  Li3  1  0.22211700  0.94631300  0.70033500  1
  Li  Li4  1  0.77788300  0.05368700  0.29966500  1
  Li  Li5  1  0.89636400  0.62541700  0.85091500  1
  Li  Li6  1  0.27788300  0.94631300  0.20033500  1
  Li  Li7  1  0.39636400  0.37458300  0.64908500  1
  Fe  Fe0  1  0.13025900  0.52177700  0.43455700  1
  Fe  Fe1  1  0.63025900  0.47822300  0.06544300  1
  Fe  Fe2  1  0.36974100  0.52177700  0.93455700  1
  Fe  Fe3  1  0.86974100  0.47822300  0.56544300  1
  C  C0  1  0.88498000  0.53211500  0.21985700  1
  C  C1  1  0.38498000  0.46788500  0.28014300  1
  C  C2  1  0.00066800  0.07641200  0.66085400  1
  C  C3  1  0.50066800  0.92358800  0.83914600  1
  C  C4  1  0.49933200  0.07641200  0.16085400  1
  C  C5  1  0.99933200  0.92358800  0.33914600  1
  C  C6  1  0.61502000  0.53211500  0.71985700  1
  C  C7  1  0.11502000  0.46788500  0.78014300  1
  O  O0  1  0.33850000  0.46472800  0.41283600  1
  O  O1  1  0.80038500  0.52045500  0.33307200  1
  O  O2  1  0.01745600  0.53750400  0.23750600  1
  O  O3  1  0.51745600  0.46249600  0.26249400  1
  O  O4  1  0.30038500  0.47954500  0.16692800  1
  O  O5  1  0.83850000  0.53527200  0.08716400  1
  O  O6  1  0.88378900  0.16001500  0.66579300  1
  O  O7  1  0.51541800  0.11894300  0.76016700  1
  O  O8  1  0.10644600  0.19155900  0.57785800  1
  O  O9  1  0.60644600  0.80844100  0.92214200  1
  O  O10  1  0.01541800  0.88105700  0.73983300  1
  O  O11  1  0.38378900  0.83998500  0.83420700  1
  O  O12  1  0.61621100  0.16001500  0.16579300  1
  O  O13  1  0.98458200  0.11894300  0.26016700  1
  O  O14  1  0.39355400  0.19155900  0.07785800  1
  O  O15  1  0.89355400  0.80844100  0.42214200  1
  O  O16  1  0.48458200  0.88105700  0.23983300  1
  O  O17  1  0.11621100  0.83998500  0.33420700  1
  O  O18  1  0.16150000  0.46472800  0.91283600  1
  O  O19  1  0.69961500  0.52045500  0.83307200  1
  O  O20  1  0.48254400  0.53750400  0.73750600  1
  O  O21  1  0.98254400  0.46249600  0.76249400  1
  O  O22  1  0.19961500  0.47954500  0.66692800  1
  O  O23  1  0.66150000  0.53527200  0.58716400  1
loop_
_geom_bond_atom_site_label_1
_geom_bond_atom_site_label_2
_geom_bond_distance
_geom_bond_site_symmetry_2
Li0 O3 1.985576 1_555
Li0 O23 1.990274 1_555
Li0 O16 2.024125 1_555
Li0 O1 2.109409 1_555
Li1 O6 1.897547 1_555
Li1 O9 1.956338 1_545
Li1 O7 2.054065 1_555
Li2 O2 1.985576 1_555
Li2 O18 1.990274 1_554
Li2 O13 2.024125 1_455
Li2 O4 2.109409 1_555
Li3 O11 1.897547 1_555
Li3 O8 1.956338 1_565
Li3 O10 2.054065 1_555
Li4 O12 1.897547 1_555
Li4 O15 1.956338 1_545
Li4 O13 2.054065 1_555
Li5 O21 1.985576 1_555
Li5 O5 1.990274 1_556
Li5 O10 2.024125 1_655
Li5 O19 2.109409 1_555
Li6 O17 1.897547 1_555
Li6 O14 1.956338 1_565
Li6 O16 2.054065 1_555
Li7 O20 1.985576 1_555
Li7 O0 1.990274 1_555
Li7 O7 2.024125 1_555
Li7 O22 2.109409 1_555
Fe0 O2 2.067379 1_555
Fe0 O0 2.099174 1_555
Fe0 O17 2.099229 1_555
Fe0 O22 2.100562 1_555
Fe0 O8 2.158682 1_555
Fe1 O3 2.067379 1_555
Fe1 O5 2.099174 1_555
Fe1 O12 2.099229 1_555
Fe1 O19 2.100562 1_554
Fe1 O9 2.158682 1_554
Fe2 O20 2.067379 1_555
Fe2 O18 2.099174 1_555
Fe2 O11 2.099229 1_555
Fe2 O4 2.100562 1_556
Fe2 O14 2.158682 1_556
Fe3 O21 2.067379 1_555
Fe3 O23 2.099174 1_555
Fe3 O6 2.099229 1_555
Fe3 O1 2.100562 1_555
Fe3 O15 2.158682 1_555
C0 O5 1.289768 1_555
C0 O1 1.292725 1_555
C0 O2 1.299834 1_655
C1 O0 1.289768 1_555
C1 O4 1.292725 1_555
C1 O3 1.299834 1_555
C2 O10 1.278519 1_545
C2 O8 1.307826 1_555
C2 O6 1.313067 1_455
C3 O7 1.278519 1_565
C3 O9 1.307826 1_555
C3 O11 1.313067 1_555
C4 O16 1.278519 1_545
C4 O14 1.307826 1_555
C4 O12 1.313067 1_555
C5 O13 1.278519 1_565
C5 O15 1.307826 1_555
C5 O17 1.313067 1_655
C6 O23 1.289768 1_555
C6 O19 1.292725 1_555
C6 O20 1.299834 1_555
C7 O18 1.289768 1_555
C7 O22 1.292725 1_555
C7 O21 1.299834 1_455
