# generated using pymatgen
data_Na6NiO4
_symmetry_space_group_name_H-M   'P 1'
_cell_length_a   7.65423740
_cell_length_b   7.65226020
_cell_length_c   11.81658859
_cell_angle_alpha   89.94692279
_cell_angle_beta   90.05395389
_cell_angle_gamma   60.06131077
_symmetry_Int_Tables_number   1
_chemical_formula_structural   Na6NiO4
_chemical_formula_sum   'Na24 Ni4 O16'
_cell_volume   599.76570165
_cell_formula_units_Z   4
loop_
 _symmetry_equiv_pos_site_id
 _symmetry_equiv_pos_as_xyz
  1  'x, y, z'
loop_
 _atom_site_type_symbol
 _atom_site_label
 _atom_site_symmetry_multiplicity
 _atom_site_fract_x
 _atom_site_fract_y
 _atom_site_fract_z
 _atom_site_occupancy
  Na  Na0  1  0.28294100  0.85852400  0.48310400  1
  Na  Na1  1  0.28297700  0.85890800  0.98387200  1
  Na  Na2  1  0.85829100  0.28398100  0.48329700  1
  Na  Na3  1  0.85849300  0.28319000  0.98346100  1
  Na  Na4  1  0.14294800  0.14241200  0.23443600  1
  Na  Na5  1  0.14219300  0.14184300  0.73339100  1
  Na  Na6  1  0.85790800  0.85734000  0.48333200  1
  Na  Na7  1  0.85760900  0.85833600  0.98402600  1
  Na  Na8  1  0.14149100  0.71675400  0.23386500  1
  Na  Na9  1  0.14107600  0.71761300  0.73348600  1
  Na  Na10  1  0.71574900  0.14169200  0.23401400  1
  Na  Na11  1  0.71691700  0.14117400  0.73316900  1
  Na  Na12  1  0.53946500  0.53897700  0.31680900  1
  Na  Na13  1  0.53855500  0.53730000  0.81717200  1
  Na  Na14  1  0.53706500  0.92647000  0.31797800  1
  Na  Na15  1  0.53544900  0.92953600  0.81833600  1
  Na  Na16  1  0.92319500  0.53845900  0.31693700  1
  Na  Na17  1  0.92432400  0.53750000  0.81681300  1
  Na  Na18  1  0.07440600  0.46240800  0.06869100  1
  Na  Na19  1  0.07143200  0.46361100  0.56804900  1
  Na  Na20  1  0.46133200  0.07730100  0.06758600  1
  Na  Na21  1  0.46204700  0.07540700  0.56626900  1
  Na  Na22  1  0.46214700  0.46135800  0.06829800  1
  Na  Na23  1  0.46339700  0.46243300  0.56771500  1
  Ni  Ni0  1  0.66514500  0.66884400  0.62277900  1
  Ni  Ni1  1  0.33230700  0.33529900  0.87087400  1
  Ni  Ni2  1  0.66616500  0.66721700  0.11926500  1
  Ni  Ni3  1  0.33330000  0.33521000  0.37239600  1
  O  O0  1  0.66803200  0.66474200  0.45495100  1
  O  O1  1  0.66890100  0.66444100  0.95084400  1
  O  O2  1  0.33411700  0.33228900  0.20393100  1
  O  O3  1  0.33774700  0.32614800  0.70330200  1
  O  O4  1  0.38089900  0.80967800  0.17981400  1
  O  O5  1  0.37519500  0.80946100  0.67755800  1
  O  O6  1  0.80979500  0.38023300  0.17838300  1
  O  O7  1  0.81151300  0.37956700  0.67730700  1
  O  O8  1  0.80940000  0.80973400  0.17912600  1
  O  O9  1  0.81604300  0.80679700  0.67701800  1
  O  O10  1  0.19197100  0.18793200  0.42737800  1
  O  O11  1  0.19145100  0.18816500  0.92722800  1
  O  O12  1  0.18610000  0.62423300  0.42754700  1
  O  O13  1  0.18827700  0.62358300  0.92987500  1
  O  O14  1  0.62226100  0.18498700  0.42676700  1
  O  O15  1  0.62037000  0.18851300  0.92714800  1
loop_
_geom_bond_atom_site_label_1
_geom_bond_atom_site_label_2
_geom_bond_distance
_geom_bond_site_symmetry_2
Na0 O10 2.348741 1_565
Na0 O12 2.350001 1_555
Na0 O5 2.376997 1_555
Na0 O0 2.576389 1_555
Na1 O13 2.340820 1_555
Na1 O11 2.349711 1_565
Na1 O4 2.403725 1_556
Na1 O1 2.590023 1_555
Na2 O10 2.372852 1_655
Na2 O14 2.376693 1_555
Na2 O7 2.379534 1_555
Na2 O0 2.546467 1_555
Na3 O15 2.367783 1_555
Na3 O11 2.370587 1_655
Na3 O6 2.392518 1_556
Na3 O1 2.556731 1_555
Na4 O10 2.364419 1_555
Na4 O4 2.365007 1_545
Na4 O6 2.369761 1_455
Na4 O2 2.550370 1_555
Na5 O7 2.356619 1_455
Na5 O5 2.358561 1_545
Na5 O11 2.376432 1_555
Na5 O3 2.542274 1_555
Na6 O12 2.336558 1_655
Na6 O14 2.338172 1_565
Na6 O9 2.369368 1_555
Na6 O0 2.556331 1_555
Na7 O13 2.347213 1_655
Na7 O15 2.355401 1_565
Na7 O8 2.392995 1_556
Na7 O1 2.565291 1_555
Na8 O4 2.360839 1_555
Na8 O8 2.361509 1_455
Na8 O12 2.368553 1_555
Na8 O2 2.574436 1_555
Na9 O5 2.323910 1_555
Na9 O9 2.324184 1_455
Na9 O13 2.401983 1_555
Na9 O3 2.620840 1_555
Na10 O8 2.360862 1_545
Na10 O14 2.361671 1_555
Na10 O6 2.364858 1_555
Na10 O2 2.555578 1_555
Na11 O7 2.367477 1_555
Na11 O9 2.372629 1_545
Na11 O15 2.380946 1_555
Na11 O3 2.539274 1_555
Na12 O0 2.346151 1_555
Na12 O4 2.421824 1_555
Na12 O6 2.435952 1_555
Na12 O12 2.774974 1_555
Na12 O14 2.775973 1_555
Na13 O1 2.325015 1_555
Na13 O5 2.452155 1_555
Na13 O7 2.458980 1_555
Na13 O15 2.743776 1_555
Na13 O13 2.763929 1_555
Na14 O0 2.371248 1_555
Na14 O4 2.440978 1_555
Na14 O8 2.446588 1_555
Na14 O14 2.698518 1_565
Na14 O10 2.718002 1_565
Na15 O1 2.352242 1_555
Na15 O5 2.498027 1_555
Na15 O9 2.505923 1_555
Na15 O15 2.700377 1_565
Na15 O11 2.704650 1_565
Na16 O0 2.352253 1_555
Na16 O8 2.430240 1_555
Na16 O6 2.439252 1_555
Na16 O12 2.739282 1_655
Na16 O10 2.758763 1_655
Na17 O1 2.321066 1_555
Na17 O9 2.438983 1_555
Na17 O7 2.442604 1_555
Na17 O11 2.749875 1_655
Na17 O13 2.761456 1_655
Na18 O2 2.347843 1_555
Na18 O13 2.458346 1_554
Na18 O11 2.476619 1_554
Na18 O6 2.729915 1_455
Na18 O8 2.740746 1_455
Na19 O3 2.380452 1_555
Na19 O12 2.472507 1_555
Na19 O10 2.476135 1_555
Na19 O9 2.694969 1_455
Na19 O7 2.705345 1_455
Na20 O2 2.337422 1_555
Na20 O11 2.445295 1_554
Na20 O15 2.448522 1_554
Na20 O8 2.751531 1_545
Na20 O4 2.754390 1_545
Na21 O3 2.322773 1_555
Na21 O10 2.433665 1_555
Na21 O14 2.439669 1_555
Na21 O5 2.767666 1_545
Na21 O9 2.776434 1_545
Na22 O2 2.338945 1_555
Na22 O13 2.450138 1_554
Na22 O15 2.468652 1_554
Na22 O6 2.738885 1_555
Na22 O4 2.753406 1_555
Na23 O3 2.362309 1_555
Na23 O12 2.479484 1_555
Na23 O14 2.488695 1_555
Na23 O5 2.722315 1_555
Na23 O7 2.735783 1_555
Ni0 O0 1.983401 1_555
Ni0 O9 2.018939 1_555
Ni0 O7 2.022632 1_555
Ni0 O5 2.030437 1_555
Ni1 O3 1.981174 1_555
Ni1 O11 2.021165 1_555
Ni1 O15 2.022191 1_555
Ni1 O13 2.035875 1_555
Ni2 O1 1.990313 1_554
Ni2 O8 2.021166 1_555
Ni2 O4 2.023969 1_555
Ni2 O6 2.026143 1_555
Ni3 O2 1.990808 1_555
Ni3 O10 2.019739 1_555
Ni3 O14 2.020970 1_555
Ni3 O12 2.025453 1_555
