# generated using pymatgen
data_KPH3NO3
_symmetry_space_group_name_H-M   'P 1'
_cell_length_a   10.51352200
_cell_length_b   6.88488300
_cell_length_c   13.58158079
_cell_angle_alpha   63.57358249
_cell_angle_beta   90.00000000
_cell_angle_gamma   90.00000000
_symmetry_Int_Tables_number   1
_chemical_formula_structural   KPH3NO3
_chemical_formula_sum   'K8 P8 H24 N8 O24'
_cell_volume   880.36735863
_cell_formula_units_Z   8
loop_
 _symmetry_equiv_pos_site_id
 _symmetry_equiv_pos_as_xyz
  1  'x, y, z'
loop_
 _atom_site_type_symbol
 _atom_site_label
 _atom_site_symmetry_multiplicity
 _atom_site_fract_x
 _atom_site_fract_y
 _atom_site_fract_z
 _atom_site_occupancy
  K  K0  1  0.82258400  0.81340500  0.71203000  1
  K  K1  1  0.32258400  0.18659500  0.78797000  1
  K  K2  1  0.17741600  0.18659500  0.28797000  1
  K  K3  1  0.67741600  0.81340500  0.21203000  1
  K  K4  1  0.83636000  0.31697100  0.43077000  1
  K  K5  1  0.33636000  0.68302900  0.06923000  1
  K  K6  1  0.16364000  0.68302900  0.56923000  1
  K  K7  1  0.66364000  0.31697100  0.93077000  1
  P  P0  1  0.02710600  0.74986100  0.18321300  1
  P  P1  1  0.52710600  0.25013900  0.31678700  1
  P  P2  1  0.97289400  0.25013900  0.81678700  1
  P  P3  1  0.47289400  0.74986100  0.68321300  1
  P  P4  1  0.12370900  0.20494800  0.02109400  1
  P  P5  1  0.62370900  0.79505200  0.47890600  1
  P  P6  1  0.87629100  0.79505200  0.97890600  1
  P  P7  1  0.37629100  0.20494800  0.52109400  1
  H  H0  1  0.96047700  0.42937300  0.92486300  1
  H  H1  1  0.46047700  0.57062700  0.57513700  1
  H  H2  1  0.03952300  0.57062700  0.07513700  1
  H  H3  1  0.53952300  0.42937300  0.42486300  1
  H  H4  1  0.95730700  0.08958800  0.14373800  1
  H  H5  1  0.45730700  0.91041200  0.35626200  1
  H  H6  1  0.04269300  0.91041200  0.85626200  1
  H  H7  1  0.54269300  0.08958800  0.64373800  1
  H  H8  1  0.11002100  0.13290200  0.55034700  1
  H  H9  1  0.61002100  0.86709800  0.94965300  1
  H  H10  1  0.88997900  0.86709800  0.44965300  1
  H  H11  1  0.38997900  0.13290200  0.05034700  1
  H  H12  1  0.04127800  0.18353900  0.63849600  1
  H  H13  1  0.54127800  0.81646100  0.86150400  1
  H  H14  1  0.95872200  0.81646100  0.36150400  1
  H  H15  1  0.45872200  0.18353900  0.13849600  1
  H  H16  1  0.18482400  0.63144600  0.91672400  1
  H  H17  1  0.68482400  0.36855400  0.58327600  1
  H  H18  1  0.81517600  0.36855400  0.08327600  1
  H  H19  1  0.31517600  0.63144600  0.41672400  1
  H  H20  1  0.25758000  0.72429100  0.80469900  1
  H  H21  1  0.75758000  0.27570900  0.69530100  1
  H  H22  1  0.74242000  0.27570900  0.19530100  1
  H  H23  1  0.24242000  0.72429100  0.30469900  1
  N  N0  1  0.02010100  0.31750000  0.91611400  1
  N  N1  1  0.52010100  0.68250000  0.58388600  1
  N  N2  1  0.97989900  0.68250000  0.08388600  1
  N  N3  1  0.47989900  0.31750000  0.41611400  1
  N  N4  1  0.03907000  0.02308800  0.12930900  1
  N  N5  1  0.53907000  0.97691200  0.37069100  1
  N  N6  1  0.96093000  0.97691200  0.87069100  1
  N  N7  1  0.46093000  0.02308800  0.62930900  1
  O  O0  1  0.15531100  0.63977600  0.22018700  1
  O  O1  1  0.65531100  0.36022400  0.27981300  1
  O  O2  1  0.84468900  0.36022400  0.77981300  1
  O  O3  1  0.34468900  0.63977600  0.72018700  1
  O  O4  1  0.92512900  0.69570600  0.27100700  1
  O  O5  1  0.42512900  0.30429400  0.22899300  1
  O  O6  1  0.07487100  0.30429400  0.72899300  1
  O  O7  1  0.57487100  0.69570600  0.77100700  1
  O  O8  1  0.23013500  0.08763700  0.99507200  1
  O  O9  1  0.73013500  0.91236300  0.50492800  1
  O  O10  1  0.76986500  0.91236300  0.00492800  1
  O  O11  1  0.26986500  0.08763700  0.49507200  1
  O  O12  1  0.15933600  0.38898900  0.04959000  1
  O  O13  1  0.65933600  0.61101100  0.45041000  1
  O  O14  1  0.84066400  0.61101100  0.95041000  1
  O  O15  1  0.34066400  0.38898900  0.54959000  1
  O  O16  1  0.02571400  0.12902400  0.58278900  1
  O  O17  1  0.52571400  0.87097600  0.91721100  1
  O  O18  1  0.97428600  0.87097600  0.41721100  1
  O  O19  1  0.47428600  0.12902400  0.08278900  1
  O  O20  1  0.21357000  0.76972700  0.85609800  1
  O  O21  1  0.71357000  0.23027300  0.64390200  1
  O  O22  1  0.78643000  0.23027300  0.14390200  1
  O  O23  1  0.28643000  0.76972700  0.35609800  1
loop_
_geom_bond_atom_site_label_1
_geom_bond_atom_site_label_2
_geom_bond_distance
_geom_bond_site_symmetry_2
K0 O7 2.739174 1_555
K0 O9 2.759498 1_555
K0 O21 2.836082 1_565
K0 O2 2.842507 1_555
K0 O14 2.905883 1_555
K0 O16 2.994791 1_665
K1 O6 2.739174 1_555
K1 O8 2.759498 1_555
K1 O20 2.836082 1_545
K1 O3 2.842507 1_555
K1 O15 2.905883 1_555
K1 O17 2.994791 1_545
K2 O5 2.739174 1_555
K2 O11 2.759498 1_555
K2 O23 2.836082 1_545
K2 O0 2.842507 1_555
K2 O12 2.905883 1_555
K2 O18 2.994791 1_445
K3 O4 2.739174 1_555
K3 O10 2.759498 1_555
K3 O22 2.836082 1_565
K3 O1 2.842507 1_555
K3 O13 2.905883 1_555
K3 O19 2.994791 1_565
K4 O4 2.709680 1_555
K4 O1 2.715119 1_555
K4 O16 2.742699 1_655
K4 O9 2.743051 1_545
K4 O13 2.848506 1_555
K4 O21 2.977251 1_555
K5 O5 2.709680 1_555
K5 O0 2.715119 1_555
K5 O17 2.742699 1_554
K5 O8 2.743051 1_564
K5 O12 2.848506 1_555
K5 O20 2.977251 1_554
K6 O6 2.709680 1_555
K6 O3 2.715119 1_555
K6 O18 2.742699 1_455
K6 O11 2.743051 1_565
K6 O15 2.848506 1_555
K6 O23 2.977251 1_555
K7 O7 2.709680 1_555
K7 O2 2.715119 1_555
K7 O19 2.742699 1_556
K7 O10 2.743051 1_546
K7 O14 2.848506 1_555
K7 O22 2.977251 1_556
H0 N0 1.040093 1_655
H1 N1 1.040093 1_555
H2 N2 1.040093 1_455
H3 N3 1.040093 1_555
H4 N4 1.032874 1_655
H5 N5 1.032874 1_555
H6 N6 1.032874 1_455
H7 N7 1.032874 1_555
H8 O16 0.984897 1_555
H8 K6 3.044655 1_545
H9 O17 0.984897 1_555
H9 K7 3.044655 1_565
H10 O18 0.984897 1_555
H10 K4 3.044655 1_565
H11 O19 0.984897 1_555
H11 K5 3.044655 1_545
H12 O16 0.996411 1_555
H13 O17 0.996411 1_555
H14 O18 0.996411 1_555
H15 O19 0.996411 1_555
H16 O20 0.988918 1_555
H16 K5 2.758489 1_556
H17 O21 0.988918 1_555
H17 K4 2.758489 1_555
H18 O22 0.988918 1_555
H18 K7 2.758489 1_554
H19 O23 0.988918 1_555
H19 K6 2.758489 1_555
H20 O20 0.996814 1_555
H21 O21 0.996814 1_555
H22 O22 0.996814 1_555
H23 O23 0.996814 1_555
N0 P4 1.684186 1_556
N0 P2 1.684677 1_455
N1 P5 1.684186 1_555
N1 P3 1.684677 1_555
N2 P6 1.684186 1_554
N2 P0 1.684677 1_655
N3 P7 1.684186 1_555
N3 P1 1.684677 1_555
N4 P0 1.692525 1_545
N4 P4 1.697553 1_555
N5 P1 1.692525 1_565
N5 P5 1.697553 1_555
N6 P2 1.692525 1_565
N6 P6 1.697553 1_555
N7 P3 1.692525 1_545
N7 P7 1.697553 1_555
O0 P0 1.518104 1_555
O1 P1 1.518104 1_555
O2 P2 1.518104 1_555
O3 P3 1.518104 1_555
O4 P0 1.521365 1_655
O5 P1 1.521365 1_555
O6 P2 1.521365 1_455
O7 P3 1.521365 1_555
O8 P4 1.511053 1_556
O9 P5 1.511053 1_555
O10 P6 1.511053 1_554
O11 P7 1.511053 1_555
O12 P4 1.527130 1_555
O13 P5 1.527130 1_555
O14 P6 1.527130 1_555
O15 P7 1.527130 1_555
