# generated using pymatgen
data_K2Te3
_symmetry_space_group_name_H-M   'P 1'
_cell_length_a   4.66031807
_cell_length_b   10.22366231
_cell_length_c   16.04229819
_cell_angle_alpha   90.00000000
_cell_angle_beta   90.00000000
_cell_angle_gamma   90.00000000
_symmetry_Int_Tables_number   1
_chemical_formula_structural   K2Te3
_chemical_formula_sum   'K8 Te12'
_cell_volume   764.34361046
_cell_formula_units_Z   4
loop_
 _symmetry_equiv_pos_site_id
 _symmetry_equiv_pos_as_xyz
  1  'x, y, z'
loop_
 _atom_site_type_symbol
 _atom_site_label
 _atom_site_symmetry_multiplicity
 _atom_site_fract_x
 _atom_site_fract_y
 _atom_site_fract_z
 _atom_site_occupancy
  K  K0  1  0.72063320  0.97107753  0.62301913  1
  K  K1  1  0.22063320  0.02892247  0.87698087  1
  K  K2  1  0.27936680  0.47107753  0.37698087  1
  K  K3  1  0.77936680  0.52892247  0.12301913  1
  K  K4  1  0.27936680  0.02892247  0.37698087  1
  K  K5  1  0.77936680  0.97107753  0.12301913  1
  K  K6  1  0.72063320  0.52892247  0.62301913  1
  K  K7  1  0.22063320  0.47107753  0.87698087  1
  Te  Te0  1  0.19075731  0.75000000  0.51732896  1
  Te  Te1  1  0.69075731  0.25000000  0.98267104  1
  Te  Te2  1  0.80924269  0.25000000  0.48267104  1
  Te  Te3  1  0.30924269  0.75000000  0.01732896  1
  Te  Te4  1  0.29677158  0.75000000  0.73963226  1
  Te  Te5  1  0.79677058  0.25000000  0.76036774  1
  Te  Te6  1  0.70322942  0.25000000  0.26036774  1
  Te  Te7  1  0.20322842  0.75000000  0.23963226  1
  Te  Te8  1  0.68325277  0.75000000  0.87711080  1
  Te  Te9  1  0.18325277  0.25000000  0.62288920  1
  Te  Te10  1  0.31674723  0.25000000  0.12288920  1
  Te  Te11  1  0.81674723  0.75000000  0.37711080  1
loop_
_geom_bond_atom_site_label_1
_geom_bond_atom_site_label_2
_geom_bond_distance
_geom_bond_site_symmetry_2
K0 Te4 3.536978 1_555
K0 Te9 3.574887 1_665
K0 Te0 3.575407 1_655
K0 Te5 3.621117 1_565
K0 Te2 3.656703 1_565
K0 Te0 3.752500 1_555
K0 Te9 3.795197 1_565
K0 Te4 3.977115 1_655
K1 Te5 3.536980 1_455
K1 Te8 3.574887 1_545
K1 Te1 3.575407 1_555
K1 Te4 3.621118 1_545
K1 Te3 3.656703 1_546
K1 Te1 3.752500 1_455
K1 Te8 3.795197 1_445
K1 Te5 3.977112 1_555
K2 Te6 3.536980 1_555
K2 Te11 3.574887 1_455
K2 Te2 3.575407 1_455
K2 Te7 3.621118 1_555
K2 Te0 3.656703 1_555
K2 Te2 3.752500 1_555
K2 Te11 3.795197 1_555
K2 Te6 3.977112 1_455
K3 Te7 3.536978 1_655
K3 Te10 3.574887 1_555
K3 Te3 3.575407 1_555
K3 Te6 3.621117 1_555
K3 Te1 3.656703 1_554
K3 Te3 3.752500 1_655
K3 Te10 3.795197 1_655
K3 Te7 3.977115 1_555
K4 Te6 3.536980 1_555
K4 Te11 3.574887 1_445
K4 Te2 3.575407 1_455
K4 Te7 3.621118 1_545
K4 Te0 3.656703 1_545
K4 Te2 3.752500 1_555
K4 Te11 3.795197 1_545
K4 Te6 3.977112 1_455
K5 Te7 3.536978 1_655
K5 Te10 3.574887 1_565
K5 Te3 3.575407 1_555
K5 Te6 3.621117 1_565
K5 Te1 3.656703 1_564
K5 Te3 3.752500 1_655
K5 Te10 3.795197 1_665
K5 Te7 3.977115 1_555
K6 Te4 3.536978 1_555
K6 Te9 3.574887 1_655
K6 Te0 3.575407 1_655
K6 Te5 3.621117 1_555
K6 Te2 3.656703 1_555
K6 Te0 3.752500 1_555
K6 Te9 3.795197 1_555
K6 Te4 3.977115 1_655
K7 Te5 3.536980 1_455
K7 Te8 3.574887 1_555
K7 Te1 3.575407 1_555
K7 Te4 3.621118 1_555
K7 Te3 3.656703 1_556
K7 Te1 3.752500 1_455
K7 Te8 3.795197 1_455
K7 Te5 3.977112 1_555
Te0 Te11 2.845693 1_455
Te1 Te10 2.845693 1_556
Te2 Te9 2.845693 1_655
Te3 Te8 2.845693 1_554
Te4 Te8 2.847483 1_555
Te5 Te9 2.847486 1_655
Te10 Te6 2.847486 1_555
Te11 Te7 2.847483 1_655
