# generated using pymatgen
data_PrC19S6N9O2
_symmetry_space_group_name_H-M   'P 1'
_cell_length_a   24.02266500
_cell_length_b   8.26923900
_cell_length_c   8.99963023
_cell_angle_alpha   85.60381127
_cell_angle_beta   90.00000000
_cell_angle_gamma   90.00000000
_symmetry_Int_Tables_number   1
_chemical_formula_structural   PrC19S6N9O2
_chemical_formula_sum   'Pr2 C38 S12 N18 O4'
_cell_volume   1782.50909212
_cell_formula_units_Z   2
loop_
 _symmetry_equiv_pos_site_id
 _symmetry_equiv_pos_as_xyz
  1  'x, y, z'
loop_
 _atom_site_type_symbol
 _atom_site_label
 _atom_site_symmetry_multiplicity
 _atom_site_fract_x
 _atom_site_fract_y
 _atom_site_fract_z
 _atom_site_occupancy
  Pr  Pr0  1  0.25577200  0.81466100  0.56350800  1
  Pr  Pr1  1  0.75577200  0.18533900  0.43649200  1
  C  C0  1  0.39570200  0.70770200  0.69171800  1
  C  C1  1  0.89570200  0.29229800  0.30828200  1
  C  C2  1  0.35586300  0.88473900  0.25260100  1
  C  C3  1  0.85586300  0.11526100  0.74739900  1
  C  C4  1  0.17626300  0.72832200  0.22752700  1
  C  C5  1  0.67626300  0.27167800  0.77247300  1
  C  C6  1  0.28840800  0.22793800  0.66727600  1
  C  C7  1  0.78840800  0.77206200  0.33272400  1
  C  C8  1  0.18267800  0.17259700  0.41972200  1
  C  C9  1  0.68267800  0.82740300  0.58027800  1
  C  C10  1  0.10267600  0.77469300  0.68455800  1
  C  C11  1  0.60267600  0.22530700  0.31544200  1
  C  C12  1  0.26900400  0.89326900  0.98250900  1
  C  C13  1  0.76900400  0.10673100  0.01749100  1
  C  C14  1  0.37817000  0.48611200  0.19927600  1
  C  C15  1  0.87817000  0.51388800  0.80072400  1
  C  C16  1  0.43443900  0.50451400  0.25214900  1
  C  C17  1  0.93443900  0.49548600  0.74785100  1
  C  C18  1  0.30164400  0.28507200  0.16268400  1
  C  C19  1  0.80164400  0.71492800  0.83731600  1
  C  C20  1  0.40246700  0.63244400  0.18229300  1
  C  C21  1  0.90246700  0.36755600  0.81770700  1
  C  C22  1  0.15608300  0.35327400  0.87881400  1
  C  C23  1  0.65608300  0.64672600  0.12118600  1
  C  C24  1  0.10515600  0.26707200  0.85075100  1
  C  C25  1  0.60515600  0.73292800  0.14924900  1
  C  C26  1  0.05215200  0.01766200  0.77252500  1
  C  C27  1  0.55215200  0.98233800  0.22747500  1
  C  C28  1  0.07550300  0.14586500  0.80067600  1
  C  C29  1  0.57550300  0.85413500  0.19932400  1
  C  C30  1  0.57124400  0.19660600  0.78239300  1
  C  C31  1  0.07124400  0.80339400  0.21760700  1
  C  C32  1  0.48049300  0.09570700  0.66722100  1
  C  C33  1  0.98049300  0.90429300  0.33277900  1
  C  C34  1  0.44198100  0.04177000  0.55795300  1
  C  C35  1  0.94198100  0.95823000  0.44204700  1
  C  C36  1  0.52772500  0.14298600  0.73009900  1
  C  C37  1  0.02772500  0.85701400  0.26990100  1
  S  S0  1  0.45897700  0.65369000  0.72573500  1
  S  S1  1  0.95897700  0.34631000  0.27426500  1
  S  S2  1  0.40063400  0.84054800  0.11855500  1
  S  S3  1  0.90063400  0.15945200  0.88144500  1
  S  S4  1  0.11867100  0.71990600  0.11744500  1
  S  S5  1  0.61867100  0.28009400  0.88255500  1
  S  S6  1  0.30629800  0.42109500  0.68601400  1
  S  S7  1  0.80629800  0.57890500  0.31398600  1
  S  S8  1  0.16846400  0.35990800  0.37666200  1
  S  S9  1  0.66846400  0.64009200  0.62333800  1
  S  S10  1  0.03661900  0.83340000  0.72749300  1
  S  S11  1  0.53661900  0.16660000  0.27250700  1
  N  N0  1  0.34862400  0.74926600  0.66689800  1
  N  N1  1  0.84862400  0.25073400  0.33310200  1
  N  N2  1  0.32542100  0.90314500  0.35115800  1
  N  N3  1  0.82542100  0.09685500  0.64884200  1
  N  N4  1  0.21542900  0.73317800  0.30403200  1
  N  N5  1  0.71542900  0.26682200  0.69596800  1
  N  N6  1  0.28172000  0.08715200  0.66054000  1
  N  N7  1  0.78172000  0.91284800  0.33946000  1
  N  N8  1  0.19418400  0.03387400  0.45482000  1
  N  N9  1  0.69418400  0.96612600  0.54518000  1
  N  N10  1  0.14895300  0.74585600  0.65749900  1
  N  N11  1  0.64895300  0.25414400  0.34250100  1
  N  N12  1  0.33647500  0.38467900  0.18296800  1
  N  N13  1  0.83647500  0.61532100  0.81703200  1
  N  N14  1  0.10539000  0.40083600  0.92663800  1
  N  N15  1  0.60539000  0.59916400  0.07336200  1
  N  N16  1  0.42525100  0.08154600  0.69404400  1
  N  N17  1  0.92525100  0.91845400  0.30595600  1
  O  O0  1  0.25847700  0.53166500  0.61068700  1
  O  O1  1  0.75847700  0.46833500  0.38931300  1
  O  O2  1  0.24799100  0.82159400  0.89383700  1
  O  O3  1  0.74799100  0.17840600  0.10616300  1
loop_
_geom_bond_atom_site_label_1
_geom_bond_atom_site_label_2
_geom_bond_distance
_geom_bond_site_symmetry_2
C0 N0 1.198031 1_555
C0 S0 1.607093 1_555
C1 N1 1.198031 1_555
C1 S1 1.607093 1_555
C2 N2 1.168498 1_555
C2 S2 1.677252 1_555
C3 N3 1.168498 1_555
C3 S3 1.677252 1_555
C4 N4 1.168395 1_555
C4 S4 1.706166 1_555
C5 N5 1.168395 1_555
C5 S5 1.706166 1_555
C6 N6 1.181378 1_555
C6 S6 1.675015 1_555
C7 N7 1.181378 1_555
C7 S7 1.675015 1_555
C8 N8 1.198557 1_555
C8 S8 1.604338 1_555
C9 N9 1.198557 1_555
C9 S9 1.604338 1_555
C10 N10 1.166592 1_555
C10 S10 1.712272 1_555
C11 N11 1.166592 1_555
C11 S11 1.712272 1_555
C12 O2 1.146927 1_555
C13 O3 1.146927 1_555
C14 N12 1.321819 1_555
C14 C20 1.341611 1_555
C14 C16 1.444941 1_555
C15 N13 1.321819 1_555
C15 C21 1.341611 1_555
C15 C17 1.444941 1_555
C16 C20 1.415027 1_555
C17 C21 1.415027 1_555
C18 N12 1.197889 1_555
C19 N13 1.197889 1_555
C20 S2 1.772290 1_555
C21 S3 1.772290 1_555
C22 N14 1.359732 1_555
C22 C24 1.447832 1_555
C23 N15 1.359732 1_555
C23 C25 1.447832 1_555
C24 C28 1.335798 1_555
C24 N14 1.343796 1_555
C25 C29 1.335798 1_555
C25 N15 1.343796 1_555
C26 C28 1.242549 1_555
C26 S10 1.649191 1_545
C27 C29 1.242549 1_555
C27 S11 1.649191 1_565
C30 C36 1.242188 1_555
C30 S5 1.637880 1_555
C31 C37 1.242188 1_555
C31 S4 1.637880 1_555
C32 C36 1.339549 1_555
C32 N16 1.352309 1_555
C32 C34 1.445377 1_555
C33 C37 1.339549 1_655
C33 N17 1.352309 1_555
C33 C35 1.445377 1_555
C34 N16 1.353339 1_555
C35 N17 1.353339 1_555
N0 Pr0 2.460982 1_555
N1 Pr1 2.460982 1_555
N2 Pr0 2.602431 1_555
N3 Pr1 2.602431 1_555
N4 Pr0 2.662250 1_555
N5 Pr1 2.662250 1_555
N6 Pr0 2.555408 1_545
N7 Pr1 2.555408 1_565
N8 Pr0 2.481908 1_545
N9 Pr1 2.481908 1_565
N10 Pr0 2.747765 1_555
N11 Pr1 2.747765 1_555
O0 S6 1.587532 1_555
O0 Pr0 2.347026 1_555
O1 S7 1.587532 1_555
O1 Pr1 2.347026 1_555
O2 Pr0 2.983643 1_555
O3 Pr1 2.983643 1_555
