# generated using pymatgen
data_Na3Li3Fe2P2(CO7)2
_symmetry_space_group_name_H-M   'P 1'
_cell_length_a   6.71016000
_cell_length_b   8.71772367
_cell_length_c   10.17790903
_cell_angle_alpha   87.93336446
_cell_angle_beta   89.57761476
_cell_angle_gamma   89.91919314
_symmetry_Int_Tables_number   1
_chemical_formula_structural   Na3Li3Fe2P2(CO7)2
_chemical_formula_sum   'Na6 Li6 Fe4 P4 C4 O28'
_cell_volume   594.97659269
_cell_formula_units_Z   2
loop_
 _symmetry_equiv_pos_site_id
 _symmetry_equiv_pos_as_xyz
  1  'x, y, z'
loop_
 _atom_site_type_symbol
 _atom_site_label
 _atom_site_symmetry_multiplicity
 _atom_site_fract_x
 _atom_site_fract_y
 _atom_site_fract_z
 _atom_site_occupancy
  Na  Na0  1  0.74973300  0.91415800  0.61992900  1
  Na  Na1  1  0.00125400  0.74441500  0.36882600  1
  Na  Na2  1  0.99988900  0.73799600  0.88091000  1
  Na  Na3  1  0.49772600  0.73862500  0.87911700  1
  Na  Na4  1  0.49966100  0.25675000  0.12419600  1
  Na  Na5  1  0.49765400  0.25901800  0.62540900  1
  Li  Li0  1  0.75136400  0.91401000  0.12341300  1
  Li  Li1  1  0.52284600  0.72386800  0.37542400  1
  Li  Li2  1  0.01938100  0.27173700  0.11863500  1
  Li  Li3  1  0.02197500  0.27863700  0.61524800  1
  Li  Li4  1  0.24517800  0.09537900  0.37587400  1
  Li  Li5  1  0.23448700  0.09399200  0.87498700  1
  Fe  Fe0  1  0.25186300  0.64650600  0.11597000  1
  Fe  Fe1  1  0.25396300  0.64758800  0.60582000  1
  Fe  Fe2  1  0.75764300  0.34932300  0.38556200  1
  Fe  Fe3  1  0.75495900  0.34827200  0.89169700  1
  P  P0  1  0.75160300  0.59297400  0.15030600  1
  P  P1  1  0.75667900  0.58062700  0.64327400  1
  P  P2  1  0.25313200  0.40682900  0.35212500  1
  P  P3  1  0.24555100  0.40457500  0.85848700  1
  C  C0  1  0.24251000  0.95421200  0.13619500  1
  C  C1  1  0.23940100  0.95546100  0.63543400  1
  C  C2  1  0.74395500  0.05346500  0.35617300  1
  C  C3  1  0.75095600  0.05062500  0.86868200  1
  O  O0  1  0.72238300  0.90722000  0.33898700  1
  O  O1  1  0.74937100  0.90588500  0.84734300  1
  O  O2  1  0.24669900  0.91908100  0.01342400  1
  O  O3  1  0.24315000  0.91776800  0.51318600  1
  O  O4  1  0.25731800  0.84453800  0.22718300  1
  O  O5  1  0.25451800  0.84757400  0.72767100  1
  O  O6  1  0.93243200  0.69935000  0.11650900  1
  O  O7  1  0.56661500  0.68578500  0.10285300  1
  O  O8  1  0.94056400  0.68192000  0.60443800  1
  O  O9  1  0.57000700  0.67281300  0.59343600  1
  O  O10  1  0.73596900  0.56797500  0.30372800  1
  O  O11  1  0.27103100  0.56897100  0.40995800  1
  O  O12  1  0.74497900  0.56026200  0.79613200  1
  O  O13  1  0.24839100  0.56201100  0.92408400  1
  O  O14  1  0.76998500  0.43384300  0.08835300  1
  O  O15  1  0.22849500  0.42787800  0.19989000  1
  O  O16  1  0.76948900  0.42021600  0.58383400  1
  O  O17  1  0.22554600  0.43123700  0.70637500  1
  O  O18  1  0.43775700  0.30404100  0.38263900  1
  O  O19  1  0.07378800  0.31347700  0.41040100  1
  O  O20  1  0.43588200  0.30757200  0.88882600  1
  O  O21  1  0.06996500  0.30252800  0.91229600  1
  O  O22  1  0.76650600  0.14773500  0.25550200  1
  O  O23  1  0.75798400  0.15047400  0.76951100  1
  O  O24  1  0.74476400  0.10962900  0.47274900  1
  O  O25  1  0.74656200  0.09929200  0.98769900  1
  O  O26  1  0.22461700  0.09459600  0.17246500  1
  O  O27  1  0.22187000  0.09728300  0.66883400  1
loop_
_geom_bond_atom_site_label_1
_geom_bond_atom_site_label_2
_geom_bond_distance
_geom_bond_site_symmetry_2
Na0 O24 2.228310 1_565
Na0 O1 2.313105 1_555
Na0 O8 2.403381 1_555
Na0 O9 2.450860 1_555
Na0 O23 2.606301 1_565
Na0 O0 2.869453 1_555
Na1 O0 2.361792 1_455
Na1 O4 2.381055 1_555
Na1 O11 2.397649 1_555
Na1 O10 2.464203 1_455
Na1 O8 2.470880 1_455
Na1 O6 2.655805 1_455
Na1 O3 2.698060 1_555
Na2 O1 2.247254 1_555
Na2 O13 2.298327 1_655
Na2 O6 2.448368 1_556
Na2 O5 2.474315 1_655
Na2 O12 2.489319 1_555
Na2 O2 2.692177 1_656
Na2 O8 2.903756 1_555
Na3 O1 2.246530 1_555
Na3 O13 2.307465 1_555
Na3 O7 2.355975 1_556
Na3 O5 2.422490 1_555
Na3 O12 2.439378 1_555
Na3 O2 2.700820 1_556
Na4 O26 2.364267 1_555
Na4 O14 2.400910 1_555
Na4 O22 2.415417 1_555
Na4 O20 2.460947 1_554
Na4 O15 2.486871 1_555
Na4 O25 2.579973 1_554
Na4 O18 2.706139 1_555
Na5 O16 2.331096 1_555
Na5 O27 2.357592 1_555
Na5 O23 2.455811 1_555
Na5 O17 2.515222 1_555
Na5 O18 2.522924 1_555
Na5 O24 2.638476 1_555
Na5 O20 2.757515 1_555
Li0 O25 2.087480 1_564
Li0 O0 2.199940 1_555
Li0 O6 2.232689 1_555
Li0 O7 2.362194 1_555
Li0 O22 2.483844 1_565
Li1 O0 2.107400 1_555
Li1 O10 2.115482 1_555
Li1 O11 2.183021 1_555
Li1 O9 2.271677 1_555
Li1 O4 2.545097 1_555
Li2 O26 2.127350 1_555
Li2 O21 2.132316 1_554
Li2 O15 2.146954 1_555
Li2 O14 2.205038 1_455
Li2 O22 2.418688 1_455
Li3 O16 2.114144 1_455
Li3 O19 2.122247 1_555
Li3 O27 2.130439 1_555
Li3 O17 2.146793 1_555
Li3 O23 2.586399 1_455
Li4 O3 2.048040 1_545
Li4 O26 2.076142 1_555
Li4 O18 2.236193 1_555
Li4 O19 2.257696 1_555
Li5 O2 2.040461 1_546
Li5 O27 2.099698 1_555
Li5 O21 2.169300 1_555
Li5 O20 2.311214 1_555
Fe0 O15 2.065958 1_555
Fe0 O4 2.098742 1_555
Fe0 O13 2.112299 1_554
Fe0 O7 2.142513 1_555
Fe0 O6 2.191754 1_455
Fe0 O2 2.560944 1_555
Fe1 O17 2.121329 1_555
Fe1 O8 2.123809 1_455
Fe1 O11 2.133470 1_555
Fe1 O9 2.134716 1_555
Fe1 O5 2.175692 1_555
Fe1 O3 2.506438 1_555
Fe2 O10 2.057856 1_555
Fe2 O16 2.133783 1_555
Fe2 O19 2.159207 1_655
Fe2 O18 2.183644 1_555
Fe2 O22 2.238429 1_555
Fe2 O24 2.242081 1_555
Fe3 O12 2.058365 1_555
Fe3 O21 2.160789 1_655
Fe3 O23 2.162063 1_555
Fe3 O14 2.164192 1_556
Fe3 O20 2.171333 1_555
Fe3 O25 2.348555 1_555
C0 O26 1.296134 1_565
C0 O2 1.297315 1_555
C0 O4 1.311047 1_555
C1 O3 1.298352 1_555
C1 O27 1.298965 1_565
C1 O5 1.309063 1_555
C2 O22 1.298255 1_555
C2 O24 1.299824 1_555
C2 O0 1.301521 1_545
C3 O1 1.288126 1_545
C3 O25 1.297971 1_555
C3 O23 1.309488 1_555
O6 P0 1.557128 1_555
O7 P0 1.551306 1_555
O8 P1 1.558595 1_555
O9 P1 1.565020 1_555
O10 P0 1.571603 1_555
O11 P2 1.555775 1_555
O12 P1 1.560909 1_555
O13 P3 1.547956 1_555
O14 P0 1.548793 1_555
O15 P2 1.563628 1_555
O16 P1 1.545597 1_555
O17 P3 1.563948 1_555
O18 P2 1.554561 1_555
O19 P2 1.555558 1_555
O20 P3 1.557407 1_555
O21 P3 1.561357 1_555
