# generated using pymatgen
data_Na4Mn5O12
_symmetry_space_group_name_H-M   'P 1'
_cell_length_a   6.10301220
_cell_length_b   6.10301220
_cell_length_c   13.63440269
_cell_angle_alpha   79.18221493
_cell_angle_beta   79.18221493
_cell_angle_gamma   89.53970541
_symmetry_Int_Tables_number   1
_chemical_formula_structural   Na4Mn5O12
_chemical_formula_sum   'Na8 Mn10 O24'
_cell_volume   489.75351120
_cell_formula_units_Z   2
loop_
 _symmetry_equiv_pos_site_id
 _symmetry_equiv_pos_as_xyz
  1  'x, y, z'
loop_
 _atom_site_type_symbol
 _atom_site_label
 _atom_site_symmetry_multiplicity
 _atom_site_fract_x
 _atom_site_fract_y
 _atom_site_fract_z
 _atom_site_occupancy
  Na  Na0  1  0.46947700  0.19507300  0.57736600  1
  Na  Na1  1  0.88819200  0.11180800  0.75000000  1
  Na  Na2  1  0.80492700  0.53052300  0.92263400  1
  Na  Na3  1  0.00000000  0.00000000  0.00000000  1
  Na  Na4  1  0.19507300  0.46947700  0.07736600  1
  Na  Na5  1  0.11180800  0.88819200  0.25000000  1
  Na  Na6  1  0.53052300  0.80492700  0.42263400  1
  Na  Na7  1  0.00000000  0.00000000  0.50000000  1
  Mn  Mn0  1  0.67521000  0.64366500  0.66806200  1
  Mn  Mn1  1  0.17032300  0.64395100  0.66894700  1
  Mn  Mn2  1  0.35633500  0.32479000  0.83193800  1
  Mn  Mn3  1  0.35604900  0.82967700  0.83105300  1
  Mn  Mn4  1  0.50000000  0.00000000  0.00000000  1
  Mn  Mn5  1  0.64366500  0.67521000  0.16806200  1
  Mn  Mn6  1  0.64395100  0.17032300  0.16894700  1
  Mn  Mn7  1  0.32479000  0.35633500  0.33193800  1
  Mn  Mn8  1  0.82967700  0.35604900  0.33105300  1
  Mn  Mn9  1  0.00000000  0.50000000  0.50000000  1
  O  O0  1  0.93301600  0.43695700  0.65175900  1
  O  O1  1  0.91796500  0.82817500  0.67845000  1
  O  O2  1  0.42146100  0.43037200  0.68160400  1
  O  O3  1  0.42020300  0.84940300  0.67780000  1
  O  O4  1  0.56962800  0.57853900  0.81839600  1
  O  O5  1  0.15059700  0.57979700  0.82220000  1
  O  O6  1  0.56304300  0.06698400  0.84824100  1
  O  O7  1  0.17182500  0.08203500  0.82155000  1
  O  O8  1  0.29803900  0.23966500  0.97414200  1
  O  O9  1  0.29921000  0.78674600  0.97251100  1
  O  O10  1  0.70079000  0.21325400  0.02748900  1
  O  O11  1  0.70196100  0.76033500  0.02585800  1
  O  O12  1  0.82817500  0.91796500  0.17845000  1
  O  O13  1  0.43695700  0.93301600  0.15175900  1
  O  O14  1  0.84940300  0.42020300  0.17780000  1
  O  O15  1  0.43037200  0.42146100  0.18160400  1
  O  O16  1  0.57853900  0.56962800  0.31839600  1
  O  O17  1  0.57979700  0.15059700  0.32220000  1
  O  O18  1  0.06698400  0.56304300  0.34824100  1
  O  O19  1  0.08203500  0.17182500  0.32155000  1
  O  O20  1  0.23966500  0.29803900  0.47414200  1
  O  O21  1  0.78674600  0.29921000  0.47251100  1
  O  O22  1  0.76033500  0.70196100  0.52585800  1
  O  O23  1  0.21325400  0.70079000  0.52748900  1
loop_
_geom_bond_atom_site_label_1
_geom_bond_atom_site_label_2
_geom_bond_distance
_geom_bond_site_symmetry_2
Na0 O20 2.176605 1_555
Na0 O2 2.184250 1_555
Na0 O21 2.199233 1_555
Na0 O3 2.277572 1_545
Na1 O1 2.131526 1_545
Na1 O7 2.131526 1_655
Na1 O0 2.163380 1_555
Na1 O6 2.163380 1_555
Na2 O11 2.176605 1_556
Na2 O4 2.184250 1_555
Na2 O10 2.199233 1_556
Na2 O5 2.277572 1_655
Na3 O10 2.248764 1_455
Na3 O9 2.248764 1_544
Na3 O8 2.276117 1_554
Na3 O11 2.276117 1_445
Na3 O7 2.421477 1_554
Na3 O12 2.421477 1_445
Na4 O8 2.176605 1_554
Na4 O15 2.184250 1_555
Na4 O9 2.199233 1_554
Na4 O14 2.277572 1_455
Na5 O12 2.131526 1_455
Na5 O19 2.131526 1_565
Na5 O13 2.163380 1_555
Na5 O18 2.163380 1_555
Na6 O22 2.176605 1_555
Na6 O16 2.184250 1_555
Na6 O23 2.199233 1_555
Na6 O17 2.277572 1_565
Na7 O23 2.248764 1_545
Na7 O21 2.248764 1_455
Na7 O20 2.276117 1_555
Na7 O22 2.276117 1_445
Na7 O19 2.421477 1_555
Na7 O1 2.421477 1_445
Mn0 O22 1.876596 1_555
Mn0 O1 1.910099 1_555
Mn0 O2 1.990400 1_555
Mn0 O3 1.992469 1_555
Mn0 O4 1.994252 1_555
Mn0 O0 2.014584 1_555
Mn1 O23 1.862653 1_555
Mn1 O1 1.898653 1_455
Mn1 O0 2.004065 1_455
Mn1 O2 2.015128 1_555
Mn1 O3 2.017200 1_555
Mn1 O5 2.033000 1_555
Mn2 O8 1.876596 1_555
Mn2 O7 1.910099 1_555
Mn2 O4 1.990400 1_555
Mn2 O5 1.992469 1_555
Mn2 O2 1.994252 1_555
Mn2 O6 2.014584 1_555
Mn3 O9 1.862653 1_555
Mn3 O7 1.898653 1_565
Mn3 O6 2.004065 1_565
Mn3 O4 2.015128 1_555
Mn3 O5 2.017200 1_555
Mn3 O3 2.033000 1_555
Mn4 O10 1.927991 1_555
Mn4 O9 1.927991 1_544
Mn4 O11 1.929647 1_545
Mn4 O8 1.929647 1_554
Mn4 O6 1.995666 1_554
Mn4 O13 1.995666 1_545
Mn5 O11 1.876596 1_555
Mn5 O12 1.910099 1_555
Mn5 O15 1.990400 1_555
Mn5 O14 1.992469 1_555
Mn5 O16 1.994252 1_555
Mn5 O13 2.014584 1_555
Mn6 O10 1.862653 1_555
Mn6 O12 1.898653 1_545
Mn6 O13 2.004065 1_545
Mn6 O15 2.015128 1_555
Mn6 O14 2.017200 1_555
Mn6 O17 2.033000 1_555
Mn7 O20 1.876596 1_555
Mn7 O19 1.910099 1_555
Mn7 O16 1.990400 1_555
Mn7 O17 1.992469 1_555
Mn7 O15 1.994252 1_555
Mn7 O18 2.014584 1_555
Mn8 O21 1.862653 1_555
Mn8 O19 1.898653 1_655
Mn8 O18 2.004065 1_655
Mn8 O16 2.015128 1_555
Mn8 O17 2.017200 1_555
Mn8 O14 2.033000 1_555
Mn9 O23 1.927991 1_555
Mn9 O21 1.927991 1_455
Mn9 O22 1.929647 1_455
Mn9 O20 1.929647 1_555
Mn9 O18 1.995666 1_555
Mn9 O0 1.995666 1_455
