# generated using pymatgen
data_La3TlC
_symmetry_space_group_name_H-M   'P 1'
_cell_length_a   5.24077264
_cell_length_b   5.24077264
_cell_length_c   5.24077264
_cell_angle_alpha   90.00000000
_cell_angle_beta   90.00000000
_cell_angle_gamma   90.00000000
_symmetry_Int_Tables_number   1
_chemical_formula_structural   La3TlC
_chemical_formula_sum   'La3 Tl1 C1'
_cell_volume   143.94147791
_cell_formula_units_Z   1
loop_
 _symmetry_equiv_pos_site_id
 _symmetry_equiv_pos_as_xyz
  1  'x, y, z'
loop_
 _atom_site_type_symbol
 _atom_site_label
 _atom_site_symmetry_multiplicity
 _atom_site_fract_x
 _atom_site_fract_y
 _atom_site_fract_z
 _atom_site_occupancy
  La  La0  1  0.50000000  0.00000000  0.50000000  1
  La  La1  1  0.00000000  0.50000000  0.50000000  1
  La  La2  1  0.50000000  0.50000000  0.00000000  1
  Tl  Tl0  1  0.00000000  0.00000000  -0.00000000  1
  C  C0  1  0.50000000  0.50000000  0.50000000  1
loop_
_geom_bond_atom_site_label_1
_geom_bond_atom_site_label_2
_geom_bond_distance
_geom_bond_site_symmetry_2
La0 Tl0 3.705786 1_655
La0 Tl0 3.705786 1_656
La0 Tl0 3.705786 1_555
La0 Tl0 3.705786 1_556
La1 Tl0 3.705786 1_566
La1 Tl0 3.705786 1_555
La1 Tl0 3.705786 1_556
La1 Tl0 3.705786 1_565
La2 Tl0 3.705786 1_655
La2 Tl0 3.705786 1_665
La2 Tl0 3.705786 1_555
La2 Tl0 3.705786 1_565
C0 La2 2.620386 1_556
C0 La0 2.620386 1_555
C0 La0 2.620386 1_565
C0 La1 2.620386 1_555
C0 La1 2.620386 1_655
C0 La2 2.620386 1_555
