# generated using pymatgen
data_Li3TiMn3O8
_symmetry_space_group_name_H-M   'P 1'
_cell_length_a   6.02580936
_cell_length_b   8.53072873
_cell_length_c   6.04655353
_cell_angle_alpha   89.05386435
_cell_angle_beta   93.94350601
_cell_angle_gamma   89.48973164
_symmetry_Int_Tables_number   1
_chemical_formula_structural   Li3TiMn3O8
_chemical_formula_sum   'Li6 Ti2 Mn6 O16'
_cell_volume   310.02643159
_cell_formula_units_Z   2
loop_
 _symmetry_equiv_pos_site_id
 _symmetry_equiv_pos_as_xyz
  1  'x, y, z'
loop_
 _atom_site_type_symbol
 _atom_site_label
 _atom_site_symmetry_multiplicity
 _atom_site_fract_x
 _atom_site_fract_y
 _atom_site_fract_z
 _atom_site_occupancy
  Li  Li0  1  0.74939300  0.75044300  0.24955300  1
  Li  Li1  1  0.25056700  0.24956400  0.75040600  1
  Li  Li2  1  0.00000700  0.49996500  0.49999200  1
  Li  Li3  1  0.49999000  0.99998600  0.99997900  1
  Li  Li4  1  0.25031000  0.24942700  0.24984600  1
  Li  Li5  1  0.74960700  0.75059200  0.75016400  1
  Ti  Ti0  1  0.99994900  0.99999400  0.99997400  1
  Ti  Ti1  1  0.49993300  0.49997700  0.50003600  1
  Mn  Mn0  1  0.74987500  0.25116700  0.24887200  1
  Mn  Mn1  1  0.25015800  0.74881900  0.75110600  1
  Mn  Mn2  1  0.00004900  0.99982700  0.49993700  1
  Mn  Mn3  1  0.50006000  0.49999100  0.00019600  1
  Mn  Mn4  1  0.24978100  0.75073000  0.25048200  1
  Mn  Mn5  1  0.75035200  0.24943200  0.74959200  1
  O  O0  1  0.50836600  0.26621200  0.01988900  1
  O  O1  1  0.00896000  0.76696200  0.52172200  1
  O  O2  1  0.99103100  0.23304600  0.47816500  1
  O  O3  1  0.49161900  0.73376000  0.98012500  1
  O  O4  1  0.25525000  0.51920000  0.27356000  1
  O  O5  1  0.75449200  0.01855600  0.77420400  1
  O  O6  1  0.24554500  0.98140600  0.22589000  1
  O  O7  1  0.74464700  0.48089200  0.72646400  1
  O  O8  1  0.52913300  0.26597600  0.48991800  1
  O  O9  1  0.02931300  0.76580200  0.99039500  1
  O  O10  1  0.97070400  0.23419100  0.00957600  1
  O  O11  1  0.47089000  0.73406100  0.51006400  1
  O  O12  1  0.79124200  0.98828800  0.23804000  1
  O  O13  1  0.29093700  0.48853600  0.73861500  1
  O  O14  1  0.70916100  0.51148300  0.26132000  1
  O  O15  1  0.20868900  0.01171700  0.76191900  1
loop_
_geom_bond_atom_site_label_1
_geom_bond_atom_site_label_2
_geom_bond_distance
_geom_bond_site_symmetry_2
Li0 O12 2.047463 1_555
Li0 O14 2.055654 1_555
Li0 O3 2.179570 1_554
Li0 O1 2.198201 1_655
Li0 O11 2.382782 1_555
Li0 O9 2.382963 1_654
Li1 O15 2.047504 1_555
Li1 O13 2.055867 1_555
Li1 O0 2.179877 1_556
Li1 O2 2.198382 1_455
Li1 O10 2.382761 1_456
Li1 O8 2.382982 1_555
Li2 O4 2.133953 1_555
Li2 O7 2.134559 1_455
Li2 O14 2.192767 1_455
Li2 O13 2.192950 1_555
Li2 O2 2.283916 1_455
Li2 O1 2.284533 1_555
Li3 O5 2.127387 1_565
Li3 O6 2.127698 1_556
Li3 O12 2.192432 1_556
Li3 O15 2.192659 1_565
Li3 O3 2.277075 1_555
Li3 O0 2.277099 1_566
Li4 O8 2.150693 1_555
Li4 O10 2.154001 1_455
Li4 O2 2.158844 1_455
Li4 O0 2.160242 1_555
Li4 O6 2.293694 1_545
Li4 O4 2.308514 1_555
Li5 O11 2.150316 1_555
Li5 O9 2.154281 1_655
Li5 O1 2.159692 1_655
Li5 O3 2.159970 1_555
Li5 O5 2.293261 1_565
Li5 O7 2.307888 1_555
Mn0 O0 1.940359 1_555
Mn0 O2 1.941539 1_555
Mn0 O10 2.038025 1_555
Mn0 O8 2.044334 1_555
Mn0 O14 2.235096 1_555
Mn0 O12 2.256677 1_545
Mn1 O3 1.940306 1_555
Mn1 O1 1.942091 1_555
Mn1 O9 2.038065 1_555
Mn1 O11 2.044244 1_555
Mn1 O13 2.234872 1_555
Mn1 O15 2.256896 1_565
Mn2 O12 1.958019 1_455
Mn2 O15 1.958031 1_565
Mn2 O1 1.988702 1_555
Mn2 O2 1.991719 1_465
Mn2 O6 2.302273 1_555
Mn2 O5 2.303742 1_465
Mn3 O14 1.955459 1_555
Mn3 O13 1.957627 1_554
Mn3 O0 1.995870 1_555
Mn3 O3 1.995891 1_554
Mn3 O4 2.296767 1_555
Mn3 O7 2.297469 1_554
Mn4 O6 1.970800 1_555
Mn4 O4 1.977565 1_555
Mn4 O9 1.989351 1_554
Mn4 O11 1.990123 1_555
Mn4 O1 2.268498 1_555
Mn4 O3 2.269064 1_554
Mn5 O5 1.972509 1_555
Mn5 O7 1.976990 1_555
Mn5 O10 1.988526 1_556
Mn5 O8 1.990887 1_555
Mn5 O2 2.268866 1_555
Mn5 O0 2.269290 1_556
O4 Ti1 1.945920 1_555
O5 Ti0 1.946096 1_545
O6 Ti0 1.947278 1_454
O7 Ti1 1.945786 1_555
O8 Ti1 2.004687 1_555
O9 Ti0 2.006219 1_455
O10 Ti0 2.006211 1_544
O11 Ti1 2.005287 1_555
O12 Ti0 1.977421 1_554
O13 Ti1 1.980909 1_555
O14 Ti1 1.982532 1_555
O15 Ti0 1.977513 1_445
