# generated using pymatgen
data_Li2CuPO4
_symmetry_space_group_name_H-M   'P 1'
_cell_length_a   5.42859900
_cell_length_b   6.18804825
_cell_length_c   10.08805713
_cell_angle_alpha   90.03284500
_cell_angle_beta   90.03076053
_cell_angle_gamma   90.33732961
_symmetry_Int_Tables_number   1
_chemical_formula_structural   Li2CuPO4
_chemical_formula_sum   'Li8 Cu4 P4 O16'
_cell_volume   338.87640004
_cell_formula_units_Z   4
loop_
 _symmetry_equiv_pos_site_id
 _symmetry_equiv_pos_as_xyz
  1  'x, y, z'
loop_
 _atom_site_type_symbol
 _atom_site_label
 _atom_site_symmetry_multiplicity
 _atom_site_fract_x
 _atom_site_fract_y
 _atom_site_fract_z
 _atom_site_occupancy
  Li  Li0  1  0.15228500  0.00049700  0.74700600  1
  Li  Li1  1  0.15602600  0.00077500  0.24575700  1
  Li  Li2  1  0.32906200  0.75436800  0.49499000  1
  Li  Li3  1  0.32638000  0.75273600  0.99846700  1
  Li  Li4  1  0.67263000  0.74591300  0.24495700  1
  Li  Li5  1  0.84622600  0.49998400  0.99740700  1
  Li  Li6  1  0.84623800  0.49920800  0.49482700  1
  Li  Li7  1  0.67491100  0.25377200  0.24471000  1
  Cu  Cu0  1  0.65963500  0.74467800  0.75323100  1
  Cu  Cu1  1  0.65905200  0.25624800  0.74943000  1
  Cu  Cu2  1  0.34043100  0.24280800  0.49621900  1
  Cu  Cu3  1  0.33212800  0.24395200  0.99914700  1
  P  P0  1  0.82820200  0.99582200  0.00615100  1
  P  P1  1  0.82990600  0.99532700  0.49232000  1
  P  P2  1  0.17174300  0.50491900  0.24950400  1
  P  P3  1  0.17090900  0.50524300  0.74817100  1
  O  O0  1  0.83960300  0.99973600  0.64765100  1
  O  O1  1  0.09993500  0.98640700  0.43892400  1
  O  O2  1  0.82810300  0.99869100  0.15985800  1
  O  O3  1  0.09541600  0.98631900  0.94853700  1
  O  O4  1  0.68335700  0.79202800  0.44315700  1
  O  O5  1  0.68054100  0.79078600  0.95832000  1
  O  O6  1  0.31239500  0.70853400  0.19524100  1
  O  O7  1  0.30386200  0.71114600  0.69152600  1
  O  O8  1  0.16515200  0.51315400  0.90253200  1
  O  O9  1  0.90569500  0.50194400  0.68848400  1
  O  O10  1  0.17097800  0.51182100  0.40464100  1
  O  O11  1  0.90064500  0.50147000  0.19765300  1
  O  O12  1  0.29900400  0.29069900  0.70268000  1
  O  O13  1  0.31163800  0.29457600  0.20548200  1
  O  O14  1  0.70471200  0.20685600  0.43953200  1
  O  O15  1  0.70320000  0.20958400  0.95608200  1
loop_
_geom_bond_atom_site_label_1
_geom_bond_atom_site_label_2
_geom_bond_distance
_geom_bond_site_symmetry_2
Li0 O0 1.970774 1_445
Li0 O12 2.010879 1_555
Li0 O7 2.052554 1_545
Li0 O3 2.058369 1_545
Li1 O1 1.974460 1_545
Li1 O2 1.979424 1_445
Li1 O13 2.041358 1_555
Li1 O6 2.065931 1_545
Li2 O10 1.949949 1_555
Li2 O1 1.987450 1_555
Li2 O7 2.005414 1_555
Li2 O4 2.005704 1_555
Li3 O8 1.970479 1_555
Li3 O5 1.977743 1_555
Li3 O3 1.984060 1_555
Li3 O6 2.005396 1_556
Li4 O2 1.970490 1_555
Li4 O11 2.017366 1_555
Li4 O4 2.020312 1_555
Li4 O6 2.030465 1_555
Li5 O8 1.979993 1_655
Li5 O15 1.997060 1_555
Li5 O11 2.041431 1_556
Li5 O5 2.054787 1_555
Li6 O9 1.979982 1_555
Li6 O10 1.985389 1_655
Li6 O14 2.038687 1_555
Li6 O4 2.087170 1_555
Li7 O2 1.982548 1_545
Li7 O14 1.993495 1_555
Li7 O11 2.013883 1_555
Li7 O13 2.028432 1_555
Cu0 O7 2.038257 1_555
Cu0 O5 2.091298 1_555
Cu0 O9 2.119075 1_555
Cu0 O0 2.136554 1_555
Cu1 O12 2.022917 1_555
Cu1 O9 2.111936 1_555
Cu1 O15 2.118451 1_555
Cu1 O0 2.133535 1_545
Cu2 O14 2.072056 1_555
Cu2 O12 2.115891 1_555
Cu2 O10 2.118887 1_555
Cu2 O1 2.128303 1_545
Cu3 O15 2.073080 1_555
Cu3 O3 2.104231 1_545
Cu3 O13 2.107876 1_556
Cu3 O8 2.136656 1_555
O0 P1 1.568060 1_555
O1 P1 1.563257 1_455
O2 P0 1.550697 1_555
O3 P0 1.564408 1_456
O4 P1 1.564796 1_555
O5 P0 1.572281 1_556
O6 P2 1.568475 1_555
O7 P3 1.568865 1_555
O8 P3 1.558280 1_555
O9 P3 1.560299 1_655
O10 P2 1.565598 1_555
O11 P2 1.561635 1_655
O12 P3 1.570736 1_555
O13 P2 1.574641 1_555
O14 P1 1.571535 1_545
O15 P0 1.573623 1_546
