# generated using pymatgen
data_Li4Ti3Fe3(NiO8)2
_symmetry_space_group_name_H-M   'P 1'
_cell_length_a   5.91582164
_cell_length_b   5.91582164
_cell_length_c   9.65408023
_cell_angle_alpha   89.54716324
_cell_angle_beta   89.54716324
_cell_angle_gamma   60.04991103
_symmetry_Int_Tables_number   1
_chemical_formula_structural   Li4Ti3Fe3(NiO8)2
_chemical_formula_sum   'Li4 Ti3 Fe3 Ni2 O16'
_cell_volume   292.73306926
_cell_formula_units_Z   1
loop_
 _symmetry_equiv_pos_site_id
 _symmetry_equiv_pos_as_xyz
  1  'x, y, z'
loop_
 _atom_site_type_symbol
 _atom_site_label
 _atom_site_symmetry_multiplicity
 _atom_site_fract_x
 _atom_site_fract_y
 _atom_site_fract_z
 _atom_site_occupancy
  Li  Li0  1  0.33048900  0.33048900  0.10981100  1
  Li  Li1  1  0.00434800  0.00434800  0.00214300  1
  Li  Li2  1  0.00479600  0.00479600  0.50108300  1
  Li  Li3  1  0.66457300  0.66457300  0.60711500  1
  Ti  Ti0  1  0.66041400  0.16663900  0.78481500  1
  Ti  Ti1  1  0.16663900  0.66041400  0.78481500  1
  Ti  Ti2  1  0.82918900  0.82918900  0.28453200  1
  Fe  Fe0  1  0.16811600  0.16811600  0.78564300  1
  Fe  Fe1  1  0.83011600  0.33763400  0.28583300  1
  Fe  Fe2  1  0.33763400  0.83011600  0.28583300  1
  Ni  Ni0  1  0.33454900  0.33454900  0.51029800  1
  Ni  Ni1  1  0.66566900  0.66566900  0.01054000  1
  O  O0  1  0.68099100  0.16514800  0.39525800  1
  O  O1  1  0.48088600  0.48088600  0.66718100  1
  O  O2  1  0.34128800  0.34128800  0.89948600  1
  O  O3  1  0.99478800  0.99478800  0.68545400  1
  O  O4  1  0.99388700  0.99388700  0.18561800  1
  O  O5  1  0.16514800  0.68099100  0.39525800  1
  O  O6  1  0.47872000  0.03732800  0.66720500  1
  O  O7  1  0.03732800  0.47872000  0.66720500  1
  O  O8  1  0.83900000  0.83900000  0.89618100  1
  O  O9  1  0.16172400  0.16172400  0.39175100  1
  O  O10  1  0.96096700  0.51394400  0.16692800  1
  O  O11  1  0.51394400  0.96096700  0.16692800  1
  O  O12  1  0.67485400  0.67485400  0.40075500  1
  O  O13  1  0.84346400  0.31980000  0.89298500  1
  O  O14  1  0.51812500  0.51812500  0.16870000  1
  O  O15  1  0.31980000  0.84346400  0.89298500  1
loop_
_geom_bond_atom_site_label_1
_geom_bond_atom_site_label_2
_geom_bond_distance
_geom_bond_site_symmetry_2
Li0 O10 1.970313 1_455
Li0 O11 1.970313 1_545
Li0 O14 2.009414 1_555
Li0 O2 2.032497 1_554
Li1 O4 1.773544 1_445
Li1 O13 1.926199 1_454
Li1 O15 1.926199 1_544
Li1 O8 1.986729 1_444
Li2 O3 1.781948 1_445
Li2 O9 1.915032 1_555
Li2 O5 1.953013 1_545
Li2 O0 1.953013 1_455
Li3 O1 1.963937 1_555
Li3 O12 1.994038 1_555
Li3 O6 1.999340 1_565
Li3 O7 1.999340 1_655
Fe0 O13 1.957084 1_455
Fe0 O15 1.957084 1_545
Fe0 O6 1.960505 1_555
Fe0 O7 1.960505 1_555
Fe0 O3 2.029656 1_445
Fe0 O2 2.095338 1_555
Fe1 O10 1.943714 1_555
Fe1 O0 1.950005 1_555
Fe1 O14 1.967618 1_555
Fe1 O9 1.988324 1_655
Fe1 O4 2.014711 1_545
Fe1 O12 2.060003 1_555
Fe2 O11 1.943714 1_555
Fe2 O5 1.950005 1_555
Fe2 O14 1.967618 1_555
Fe2 O9 1.988324 1_565
Fe2 O4 2.014711 1_455
Fe2 O12 2.060003 1_555
Ni0 O0 2.090209 1_555
Ni0 O5 2.090209 1_555
Ni0 O9 2.116867 1_555
Ni0 O1 2.140687 1_555
Ni0 O6 2.143502 1_555
Ni0 O7 2.143502 1_555
Ni1 O8 2.082262 1_554
Ni1 O15 2.109447 1_554
Ni1 O13 2.109447 1_554
Ni1 O14 2.138616 1_555
Ni1 O10 2.142775 1_555
Ni1 O11 2.142775 1_555
O0 Ti2 2.034773 1_545
O1 Ti1 1.971783 1_555
O1 Ti0 1.971783 1_555
O2 Ti0 1.973474 1_555
O2 Ti1 1.973474 1_555
O3 Ti1 1.960614 1_655
O3 Ti0 1.960614 1_565
O4 Ti2 1.931050 1_555
O5 Ti2 2.034773 1_455
O6 Ti0 1.970722 1_555
O7 Ti1 1.970722 1_555
O8 Ti1 1.992304 1_655
O8 Ti0 1.992304 1_565
O10 Ti2 1.985590 1_555
O11 Ti2 1.985590 1_555
O12 Ti2 1.930312 1_555
O13 Ti0 2.024025 1_555
O15 Ti1 2.024025 1_555
