# generated using pymatgen
data_H4NOF
_symmetry_space_group_name_H-M   'P 1'
_cell_length_a   6.54187500
_cell_length_b   9.92067800
_cell_length_c   13.63179800
_cell_angle_alpha   90.00000000
_cell_angle_beta   90.00000000
_cell_angle_gamma   90.00000000
_symmetry_Int_Tables_number   1
_chemical_formula_structural   H4NOF
_chemical_formula_sum   'H64 N16 O16 F16'
_cell_volume   884.70144629
_cell_formula_units_Z   16
loop_
 _symmetry_equiv_pos_site_id
 _symmetry_equiv_pos_as_xyz
  1  'x, y, z'
loop_
 _atom_site_type_symbol
 _atom_site_label
 _atom_site_symmetry_multiplicity
 _atom_site_fract_x
 _atom_site_fract_y
 _atom_site_fract_z
 _atom_site_occupancy
  H  H0  1  0.20266000  0.41481000  0.68610600  1
  H  H1  1  0.70266000  0.58519000  0.81389400  1
  H  H2  1  0.79734000  0.08519000  0.18610600  1
  H  H3  1  0.29734000  0.91481000  0.31389400  1
  H  H4  1  0.79734000  0.58519000  0.31389400  1
  H  H5  1  0.29734000  0.41481000  0.18610600  1
  H  H6  1  0.20266000  0.91481000  0.81389400  1
  H  H7  1  0.70266000  0.08519000  0.68610600  1
  H  H8  1  0.98122000  0.50952000  0.65931300  1
  H  H9  1  0.48122000  0.49048000  0.84068700  1
  H  H10  1  0.01878000  0.99048000  0.15931300  1
  H  H11  1  0.51878000  0.00952000  0.34068700  1
  H  H12  1  0.01878000  0.49048000  0.34068700  1
  H  H13  1  0.51878000  0.50952000  0.15931300  1
  H  H14  1  0.98122000  0.00952000  0.84068700  1
  H  H15  1  0.48122000  0.99048000  0.65931300  1
  H  H16  1  0.10211400  0.52678800  0.76870000  1
  H  H17  1  0.60211400  0.47321200  0.73130000  1
  H  H18  1  0.89788600  0.97321200  0.26870000  1
  H  H19  1  0.39788600  0.02678800  0.23130000  1
  H  H20  1  0.89788600  0.47321200  0.23130000  1
  H  H21  1  0.39788600  0.52678800  0.26870000  1
  H  H22  1  0.10211400  0.02678800  0.73130000  1
  H  H23  1  0.60211400  0.97321200  0.76870000  1
  H  H24  1  0.93403400  0.27995300  0.71031500  1
  H  H25  1  0.43403400  0.72004700  0.78968500  1
  H  H26  1  0.06596600  0.22004700  0.21031500  1
  H  H27  1  0.56596600  0.77995300  0.28968500  1
  H  H28  1  0.06596600  0.72004700  0.28968500  1
  H  H29  1  0.56596600  0.27995300  0.21031500  1
  H  H30  1  0.93403400  0.77995300  0.78968500  1
  H  H31  1  0.43403400  0.22004700  0.71031500  1
  H  H32  1  0.03596200  0.17934400  0.54253100  1
  H  H33  1  0.53596200  0.82065600  0.95746900  1
  H  H34  1  0.96403800  0.32065600  0.04253100  1
  H  H35  1  0.46403800  0.67934400  0.45746900  1
  H  H36  1  0.96403800  0.82065600  0.45746900  1
  H  H37  1  0.46403800  0.17934400  0.04253100  1
  H  H38  1  0.03596200  0.67934400  0.95746900  1
  H  H39  1  0.53596200  0.32065600  0.54253100  1
  H  H40  1  0.12384100  0.28370600  0.44856300  1
  H  H41  1  0.62384100  0.71629400  0.05143700  1
  H  H42  1  0.87615900  0.21629400  0.94856300  1
  H  H43  1  0.37615900  0.78370600  0.55143700  1
  H  H44  1  0.87615900  0.71629400  0.55143700  1
  H  H45  1  0.37615900  0.28370600  0.94856300  1
  H  H46  1  0.12384100  0.78370600  0.05143700  1
  H  H47  1  0.62384100  0.21629400  0.44856300  1
  H  H48  1  0.99275000  0.13993300  0.42239100  1
  H  H49  1  0.49275000  0.86006700  0.07760900  1
  H  H50  1  0.00725000  0.36006700  0.92239100  1
  H  H51  1  0.50725000  0.63993300  0.57760900  1
  H  H52  1  0.00725000  0.86006700  0.57760900  1
  H  H53  1  0.50725000  0.13993300  0.92239100  1
  H  H54  1  0.99275000  0.63993300  0.07760900  1
  H  H55  1  0.49275000  0.36006700  0.42239100  1
  H  H56  1  0.28123600  0.03962800  0.51602900  1
  H  H57  1  0.78123600  0.96037200  0.98397100  1
  H  H58  1  0.71876400  0.46037200  0.01602900  1
  H  H59  1  0.21876400  0.53962800  0.48397100  1
  H  H60  1  0.71876400  0.96037200  0.48397100  1
  H  H61  1  0.21876400  0.03962800  0.01602900  1
  H  H62  1  0.28123600  0.53962800  0.98397100  1
  H  H63  1  0.78123600  0.46037200  0.51602900  1
  N  N0  1  0.06695900  0.45874100  0.71344100  1
  N  N1  1  0.56695900  0.54125900  0.78655900  1
  N  N2  1  0.93304100  0.04125900  0.21344100  1
  N  N3  1  0.43304100  0.95874100  0.28655900  1
  N  N4  1  0.93304100  0.54125900  0.28655900  1
  N  N5  1  0.43304100  0.45874100  0.21344100  1
  N  N6  1  0.06695900  0.95874100  0.78655900  1
  N  N7  1  0.56695900  0.04125900  0.71344100  1
  N  N8  1  0.09666700  0.18352200  0.47063100  1
  N  N9  1  0.59666700  0.81647800  0.02936900  1
  N  N10  1  0.90333300  0.31647800  0.97063100  1
  N  N11  1  0.40333300  0.68352200  0.52936900  1
  N  N12  1  0.90333300  0.81647800  0.52936900  1
  N  N13  1  0.40333300  0.18352200  0.97063100  1
  N  N14  1  0.09666700  0.68352200  0.02936900  1
  N  N15  1  0.59666700  0.31647800  0.47063100  1
  O  O0  1  0.93894000  0.36107200  0.75835900  1
  O  O1  1  0.43894000  0.63892800  0.74164100  1
  O  O2  1  0.06106000  0.13892800  0.25835900  1
  O  O3  1  0.56106000  0.86107200  0.24164100  1
  O  O4  1  0.06106000  0.63892800  0.24164100  1
  O  O5  1  0.56106000  0.36107200  0.25835900  1
  O  O6  1  0.93894000  0.86107200  0.74164100  1
  O  O7  1  0.43894000  0.13892800  0.75835900  1
  O  O8  1  0.28794600  0.11651100  0.46493000  1
  O  O9  1  0.78794600  0.88348900  0.03507000  1
  O  O10  1  0.71205400  0.38348900  0.96493000  1
  O  O11  1  0.21205400  0.61651100  0.53507000  1
  O  O12  1  0.71205400  0.88348900  0.53507000  1
  O  O13  1  0.21205400  0.11651100  0.96493000  1
  O  O14  1  0.28794600  0.61651100  0.03507000  1
  O  O15  1  0.78794600  0.38348900  0.46493000  1
  F  F0  1  0.92179100  0.16080000  0.64974600  1
  F  F1  1  0.42179100  0.83920000  0.85025400  1
  F  F2  1  0.07820900  0.33920000  0.14974600  1
  F  F3  1  0.57820900  0.66080000  0.35025400  1
  F  F4  1  0.07820900  0.83920000  0.35025400  1
  F  F5  1  0.57820900  0.16080000  0.14974600  1
  F  F6  1  0.92179100  0.66080000  0.85025400  1
  F  F7  1  0.42179100  0.33920000  0.64974600  1
  F  F8  1  0.28292200  0.93391800  0.59014400  1
  F  F9  1  0.78292200  0.06608200  0.90985600  1
  F  F10  1  0.71707800  0.56608200  0.09014400  1
  F  F11  1  0.21707800  0.43391800  0.40985600  1
  F  F12  1  0.71707800  0.06608200  0.40985600  1
  F  F13  1  0.21707800  0.93391800  0.09014400  1
  F  F14  1  0.28292200  0.43391800  0.90985600  1
  F  F15  1  0.78292200  0.56608200  0.59014400  1
loop_
_geom_bond_atom_site_label_1
_geom_bond_atom_site_label_2
_geom_bond_distance
_geom_bond_site_symmetry_2
H0 N0 1.056822 1_555
H1 N1 1.056822 1_555
H2 N2 1.056822 1_555
H3 N3 1.056822 1_555
H4 N4 1.056822 1_555
H5 N5 1.056822 1_555
H6 N6 1.056822 1_555
H7 N7 1.056822 1_555
H8 N0 1.054902 1_655
H9 N1 1.054902 1_555
H10 N2 1.054902 1_465
H11 N3 1.054902 1_545
H12 N4 1.054902 1_455
H13 N5 1.054902 1_555
H14 N6 1.054902 1_645
H15 N7 1.054902 1_565
H16 N0 1.037325 1_555
H17 N1 1.037325 1_555
H18 N2 1.037325 1_565
H19 N3 1.037325 1_545
H20 N4 1.037325 1_555
H21 N5 1.037325 1_555
H22 N6 1.037325 1_545
H23 N7 1.037325 1_565
H24 O0 1.038070 1_555
H25 O1 1.038070 1_555
H26 O2 1.038070 1_555
H27 O3 1.038070 1_555
H28 O4 1.038070 1_555
H29 O5 1.038070 1_555
H30 O6 1.038070 1_555
H31 O7 1.038070 1_555
H32 N8 1.058335 1_555
H33 N9 1.058335 1_556
H34 N10 1.058335 1_554
H35 N11 1.058335 1_555
H36 N12 1.058335 1_555
H37 N13 1.058335 1_554
H38 N14 1.058335 1_556
H39 N15 1.058335 1_555
H40 N8 1.053528 1_555
H41 N9 1.053528 1_555
H42 N10 1.053528 1_555
H43 N11 1.053528 1_555
H44 N12 1.053528 1_555
H45 N13 1.053528 1_555
H46 N14 1.053528 1_555
H47 N15 1.053528 1_555
H48 N8 1.039989 1_655
H49 N9 1.039989 1_555
H50 N10 1.039989 1_455
H51 N11 1.039989 1_555
H52 N12 1.039989 1_455
H53 N13 1.039989 1_555
H54 N14 1.039989 1_655
H55 N15 1.039989 1_555
H56 O8 1.033875 1_555
H57 O9 1.033875 1_556
H58 O10 1.033875 1_554
H59 O11 1.033875 1_555
H60 O12 1.033875 1_555
H61 O13 1.033875 1_554
H62 O14 1.033875 1_556
H63 O15 1.033875 1_555
N0 O0 1.419562 1_455
N1 O1 1.419562 1_555
N2 O2 1.419562 1_655
N3 O3 1.419562 1_555
N4 O4 1.419562 1_655
N5 O5 1.419562 1_555
N6 O6 1.419562 1_455
N7 O7 1.419562 1_555
N8 O8 1.419085 1_555
N9 O9 1.419085 1_555
N10 O10 1.419085 1_555
N11 O11 1.419085 1_555
N12 O12 1.419085 1_555
N13 O13 1.419085 1_555
N14 O14 1.419085 1_555
N15 O15 1.419085 1_555
F0 H24 1.444107 1_555
F1 H25 1.444107 1_555
F2 H26 1.444107 1_555
F3 H27 1.444107 1_555
F4 H28 1.444107 1_555
F5 H29 1.444107 1_555
F6 H30 1.444107 1_555
F7 H31 1.444107 1_555
F8 H56 1.456253 1_565
F9 H57 1.456253 1_545
F10 H58 1.456253 1_555
F11 H59 1.456253 1_555
F12 H60 1.456253 1_545
F13 H61 1.456253 1_565
F14 H62 1.456253 1_555
F15 H63 1.456253 1_555
