# generated using pymatgen
data_Li5Cr2O8
_symmetry_space_group_name_H-M   'P 1'
_cell_length_a   5.15763623
_cell_length_b   7.80631001
_cell_length_c   5.36320999
_cell_angle_alpha   82.72136987
_cell_angle_beta   65.52546871
_cell_angle_gamma   71.91030864
_symmetry_Int_Tables_number   1
_chemical_formula_structural   Li5Cr2O8
_chemical_formula_sum   'Li5 Cr2 O8'
_cell_volume   186.81678012
_cell_formula_units_Z   1
loop_
 _symmetry_equiv_pos_site_id
 _symmetry_equiv_pos_as_xyz
  1  'x, y, z'
loop_
 _atom_site_type_symbol
 _atom_site_label
 _atom_site_symmetry_multiplicity
 _atom_site_fract_x
 _atom_site_fract_y
 _atom_site_fract_z
 _atom_site_occupancy
  Li  Li0  1  0.23057200  0.18062000  0.29174700  1
  Li  Li1  1  0.01140100  0.46789500  0.75940600  1
  Li  Li2  1  0.94665100  0.56456400  0.27160600  1
  Li  Li3  1  0.74393500  0.80625400  0.72260400  1
  Li  Li4  1  0.81543400  0.98515300  0.20211000  1
  Cr  Cr0  1  0.39625500  0.75924400  0.29701300  1
  Cr  Cr1  1  0.59746800  0.23834000  0.70836300  1
  O  O0  1  0.74229200  0.05035700  0.84733200  1
  O  O1  1  0.50915400  0.19098400  0.46618800  1
  O  O2  1  0.28881100  0.35825300  0.95648900  1
  O  O3  1  0.85419000  0.35156900  0.56128800  1
  O  O4  1  0.15040400  0.63541600  0.47491900  1
  O  O5  1  0.69258700  0.63233400  0.02705000  1
  O  O6  1  0.59079900  0.81473800  0.45285100  1
  O  O7  1  0.19485300  0.95805600  0.20237600  1
loop_
_geom_bond_atom_site_label_1
_geom_bond_atom_site_label_2
_geom_bond_distance
_geom_bond_site_symmetry_2
Li0 O7 1.940413 1_545
Li0 O1 2.037515 1_555
Li0 O3 2.047897 1_455
Li0 O2 2.103674 1_554
Li1 O5 1.900644 1_456
Li1 O4 1.929343 1_555
Li1 O3 2.006658 1_455
Li1 O2 2.039680 1_555
Li2 O4 2.015564 1_655
Li2 O5 2.129552 1_555
Li2 O3 2.151677 1_555
Li2 O6 2.214556 1_555
Li2 O2 2.240043 1_654
Li3 O6 1.900339 1_555
Li3 O5 1.970470 1_556
Li3 O4 2.084060 1_655
Li3 O0 2.094498 1_565
Li4 O7 1.902472 1_655
Li4 O6 2.033068 1_555
Li4 O1 2.056613 1_565
Li4 O0 2.062024 1_564
Cr0 O6 1.717423 1_555
Cr0 O4 1.725585 1_555
Cr0 O7 1.726672 1_555
Cr0 O5 1.733015 1_555
Cr1 O1 1.657568 1_555
Cr1 O0 1.664422 1_555
Cr1 O2 1.678189 1_555
Cr1 O3 1.685648 1_555
