# generated using pymatgen
data_Li4Fe2Si4O13
_symmetry_space_group_name_H-M   'P 1'
_cell_length_a   5.03408100
_cell_length_b   13.88048400
_cell_length_c   14.08061900
_cell_angle_alpha   90.00000000
_cell_angle_beta   90.00000000
_cell_angle_gamma   90.00000000
_symmetry_Int_Tables_number   1
_chemical_formula_structural   Li4Fe2Si4O13
_chemical_formula_sum   'Li16 Fe8 Si16 O52'
_cell_volume   983.89002224
_cell_formula_units_Z   4
loop_
 _symmetry_equiv_pos_site_id
 _symmetry_equiv_pos_as_xyz
  1  'x, y, z'
loop_
 _atom_site_type_symbol
 _atom_site_label
 _atom_site_symmetry_multiplicity
 _atom_site_fract_x
 _atom_site_fract_y
 _atom_site_fract_z
 _atom_site_occupancy
  Li  Li0  1  0.18122700  0.03937100  0.21748900  1
  Li  Li1  1  0.65551100  0.11027200  0.92152800  1
  Li  Li2  1  0.64245900  0.13338400  0.10888600  1
  Li  Li3  1  0.25157900  0.21282900  0.84049600  1
  Li  Li4  1  0.75157900  0.28717100  0.34049600  1
  Li  Li5  1  0.14245900  0.36661600  0.60888600  1
  Li  Li6  1  0.15551100  0.38972800  0.42152800  1
  Li  Li7  1  0.68122700  0.46062900  0.71748900  1
  Li  Li8  1  0.31877300  0.53937100  0.21748900  1
  Li  Li9  1  0.84448900  0.61027200  0.92152800  1
  Li  Li10  1  0.85754100  0.63338400  0.10888600  1
  Li  Li11  1  0.24842100  0.71282900  0.84049600  1
  Li  Li12  1  0.74842100  0.78717100  0.34049600  1
  Li  Li13  1  0.35754100  0.86661600  0.60888600  1
  Li  Li14  1  0.34448900  0.88972800  0.42152800  1
  Li  Li15  1  0.81877300  0.96062900  0.71748900  1
  Fe  Fe0  1  0.35695200  0.08098800  0.62870400  1
  Fe  Fe1  1  0.18538400  0.16967800  0.41904000  1
  Fe  Fe2  1  0.68538400  0.33032200  0.91904000  1
  Fe  Fe3  1  0.85695200  0.41901200  0.12870400  1
  Fe  Fe4  1  0.14304800  0.58098800  0.62870400  1
  Fe  Fe5  1  0.31461600  0.66967800  0.41904000  1
  Fe  Fe6  1  0.81461600  0.83032200  0.91904000  1
  Fe  Fe7  1  0.64304800  0.91901200  0.12870400  1
  Si  Si0  1  0.14847600  0.02107200  0.00218400  1
  Si  Si1  1  0.68920800  0.06058600  0.31685500  1
  Si  Si2  1  0.85090800  0.19048900  0.72900500  1
  Si  Si3  1  0.16897600  0.22548200  0.04495400  1
  Si  Si4  1  0.66897600  0.27451800  0.54495400  1
  Si  Si5  1  0.35090800  0.30951100  0.22900500  1
  Si  Si6  1  0.18920800  0.43941400  0.81685500  1
  Si  Si7  1  0.64847600  0.47892800  0.50218400  1
  Si  Si8  1  0.35152400  0.52107200  0.00218400  1
  Si  Si9  1  0.81079200  0.56058600  0.31685500  1
  Si  Si10  1  0.64909200  0.69048900  0.72900500  1
  Si  Si11  1  0.33102400  0.72548200  0.04495400  1
  Si  Si12  1  0.83102400  0.77451800  0.54495400  1
  Si  Si13  1  0.14909200  0.80951100  0.22900500  1
  Si  Si14  1  0.31079200  0.93941400  0.81685500  1
  Si  Si15  1  0.85152400  0.97892800  0.50218400  1
  O  O0  1  0.42085200  0.02491700  0.06274300  1
  O  O1  1  0.77412600  0.03432200  0.20696200  1
  O  O2  1  0.22205600  0.03238500  0.88739900  1
  O  O3  1  0.06340300  0.06555700  0.52094700  1
  O  O4  1  0.37120700  0.07542400  0.33405400  1
  O  O5  1  0.67744100  0.09477900  0.70719100  1
  O  O6  1  0.98396000  0.12494900  0.02574300  1
  O  O7  1  0.85964200  0.15457200  0.34681500  1
  O  O8  1  0.16682300  0.17703100  0.70668800  1
  O  O9  1  0.47177800  0.18379200  0.52471500  1
  O  O10  1  0.24892000  0.21779100  0.15940200  1
  O  O11  1  0.82397300  0.21695600  0.84259600  1
  O  O12  1  0.43965000  0.21593700  0.98246200  1
  O  O13  1  0.93965000  0.28406300  0.48246200  1
  O  O14  1  0.32397300  0.28304400  0.34259600  1
  O  O15  1  0.74892000  0.28220900  0.65940200  1
  O  O16  1  0.97177800  0.31620800  0.02471500  1
  O  O17  1  0.66682300  0.32296900  0.20668800  1
  O  O18  1  0.35964200  0.34542800  0.84681500  1
  O  O19  1  0.48396000  0.37505100  0.52574300  1
  O  O20  1  0.17744100  0.40522100  0.20719100  1
  O  O21  1  0.87120700  0.42457600  0.83405400  1
  O  O22  1  0.56340300  0.43444300  0.02094700  1
  O  O23  1  0.72205600  0.46761500  0.38739900  1
  O  O24  1  0.27412600  0.46567800  0.70696200  1
  O  O25  1  0.92085200  0.47508300  0.56274300  1
  O  O26  1  0.07914800  0.52491700  0.06274300  1
  O  O27  1  0.72587400  0.53432200  0.20696200  1
  O  O28  1  0.27794400  0.53238500  0.88739900  1
  O  O29  1  0.43659700  0.56555700  0.52094700  1
  O  O30  1  0.12879300  0.57542400  0.33405400  1
  O  O31  1  0.82255900  0.59477900  0.70719100  1
  O  O32  1  0.51604000  0.62494900  0.02574300  1
  O  O33  1  0.64035800  0.65457200  0.34681500  1
  O  O34  1  0.33317700  0.67703100  0.70668800  1
  O  O35  1  0.02822200  0.68379200  0.52471500  1
  O  O36  1  0.25108000  0.71779100  0.15940200  1
  O  O37  1  0.67602700  0.71695600  0.84259600  1
  O  O38  1  0.06035000  0.71593700  0.98246200  1
  O  O39  1  0.56035000  0.78406300  0.48246200  1
  O  O40  1  0.17602700  0.78304400  0.34259600  1
  O  O41  1  0.75108000  0.78220900  0.65940200  1
  O  O42  1  0.52822200  0.81620800  0.02471500  1
  O  O43  1  0.83317700  0.82296900  0.20668800  1
  O  O44  1  0.14035800  0.84542800  0.84681500  1
  O  O45  1  0.01604000  0.87505100  0.52574300  1
  O  O46  1  0.32255900  0.90522100  0.20719100  1
  O  O47  1  0.62879300  0.92457600  0.83405400  1
  O  O48  1  0.93659700  0.93444300  0.02094700  1
  O  O49  1  0.77794400  0.96761500  0.38739900  1
  O  O50  1  0.22587400  0.96567800  0.70696200  1
  O  O51  1  0.57914800  0.97508300  0.56274300  1
loop_
_geom_bond_atom_site_label_1
_geom_bond_atom_site_label_2
_geom_bond_distance
_geom_bond_site_symmetry_2
Li0 O4 1.964428 1_555
Li0 O46 1.998629 1_545
Li0 O1 2.055928 1_455
Li0 O0 2.498616 1_555
Li0 O10 2.630288 1_555
Li1 O12 2.016961 1_555
Li1 O11 2.036485 1_555
Li1 O6 2.220059 1_556
Li1 O2 2.482149 1_555
Li1 O0 2.598623 1_556
Li2 O0 1.983287 1_555
Li2 O1 2.058426 1_555
Li2 O6 2.083198 1_555
Li2 O12 2.350370 1_554
Li2 O10 2.409024 1_555
Li3 O18 1.921310 1_555
Li3 O8 1.994688 1_555
Li3 O11 2.153568 1_455
Li3 O12 2.212262 1_555
Li3 O2 2.594517 1_555
Li4 O7 1.921310 1_555
Li4 O17 1.994688 1_555
Li4 O14 2.153568 1_555
Li4 O13 2.212262 1_555
Li4 O23 2.594517 1_555
Li5 O25 1.983287 1_455
Li5 O24 2.058426 1_555
Li5 O19 2.083198 1_555
Li5 O13 2.350370 1_455
Li5 O15 2.409024 1_455
Li6 O13 2.016961 1_455
Li6 O14 2.036485 1_555
Li6 O19 2.220059 1_555
Li6 O23 2.482149 1_455
Li6 O25 2.598623 1_455
Li7 O21 1.964428 1_555
Li7 O31 1.998629 1_555
Li7 O24 2.055928 1_555
Li7 O25 2.498616 1_555
Li7 O15 2.630288 1_555
Li8 O30 1.964428 1_555
Li8 O20 1.998629 1_555
Li8 O27 2.055928 1_555
Li8 O26 2.498616 1_555
Li8 O36 2.630288 1_555
Li9 O38 2.016961 1_655
Li9 O37 2.036485 1_555
Li9 O32 2.220059 1_556
Li9 O28 2.482149 1_655
Li9 O26 2.598623 1_656
Li10 O26 1.983287 1_655
Li10 O27 2.058426 1_555
Li10 O32 2.083198 1_555
Li10 O38 2.350370 1_654
Li10 O36 2.409024 1_655
Li11 O44 1.921310 1_555
Li11 O34 1.994688 1_555
Li11 O37 2.153568 1_555
Li11 O38 2.212262 1_555
Li11 O28 2.594517 1_555
Li12 O33 1.921310 1_555
Li12 O43 1.994688 1_555
Li12 O40 2.153568 1_655
Li12 O39 2.212262 1_555
Li12 O49 2.594517 1_555
Li13 O51 1.983287 1_555
Li13 O50 2.058426 1_555
Li13 O45 2.083198 1_555
Li13 O39 2.350370 1_555
Li13 O41 2.409024 1_555
Li14 O39 2.016961 1_555
Li14 O40 2.036485 1_555
Li14 O45 2.220059 1_555
Li14 O49 2.482149 1_555
Li14 O51 2.598623 1_555
Li15 O47 1.964428 1_555
Li15 O5 1.998629 1_565
Li15 O50 2.055928 1_655
Li15 O51 2.498616 1_555
Li15 O41 2.630288 1_555
Fe0 O5 1.964929 1_555
Fe0 O8 1.974601 1_555
Fe0 O50 2.052177 1_545
Fe0 O51 2.067538 1_545
Fe0 O9 2.124698 1_555
Fe0 O3 2.128797 1_555
Fe1 O7 1.940923 1_455
Fe1 O4 2.004663 1_555
Fe1 O14 2.030141 1_555
Fe1 O9 2.081110 1_555
Fe1 O3 2.127157 1_555
Fe1 O13 2.201958 1_455
Fe2 O18 1.940923 1_555
Fe2 O21 2.004663 1_555
Fe2 O11 2.030141 1_555
Fe2 O16 2.081110 1_556
Fe2 O22 2.127157 1_556
Fe2 O12 2.201958 1_555
Fe3 O20 1.964929 1_655
Fe3 O17 1.974601 1_555
Fe3 O27 2.052177 1_555
Fe3 O26 2.067538 1_655
Fe3 O16 2.124698 1_555
Fe3 O22 2.128797 1_555
Fe4 O31 1.964929 1_455
Fe4 O34 1.974601 1_555
Fe4 O24 2.052177 1_555
Fe4 O25 2.067538 1_455
Fe4 O35 2.124698 1_555
Fe4 O29 2.128797 1_555
Fe5 O33 1.940923 1_555
Fe5 O30 2.004663 1_555
Fe5 O40 2.030141 1_555
Fe5 O35 2.081110 1_555
Fe5 O29 2.127157 1_555
Fe5 O39 2.201958 1_555
Fe6 O44 1.940923 1_655
Fe6 O47 2.004663 1_555
Fe6 O37 2.030141 1_555
Fe6 O42 2.081110 1_556
Fe6 O48 2.127157 1_556
Fe6 O38 2.201958 1_655
Fe7 O46 1.964929 1_555
Fe7 O43 1.974601 1_555
Fe7 O1 2.052177 1_565
Fe7 O0 2.067538 1_565
Fe7 O42 2.124698 1_555
Fe7 O48 2.128797 1_555
O0 Si0 1.615564 1_555
O1 Si1 1.646199 1_555
O2 Si0 1.665564 1_556
O2 Si14 1.688651 1_545
O3 Si15 1.628914 1_445
O4 Si1 1.632104 1_555
O5 Si2 1.619203 1_555
O6 Si0 1.695554 1_655
O6 Si3 1.699389 1_655
O7 Si1 1.617404 1_555
O8 Si2 1.631817 1_455
O9 Si4 1.628673 1_555
O10 Si3 1.664418 1_555
O10 Si5 1.686692 1_555
O11 Si2 1.646673 1_555
O12 Si3 1.627418 1_556
O13 Si4 1.627418 1_555
O14 Si5 1.646673 1_555
O15 Si4 1.664418 1_555
O15 Si2 1.686692 1_555
O16 Si3 1.628673 1_655
O17 Si5 1.631817 1_555
O18 Si6 1.617404 1_555
O19 Si7 1.695554 1_555
O19 Si4 1.699389 1_555
O20 Si5 1.619203 1_555
O21 Si6 1.632104 1_655
O22 Si8 1.628914 1_555
O23 Si7 1.665564 1_555
O23 Si9 1.688651 1_555
O24 Si6 1.646199 1_555
O25 Si7 1.615564 1_555
O26 Si8 1.615564 1_555
O27 Si9 1.646199 1_555
O28 Si8 1.665564 1_556
O28 Si6 1.688651 1_555
O29 Si7 1.628914 1_555
O30 Si9 1.632104 1_455
O31 Si10 1.619203 1_555
O32 Si8 1.695554 1_555
O32 Si11 1.699389 1_555
O33 Si9 1.617404 1_555
O34 Si10 1.631817 1_555
O35 Si12 1.628673 1_455
O36 Si11 1.664418 1_555
O36 Si13 1.686692 1_555
O37 Si10 1.646673 1_555
O38 Si11 1.627418 1_556
O39 Si12 1.627418 1_555
O40 Si13 1.646673 1_555
O41 Si12 1.664418 1_555
O41 Si10 1.686692 1_555
O42 Si11 1.628673 1_555
O43 Si13 1.631817 1_655
O44 Si14 1.617404 1_555
O45 Si15 1.695554 1_455
O45 Si12 1.699389 1_455
O46 Si13 1.619203 1_555
O47 Si14 1.632104 1_555
O48 Si0 1.628914 1_665
O49 Si15 1.665564 1_555
O49 Si1 1.688651 1_565
O50 Si14 1.646199 1_555
O51 Si15 1.615564 1_555
