# generated using pymatgen
data_Mn12O7F17
_symmetry_space_group_name_H-M   'P 1'
_cell_length_a   4.83184700
_cell_length_b   5.82377079
_cell_length_c   15.75863188
_cell_angle_alpha   89.36444970
_cell_angle_beta   89.10096664
_cell_angle_gamma   87.87955758
_symmetry_Int_Tables_number   1
_chemical_formula_structural   Mn12O7F17
_chemical_formula_sum   'Mn12 O7 F17'
_cell_volume   443.05840136
_cell_formula_units_Z   1
loop_
 _symmetry_equiv_pos_site_id
 _symmetry_equiv_pos_as_xyz
  1  'x, y, z'
loop_
 _atom_site_type_symbol
 _atom_site_label
 _atom_site_symmetry_multiplicity
 _atom_site_fract_x
 _atom_site_fract_y
 _atom_site_fract_z
 _atom_site_occupancy
  Mn  Mn0  1  0.95725900  0.16444900  0.58862700  1
  Mn  Mn1  1  0.00551900  0.83299700  0.75390800  1
  Mn  Mn2  1  0.04416100  0.18547700  0.92142800  1
  Mn  Mn3  1  0.94562000  0.15958400  0.24710600  1
  Mn  Mn4  1  0.00439300  0.85503200  0.41211000  1
  Mn  Mn5  1  0.97037900  0.84514900  0.08797600  1
  Mn  Mn6  1  0.52793700  0.32420200  0.41852800  1
  Mn  Mn7  1  0.49277100  0.36125600  0.08388700  1
  Mn  Mn8  1  0.51061500  0.34148300  0.74910900  1
  Mn  Mn9  1  0.48023400  0.63921900  0.91253600  1
  Mn  Mn10  1  0.50108400  0.64620500  0.57946600  1
  Mn  Mn11  1  0.53243700  0.65561800  0.24682600  1
  O  O0  1  0.76610500  0.12150700  0.69497800  1
  O  O1  1  0.79213700  0.11370700  0.35951100  1
  O  O2  1  0.76740600  0.88309500  0.19815300  1
  O  O3  1  0.70848400  0.36991700  0.52808700  1
  O  O4  1  0.70926800  0.40011400  0.18622900  1
  O  O5  1  0.30001200  0.39964300  0.97718200  1
  O  O6  1  0.29156600  0.58839600  0.80793400  1
  F  F0  1  0.75985300  0.13126700  0.03003600  1
  F  F1  1  0.75345600  0.86402800  0.86575600  1
  F  F2  1  0.76304600  0.87732300  0.52231800  1
  F  F3  1  0.75530600  0.36773900  0.85278900  1
  F  F4  1  0.73646600  0.61422000  0.69102600  1
  F  F5  1  0.74792300  0.61117400  0.36252000  1
  F  F6  1  0.72077000  0.63136800  0.01738900  1
  F  F7  1  0.26228700  0.39110700  0.64493800  1
  F  F8  1  0.26746300  0.61244500  0.46560100  1
  F  F9  1  0.25743600  0.61532400  0.13761500  1
  F  F10  1  0.29659100  0.38842300  0.30860100  1
  F  F11  1  0.25366600  0.09480600  0.80653300  1
  F  F12  1  0.20976100  0.12073000  0.48213000  1
  F  F13  1  0.21687700  0.89096000  0.63286700  1
  F  F14  1  0.22177800  0.89133500  0.97988900  1
  F  F15  1  0.20653800  0.13094700  0.14261400  1
  F  F16  1  0.26339600  0.87975500  0.30380100  1
loop_
_geom_bond_atom_site_label_1
_geom_bond_atom_site_label_2
_geom_bond_distance
_geom_bond_site_symmetry_2
Mn0 O0 1.919282 1_555
Mn0 O3 1.921235 1_555
Mn1 O6 2.128066 1_555
Mn1 O0 2.208847 1_465
Mn2 O5 2.007077 1_555
Mn3 O1 1.929244 1_555
Mn3 O4 2.018152 1_555
Mn3 O2 2.019996 1_545
Mn4 O1 1.973060 1_465
Mn5 O2 1.991040 1_555
Mn6 O1 1.967128 1_555
Mn6 O3 1.971641 1_555
Mn7 O5 1.941745 1_554
Mn7 O4 1.955781 1_555
Mn8 O0 1.940871 1_555
Mn8 O6 1.983297 1_555
Mn9 O6 1.927113 1_555
Mn9 O5 1.942508 1_555
Mn10 O3 2.032961 1_555
Mn11 O2 1.921916 1_555
Mn11 O4 1.941105 1_555
F0 Mn7 2.010592 1_555
F0 Mn5 2.124829 1_545
F0 Mn2 2.205089 1_654
F1 Mn9 2.018994 1_555
F1 Mn1 2.132155 1_655
F1 Mn2 2.552831 1_665
F2 Mn10 2.070809 1_555
F2 Mn4 2.079237 1_655
F2 Mn0 2.225818 1_565
F3 Mn2 2.038854 1_655
F3 Mn8 2.042121 1_555
F3 Mn9 2.234040 1_555
F4 Mn10 2.111563 1_555
F4 Mn1 2.118104 1_655
F4 Mn8 2.148541 1_555
F5 Mn4 2.085308 1_655
F5 Mn11 2.122315 1_555
F5 Mn6 2.184317 1_555
F6 Mn9 2.034148 1_554
F6 Mn5 2.103791 1_555
F6 Mn7 2.200403 1_555
F7 Mn8 2.060022 1_555
F7 Mn10 2.158338 1_555
F7 Mn0 2.216548 1_455
F8 Mn4 2.048542 1_555
F8 Mn10 2.149516 1_555
F8 Mn6 2.189558 1_555
F9 Mn7 2.017984 1_555
F9 Mn5 2.049537 1_455
F9 Mn11 2.210513 1_555
F10 Mn6 2.098985 1_555
F10 Mn11 2.174972 1_555
F10 Mn3 2.416309 1_455
F11 Mn8 2.119430 1_555
F11 Mn2 2.122721 1_555
F11 Mn1 2.155145 1_545
F12 Mn0 2.071739 1_455
F12 Mn4 2.186871 1_545
F12 Mn6 2.198265 1_555
F13 Mn0 2.109837 1_465
F13 Mn10 2.114526 1_555
F13 Mn1 2.178377 1_555
F14 Mn5 2.097195 1_456
F14 Mn2 2.097785 1_565
F14 Mn9 2.167763 1_555
F15 Mn3 2.062539 1_455
F15 Mn7 2.153560 1_555
F15 Mn5 2.239843 1_445
F16 Mn11 2.015865 1_555
F16 Mn4 2.107348 1_555
F16 Mn3 2.374277 1_465
