# generated using pymatgen
data_LiSnPO4
_symmetry_space_group_name_H-M   'P 1'
_cell_length_a   12.55718500
_cell_length_b   6.28232000
_cell_length_c   9.79096153
_cell_angle_alpha   80.56530587
_cell_angle_beta   90.00000000
_cell_angle_gamma   90.00000000
_symmetry_Int_Tables_number   1
_chemical_formula_structural   LiSnPO4
_chemical_formula_sum   'Li8 Sn8 P8 O32'
_cell_volume   761.94378356
_cell_formula_units_Z   8
loop_
 _symmetry_equiv_pos_site_id
 _symmetry_equiv_pos_as_xyz
  1  'x, y, z'
loop_
 _atom_site_type_symbol
 _atom_site_label
 _atom_site_symmetry_multiplicity
 _atom_site_fract_x
 _atom_site_fract_y
 _atom_site_fract_z
 _atom_site_occupancy
  Li  Li0  1  0.86521000  0.03749200  0.95158400  1
  Li  Li1  1  0.63479000  0.03749200  0.45158400  1
  Li  Li2  1  0.37316400  0.49639800  0.65769800  1
  Li  Li3  1  0.12683600  0.49639800  0.15769800  1
  Li  Li4  1  0.87316400  0.50360200  0.84230200  1
  Li  Li5  1  0.62683600  0.50360200  0.34230200  1
  Li  Li6  1  0.36521000  0.96250800  0.54841600  1
  Li  Li7  1  0.13479000  0.96250800  0.04841600  1
  Sn  Sn0  1  0.08879700  0.89604500  0.73276500  1
  Sn  Sn1  1  0.41120300  0.89604500  0.23276500  1
  Sn  Sn2  1  0.64377200  0.64650300  0.98189500  1
  Sn  Sn3  1  0.85622800  0.64650300  0.48189500  1
  Sn  Sn4  1  0.14377200  0.35349700  0.51810500  1
  Sn  Sn5  1  0.35622800  0.35349700  0.01810500  1
  Sn  Sn6  1  0.58879700  0.10395500  0.76723500  1
  Sn  Sn7  1  0.91120300  0.10395500  0.26723500  1
  P  P0  1  0.34471000  0.85856100  0.84660800  1
  P  P1  1  0.15529000  0.85856100  0.34660800  1
  P  P2  1  0.61050700  0.62700800  0.63687400  1
  P  P3  1  0.88949300  0.62700800  0.13687400  1
  P  P4  1  0.11050700  0.37299200  0.86312600  1
  P  P5  1  0.38949300  0.37299200  0.36312600  1
  P  P6  1  0.84471000  0.14143900  0.65339200  1
  P  P7  1  0.65529000  0.14143900  0.15339200  1
  O  O0  1  0.26299300  0.91577200  0.40797900  1
  O  O1  1  0.91407200  0.93281500  0.69228600  1
  O  O2  1  0.23700700  0.91577200  0.90797900  1
  O  O3  1  0.58592800  0.93281500  0.19228600  1
  O  O4  1  0.32824700  0.75933300  0.71436900  1
  O  O5  1  0.54887900  0.84407100  0.60776800  1
  O  O6  1  0.17175300  0.75933300  0.21436900  1
  O  O7  1  0.95112100  0.84407100  0.10776800  1
  O  O8  1  0.40513400  0.69366600  0.96058200  1
  O  O9  1  0.68447700  0.61382800  0.76558600  1
  O  O10  1  0.09486600  0.69366600  0.46058200  1
  O  O11  1  0.68026500  0.60581100  0.50638300  1
  O  O12  1  0.03023600  0.56677100  0.83926200  1
  O  O13  1  0.81552300  0.61382800  0.26558600  1
  O  O14  1  0.81973500  0.60581100  0.00638300  1
  O  O15  1  0.46976400  0.56677100  0.33926200  1
  O  O16  1  0.53023600  0.43322900  0.66073800  1
  O  O17  1  0.18026500  0.39418900  0.99361700  1
  O  O18  1  0.18447700  0.38617200  0.73441400  1
  O  O19  1  0.96976400  0.43322900  0.16073800  1
  O  O20  1  0.31973500  0.39418900  0.49361700  1
  O  O21  1  0.90513400  0.30633400  0.53941800  1
  O  O22  1  0.31552300  0.38617200  0.23441400  1
  O  O23  1  0.59486600  0.30633400  0.03941800  1
  O  O24  1  0.04887900  0.15592900  0.89223200  1
  O  O25  1  0.82824700  0.24066700  0.78563100  1
  O  O26  1  0.45112100  0.15592900  0.39223200  1
  O  O27  1  0.67175300  0.24066700  0.28563100  1
  O  O28  1  0.41407200  0.06718500  0.80771400  1
  O  O29  1  0.76299300  0.08422800  0.09202100  1
  O  O30  1  0.08592800  0.06718500  0.30771400  1
  O  O31  1  0.73700700  0.08422800  0.59202100  1
loop_
_geom_bond_atom_site_label_1
_geom_bond_atom_site_label_2
_geom_bond_distance
_geom_bond_site_symmetry_2
Li0 O29 1.938233 1_556
Li0 O25 1.950595 1_555
Li0 O7 2.090356 1_546
Li0 O24 2.463510 1_655
Li1 O31 1.938233 1_555
Li1 O27 1.950595 1_555
Li1 O5 2.090356 1_545
Li1 O26 2.463510 1_555
Li2 O4 1.911824 1_555
Li2 O20 1.944609 1_555
Li2 O16 2.011167 1_555
Li2 O18 2.546985 1_555
Li3 O6 1.911824 1_555
Li3 O17 1.944609 1_554
Li3 O19 2.011167 1_455
Li3 O22 2.546985 1_555
Li4 O25 1.911824 1_555
Li4 O14 1.944609 1_556
Li4 O12 2.011167 1_655
Li4 O9 2.546985 1_555
Li5 O27 1.911824 1_555
Li5 O11 1.944609 1_555
Li5 O15 2.011167 1_555
Li5 O13 2.546985 1_555
Li6 O0 1.938233 1_555
Li6 O4 1.950595 1_555
Li6 O26 2.090356 1_565
Li6 O5 2.463510 1_555
Li7 O2 1.938233 1_554
Li7 O6 1.950595 1_555
Li7 O24 2.090356 1_564
Li7 O7 2.463510 1_455
O0 P1 1.546013 1_555
O0 Sn1 2.547890 1_555
O1 P6 1.567736 1_565
O1 Sn0 2.234792 1_655
O2 P0 1.546013 1_555
O2 Sn0 2.547890 1_555
O3 P7 1.567736 1_565
O3 Sn1 2.234792 1_555
O4 P0 1.540235 1_555
O5 P2 1.553143 1_555
O5 Sn6 2.488048 1_565
O6 P1 1.540235 1_555
O7 P3 1.553143 1_555
O7 Sn7 2.488048 1_565
O8 P0 1.585913 1_555
O8 Sn5 2.206068 1_556
O9 P2 1.556778 1_555
O9 Sn2 2.220657 1_555
O10 P1 1.585913 1_555
O10 Sn4 2.206068 1_555
O11 P2 1.572632 1_555
O11 Sn3 2.232728 1_555
O12 P4 1.568240 1_555
O12 Sn0 2.280345 1_555
O13 P3 1.556778 1_555
O13 Sn3 2.220657 1_555
O14 P3 1.572632 1_555
O14 Sn2 2.232728 1_554
O15 P5 1.568240 1_555
O15 Sn1 2.280345 1_555
O16 P2 1.568240 1_555
O16 Sn6 2.280345 1_555
O17 P4 1.572632 1_555
O17 Sn5 2.232728 1_556
O18 P4 1.556778 1_555
O18 Sn4 2.220657 1_555
O19 P3 1.568240 1_555
O19 Sn7 2.280345 1_555
O20 P5 1.572632 1_555
O20 Sn4 2.232728 1_555
O21 P6 1.585913 1_555
O21 Sn3 2.206068 1_555
O22 P5 1.556778 1_555
O22 Sn5 2.220657 1_555
O23 P7 1.585913 1_555
O23 Sn2 2.206068 1_554
O24 P4 1.553143 1_555
O24 Sn0 2.488048 1_545
O25 P6 1.540235 1_555
O26 P5 1.553143 1_555
O26 Sn1 2.488048 1_545
O27 P7 1.540235 1_555
O28 P0 1.567736 1_545
O28 Sn6 2.234792 1_555
O29 P7 1.546013 1_555
O29 Sn7 2.547890 1_555
O30 P1 1.567736 1_545
O30 Sn7 2.234792 1_455
O31 P6 1.546013 1_555
O31 Sn6 2.547890 1_555
