# generated using pymatgen
data_H20C3(N2O5)2
_symmetry_space_group_name_H-M   'P 1'
_cell_length_a   9.58831976
_cell_length_b   8.78777569
_cell_length_c   6.40073041
_cell_angle_alpha   76.50171784
_cell_angle_beta   63.02336969
_cell_angle_gamma   40.47491247
_symmetry_Int_Tables_number   1
_chemical_formula_structural   H20C3(N2O5)2
_chemical_formula_sum   'H20 C3 N4 O10'
_cell_volume   306.12577981
_cell_formula_units_Z   1
loop_
 _symmetry_equiv_pos_site_id
 _symmetry_equiv_pos_as_xyz
  1  'x, y, z'
loop_
 _atom_site_type_symbol
 _atom_site_label
 _atom_site_symmetry_multiplicity
 _atom_site_fract_x
 _atom_site_fract_y
 _atom_site_fract_z
 _atom_site_occupancy
  H  H0  1  0.36979200  0.92004500  0.41817500  1
  H  H1  1  0.65513300  0.44200400  0.55799600  1
  H  H2  1  0.89984700  0.78401400  0.21598600  1
  H  H3  1  0.11135200  0.22277100  0.46287500  1
  H  H4  1  0.77722900  0.88864800  0.79699800  1
  H  H5  1  0.10151300  0.04654300  0.62673500  1
  H  H6  1  0.95345700  0.89848700  0.77479200  1
  H  H7  1  0.70801200  0.58182500  0.07995500  1
  H  H8  1  0.32160700  0.47954000  0.17574500  1
  H  H9  1  0.52046000  0.67839300  0.97689100  1
  H  H10  1  0.17574500  0.02310900  0.32160700  1
  H  H11  1  0.97689100  0.82425500  0.52046000  1
  H  H12  1  0.07995500  0.63020800  0.70801200  1
  H  H13  1  0.62673500  0.22520800  0.10151300  1
  H  H14  1  0.77479200  0.37326500  0.95345700  1
  H  H15  1  0.79699800  0.53712500  0.77722900  1
  H  H16  1  0.46287500  0.20300200  0.11135200  1
  H  H17  1  0.21598600  0.10015300  0.89984700  1
  H  H18  1  0.55799600  0.34486700  0.65513300  1
  H  H19  1  0.41817500  0.29198800  0.36979200  1
  C  C0  1  0.07017100  0.92982900  0.07017100  1
  C  C1  1  0.80441300  0.63770500  0.36229500  1
  C  C2  1  0.36229500  0.19558700  0.80441300  1
  N  N0  1  0.18941600  0.05219600  0.45878100  1
  N  N1  1  0.94780400  0.81058400  0.70039300  1
  N  N2  1  0.45878100  0.29960700  0.18941600  1
  N  N3  1  0.70039300  0.54121900  0.94780400  1
  O  O0  1  0.94648400  0.05351600  0.94648400  1
  O  O1  1  0.93602300  0.53032700  0.46967300  1
  O  O2  1  0.66114000  0.33886000  0.66114000  1
  O  O3  1  0.67726100  0.62357000  0.37643000  1
  O  O4  1  0.79408300  0.78232600  0.21767400  1
  O  O5  1  0.20122000  0.94116100  0.05883900  1
  O  O6  1  0.46967300  0.06397700  0.93602300  1
  O  O7  1  0.21767400  0.20591700  0.79408300  1
  O  O8  1  0.37643000  0.32273900  0.67726100  1
  O  O9  1  0.05883900  0.79878000  0.20122000  1
loop_
_geom_bond_atom_site_label_1
_geom_bond_atom_site_label_2
_geom_bond_distance
_geom_bond_site_symmetry_2
H0 N0 1.041528 1_565
H1 O2 0.967712 1_555
H2 O4 1.020590 1_555
H2 O9 1.585647 1_655
H3 N0 1.049496 1_555
H4 N1 1.049496 1_555
H5 N0 1.041759 1_555
H6 N1 1.041763 1_555
H7 N3 1.041528 1_554
H8 N2 1.055273 1_555
H9 N3 1.055275 1_555
H10 N0 1.055268 1_555
H11 N1 1.055274 1_555
H12 N1 1.041528 1_455
H13 N2 1.041755 1_555
H14 N3 1.041755 1_555
H15 N3 1.049496 1_555
H16 N2 1.049496 1_555
H17 O7 1.020590 1_555
H17 O5 1.585647 1_546
H18 O2 0.967712 1_555
H19 N2 1.041528 1_555
C0 O9 1.303219 1_555
C0 O5 1.303219 1_555
C0 O0 1.305237 1_464
C1 O1 1.275826 1_555
C1 O3 1.278702 1_555
C1 O4 1.350683 1_555
C2 O6 1.275826 1_555
C2 O8 1.278702 1_555
C2 O7 1.350683 1_555
