# generated using pymatgen
data_BaV8O21
_symmetry_space_group_name_H-M   'P 1'
_cell_length_a   7.21521000
_cell_length_b   7.85129956
_cell_length_c   15.17738755
_cell_angle_alpha   90.23336440
_cell_angle_beta   89.97235512
_cell_angle_gamma   103.30319898
_symmetry_Int_Tables_number   1
_chemical_formula_structural   BaV8O21
_chemical_formula_sum   'Ba2 V16 O42'
_cell_volume   836.70205787
_cell_formula_units_Z   2
loop_
 _symmetry_equiv_pos_site_id
 _symmetry_equiv_pos_as_xyz
  1  'x, y, z'
loop_
 _atom_site_type_symbol
 _atom_site_label
 _atom_site_symmetry_multiplicity
 _atom_site_fract_x
 _atom_site_fract_y
 _atom_site_fract_z
 _atom_site_occupancy
  Ba  Ba0  1  0.26133700  0.04595100  0.31192000  1
  Ba  Ba1  1  0.73866300  0.95404900  0.68808000  1
  V  V0  1  0.54596200  0.18395300  0.92558000  1
  V  V1  1  0.04592300  0.18388000  0.92525400  1
  V  V2  1  0.58393300  0.33798000  0.52342200  1
  V  V3  1  0.08514700  0.33852200  0.52394000  1
  V  V4  1  0.84321400  0.37258200  0.07116700  1
  V  V5  1  0.34307200  0.37316200  0.07104200  1
  V  V6  1  0.59345400  0.38418500  0.73187800  1
  V  V7  1  0.09621500  0.38430700  0.73251800  1
  V  V8  1  0.90378500  0.61569300  0.26748200  1
  V  V9  1  0.40654600  0.61581500  0.26812200  1
  V  V10  1  0.65692800  0.62683800  0.92895800  1
  V  V11  1  0.15678600  0.62741800  0.92883300  1
  V  V12  1  0.41606700  0.66202000  0.47657800  1
  V  V13  1  0.91485300  0.66147800  0.47606000  1
  V  V14  1  0.95407700  0.81612000  0.07474600  1
  V  V15  1  0.45403800  0.81604700  0.07442000  1
  O  O0  1  0.00000000  0.00000000  0.00000000  1
  O  O1  1  0.50000000  0.00000000  0.00000000  1
  O  O2  1  0.52883700  0.09647100  0.82630500  1
  O  O3  1  0.01895600  0.09526400  0.82627600  1
  O  O4  1  0.54039000  0.18490700  0.44806700  1
  O  O5  1  0.05255800  0.18566600  0.44835300  1
  O  O6  1  0.80401200  0.21724200  0.14207100  1
  O  O7  1  0.30455100  0.21744300  0.14399100  1
  O  O8  1  0.80892000  0.23605000  0.95246500  1
  O  O9  1  0.30912200  0.23605900  0.95224900  1
  O  O10  1  0.05332100  0.23211800  0.62733000  1
  O  O11  1  0.56297500  0.23230300  0.62698100  1
  O  O12  1  0.33621300  0.33524600  0.74180900  1
  O  O13  1  0.83023000  0.32626100  0.74195200  1
  O  O14  1  0.59600600  0.38727200  0.03282300  1
  O  O15  1  0.09730200  0.38628500  0.03338400  1
  O  O16  1  0.35527400  0.41968300  0.52954200  1
  O  O17  1  0.85444800  0.41915200  0.52823500  1
  O  O18  1  0.85597000  0.42256200  0.31009900  1
  O  O19  1  0.35421400  0.41811500  0.30975000  1
  O  O20  1  0.60857700  0.43199700  0.86068200  1
  O  O21  1  0.10783700  0.43024100  0.86046300  1
  O  O22  1  0.39142300  0.56800300  0.13931800  1
  O  O23  1  0.89216300  0.56975900  0.13953700  1
  O  O24  1  0.14403000  0.57743800  0.68990100  1
  O  O25  1  0.64578600  0.58188500  0.69025000  1
  O  O26  1  0.64472600  0.58031700  0.47045800  1
  O  O27  1  0.14555200  0.58084800  0.47176500  1
  O  O28  1  0.40399400  0.61272800  0.96717700  1
  O  O29  1  0.90269800  0.61371500  0.96661600  1
  O  O30  1  0.66378700  0.66475400  0.25819100  1
  O  O31  1  0.16977000  0.67373900  0.25804800  1
  O  O32  1  0.43702500  0.76769700  0.37301900  1
  O  O33  1  0.94667900  0.76788200  0.37267000  1
  O  O34  1  0.19108000  0.76395000  0.04753500  1
  O  O35  1  0.69087800  0.76394100  0.04775100  1
  O  O36  1  0.19598800  0.78275800  0.85792900  1
  O  O37  1  0.69544900  0.78255700  0.85600900  1
  O  O38  1  0.94744200  0.81433400  0.55164700  1
  O  O39  1  0.45961000  0.81509300  0.55193300  1
  O  O40  1  0.98104400  0.90473600  0.17372400  1
  O  O41  1  0.47116300  0.90352900  0.17369500  1
loop_
_geom_bond_atom_site_label_1
_geom_bond_atom_site_label_2
_geom_bond_distance
_geom_bond_site_symmetry_2
Ba0 O19 2.843889 1_555
Ba0 O7 2.870554 1_555
Ba0 O4 2.913539 1_555
Ba0 O5 2.915340 1_555
Ba0 O33 2.916196 1_445
Ba0 O32 2.920895 1_545
Ba0 O40 2.944795 1_445
Ba0 O41 2.949651 1_545
Ba0 O31 2.955953 1_545
Ba1 O25 2.843889 1_555
Ba1 O37 2.870554 1_555
Ba1 O39 2.913539 1_555
Ba1 O38 2.915340 1_555
Ba1 O10 2.916196 1_665
Ba1 O11 2.920895 1_565
Ba1 O3 2.944795 1_665
Ba1 O2 2.949651 1_565
Ba1 O13 2.955953 1_565
O0 V14 1.809380 1_445
O0 V1 1.809380 1_554
O1 V0 1.806702 1_554
O1 V15 1.806702 1_545
O2 V0 1.646199 1_555
O3 V1 1.645625 1_555
O4 V2 1.632941 1_555
O5 V3 1.634273 1_555
O6 V4 1.605363 1_555
O7 V5 1.628551 1_555
O8 V0 1.890974 1_555
O8 V1 1.892832 1_655
O8 V4 2.078137 1_556
O9 V0 1.889730 1_555
O9 V1 1.892983 1_555
O9 V5 2.081509 1_556
O10 V3 1.770605 1_555
O10 V7 1.971553 1_555
O11 V2 1.770407 1_555
O11 V6 1.967028 1_555
O12 V6 1.813083 1_555
O12 V7 1.863991 1_555
O13 V6 1.872743 1_555
O13 V7 1.873245 1_655
O14 V5 1.893602 1_555
O14 V4 1.905161 1_555
O14 V0 2.245452 1_554
O14 V10 2.420547 1_554
O15 V5 1.888744 1_555
O15 V4 1.900031 1_455
O15 V1 2.250409 1_554
O15 V11 2.436449 1_554
O16 V2 1.904848 1_555
O16 V3 1.907912 1_555
O16 V12 2.021569 1_555
O17 V2 1.910081 1_555
O17 V3 1.913165 1_655
O17 V13 2.016717 1_555
O18 V8 1.613590 1_555
O19 V9 1.639852 1_555
O20 V10 1.810389 1_555
O20 V6 1.987427 1_555
O20 V0 2.139443 1_555
O21 V11 1.825858 1_555
O21 V7 1.971926 1_555
O21 V1 2.127277 1_555
O22 V5 1.810389 1_555
O22 V9 1.987427 1_555
O22 V15 2.139443 1_555
O23 V4 1.825858 1_555
O23 V8 1.971926 1_555
O23 V14 2.127277 1_555
O24 V7 1.613590 1_555
O25 V6 1.639852 1_555
O26 V12 1.904848 1_555
O26 V13 1.907912 1_555
O26 V2 2.021569 1_555
O27 V12 1.910081 1_555
O27 V13 1.913165 1_455
O27 V3 2.016717 1_555
O28 V10 1.893602 1_555
O28 V11 1.905161 1_555
O28 V15 2.245452 1_556
O28 V5 2.420547 1_556
O29 V10 1.888744 1_555
O29 V11 1.900031 1_655
O29 V14 2.250409 1_556
O29 V4 2.436449 1_556
O30 V9 1.813083 1_555
O30 V8 1.863991 1_555
O31 V9 1.872743 1_555
O31 V8 1.873245 1_455
O32 V12 1.770407 1_555
O32 V9 1.967028 1_555
O33 V13 1.770605 1_555
O33 V8 1.971553 1_555
O34 V15 1.890974 1_555
O34 V14 1.892832 1_455
O34 V11 2.078137 1_554
O35 V15 1.889730 1_555
O35 V14 1.892983 1_555
O35 V10 2.081509 1_554
O36 V11 1.605363 1_555
O37 V10 1.628551 1_555
O38 V13 1.634273 1_555
O39 V12 1.632941 1_555
O40 V14 1.645625 1_555
O41 V15 1.646199 1_555
