# generated using pymatgen
data_TlCuHCO4
_symmetry_space_group_name_H-M   'P 1'
_cell_length_a   11.15238636
_cell_length_b   11.15238636
_cell_length_c   6.10082400
_cell_angle_alpha   90.00000000
_cell_angle_beta   90.00000000
_cell_angle_gamma   120.00000211
_symmetry_Int_Tables_number   1
_chemical_formula_structural   TlCuHCO4
_chemical_formula_sum   'Tl6 Cu6 H6 C6 O24'
_cell_volume   657.13520084
_cell_formula_units_Z   6
loop_
 _symmetry_equiv_pos_site_id
 _symmetry_equiv_pos_as_xyz
  1  'x, y, z'
loop_
 _atom_site_type_symbol
 _atom_site_label
 _atom_site_symmetry_multiplicity
 _atom_site_fract_x
 _atom_site_fract_y
 _atom_site_fract_z
 _atom_site_occupancy
  Tl  Tl0  1  0.86479500  0.71700500  0.25000000  1
  Tl  Tl1  1  0.85221000  0.13520500  0.25000000  1
  Tl  Tl2  1  0.28299500  0.14779000  0.25000000  1
  Tl  Tl3  1  0.13520500  0.28299500  0.75000000  1
  Tl  Tl4  1  0.14779000  0.86479500  0.75000000  1
  Tl  Tl5  1  0.71700500  0.85221000  0.75000000  1
  Cu  Cu0  1  0.50000000  0.50000000  0.50000000  1
  Cu  Cu1  1  0.00000000  0.50000000  0.50000000  1
  Cu  Cu2  1  0.50000000  0.00000000  0.50000000  1
  Cu  Cu3  1  0.50000000  0.50000000  0.00000000  1
  Cu  Cu4  1  0.00000000  0.50000000  0.00000000  1
  Cu  Cu5  1  0.50000000  0.00000000  0.00000000  1
  H  H0  1  0.80480400  0.41334000  0.25000000  1
  H  H1  1  0.60853600  0.19519600  0.25000000  1
  H  H2  1  0.58666000  0.39146400  0.25000000  1
  H  H3  1  0.19519600  0.58666000  0.75000000  1
  H  H4  1  0.39146400  0.80480400  0.75000000  1
  H  H5  1  0.41334000  0.60853600  0.75000000  1
  C  C0  1  0.19384000  0.76268900  0.25000000  1
  C  C1  1  0.56884900  0.80616000  0.25000000  1
  C  C2  1  0.23731100  0.43115100  0.25000000  1
  C  C3  1  0.80616000  0.23731100  0.75000000  1
  C  C4  1  0.43115100  0.19384000  0.75000000  1
  C  C5  1  0.76268900  0.56884900  0.75000000  1
  O  O0  1  0.89314900  0.49949100  0.25000000  1
  O  O1  1  0.60634200  0.10685100  0.25000000  1
  O  O2  1  0.50050900  0.39365800  0.25000000  1
  O  O3  1  0.10685100  0.50050900  0.75000000  1
  O  O4  1  0.39365800  0.89314900  0.75000000  1
  O  O5  1  0.49949100  0.60634200  0.75000000  1
  O  O6  1  0.14691700  0.69760500  0.43690500  1
  O  O7  1  0.55068800  0.85308300  0.43690500  1
  O  O8  1  0.30239500  0.44931200  0.43690500  1
  O  O9  1  0.85308300  0.30239500  0.93690500  1
  O  O10  1  0.44931200  0.14691700  0.93690500  1
  O  O11  1  0.69760500  0.55068800  0.93690500  1
  O  O12  1  0.85308300  0.30239500  0.56309500  1
  O  O13  1  0.44931200  0.14691700  0.56309500  1
  O  O14  1  0.69760500  0.55068800  0.56309500  1
  O  O15  1  0.14691700  0.69760500  0.06309500  1
  O  O16  1  0.55068800  0.85308300  0.06309500  1
  O  O17  1  0.30239500  0.44931200  0.06309500  1
  O  O18  1  0.28380300  0.89163700  0.25000000  1
  O  O19  1  0.60783500  0.71619700  0.25000000  1
  O  O20  1  0.10836300  0.39216500  0.25000000  1
  O  O21  1  0.71619700  0.10836300  0.75000000  1
  O  O22  1  0.39216500  0.28380300  0.75000000  1
  O  O23  1  0.89163700  0.60783500  0.75000000  1
loop_
_geom_bond_atom_site_label_1
_geom_bond_atom_site_label_2
_geom_bond_distance
_geom_bond_site_symmetry_2
Cu0 O2 1.933788 1_555
Cu0 O5 1.933788 1_555
Cu0 O8 2.019541 1_555
Cu0 O14 2.019541 1_555
Cu0 O19 2.585800 1_555
Cu0 O22 2.585800 1_555
Cu1 O3 1.933788 1_555
Cu1 O0 1.933788 1_455
Cu1 O12 2.019541 1_455
Cu1 O6 2.019541 1_555
Cu1 O23 2.585807 1_455
Cu1 O20 2.585807 1_555
Cu2 O4 1.933788 1_545
Cu2 O1 1.933788 1_555
Cu2 O7 2.019541 1_545
Cu2 O13 2.019541 1_555
Cu2 O18 2.585800 1_545
Cu2 O21 2.585800 1_555
Cu3 O2 1.933788 1_555
Cu3 O5 1.933788 1_554
Cu3 O17 2.019541 1_555
Cu3 O11 2.019541 1_554
Cu3 O19 2.585800 1_555
Cu3 O22 2.585800 1_554
Cu4 O3 1.933788 1_554
Cu4 O0 1.933788 1_455
Cu4 O9 2.019541 1_454
Cu4 O15 2.019541 1_555
Cu4 O23 2.585807 1_454
Cu4 O20 2.585807 1_555
Cu5 O4 1.933788 1_544
Cu5 O1 1.933788 1_555
Cu5 O16 2.019541 1_545
Cu5 O10 2.019541 1_554
Cu5 O18 2.585800 1_545
Cu5 O21 2.585800 1_554
H0 O0 0.973254 1_555
H1 O1 0.973254 1_555
H2 O2 0.973254 1_555
H3 O3 0.973254 1_555
H4 O4 0.973254 1_555
H5 O5 0.973254 1_555
C0 O18 1.277441 1_555
C0 O6 1.311901 1_555
C0 O15 1.311901 1_555
C1 O19 1.277450 1_555
C1 O7 1.311901 1_555
C1 O16 1.311901 1_555
C2 O20 1.277439 1_555
C2 O8 1.311901 1_555
C2 O17 1.311901 1_555
C3 O21 1.277441 1_555
C3 O9 1.311901 1_555
C3 O12 1.311901 1_555
C4 O22 1.277450 1_555
C4 O10 1.311901 1_555
C4 O13 1.311901 1_555
C5 O23 1.277439 1_555
C5 O11 1.311901 1_555
C5 O14 1.311901 1_555
O0 Tl0 2.598379 1_555
O1 Tl1 2.598379 1_555
O2 Tl2 2.598379 1_555
O3 Tl3 2.598379 1_555
O4 Tl4 2.598379 1_555
O5 Tl5 2.598379 1_555
O6 Tl4 2.665929 1_555
O7 Tl5 2.665929 1_555
O8 Tl3 2.665929 1_555
O9 Tl1 2.665929 1_556
O10 Tl2 2.665929 1_556
O11 Tl0 2.665929 1_556
O12 Tl1 2.665929 1_555
O13 Tl2 2.665929 1_555
O14 Tl0 2.665929 1_555
O15 Tl4 2.665929 1_554
O16 Tl5 2.665929 1_554
O17 Tl3 2.665929 1_554
