# generated using pymatgen
data_LiCrPO4
_symmetry_space_group_name_H-M   'P 1'
_cell_length_a   5.77438300
_cell_length_b   7.78185300
_cell_length_c   14.14579200
_cell_angle_alpha   90.00000000
_cell_angle_beta   90.00000000
_cell_angle_gamma   90.00000000
_symmetry_Int_Tables_number   1
_chemical_formula_structural   LiCrPO4
_chemical_formula_sum   'Li8 Cr8 P8 O32'
_cell_volume   635.64681719
_cell_formula_units_Z   8
loop_
 _symmetry_equiv_pos_site_id
 _symmetry_equiv_pos_as_xyz
  1  'x, y, z'
loop_
 _atom_site_type_symbol
 _atom_site_label
 _atom_site_symmetry_multiplicity
 _atom_site_fract_x
 _atom_site_fract_y
 _atom_site_fract_z
 _atom_site_occupancy
  Li  Li0  1  0.42199300  0.17361300  0.52696700  1
  Li  Li1  1  0.92199300  0.17361300  0.97303300  1
  Li  Li2  1  0.42199300  0.32638700  0.02696700  1
  Li  Li3  1  0.92199300  0.32638700  0.47303300  1
  Li  Li4  1  0.07800700  0.67361300  0.52696700  1
  Li  Li5  1  0.57800700  0.67361300  0.97303300  1
  Li  Li6  1  0.07800700  0.82638700  0.02696700  1
  Li  Li7  1  0.57800700  0.82638700  0.47303300  1
  Cr  Cr0  1  0.12918800  0.14047300  0.18848600  1
  Cr  Cr1  1  0.62918800  0.14047300  0.31151400  1
  Cr  Cr2  1  0.62918800  0.35952700  0.81151400  1
  Cr  Cr3  1  0.12918800  0.35952700  0.68848600  1
  Cr  Cr4  1  0.37081200  0.64047300  0.18848600  1
  Cr  Cr5  1  0.87081200  0.64047300  0.31151400  1
  Cr  Cr6  1  0.37081200  0.85952700  0.68848600  1
  Cr  Cr7  1  0.87081200  0.85952700  0.81151400  1
  P  P0  1  0.89198100  0.03196600  0.62724000  1
  P  P1  1  0.39198100  0.03196600  0.87276000  1
  P  P2  1  0.89198100  0.46803400  0.12724000  1
  P  P3  1  0.39198100  0.46803400  0.37276000  1
  P  P4  1  0.60801900  0.53196600  0.62724000  1
  P  P5  1  0.10801900  0.53196600  0.87276000  1
  P  P6  1  0.60801900  0.96803400  0.12724000  1
  P  P7  1  0.10801900  0.96803400  0.37276000  1
  O  O0  1  0.82439100  0.99158900  0.06647500  1
  O  O1  1  0.32439100  0.99158900  0.43352500  1
  O  O2  1  0.32078200  0.07658000  0.76878000  1
  O  O3  1  0.82078200  0.07658000  0.73122000  1
  O  O4  1  0.46364200  0.13824200  0.13386900  1
  O  O5  1  0.96364200  0.13824200  0.36613100  1
  O  O6  1  0.05075100  0.17897100  0.58890000  1
  O  O7  1  0.55075100  0.17897100  0.91110000  1
  O  O8  1  0.05075100  0.32102900  0.08890000  1
  O  O9  1  0.55075100  0.32102900  0.41110000  1
  O  O10  1  0.46364200  0.36175800  0.63386900  1
  O  O11  1  0.96364200  0.36175800  0.86613100  1
  O  O12  1  0.82078200  0.42342000  0.23122000  1
  O  O13  1  0.32078200  0.42342000  0.26878000  1
  O  O14  1  0.82439100  0.50841100  0.56647500  1
  O  O15  1  0.32439100  0.50841100  0.93352500  1
  O  O16  1  0.17560900  0.49158900  0.43352500  1
  O  O17  1  0.67560900  0.49158900  0.06647500  1
  O  O18  1  0.67921800  0.57658000  0.73122000  1
  O  O19  1  0.17921800  0.57658000  0.76878000  1
  O  O20  1  0.03635800  0.63824200  0.13386900  1
  O  O21  1  0.53635800  0.63824200  0.36613100  1
  O  O22  1  0.44924900  0.67897100  0.58890000  1
  O  O23  1  0.94924900  0.67897100  0.91110000  1
  O  O24  1  0.44924900  0.82102900  0.08890000  1
  O  O25  1  0.94924900  0.82102900  0.41110000  1
  O  O26  1  0.03635800  0.86175800  0.63386900  1
  O  O27  1  0.53635800  0.86175800  0.86613100  1
  O  O28  1  0.67921800  0.92342000  0.23122000  1
  O  O29  1  0.17921800  0.92342000  0.26878000  1
  O  O30  1  0.67560900  0.00841100  0.56647500  1
  O  O31  1  0.17560900  0.00841100  0.93352500  1
loop_
_geom_bond_atom_site_label_1
_geom_bond_atom_site_label_2
_geom_bond_distance
_geom_bond_site_symmetry_2
Li0 O1 2.017733 1_545
Li0 O30 2.027249 1_555
Li0 O10 2.118553 1_555
Li0 O9 2.134293 1_555
Li0 O6 2.316181 1_555
Li1 O0 2.017733 1_546
Li1 O31 2.027249 1_655
Li1 O11 2.118553 1_555
Li1 O8 2.134293 1_656
Li1 O7 2.316181 1_555
Li2 O15 2.017733 1_554
Li2 O17 2.027249 1_555
Li2 O4 2.118553 1_555
Li2 O7 2.134293 1_554
Li2 O8 2.316181 1_555
Li3 O14 2.017733 1_555
Li3 O16 2.027249 1_655
Li3 O5 2.118553 1_555
Li3 O6 2.134293 1_655
Li3 O9 2.316181 1_555
Li4 O16 2.017733 1_555
Li4 O14 2.027249 1_455
Li4 O26 2.118553 1_555
Li4 O25 2.134293 1_455
Li4 O22 2.316181 1_555
Li5 O17 2.017733 1_556
Li5 O15 2.027249 1_555
Li5 O27 2.118553 1_555
Li5 O24 2.134293 1_556
Li5 O23 2.316181 1_555
Li6 O31 2.017733 1_564
Li6 O0 2.027249 1_455
Li6 O20 2.118553 1_555
Li6 O23 2.134293 1_454
Li6 O24 2.316181 1_555
Li7 O30 2.017733 1_565
Li7 O1 2.027249 1_555
Li7 O21 2.118553 1_555
Li7 O22 2.134293 1_555
Li7 O25 2.316181 1_555
Cr0 O8 2.040548 1_555
Cr0 O29 2.055851 1_545
Cr0 O4 2.080144 1_555
Cr1 O9 2.040548 1_555
Cr1 O28 2.055851 1_545
Cr1 O5 2.080144 1_555
Cr2 O7 2.040548 1_555
Cr2 O18 2.055851 1_555
Cr2 O11 2.080144 1_555
Cr3 O6 2.040548 1_555
Cr3 O19 2.055851 1_555
Cr3 O10 2.080144 1_555
Cr4 O24 2.040548 1_555
Cr4 O13 2.055851 1_555
Cr4 O20 2.080144 1_555
Cr5 O25 2.040548 1_555
Cr5 O12 2.055851 1_555
Cr5 O21 2.080144 1_555
Cr6 O22 2.040548 1_555
Cr6 O2 2.055851 1_565
Cr6 O26 2.080144 1_555
Cr7 O23 2.040548 1_555
Cr7 O3 2.055851 1_565
Cr7 O27 2.080144 1_555
O0 P6 1.527578 1_555
O1 P7 1.527578 1_555
O2 P1 1.566221 1_555
O3 P0 1.566221 1_555
O4 P6 1.567871 1_545
O5 P7 1.567871 1_645
O6 P0 1.563117 1_455
O7 P1 1.563117 1_555
O8 P2 1.563117 1_455
O9 P3 1.563117 1_555
O10 P4 1.567871 1_555
O11 P5 1.567871 1_655
O12 P2 1.566221 1_555
O13 P3 1.566221 1_555
O14 P4 1.527578 1_555
O15 P5 1.527578 1_555
O16 P3 1.527578 1_555
O17 P2 1.527578 1_555
O18 P4 1.566221 1_555
O19 P5 1.566221 1_555
O20 P2 1.567871 1_455
O21 P3 1.567871 1_555
O22 P4 1.563117 1_555
O23 P5 1.563117 1_655
O24 P6 1.563117 1_555
O25 P7 1.563117 1_655
O26 P0 1.567871 1_465
O27 P1 1.567871 1_565
O28 P6 1.566221 1_555
O29 P7 1.566221 1_555
O30 P0 1.527578 1_555
O31 P1 1.527578 1_555
