# generated using pymatgen
data_Li2TiCr(PO4)3
_symmetry_space_group_name_H-M   'P 1'
_cell_length_a   8.76676800
_cell_length_b   8.63123100
_cell_length_c   14.70878636
_cell_angle_alpha   54.45699609
_cell_angle_beta   90.00000000
_cell_angle_gamma   90.00000000
_symmetry_Int_Tables_number   1
_chemical_formula_structural   Li2TiCr(PO4)3
_chemical_formula_sum   'Li8 Ti4 Cr4 P12 O48'
_cell_volume   905.61255410
_cell_formula_units_Z   4
loop_
 _symmetry_equiv_pos_site_id
 _symmetry_equiv_pos_as_xyz
  1  'x, y, z'
loop_
 _atom_site_type_symbol
 _atom_site_label
 _atom_site_symmetry_multiplicity
 _atom_site_fract_x
 _atom_site_fract_y
 _atom_site_fract_z
 _atom_site_occupancy
  Li  Li0  1  0.78323600  0.95135200  0.82903700  1
  Li  Li1  1  0.71998900  0.59989800  0.17718300  1
  Li  Li2  1  0.28323600  0.04864800  0.67096300  1
  Li  Li3  1  0.21998900  0.40010200  0.32281700  1
  Li  Li4  1  0.71676400  0.95135200  0.32903700  1
  Li  Li5  1  0.78001100  0.59989800  0.67718300  1
  Li  Li6  1  0.21676400  0.04864800  0.17096300  1
  Li  Li7  1  0.28001100  0.40010200  0.82281700  1
  Ti  Ti0  1  0.95720600  0.13733400  0.61492600  1
  Ti  Ti1  1  0.45720600  0.86266600  0.88507400  1
  Ti  Ti2  1  0.54279400  0.13733400  0.11492600  1
  Ti  Ti3  1  0.04279400  0.86266600  0.38507400  1
  Cr  Cr0  1  0.53727100  0.36944900  0.38176700  1
  Cr  Cr1  1  0.03727100  0.63055100  0.11823300  1
  Cr  Cr2  1  0.96272900  0.36944900  0.88176700  1
  Cr  Cr3  1  0.46272900  0.63055100  0.61823300  1
  P  P0  1  0.25268700  0.46164600  0.50299700  1
  P  P1  1  0.11009300  0.04227100  0.85558500  1
  P  P2  1  0.38695300  0.75096300  0.14665100  1
  P  P3  1  0.61009300  0.95772900  0.64441500  1
  P  P4  1  0.88695300  0.24903700  0.35334900  1
  P  P5  1  0.75268700  0.53835400  0.99700300  1
  P  P6  1  0.24731300  0.46164600  0.00299700  1
  P  P7  1  0.11304700  0.75096300  0.64665100  1
  P  P8  1  0.38990700  0.04227100  0.35558500  1
  P  P9  1  0.61304700  0.24903700  0.85334900  1
  P  P10  1  0.88990700  0.95772900  0.14441500  1
  P  P11  1  0.74731300  0.53835400  0.49700300  1
  O  O0  1  0.85080600  0.36141300  0.57149100  1
  O  O1  1  0.65263800  0.52884200  0.41435900  1
  O  O2  1  0.60401900  0.07784700  0.84513700  1
  O  O3  1  0.88948500  0.76888900  0.15561800  1
  O  O4  1  0.15062100  0.27918400  0.57261900  1
  O  O5  1  0.34356100  0.43689600  0.42296700  1
  O  O6  1  0.07503400  0.87193200  0.97280000  1
  O  O7  1  0.41977100  0.82479900  0.02354700  1
  O  O8  1  0.27164200  0.02302300  0.81672000  1
  O  O9  1  0.22670900  0.66376000  0.18374500  1
  O  O10  1  0.51088000  0.60277600  0.21923400  1
  O  O11  1  0.98845600  0.05178800  0.77452800  1
  O  O12  1  0.01088000  0.39722400  0.28076600  1
  O  O13  1  0.48845600  0.94821200  0.72547200  1
  O  O14  1  0.77164200  0.97697700  0.68328000  1
  O  O15  1  0.72670900  0.33624000  0.31625500  1
  O  O16  1  0.57503400  0.12806800  0.52720000  1
  O  O17  1  0.91977100  0.17520100  0.47645300  1
  O  O18  1  0.65062100  0.72081600  0.92738100  1
  O  O19  1  0.84356100  0.56310400  0.07703300  1
  O  O20  1  0.10401900  0.92215300  0.65486300  1
  O  O21  1  0.38948500  0.23111100  0.34438200  1
  O  O22  1  0.35080600  0.63858700  0.92850900  1
  O  O23  1  0.15263800  0.47115800  0.08564100  1
  O  O24  1  0.64919400  0.36141300  0.07149100  1
  O  O25  1  0.84736200  0.52884200  0.91435900  1
  O  O26  1  0.61051500  0.76888900  0.65561800  1
  O  O27  1  0.89598100  0.07784700  0.34513700  1
  O  O28  1  0.15643900  0.43689600  0.92296700  1
  O  O29  1  0.34937900  0.27918400  0.07261900  1
  O  O30  1  0.08022900  0.82479900  0.52354700  1
  O  O31  1  0.42496600  0.87193200  0.47280000  1
  O  O32  1  0.22835800  0.02302300  0.31672000  1
  O  O33  1  0.27329100  0.66376000  0.68374500  1
  O  O34  1  0.51154400  0.05178800  0.27452800  1
  O  O35  1  0.98912000  0.60277600  0.71923400  1
  O  O36  1  0.01154400  0.94821200  0.22547200  1
  O  O37  1  0.48912000  0.39722400  0.78076600  1
  O  O38  1  0.77329100  0.33624000  0.81625500  1
  O  O39  1  0.72835800  0.97697700  0.18328000  1
  O  O40  1  0.58022900  0.17520100  0.97645300  1
  O  O41  1  0.92496600  0.12806800  0.02720000  1
  O  O42  1  0.65643900  0.56310400  0.57703300  1
  O  O43  1  0.84937900  0.72081600  0.42738100  1
  O  O44  1  0.11051500  0.23111100  0.84438200  1
  O  O45  1  0.39598100  0.92215300  0.15486300  1
  O  O46  1  0.14919400  0.63858700  0.42850900  1
  O  O47  1  0.34736200  0.47115800  0.58564100  1
loop_
_geom_bond_atom_site_label_1
_geom_bond_atom_site_label_2
_geom_bond_distance
_geom_bond_site_symmetry_2
Li0 O11 1.955266 1_565
Li0 O2 2.004307 1_565
Li0 O18 2.014205 1_555
Li0 O14 2.025907 1_555
Li1 O10 1.939512 1_555
Li1 O3 1.974391 1_555
Li1 O15 1.988589 1_555
Li1 O19 1.997081 1_555
Li2 O13 1.955266 1_545
Li2 O20 2.004307 1_545
Li2 O4 2.014205 1_555
Li2 O8 2.025907 1_555
Li3 O12 1.939512 1_555
Li3 O21 1.974391 1_555
Li3 O9 1.988589 1_555
Li3 O5 1.997081 1_555
Li4 O34 1.955266 1_565
Li4 O27 2.004307 1_565
Li4 O43 2.014205 1_555
Li4 O39 2.025907 1_555
Li5 O35 1.939512 1_555
Li5 O26 1.974391 1_555
Li5 O38 1.988589 1_555
Li5 O42 1.997081 1_555
Li6 O36 1.955266 1_545
Li6 O45 2.004307 1_545
Li6 O29 2.014205 1_555
Li6 O32 2.025907 1_555
Li7 O37 1.939512 1_555
Li7 O44 1.974391 1_555
Li7 O33 1.988589 1_555
Li7 O28 1.997081 1_555
Cr0 O16 1.960776 1_555
Cr0 O1 1.977934 1_555
Cr0 O5 2.000054 1_555
Cr0 O15 2.022357 1_555
Cr0 O21 2.042065 1_555
Cr0 O10 2.055980 1_555
Cr1 O6 1.960776 1_554
Cr1 O23 1.977934 1_555
Cr1 O19 2.000054 1_455
Cr1 O9 2.022357 1_555
Cr1 O3 2.042065 1_455
Cr1 O12 2.055980 1_555
Cr2 O41 1.960776 1_556
Cr2 O25 1.977934 1_555
Cr2 O28 2.000054 1_655
Cr2 O38 2.022357 1_555
Cr2 O44 2.042065 1_655
Cr2 O35 2.055980 1_555
Cr3 O31 1.960776 1_555
Cr3 O47 1.977934 1_555
Cr3 O42 2.000054 1_555
Cr3 O33 2.022357 1_555
Cr3 O26 2.042065 1_555
Cr3 O37 2.055980 1_555
O0 P11 1.552613 1_555
O0 Ti0 1.892702 1_555
O1 P11 1.513052 1_555
O2 P9 1.552932 1_555
O2 Ti1 2.045158 1_545
O3 P10 1.539984 1_555
O4 P0 1.566692 1_555
O4 Ti0 1.968654 1_455
O5 P0 1.535692 1_555
O6 P1 1.510462 1_565
O7 P2 1.557553 1_555
O7 Ti1 1.894467 1_554
O8 P1 1.571817 1_555
O8 Ti1 1.988747 1_545
O9 P2 1.536319 1_555
O10 P2 1.538991 1_555
O11 P1 1.565719 1_655
O11 Ti0 2.028791 1_555
O12 P4 1.538991 1_455
O13 P3 1.565719 1_555
O13 Ti1 2.028791 1_555
O14 P3 1.571817 1_555
O14 Ti0 1.988747 1_565
O15 P4 1.536319 1_555
O16 P3 1.510462 1_545
O17 P4 1.557553 1_555
O17 Ti0 1.894467 1_555
O18 P5 1.566692 1_555
O18 Ti1 1.968654 1_555
O19 P5 1.535692 1_554
O20 P7 1.552932 1_555
O20 Ti0 2.045158 1_465
O21 P8 1.539984 1_555
O22 P6 1.552613 1_556
O22 Ti1 1.892702 1_555
O23 P6 1.513052 1_555
O24 P5 1.552613 1_554
O24 Ti2 1.892702 1_555
O25 P5 1.513052 1_555
O26 P3 1.539984 1_555
O27 P4 1.552932 1_555
O27 Ti3 2.045158 1_645
O28 P6 1.535692 1_556
O29 P6 1.566692 1_555
O29 Ti2 1.968654 1_555
O30 P7 1.557553 1_555
O30 Ti3 1.894467 1_555
O31 P8 1.510462 1_565
O32 P8 1.571817 1_555
O32 Ti3 1.988747 1_545
O33 P7 1.536319 1_555
O34 P8 1.565719 1_555
O34 Ti2 2.028791 1_555
O35 P7 1.538991 1_655
O36 P10 1.565719 1_455
O36 Ti3 2.028791 1_555
O37 P9 1.538991 1_555
O38 P9 1.536319 1_555
O39 P10 1.571817 1_555
O39 Ti2 1.988747 1_565
O40 P9 1.557553 1_555
O40 Ti2 1.894467 1_556
O41 P10 1.510462 1_545
O42 P11 1.535692 1_555
O43 P11 1.566692 1_555
O43 Ti3 1.968654 1_655
O44 P1 1.539984 1_555
O45 P2 1.552932 1_555
O45 Ti2 2.045158 1_565
O46 P0 1.552613 1_555
O46 Ti3 1.892702 1_555
O47 P0 1.513052 1_555
