# generated using pymatgen
data_Li2FeS2
_symmetry_space_group_name_H-M   'P 1'
_cell_length_a   3.88635511
_cell_length_b   3.88635511
_cell_length_c   6.21429900
_cell_angle_alpha   90.00000000
_cell_angle_beta   90.00000000
_cell_angle_gamma   119.99998490
_symmetry_Int_Tables_number   1
_chemical_formula_structural   Li2FeS2
_chemical_formula_sum   'Li2 Fe1 S2'
_cell_volume   81.28451263
_cell_formula_units_Z   1
loop_
 _symmetry_equiv_pos_site_id
 _symmetry_equiv_pos_as_xyz
  1  'x, y, z'
loop_
 _atom_site_type_symbol
 _atom_site_label
 _atom_site_symmetry_multiplicity
 _atom_site_fract_x
 _atom_site_fract_y
 _atom_site_fract_z
 _atom_site_occupancy
  Li  Li0  1  0.00000000  0.00000000  0.34677700  1
  Li  Li1  1  0.66666700  0.33333300  0.03153900  1
  Fe  Fe0  1  0.33333300  0.66666700  0.62494900  1
  S  S0  1  0.00000000  0.00000000  0.74789200  1
  S  S1  1  0.33333300  0.66666700  0.24884300  1
loop_
_geom_bond_atom_site_label_1
_geom_bond_atom_site_label_2
_geom_bond_distance
_geom_bond_site_symmetry_2
Li0 S1 2.324856 1_545
Li0 S1 2.324860 1_555
Li0 S1 2.324860 1_445
Li0 S0 2.492649 1_555
Li1 S1 2.618804 1_545
Li1 S1 2.618804 1_655
Li1 S1 2.618810 1_555
Li1 S0 2.853344 1_654
Li1 S0 2.853347 1_664
Li1 S0 2.853347 1_554
Fe0 S1 2.337235 1_555
Fe0 S0 2.370291 1_565
Fe0 S0 2.370294 1_555
Fe0 S0 2.370294 1_665
