# generated using pymatgen
data_Tb2Mn2O7
_symmetry_space_group_name_H-M   'P 1'
_cell_length_a   7.02071093
_cell_length_b   7.02071093
_cell_length_c   7.02071093
_cell_angle_alpha   60.00000000
_cell_angle_beta   60.00000000
_cell_angle_gamma   60.00000000
_symmetry_Int_Tables_number   1
_chemical_formula_structural   Tb2Mn2O7
_chemical_formula_sum   'Tb4 Mn4 O14'
_cell_volume   244.69679343
_cell_formula_units_Z   2
loop_
 _symmetry_equiv_pos_site_id
 _symmetry_equiv_pos_as_xyz
  1  'x, y, z'
loop_
 _atom_site_type_symbol
 _atom_site_label
 _atom_site_symmetry_multiplicity
 _atom_site_fract_x
 _atom_site_fract_y
 _atom_site_fract_z
 _atom_site_occupancy
  Tb  Tb0  1  0.12500000  0.62500000  0.12500000  1
  Tb  Tb1  1  0.12500000  0.12500000  0.62500000  1
  Tb  Tb2  1  0.62500000  0.12500000  0.12500000  1
  Tb  Tb3  1  0.12500000  0.12500000  0.12500000  1
  Mn  Mn0  1  0.62500000  0.62500000  0.62500000  1
  Mn  Mn1  1  0.12500000  0.62500000  0.62500000  1
  Mn  Mn2  1  0.62500000  0.62500000  0.12500000  1
  Mn  Mn3  1  0.62500000  0.12500000  0.62500000  1
  O  O0  1  0.29774705  0.70225295  0.70225295  1
  O  O1  1  0.54774705  0.95225295  0.95225295  1
  O  O2  1  0.70225295  0.70225295  0.29774705  1
  O  O3  1  0.29774705  0.29774705  0.70225295  1
  O  O4  1  -0.00000000  -0.00000000  -0.00000000  1
  O  O5  1  0.29774705  0.70225295  0.29774705  1
  O  O6  1  0.70225295  0.29774705  0.70225295  1
  O  O7  1  0.95225295  0.54774705  0.95225295  1
  O  O8  1  0.54774705  0.54774705  0.95225295  1
  O  O9  1  0.95225295  0.95225295  0.54774705  1
  O  O10  1  0.25000000  0.25000000  0.25000000  1
  O  O11  1  0.54774705  0.95225295  0.54774705  1
  O  O12  1  0.70225295  0.29774705  0.29774705  1
  O  O13  1  0.95225295  0.54774705  0.54774705  1
loop_
_geom_bond_atom_site_label_1
_geom_bond_atom_site_label_2
_geom_bond_distance
_geom_bond_site_symmetry_2
Mn0 O2 1.915458 1_555
Mn0 O6 1.915458 1_555
Mn0 O0 1.915458 1_555
Mn0 O13 1.915458 1_555
Mn0 O8 1.915458 1_555
Mn0 O11 1.915458 1_555
Mn1 O5 1.915458 1_555
Mn1 O3 1.915458 1_555
Mn1 O0 1.915458 1_555
Mn1 O13 1.915458 1_455
Mn1 O7 1.915458 1_455
Mn1 O9 1.915458 1_455
Mn2 O5 1.915458 1_555
Mn2 O2 1.915458 1_555
Mn2 O12 1.915458 1_555
Mn2 O7 1.915458 1_554
Mn2 O1 1.915458 1_554
Mn2 O8 1.915458 1_554
Mn3 O1 1.915458 1_545
Mn3 O3 1.915458 1_555
Mn3 O6 1.915458 1_555
Mn3 O11 1.915458 1_545
Mn3 O12 1.915458 1_555
Mn3 O9 1.915458 1_545
O0 Tb1 2.454068 1_565
O0 Tb0 2.454068 1_556
O1 Tb3 2.454068 1_566
O1 Tb2 2.454068 1_566
O2 Tb0 2.454068 1_655
O2 Tb2 2.454068 1_565
O3 Tb1 2.454068 1_555
O3 Tb3 2.454068 1_556
O4 Tb1 2.149645 1_554
O4 Tb0 2.149645 1_545
O4 Tb3 2.149645 1_555
O4 Tb2 2.149645 1_455
O5 Tb0 2.454068 1_555
O5 Tb3 2.454068 1_565
O6 Tb1 2.454068 1_655
O6 Tb2 2.454068 1_556
O7 Tb3 2.454068 1_656
O7 Tb0 2.454068 1_656
O8 Tb0 2.454068 1_556
O8 Tb2 2.454068 1_556
O9 Tb1 2.454068 1_665
O9 Tb3 2.454068 1_665
O10 Tb0 2.149645 1_555
O10 Tb1 2.149645 1_555
O10 Tb2 2.149645 1_555
O10 Tb3 2.149645 1_555
O11 Tb1 2.454068 1_565
O11 Tb2 2.454068 1_565
O12 Tb2 2.454068 1_555
O12 Tb3 2.454068 1_655
O13 Tb0 2.454068 1_655
O13 Tb1 2.454068 1_655
