# generated using pymatgen
data_LiVCr(P2O7)2
_symmetry_space_group_name_H-M   'P 1'
_cell_length_a   7.16441900
_cell_length_b   8.06506147
_cell_length_c   13.65595112
_cell_angle_alpha   89.88317318
_cell_angle_beta   82.78562330
_cell_angle_gamma   89.90338999
_symmetry_Int_Tables_number   1
_chemical_formula_structural   LiVCr(P2O7)2
_chemical_formula_sum   'Li3 V3 Cr3 P12 O42'
_cell_volume   782.81179874
_cell_formula_units_Z   3
loop_
 _symmetry_equiv_pos_site_id
 _symmetry_equiv_pos_as_xyz
  1  'x, y, z'
loop_
 _atom_site_type_symbol
 _atom_site_label
 _atom_site_symmetry_multiplicity
 _atom_site_fract_x
 _atom_site_fract_y
 _atom_site_fract_z
 _atom_site_occupancy
  Li  Li0  1  0.15875900  0.86440500  0.16624500  1
  Li  Li1  1  0.82418000  0.86428800  0.50062700  1
  Li  Li2  1  0.83863700  0.36218300  0.83308900  1
  V  V0  1  0.11607200  0.49485500  0.16244200  1
  V  V1  1  0.78073300  0.49540700  0.49458300  1
  V  V2  1  0.44294900  0.50705700  0.82881400  1
  Cr  Cr0  1  0.55654400  0.00618500  0.16981900  1
  Cr  Cr1  1  0.22510700  0.00549700  0.50512000  1
  Cr  Cr2  1  0.88673900  0.99713200  0.83773800  1
  P  P0  1  0.86774700  0.78157700  0.04329700  1
  P  P1  1  0.47976900  0.67778700  0.04177000  1
  P  P2  1  0.79607000  0.28114000  0.28770400  1
  P  P3  1  0.18543900  0.17980800  0.29457700  1
  P  P4  1  0.53468100  0.78279700  0.37606100  1
  P  P5  1  0.14734000  0.67914500  0.37537200  1
  P  P6  1  0.85039500  0.18059200  0.62694100  1
  P  P7  1  0.46181300  0.28263800  0.62314100  1
  P  P8  1  0.81733300  0.68283900  0.70710100  1
  P  P9  1  0.20445200  0.78335400  0.70992100  1
  P  P10  1  0.52182100  0.17645500  0.95949700  1
  P  P11  1  0.13349400  0.28148100  0.95519700  1
  O  O0  1  0.69687500  0.64693100  0.05341500  1
  O  O1  1  0.81172600  0.93413900  0.10621800  1
  O  O2  1  0.53870800  0.18058800  0.06859100  1
  O  O3  1  0.42316700  0.84779500  0.08501700  1
  O  O4  1  0.37057600  0.53825000  0.09909900  1
  O  O5  1  0.86749900  0.43505100  0.22666100  1
  O  O6  1  0.08376400  0.33092000  0.06441800  1
  O  O7  1  0.96477800  0.14701100  0.28321200  1
  O  O8  1  0.02771600  0.68774000  0.08612300  1
  O  O9  1  0.63435300  0.18973300  0.25387500  1
  O  O10  1  0.58695200  0.82355500  0.26796900  1
  O  O11  1  0.28429100  0.04221200  0.23070300  1
  O  O12  1  0.23186100  0.35253100  0.24876400  1
  O  O13  1  0.13037000  0.67729400  0.26337400  1
  O  O14  1  0.74942000  0.33378500  0.39696400  1
  O  O15  1  0.69564600  0.68882700  0.41809700  1
  O  O16  1  0.36420000  0.64781600  0.38702000  1
  O  O17  1  0.47910400  0.93409500  0.44025700  1
  O  O18  1  0.20974300  0.17825400  0.40211200  1
  O  O19  1  0.95108600  0.04170300  0.56603500  1
  O  O20  1  0.89854500  0.35257700  0.58156700  1
  O  O21  1  0.09064300  0.84874700  0.41985300  1
  O  O22  1  0.03740300  0.53871700  0.43071600  1
  O  O23  1  0.79560800  0.67497400  0.59575800  1
  O  O24  1  0.53387200  0.43469000  0.56041200  1
  O  O25  1  0.63095200  0.14759700  0.61744000  1
  O  O26  1  0.30031800  0.19059100  0.58943500  1
  O  O27  1  0.25580900  0.82472200  0.60170300  1
  O  O28  1  0.87533500  0.18240300  0.73597800  1
  O  O29  1  0.76472000  0.85271100  0.74740600  1
  O  O30  1  0.71215700  0.54078300  0.76646100  1
  O  O31  1  0.41848800  0.33831400  0.73181400  1
  O  O32  1  0.36331900  0.68285100  0.74781300  1
  O  O33  1  0.96778700  0.19689400  0.91728400  1
  O  O34  1  0.03340900  0.64527500  0.71845600  1
  O  O35  1  0.92233000  0.81869600  0.93500300  1
  O  O36  1  0.14033400  0.93221100  0.77321400  1
  O  O37  1  0.62445200  0.03896500  0.90051000  1
  O  O38  1  0.57189700  0.34819400  0.91062600  1
  O  O39  1  0.46143900  0.66754800  0.93069900  1
  O  O40  1  0.19369200  0.43674600  0.89269100  1
  O  O41  1  0.29937200  0.14828500  0.94797000  1
loop_
_geom_bond_atom_site_label_1
_geom_bond_atom_site_label_2
_geom_bond_distance
_geom_bond_site_symmetry_2
Li0 O11 1.961741 1_565
Li0 O13 2.000764 1_555
Li0 O3 2.075775 1_555
Li0 O8 2.092259 1_555
Li1 O19 1.971147 1_565
Li1 O23 1.996736 1_555
Li1 O21 2.085129 1_655
Li1 O15 2.095776 1_555
Li2 O28 1.961908 1_555
Li2 O30 1.980183 1_555
Li2 O33 2.052307 1_555
Li2 O38 2.068320 1_555
Cr0 O2 1.985330 1_555
Cr0 O9 1.997534 1_555
Cr0 O1 2.008497 1_545
Cr0 O10 2.019321 1_545
Cr0 O11 2.042557 1_555
Cr0 O3 2.043061 1_545
Cr1 O18 1.990602 1_555
Cr1 O27 1.994383 1_545
Cr1 O26 2.002514 1_555
Cr1 O17 2.005332 1_545
Cr1 O21 2.043021 1_545
Cr1 O19 2.054333 1_455
Cr2 O29 1.980588 1_555
Cr2 O36 1.986987 1_655
Cr2 O37 1.993551 1_565
Cr2 O35 1.994064 1_555
Cr2 O28 2.046969 1_565
Cr2 O33 2.069179 1_565
O0 P1 1.602269 1_555
O0 P0 1.630454 1_555
O1 P0 1.526224 1_555
O2 P10 1.510194 1_554
O3 P1 1.527904 1_555
O4 P1 1.528699 1_555
O4 V0 1.949408 1_555
O5 P2 1.545439 1_555
O5 V0 1.944778 1_655
O6 P11 1.542408 1_554
O6 V0 1.918228 1_555
O7 P2 1.616214 1_555
O7 P3 1.629885 1_655
O8 P0 1.546577 1_455
O8 V0 2.015605 1_555
O9 P2 1.495980 1_555
O10 P4 1.512205 1_555
O11 P3 1.529715 1_555
O12 P3 1.545403 1_555
O12 V0 1.905835 1_555
O13 P5 1.549513 1_555
O13 V0 2.029648 1_555
O14 P2 1.547593 1_555
O14 V1 1.899923 1_555
O15 P4 1.547696 1_555
O15 V1 2.011483 1_555
O16 P5 1.601136 1_555
O16 P4 1.630102 1_555
O17 P4 1.526787 1_555
O18 P3 1.500362 1_555
O19 P6 1.522264 1_555
O20 P6 1.539910 1_555
O20 V1 1.921802 1_555
O21 P5 1.531185 1_555
O22 P5 1.524553 1_555
O22 V1 1.965275 1_455
O23 P8 1.549200 1_555
O23 V1 2.015760 1_555
O24 P7 1.546266 1_555
O24 V1 1.943635 1_555
O25 P6 1.616226 1_555
O25 P7 1.622605 1_555
O26 P7 1.496566 1_555
O27 P9 1.514093 1_555
O28 P6 1.521905 1_555
O29 P8 1.507060 1_555
O30 P8 1.543766 1_555
O30 V2 2.026652 1_555
O31 P7 1.544953 1_555
O31 V2 1.924557 1_555
O32 P9 1.537318 1_555
O32 V2 1.925756 1_555
O33 P11 1.517047 1_655
O34 P8 1.603381 1_455
O34 P9 1.650329 1_555
O35 P0 1.510927 1_556
O36 P9 1.517243 1_555
O37 P10 1.507061 1_555
O38 P10 1.558955 1_555
O38 V2 1.998159 1_555
O39 P1 1.541189 1_556
O39 V2 1.919107 1_555
O40 P11 1.545206 1_555
O40 V2 1.970186 1_555
O41 P11 1.594593 1_555
O41 P10 1.637287 1_555
