# generated using pymatgen
data_Li2Co(CO3)2
_symmetry_space_group_name_H-M   'P 1'
_cell_length_a   9.72345900
_cell_length_b   7.57704300
_cell_length_c   9.12939730
_cell_angle_alpha   55.98020304
_cell_angle_beta   90.00000000
_cell_angle_gamma   90.00000000
_symmetry_Int_Tables_number   1
_chemical_formula_structural   Li2Co(CO3)2
_chemical_formula_sum   'Li8 Co4 C8 O24'
_cell_volume   557.48810669
_cell_formula_units_Z   4
loop_
 _symmetry_equiv_pos_site_id
 _symmetry_equiv_pos_as_xyz
  1  'x, y, z'
loop_
 _atom_site_type_symbol
 _atom_site_label
 _atom_site_symmetry_multiplicity
 _atom_site_fract_x
 _atom_site_fract_y
 _atom_site_fract_z
 _atom_site_occupancy
  Li  Li0  1  0.18324500  0.84414600  0.28948200  1
  Li  Li1  1  0.87853800  0.63534400  0.35691400  1
  Li  Li2  1  0.31675500  0.84414600  0.78948200  1
  Li  Li3  1  0.62146200  0.63534400  0.85691400  1
  Li  Li4  1  0.37853800  0.36465600  0.14308600  1
  Li  Li5  1  0.68324500  0.15585400  0.21051800  1
  Li  Li6  1  0.12146200  0.36465600  0.64308600  1
  Li  Li7  1  0.81675500  0.15585400  0.71051800  1
  Co  Co0  1  0.38104200  0.46036100  0.45221800  1
  Co  Co1  1  0.88104200  0.53963900  0.04778200  1
  Co  Co2  1  0.11895800  0.46036100  0.95221800  1
  Co  Co3  1  0.61895800  0.53963900  0.54778200  1
  C  C0  1  0.48457100  0.92396200  0.30239700  1
  C  C1  1  0.01542900  0.92396200  0.80239700  1
  C  C2  1  0.11812600  0.48974500  0.26898500  1
  C  C3  1  0.61812600  0.51025500  0.23101500  1
  C  C4  1  0.38187400  0.48974500  0.76898500  1
  C  C5  1  0.88187400  0.51025500  0.73101500  1
  C  C6  1  0.98457100  0.07603800  0.19760300  1
  C  C7  1  0.51542900  0.07603800  0.69760300  1
  O  O0  1  0.97564800  0.87680300  0.31640300  1
  O  O1  1  0.60203400  0.85451100  0.38809300  1
  O  O2  1  0.38306500  0.79313400  0.33849200  1
  O  O3  1  0.52435200  0.87680300  0.81640300  1
  O  O4  1  0.89796600  0.85451100  0.88809300  1
  O  O5  1  0.11693500  0.79313400  0.83849200  1
  O  O6  1  0.17496400  0.52112700  0.38289600  1
  O  O7  1  0.48627700  0.48441900  0.25209900  1
  O  O8  1  0.69245100  0.56021200  0.31882400  1
  O  O9  1  0.19245100  0.43978800  0.18117600  1
  O  O10  1  0.98627700  0.51558100  0.24790100  1
  O  O11  1  0.67496400  0.47887300  0.11710400  1
  O  O12  1  0.32503600  0.52112700  0.88289600  1
  O  O13  1  0.01372300  0.48441900  0.75209900  1
  O  O14  1  0.80754900  0.56021200  0.81882400  1
  O  O15  1  0.30754900  0.43978800  0.68117600  1
  O  O16  1  0.51372300  0.51558100  0.74790100  1
  O  O17  1  0.82503600  0.47887300  0.61710400  1
  O  O18  1  0.88306500  0.20686600  0.16150800  1
  O  O19  1  0.10203400  0.14548900  0.11190700  1
  O  O20  1  0.47564800  0.12319700  0.18359700  1
  O  O21  1  0.61693500  0.20686600  0.66150800  1
  O  O22  1  0.39796600  0.14548900  0.61190700  1
  O  O23  1  0.02435200  0.12319700  0.68359700  1
loop_
_geom_bond_atom_site_label_1
_geom_bond_atom_site_label_2
_geom_bond_distance
_geom_bond_site_symmetry_2
Li0 O2 1.982700 1_555
Li0 O0 2.065011 1_455
Li0 O19 2.079231 1_565
Li0 O6 2.094895 1_555
Li1 O0 1.902231 1_555
Li1 O10 1.980388 1_555
Li1 O8 1.985062 1_555
Li1 O17 2.041431 1_555
Li2 O5 1.982700 1_555
Li2 O3 2.065011 1_555
Li2 O22 2.079231 1_565
Li2 O12 2.094895 1_555
Li3 O3 1.902231 1_555
Li3 O16 1.980388 1_555
Li3 O14 1.985062 1_555
Li3 O11 2.041431 1_556
Li4 O20 1.902231 1_555
Li4 O7 1.980388 1_555
Li4 O9 1.985062 1_555
Li4 O12 2.041431 1_554
Li5 O18 1.982700 1_555
Li5 O20 2.065011 1_555
Li5 O1 2.079231 1_545
Li5 O11 2.094895 1_555
Li6 O23 1.902231 1_555
Li6 O13 1.980388 1_555
Li6 O15 1.985062 1_555
Li6 O6 2.041431 1_555
Li7 O21 1.982700 1_555
Li7 O23 2.065011 1_655
Li7 O4 2.079231 1_545
Li7 O17 2.094895 1_555
Co0 O22 1.988103 1_555
Co0 O7 2.011322 1_555
Co0 O6 2.074040 1_555
Co0 O2 2.122896 1_555
Co0 O15 2.130612 1_555
Co1 O4 1.988103 1_554
Co1 O10 2.011322 1_555
Co1 O11 2.074040 1_555
Co1 O18 2.122896 1_555
Co1 O14 2.130612 1_554
Co2 O19 1.988103 1_556
Co2 O13 2.011322 1_555
Co2 O12 2.074040 1_555
Co2 O5 2.122896 1_555
Co2 O9 2.130612 1_556
Co3 O1 1.988103 1_555
Co3 O16 2.011322 1_555
Co3 O17 2.074040 1_555
Co3 O21 2.122896 1_555
Co3 O8 2.130612 1_555
C0 O20 1.276989 1_565
C0 O2 1.303793 1_555
C0 O1 1.316367 1_555
C1 O23 1.276989 1_565
C1 O5 1.303793 1_555
C1 O4 1.316367 1_455
C2 O9 1.283645 1_555
C2 O10 1.294915 1_455
C2 O6 1.311543 1_555
C3 O8 1.283645 1_555
C3 O7 1.294915 1_555
C3 O11 1.311543 1_555
C4 O15 1.283645 1_555
C4 O16 1.294915 1_555
C4 O12 1.311543 1_555
C5 O14 1.283645 1_555
C5 O13 1.294915 1_655
C5 O17 1.311543 1_555
C6 O0 1.276989 1_545
C6 O18 1.303793 1_555
C6 O19 1.316367 1_655
C7 O3 1.276989 1_545
C7 O21 1.303793 1_555
C7 O22 1.316367 1_555
