# generated using pymatgen
data_Li2FeO3
_symmetry_space_group_name_H-M   'P 1'
_cell_length_a   4.97959200
_cell_length_b   5.02652300
_cell_length_c   8.55456900
_cell_angle_alpha   90.00000000
_cell_angle_beta   90.00000000
_cell_angle_gamma   90.00000000
_symmetry_Int_Tables_number   1
_chemical_formula_structural   Li2FeO3
_chemical_formula_sum   'Li8 Fe4 O12'
_cell_volume   214.12115052
_cell_formula_units_Z   4
loop_
 _symmetry_equiv_pos_site_id
 _symmetry_equiv_pos_as_xyz
  1  'x, y, z'
loop_
 _atom_site_type_symbol
 _atom_site_label
 _atom_site_symmetry_multiplicity
 _atom_site_fract_x
 _atom_site_fract_y
 _atom_site_fract_z
 _atom_site_occupancy
  Li  Li0  1  0.25000000  0.00000000  0.57516900  1
  Li  Li1  1  0.25000000  0.50000000  0.23811100  1
  Li  Li2  1  0.25000000  0.00000000  0.26188900  1
  Li  Li3  1  0.25000000  0.50000000  0.92483100  1
  Li  Li4  1  0.75000000  0.50000000  0.07516900  1
  Li  Li5  1  0.75000000  0.00000000  0.42483100  1
  Li  Li6  1  0.75000000  0.50000000  0.76188900  1
  Li  Li7  1  0.75000000  0.00000000  0.73811100  1
  Fe  Fe0  1  0.25000000  0.00000000  0.90909700  1
  Fe  Fe1  1  0.25000000  0.50000000  0.59090300  1
  Fe  Fe2  1  0.75000000  0.50000000  0.40909700  1
  Fe  Fe3  1  0.75000000  0.00000000  0.09090300  1
  O  O0  1  0.89370000  0.25000000  0.25000000  1
  O  O1  1  0.92691400  0.21840300  0.92384700  1
  O  O2  1  0.92691400  0.28159700  0.57615300  1
  O  O3  1  0.07308600  0.78159700  0.07615300  1
  O  O4  1  0.07308600  0.71840300  0.42384700  1
  O  O5  1  0.10630000  0.75000000  0.75000000  1
  O  O6  1  0.39370000  0.25000000  0.75000000  1
  O  O7  1  0.42691400  0.28159700  0.42384700  1
  O  O8  1  0.42691400  0.21840300  0.07615300  1
  O  O9  1  0.57308600  0.71840300  0.57615300  1
  O  O10  1  0.57308600  0.78159700  0.92384700  1
  O  O11  1  0.60630000  0.75000000  0.25000000  1
loop_
_geom_bond_atom_site_label_1
_geom_bond_atom_site_label_2
_geom_bond_distance
_geom_bond_site_symmetry_2
Li0 O6 2.080382 1_555
Li0 O5 2.080382 1_545
Li0 O4 2.110762 1_545
Li0 O7 2.110762 1_555
Li0 O2 2.142880 1_455
Li0 O9 2.142880 1_545
Li1 O4 2.122698 1_555
Li1 O7 2.122698 1_555
Li1 O8 2.167754 1_555
Li1 O3 2.167754 1_555
Li1 O11 2.176546 1_555
Li1 O0 2.176546 1_455
Li2 O3 2.122698 1_545
Li2 O8 2.122698 1_555
Li2 O4 2.167754 1_545
Li2 O7 2.167754 1_555
Li2 O0 2.176546 1_455
Li2 O11 2.176546 1_545
Li3 O6 2.080382 1_555
Li3 O5 2.080382 1_555
Li3 O3 2.110762 1_556
Li3 O8 2.110762 1_556
Li3 O1 2.142880 1_455
Li3 O10 2.142880 1_555
Li4 O0 2.080382 1_555
Li4 O11 2.080382 1_555
Li4 O10 2.110762 1_554
Li4 O1 2.110762 1_554
Li4 O8 2.142880 1_555
Li4 O3 2.142880 1_655
Li5 O11 2.080382 1_545
Li5 O0 2.080382 1_555
Li5 O9 2.110762 1_545
Li5 O2 2.110762 1_555
Li5 O4 2.142880 1_645
Li5 O7 2.142880 1_555
Li6 O2 2.122698 1_555
Li6 O9 2.122698 1_555
Li6 O1 2.167754 1_555
Li6 O10 2.167754 1_555
Li6 O6 2.176546 1_555
Li6 O5 2.176546 1_655
Li7 O10 2.122698 1_545
Li7 O1 2.122698 1_555
Li7 O9 2.167754 1_545
Li7 O2 2.167754 1_555
Li7 O6 2.176546 1_555
Li7 O5 2.176546 1_645
Fe0 O10 1.951783 1_545
Fe0 O1 1.951783 1_455
Fe0 O5 1.985824 1_545
Fe0 O6 1.985824 1_555
Fe0 O8 2.005885 1_556
Fe0 O3 2.005885 1_546
Fe1 O2 1.951783 1_455
Fe1 O9 1.951783 1_555
Fe1 O5 1.985824 1_555
Fe1 O6 1.985824 1_555
Fe1 O4 2.005885 1_555
Fe1 O7 2.005885 1_555
Fe2 O7 1.951783 1_555
Fe2 O4 1.951783 1_655
Fe2 O0 1.985824 1_555
Fe2 O11 1.985824 1_555
Fe2 O2 2.005885 1_555
Fe2 O9 2.005885 1_555
Fe3 O8 1.951783 1_555
Fe3 O3 1.951783 1_645
Fe3 O0 1.985824 1_555
Fe3 O11 1.985824 1_545
Fe3 O10 2.005885 1_544
Fe3 O1 2.005885 1_554
