# generated using pymatgen
data_Li4Fe3(NiO5)2
_symmetry_space_group_name_H-M   'P 1'
_cell_length_a   5.10026979
_cell_length_b   5.09859583
_cell_length_c   7.74813071
_cell_angle_alpha   71.24585796
_cell_angle_beta   108.74524043
_cell_angle_gamma   100.17563387
_symmetry_Int_Tables_number   1
_chemical_formula_structural   Li4Fe3(NiO5)2
_chemical_formula_sum   'Li4 Fe3 Ni2 O10'
_cell_volume   180.06128912
_cell_formula_units_Z   1
loop_
 _symmetry_equiv_pos_site_id
 _symmetry_equiv_pos_as_xyz
  1  'x, y, z'
loop_
 _atom_site_type_symbol
 _atom_site_label
 _atom_site_symmetry_multiplicity
 _atom_site_fract_x
 _atom_site_fract_y
 _atom_site_fract_z
 _atom_site_occupancy
  Li  Li0  1  0.22498700  0.48716500  0.42873900  1
  Li  Li1  1  0.50359700  0.98033400  0.50872900  1
  Li  Li2  1  0.79681700  0.51065800  0.58924700  1
  Li  Li3  1  0.61833100  0.48674100  0.22551700  1
  Fe  Fe0  1  0.99987300  0.50008100  0.99348700  1
  Fe  Fe1  1  0.30673400  0.99760900  0.11401000  1
  Fe  Fe2  1  0.68050600  0.99778400  0.88552300  1
  Ni  Ni0  1  0.09991600  0.00769900  0.69241300  1
  Ni  Ni1  1  0.89807700  0.00048300  0.30580300  1
  O  O0  1  0.03224900  0.23640800  0.85433500  1
  O  O1  1  0.11669600  0.79483800  0.53207900  1
  O  O2  1  0.32486200  0.78658100  0.93568800  1
  O  O3  1  0.23501500  0.25808500  0.22885600  1
  O  O4  1  0.43192100  0.21138400  0.65826500  1
  O  O5  1  0.54804800  0.76276500  0.33848200  1
  O  O6  1  0.78950900  0.76851600  0.75513600  1
  O  O7  1  0.67666600  0.22314400  0.07094100  1
  O  O8  1  0.87906900  0.22812200  0.46631400  1
  O  O9  1  0.94619600  0.75486400  0.13735800  1
loop_
_geom_bond_atom_site_label_1
_geom_bond_atom_site_label_2
_geom_bond_distance
_geom_bond_site_symmetry_2
Li0 O4 1.990925 1_555
Li0 O8 2.049725 1_455
Li0 O5 2.114030 1_555
Li0 O1 2.192031 1_555
Li0 O3 2.236179 1_555
Li0 O9 2.371248 1_455
Li1 O4 2.041040 1_565
Li1 O5 2.060079 1_555
Li1 O1 2.069090 1_555
Li1 O6 2.092619 1_555
Li1 O8 2.157323 1_565
Li1 O3 2.320748 1_565
Li2 O1 2.042990 1_655
Li2 O5 2.103104 1_555
Li2 O8 2.123917 1_555
Li2 O6 2.125237 1_555
Li2 O0 2.185653 1_655
Li2 O4 2.278032 1_555
Li3 O5 2.011752 1_555
Li3 O3 2.095160 1_555
Li3 O8 2.105015 1_555
Li3 O9 2.111313 1_555
Li3 O7 2.175903 1_555
Li3 O2 2.461908 1_554
Fe0 O3 1.989145 1_656
Fe0 O6 2.013695 1_555
Fe0 O0 2.030247 1_655
Fe0 O9 2.063493 1_556
Fe0 O2 2.069468 1_655
Fe0 O7 2.083212 1_556
Fe1 O5 1.944028 1_555
Fe1 O3 1.957065 1_565
Fe1 O2 2.036752 1_554
Fe1 O9 2.052209 1_455
Fe1 O7 2.093998 1_565
Fe1 O0 2.169586 1_564
Fe2 O4 1.927159 1_565
Fe2 O6 2.011488 1_555
Fe2 O0 2.018759 1_665
Fe2 O2 2.023530 1_555
Fe2 O7 2.114723 1_566
Fe2 O9 2.125382 1_556
Ni0 O4 1.872364 1_555
Ni0 O8 1.874508 1_455
Ni0 O6 1.913375 1_445
Ni0 O1 1.922644 1_545
Ni0 O2 1.959816 1_545
Ni0 O0 2.100973 1_555
Ni1 O1 1.841468 1_645
Ni1 O7 1.918152 1_555
Ni1 O8 1.987102 1_555
Ni1 O5 2.012183 1_545
Ni1 O3 2.095505 1_655
Ni1 O9 2.167330 1_545
