# generated using pymatgen
data_Li5Co2Cu3O10
_symmetry_space_group_name_H-M   'P 1'
_cell_length_a   4.99223500
_cell_length_b   5.30205179
_cell_length_c   7.52896931
_cell_angle_alpha   104.63758126
_cell_angle_beta   102.99192762
_cell_angle_gamma   104.49852944
_symmetry_Int_Tables_number   1
_chemical_formula_structural   Li5Co2Cu3O10
_chemical_formula_sum   'Li5 Co2 Cu3 O10'
_cell_volume   177.62938941
_cell_formula_units_Z   1
loop_
 _symmetry_equiv_pos_site_id
 _symmetry_equiv_pos_as_xyz
  1  'x, y, z'
loop_
 _atom_site_type_symbol
 _atom_site_label
 _atom_site_symmetry_multiplicity
 _atom_site_fract_x
 _atom_site_fract_y
 _atom_site_fract_z
 _atom_site_occupancy
  Li  Li0  1  0.20646300  0.89610900  0.39732100  1
  Li  Li1  1  0.39578000  0.28669700  0.78947400  1
  Li  Li2  1  0.50000000  0.50000000  0.50000000  1
  Li  Li3  1  0.60422000  0.71330300  0.21052600  1
  Li  Li4  1  0.79353700  0.10389100  0.60267900  1
  Co  Co0  1  0.10259500  0.67263200  0.69204800  1
  Co  Co1  1  0.89740500  0.32736800  0.30795200  1
  Cu  Cu0  1  0.00000000  0.50000000  0.00000000  1
  Cu  Cu1  1  0.69564400  0.89061200  0.89972400  1
  Cu  Cu2  1  0.30435600  0.10938800  0.10027600  1
  O  O0  1  0.05817400  0.01991500  0.83592000  1
  O  O1  1  0.34436200  0.66893200  0.92912000  1
  O  O2  1  0.13155000  0.33691800  0.54878700  1
  O  O3  1  0.21013100  0.51907700  0.24684500  1
  O  O4  1  0.44235500  0.87885300  0.66447100  1
  O  O5  1  0.55764500  0.12114700  0.33552900  1
  O  O6  1  0.78986900  0.48092300  0.75315500  1
  O  O7  1  0.86845000  0.66308200  0.45121300  1
  O  O8  1  0.65563800  0.33106800  0.07088000  1
  O  O9  1  0.94182600  0.98008500  0.16408000  1
loop_
_geom_bond_atom_site_label_1
_geom_bond_atom_site_label_2
_geom_bond_distance
_geom_bond_site_symmetry_2
Li0 O7 2.013928 1_455
Li0 O3 2.040358 1_555
Li0 O5 2.076922 1_565
Li0 O4 2.126668 1_555
Li0 O9 2.161934 1_455
Li0 O2 2.486998 1_565
Li1 O0 2.070017 1_555
Li1 O6 2.091798 1_555
Li1 O2 2.107056 1_555
Li1 O1 2.140900 1_555
Li1 O8 2.141634 1_556
Li1 O4 2.222026 1_545
Li2 O7 1.983399 1_555
Li2 O2 1.983399 1_555
Li2 O3 2.160490 1_555
Li2 O6 2.160490 1_555
Li2 O4 2.200817 1_555
Li2 O5 2.200817 1_555
Li3 O9 2.070017 1_555
Li3 O3 2.091798 1_555
Li3 O7 2.107056 1_555
Li3 O8 2.140900 1_555
Li3 O1 2.141634 1_554
Li3 O5 2.222026 1_565
Li4 O2 2.013928 1_655
Li4 O6 2.040358 1_555
Li4 O4 2.076922 1_545
Li4 O5 2.126668 1_555
Li4 O0 2.161934 1_655
Li4 O7 2.486998 1_545
Co0 O6 1.856589 1_455
Co0 O4 1.860124 1_555
Co0 O2 1.892405 1_555
Co0 O7 1.904656 1_455
Co0 O1 1.924563 1_555
Co0 O0 1.979232 1_565
Co1 O3 1.856589 1_655
Co1 O5 1.860124 1_555
Co1 O7 1.892405 1_555
Co1 O2 1.904656 1_655
Co1 O8 1.924563 1_555
Co1 O9 1.979232 1_545
Cu0 O6 1.881471 1_454
Cu0 O3 1.881471 1_555
Cu0 O8 1.981300 1_455
Cu0 O1 1.981300 1_554
Cu1 O4 1.907272 1_555
Cu1 O1 1.944164 1_555
Cu1 O9 1.956508 1_556
Cu1 O0 1.977970 1_665
Cu1 O6 2.385573 1_555
Cu1 O8 2.445909 1_566
Cu2 O5 1.907272 1_555
Cu2 O8 1.944164 1_555
Cu2 O0 1.956508 1_554
Cu2 O9 1.977970 1_445
Cu2 O3 2.385573 1_555
Cu2 O1 2.445909 1_544
