# generated using pymatgen
data_MnP2O7
_symmetry_space_group_name_H-M   'P 1'
_cell_length_a   7.98518300
_cell_length_b   7.98518300
_cell_length_c   7.98518300
_cell_angle_alpha   90.00000000
_cell_angle_beta   90.00000000
_cell_angle_gamma   90.00000000
_symmetry_Int_Tables_number   1
_chemical_formula_structural   MnP2O7
_chemical_formula_sum   'Mn4 P8 O28'
_cell_volume   509.16040179
_cell_formula_units_Z   4
loop_
 _symmetry_equiv_pos_site_id
 _symmetry_equiv_pos_as_xyz
  1  'x, y, z'
loop_
 _atom_site_type_symbol
 _atom_site_label
 _atom_site_symmetry_multiplicity
 _atom_site_fract_x
 _atom_site_fract_y
 _atom_site_fract_z
 _atom_site_occupancy
  Mn  Mn0  1  0.00000000  0.00000000  0.00000000  1
  Mn  Mn1  1  0.00000000  0.50000000  0.50000000  1
  Mn  Mn2  1  0.50000000  0.00000000  0.50000000  1
  Mn  Mn3  1  0.50000000  0.50000000  0.00000000  1
  P  P0  1  0.11627900  0.88372100  0.38372100  1
  P  P1  1  0.11627900  0.61627900  0.88372100  1
  P  P2  1  0.38372100  0.11627900  0.88372100  1
  P  P3  1  0.38372100  0.38372100  0.38372100  1
  P  P4  1  0.61627900  0.61627900  0.61627900  1
  P  P5  1  0.61627900  0.88372100  0.11627900  1
  P  P6  1  0.88372100  0.11627900  0.61627900  1
  P  P7  1  0.88372100  0.38372100  0.11627900  1
  O  O0  1  0.00000000  0.00000000  0.50000000  1
  O  O1  1  0.00000000  0.50000000  0.00000000  1
  O  O2  1  0.05670400  0.70321600  0.38917900  1
  O  O3  1  0.05670400  0.79678400  0.88917900  1
  O  O4  1  0.11082100  0.94329600  0.20321600  1
  O  O5  1  0.11082100  0.55670400  0.70321600  1
  O  O6  1  0.20321600  0.11082100  0.94329600  1
  O  O7  1  0.20321600  0.38917900  0.44329600  1
  O  O8  1  0.29678400  0.61082100  0.94329600  1
  O  O9  1  0.29678400  0.88917900  0.44329600  1
  O  O10  1  0.38917900  0.05670400  0.70321600  1
  O  O11  1  0.38917900  0.44329600  0.20321600  1
  O  O12  1  0.44329600  0.29678400  0.88917900  1
  O  O13  1  0.44329600  0.20321600  0.38917900  1
  O  O14  1  0.50000000  0.50000000  0.50000000  1
  O  O15  1  0.50000000  0.00000000  0.00000000  1
  O  O16  1  0.55670400  0.70321600  0.11082100  1
  O  O17  1  0.55670400  0.79678400  0.61082100  1
  O  O18  1  0.61082100  0.55670400  0.79678400  1
  O  O19  1  0.61082100  0.94329600  0.29678400  1
  O  O20  1  0.70321600  0.11082100  0.55670400  1
  O  O21  1  0.70321600  0.38917900  0.05670400  1
  O  O22  1  0.79678400  0.61082100  0.55670400  1
  O  O23  1  0.79678400  0.88917900  0.05670400  1
  O  O24  1  0.88917900  0.05670400  0.79678400  1
  O  O25  1  0.88917900  0.44329600  0.29678400  1
  O  O26  1  0.94329600  0.20321600  0.11082100  1
  O  O27  1  0.94329600  0.29678400  0.61082100  1
loop_
_geom_bond_atom_site_label_1
_geom_bond_atom_site_label_2
_geom_bond_distance
_geom_bond_site_symmetry_2
Mn0 O26 1.902978 1_455
Mn0 O4 1.902978 1_545
Mn0 O6 1.902978 1_554
Mn0 O23 1.902978 1_445
Mn0 O3 1.902978 1_544
Mn0 O24 1.902978 1_454
Mn1 O7 1.902978 1_555
Mn1 O5 1.902978 1_555
Mn1 O2 1.902978 1_555
Mn1 O27 1.902978 1_455
Mn1 O25 1.902978 1_455
Mn1 O22 1.902978 1_455
Mn2 O13 1.902978 1_555
Mn2 O20 1.902978 1_555
Mn2 O10 1.902978 1_555
Mn2 O19 1.902978 1_545
Mn2 O9 1.902978 1_545
Mn2 O17 1.902978 1_545
Mn3 O11 1.902978 1_555
Mn3 O16 1.902978 1_555
Mn3 O21 1.902978 1_555
Mn3 O8 1.902978 1_554
Mn3 O12 1.902978 1_554
Mn3 O18 1.902978 1_554
O0 P6 1.608225 1_455
O0 P0 1.608225 1_545
O1 P7 1.608225 1_455
O1 P1 1.608225 1_554
O2 P0 1.518467 1_555
O3 P1 1.518467 1_555
O4 P0 1.518467 1_555
O5 P1 1.518467 1_555
O6 P2 1.518467 1_555
O7 P3 1.518467 1_555
O8 P1 1.518467 1_555
O9 P0 1.518467 1_555
O10 P2 1.518467 1_555
O11 P3 1.518467 1_555
O12 P2 1.518467 1_555
O13 P3 1.518467 1_555
O14 P3 1.608225 1_555
O14 P4 1.608225 1_555
O15 P2 1.608225 1_554
O15 P5 1.608225 1_545
O16 P5 1.518467 1_555
O17 P4 1.518467 1_555
O18 P4 1.518467 1_555
O19 P5 1.518467 1_555
O20 P6 1.518467 1_555
O21 P7 1.518467 1_555
O22 P4 1.518467 1_555
O23 P5 1.518467 1_555
O24 P6 1.518467 1_555
O25 P7 1.518467 1_555
O26 P7 1.518467 1_555
O27 P6 1.518467 1_555
