# generated using pymatgen
data_Sm4U4O17
_symmetry_space_group_name_H-M   'P 1'
_cell_length_a   9.36074547
_cell_length_b   9.36074547
_cell_length_c   3.83532300
_cell_angle_alpha   90.00000000
_cell_angle_beta   90.00000000
_cell_angle_gamma   108.25612350
_symmetry_Int_Tables_number   1
_chemical_formula_structural   Sm4U4O17
_chemical_formula_sum   'Sm4 U4 O17'
_cell_volume   319.14904432
_cell_formula_units_Z   1
loop_
 _symmetry_equiv_pos_site_id
 _symmetry_equiv_pos_as_xyz
  1  'x, y, z'
loop_
 _atom_site_type_symbol
 _atom_site_label
 _atom_site_symmetry_multiplicity
 _atom_site_fract_x
 _atom_site_fract_y
 _atom_site_fract_z
 _atom_site_occupancy
  Sm  Sm0  1  0.00000000  0.50000000  0.50000000  1
  Sm  Sm1  1  0.12556700  0.87443300  0.00000000  1
  Sm  Sm2  1  0.50000000  0.00000000  0.50000000  1
  Sm  Sm3  1  0.87443300  0.12556700  0.00000000  1
  U  U0  1  0.25022000  0.25022000  0.50000000  1
  U  U1  1  0.38026700  0.61973300  0.00000000  1
  U  U2  1  0.61973300  0.38026700  0.00000000  1
  U  U3  1  0.74978000  0.74978000  0.50000000  1
  O  O0  1  0.01604300  0.24891700  0.50000000  1
  O  O1  1  0.98395700  0.75108300  0.50000000  1
  O  O2  1  0.24760400  0.49124000  0.50000000  1
  O  O3  1  0.14767000  0.61901100  0.00000000  1
  O  O4  1  0.49124000  0.24760400  0.50000000  1
  O  O5  1  0.35901800  0.35901800  0.00000000  1
  O  O6  1  0.50000000  0.50000000  0.50000000  1
  O  O7  1  0.64098200  0.64098200  0.00000000  1
  O  O8  1  0.85233000  0.38098900  0.00000000  1
  O  O9  1  0.24891700  0.01604300  0.50000000  1
  O  O10  1  0.38098900  0.85233000  0.00000000  1
  O  O11  1  0.13516200  0.13516200  0.00000000  1
  O  O12  1  0.75239600  0.50876000  0.50000000  1
  O  O13  1  0.50876000  0.75239600  0.50000000  1
  O  O14  1  0.86483800  0.86483800  0.00000000  1
  O  O15  1  0.75108300  0.98395700  0.50000000  1
  O  O16  1  0.61901100  0.14767000  0.00000000  1
loop_
_geom_bond_atom_site_label_1
_geom_bond_atom_site_label_2
_geom_bond_distance
_geom_bond_site_symmetry_2
O0 U0 2.188281 1_555
O0 Sm0 2.401607 1_555
O0 Sm3 2.410153 1_455
O0 Sm3 2.410153 1_456
O1 U3 2.188281 1_555
O1 Sm0 2.401607 1_655
O1 Sm1 2.410153 1_656
O1 Sm1 2.410153 1_655
O2 U0 2.263917 1_555
O2 Sm0 2.344739 1_555
O2 U1 2.393833 1_556
O2 U1 2.393833 1_555
O3 U1 2.175174 1_555
O3 Sm0 2.421660 1_555
O3 Sm0 2.421660 1_554
O3 Sm1 2.463603 1_555
O4 U0 2.263917 1_555
O4 Sm2 2.344739 1_555
O4 U2 2.393833 1_555
O4 U2 2.393833 1_556
O5 U0 2.258758 1_554
O5 U0 2.258758 1_555
O5 U1 2.385666 1_555
O5 U2 2.385666 1_555
O6 U1 2.641363 1_556
O6 U1 2.641363 1_555
O6 U2 2.641363 1_556
O6 U2 2.641363 1_555
O6 U0 2.740171 1_555
O6 U3 2.740171 1_555
O7 U3 2.258758 1_554
O7 U3 2.258758 1_555
O7 U1 2.385666 1_555
O7 U2 2.385666 1_555
O8 U2 2.175174 1_555
O8 Sm0 2.421660 1_655
O8 Sm0 2.421660 1_654
O8 Sm3 2.463603 1_555
O9 U0 2.188281 1_555
O9 Sm2 2.401607 1_555
O9 Sm1 2.410153 1_546
O9 Sm1 2.410153 1_545
O10 U1 2.175174 1_555
O10 Sm2 2.421660 1_565
O10 Sm2 2.421660 1_564
O10 Sm1 2.463603 1_555
O11 U0 2.295787 1_555
O11 U0 2.295787 1_554
O11 Sm1 2.413989 1_545
O11 Sm3 2.413989 1_455
O12 U3 2.263917 1_555
O12 Sm0 2.344739 1_655
O12 U2 2.393833 1_556
O12 U2 2.393833 1_555
O13 U3 2.263917 1_555
O13 Sm2 2.344739 1_565
O13 U1 2.393833 1_556
O13 U1 2.393833 1_555
O14 U3 2.295787 1_554
O14 U3 2.295787 1_555
O14 Sm1 2.413989 1_655
O14 Sm3 2.413989 1_565
O15 U3 2.188281 1_555
O15 Sm2 2.401607 1_565
O15 Sm3 2.410153 1_565
O15 Sm3 2.410153 1_566
O16 U2 2.175174 1_555
O16 Sm2 2.421660 1_555
O16 Sm2 2.421660 1_554
O16 Sm3 2.463603 1_555
