# generated using pymatgen
data_Li8MnFe7(BO3)8
_symmetry_space_group_name_H-M   'P 1'
_cell_length_a   5.24375600
_cell_length_b   9.04216379
_cell_length_c   10.39727262
_cell_angle_alpha   89.01237103
_cell_angle_beta   89.24872193
_cell_angle_gamma   89.65830790
_symmetry_Int_Tables_number   1
_chemical_formula_structural   Li8MnFe7(BO3)8
_chemical_formula_sum   'Li8 Mn1 Fe7 B8 O24'
_cell_volume   492.86192060
_cell_formula_units_Z   1
loop_
 _symmetry_equiv_pos_site_id
 _symmetry_equiv_pos_as_xyz
  1  'x, y, z'
loop_
 _atom_site_type_symbol
 _atom_site_label
 _atom_site_symmetry_multiplicity
 _atom_site_fract_x
 _atom_site_fract_y
 _atom_site_fract_z
 _atom_site_occupancy
  Li  Li0  1  0.14968400  0.17385300  0.66747600  1
  Li  Li1  1  0.18542300  0.16297900  0.16653300  1
  Li  Li2  1  0.32237400  0.33321900  0.41558500  1
  Li  Li3  1  0.33613400  0.32640600  0.91733900  1
  Li  Li4  1  0.64963800  0.67322000  0.66864900  1
  Li  Li5  1  0.68601300  0.65979300  0.16603700  1
  Li  Li6  1  0.82132600  0.83225500  0.41783700  1
  Li  Li7  1  0.83687800  0.82391800  0.91590500  1
  Mn  Mn0  1  0.67552600  0.99944900  0.13506700  1
  Fe  Fe0  1  0.17823700  0.50376400  0.13361800  1
  Fe  Fe1  1  0.16149000  0.84143700  0.63368500  1
  Fe  Fe2  1  0.33754200  0.66261900  0.38439100  1
  Fe  Fe3  1  0.33644700  0.99782300  0.88204200  1
  Fe  Fe4  1  0.65506700  0.34116000  0.63088900  1
  Fe  Fe5  1  0.83705200  0.16279200  0.38451000  1
  Fe  Fe6  1  0.83627500  0.49261600  0.88126000  1
  B  B0  1  0.17124200  0.82924600  0.12455600  1
  B  B1  1  0.16071500  0.50221300  0.62582300  1
  B  B2  1  0.33223100  0.99689700  0.37761800  1
  B  B3  1  0.32825200  0.66645000  0.87514900  1
  B  B4  1  0.67282100  0.33241000  0.12716300  1
  B  B5  1  0.66267900  0.00091500  0.62577500  1
  B  B6  1  0.83382800  0.49753600  0.37655400  1
  B  B7  1  0.82697800  0.16580300  0.87478000  1
  O  O0  1  0.09344700  0.48580700  0.34687500  1
  O  O1  1  0.08861300  0.17250700  0.86202000  1
  O  O2  1  0.17710900  0.79075200  0.84471700  1
  O  O3  1  0.19414000  0.87333100  0.41543800  1
  O  O4  1  0.21421300  0.13444300  0.36437200  1
  O  O5  1  0.21017000  0.53551400  0.91603800  1
  O  O6  1  0.27706200  0.36393100  0.61353600  1
  O  O7  1  0.28740400  0.96485100  0.09504700  1
  O  O8  1  0.30052500  0.62862200  0.59556200  1
  O  O9  1  0.31859100  0.70846100  0.16563400  1
  O  O10  1  0.40999000  0.32018800  0.11365200  1
  O  O11  1  0.40627700  0.01195900  0.66371300  1
  O  O12  1  0.59377300  0.98617200  0.34899300  1
  O  O13  1  0.58985100  0.67450500  0.86238100  1
  O  O14  1  0.67809000  0.29173800  0.84629300  1
  O  O15  1  0.69519400  0.37361600  0.41730900  1
  O  O16  1  0.71436900  0.63377900  0.36337400  1
  O  O17  1  0.70817100  0.03437200  0.91399800  1
  O  O18  1  0.79320100  0.46533800  0.09618400  1
  O  O19  1  0.77775100  0.86370300  0.61325500  1
  O  O20  1  0.80194500  0.12929300  0.59740800  1
  O  O21  1  0.81862000  0.21085500  0.16766600  1
  O  O22  1  0.91064300  0.81510100  0.11111600  1
  O  O23  1  0.90640100  0.51178800  0.66477600  1
loop_
_geom_bond_atom_site_label_1
_geom_bond_atom_site_label_2
_geom_bond_distance
_geom_bond_site_symmetry_2
Li0 O6 1.919713 1_555
Li0 O11 1.982915 1_555
Li0 O20 2.017870 1_455
Li0 O1 2.043609 1_555
Li1 O10 1.919822 1_555
Li1 O21 1.968949 1_455
Li1 O7 2.017908 1_545
Li1 O4 2.076040 1_555
Li2 O0 1.955457 1_555
Li2 O4 1.972005 1_555
Li2 O15 1.991318 1_555
Li2 O6 2.091806 1_555
Li3 O14 1.955963 1_555
Li3 O5 1.999003 1_555
Li3 O1 2.005161 1_555
Li3 O10 2.082266 1_556
Li4 O19 1.928488 1_555
Li4 O23 1.980478 1_555
Li4 O13 2.034691 1_555
Li4 O8 2.036481 1_555
Li5 O22 1.913138 1_555
Li5 O9 1.973771 1_555
Li5 O18 1.989103 1_555
Li5 O16 2.068364 1_555
Li6 O12 1.959938 1_555
Li6 O16 1.977716 1_555
Li6 O3 1.991845 1_655
Li6 O19 2.065988 1_555
Li7 O2 1.946121 1_655
Li7 O13 1.969408 1_555
Li7 O17 2.015163 1_565
Li7 O22 2.071266 1_556
Mn0 O22 2.083834 1_555
Mn0 O21 2.092393 1_565
Mn0 O7 2.108887 1_555
Mn0 O12 2.260944 1_555
Mn0 O17 2.318943 1_564
Fe0 O9 2.030329 1_555
Fe0 O10 2.063127 1_555
Fe0 O18 2.093406 1_455
Fe0 O0 2.258988 1_555
Fe0 O5 2.279569 1_554
Fe1 O19 2.034611 1_455
Fe1 O11 2.042851 1_565
Fe1 O8 2.096090 1_555
Fe1 O2 2.236219 1_555
Fe1 O3 2.286804 1_555
Fe2 O16 2.001195 1_555
Fe2 O3 2.073051 1_555
Fe2 O0 2.098935 1_555
Fe2 O8 2.217908 1_555
Fe2 O9 2.308218 1_555
Fe3 O17 2.011855 1_565
Fe3 O1 2.049002 1_565
Fe3 O2 2.099213 1_555
Fe3 O7 2.241207 1_556
Fe3 O11 2.296126 1_565
Fe4 O6 2.001789 1_555
Fe4 O23 2.072832 1_555
Fe4 O20 2.093510 1_555
Fe4 O15 2.242254 1_555
Fe4 O14 2.280810 1_555
Fe5 O4 2.001487 1_655
Fe5 O15 2.074242 1_555
Fe5 O12 2.090753 1_545
Fe5 O20 2.234356 1_555
Fe5 O21 2.291901 1_555
Fe6 O5 2.039048 1_655
Fe6 O14 2.041585 1_555
Fe6 O13 2.093655 1_555
Fe6 O18 2.252515 1_556
Fe6 O23 2.279731 1_555
B0 O22 1.382376 1_455
B0 O9 1.398119 1_555
B0 O7 1.399886 1_555
B1 O8 1.390861 1_555
B1 O23 1.391250 1_455
B1 O6 1.395106 1_555
B2 O3 1.383609 1_555
B2 O4 1.391375 1_565
B2 O12 1.402711 1_555
B3 O13 1.378673 1_555
B3 O5 1.396551 1_555
B3 O2 1.405431 1_555
B4 O18 1.391864 1_555
B4 O10 1.392433 1_555
B4 O21 1.397278 1_555
B5 O19 1.383816 1_545
B5 O11 1.399685 1_555
B5 O20 1.400159 1_555
B6 O16 1.384217 1_555
B6 O0 1.395783 1_655
B6 O15 1.396006 1_555
B7 O1 1.378211 1_655
B7 O17 1.397211 1_555
B7 O14 1.406342 1_555
