# generated using pymatgen
data_Li2SiNiO4
_symmetry_space_group_name_H-M   'P 1'
_cell_length_a   7.36967360
_cell_length_b   7.96250021
_cell_length_c   7.36449518
_cell_angle_alpha   65.71677012
_cell_angle_beta   95.96372933
_cell_angle_gamma   65.71026780
_symmetry_Int_Tables_number   1
_chemical_formula_structural   Li2SiNiO4
_chemical_formula_sum   'Li8 Si4 Ni4 O16'
_cell_volume   339.10305754
_cell_formula_units_Z   4
loop_
 _symmetry_equiv_pos_site_id
 _symmetry_equiv_pos_as_xyz
  1  'x, y, z'
loop_
 _atom_site_type_symbol
 _atom_site_label
 _atom_site_symmetry_multiplicity
 _atom_site_fract_x
 _atom_site_fract_y
 _atom_site_fract_z
 _atom_site_occupancy
  Li  Li0  1  0.96282800  0.24999400  0.28412800  1
  Li  Li1  1  0.46275000  0.24994300  0.78392300  1
  Li  Li2  1  0.78602700  0.75014600  0.46028900  1
  Li  Li3  1  0.28618900  0.75011100  0.96016600  1
  Li  Li4  1  0.17470400  0.49667300  0.32496900  1
  Li  Li5  1  0.67465700  0.49675200  0.82498700  1
  Li  Li6  1  0.32728700  0.99644700  0.17251700  1
  Li  Li7  1  0.82740900  0.99635900  0.67251000  1
  Si  Si0  1  0.42152800  0.99754800  0.58774600  1
  Si  Si1  1  0.92142600  0.99745300  0.08791800  1
  Si  Si2  1  0.59013100  0.49737600  0.41867400  1
  Si  Si3  1  0.09014300  0.49737500  0.91865900  1
  Ni  Ni0  1  0.54500900  0.24182300  0.20642800  1
  Ni  Ni1  1  0.20941800  0.74113500  0.54288500  1
  Ni  Ni2  1  0.04489400  0.24172100  0.70640400  1
  Ni  Ni3  1  0.70953300  0.74097900  0.04296900  1
  O  O0  1  0.51200600  0.00044500  0.39118600  1
  O  O1  1  0.01211300  0.99992800  0.89155900  1
  O  O2  1  0.89369800  0.50009600  0.00912200  1
  O  O3  1  0.39360600  0.50010800  0.50902300  1
  O  O4  1  0.18918100  0.21451600  0.49722600  1
  O  O5  1  0.68910600  0.21453600  0.99717000  1
  O  O6  1  0.49955500  0.71413400  0.18596100  1
  O  O7  1  0.99949300  0.71411500  0.68592300  1
  O  O8  1  0.71586800  0.28030700  0.40054700  1
  O  O9  1  0.21574000  0.28031500  0.90040000  1
  O  O10  1  0.90320400  0.78052400  0.21331700  1
  O  O11  1  0.40338800  0.78059700  0.71278900  1
  O  O12  1  0.76258500  0.49521000  0.58335700  1
  O  O13  1  0.26281000  0.49516500  0.08323200  1
  O  O14  1  0.58610400  0.99464100  0.76122300  1
  O  O15  1  0.08555300  0.99516700  0.26098800  1
loop_
_geom_bond_atom_site_label_1
_geom_bond_atom_site_label_2
_geom_bond_distance
_geom_bond_site_symmetry_2
Li0 O15 1.941849 1_645
Li0 O2 1.990161 1_555
Li0 O4 2.007256 1_655
Li0 O8 2.058845 1_555
Li1 O14 1.943592 1_545
Li1 O3 1.989921 1_555
Li1 O5 2.008267 1_555
Li1 O9 2.059371 1_555
Li2 O12 1.944151 1_555
Li2 O0 1.987525 1_565
Li2 O7 2.002932 1_555
Li2 O10 2.061245 1_555
Li3 O13 1.943958 1_556
Li3 O1 1.986880 1_555
Li3 O6 2.003502 1_556
Li3 O11 2.063891 1_555
Li4 O13 1.960226 1_555
Li4 O3 2.013199 1_555
Li4 O4 2.024530 1_555
Li4 O10 2.048655 1_455
Li5 O12 1.958993 1_555
Li5 O2 2.013860 1_556
Li5 O5 2.024927 1_555
Li5 O11 2.047197 1_555
Li6 O15 1.961895 1_555
Li6 O0 2.017380 1_565
Li6 O6 2.029202 1_555
Li6 O9 2.050404 1_564
Li7 O14 1.960511 1_555
Li7 O1 2.017249 1_655
Li7 O7 2.028630 1_555
Li7 O8 2.050206 1_565
Ni0 O13 1.966909 1_555
Ni0 O0 1.976593 1_555
Ni0 O5 1.993869 1_554
Ni0 O8 2.006697 1_555
Ni1 O15 1.966696 1_555
Ni1 O3 1.977054 1_555
Ni1 O7 1.993859 1_455
Ni1 O11 2.007253 1_555
Ni2 O12 1.967932 1_455
Ni2 O1 1.978947 1_545
Ni2 O4 1.994015 1_555
Ni2 O9 2.006611 1_555
Ni3 O14 1.965080 1_554
Ni3 O2 1.976089 1_555
Ni3 O6 1.993718 1_555
Ni3 O10 2.008162 1_555
O0 Si0 1.651167 1_545
O1 Si1 1.651195 1_456
O2 Si3 1.651283 1_654
O3 Si2 1.651387 1_555
O4 Si0 1.656167 1_545
O5 Si1 1.656245 1_546
O6 Si2 1.656248 1_555
O7 Si3 1.656207 1_655
O8 Si2 1.661843 1_555
O9 Si3 1.662191 1_555
O10 Si1 1.661034 1_555
O11 Si0 1.660484 1_555
O12 Si2 1.652551 1_555
O13 Si3 1.652894 1_554
O14 Si0 1.653593 1_555
O15 Si1 1.652379 1_455
