# generated using pymatgen
data_Li32Mn3Cr13O48
_symmetry_space_group_name_H-M   'P 1'
_cell_length_a   5.03147100
_cell_length_b   8.71141357
_cell_length_c   19.49499500
_cell_angle_alpha   98.09066660
_cell_angle_beta   94.83812387
_cell_angle_gamma   89.62602382
_symmetry_Int_Tables_number   1
_chemical_formula_structural   Li32Mn3Cr13O48
_chemical_formula_sum   'Li32 Mn3 Cr13 O48'
_cell_volume   842.95778882
_cell_formula_units_Z   1
loop_
 _symmetry_equiv_pos_site_id
 _symmetry_equiv_pos_as_xyz
  1  'x, y, z'
loop_
 _atom_site_type_symbol
 _atom_site_label
 _atom_site_symmetry_multiplicity
 _atom_site_fract_x
 _atom_site_fract_y
 _atom_site_fract_z
 _atom_site_occupancy
  Li  Li0  1  0.99012400  0.16733100  0.24932000  1
  Li  Li1  1  0.87381900  0.37422000  0.37504600  1
  Li  Li2  1  0.75085000  0.24906200  0.99935300  1
  Li  Li3  1  0.74078600  0.91956300  0.00009300  1
  Li  Li4  1  0.99171400  0.16905200  0.74917500  1
  Li  Li5  1  0.75199900  0.57972800  0.49958500  1
  Li  Li6  1  0.87457500  0.37515100  0.87506600  1
  Li  Li7  1  0.75155800  0.24890500  0.50042700  1
  Li  Li8  1  0.74156200  0.92137900  0.49957200  1
  Li  Li9  1  0.62324200  0.12329500  0.12518200  1
  Li  Li10  1  0.75612400  0.57979600  0.99987000  1
  Li  Li11  1  0.50774400  0.33028500  0.25033900  1
  Li  Li12  1  0.62494100  0.12764100  0.62530100  1
  Li  Li13  1  0.49902600  0.00041300  0.24962500  1
  Li  Li14  1  0.49000500  0.66981100  0.25010700  1
  Li  Li15  1  0.50787100  0.33001500  0.74941100  1
  Li  Li16  1  0.37471000  0.87488700  0.37502600  1
  Li  Li17  1  0.49893300  0.00149600  0.75011200  1
  Li  Li18  1  0.24793600  0.74979600  0.00050500  1
  Li  Li19  1  0.49460700  0.66894500  0.75027200  1
  Li  Li20  1  0.24343400  0.42079800  0.99998000  1
  Li  Li21  1  0.37628000  0.87639000  0.87494100  1
  Li  Li22  1  0.25801800  0.08173900  0.50043800  1
  Li  Li23  1  0.25142900  0.74879700  0.49973300  1
  Li  Li24  1  0.12706400  0.62654500  0.12479800  1
  Li  Li25  1  0.24680400  0.41984100  0.50076700  1
  Li  Li26  1  0.01108600  0.83233200  0.25037500  1
  Li  Li27  1  0.26083400  0.08002400  0.00000300  1
  Li  Li28  1  0.12725700  0.62321800  0.62466200  1
  Li  Li29  1  0.00220300  0.50081000  0.25059300  1
  Li  Li30  1  0.00627300  0.83158200  0.75085800  1
  Li  Li31  1  0.99941900  0.49819500  0.74975800  1
  Mn  Mn0  1  0.87320500  0.70739500  0.87456300  1
  Mn  Mn1  1  0.37496300  0.54196200  0.37500300  1
  Mn  Mn2  1  0.12857900  0.29022700  0.62591000  1
  Cr  Cr0  1  0.86856300  0.70525900  0.37453600  1
  Cr  Cr1  1  0.87987400  0.03854900  0.37518700  1
  Cr  Cr2  1  0.87960400  0.03802700  0.87469800  1
  Cr  Cr3  1  0.62966600  0.78802100  0.12464100  1
  Cr  Cr4  1  0.62293300  0.45226700  0.12394900  1
  Cr  Cr5  1  0.62191600  0.79709000  0.62391200  1
  Cr  Cr6  1  0.63089300  0.46009500  0.62521300  1
  Cr  Cr7  1  0.37184400  0.21221100  0.37534500  1
  Cr  Cr8  1  0.37777700  0.54601400  0.87541900  1
  Cr  Cr9  1  0.37198000  0.21213900  0.87524400  1
  Cr  Cr10  1  0.11976000  0.96170400  0.12539000  1
  Cr  Cr11  1  0.12839100  0.29764900  0.12616400  1
  Cr  Cr12  1  0.12123900  0.95356300  0.62458800  1
  O  O0  1  0.96934100  0.10595900  0.06967900  1
  O  O1  1  0.91850900  0.78419500  0.06859200  1
  O  O2  1  0.93458700  0.42252700  0.06730600  1
  O  O3  1  0.96652900  0.10746600  0.56978600  1
  O  O4  1  0.83117700  0.96597700  0.18134400  1
  O  O5  1  0.81597200  0.32710700  0.18283400  1
  O  O6  1  0.93528700  0.78906600  0.56821200  1
  O  O7  1  0.92514500  0.42604700  0.56844600  1
  O  O8  1  0.78120400  0.64358900  0.18011900  1
  O  O9  1  0.71873200  0.85236900  0.31866800  1
  O  O10  1  0.81330100  0.95924600  0.68131600  1
  O  O11  1  0.82780100  0.31955100  0.68267800  1
  O  O12  1  0.67551200  0.53441300  0.31887900  1
  O  O13  1  0.67228900  0.17655400  0.31790100  1
  O  O14  1  0.77931600  0.64113500  0.68003700  1
  O  O15  1  0.71016000  0.85284700  0.81865700  1
  O  O16  1  0.46303200  0.60212400  0.06880200  1
  O  O17  1  0.56845900  0.71407700  0.43062400  1
  O  O18  1  0.57695500  0.07417400  0.43212200  1
  O  O19  1  0.68325500  0.53583700  0.81900600  1
  O  O20  1  0.67291700  0.17539700  0.81829400  1
  O  O21  1  0.42621600  0.92669400  0.06800800  1
  O  O22  1  0.43760600  0.28738800  0.06880900  1
  O  O23  1  0.53895700  0.39697900  0.43124600  1
  O  O24  1  0.46428400  0.61055600  0.56877000  1
  O  O25  1  0.57230700  0.71387500  0.93053800  1
  O  O26  1  0.57714400  0.07231000  0.93230200  1
  O  O27  1  0.32406100  0.82348600  0.18181300  1
  O  O28  1  0.31316300  0.46271100  0.18134900  1
  O  O29  1  0.43394900  0.92510700  0.56694600  1
  O  O30  1  0.42791400  0.28695600  0.56958100  1
  O  O31  1  0.53320900  0.39661100  0.93127000  1
  O  O32  1  0.28623100  0.14798100  0.18125300  1
  O  O33  1  0.21449200  0.35814300  0.31936100  1
  O  O34  1  0.31461000  0.82710100  0.68255000  1
  O  O35  1  0.32141300  0.46397700  0.68094100  1
  O  O36  1  0.18122800  0.67752300  0.31786700  1
  O  O37  1  0.16898200  0.03606000  0.31877400  1
  O  O38  1  0.28693900  0.14242700  0.68063300  1
  O  O39  1  0.21936100  0.35769300  0.81954200  1
  O  O40  1  0.07356900  0.57390200  0.43152000  1
  O  O41  1  0.08179100  0.21482500  0.43123900  1
  O  O42  1  0.17584800  0.67628400  0.81819500  1
  O  O43  1  0.16812400  0.03554000  0.81872800  1
  O  O44  1  0.03221900  0.89413500  0.43113900  1
  O  O45  1  0.06781900  0.57312800  0.93212700  1
  O  O46  1  0.08139400  0.21358700  0.93149600  1
  O  O47  1  0.03428300  0.89214700  0.93064700  1
loop_
_geom_bond_atom_site_label_1
_geom_bond_atom_site_label_2
_geom_bond_distance
_geom_bond_site_symmetry_2
Li0 O37 2.041512 1_655
Li0 O32 2.067887 1_655
Li0 O4 2.158182 1_545
Li0 O13 2.163353 1_555
Li0 O5 2.164582 1_555
Li0 O33 2.242214 1_655
Li1 O23 2.079490 1_555
Li1 O12 2.090362 1_555
Li1 O33 2.098604 1_655
Li1 O41 2.106887 1_655
Li1 O13 2.127594 1_555
Li1 O40 2.131952 1_655
Li2 O26 2.025269 1_555
Li2 O2 2.035008 1_556
Li2 O22 2.157496 1_556
Li2 O31 2.197642 1_555
Li2 O0 2.202551 1_556
Li2 O46 2.204723 1_655
Li3 O1 2.049771 1_555
Li3 O47 2.076602 1_654
Li3 O26 2.119496 1_564
Li3 O21 2.142659 1_555
Li3 O25 2.215841 1_554
Li3 O0 2.222737 1_565
Li4 O43 2.050992 1_655
Li4 O38 2.070949 1_655
Li4 O11 2.088908 1_555
Li4 O20 2.175794 1_555
Li4 O39 2.240379 1_655
Li4 O10 2.244314 1_545
Li5 O24 2.051641 1_555
Li5 O17 2.061391 1_555
Li5 O23 2.154712 1_555
Li5 O7 2.155650 1_555
Li5 O40 2.173306 1_655
Li5 O6 2.256790 1_555
Li6 O19 2.077513 1_555
Li6 O31 2.107405 1_555
Li6 O45 2.111086 1_655
Li6 O39 2.114530 1_655
Li6 O46 2.120756 1_655
Li6 O20 2.138697 1_555
Li7 O18 2.027683 1_555
Li7 O7 2.036852 1_555
Li7 O3 2.172840 1_555
Li7 O30 2.194673 1_555
Li7 O23 2.203509 1_555
Li7 O41 2.219710 1_655
Li8 O44 2.051904 1_655
Li8 O6 2.066089 1_555
Li8 O29 2.109973 1_555
Li8 O18 2.116906 1_565
Li8 O3 2.218290 1_565
Li8 O17 2.228529 1_555
Li9 O32 2.087611 1_555
Li9 O22 2.091703 1_555
Li9 O4 2.093303 1_545
Li9 O21 2.111109 1_545
Li9 O0 2.120008 1_555
Li9 O5 2.152407 1_555
Li10 O25 2.065419 1_555
Li10 O16 2.067695 1_556
Li10 O45 2.129222 1_655
Li10 O2 2.168737 1_556
Li10 O31 2.182359 1_555
Li10 O1 2.189945 1_556
Li11 O33 2.069992 1_555
Li11 O28 2.073192 1_555
Li11 O5 2.114522 1_555
Li11 O13 2.124104 1_555
Li11 O32 2.178559 1_555
Li11 O12 2.195588 1_555
Li12 O30 2.076923 1_555
Li12 O38 2.083232 1_555
Li12 O11 2.095528 1_555
Li12 O3 2.100562 1_555
Li12 O10 2.121517 1_545
Li12 O29 2.145546 1_545
Li13 O13 2.032974 1_555
Li13 O27 2.036192 1_545
Li13 O32 2.190705 1_555
Li13 O4 2.216114 1_545
Li13 O9 2.217201 1_545
Li13 O37 2.219089 1_555
Li14 O12 2.068719 1_555
Li14 O8 2.074997 1_555
Li14 O36 2.117315 1_555
Li14 O27 2.135771 1_555
Li14 O9 2.192301 1_555
Li14 O28 2.232136 1_555
Li15 O35 2.058329 1_555
Li15 O39 2.066889 1_555
Li15 O11 2.147080 1_555
Li15 O20 2.147927 1_555
Li15 O38 2.204429 1_555
Li15 O19 2.228965 1_555
Li16 O17 2.078203 1_555
Li16 O36 2.108328 1_555
Li16 O44 2.111135 1_555
Li16 O37 2.113849 1_565
Li16 O9 2.120721 1_555
Li16 O18 2.139267 1_565
Li17 O20 2.020480 1_555
Li17 O34 2.037660 1_545
Li17 O10 2.155782 1_545
Li17 O38 2.164930 1_555
Li17 O15 2.195812 1_545
Li17 O43 2.214765 1_555
Li18 O21 2.039432 1_555
Li18 O45 2.050322 1_554
Li18 O47 2.181545 1_554
Li18 O16 2.195408 1_555
Li18 O1 2.202648 1_455
Li18 O25 2.206981 1_554
Li19 O14 2.053902 1_555
Li19 O19 2.061426 1_555
Li19 O42 2.159354 1_555
Li19 O15 2.167425 1_555
Li19 O34 2.180709 1_555
Li19 O35 2.217377 1_555
Li20 O31 2.051922 1_555
Li20 O22 2.075727 1_556
Li20 O2 2.115628 1_456
Li20 O45 2.138486 1_555
Li20 O16 2.166161 1_556
Li20 O46 2.205181 1_555
Li21 O15 2.076346 1_555
Li21 O25 2.094094 1_555
Li21 O47 2.104605 1_555
Li21 O43 2.105970 1_565
Li21 O26 2.116484 1_565
Li21 O42 2.138115 1_555
Li22 O41 2.043350 1_555
Li22 O3 2.067322 1_455
Li22 O29 2.148279 1_545
Li22 O18 2.165096 1_555
Li22 O30 2.211548 1_555
Li22 O44 2.220509 1_545
Li23 O40 2.034037 1_555
Li23 O29 2.041630 1_555
Li23 O24 2.145902 1_555
Li23 O6 2.157445 1_455
Li23 O17 2.166238 1_555
Li23 O44 2.194826 1_555
Li24 O16 2.082221 1_555
Li24 O28 2.092958 1_555
Li24 O1 2.097300 1_455
Li24 O27 2.112082 1_555
Li24 O8 2.116965 1_455
Li24 O2 2.152092 1_455
Li25 O30 2.046290 1_555
Li25 O23 2.072093 1_555
Li25 O40 2.163234 1_555
Li25 O7 2.168408 1_455
Li25 O41 2.205541 1_555
Li25 O24 2.207759 1_555
Li26 O4 2.051265 1_455
Li26 O9 2.056297 1_455
Li26 O36 2.139438 1_555
Li26 O27 2.143992 1_555
Li26 O37 2.175444 1_565
Li26 O8 2.245197 1_455
Li27 O46 2.042765 1_554
Li27 O0 2.071830 1_455
Li27 O21 2.128863 1_545
Li27 O26 2.146465 1_554
Li27 O47 2.224338 1_544
Li27 O22 2.234106 1_555
Li28 O35 2.076623 1_555
Li28 O24 2.085753 1_555
Li28 O6 2.116935 1_455
Li28 O7 2.119061 1_455
Li28 O14 2.126581 1_455
Li28 O34 2.143586 1_555
Li29 O36 2.037587 1_555
Li29 O5 2.039555 1_455
Li29 O28 2.145628 1_555
Li29 O33 2.166319 1_555
Li29 O12 2.193829 1_455
Li29 O8 2.208240 1_455
Li30 O10 2.050804 1_455
Li30 O15 2.064152 1_455
Li30 O34 2.124787 1_555
Li30 O42 2.139482 1_555
Li30 O43 2.178559 1_565
Li30 O14 2.253159 1_455
Li31 O11 2.032699 1_555
Li31 O42 2.051946 1_655
Li31 O19 2.165960 1_555
Li31 O35 2.182019 1_655
Li31 O39 2.184171 1_655
Li31 O14 2.197481 1_555
Mn0 O15 1.921118 1_555
Mn0 O19 1.925738 1_555
Mn0 O25 1.935528 1_555
Mn0 O45 1.937894 1_655
Mn0 O42 1.947510 1_655
Mn0 O47 1.953162 1_655
Mn1 O23 1.924015 1_555
Mn1 O12 1.935397 1_555
Mn1 O17 1.937797 1_555
Mn1 O36 1.938440 1_555
Mn1 O33 1.942423 1_555
Mn1 O40 1.944493 1_555
Mn2 O38 1.913274 1_555
Mn2 O30 1.935109 1_555
Mn2 O35 1.941609 1_555
Mn2 O3 1.942387 1_455
Mn2 O11 1.943748 1_455
Mn2 O7 1.966335 1_455
Cr0 O9 1.907529 1_555
Cr0 O12 1.929349 1_555
Cr0 O17 1.932573 1_555
Cr0 O40 1.938200 1_655
Cr0 O44 1.989048 1_655
Cr0 O36 1.991681 1_655
Cr1 O37 1.894378 1_655
Cr1 O44 1.895440 1_645
Cr1 O18 1.957930 1_555
Cr1 O9 1.966061 1_545
Cr1 O41 1.986223 1_655
Cr1 O13 1.987012 1_555
Cr2 O43 1.886410 1_655
Cr2 O47 1.909038 1_645
Cr2 O26 1.963204 1_555
Cr2 O20 1.970761 1_555
Cr2 O15 1.971685 1_545
Cr2 O46 1.987424 1_655
Cr3 O1 1.887890 1_555
Cr3 O8 1.888274 1_555
Cr3 O16 1.969275 1_555
Cr3 O27 1.971805 1_555
Cr3 O21 1.973527 1_555
Cr3 O4 2.000579 1_555
Cr4 O22 1.871327 1_555
Cr4 O5 1.897471 1_555
Cr4 O16 1.934628 1_555
Cr4 O2 1.987868 1_555
Cr4 O28 1.988312 1_555
Cr4 O8 1.991883 1_555
Cr5 O29 1.878600 1_555
Cr5 O10 1.888413 1_555
Cr5 O24 1.951026 1_555
Cr5 O14 1.982005 1_555
Cr5 O6 1.983945 1_555
Cr5 O34 1.993646 1_555
Cr6 O14 1.895672 1_555
Cr6 O7 1.919086 1_555
Cr6 O30 1.966471 1_555
Cr6 O24 1.966609 1_555
Cr6 O35 1.969888 1_555
Cr6 O11 1.979548 1_555
Cr7 O41 1.891697 1_555
Cr7 O33 1.914620 1_555
Cr7 O13 1.953788 1_555
Cr7 O23 1.963354 1_555
Cr7 O18 1.975340 1_555
Cr7 O37 1.991749 1_555
Cr8 O25 1.910488 1_555
Cr8 O42 1.927367 1_555
Cr8 O31 1.932102 1_555
Cr8 O19 1.958480 1_555
Cr8 O39 1.969999 1_555
Cr8 O45 1.980572 1_555
Cr9 O46 1.899144 1_555
Cr9 O39 1.900223 1_555
Cr9 O20 1.950631 1_555
Cr9 O31 1.951159 1_555
Cr9 O26 1.989469 1_555
Cr9 O43 1.996394 1_555
Cr10 O4 1.885368 1_455
Cr10 O0 1.888038 1_465
Cr10 O27 1.970352 1_555
Cr10 O32 1.971623 1_565
Cr10 O21 1.977558 1_555
Cr10 O1 1.997989 1_455
Cr11 O28 1.871532 1_555
Cr11 O2 1.897285 1_455
Cr11 O32 1.928936 1_555
Cr11 O22 1.985508 1_555
Cr11 O5 1.991286 1_455
Cr11 O0 1.998182 1_455
Cr12 O6 1.880827 1_455
Cr12 O34 1.894218 1_555
Cr12 O3 1.947852 1_465
Cr12 O10 1.974511 1_455
Cr12 O38 1.988474 1_565
Cr12 O29 2.003627 1_555
