# generated using pymatgen
data_Li2Mg3Ti6O16
_symmetry_space_group_name_H-M   'P 1'
_cell_length_a   8.47538700
_cell_length_b   8.47021200
_cell_length_c   8.47210573
_cell_angle_alpha   89.63307779
_cell_angle_beta   90.00000000
_cell_angle_gamma   90.00000000
_symmetry_Int_Tables_number   1
_chemical_formula_structural   Li2Mg3Ti6O16
_chemical_formula_sum   'Li4 Mg6 Ti12 O32'
_cell_volume   608.18580502
_cell_formula_units_Z   2
loop_
 _symmetry_equiv_pos_site_id
 _symmetry_equiv_pos_as_xyz
  1  'x, y, z'
loop_
 _atom_site_type_symbol
 _atom_site_label
 _atom_site_symmetry_multiplicity
 _atom_site_fract_x
 _atom_site_fract_y
 _atom_site_fract_z
 _atom_site_occupancy
  Li  Li0  1  0.50449100  0.74684100  0.99774500  1
  Li  Li1  1  0.37562300  0.62586900  0.37434200  1
  Li  Li2  1  0.87562300  0.37413100  0.62565800  1
  Li  Li3  1  0.00449100  0.25315900  0.00225500  1
  Mg  Mg0  1  0.49836100  0.24704500  0.50435300  1
  Mg  Mg1  1  0.24444700  0.00242800  0.25299500  1
  Mg  Mg2  1  0.74444700  0.99757200  0.74700500  1
  Mg  Mg3  1  0.99836100  0.75295500  0.49564700  1
  Mg  Mg4  1  0.75185700  0.50541700  0.24609300  1
  Mg  Mg5  1  0.25185700  0.49458300  0.75390700  1
  Ti  Ti0  1  0.86682700  0.13089800  0.36605800  1
  Ti  Ti1  1  0.11580400  0.12344200  0.64002100  1
  Ti  Ti2  1  0.37340300  0.11246500  0.88715300  1
  Ti  Ti3  1  0.87340300  0.88753500  0.11284700  1
  Ti  Ti4  1  0.61580400  0.87655800  0.35997900  1
  Ti  Ti5  1  0.36682700  0.86910200  0.63394200  1
  Ti  Ti6  1  0.13679800  0.63456100  0.11783000  1
  Ti  Ti7  1  0.88041200  0.62543900  0.87140600  1
  Ti  Ti8  1  0.62484000  0.61935600  0.62347300  1
  Ti  Ti9  1  0.12484000  0.38064400  0.37652700  1
  Ti  Ti10  1  0.38041200  0.37456100  0.12859400  1
  Ti  Ti11  1  0.63679800  0.36543900  0.88217000  1
  O  O0  1  0.60620100  0.14728700  0.85828800  1
  O  O1  1  0.11055300  0.14048000  0.38714100  1
  O  O2  1  0.36148500  0.14200900  0.10655300  1
  O  O3  1  0.14525600  0.13832300  0.85381900  1
  O  O4  1  0.89438200  0.12025400  0.61189700  1
  O  O5  1  0.64600400  0.10847800  0.38914100  1
  O  O6  1  0.36131000  0.11068000  0.63618900  1
  O  O7  1  0.88803700  0.10517000  0.14287300  1
  O  O8  1  0.38803700  0.89483000  0.85712700  1
  O  O9  1  0.86131000  0.88932000  0.36381100  1
  O  O10  1  0.14600400  0.89152200  0.61085900  1
  O  O11  1  0.39438200  0.87974600  0.38810300  1
  O  O12  1  0.64525600  0.86167700  0.14618100  1
  O  O13  1  0.86148500  0.85799100  0.89344700  1
  O  O14  1  0.61055300  0.85952000  0.61285900  1
  O  O15  1  0.10620100  0.85271300  0.14171200  1
  O  O16  1  0.38768700  0.64220100  0.62763500  1
  O  O17  1  0.88864600  0.63715400  0.10953800  1
  O  O18  1  0.62996300  0.63968000  0.39530000  1
  O  O19  1  0.86226700  0.62951600  0.64300000  1
  O  O20  1  0.10460400  0.61153400  0.89088200  1
  O  O21  1  0.35513200  0.60942900  0.12220700  1
  O  O22  1  0.63979200  0.61017400  0.85775900  1
  O  O23  1  0.12081400  0.60492900  0.36215300  1
  O  O24  1  0.62081400  0.39507100  0.63784700  1
  O  O25  1  0.13979200  0.38982600  0.14224100  1
  O  O26  1  0.85513200  0.39057100  0.87779300  1
  O  O27  1  0.60460400  0.38846600  0.10911800  1
  O  O28  1  0.36226700  0.37048400  0.35700000  1
  O  O29  1  0.12996300  0.36032000  0.60470000  1
  O  O30  1  0.38864600  0.36284600  0.89046200  1
  O  O31  1  0.88768700  0.35779900  0.37236500  1
loop_
_geom_bond_atom_site_label_1
_geom_bond_atom_site_label_2
_geom_bond_distance
_geom_bond_site_symmetry_2
Li0 O8 1.986342 1_555
Li0 O12 1.991631 1_556
Li0 O21 2.013276 1_556
Li0 O22 2.019689 1_555
Li1 O21 2.148568 1_555
Li1 O16 2.153692 1_555
Li1 O11 2.160154 1_555
Li1 O18 2.166153 1_555
Li1 O23 2.169389 1_555
Li1 O28 2.172039 1_555
Li2 O26 2.148568 1_555
Li2 O31 2.153692 1_555
Li2 O4 2.160154 1_555
Li2 O29 2.166153 1_655
Li2 O24 2.169389 1_555
Li2 O19 2.172039 1_555
Li3 O7 1.986342 1_455
Li3 O3 1.991631 1_554
Li3 O26 2.013276 1_454
Li3 O25 2.019689 1_555
Mg0 O5 1.977575 1_555
Mg0 O6 1.978471 1_555
Mg0 O24 1.986559 1_555
Mg0 O28 1.991329 1_555
Mg1 O15 1.971082 1_545
Mg1 O2 1.975403 1_555
Mg1 O1 1.990920 1_555
Mg1 O11 1.997405 1_545
Mg2 O0 1.971082 1_565
Mg2 O13 1.975403 1_555
Mg2 O14 1.990920 1_555
Mg2 O4 1.997405 1_565
Mg3 O10 1.977575 1_655
Mg3 O9 1.978471 1_555
Mg3 O23 1.986559 1_655
Mg3 O19 1.991329 1_555
Mg4 O27 1.974908 1_555
Mg4 O17 1.977643 1_555
Mg4 O18 1.994230 1_555
Mg4 O31 2.003995 1_555
Mg5 O20 1.974908 1_555
Mg5 O30 1.977643 1_555
Mg5 O29 1.994230 1_555
Mg5 O16 2.003995 1_555
O0 Ti11 1.878115 1_555
O0 Ti2 2.009680 1_555
O1 Ti9 2.039249 1_555
O1 Ti0 2.075013 1_455
O1 Ti1 2.146820 1_555
O2 Ti2 1.879853 1_554
O2 Ti10 1.986274 1_555
O3 Ti1 1.833575 1_555
O3 Ti2 1.966183 1_555
O4 Ti1 1.891917 1_655
O4 Ti0 2.097191 1_555
O5 Ti0 1.891182 1_555
O5 Ti4 1.997920 1_545
O6 Ti5 2.046961 1_545
O6 Ti1 2.083828 1_555
O6 Ti2 2.128813 1_555
O7 Ti3 1.866622 1_545
O7 Ti0 1.913213 1_555
O8 Ti2 1.866622 1_565
O8 Ti5 1.913213 1_555
O9 Ti0 2.046961 1_565
O9 Ti4 2.083828 1_555
O9 Ti3 2.128813 1_555
O10 Ti5 1.891182 1_555
O10 Ti1 1.997920 1_565
O11 Ti4 1.891917 1_555
O11 Ti5 2.097191 1_555
O12 Ti4 1.833575 1_555
O12 Ti3 1.966183 1_555
O13 Ti3 1.879853 1_556
O13 Ti7 1.986274 1_555
O14 Ti8 2.039249 1_555
O14 Ti5 2.075013 1_555
O14 Ti4 2.146820 1_555
O15 Ti6 1.878115 1_555
O15 Ti3 2.009680 1_455
O16 Ti5 1.931094 1_555
O16 Ti8 2.019586 1_555
O17 Ti7 2.021758 1_554
O17 Ti6 2.104467 1_655
O17 Ti3 2.125076 1_555
O18 Ti8 1.940143 1_555
O18 Ti4 2.030253 1_555
O19 Ti7 1.941268 1_555
O19 Ti8 2.020953 1_555
O20 Ti7 1.910833 1_455
O20 Ti6 1.952992 1_556
O21 Ti6 1.863011 1_555
O21 Ti10 2.001273 1_555
O22 Ti8 1.989960 1_555
O22 Ti7 2.046757 1_555
O22 Ti11 2.082085 1_555
O23 Ti9 1.903168 1_555
O23 Ti6 2.087895 1_555
O24 Ti8 1.903168 1_555
O24 Ti11 2.087895 1_555
O25 Ti9 1.989960 1_555
O25 Ti10 2.046757 1_555
O25 Ti6 2.082085 1_555
O26 Ti11 1.863011 1_555
O26 Ti7 2.001273 1_555
O27 Ti10 1.910833 1_555
O27 Ti11 1.952992 1_554
O28 Ti10 1.941268 1_555
O28 Ti9 2.020953 1_555
O29 Ti9 1.940143 1_555
O29 Ti1 2.030253 1_555
O30 Ti10 2.021758 1_556
O30 Ti11 2.104467 1_555
O30 Ti2 2.125076 1_555
O31 Ti0 1.931094 1_555
O31 Ti9 2.019586 1_655
