# generated using pymatgen
data_NaFe3P2(H4O7)2
_symmetry_space_group_name_H-M   'P 1'
_cell_length_a   7.41917700
_cell_length_b   7.41917700
_cell_length_c   19.64348800
_cell_angle_alpha   90.00000000
_cell_angle_beta   90.00000000
_cell_angle_gamma   90.00000000
_symmetry_Int_Tables_number   1
_chemical_formula_structural   NaFe3P2(H4O7)2
_chemical_formula_sum   'Na4 Fe12 P8 H32 O56'
_cell_volume   1081.25983382
_cell_formula_units_Z   4
loop_
 _symmetry_equiv_pos_site_id
 _symmetry_equiv_pos_as_xyz
  1  'x, y, z'
loop_
 _atom_site_type_symbol
 _atom_site_label
 _atom_site_symmetry_multiplicity
 _atom_site_fract_x
 _atom_site_fract_y
 _atom_site_fract_z
 _atom_site_occupancy
  Na  Na0  1  0.87398100  0.12601900  0.25000000  1
  Na  Na1  1  0.12601900  0.87398100  0.75000000  1
  Na  Na2  1  0.62601900  0.62601900  0.00000000  1
  Na  Na3  1  0.37398100  0.37398100  0.50000000  1
  Fe  Fe0  1  0.89237600  0.39317700  0.49235100  1
  Fe  Fe1  1  0.10762400  0.60682300  0.99235100  1
  Fe  Fe2  1  0.89317700  0.60762400  0.24235100  1
  Fe  Fe3  1  0.10682300  0.39237600  0.74235100  1
  Fe  Fe4  1  0.60682300  0.10762400  0.00764900  1
  Fe  Fe5  1  0.39317700  0.89237600  0.50764900  1
  Fe  Fe6  1  0.60762400  0.89317700  0.75764900  1
  Fe  Fe7  1  0.39237600  0.10682300  0.25764900  1
  Fe  Fe8  1  0.60268000  0.39732000  0.75000000  1
  Fe  Fe9  1  0.39732000  0.60268000  0.25000000  1
  Fe  Fe10  1  0.89732000  0.89732000  0.50000000  1
  Fe  Fe11  1  0.10268000  0.10268000  0.00000000  1
  P  P0  1  0.64020500  0.13261400  0.39944500  1
  P  P1  1  0.35979500  0.86738600  0.89944500  1
  P  P2  1  0.63261400  0.85979500  0.14944500  1
  P  P3  1  0.36738600  0.14020500  0.64944500  1
  P  P4  1  0.86738600  0.35979500  0.10055500  1
  P  P5  1  0.13261400  0.64020500  0.60055500  1
  P  P6  1  0.85979500  0.63261400  0.85055500  1
  P  P7  1  0.14020500  0.36738600  0.35055500  1
  H  H0  1  0.57009500  0.14997300  0.83697500  1
  H  H1  1  0.42990500  0.85002700  0.33697500  1
  H  H2  1  0.64997300  0.92990500  0.58697500  1
  H  H3  1  0.35002700  0.07009500  0.08697500  1
  H  H4  1  0.85002700  0.42990500  0.66302500  1
  H  H5  1  0.14997300  0.57009500  0.16302500  1
  H  H6  1  0.92990500  0.64997300  0.41302500  1
  H  H7  1  0.07009500  0.35002700  0.91302500  1
  H  H8  1  0.61699300  0.40120600  0.59940200  1
  H  H9  1  0.38300700  0.59879400  0.09940200  1
  H  H10  1  0.90120600  0.88300700  0.34940200  1
  H  H11  1  0.09879400  0.11699300  0.84940200  1
  H  H12  1  0.59879400  0.38300700  0.90059800  1
  H  H13  1  0.40120600  0.61699300  0.40059800  1
  H  H14  1  0.88300700  0.90120600  0.65059800  1
  H  H15  1  0.11699300  0.09879400  0.15059800  1
  H  H16  1  0.65374100  0.60186300  0.56811500  1
  H  H17  1  0.34625900  0.39813700  0.06811500  1
  H  H18  1  0.10186300  0.84625900  0.31811500  1
  H  H19  1  0.89813700  0.15374100  0.81811500  1
  H  H20  1  0.39813700  0.34625900  0.93188500  1
  H  H21  1  0.60186300  0.65374100  0.43188500  1
  H  H22  1  0.84625900  0.10186300  0.68188500  1
  H  H23  1  0.15374100  0.89813700  0.18188500  1
  H  H24  1  0.01522400  0.16329800  0.56841000  1
  H  H25  1  0.98477600  0.83670200  0.06841000  1
  H  H26  1  0.66329800  0.48477600  0.31841000  1
  H  H27  1  0.33670200  0.51522400  0.81841000  1
  H  H28  1  0.83670200  0.98477600  0.93159000  1
  H  H29  1  0.16329800  0.01522400  0.43159000  1
  H  H30  1  0.48477600  0.66329800  0.68159000  1
  H  H31  1  0.51522400  0.33670200  0.18159000  1
  O  O0  1  0.46660900  0.07126500  0.43626100  1
  O  O1  1  0.53339100  0.92873500  0.93626100  1
  O  O2  1  0.57126500  0.03339100  0.18626100  1
  O  O3  1  0.42873500  0.96660900  0.68626100  1
  O  O4  1  0.92873500  0.53339100  0.06373900  1
  O  O5  1  0.07126500  0.46660900  0.56373900  1
  O  O6  1  0.03339100  0.57126500  0.81373900  1
  O  O7  1  0.96660900  0.42873500  0.31373900  1
  O  O8  1  0.79536000  0.99255000  0.40994900  1
  O  O9  1  0.20464000  0.00745000  0.90994900  1
  O  O10  1  0.49255000  0.70464000  0.15994900  1
  O  O11  1  0.50745000  0.29536000  0.65994900  1
  O  O12  1  0.00745000  0.20464000  0.09005100  1
  O  O13  1  0.99255000  0.79536000  0.59005100  1
  O  O14  1  0.70464000  0.49255000  0.84005100  1
  O  O15  1  0.29536000  0.50745000  0.34005100  1
  O  O16  1  0.69664400  0.31766600  0.42928800  1
  O  O17  1  0.30335600  0.68233400  0.92928800  1
  O  O18  1  0.81766600  0.80335600  0.17928800  1
  O  O19  1  0.18233400  0.19664400  0.67928800  1
  O  O20  1  0.68233400  0.30335600  0.07071200  1
  O  O21  1  0.31766600  0.69664400  0.57071200  1
  O  O22  1  0.80335600  0.81766600  0.82071200  1
  O  O23  1  0.19664400  0.18233400  0.32071200  1
  O  O24  1  0.60554000  0.15145600  0.32187500  1
  O  O25  1  0.39446000  0.84854400  0.82187500  1
  O  O26  1  0.65145600  0.89446000  0.07187500  1
  O  O27  1  0.34854400  0.10554000  0.57187500  1
  O  O28  1  0.84854400  0.39446000  0.17812500  1
  O  O29  1  0.15145600  0.60554000  0.67812500  1
  O  O30  1  0.89446000  0.65145600  0.92812500  1
  O  O31  1  0.10554000  0.34854400  0.42812500  1
  O  O32  1  0.63455400  0.14866100  0.79330700  1
  O  O33  1  0.36544600  0.85133900  0.29330700  1
  O  O34  1  0.64866100  0.86544600  0.54330700  1
  O  O35  1  0.35133900  0.13455400  0.04330700  1
  O  O36  1  0.85133900  0.36544600  0.70669300  1
  O  O37  1  0.14866100  0.63455400  0.20669300  1
  O  O38  1  0.86544600  0.64866100  0.45669300  1
  O  O39  1  0.13455400  0.35133900  0.95669300  1
  O  O40  1  0.67271900  0.47121800  0.56070900  1
  O  O41  1  0.32728100  0.52878200  0.06070900  1
  O  O42  1  0.97121800  0.82728100  0.31070900  1
  O  O43  1  0.02878200  0.17271900  0.81070900  1
  O  O44  1  0.52878200  0.32728100  0.93929100  1
  O  O45  1  0.47121800  0.67271900  0.43929100  1
  O  O46  1  0.82728100  0.97121800  0.68929100  1
  O  O47  1  0.17271900  0.02878200  0.18929100  1
  O  O48  1  0.91226200  0.15146800  0.53745900  1
  O  O49  1  0.08773800  0.84853200  0.03745900  1
  O  O50  1  0.65146800  0.58773800  0.28745900  1
  O  O51  1  0.34853200  0.41226200  0.78745900  1
  O  O52  1  0.84853200  0.08773800  0.96254100  1
  O  O53  1  0.15146800  0.91226200  0.46254100  1
  O  O54  1  0.58773800  0.65146800  0.71254100  1
  O  O55  1  0.41226200  0.34853200  0.21254100  1
loop_
_geom_bond_atom_site_label_1
_geom_bond_atom_site_label_2
_geom_bond_distance
_geom_bond_site_symmetry_2
Na0 O24 2.448576 1_555
Na0 O28 2.448576 1_555
Na0 O47 2.618200 1_655
Na0 O42 2.618200 1_545
Na0 O7 2.661579 1_555
Na0 O2 2.661579 1_555
Na0 O23 2.799053 1_655
Na0 O18 2.799053 1_545
Na1 O25 2.448576 1_555
Na1 O29 2.448576 1_555
Na1 O43 2.618200 1_565
Na1 O46 2.618200 1_455
Na1 O3 2.661579 1_555
Na1 O6 2.661579 1_555
Na1 O19 2.799053 1_565
Na1 O22 2.799053 1_455
Na2 O26 2.448576 1_555
Na2 O30 2.448576 1_554
Na2 O41 2.618200 1_555
Na2 O44 2.618200 1_554
Na2 O4 2.661579 1_555
Na2 O1 2.661579 1_554
Na2 O17 2.799053 1_554
Na2 O20 2.799053 1_555
Na3 O27 2.448576 1_555
Na3 O31 2.448576 1_555
Na3 O40 2.618200 1_555
Na3 O45 2.618200 1_555
Na3 O5 2.661579 1_555
Na3 O0 2.661579 1_555
Na3 O21 2.799053 1_555
Na3 O16 2.799053 1_555
Fe0 O16 1.989277 1_555
Fe0 O48 2.005682 1_555
Fe0 O5 2.006182 1_655
Fe0 O38 2.030614 1_555
Fe0 O31 2.049998 1_655
Fe0 O40 2.189558 1_555
Fe1 O17 1.989277 1_555
Fe1 O49 2.005682 1_556
Fe1 O4 2.006182 1_456
Fe1 O39 2.030614 1_555
Fe1 O30 2.049998 1_455
Fe1 O41 2.189558 1_556
Fe2 O18 1.989277 1_555
Fe2 O50 2.005682 1_555
Fe2 O7 2.006182 1_555
Fe2 O37 2.030614 1_655
Fe2 O28 2.049998 1_555
Fe2 O42 2.189558 1_555
Fe3 O19 1.989277 1_555
Fe3 O51 2.005682 1_555
Fe3 O6 2.006182 1_555
Fe3 O36 2.030614 1_455
Fe3 O29 2.049998 1_555
Fe3 O43 2.189558 1_555
Fe4 O20 1.989277 1_555
Fe4 O52 2.005682 1_554
Fe4 O1 2.006182 1_544
Fe4 O35 2.030614 1_555
Fe4 O26 2.049998 1_545
Fe4 O44 2.189558 1_554
Fe5 O21 1.989277 1_555
Fe5 O53 2.005682 1_555
Fe5 O0 2.006182 1_565
Fe5 O34 2.030614 1_555
Fe5 O27 2.049998 1_565
Fe5 O45 2.189558 1_555
Fe6 O22 1.989277 1_555
Fe6 O54 2.005682 1_555
Fe6 O3 2.006182 1_555
Fe6 O32 2.030614 1_565
Fe6 O25 2.049998 1_555
Fe6 O46 2.189558 1_555
Fe7 O23 1.989277 1_555
Fe7 O55 2.005682 1_555
Fe7 O2 2.006182 1_555
Fe7 O33 2.030614 1_545
Fe7 O24 2.049998 1_555
Fe7 O47 2.189558 1_555
Fe8 O54 2.027091 1_555
Fe8 O51 2.027091 1_555
Fe8 O36 2.045255 1_555
Fe8 O32 2.045255 1_555
Fe8 O11 2.049506 1_555
Fe8 O14 2.049506 1_555
Fe9 O50 2.027091 1_555
Fe9 O55 2.027091 1_555
Fe9 O33 2.045255 1_555
Fe9 O37 2.045255 1_555
Fe9 O15 2.049506 1_555
Fe9 O10 2.049506 1_555
Fe10 O48 2.027091 1_565
Fe10 O53 2.027091 1_655
Fe10 O34 2.045255 1_555
Fe10 O38 2.045255 1_555
Fe10 O13 2.049506 1_555
Fe10 O8 2.049506 1_555
Fe11 O49 2.027091 1_545
Fe11 O52 2.027091 1_454
Fe11 O35 2.045255 1_555
Fe11 O39 2.045255 1_554
Fe11 O12 2.049506 1_555
Fe11 O9 2.049506 1_554
H0 O32 0.982145 1_555
H1 O33 0.982145 1_555
H2 O34 0.982145 1_555
H3 O35 0.982145 1_555
H4 O36 0.982145 1_555
H5 O37 0.982145 1_555
H6 O38 0.982145 1_555
H7 O39 0.982145 1_555
H8 O40 1.009179 1_555
H8 O11 1.640657 1_555
H9 O41 1.009179 1_555
H9 O10 1.640657 1_555
H10 O42 1.009179 1_555
H10 O8 1.640657 1_555
H11 O43 1.009179 1_555
H11 O9 1.640657 1_555
H12 O44 1.009179 1_555
H12 O14 1.640657 1_555
H13 O45 1.009179 1_555
H13 O15 1.640657 1_555
H14 O46 1.009179 1_555
H14 O13 1.640657 1_555
H15 O47 1.009179 1_555
H15 O12 1.640657 1_555
H16 O40 0.990197 1_555
H17 O41 0.990197 1_555
H18 O42 0.990197 1_455
H19 O43 0.990197 1_655
H20 O44 0.990197 1_555
H21 O45 0.990197 1_555
H22 O46 0.990197 1_545
H23 O47 0.990197 1_565
H24 O48 0.980246 1_455
H25 O49 0.980246 1_655
H26 O50 0.980246 1_555
H27 O51 0.980246 1_555
H28 O52 0.980246 1_565
H29 O53 0.980246 1_545
H30 O54 0.980246 1_555
H31 O55 0.980246 1_555
O0 P0 1.545629 1_555
O1 P1 1.545629 1_555
O2 P2 1.545629 1_545
O3 P3 1.545629 1_565
O4 P4 1.545629 1_555
O5 P5 1.545629 1_555
O6 P6 1.545629 1_455
O7 P7 1.545629 1_655
O8 P0 1.564452 1_565
O9 P1 1.564452 1_545
O10 P2 1.564452 1_555
O11 P3 1.564452 1_555
O12 P4 1.564452 1_455
O13 P5 1.564452 1_655
O14 P6 1.564452 1_555
O15 P7 1.564452 1_555
O16 P0 1.550463 1_555
O17 P1 1.550463 1_555
O18 P2 1.550463 1_555
O19 P3 1.550463 1_555
O20 P4 1.550463 1_555
O21 P5 1.550463 1_555
O22 P6 1.550463 1_555
O23 P7 1.550463 1_555
O24 P0 1.551608 1_555
O25 P1 1.551608 1_555
O26 P2 1.551608 1_555
O27 P3 1.551608 1_555
O28 P4 1.551608 1_555
O29 P5 1.551608 1_555
O30 P6 1.551608 1_555
O31 P7 1.551608 1_555
