# generated using pymatgen
data_Na6Ti2O7
_symmetry_space_group_name_H-M   'P 1'
_cell_length_a   8.47832027
_cell_length_b   8.47832027
_cell_length_c   11.17925652
_cell_angle_alpha   76.90981353
_cell_angle_beta   76.90981353
_cell_angle_gamma   72.32009374
_symmetry_Int_Tables_number   1
_chemical_formula_structural   Na6Ti2O7
_chemical_formula_sum   'Na18 Ti6 O21'
_cell_volume   734.88977711
_cell_formula_units_Z   3
loop_
 _symmetry_equiv_pos_site_id
 _symmetry_equiv_pos_as_xyz
  1  'x, y, z'
loop_
 _atom_site_type_symbol
 _atom_site_label
 _atom_site_symmetry_multiplicity
 _atom_site_fract_x
 _atom_site_fract_y
 _atom_site_fract_z
 _atom_site_occupancy
  Na  Na0  1  0.97530100  0.66349500  0.88404700  1
  Na  Na1  1  0.66349500  0.97530100  0.88404700  1
  Na  Na2  1  0.87144500  0.56410600  0.37969000  1
  Na  Na3  1  0.56410600  0.87144500  0.37969000  1
  Na  Na4  1  0.42140100  0.74873000  0.87950000  1
  Na  Na5  1  0.74873000  0.42140100  0.87950000  1
  Na  Na6  1  0.54041800  0.54041800  0.62177100  1
  Na  Na7  1  0.87046400  0.19359900  0.61816000  1
  Na  Na8  1  0.19359900  0.87046400  0.61816000  1
  Na  Na9  1  0.12953600  0.80640100  0.38184000  1
  Na  Na10  1  0.80640100  0.12953600  0.38184000  1
  Na  Na11  1  0.45958200  0.45958200  0.37822900  1
  Na  Na12  1  0.57859900  0.25127000  0.12050000  1
  Na  Na13  1  0.25127000  0.57859900  0.12050000  1
  Na  Na14  1  0.12855500  0.43589400  0.62031000  1
  Na  Na15  1  0.43589400  0.12855500  0.62031000  1
  Na  Na16  1  0.33650500  0.02469900  0.11595300  1
  Na  Na17  1  0.02469900  0.33650500  0.11595300  1
  Ti  Ti0  1  0.79363000  0.79363000  0.62819500  1
  Ti  Ti1  1  0.88823500  0.88823500  0.13981700  1
  Ti  Ti2  1  0.64489500  0.64489500  0.12906300  1
  Ti  Ti3  1  0.35510500  0.35510500  0.87093700  1
  Ti  Ti4  1  0.11176500  0.11176500  0.86018300  1
  Ti  Ti5  1  0.20637000  0.20637000  0.37180500  1
  O  O0  1  0.72638300  0.72638300  0.79686000  1
  O  O1  1  0.70057900  0.70057900  0.53869100  1
  O  O2  1  0.78791200  0.78791200  0.05372500  1
  O  O3  1  0.26436900  0.97282000  0.76337700  1
  O  O4  1  0.97282000  0.26436900  0.76337700  1
  O  O5  1  0.97426000  0.27590300  0.41150200  1
  O  O6  1  0.27590300  0.97426000  0.41150200  1
  O  O7  1  0.62278300  0.62278300  0.29717500  1
  O  O8  1  0.74646000  0.44055200  0.08262900  1
  O  O9  1  0.44055200  0.74646000  0.08262900  1
  O  O10  1  0.25354000  0.55944800  0.91737100  1
  O  O11  1  0.55944800  0.25354000  0.91737100  1
  O  O12  1  0.37721700  0.37721700  0.70282500  1
  O  O13  1  0.72409700  0.02574000  0.58849800  1
  O  O14  1  0.02574000  0.72409700  0.58849800  1
  O  O15  1  0.00000000  0.00000000  0.00000000  1
  O  O16  1  0.02718000  0.73563100  0.23662300  1
  O  O17  1  0.73563100  0.02718000  0.23662300  1
  O  O18  1  0.21208800  0.21208800  0.94627500  1
  O  O19  1  0.29942100  0.29942100  0.46130900  1
  O  O20  1  0.27361700  0.27361700  0.20314000  1
loop_
_geom_bond_atom_site_label_1
_geom_bond_atom_site_label_2
_geom_bond_distance
_geom_bond_site_symmetry_2
Na0 O10 2.338178 1_655
Na0 O0 2.387676 1_555
Na0 O2 2.399641 1_556
Na1 O11 2.338178 1_565
Na1 O0 2.387676 1_555
Na1 O2 2.399641 1_556
Na2 O5 2.304338 1_555
Na2 O1 2.311722 1_555
Na2 O16 2.360592 1_655
Na2 O7 2.362006 1_555
Na3 O6 2.304338 1_555
Na3 O1 2.311722 1_555
Na3 O17 2.360592 1_565
Na3 O7 2.362006 1_555
Na4 O3 2.279630 1_555
Na4 O9 2.308404 1_556
Na4 O10 2.363599 1_555
Na4 O0 2.505010 1_555
Na5 O4 2.279630 1_555
Na5 O8 2.308404 1_556
Na5 O11 2.363599 1_555
Na5 O0 2.505010 1_555
Na6 O1 2.127864 1_555
Na6 O12 2.162682 1_555
Na7 O4 2.268089 1_555
Na7 O13 2.268956 1_555
Na7 O5 2.306639 1_555
Na8 O3 2.268089 1_555
Na8 O14 2.268956 1_555
Na8 O6 2.306639 1_555
Na9 O16 2.268089 1_555
Na9 O6 2.268956 1_555
Na9 O14 2.306639 1_555
Na10 O17 2.268089 1_555
Na10 O5 2.268956 1_555
Na10 O13 2.306639 1_555
Na11 O19 2.127864 1_555
Na11 O7 2.162682 1_555
Na12 O17 2.279630 1_555
Na12 O11 2.308404 1_554
Na12 O8 2.363599 1_555
Na12 O20 2.505010 1_555
Na13 O16 2.279630 1_555
Na13 O10 2.308404 1_554
Na13 O9 2.363599 1_555
Na13 O20 2.505010 1_555
Na14 O14 2.304338 1_555
Na14 O19 2.311722 1_555
Na14 O4 2.360592 1_455
Na14 O12 2.362006 1_555
Na15 O13 2.304338 1_555
Na15 O19 2.311722 1_555
Na15 O3 2.360592 1_545
Na15 O12 2.362006 1_555
Na16 O9 2.338178 1_545
Na16 O20 2.387676 1_555
Na16 O18 2.399641 1_554
Na17 O8 2.338178 1_455
Na17 O20 2.387676 1_555
Na17 O18 2.399641 1_554
O0 Ti0 1.851742 1_555
O1 Ti0 1.827326 1_555
O2 Ti1 1.885285 1_555
O2 Ti2 1.902032 1_555
O3 Ti4 1.802881 1_565
O4 Ti4 1.802881 1_655
O5 Ti5 1.853479 1_655
O6 Ti5 1.853479 1_565
O7 Ti2 1.817821 1_555
O8 Ti2 1.819674 1_555
O9 Ti2 1.819674 1_555
O10 Ti3 1.819674 1_555
O11 Ti3 1.819674 1_555
O12 Ti3 1.817821 1_555
O13 Ti0 1.853479 1_545
O14 Ti0 1.853479 1_455
O15 Ti4 1.855405 1_554
O15 Ti1 1.855405 1_445
O16 Ti1 1.802881 1_455
O17 Ti1 1.802881 1_545
O18 Ti4 1.885285 1_555
O18 Ti3 1.902032 1_555
O19 Ti5 1.827326 1_555
O20 Ti5 1.851742 1_555
