# generated using pymatgen
data_LiCrSnO4
_symmetry_space_group_name_H-M   'P 1'
_cell_length_a   6.09720701
_cell_length_b   6.09669300
_cell_length_c   8.55211701
_cell_angle_alpha   90.00163226
_cell_angle_beta   90.00596019
_cell_angle_gamma   90.00029128
_symmetry_Int_Tables_number   1
_chemical_formula_structural   LiCrSnO4
_chemical_formula_sum   'Li4 Cr4 Sn4 O16'
_cell_volume   317.90612736
_cell_formula_units_Z   4
loop_
 _symmetry_equiv_pos_site_id
 _symmetry_equiv_pos_as_xyz
  1  'x, y, z'
loop_
 _atom_site_type_symbol
 _atom_site_label
 _atom_site_symmetry_multiplicity
 _atom_site_fract_x
 _atom_site_fract_y
 _atom_site_fract_z
 _atom_site_occupancy
  Li  Li0  1  0.99998900  0.23262200  0.00000800  1
  Li  Li1  1  0.99999800  0.76743700  0.50002300  1
  Li  Li2  1  0.23260300  0.00000500  0.24997400  1
  Li  Li3  1  0.76741900  0.00000800  0.75004400  1
  Cr  Cr0  1  0.50000600  0.24312200  0.99997900  1
  Cr  Cr1  1  0.50010700  0.75692500  0.49993300  1
  Cr  Cr2  1  0.24308400  0.50028500  0.24989900  1
  Cr  Cr3  1  0.75715100  0.49998800  0.74992300  1
  Sn  Sn0  1  0.25173400  0.25177800  0.62504600  1
  Sn  Sn1  1  0.25180800  0.74803500  0.87495900  1
  Sn  Sn2  1  0.74819000  0.25172600  0.37501600  1
  Sn  Sn3  1  0.74819100  0.74802900  0.12505800  1
  O  O0  1  0.02024700  0.26195200  0.25100900  1
  O  O1  1  0.02024100  0.73813000  0.24905200  1
  O  O2  1  0.26187100  0.02021000  0.99894000  1
  O  O3  1  0.26188200  0.97968900  0.50098200  1
  O  O4  1  0.73809400  0.02024500  0.00110000  1
  O  O5  1  0.73818800  0.97968400  0.49906900  1
  O  O6  1  0.97969100  0.26193100  0.74900300  1
  O  O7  1  0.97968000  0.73814200  0.75098400  1
  O  O8  1  0.26255200  0.48156800  0.01377300  1
  O  O9  1  0.26260800  0.51839800  0.48631600  1
  O  O10  1  0.48160900  0.26269900  0.23628900  1
  O  O11  1  0.48159100  0.73740300  0.26372600  1
  O  O12  1  0.51834300  0.26263600  0.76375400  1
  O  O13  1  0.51833900  0.73734500  0.73623200  1
  O  O14  1  0.73742200  0.51840100  0.51369100  1
  O  O15  1  0.73736100  0.48160600  0.98621900  1
loop_
_geom_bond_atom_site_label_1
_geom_bond_atom_site_label_2
_geom_bond_distance
_geom_bond_site_symmetry_2
Li0 O4 2.055828 1_555
Li0 O2 2.055910 1_654
Li0 O0 2.157546 1_655
Li0 O6 2.157593 1_554
Li0 O8 2.209123 1_655
Li0 O15 2.209596 1_554
Li1 O5 2.054930 1_555
Li1 O3 2.055290 1_655
Li1 O7 2.157244 1_555
Li1 O1 2.157299 1_655
Li1 O14 2.209536 1_555
Li1 O9 2.209723 1_655
Li2 O1 2.055632 1_545
Li2 O0 2.055966 1_555
Li2 O3 2.157603 1_545
Li2 O2 2.157817 1_554
Li2 O11 2.209472 1_545
Li2 O10 2.209929 1_555
Li3 O7 2.055213 1_545
Li3 O6 2.055520 1_555
Li3 O5 2.157294 1_545
Li3 O4 2.158037 1_556
Li3 O12 2.209948 1_555
Li3 O13 2.210138 1_545
Cr0 O4 1.988425 1_556
Cr0 O2 1.988766 1_555
Cr0 O12 2.026825 1_555
Cr0 O10 2.027586 1_556
Cr0 O15 2.054818 1_555
Cr0 O8 2.055102 1_556
Cr1 O5 1.987884 1_555
Cr1 O3 1.988562 1_555
Cr1 O11 2.026705 1_555
Cr1 O13 2.027421 1_555
Cr1 O14 2.054811 1_555
Cr1 O9 2.055531 1_555
Cr2 O1 1.987181 1_555
Cr2 O0 1.989329 1_555
Cr2 O8 2.026088 1_555
Cr2 O9 2.028360 1_555
Cr2 O11 2.053912 1_555
Cr2 O10 2.055920 1_555
Cr3 O6 1.986865 1_555
Cr3 O7 1.987245 1_555
Cr3 O14 2.026963 1_555
Cr3 O15 2.027546 1_555
Cr3 O13 2.056203 1_555
Cr3 O12 2.056239 1_555
O0 Sn2 1.969909 1_455
O1 Sn3 1.969566 1_455
O2 Sn1 1.970123 1_545
O3 Sn0 1.970088 1_565
O4 Sn3 1.970286 1_545
O5 Sn2 1.969818 1_565
O6 Sn0 1.969591 1_655
O7 Sn1 1.969875 1_655
O8 Sn1 2.013191 1_554
O9 Sn0 2.013554 1_555
O10 Sn2 2.013348 1_555
O11 Sn3 2.013274 1_555
O12 Sn0 2.013364 1_555
O13 Sn1 2.013243 1_555
O14 Sn2 2.013473 1_555
O15 Sn3 2.013063 1_556
