# generated using pymatgen
data_Li4Cr5Co3O16
_symmetry_space_group_name_H-M   'P 1'
_cell_length_a   5.83096100
_cell_length_b   5.83771843
_cell_length_c   9.49667809
_cell_angle_alpha   90.93079901
_cell_angle_beta   89.59314475
_cell_angle_gamma   119.46273626
_symmetry_Int_Tables_number   1
_chemical_formula_structural   Li4Cr5Co3O16
_chemical_formula_sum   'Li4 Cr5 Co3 O16'
_cell_volume   281.41932648
_cell_formula_units_Z   1
loop_
 _symmetry_equiv_pos_site_id
 _symmetry_equiv_pos_as_xyz
  1  'x, y, z'
loop_
 _atom_site_type_symbol
 _atom_site_label
 _atom_site_symmetry_multiplicity
 _atom_site_fract_x
 _atom_site_fract_y
 _atom_site_fract_z
 _atom_site_occupancy
  Li  Li0  1  0.32524400  0.66260000  0.89298500  1
  Li  Li1  1  0.00584800  0.99711500  0.99588900  1
  Li  Li2  1  0.00624500  0.99761500  0.49761700  1
  Li  Li3  1  0.66648600  0.33244600  0.39582600  1
  Cr  Cr0  1  0.16854100  0.33632100  0.20953200  1
  Cr  Cr1  1  0.34192000  0.67607500  0.48476600  1
  Cr  Cr2  1  0.66335800  0.82954100  0.20845500  1
  Cr  Cr3  1  0.83384300  0.16719300  0.70824600  1
  Cr  Cr4  1  0.65662400  0.33410200  0.98251100  1
  Co  Co0  1  0.17107300  0.82820100  0.22078100  1
  Co  Co1  1  0.34103500  0.16978700  0.71356500  1
  Co  Co2  1  0.83533100  0.65999800  0.71695200  1
  O  O0  1  0.16215700  0.32637300  0.60780200  1
  O  O1  1  0.48157500  0.52268500  0.33339600  1
  O  O2  1  0.32868000  0.66839100  0.10317400  1
  O  O3  1  0.00248300  0.99919500  0.30945500  1
  O  O4  1  0.01287900  0.01022300  0.80944600  1
  O  O5  1  0.67496400  0.84378600  0.60536600  1
  O  O6  1  0.04049100  0.50990300  0.34263800  1
  O  O7  1  0.49394900  0.96220700  0.34100600  1
  O  O8  1  0.83320500  0.16360300  0.10641200  1
  O  O9  1  0.17635100  0.84995100  0.60482600  1
  O  O10  1  0.51960500  0.04092800  0.83215500  1
  O  O11  1  0.95431200  0.47341800  0.83840500  1
  O  O12  1  0.65475100  0.32480900  0.60578800  1
  O  O13  1  0.32892500  0.17847500  0.10250700  1
  O  O14  1  0.50115900  0.46521600  0.83838200  1
  O  O15  1  0.81866600  0.66954300  0.09995500  1
loop_
_geom_bond_atom_site_label_1
_geom_bond_atom_site_label_2
_geom_bond_distance
_geom_bond_site_symmetry_2
Li0 O14 1.945386 1_555
Li0 O11 1.952943 1_455
Li0 O2 1.995910 1_556
Li0 O10 2.016388 1_565
Li1 O4 1.772796 1_565
Li1 O13 1.930088 1_566
Li1 O15 1.953887 1_456
Li1 O8 1.993485 1_466
Li2 O3 1.787434 1_555
Li2 O9 1.909830 1_555
Li2 O0 1.958736 1_565
Li2 O5 1.969835 1_455
Li3 O7 1.945886 1_545
Li3 O6 1.965501 1_655
Li3 O1 1.988913 1_555
Li3 O12 1.995100 1_555
Cr0 O13 1.886926 1_555
Cr0 O8 1.963332 1_455
Cr0 O6 1.967597 1_555
Cr0 O3 1.970861 1_545
Cr0 O2 1.979794 1_555
Cr0 O1 1.983536 1_555
Cr1 O7 2.010002 1_555
Cr1 O6 2.041072 1_555
Cr1 O5 2.041157 1_555
Cr1 O9 2.042816 1_555
Cr1 O1 2.047011 1_555
Cr1 O0 2.141639 1_555
Cr2 O15 1.881955 1_555
Cr2 O7 1.965549 1_555
Cr2 O8 1.967459 1_565
Cr2 O3 1.969929 1_655
Cr2 O2 1.970827 1_555
Cr2 O1 1.980814 1_555
Cr3 O5 1.899888 1_545
Cr3 O0 1.921241 1_655
Cr3 O4 1.958845 1_655
Cr3 O12 1.967896 1_555
Cr3 O11 1.980477 1_555
Cr3 O10 1.988545 1_555
Cr4 O14 2.003817 1_555
Cr4 O13 2.017462 1_556
Cr4 O15 2.023662 1_556
Cr4 O11 2.039862 1_555
Cr4 O10 2.048899 1_555
Cr4 O8 2.121017 1_556
Co0 O3 1.896889 1_555
Co0 O2 1.938373 1_555
Co0 O7 2.003175 1_555
Co0 O6 2.009276 1_555
Co0 O13 2.120966 1_565
Co0 O15 2.126900 1_455
Co1 O12 1.894153 1_555
Co1 O4 1.899366 1_555
Co1 O14 1.901691 1_555
Co1 O9 1.913719 1_545
Co1 O10 1.932116 1_555
Co1 O0 1.978619 1_555
Co2 O11 1.947703 1_555
Co2 O4 1.973778 1_665
Co2 O12 1.993461 1_555
Co2 O9 2.038804 1_655
Co2 O5 2.046073 1_555
Co2 O14 2.061729 1_555
