# generated using pymatgen
data_Li2CuSiO4
_symmetry_space_group_name_H-M   'P 1'
_cell_length_a   4.97345900
_cell_length_b   5.32572600
_cell_length_c   6.27267500
_cell_angle_alpha   90.00000000
_cell_angle_beta   90.00000000
_cell_angle_gamma   90.00000000
_symmetry_Int_Tables_number   1
_chemical_formula_structural   Li2CuSiO4
_chemical_formula_sum   'Li4 Cu2 Si2 O8'
_cell_volume   166.14609849
_cell_formula_units_Z   2
loop_
 _symmetry_equiv_pos_site_id
 _symmetry_equiv_pos_as_xyz
  1  'x, y, z'
loop_
 _atom_site_type_symbol
 _atom_site_label
 _atom_site_symmetry_multiplicity
 _atom_site_fract_x
 _atom_site_fract_y
 _atom_site_fract_z
 _atom_site_occupancy
  Li  Li0  1  0.99568700  0.83128000  0.24872400  1
  Li  Li1  1  0.49568700  0.16872000  0.25127600  1
  Li  Li2  1  0.99568700  0.83128000  0.75127600  1
  Li  Li3  1  0.49568700  0.16872000  0.74872400  1
  Cu  Cu0  1  0.98638500  0.31924800  0.00000000  1
  Cu  Cu1  1  0.48638500  0.68075200  0.50000000  1
  Si  Si0  1  0.50136600  0.65885100  0.00000000  1
  Si  Si1  1  0.00136600  0.34114900  0.50000000  1
  O  O0  1  0.83394100  0.66530700  0.00000000  1
  O  O1  1  0.39667700  0.36383900  0.00000000  1
  O  O2  1  0.89504900  0.19209300  0.28443200  1
  O  O3  1  0.39504900  0.80790700  0.21556800  1
  O  O4  1  0.89667700  0.63616100  0.50000000  1
  O  O5  1  0.33394100  0.33469300  0.50000000  1
  O  O6  1  0.39504900  0.80790700  0.78443200  1
  O  O7  1  0.89504900  0.19209300  0.71556800  1
loop_
_geom_bond_atom_site_label_1
_geom_bond_atom_site_label_2
_geom_bond_distance
_geom_bond_site_symmetry_2
Li0 O4 1.951060 1_555
Li0 O0 1.965340 1_555
Li0 O2 1.998300 1_565
Li0 O3 2.000945 1_655
Li1 O1 1.951060 1_555
Li1 O5 1.965340 1_555
Li1 O3 1.998300 1_545
Li1 O2 2.000945 1_555
Li2 O4 1.951060 1_555
Li2 O0 1.965340 1_556
Li2 O7 1.998300 1_565
Li2 O6 2.000945 1_655
Li3 O1 1.951060 1_556
Li3 O5 1.965340 1_555
Li3 O6 1.998300 1_545
Li3 O7 2.000945 1_555
Cu0 O2 1.961665 1_555
Cu0 O7 1.961665 1_554
Cu0 O0 1.992871 1_555
Cu0 O1 2.054343 1_655
Cu1 O3 1.961665 1_555
Cu1 O6 1.961665 1_555
Cu1 O5 1.992871 1_555
Cu1 O4 2.054343 1_555
O0 Si0 1.654405 1_555
O1 Si0 1.655178 1_555
O2 Si1 1.654742 1_655
O3 Si0 1.654742 1_555
O4 Si1 1.655178 1_655
O5 Si1 1.654405 1_555
O6 Si0 1.654742 1_556
O7 Si1 1.654742 1_655
