# generated using pymatgen
data_Li24Ti5Cr7O36
_symmetry_space_group_name_H-M   'P 1'
_cell_length_a   5.05169600
_cell_length_b   9.78413815
_cell_length_c   13.39815184
_cell_angle_alpha   97.18501343
_cell_angle_beta   100.66401271
_cell_angle_gamma   94.68122908
_symmetry_Int_Tables_number   1
_chemical_formula_structural   Li24Ti5Cr7O36
_chemical_formula_sum   'Li24 Ti5 Cr7 O36'
_cell_volume   641.93862808
_cell_formula_units_Z   1
loop_
 _symmetry_equiv_pos_site_id
 _symmetry_equiv_pos_as_xyz
  1  'x, y, z'
loop_
 _atom_site_type_symbol
 _atom_site_label
 _atom_site_symmetry_multiplicity
 _atom_site_fract_x
 _atom_site_fract_y
 _atom_site_fract_z
 _atom_site_occupancy
  Li  Li0  1  0.16464400  0.00128800  0.83316100  1
  Li  Li1  1  0.04966700  0.00076300  0.61447700  1
  Li  Li2  1  0.99763300  0.75093400  0.24981200  1
  Li  Li3  1  0.33313000  0.75034500  0.91718800  1
  Li  Li4  1  0.04620700  0.49728800  0.11228800  1
  Li  Li5  1  0.37662300  0.50089500  0.77890600  1
  Li  Li6  1  0.17358400  0.49885400  0.33286500  1
  Li  Li7  1  0.50117100  0.50212600  0.99884400  1
  Li  Li8  1  0.28437400  0.50136100  0.55475900  1
  Li  Li9  1  0.33492900  0.24971300  0.41521900  1
  Li  Li10  1  0.50930500  0.99924100  0.49781400  1
  Li  Li11  1  0.28239200  0.00085900  0.05258700  1
  Li  Li12  1  0.61434200  0.99778100  0.71836500  1
  Li  Li13  1  0.38176400  0.99932900  0.28039800  1
  Li  Li14  1  0.71855300  0.00001200  0.94745400  1
  Li  Li15  1  0.66363000  0.75004400  0.58262200  1
  Li  Li16  1  0.70674300  0.49965800  0.44561500  1
  Li  Li17  1  0.84124400  0.49954800  0.66555100  1
  Li  Li18  1  0.62127600  0.50205900  0.22272800  1
  Li  Li19  1  0.95352800  0.49836400  0.88737800  1
  Li  Li20  1  0.66640500  0.25037300  0.08391400  1
  Li  Li21  1  0.83328800  0.99833500  0.16770300  1
  Li  Li22  1  0.00068900  0.25015600  0.75038300  1
  Li  Li23  1  0.94929500  0.99982400  0.38749400  1
  Ti  Ti0  1  0.11280600  0.75036300  0.47296500  1
  Ti  Ti1  1  0.44884300  0.25575000  0.63946800  1
  Ti  Ti2  1  0.55237800  0.24511200  0.86039400  1
  Ti  Ti3  1  0.77600300  0.74618400  0.80778400  1
  Ti  Ti4  1  0.77290700  0.24874500  0.30617000  1
  Cr  Cr0  1  0.10466400  0.24999600  0.97438400  1
  Cr  Cr1  1  0.21919400  0.75126700  0.69434100  1
  Cr  Cr2  1  0.22554100  0.25175300  0.19309400  1
  Cr  Cr3  1  0.44564600  0.75182500  0.13532600  1
  Cr  Cr4  1  0.55210600  0.74876900  0.35800800  1
  Cr  Cr5  1  0.89560100  0.24847900  0.52643800  1
  Cr  Cr6  1  0.89438400  0.75070400  0.03138700  1
  O  O0  1  0.99903500  0.86203600  0.93086500  1
  O  O1  1  0.06964400  0.63354800  0.78709200  1
  O  O2  1  0.99949100  0.36263000  0.43184000  1
  O  O3  1  0.14597100  0.36366800  0.64442800  1
  O  O4  1  0.26242400  0.36406600  0.88421700  1
  O  O5  1  0.33560700  0.86451800  0.59402900  1
  O  O6  1  0.07146200  0.13595100  0.28315700  1
  O  O7  1  0.18140900  0.13758700  0.52150200  1
  O  O8  1  0.40167800  0.13565600  0.95364500  1
  O  O9  1  0.13348100  0.86231400  0.14057000  1
  O  O10  1  0.26915900  0.86480200  0.38015100  1
  O  O11  1  0.47169000  0.86180900  0.80942600  1
  O  O12  1  0.33372800  0.13603800  0.73771000  1
  O  O13  1  0.19992200  0.63727200  0.02770400  1
  O  O14  1  0.39938300  0.63234500  0.45177600  1
  O  O15  1  0.51930500  0.63866200  0.68986000  1
  O  O16  1  0.33743000  0.64115800  0.23890700  1
  O  O17  1  0.66801700  0.63677500  0.90719900  1
  O  O18  1  0.33719200  0.36151600  0.09955600  1
  O  O19  1  0.66723200  0.36478900  0.76258200  1
  O  O20  1  0.47932500  0.36514700  0.31096400  1
  O  O21  1  0.59821000  0.36398900  0.54637100  1
  O  O22  1  0.81877300  0.36316900  0.97842200  1
  O  O23  1  0.66512100  0.86217800  0.25837400  1
  O  O24  1  0.51472400  0.13678600  0.18877600  1
  O  O25  1  0.73944700  0.13635300  0.61676500  1
  O  O26  1  0.85428900  0.13569000  0.85614100  1
  O  O27  1  0.59177000  0.86529600  0.05015200  1
  O  O28  1  0.80468900  0.86104200  0.47413900  1
  O  O29  1  0.93666500  0.86489000  0.71469400  1
  O  O30  1  0.66202300  0.13514400  0.40247200  1
  O  O31  1  0.74346700  0.63575900  0.11611000  1
  O  O32  1  0.85234600  0.63748700  0.35557400  1
  O  O33  1  0.00109600  0.63852000  0.57517700  1
  O  O34  1  0.93362500  0.36461500  0.21442200  1
  O  O35  1  0.99667600  0.13869600  0.06794500  1
loop_
_geom_bond_atom_site_label_1
_geom_bond_atom_site_label_2
_geom_bond_distance
_geom_bond_site_symmetry_2
Li0 O29 2.041913 1_445
Li0 O8 2.065147 1_555
Li0 O26 2.167023 1_455
Li0 O12 2.178426 1_555
Li0 O11 2.188357 1_545
Li0 O0 2.221541 1_445
Li1 O5 2.075568 1_545
Li1 O7 2.089343 1_555
Li1 O29 2.121888 1_445
Li1 O25 2.136296 1_455
Li1 O12 2.191702 1_555
Li1 O28 2.270563 1_445
Li2 O23 2.087557 1_555
Li2 O32 2.103342 1_555
Li2 O9 2.109368 1_655
Li2 O16 2.115658 1_655
Li2 O31 2.129565 1_555
Li2 O10 2.132987 1_655
Li3 O11 2.099336 1_555
Li3 O0 2.107533 1_455
Li3 O17 2.113784 1_555
Li3 O1 2.123818 1_555
Li3 O13 2.127513 1_556
Li3 O27 2.131480 1_556
Li4 O13 2.074491 1_555
Li4 O18 2.075917 1_555
Li4 O34 2.119646 1_455
Li4 O31 2.127651 1_455
Li4 O22 2.159021 1_454
Li4 O16 2.272603 1_555
Li5 O15 2.078888 1_555
Li5 O19 2.083629 1_555
Li5 O1 2.111231 1_555
Li5 O4 2.182573 1_555
Li5 O3 2.183853 1_555
Li5 O17 2.249762 1_555
Li6 O14 2.027061 1_555
Li6 O34 2.054165 1_455
Li6 O20 2.141152 1_555
Li6 O16 2.200990 1_555
Li6 O2 2.234014 1_455
Li6 O32 2.237110 1_455
Li7 O4 2.041456 1_555
Li7 O31 2.046800 1_556
Li7 O17 2.135442 1_555
Li7 O13 2.152260 1_556
Li7 O22 2.218776 1_555
Li7 O18 2.256474 1_556
Li8 O33 2.071262 1_555
Li8 O3 2.075854 1_555
Li8 O14 2.121613 1_555
Li8 O21 2.169936 1_555
Li8 O15 2.196830 1_555
Li8 O2 2.206943 1_455
Li9 O30 2.091641 1_555
Li9 O20 2.096678 1_555
Li9 O7 2.119761 1_555
Li9 O21 2.123124 1_555
Li9 O2 2.127272 1_455
Li9 O6 2.129566 1_555
Li10 O10 2.049434 1_555
Li10 O25 2.053327 1_565
Li10 O28 2.133729 1_555
Li10 O30 2.148772 1_565
Li10 O5 2.196397 1_555
Li10 O7 2.264903 1_565
Li11 O35 2.074268 1_455
Li11 O9 2.086730 1_545
Li11 O8 2.112614 1_554
Li11 O27 2.132914 1_545
Li11 O0 2.195021 1_444
Li11 O24 2.195739 1_555
Li12 O12 2.065876 1_565
Li12 O11 2.086299 1_555
Li12 O29 2.168755 1_555
Li12 O25 2.175050 1_565
Li12 O5 2.178703 1_555
Li12 O26 2.231439 1_565
Li13 O23 2.075472 1_555
Li13 O24 2.082668 1_565
Li13 O10 2.107488 1_555
Li13 O6 2.143952 1_565
Li13 O30 2.176594 1_565
Li13 O9 2.260026 1_555
Li14 O0 2.057469 1_545
Li14 O26 2.073004 1_555
Li14 O27 2.163989 1_546
Li14 O8 2.167722 1_555
Li14 O35 2.173192 1_556
Li14 O11 2.247067 1_545
Li15 O5 2.092262 1_555
Li15 O15 2.105524 1_555
Li15 O33 2.108599 1_655
Li15 O28 2.109896 1_555
Li15 O14 2.135276 1_555
Li15 O29 2.154675 1_555
Li16 O2 2.093169 1_555
Li16 O32 2.094849 1_555
Li16 O14 2.110142 1_555
Li16 O21 2.118569 1_555
Li16 O20 2.167672 1_555
Li16 O33 2.279323 1_655
Li17 O1 2.055628 1_655
Li17 O21 2.072461 1_555
Li17 O33 2.135786 1_655
Li17 O3 2.149061 1_655
Li17 O19 2.205407 1_555
Li17 O15 2.247251 1_555
Li18 O20 2.063821 1_555
Li18 O16 2.077272 1_555
Li18 O32 2.162170 1_555
Li18 O34 2.164356 1_555
Li18 O31 2.189703 1_555
Li18 O18 2.215298 1_555
Li19 O22 2.065201 1_555
Li19 O17 2.086948 1_555
Li19 O1 2.123326 1_655
Li19 O4 2.123341 1_655
Li19 O19 2.201211 1_555
Li19 O13 2.269325 1_656
Li20 O18 2.087934 1_555
Li20 O35 2.096316 1_555
Li20 O24 2.108589 1_555
Li20 O22 2.112413 1_554
Li20 O8 2.120289 1_554
Li20 O34 2.126114 1_555
Li21 O6 2.044296 1_665
Li21 O27 2.044562 1_555
Li21 O23 2.138750 1_555
Li21 O9 2.148363 1_655
Li21 O24 2.221000 1_565
Li21 O35 2.244126 1_565
Li22 O3 2.105782 1_555
Li22 O26 2.111550 1_455
Li22 O12 2.114457 1_555
Li22 O19 2.118186 1_455
Li22 O25 2.138577 1_455
Li22 O4 2.141908 1_555
Li23 O30 2.062564 1_565
Li23 O28 2.066722 1_555
Li23 O10 2.177305 1_655
Li23 O6 2.181709 1_665
Li23 O7 2.184693 1_665
Li23 O23 2.247189 1_555
Cr0 O35 1.884788 1_456
Cr0 O22 1.894681 1_455
Cr0 O4 1.971958 1_555
Cr0 O8 1.982557 1_555
Cr0 O26 1.986119 1_455
Cr0 O18 1.996727 1_556
Cr1 O29 1.916894 1_455
Cr1 O33 1.920904 1_555
Cr1 O11 1.950396 1_555
Cr1 O15 1.950817 1_555
Cr1 O5 1.984604 1_555
Cr1 O1 2.001274 1_555
Cr2 O18 1.881881 1_555
Cr2 O24 1.919892 1_555
Cr2 O34 1.954102 1_455
Cr2 O6 1.972642 1_555
Cr2 O20 1.987149 1_555
Cr2 O35 1.995407 1_455
Cr3 O27 1.890683 1_555
Cr3 O13 1.892738 1_555
Cr3 O23 1.948286 1_555
Cr3 O16 1.989296 1_555
Cr3 O9 1.990140 1_555
Cr3 O31 1.992110 1_555
Cr4 O16 1.893118 1_555
Cr4 O10 1.938432 1_555
Cr4 O32 1.940608 1_555
Cr4 O28 1.965870 1_555
Cr4 O23 1.971891 1_555
Cr4 O14 2.011066 1_555
Cr5 O7 1.881288 1_655
Cr5 O2 1.906263 1_555
Cr5 O25 1.958215 1_555
Cr5 O3 1.987619 1_655
Cr5 O21 1.988898 1_555
Cr5 O30 1.995238 1_555
Cr6 O9 1.876830 1_655
Cr6 O31 1.906370 1_555
Cr6 O0 1.953568 1_554
Cr6 O13 1.977525 1_655
Cr6 O17 1.985584 1_554
Cr6 O27 2.002180 1_555
O0 Ti3 1.977372 1_555
O1 Ti3 1.958163 1_455
O2 Ti4 1.999000 1_555
O3 Ti1 1.934950 1_555
O4 Ti2 1.990060 1_555
O5 Ti0 1.952240 1_555
O6 Ti4 1.986541 1_455
O7 Ti1 2.039013 1_555
O8 Ti2 1.959868 1_555
O10 Ti0 1.997849 1_555
O11 Ti3 1.983367 1_555
O12 Ti2 1.938469 1_555
O12 Ti1 2.000094 1_555
O14 Ti0 1.962838 1_555
O15 Ti3 1.971770 1_555
O17 Ti3 1.935958 1_555
O19 Ti1 1.941735 1_555
O19 Ti2 1.994872 1_555
O20 Ti4 1.947667 1_555
O21 Ti1 1.948088 1_555
O22 Ti2 2.036589 1_555
O24 Ti4 1.987844 1_555
O25 Ti1 1.992150 1_555
O26 Ti2 1.938808 1_555
O28 Ti0 1.968647 1_655
O29 Ti3 2.036267 1_555
O30 Ti4 1.933539 1_555
O32 Ti0 1.996771 1_655
O33 Ti0 1.987816 1_555
O34 Ti4 2.005798 1_555
