# generated using pymatgen
data_Li7Ni5O12
_symmetry_space_group_name_H-M   'P 1'
_cell_length_a   5.77097100
_cell_length_b   6.36874612
_cell_length_c   6.46624876
_cell_angle_alpha   96.58075900
_cell_angle_beta   116.44261766
_cell_angle_gamma   103.05752710
_symmetry_Int_Tables_number   1
_chemical_formula_structural   Li7Ni5O12
_chemical_formula_sum   'Li7 Ni5 O12'
_cell_volume   200.88473393
_cell_formula_units_Z   1
loop_
 _symmetry_equiv_pos_site_id
 _symmetry_equiv_pos_as_xyz
  1  'x, y, z'
loop_
 _atom_site_type_symbol
 _atom_site_label
 _atom_site_symmetry_multiplicity
 _atom_site_fract_x
 _atom_site_fract_y
 _atom_site_fract_z
 _atom_site_occupancy
  Li  Li0  1  0.24828500  0.66955900  0.16465900  1
  Li  Li1  1  0.00000000  0.00000000  0.00000000  1
  Li  Li2  1  0.74678000  0.99794700  0.49675200  1
  Li  Li3  1  0.75256900  0.67282200  0.16433700  1
  Li  Li4  1  0.75171500  0.33044100  0.83534100  1
  Li  Li5  1  0.25322000  0.00205300  0.50324800  1
  Li  Li6  1  0.24743100  0.32717800  0.83566300  1
  Ni  Ni0  1  0.00045600  0.66790700  0.66938100  1
  Ni  Ni1  1  0.50359600  0.66654100  0.67075300  1
  Ni  Ni2  1  0.50000000  0.00000000  0.00000000  1
  Ni  Ni3  1  0.49640400  0.33345900  0.32924700  1
  Ni  Ni4  1  0.99954400  0.33209300  0.33061900  1
  O  O0  1  0.86155800  0.66289300  0.88719500  1
  O  O1  1  0.39180700  0.01934700  0.23942400  1
  O  O2  1  0.60819300  0.98065300  0.76057600  1
  O  O3  1  0.37952300  0.68733400  0.91881500  1
  O  O4  1  0.85612500  0.01794800  0.23860000  1
  O  O5  1  0.86920500  0.34796100  0.56178600  1
  O  O6  1  0.14387500  0.98205200  0.76140000  1
  O  O7  1  0.13844200  0.33710700  0.11280500  1
  O  O8  1  0.37464400  0.34971500  0.57952700  1
  O  O9  1  0.62535600  0.65028500  0.42047300  1
  O  O10  1  0.62047700  0.31266600  0.08118500  1
  O  O11  1  0.13079500  0.65203900  0.43821400  1
loop_
_geom_bond_atom_site_label_1
_geom_bond_atom_site_label_2
_geom_bond_distance
_geom_bond_site_symmetry_2
Li0 O7 2.009662 1_555
Li0 O3 2.046537 1_554
Li0 O1 2.108371 1_565
Li0 O9 2.109036 1_555
Li0 O0 2.138989 1_454
Li0 O11 2.163399 1_555
Li1 O7 2.031435 1_555
Li1 O0 2.031435 1_444
Li1 O6 2.055768 1_544
Li1 O4 2.055768 1_455
Li1 O1 2.058491 1_555
Li1 O2 2.058491 1_444
Li2 O1 2.031301 1_565
Li2 O4 2.037508 1_565
Li2 O9 2.092283 1_555
Li2 O5 2.110451 1_565
Li2 O2 2.186423 1_555
Li2 O6 2.200500 1_655
Li3 O3 2.059935 1_554
Li3 O4 2.080378 1_565
Li3 O9 2.095821 1_555
Li3 O0 2.146385 1_554
Li3 O11 2.158646 1_655
Li3 O10 2.166484 1_555
Li4 O0 2.009662 1_555
Li4 O10 2.046537 1_556
Li4 O2 2.108371 1_545
Li4 O8 2.109036 1_555
Li4 O7 2.138989 1_656
Li4 O5 2.163399 1_555
Li5 O2 2.031301 1_545
Li5 O6 2.037508 1_545
Li5 O8 2.092283 1_555
Li5 O11 2.110451 1_545
Li5 O1 2.186423 1_555
Li5 O4 2.200500 1_455
Li6 O10 2.059935 1_556
Li6 O6 2.080378 1_545
Li6 O8 2.095821 1_555
Li6 O7 2.146385 1_556
Li6 O5 2.158646 1_455
Li6 O3 2.166484 1_555
Ni0 O6 1.892674 1_555
Ni0 O0 1.905637 1_455
Ni0 O5 1.928246 1_455
Ni0 O11 1.952291 1_555
Ni0 O9 2.008700 1_455
Ni0 O3 2.022840 1_555
Ni1 O2 1.891958 1_555
Ni1 O8 1.905503 1_555
Ni1 O0 1.918601 1_555
Ni1 O11 1.973681 1_555
Ni1 O3 2.029821 1_555
Ni1 O9 2.032449 1_555
Ni2 O3 1.879885 1_544
Ni2 O10 1.879885 1_555
Ni2 O4 1.909635 1_555
Ni2 O6 1.909635 1_544
Ni2 O1 1.911496 1_555
Ni2 O2 1.911496 1_544
Ni3 O1 1.891958 1_555
Ni3 O9 1.905503 1_555
Ni3 O7 1.918601 1_555
Ni3 O5 1.973681 1_555
Ni3 O10 2.029821 1_555
Ni3 O8 2.032449 1_555
Ni4 O4 1.892674 1_555
Ni4 O7 1.905637 1_655
Ni4 O11 1.928246 1_655
Ni4 O5 1.952291 1_555
Ni4 O8 2.008700 1_655
Ni4 O10 2.022840 1_555
