# generated using pymatgen
data_LiAlFeO4
_symmetry_space_group_name_H-M   'P 1'
_cell_length_a   2.90408400
_cell_length_b   9.33088500
_cell_length_c   10.37346400
_cell_angle_alpha   90.00000000
_cell_angle_beta   90.00000000
_cell_angle_gamma   90.00000000
_symmetry_Int_Tables_number   1
_chemical_formula_structural   LiAlFeO4
_chemical_formula_sum   'Li4 Al4 Fe4 O16'
_cell_volume   281.09674400
_cell_formula_units_Z   4
loop_
 _symmetry_equiv_pos_site_id
 _symmetry_equiv_pos_as_xyz
  1  'x, y, z'
loop_
 _atom_site_type_symbol
 _atom_site_label
 _atom_site_symmetry_multiplicity
 _atom_site_fract_x
 _atom_site_fract_y
 _atom_site_fract_z
 _atom_site_occupancy
  Li  Li0  1  0.25000000  0.10124100  0.61317200  1
  Li  Li1  1  0.75000000  0.39875900  0.11317200  1
  Li  Li2  1  0.25000000  0.60124100  0.88682800  1
  Li  Li3  1  0.75000000  0.89875900  0.38682800  1
  Al  Al0  1  0.25000000  0.01092400  0.12499100  1
  Al  Al1  1  0.75000000  0.48907600  0.62499100  1
  Al  Al2  1  0.25000000  0.51092400  0.37500900  1
  Al  Al3  1  0.75000000  0.98907600  0.87500900  1
  Fe  Fe0  1  0.75000000  0.23143500  0.34055300  1
  Fe  Fe1  1  0.25000000  0.26856500  0.84055300  1
  Fe  Fe2  1  0.75000000  0.73143500  0.15944700  1
  Fe  Fe3  1  0.25000000  0.76856500  0.65944700  1
  O  O0  1  0.25000000  0.09856400  0.95755100  1
  O  O1  1  0.25000000  0.13033200  0.42576000  1
  O  O2  1  0.75000000  0.10871600  0.19310100  1
  O  O3  1  0.75000000  0.14342200  0.75373200  1
  O  O4  1  0.25000000  0.35657800  0.25373200  1
  O  O5  1  0.25000000  0.39128400  0.69310100  1
  O  O6  1  0.75000000  0.36966800  0.92576000  1
  O  O7  1  0.75000000  0.40143600  0.45755100  1
  O  O8  1  0.25000000  0.59856400  0.54244900  1
  O  O9  1  0.25000000  0.63033200  0.07424000  1
  O  O10  1  0.75000000  0.60871600  0.30689900  1
  O  O11  1  0.75000000  0.64342200  0.74626800  1
  O  O12  1  0.25000000  0.85657800  0.24626800  1
  O  O13  1  0.25000000  0.89128400  0.80689900  1
  O  O14  1  0.75000000  0.86966800  0.57424000  1
  O  O15  1  0.75000000  0.90143600  0.04244900  1
loop_
_geom_bond_atom_site_label_1
_geom_bond_atom_site_label_2
_geom_bond_distance
_geom_bond_site_symmetry_2
Li0 O1 1.962970 1_555
Li0 O3 2.095083 1_555
Li0 O3 2.095083 1_455
Li1 O6 1.962970 1_554
Li1 O4 2.095083 1_555
Li1 O4 2.095083 1_655
Li2 O9 1.962970 1_556
Li2 O11 2.095083 1_455
Li2 O11 2.095083 1_555
Li3 O14 1.962970 1_555
Li3 O12 2.095083 1_555
Li3 O12 2.095083 1_655
Al0 O2 1.854791 1_455
Al0 O2 1.854791 1_555
Al0 O12 1.912290 1_545
Al0 O0 1.919809 1_554
Al0 O15 1.971114 1_545
Al0 O15 1.971114 1_445
Al1 O5 1.854791 1_655
Al1 O5 1.854791 1_555
Al1 O11 1.912290 1_555
Al1 O7 1.919809 1_555
Al1 O8 1.971114 1_555
Al1 O8 1.971114 1_655
Al2 O10 1.854791 1_455
Al2 O10 1.854791 1_555
Al2 O4 1.912290 1_555
Al2 O8 1.919809 1_555
Al2 O7 1.971114 1_455
Al2 O7 1.971114 1_555
Al3 O13 1.854791 1_555
Al3 O13 1.854791 1_655
Al3 O3 1.912290 1_565
Al3 O15 1.919809 1_556
Al3 O0 1.971114 1_665
Al3 O0 1.971114 1_565
Fe0 O2 1.910717 1_555
Fe0 O1 1.944134 1_655
Fe0 O1 1.944134 1_555
Fe0 O7 1.997305 1_555
Fe0 O4 2.069560 1_655
Fe0 O4 2.069560 1_555
Fe1 O5 1.910717 1_555
Fe1 O6 1.944134 1_455
Fe1 O6 1.944134 1_555
Fe1 O0 1.997305 1_555
Fe1 O3 2.069560 1_455
Fe1 O3 2.069560 1_555
Fe2 O10 1.910717 1_555
Fe2 O9 1.944134 1_555
Fe2 O9 1.944134 1_655
Fe2 O15 1.997305 1_555
Fe2 O12 2.069560 1_555
Fe2 O12 2.069560 1_655
Fe3 O13 1.910717 1_555
Fe3 O14 1.944134 1_555
Fe3 O14 1.944134 1_455
Fe3 O8 1.997305 1_555
Fe3 O11 2.069560 1_555
Fe3 O11 2.069560 1_455
