# generated using pymatgen
data_ErCrHO5
_symmetry_space_group_name_H-M   'P 1'
_cell_length_a   11.59018800
_cell_length_b   8.20244400
_cell_length_c   11.27022972
_cell_angle_alpha   46.86442751
_cell_angle_beta   90.00000000
_cell_angle_gamma   90.00000000
_symmetry_Int_Tables_number   1
_chemical_formula_structural   ErCrHO5
_chemical_formula_sum   'Er8 Cr8 H8 O40'
_cell_volume   781.86799790
_cell_formula_units_Z   8
loop_
 _symmetry_equiv_pos_site_id
 _symmetry_equiv_pos_as_xyz
  1  'x, y, z'
loop_
 _atom_site_type_symbol
 _atom_site_label
 _atom_site_symmetry_multiplicity
 _atom_site_fract_x
 _atom_site_fract_y
 _atom_site_fract_z
 _atom_site_occupancy
  Er  Er0  1  0.92262500  0.76116400  0.32326900  1
  Er  Er1  1  0.57737500  0.76116400  0.82326900  1
  Er  Er2  1  0.07737500  0.23883600  0.67673100  1
  Er  Er3  1  0.42262500  0.23883600  0.17673100  1
  Er  Er4  1  0.93808900  0.28625400  0.34845500  1
  Er  Er5  1  0.56191100  0.28625400  0.84845500  1
  Er  Er6  1  0.06191100  0.71374600  0.65154500  1
  Er  Er7  1  0.43808900  0.71374600  0.15154500  1
  Cr  Cr0  1  0.67079700  0.36679600  0.50075700  1
  Cr  Cr1  1  0.82920300  0.36679600  0.00075700  1
  Cr  Cr2  1  0.32920300  0.63320400  0.49924300  1
  Cr  Cr3  1  0.17079700  0.63320400  0.99924300  1
  Cr  Cr4  1  0.81255400  0.90640400  0.95940800  1
  Cr  Cr5  1  0.68744600  0.90640400  0.45940800  1
  Cr  Cr6  1  0.18744600  0.09359600  0.04059200  1
  Cr  Cr7  1  0.31255400  0.09359600  0.54059200  1
  H  H0  1  0.10379900  0.56740900  0.32357100  1
  H  H1  1  0.39620100  0.56740900  0.82357100  1
  H  H2  1  0.89620100  0.43259100  0.67642900  1
  H  H3  1  0.60379900  0.43259100  0.17642900  1
  H  H4  1  0.92737100  0.94144900  0.69557600  1
  H  H5  1  0.57262900  0.94144900  0.19557600  1
  H  H6  1  0.07262900  0.05855100  0.30442400  1
  H  H7  1  0.42737100  0.05855100  0.80442400  1
  O  O0  1  0.80996500  0.40679700  0.43839200  1
  O  O1  1  0.69003500  0.40679700  0.93839200  1
  O  O2  1  0.19003500  0.59320300  0.56160800  1
  O  O3  1  0.30996500  0.59320300  0.06160800  1
  O  O4  1  0.66600500  0.37151700  0.64489600  1
  O  O5  1  0.83399500  0.37151700  0.14489600  1
  O  O6  1  0.33399500  0.62848300  0.35510400  1
  O  O7  1  0.16600500  0.62848300  0.85510400  1
  O  O8  1  0.62708500  0.11618500  0.58535100  1
  O  O9  1  0.87291500  0.11618500  0.08535100  1
  O  O10  1  0.37291500  0.88381500  0.41464900  1
  O  O11  1  0.12708500  0.88381500  0.91464900  1
  O  O12  1  0.58474200  0.55647200  0.34339700  1
  O  O13  1  0.91525800  0.55647200  0.84339700  1
  O  O14  1  0.41525800  0.44352800  0.65660300  1
  O  O15  1  0.08474200  0.44352800  0.15660300  1
  O  O16  1  0.88136200  0.71279600  0.13878900  1
  O  O17  1  0.61863800  0.71279600  0.63878900  1
  O  O18  1  0.11863800  0.28720400  0.86121100  1
  O  O19  1  0.38136200  0.28720400  0.36121100  1
  O  O20  1  0.70299700  0.00998300  0.98364700  1
  O  O21  1  0.79700300  0.00998300  0.48364700  1
  O  O22  1  0.29700300  0.99001700  0.01635300  1
  O  O23  1  0.20299700  0.99001700  0.51635300  1
  O  O24  1  0.75770700  0.79801000  0.88921300  1
  O  O25  1  0.74229300  0.79801000  0.38921300  1
  O  O26  1  0.24229300  0.20199000  0.11078700  1
  O  O27  1  0.25770700  0.20199000  0.61078700  1
  O  O28  1  0.90548100  0.10483300  0.82072600  1
  O  O29  1  0.59451900  0.10483300  0.32072600  1
  O  O30  1  0.09451900  0.89516700  0.17927400  1
  O  O31  1  0.40548100  0.89516700  0.67927400  1
  O  O32  1  0.04274600  0.47002800  0.40165400  1
  O  O33  1  0.45725400  0.47002800  0.90165400  1
  O  O34  1  0.95725400  0.52997200  0.59834600  1
  O  O35  1  0.54274600  0.52997200  0.09834600  1
  O  O36  1  0.99462800  0.01782000  0.62412500  1
  O  O37  1  0.50537200  0.01782000  0.12412500  1
  O  O38  1  0.00537200  0.98218000  0.37587500  1
  O  O39  1  0.49462800  0.98218000  0.87587500  1
loop_
_geom_bond_atom_site_label_1
_geom_bond_atom_site_label_2
_geom_bond_distance
_geom_bond_site_symmetry_2
Er0 O25 2.306358 1_555
Er0 O9 2.307437 1_565
Er0 O34 2.308475 1_555
Er0 O30 2.317709 1_655
Er0 O32 2.352993 1_655
Er0 O16 2.415962 1_555
Er0 O38 2.455109 1_655
Er0 O0 2.584584 1_555
Er1 O24 2.306358 1_555
Er1 O8 2.307437 1_565
Er1 O35 2.308475 1_556
Er1 O31 2.317709 1_555
Er1 O33 2.352993 1_555
Er1 O17 2.415962 1_555
Er1 O39 2.455109 1_555
Er1 O1 2.584584 1_555
Er2 O27 2.306358 1_555
Er2 O11 2.307437 1_545
Er2 O32 2.308475 1_555
Er2 O28 2.317709 1_455
Er2 O34 2.352993 1_455
Er2 O18 2.415962 1_555
Er2 O36 2.455109 1_455
Er2 O2 2.584584 1_555
Er3 O26 2.306358 1_555
Er3 O10 2.307437 1_545
Er3 O33 2.308475 1_554
Er3 O29 2.317709 1_555
Er3 O35 2.352993 1_555
Er3 O19 2.415962 1_555
Er3 O37 2.455109 1_555
Er3 O3 2.584584 1_555
Er4 O5 2.239156 1_555
Er4 O32 2.310618 1_655
Er4 O21 2.325762 1_555
Er4 O15 2.326840 1_655
Er4 O36 2.361273 1_555
Er4 O0 2.362343 1_555
Er4 O38 2.422895 1_645
Er4 O16 2.636583 1_555
Er5 O4 2.239156 1_555
Er5 O33 2.310618 1_555
Er5 O20 2.325762 1_555
Er5 O14 2.326840 1_555
Er5 O37 2.361273 1_556
Er5 O1 2.362343 1_555
Er5 O39 2.422895 1_545
Er5 O17 2.636583 1_555
Er6 O7 2.239156 1_555
Er6 O34 2.310618 1_455
Er6 O23 2.325762 1_555
Er6 O13 2.326840 1_455
Er6 O38 2.361273 1_555
Er6 O2 2.362343 1_555
Er6 O36 2.422895 1_465
Er6 O18 2.636583 1_555
Er7 O6 2.239156 1_555
Er7 O35 2.310618 1_555
Er7 O22 2.325762 1_555
Er7 O12 2.326840 1_555
Er7 O39 2.361273 1_554
Er7 O3 2.362343 1_555
Er7 O37 2.422895 1_565
Er7 O19 2.636583 1_555
Cr0 O8 1.646590 1_555
Cr0 O4 1.652132 1_555
Cr0 O12 1.669580 1_555
Cr0 O0 1.699422 1_555
Cr1 O9 1.646590 1_555
Cr1 O5 1.652132 1_555
Cr1 O13 1.669580 1_554
Cr1 O1 1.699422 1_554
Cr2 O10 1.646590 1_555
Cr2 O6 1.652132 1_555
Cr2 O14 1.669580 1_555
Cr2 O2 1.699422 1_555
Cr3 O11 1.646590 1_555
Cr3 O7 1.652132 1_555
Cr3 O15 1.669580 1_556
Cr3 O3 1.699422 1_556
Cr4 O20 1.651116 1_565
Cr4 O28 1.665333 1_565
Cr4 O24 1.668018 1_555
Cr4 O16 1.689621 1_556
Cr5 O21 1.651116 1_565
Cr5 O29 1.665333 1_565
Cr5 O25 1.668018 1_555
Cr5 O17 1.689621 1_555
Cr6 O22 1.651116 1_545
Cr6 O30 1.665333 1_545
Cr6 O26 1.668018 1_555
Cr6 O18 1.689621 1_554
Cr7 O23 1.651116 1_545
Cr7 O31 1.665333 1_545
Cr7 O27 1.668018 1_555
Cr7 O19 1.689621 1_555
H0 O32 0.975680 1_555
H1 O33 0.975680 1_555
H2 O34 0.975680 1_555
H3 O35 0.975680 1_555
H4 O36 0.979143 1_565
H5 O37 0.979143 1_565
H6 O38 0.979143 1_545
H7 O39 0.979143 1_545
