# generated using pymatgen
data_Li16V3Ga13O32
_symmetry_space_group_name_H-M   'P 1'
_cell_length_a   5.51326900
_cell_length_b   6.48001405
_cell_length_c   20.39473109
_cell_angle_alpha   89.98269080
_cell_angle_beta   89.99289517
_cell_angle_gamma   89.99317404
_symmetry_Int_Tables_number   1
_chemical_formula_structural   Li16V3Ga13O32
_chemical_formula_sum   'Li16 V3 Ga13 O32'
_cell_volume   728.62335390
_cell_formula_units_Z   1
loop_
 _symmetry_equiv_pos_site_id
 _symmetry_equiv_pos_as_xyz
  1  'x, y, z'
loop_
 _atom_site_type_symbol
 _atom_site_label
 _atom_site_symmetry_multiplicity
 _atom_site_fract_x
 _atom_site_fract_y
 _atom_site_fract_z
 _atom_site_occupancy
  Li  Li0  1  0.08380100  0.62583600  0.12591400  1
  Li  Li1  1  0.08211700  0.62443300  0.37554700  1
  Li  Li2  1  0.08054100  0.62413100  0.62593800  1
  Li  Li3  1  0.08152300  0.62508100  0.87569900  1
  Li  Li4  1  0.41928700  0.12439100  0.00074900  1
  Li  Li5  1  0.41836400  0.12507200  0.50080900  1
  Li  Li6  1  0.41649300  0.12317200  0.25095600  1
  Li  Li7  1  0.41753700  0.12436000  0.75054400  1
  Li  Li8  1  0.58139100  0.87488400  0.12587800  1
  Li  Li9  1  0.58359200  0.87413300  0.87572800  1
  Li  Li10  1  0.58294900  0.87551700  0.37548200  1
  Li  Li11  1  0.58336800  0.87672200  0.62599700  1
  Li  Li12  1  0.91954800  0.37568300  0.25091400  1
  Li  Li13  1  0.91738600  0.37541500  0.75049200  1
  Li  Li14  1  0.91668200  0.37685600  0.00084800  1
  Li  Li15  1  0.91642100  0.37402200  0.50084400  1
  V  V0  1  0.08372100  0.12782600  0.87563900  1
  V  V1  1  0.41630700  0.62782700  0.50058400  1
  V  V2  1  0.58351400  0.37239700  0.12585200  1
  Ga  Ga0  1  0.08253500  0.12310800  0.12465500  1
  Ga  Ga1  1  0.08192700  0.12629000  0.37470200  1
  Ga  Ga2  1  0.08211800  0.12620500  0.62499000  1
  Ga  Ga3  1  0.41734500  0.62713100  0.99927300  1
  Ga  Ga4  1  0.41682200  0.62853200  0.25025700  1
  Ga  Ga5  1  0.41797900  0.62637300  0.74952000  1
  Ga  Ga6  1  0.58233700  0.37285500  0.37387600  1
  Ga  Ga7  1  0.58242500  0.37715300  0.87503700  1
  Ga  Ga8  1  0.58324600  0.37136600  0.62503000  1
  Ga  Ga9  1  0.91788400  0.87377500  0.24976800  1
  Ga  Ga10  1  0.91777100  0.87299800  0.74911800  1
  Ga  Ga11  1  0.91647500  0.87117600  0.00003300  1
  Ga  Ga12  1  0.91750700  0.87701100  0.50000100  1
  O  O0  1  0.06871500  0.11170100  0.28266100  1
  O  O1  1  0.06802400  0.11123200  0.03205600  1
  O  O2  1  0.07210800  0.11286500  0.53267400  1
  O  O3  1  0.06810100  0.11096400  0.78054600  1
  O  O4  1  0.09352100  0.63815000  0.02721900  1
  O  O5  1  0.09196100  0.63883800  0.27693900  1
  O  O6  1  0.08124000  0.63832500  0.52731600  1
  O  O7  1  0.09320500  0.63840900  0.77658000  1
  O  O8  1  0.40366600  0.13099400  0.15236400  1
  O  O9  1  0.41883600  0.13830500  0.90228900  1
  O  O10  1  0.40697900  0.13857300  0.40157300  1
  O  O11  1  0.40665200  0.13794600  0.65204000  1
  O  O12  1  0.42723100  0.61873300  0.15834300  1
  O  O13  1  0.43189000  0.61083200  0.40535500  1
  O  O14  1  0.43146800  0.61142000  0.65701800  1
  O  O15  1  0.42733900  0.61371900  0.90712400  1
  O  O16  1  0.56803700  0.38914100  0.03069200  1
  O  O17  1  0.57272400  0.38143200  0.53316100  1
  O  O18  1  0.56818800  0.38844300  0.78265000  1
  O  O19  1  0.56917300  0.38755700  0.28140800  1
  O  O20  1  0.59212000  0.86132000  0.02716100  1
  O  O21  1  0.59368000  0.86221900  0.27700900  1
  O  O22  1  0.59585600  0.86887200  0.52742300  1
  O  O23  1  0.59313900  0.86100200  0.77655200  1
  O  O24  1  0.91903800  0.36136100  0.15225000  1
  O  O25  1  0.90419400  0.36900200  0.90239100  1
  O  O26  1  0.90663200  0.36117300  0.40155500  1
  O  O27  1  0.90763400  0.36124200  0.65196500  1
  O  O28  1  0.92716000  0.88132700  0.90822000  1
  O  O29  1  0.92803500  0.88739900  0.15753800  1
  O  O30  1  0.93177400  0.88836500  0.40775200  1
  O  O31  1  0.93077400  0.88740900  0.65709800  1
loop_
_geom_bond_atom_site_label_1
_geom_bond_atom_site_label_2
_geom_bond_distance
_geom_bond_site_symmetry_2
Li0 O12 2.006206 1_555
Li0 O29 2.006602 1_455
Li0 O24 2.012576 1_455
Li0 O4 2.015121 1_555
Li1 O30 2.010901 1_455
Li1 O5 2.013946 1_555
Li1 O13 2.023921 1_555
Li1 O26 2.031579 1_455
Li2 O31 1.999107 1_455
Li2 O6 2.013447 1_555
Li2 O27 2.022924 1_455
Li2 O14 2.037666 1_555
Li3 O28 1.980293 1_455
Li3 O25 2.001367 1_455
Li3 O15 2.012823 1_555
Li3 O7 2.024341 1_555
Li4 O16 1.997451 1_555
Li4 O9 2.010063 1_554
Li4 O20 2.025668 1_545
Li4 O1 2.040857 1_555
Li5 O17 1.979994 1_555
Li5 O22 2.001898 1_545
Li5 O2 2.018065 1_555
Li5 O10 2.026735 1_555
Li6 O19 2.007615 1_555
Li6 O8 2.012632 1_555
Li6 O21 2.023666 1_545
Li6 O0 2.024780 1_555
Li7 O11 2.011767 1_555
Li7 O18 2.012010 1_555
Li7 O3 2.023163 1_555
Li7 O23 2.032288 1_545
Li8 O12 1.978748 1_555
Li8 O8 2.001542 1_565
Li8 O20 2.016111 1_555
Li8 O29 2.018994 1_555
Li9 O15 1.999822 1_555
Li9 O28 2.007381 1_555
Li9 O9 2.012210 1_565
Li9 O23 2.025160 1_555
Li10 O13 2.001539 1_555
Li10 O21 2.011067 1_555
Li10 O10 2.032262 1_565
Li10 O30 2.034461 1_555
Li11 O22 2.012219 1_555
Li11 O14 2.014121 1_555
Li11 O31 2.018917 1_555
Li11 O11 2.024033 1_565
Li12 O0 2.005209 1_655
Li12 O24 2.014395 1_555
Li12 O5 2.023416 1_655
Li12 O19 2.030740 1_555
Li13 O3 2.000471 1_655
Li13 O27 2.012282 1_555
Li13 O7 2.031769 1_655
Li13 O18 2.035543 1_555
Li14 O25 2.009853 1_554
Li14 O1 2.015721 1_655
Li14 O16 2.017736 1_555
Li14 O4 2.026764 1_655
Li15 O2 2.005288 1_655
Li15 O17 2.006745 1_555
Li15 O6 2.012846 1_655
Li15 O26 2.027434 1_555
Ga0 O8 1.859264 1_555
Ga0 O29 1.872916 1_445
Ga0 O24 1.874274 1_455
Ga0 O1 1.891825 1_555
Ga1 O30 1.875153 1_445
Ga1 O10 1.875791 1_555
Ga1 O0 1.880979 1_555
Ga1 O26 1.884303 1_455
Ga2 O11 1.873988 1_555
Ga2 O31 1.875911 1_445
Ga2 O27 1.883547 1_455
Ga2 O2 1.885584 1_555
Ga3 O16 1.865043 1_556
Ga3 O4 1.875389 1_556
Ga3 O15 1.882188 1_555
Ga3 O20 1.885721 1_556
Ga4 O5 1.873014 1_555
Ga4 O12 1.876526 1_555
Ga4 O21 1.882154 1_555
Ga4 O19 1.883273 1_555
Ga5 O7 1.875242 1_555
Ga5 O18 1.875815 1_555
Ga5 O23 1.883913 1_555
Ga5 O14 1.890523 1_555
Ga6 O13 1.865042 1_555
Ga6 O26 1.876504 1_555
Ga6 O10 1.886333 1_555
Ga6 O19 1.889639 1_555
Ga7 O25 1.860456 1_555
Ga7 O15 1.873344 1_555
Ga7 O9 1.875509 1_555
Ga7 O18 1.887248 1_555
Ga8 O27 1.872104 1_555
Ga8 O17 1.875663 1_555
Ga8 O11 1.881205 1_555
Ga8 O14 1.883015 1_555
Ga9 O21 1.873209 1_555
Ga9 O0 1.876072 1_665
Ga9 O5 1.882850 1_655
Ga9 O29 1.883875 1_555
Ga10 O3 1.864573 1_665
Ga10 O23 1.876746 1_555
Ga10 O31 1.880375 1_555
Ga10 O7 1.886608 1_655
Ga11 O20 1.872914 1_555
Ga11 O28 1.874555 1_554
Ga11 O4 1.881384 1_655
Ga11 O1 1.882949 1_665
Ga12 O22 1.860129 1_555
Ga12 O2 1.872812 1_665
Ga12 O6 1.875295 1_655
Ga12 O30 1.884442 1_555
O3 V0 1.944424 1_555
O6 V1 1.927220 1_555
O8 V2 1.929321 1_555
O9 V0 1.927142 1_555
O12 V2 1.931249 1_555
O13 V1 1.947208 1_555
O16 V2 1.945642 1_555
O17 V1 1.932239 1_555
O22 V1 1.928810 1_555
O24 V2 1.927964 1_555
O25 V0 1.928672 1_655
O28 V0 1.933275 1_665
