# generated using pymatgen
data_Li4Mn(PO4)2
_symmetry_space_group_name_H-M   'P 1'
_cell_length_a   5.24513359
_cell_length_b   6.23273045
_cell_length_c   10.06696962
_cell_angle_alpha   94.25850406
_cell_angle_beta   97.87971582
_cell_angle_gamma   93.70096053
_symmetry_Int_Tables_number   1
_chemical_formula_structural   Li4Mn(PO4)2
_chemical_formula_sum   'Li8 Mn2 P4 O16'
_cell_volume   324.16537684
_cell_formula_units_Z   2
loop_
 _symmetry_equiv_pos_site_id
 _symmetry_equiv_pos_as_xyz
  1  'x, y, z'
loop_
 _atom_site_type_symbol
 _atom_site_label
 _atom_site_symmetry_multiplicity
 _atom_site_fract_x
 _atom_site_fract_y
 _atom_site_fract_z
 _atom_site_occupancy
  Li  Li0  1  0.29391200  0.51202500  0.07680800  1
  Li  Li1  1  0.29397600  0.51205500  0.57680100  1
  Li  Li2  1  0.70611800  0.48798000  0.42314800  1
  Li  Li3  1  0.70605100  0.48793900  0.92316200  1
  Li  Li4  1  0.62156700  0.20943700  0.18100600  1
  Li  Li5  1  0.62148800  0.20942700  0.68106300  1
  Li  Li6  1  0.37844900  0.79059800  0.31896000  1
  Li  Li7  1  0.37854100  0.79063200  0.81893500  1
  Mn  Mn0  1  0.99981800  0.99989300  0.50003100  1
  Mn  Mn1  1  0.00006100  0.99995900  0.00004000  1
  P  P0  1  0.81855800  0.73001700  0.18318500  1
  P  P1  1  0.81864200  0.73003500  0.68321400  1
  P  P2  1  0.18142600  0.26993900  0.31677600  1
  P  P3  1  0.18136900  0.27000300  0.81682800  1
  O  O0  1  0.69108500  0.92062100  0.11378100  1
  O  O1  1  0.69100000  0.92057900  0.61379600  1
  O  O2  1  0.30889900  0.07936800  0.38621300  1
  O  O3  1  0.30901500  0.07946400  0.88627400  1
  O  O4  1  0.67497600  0.51276800  0.12090200  1
  O  O5  1  0.67510800  0.51276200  0.62099100  1
  O  O6  1  0.32500900  0.48720300  0.37905000  1
  O  O7  1  0.32486200  0.48732700  0.87901400  1
  O  O8  1  0.20056900  0.24489500  0.16325700  1
  O  O9  1  0.20053400  0.24492800  0.66330700  1
  O  O10  1  0.79947600  0.75509800  0.33671500  1
  O  O11  1  0.79949800  0.75507100  0.83672300  1
  O  O12  1  0.10261500  0.74268400  0.15055800  1
  O  O13  1  0.10272600  0.74277200  0.65059700  1
  O  O14  1  0.89738800  0.25731000  0.34941100  1
  O  O15  1  0.89726500  0.25721000  0.84945500  1
loop_
_geom_bond_atom_site_label_1
_geom_bond_atom_site_label_2
_geom_bond_distance
_geom_bond_site_symmetry_2
Li0 O12 1.963859 1_555
Li0 O4 1.986762 1_555
Li0 O8 1.998982 1_555
Li0 O7 2.015243 1_554
Li1 O13 1.964157 1_555
Li1 O5 1.987211 1_555
Li1 O9 1.999402 1_555
Li1 O6 2.014918 1_555
Li2 O14 1.963771 1_555
Li2 O6 1.986979 1_555
Li2 O10 1.998853 1_555
Li2 O5 2.015807 1_555
Li3 O15 1.963744 1_555
Li3 O7 1.987513 1_555
Li3 O11 1.999077 1_555
Li3 O4 2.014855 1_556
Li4 O0 1.950084 1_545
Li4 O4 2.041290 1_555
Li4 O14 2.062236 1_555
Li4 O8 2.217556 1_555
Li5 O1 1.950385 1_545
Li5 O5 2.041321 1_555
Li5 O15 2.061987 1_555
Li5 O9 2.217370 1_555
Li6 O2 1.949958 1_565
Li6 O6 2.041630 1_555
Li6 O12 2.062264 1_555
Li6 O10 2.217749 1_555
Li7 O3 1.950536 1_565
Li7 O7 2.041209 1_555
Li7 O13 2.061732 1_555
Li7 O11 2.217433 1_555
Mn0 O1 2.160809 1_555
Mn0 O2 2.162490 1_665
Mn0 O10 2.254317 1_555
Mn0 O9 2.255589 1_665
Mn0 O13 2.324895 1_655
Mn0 O14 2.326181 1_565
Mn1 O0 2.161354 1_455
Mn1 O3 2.161653 1_564
Mn1 O8 2.254506 1_565
Mn1 O11 2.255041 1_454
Mn1 O12 2.324946 1_555
Mn1 O15 2.325524 1_464
O0 P0 1.563406 1_555
O1 P1 1.563530 1_555
O2 P2 1.563385 1_555
O3 P3 1.563639 1_555
O4 P0 1.551309 1_555
O5 P1 1.551171 1_555
O6 P2 1.551362 1_555
O7 P3 1.551248 1_555
O8 P2 1.559382 1_555
O9 P3 1.559432 1_555
O10 P0 1.559433 1_555
O11 P1 1.559281 1_555
O12 P0 1.567422 1_455
O13 P1 1.567528 1_455
O14 P2 1.567352 1_655
O15 P3 1.567667 1_655
