# generated using pymatgen
data_Cu(PO3)3
_symmetry_space_group_name_H-M   'P 1'
_cell_length_a   9.64124900
_cell_length_b   9.67840335
_cell_length_c   9.73900256
_cell_angle_alpha   107.83301445
_cell_angle_beta   113.02122388
_cell_angle_gamma   105.19511924
_symmetry_Int_Tables_number   1
_chemical_formula_structural   Cu(PO3)3
_chemical_formula_sum   'Cu4 P12 O36'
_cell_volume   716.59754203
_cell_formula_units_Z   4
loop_
 _symmetry_equiv_pos_site_id
 _symmetry_equiv_pos_as_xyz
  1  'x, y, z'
loop_
 _atom_site_type_symbol
 _atom_site_label
 _atom_site_symmetry_multiplicity
 _atom_site_fract_x
 _atom_site_fract_y
 _atom_site_fract_z
 _atom_site_occupancy
  Cu  Cu0  1  0.76682200  0.71702700  0.26535100  1
  Cu  Cu1  1  0.70950700  0.79166400  0.88819600  1
  Cu  Cu2  1  0.29049300  0.20833600  0.11180400  1
  Cu  Cu3  1  0.23317800  0.28297300  0.73464900  1
  P  P0  1  0.08503200  0.92310000  0.18180200  1
  P  P1  1  0.14831600  0.90236400  0.50653600  1
  P  P2  1  0.39608800  0.64429700  0.01314000  1
  P  P3  1  0.21159000  0.83956400  0.95554900  1
  P  P4  1  0.33841200  0.70435600  0.56896200  1
  P  P5  1  0.43355600  0.58988800  0.30766600  1
  P  P6  1  0.56644400  0.41011200  0.69233400  1
  P  P7  1  0.66158800  0.29564400  0.43103800  1
  P  P8  1  0.78841000  0.16043600  0.04445100  1
  P  P9  1  0.60391200  0.35570300  0.98686000  1
  P  P10  1  0.85168400  0.09763600  0.49346400  1
  P  P11  1  0.91496800  0.07690000  0.81819800  1
  O  O0  1  0.72486400  0.98891400  0.02460400  1
  O  O1  1  0.17604400  0.92563500  0.36165600  1
  O  O2  1  0.17784000  0.83500700  0.10419300  1
  O  O3  1  0.37372500  0.80049500  0.00906000  1
  O  O4  1  0.81839300  0.94157300  0.36289500  1
  O  O5  1  0.29974600  0.86156900  0.59506500  1
  O  O6  1  0.89944700  0.80803100  0.09125500  1
  O  O7  1  0.57620200  0.67982600  0.06119100  1
  O  O8  1  0.36000600  0.63807400  0.15765300  1
  O  O9  1  0.38996100  0.70278800  0.42959700  1
  O  O10  1  0.07268000  0.71891900  0.78452900  1
  O  O11  1  0.86589000  0.91208900  0.80375400  1
  O  O12  1  0.48852800  0.75191600  0.73624500  1
  O  O13  1  0.98428800  0.75883400  0.43223600  1
  O  O14  1  0.61668200  0.64694000  0.38019500  1
  O  O15  1  0.19277800  0.55711900  0.51338400  1
  O  O16  1  0.73856000  0.50127800  0.15280700  1
  O  O17  1  0.31872300  0.41672700  0.24871100  1
  O  O18  1  0.68127700  0.58327300  0.75128900  1
  O  O19  1  0.26144000  0.49872200  0.84719300  1
  O  O20  1  0.80722200  0.44288100  0.48661600  1
  O  O21  1  0.38331800  0.35306000  0.61980500  1
  O  O22  1  0.01571200  0.24116600  0.56776400  1
  O  O23  1  0.51147200  0.24808400  0.26375500  1
  O  O24  1  0.13411000  0.08791100  0.19624600  1
  O  O25  1  0.92732000  0.28108100  0.21547100  1
  O  O26  1  0.61003900  0.29721200  0.57040300  1
  O  O27  1  0.63999400  0.36192600  0.84234700  1
  O  O28  1  0.42379800  0.32017400  0.93880900  1
  O  O29  1  0.10055300  0.19196900  0.90874500  1
  O  O30  1  0.70025400  0.13843100  0.40493500  1
  O  O31  1  0.18160700  0.05842700  0.63710500  1
  O  O32  1  0.62627500  0.19950500  0.99094000  1
  O  O33  1  0.82216000  0.16499300  0.89580700  1
  O  O34  1  0.82395600  0.07436500  0.63834400  1
  O  O35  1  0.27513600  0.01108600  0.97539600  1
loop_
_geom_bond_atom_site_label_1
_geom_bond_atom_site_label_2
_geom_bond_distance
_geom_bond_site_symmetry_2
Cu0 O4 1.916323 1_555
Cu0 O13 1.920526 1_555
Cu0 O16 1.924094 1_555
Cu0 O7 1.953759 1_555
Cu0 O14 2.241144 1_555
Cu1 O0 1.891012 1_556
Cu1 O12 1.905972 1_555
Cu1 O18 1.923803 1_555
Cu1 O6 2.028057 1_556
Cu1 O11 2.223437 1_555
Cu2 O35 1.891012 1_554
Cu2 O23 1.905972 1_555
Cu2 O17 1.923803 1_555
Cu2 O29 2.028057 1_554
Cu2 O24 2.223437 1_555
Cu3 O31 1.916323 1_555
Cu3 O22 1.920526 1_555
Cu3 O19 1.924094 1_555
Cu3 O28 1.953759 1_555
Cu3 O21 2.241144 1_555
O0 P8 1.531732 1_565
O1 P1 1.603491 1_555
O1 P0 1.612113 1_555
O2 P3 1.613540 1_554
O2 P0 1.622665 1_555
O3 P2 1.591980 1_555
O3 P3 1.628340 1_554
O4 P10 1.500559 1_565
O5 P1 1.599037 1_555
O5 P4 1.628904 1_555
O6 P0 1.529447 1_655
O7 P2 1.518410 1_555
O8 P2 1.590387 1_555
O8 P5 1.623320 1_555
O9 P4 1.615047 1_555
O9 P5 1.617763 1_555
O10 P3 1.474972 1_555
O11 P11 1.484216 1_565
O12 P4 1.519210 1_555
O13 P1 1.513915 1_655
O14 P5 1.481782 1_555
O15 P4 1.476279 1_555
O16 P9 1.512566 1_554
O17 P5 1.518190 1_555
O18 P6 1.518190 1_555
O19 P2 1.512566 1_556
O20 P7 1.476279 1_555
O21 P6 1.481782 1_555
O22 P10 1.513915 1_455
O23 P7 1.519210 1_555
O24 P0 1.484216 1_545
O25 P8 1.474972 1_555
O26 P7 1.615047 1_555
O26 P6 1.617763 1_555
O27 P9 1.590387 1_555
O27 P6 1.623320 1_555
O28 P9 1.518410 1_555
O29 P11 1.529447 1_455
O30 P10 1.599037 1_555
O30 P7 1.628904 1_555
O31 P1 1.500559 1_545
O32 P9 1.591980 1_555
O32 P8 1.628340 1_556
O33 P8 1.613540 1_556
O33 P11 1.622665 1_555
O34 P10 1.603491 1_555
O34 P11 1.612113 1_555
O35 P3 1.531732 1_545
