# generated using pymatgen
data_Mn2CoO4
_symmetry_space_group_name_H-M   'P 1'
_cell_length_a   6.16440100
_cell_length_b   6.19745340
_cell_length_c   8.27075920
_cell_angle_alpha   89.91114268
_cell_angle_beta   89.58925047
_cell_angle_gamma   83.98382736
_symmetry_Int_Tables_number   1
_chemical_formula_structural   Mn2CoO4
_chemical_formula_sum   'Mn8 Co4 O16'
_cell_volume   314.22423357
_cell_formula_units_Z   4
loop_
 _symmetry_equiv_pos_site_id
 _symmetry_equiv_pos_as_xyz
  1  'x, y, z'
loop_
 _atom_site_type_symbol
 _atom_site_label
 _atom_site_symmetry_multiplicity
 _atom_site_fract_x
 _atom_site_fract_y
 _atom_site_fract_z
 _atom_site_occupancy
  Mn  Mn0  1  0.00104900  0.00559200  0.00410800  1
  Mn  Mn1  1  0.49449000  0.25068300  0.87711900  1
  Mn  Mn2  1  0.00817700  0.25641300  0.37566200  1
  Mn  Mn3  1  0.49444400  0.74445700  0.87445000  1
  Mn  Mn4  1  0.74855500  0.00078900  0.62307900  1
  Mn  Mn5  1  0.00382600  0.74889800  0.37350700  1
  Mn  Mn6  1  0.74876400  0.50152400  0.12663800  1
  Mn  Mn7  1  0.25151600  0.99925800  0.62290100  1
  Co  Co0  1  0.00142800  0.50132300  0.75146800  1
  Co  Co1  1  0.49874800  0.49855600  0.49843900  1
  Co  Co2  1  0.25067400  0.49949600  0.12667500  1
  Co  Co3  1  0.49855600  0.99568200  0.24672500  1
  O  O0  1  0.00823500  0.23412900  0.61388500  1
  O  O1  1  0.27071200  0.99066500  0.85915800  1
  O  O2  1  0.73337300  0.50940000  0.89045600  1
  O  O3  1  0.76711400  0.99202600  0.38164500  1
  O  O4  1  0.26341600  0.49168700  0.89087200  1
  O  O5  1  0.50769700  0.23515100  0.63645200  1
  O  O6  1  0.72657500  0.00685600  0.86316300  1
  O  O7  1  0.76661200  0.49008800  0.36231500  1
  O  O8  1  0.49307200  0.76380100  0.63461000  1
  O  O9  1  0.00790400  0.72753300  0.13915900  1
  O  O10  1  0.99071400  0.76695000  0.61269900  1
  O  O11  1  0.49291500  0.26508800  0.11423100  1
  O  O12  1  0.23704700  0.50872300  0.36167600  1
  O  O13  1  0.02311100  0.29207800  0.13639300  1
  O  O14  1  0.23360900  0.00903100  0.38580800  1
  O  O15  1  0.47766500  0.71412600  0.11671000  1
loop_
_geom_bond_atom_site_label_1
_geom_bond_atom_site_label_2
_geom_bond_distance
_geom_bond_site_symmetry_2
Mn0 O1 2.036812 1_544
Mn0 O9 2.049018 1_545
Mn0 O6 2.060873 1_454
Mn0 O13 2.103963 1_555
Mn1 O4 1.955774 1_555
Mn1 O11 1.963174 1_556
Mn1 O6 1.971946 1_555
Mn1 O5 1.993642 1_555
Mn1 O1 2.234141 1_545
Mn1 O2 2.291132 1_555
Mn2 O14 1.960450 1_555
Mn2 O7 1.968930 1_455
Mn2 O0 1.974906 1_555
Mn2 O13 1.993443 1_555
Mn2 O12 2.215514 1_555
Mn2 O3 2.324764 1_445
Mn3 O1 1.951192 1_555
Mn3 O2 1.965045 1_555
Mn3 O8 1.987118 1_555
Mn3 O15 2.015113 1_556
Mn3 O4 2.228202 1_555
Mn3 O6 2.277339 1_565
Mn4 O5 1.967843 1_555
Mn4 O10 1.970024 1_545
Mn4 O6 1.989470 1_555
Mn4 O3 1.999794 1_545
Mn4 O8 2.264691 1_545
Mn4 O0 2.267742 1_655
Mn5 O9 1.942761 1_555
Mn5 O12 1.960072 1_555
Mn5 O10 1.982225 1_455
Mn5 O3 1.985486 1_455
Mn5 O14 2.257670 1_565
Mn5 O7 2.283328 1_455
Mn6 O7 1.953875 1_555
Mn6 O2 1.956672 1_554
Mn6 O15 2.018823 1_555
Mn6 O13 2.023111 1_655
Mn6 O9 2.235240 1_655
Mn6 O11 2.265452 1_555
Mn7 O1 1.958755 1_555
Mn7 O14 1.965317 1_565
Mn7 O8 1.975389 1_555
Mn7 O0 1.979158 1_565
Mn7 O5 2.265102 1_565
Mn7 O10 2.269819 1_455
Co0 O4 1.986809 1_555
Co0 O10 2.001020 1_455
Co0 O2 2.002490 1_455
Co0 O0 2.007308 1_555
Co1 O12 1.972455 1_555
Co1 O5 1.986733 1_555
Co1 O7 1.988010 1_555
Co1 O8 1.991225 1_555
Co2 O12 1.945520 1_555
Co2 O9 1.949985 1_555
Co2 O4 1.951759 1_554
Co2 O11 1.973427 1_555
Co2 O13 2.000687 1_555
Co2 O15 2.030323 1_555
Co3 O14 1.985596 1_565
Co3 O11 1.993091 1_565
Co3 O3 2.001237 1_555
Co3 O15 2.067025 1_555
