# generated using pymatgen
data_Li3Cu3(PO4)2
_symmetry_space_group_name_H-M   'P 1'
_cell_length_a   6.22333400
_cell_length_b   5.14378800
_cell_length_c   5.44031498
_cell_angle_alpha   89.71147226
_cell_angle_beta   90.00000000
_cell_angle_gamma   90.00000000
_symmetry_Int_Tables_number   1
_chemical_formula_structural   Li3Cu3(PO4)2
_chemical_formula_sum   'Li3 Cu3 P2 O8'
_cell_volume   174.15049331
_cell_formula_units_Z   1
loop_
 _symmetry_equiv_pos_site_id
 _symmetry_equiv_pos_as_xyz
  1  'x, y, z'
loop_
 _atom_site_type_symbol
 _atom_site_label
 _atom_site_symmetry_multiplicity
 _atom_site_fract_x
 _atom_site_fract_y
 _atom_site_fract_z
 _atom_site_occupancy
  Li  Li0  1  0.00000000  0.49113200  0.84631700  1
  Li  Li1  1  0.74614100  0.48943100  0.32602900  1
  Li  Li2  1  0.25385900  0.48943100  0.32602900  1
  Cu  Cu0  1  0.75308600  0.01308100  0.65909800  1
  Cu  Cu1  1  0.50000000  0.00575200  0.18371700  1
  Cu  Cu2  1  0.24691400  0.01308100  0.65909800  1
  P  P0  1  0.00000000  0.99376000  0.17279400  1
  P  P1  1  0.50000000  0.49818400  0.82616800  1
  O  O0  1  0.00000000  0.88137100  0.90748500  1
  O  O1  1  0.00000000  0.29436800  0.17733900  1
  O  O2  1  0.79779300  0.87765200  0.30644600  1
  O  O3  1  0.70708200  0.40649000  0.68927000  1
  O  O4  1  0.50000000  0.80103800  0.82548800  1
  O  O5  1  0.50000000  0.40368100  0.09900600  1
  O  O6  1  0.29291800  0.40649000  0.68927000  1
  O  O7  1  0.20220700  0.87765200  0.30644600  1
loop_
_geom_bond_atom_site_label_1
_geom_bond_atom_site_label_2
_geom_bond_distance
_geom_bond_site_symmetry_2
Li0 O0 2.036356 1_555
Li0 O3 2.060664 1_455
Li0 O6 2.060664 1_555
Li0 O1 2.061341 1_556
Li1 O5 2.017899 1_555
Li1 O2 2.024908 1_555
Li1 O3 2.034149 1_555
Li1 O1 2.040879 1_655
Li2 O5 2.017899 1_555
Li2 O7 2.024908 1_555
Li2 O6 2.034149 1_555
Li2 O1 2.040879 1_555
Cu0 O3 2.051161 1_555
Cu0 O2 2.063234 1_545
Cu0 O4 2.116566 1_545
Cu0 O0 2.153374 1_645
Cu1 O7 2.076087 1_545
Cu1 O2 2.076087 1_545
Cu1 O5 2.095837 1_555
Cu1 O4 2.219824 1_544
Cu2 O6 2.051161 1_555
Cu2 O7 2.063234 1_545
Cu2 O4 2.116566 1_545
Cu2 O0 2.153374 1_545
O0 P0 1.557533 1_556
O1 P0 1.546586 1_545
O2 P0 1.569898 1_655
O3 P1 1.562539 1_555
O4 P1 1.557803 1_555
O5 P1 1.559567 1_554
O6 P1 1.562539 1_555
O7 P0 1.569898 1_555
