# generated using pymatgen
data_Li2Cr2(Si2O5)3
_symmetry_space_group_name_H-M   'P 1'
_cell_length_a   11.44334581
_cell_length_b   11.44334581
_cell_length_c   10.26334700
_cell_angle_alpha   90.00000000
_cell_angle_beta   90.00000000
_cell_angle_gamma   100.77895924
_symmetry_Int_Tables_number   1
_chemical_formula_structural   Li2Cr2(Si2O5)3
_chemical_formula_sum   'Li8 Cr8 Si24 O60'
_cell_volume   1320.27365498
_cell_formula_units_Z   4
loop_
 _symmetry_equiv_pos_site_id
 _symmetry_equiv_pos_as_xyz
  1  'x, y, z'
loop_
 _atom_site_type_symbol
 _atom_site_label
 _atom_site_symmetry_multiplicity
 _atom_site_fract_x
 _atom_site_fract_y
 _atom_site_fract_z
 _atom_site_occupancy
  Li  Li0  1  0.99957600  0.50042400  0.75000000  1
  Li  Li1  1  0.50042400  0.99957600  0.25000000  1
  Li  Li2  1  0.60059300  0.39940700  0.72628500  1
  Li  Li3  1  0.10059300  0.89940700  0.77371500  1
  Li  Li4  1  0.89940700  0.10059300  0.22628500  1
  Li  Li5  1  0.39940700  0.60059300  0.27371500  1
  Li  Li6  1  0.49957600  0.00042400  0.75000000  1
  Li  Li7  1  0.00042400  0.49957600  0.25000000  1
  Cr  Cr0  1  0.24291700  0.24291700  0.00000000  1
  Cr  Cr1  1  0.15956000  0.34044000  0.25000000  1
  Cr  Cr2  1  0.34044000  0.15956000  0.75000000  1
  Cr  Cr3  1  0.25708300  0.25708300  0.50000000  1
  Cr  Cr4  1  0.74291700  0.74291700  0.50000000  1
  Cr  Cr5  1  0.65956000  0.84044000  0.25000000  1
  Cr  Cr6  1  0.84044000  0.65956000  0.75000000  1
  Cr  Cr7  1  0.75708300  0.75708300  0.00000000  1
  Si  Si0  1  0.18661600  0.03427800  0.19234000  1
  Si  Si1  1  0.03427800  0.18661600  0.80766000  1
  Si  Si2  1  0.08350900  0.69523700  0.96288800  1
  Si  Si3  1  0.19523700  0.58350900  0.46288800  1
  Si  Si4  1  0.58350900  0.19523700  0.53711200  1
  Si  Si5  1  0.69523700  0.08350900  0.03711200  1
  Si  Si6  1  0.31338400  0.46572200  0.69234000  1
  Si  Si7  1  0.46572200  0.31338400  0.30766000  1
  Si  Si8  1  0.02025500  0.76234000  0.48928900  1
  Si  Si9  1  0.52025500  0.26234000  0.01071100  1
  Si  Si10  1  0.76234000  0.02025500  0.51071100  1
  Si  Si11  1  0.26234000  0.52025500  0.98928900  1
  Si  Si12  1  0.97974500  0.23766000  0.51071100  1
  Si  Si13  1  0.23766000  0.97974500  0.48928900  1
  Si  Si14  1  0.73766000  0.47974500  0.01071100  1
  Si  Si15  1  0.47974500  0.73766000  0.98928900  1
  Si  Si16  1  0.68661600  0.53427800  0.30766000  1
  Si  Si17  1  0.53427800  0.68661600  0.69234000  1
  Si  Si18  1  0.41649100  0.80476300  0.46288800  1
  Si  Si19  1  0.30476300  0.91649100  0.96288800  1
  Si  Si20  1  0.80476300  0.41649100  0.53711200  1
  Si  Si21  1  0.91649100  0.30476300  0.03711200  1
  Si  Si22  1  0.81338400  0.96572200  0.80766000  1
  Si  Si23  1  0.96572200  0.81338400  0.19234000  1
  O  O0  1  0.02640800  0.24759800  0.66297400  1
  O  O1  1  0.24759800  0.02640800  0.33702600  1
  O  O2  1  0.15097500  0.16057900  0.15827000  1
  O  O3  1  0.16057900  0.15097500  0.84173000  1
  O  O4  1  0.24527200  0.09212200  0.58599600  1
  O  O5  1  0.09212200  0.24527200  0.41400400  1
  O  O6  1  0.25472800  0.40787800  0.08599600  1
  O  O7  1  0.40787800  0.25472800  0.91400400  1
  O  O8  1  0.34902500  0.33942100  0.65827000  1
  O  O9  1  0.33942100  0.34902500  0.34173000  1
  O  O10  1  0.15498100  0.51693200  0.32923700  1
  O  O11  1  0.01693200  0.65498100  0.82923700  1
  O  O12  1  0.65498100  0.01693200  0.17076300  1
  O  O13  1  0.51693200  0.15498100  0.67076300  1
  O  O14  1  0.21461800  0.49609300  0.58628200  1
  O  O15  1  0.99609300  0.71461800  0.08628200  1
  O  O16  1  0.71461800  0.99609300  0.91371800  1
  O  O17  1  0.49609300  0.21461800  0.41371800  1
  O  O18  1  0.09407200  0.65593300  0.51759100  1
  O  O19  1  0.15593300  0.59407200  0.01759100  1
  O  O20  1  0.59407200  0.15593300  0.98240900  1
  O  O21  1  0.65593300  0.09407200  0.48240900  1
  O  O22  1  0.47359200  0.25240200  0.16297400  1
  O  O23  1  0.25240200  0.47359200  0.83702600  1
  O  O24  1  0.93416800  0.06583200  0.81403400  1
  O  O25  1  0.60976900  0.39023100  0.97969400  1
  O  O26  1  0.06583200  0.93416800  0.18596600  1
  O  O27  1  0.32477900  0.67522100  0.43361800  1
  O  O28  1  0.10976900  0.89023100  0.52030600  1
  O  O29  1  0.17522100  0.82477900  0.93361800  1
  O  O30  1  0.43416800  0.56583200  0.68596600  1
  O  O31  1  0.39023100  0.60976900  0.02030600  1
  O  O32  1  0.56583200  0.43416800  0.31403400  1
  O  O33  1  0.82477900  0.17522100  0.06638200  1
  O  O34  1  0.89023100  0.10976900  0.47969400  1
  O  O35  1  0.67522100  0.32477900  0.56638200  1
  O  O36  1  0.74759800  0.52640800  0.16297400  1
  O  O37  1  0.52640800  0.74759800  0.83702600  1
  O  O38  1  0.84406700  0.40592800  0.98240900  1
  O  O39  1  0.40592800  0.84406700  0.01759100  1
  O  O40  1  0.34406700  0.90592800  0.51759100  1
  O  O41  1  0.90592800  0.34406700  0.48240900  1
  O  O42  1  0.78538200  0.50390700  0.41371800  1
  O  O43  1  0.28538200  0.00390700  0.08628200  1
  O  O44  1  0.50390700  0.78538200  0.58628200  1
  O  O45  1  0.00390700  0.28538200  0.91371800  1
  O  O46  1  0.34501900  0.98306800  0.82923700  1
  O  O47  1  0.84501900  0.48306800  0.67076300  1
  O  O48  1  0.48306800  0.84501900  0.32923700  1
  O  O49  1  0.98306800  0.34501900  0.17076300  1
  O  O50  1  0.65097500  0.66057900  0.34173000  1
  O  O51  1  0.66057900  0.65097500  0.65827000  1
  O  O52  1  0.59212200  0.74527200  0.08599600  1
  O  O53  1  0.74527200  0.59212200  0.91400400  1
  O  O54  1  0.75472800  0.90787800  0.41400400  1
  O  O55  1  0.90787800  0.75472800  0.58599600  1
  O  O56  1  0.83942100  0.84902500  0.15827000  1
  O  O57  1  0.84902500  0.83942100  0.84173000  1
  O  O58  1  0.97359200  0.75240200  0.33702600  1
  O  O59  1  0.75240200  0.97359200  0.66297400  1
loop_
_geom_bond_atom_site_label_1
_geom_bond_atom_site_label_2
_geom_bond_distance
_geom_bond_site_symmetry_2
Li0 O47 1.922896 1_555
Li0 O11 1.922896 1_655
Li1 O12 1.922896 1_565
Li1 O48 1.922896 1_555
Li2 O35 2.103507 1_555
Li2 O25 2.605852 1_555
Li3 O29 2.103507 1_555
Li3 O28 2.605852 1_555
Li4 O33 2.103507 1_555
Li4 O34 2.605852 1_555
Li5 O27 2.103507 1_555
Li5 O31 2.605852 1_555
Li6 O46 1.922896 1_545
Li6 O13 1.922896 1_555
Li7 O10 1.922896 1_555
Li7 O49 1.922896 1_455
Cr0 O3 2.064596 1_554
Cr0 O2 2.064596 1_555
Cr0 O7 2.065251 1_554
Cr0 O6 2.065251 1_555
Cr1 O5 2.073756 1_555
Cr1 O6 2.073756 1_555
Cr1 O10 2.186940 1_555
Cr1 O49 2.186940 1_455
Cr1 O9 2.248688 1_555
Cr1 O2 2.248688 1_555
Cr2 O7 2.073756 1_555
Cr2 O4 2.073756 1_555
Cr2 O13 2.186940 1_555
Cr2 O46 2.186940 1_545
Cr2 O8 2.248688 1_555
Cr2 O3 2.248688 1_555
Cr3 O8 2.064596 1_555
Cr3 O9 2.064596 1_555
Cr3 O4 2.065251 1_555
Cr3 O5 2.065251 1_555
Cr4 O51 2.064596 1_555
Cr4 O50 2.064596 1_555
Cr4 O55 2.065251 1_555
Cr4 O54 2.065251 1_555
Cr5 O54 2.073756 1_555
Cr5 O52 2.073756 1_555
Cr5 O48 2.186940 1_555
Cr5 O12 2.186940 1_565
Cr5 O50 2.248688 1_555
Cr5 O56 2.248688 1_555
Cr6 O55 2.073756 1_555
Cr6 O53 2.073756 1_555
Cr6 O11 2.186940 1_655
Cr6 O47 2.186940 1_555
Cr6 O57 2.248688 1_555
Cr6 O51 2.248688 1_555
Cr7 O56 2.064596 1_555
Cr7 O57 2.064596 1_554
Cr7 O52 2.065251 1_555
Cr7 O53 2.065251 1_554
O0 Si12 1.648476 1_455
O0 Si1 1.650367 1_555
O1 Si13 1.648476 1_545
O1 Si0 1.650367 1_555
O2 Si0 1.611834 1_555
O3 Si1 1.611834 1_555
O4 Si13 1.613857 1_545
O5 Si12 1.613857 1_455
O6 Si11 1.613857 1_554
O7 Si9 1.613857 1_556
O8 Si6 1.611834 1_555
O9 Si7 1.611834 1_555
O10 Si3 1.594663 1_555
O11 Si2 1.594663 1_555
O12 Si5 1.594663 1_555
O13 Si4 1.594663 1_555
O14 Si6 1.652256 1_555
O14 Si3 1.654295 1_555
O15 Si23 1.652256 1_555
O15 Si2 1.654295 1_654
O16 Si22 1.652256 1_555
O16 Si5 1.654295 1_566
O17 Si7 1.652256 1_555
O17 Si4 1.654295 1_555
O18 Si8 1.632580 1_555
O18 Si3 1.643513 1_555
O19 Si11 1.632580 1_554
O19 Si2 1.643513 1_554
O20 Si9 1.632580 1_556
O20 Si5 1.643513 1_556
O21 Si10 1.632580 1_555
O21 Si4 1.643513 1_555
O22 Si9 1.648476 1_555
O22 Si7 1.650367 1_555
O23 Si11 1.648476 1_555
O23 Si6 1.650367 1_555
O24 Si1 1.623209 1_655
O24 Si22 1.623209 1_545
O25 Si9 1.652789 1_556
O25 Si14 1.652789 1_556
O26 Si23 1.623209 1_455
O26 Si0 1.623209 1_565
O27 Si3 1.675486 1_555
O27 Si18 1.675486 1_555
O28 Si8 1.652789 1_555
O28 Si13 1.652789 1_555
O29 Si19 1.675486 1_555
O29 Si2 1.675486 1_555
O30 Si6 1.623209 1_555
O30 Si17 1.623209 1_555
O31 Si15 1.652789 1_554
O31 Si11 1.652789 1_554
O32 Si7 1.623209 1_555
O32 Si16 1.623209 1_555
O33 Si21 1.675486 1_555
O33 Si5 1.675486 1_555
O34 Si12 1.652789 1_555
O34 Si10 1.652789 1_555
O35 Si4 1.675486 1_555
O35 Si20 1.675486 1_555
O36 Si14 1.648476 1_555
O36 Si16 1.650367 1_555
O37 Si15 1.648476 1_555
O37 Si17 1.650367 1_555
O38 Si14 1.632580 1_556
O38 Si21 1.643513 1_556
O39 Si15 1.632580 1_554
O39 Si19 1.643513 1_554
O40 Si13 1.632580 1_555
O40 Si18 1.643513 1_555
O41 Si12 1.632580 1_555
O41 Si20 1.643513 1_555
O42 Si16 1.652256 1_555
O42 Si20 1.654295 1_555
O43 Si0 1.652256 1_555
O43 Si19 1.654295 1_544
O44 Si17 1.652256 1_555
O44 Si18 1.654295 1_555
O45 Si1 1.652256 1_555
O45 Si21 1.654295 1_456
O46 Si19 1.594663 1_555
O47 Si20 1.594663 1_555
O48 Si18 1.594663 1_555
O49 Si21 1.594663 1_555
O50 Si16 1.611834 1_555
O51 Si17 1.611834 1_555
O52 Si15 1.613857 1_554
O53 Si14 1.613857 1_556
O54 Si10 1.613857 1_565
O55 Si8 1.613857 1_655
O56 Si23 1.611834 1_555
O57 Si22 1.611834 1_555
O58 Si8 1.648476 1_655
O58 Si23 1.650367 1_555
O59 Si10 1.648476 1_565
O59 Si22 1.650367 1_555
