# generated using pymatgen
data_Na4Mn2As(CO4)4
_symmetry_space_group_name_H-M   'P 1'
_cell_length_a   10.15977270
_cell_length_b   9.97882871
_cell_length_c   10.15977289
_cell_angle_alpha   59.07159399
_cell_angle_beta   89.44847140
_cell_angle_gamma   59.07159952
_symmetry_Int_Tables_number   1
_chemical_formula_structural   Na4Mn2As(CO4)4
_chemical_formula_sum   'Na8 Mn4 As2 C8 O32'
_cell_volume   711.14197275
_cell_formula_units_Z   2
loop_
 _symmetry_equiv_pos_site_id
 _symmetry_equiv_pos_as_xyz
  1  'x, y, z'
loop_
 _atom_site_type_symbol
 _atom_site_label
 _atom_site_symmetry_multiplicity
 _atom_site_fract_x
 _atom_site_fract_y
 _atom_site_fract_z
 _atom_site_occupancy
  Na  Na0  1  0.08885500  0.82229000  0.83885500  1
  Na  Na1  1  0.08455800  0.25000000  0.83455800  1
  Na  Na2  1  0.33455800  0.75000000  0.58455800  1
  Na  Na3  1  0.33885500  0.32229000  0.58885500  1
  Na  Na4  1  0.66114500  0.67771000  0.41114500  1
  Na  Na5  1  0.66544200  0.25000000  0.41544200  1
  Na  Na6  1  0.91544200  0.75000000  0.16544100  1
  Na  Na7  1  0.91114500  0.17771000  0.16114500  1
  Mn  Mn0  1  0.00000000  0.50000000  0.00000000  1
  Mn  Mn1  1  0.50000000  0.00000000  0.50000000  1
  Mn  Mn2  1  0.50000000  0.50000000  0.00000000  1
  Mn  Mn3  1  0.50000000  0.00000000  0.00000000  1
  As  As0  1  0.12500000  0.75000000  0.37500000  1
  As  As1  1  0.87500000  0.25000000  0.62500000  1
  C  C0  1  0.35994700  0.92850800  0.77672200  1
  C  C1  1  0.27672200  0.42850800  0.85994700  1
  C  C2  1  0.71154600  0.92850800  0.79477000  1
  C  C3  1  0.70523000  0.57149200  0.78845400  1
  C  C4  1  0.29477000  0.42850800  0.21154600  1
  C  C5  1  0.28845400  0.07149200  0.20523000  1
  C  C6  1  0.72327800  0.57149200  0.14005400  1
  C  C7  1  0.64005300  0.07149200  0.22327800  1
  O  O0  1  0.35380200  0.78785800  0.88857500  1
  O  O1  1  0.05693700  0.89738200  0.43772900  1
  O  O2  1  0.36923600  0.94754400  0.64090500  1
  O  O3  1  0.14090500  0.44754400  0.86923600  1
  O  O4  1  0.68321900  0.94754400  0.91155100  1
  O  O5  1  0.30011500  0.54765500  0.84920000  1
  O  O6  1  0.04568100  0.89738200  0.16488900  1
  O  O7  1  0.06227100  0.60261800  0.44306300  1
  O  O8  1  0.39685600  0.95234500  0.34777100  1
  O  O9  1  0.58844900  0.55245600  0.81678100  1
  O  O10  1  0.38857500  0.28785800  0.85380200  1
  O  O11  1  0.33511100  0.60261800  0.45431900  1
  O  O12  1  0.85834100  0.78785800  0.82356700  1
  O  O13  1  0.67643300  0.71214200  0.64165900  1
  O  O14  1  0.34920000  0.04765600  0.80011500  1
  O  O15  1  0.15222900  0.54765500  0.10314400  1
  O  O16  1  0.84777100  0.45234400  0.89685600  1
  O  O17  1  0.65080000  0.95234500  0.19988500  1
  O  O18  1  0.32356700  0.28785800  0.35834100  1
  O  O19  1  0.14165900  0.21214200  0.17643300  1
  O  O20  1  0.66488900  0.39738200  0.54568100  1
  O  O21  1  0.61142500  0.71214200  0.14619800  1
  O  O22  1  0.41155100  0.44754400  0.18322000  1
  O  O23  1  0.60314400  0.04765600  0.65222900  1
  O  O24  1  0.93772900  0.39738200  0.55693700  1
  O  O25  1  0.95431900  0.10261800  0.83511100  1
  O  O26  1  0.69988500  0.45234400  0.15080000  1
  O  O27  1  0.31678100  0.05245600  0.08844900  1
  O  O28  1  0.85909500  0.55245600  0.13076400  1
  O  O29  1  0.63076400  0.05245600  0.35909500  1
  O  O30  1  0.94306300  0.10261800  0.56227100  1
  O  O31  1  0.64619800  0.21214200  0.11142500  1
loop_
_geom_bond_atom_site_label_1
_geom_bond_atom_site_label_2
_geom_bond_distance
_geom_bond_site_symmetry_2
Na0 O30 2.378263 1_465
Na0 O25 2.378263 1_465
Na0 O15 2.406283 1_556
Na0 O5 2.406285 1_555
Na0 O12 2.552650 1_455
Na0 O0 2.552660 1_555
Na1 O25 2.430143 1_455
Na1 O24 2.430143 1_455
Na1 O3 2.493095 1_555
Na1 O27 2.493101 1_556
Na1 O16 2.560508 1_455
Na1 O14 2.560508 1_555
Na2 O11 2.430143 1_555
Na2 O1 2.430143 1_555
Na2 O2 2.493095 1_555
Na2 O9 2.493101 1_555
Na2 O5 2.560511 1_555
Na2 O8 2.560512 1_555
Na3 O11 2.378262 1_555
Na3 O7 2.378263 1_555
Na3 O14 2.406279 1_555
Na3 O23 2.406279 1_555
Na3 O18 2.552650 1_555
Na3 O10 2.552660 1_555
Na4 O20 2.378262 1_555
Na4 O24 2.378263 1_555
Na4 O8 2.406283 1_555
Na4 O17 2.406285 1_555
Na4 O13 2.552650 1_555
Na4 O21 2.552660 1_555
Na5 O20 2.430143 1_555
Na5 O30 2.430143 1_555
Na5 O29 2.493095 1_555
Na5 O22 2.493095 1_555
Na5 O23 2.560508 1_555
Na5 O26 2.560508 1_555
Na6 O6 2.430146 1_655
Na6 O7 2.430152 1_655
Na6 O28 2.493089 1_555
Na6 O4 2.493094 1_554
Na6 O15 2.560506 1_655
Na6 O17 2.560517 1_555
Na7 O1 2.378263 1_645
Na7 O6 2.378263 1_645
Na7 O16 2.406279 1_554
Na7 O26 2.406279 1_555
Na7 O19 2.552650 1_655
Na7 O31 2.552660 1_555
Mn0 O3 1.999079 1_554
Mn0 O28 1.999079 1_455
Mn0 O19 2.010693 1_555
Mn0 O12 2.010693 1_454
Mn0 O15 2.239588 1_555
Mn0 O16 2.239596 1_454
Mn1 O29 1.999079 1_555
Mn1 O2 1.999079 1_545
Mn1 O18 2.010693 1_555
Mn1 O13 2.010693 1_545
Mn1 O8 2.239588 1_545
Mn1 O23 2.239596 1_555
Mn2 O9 1.999071 1_554
Mn2 O22 1.999079 1_555
Mn2 O31 2.010693 1_555
Mn2 O0 2.010693 1_554
Mn2 O26 2.239596 1_555
Mn2 O5 2.239602 1_554
Mn3 O27 1.999071 1_555
Mn3 O4 1.999071 1_544
Mn3 O10 2.010693 1_554
Mn3 O21 2.010693 1_545
Mn3 O14 2.239596 1_554
Mn3 O17 2.239602 1_545
As0 O7 1.719562 1_555
As0 O6 1.719562 1_555
As0 O1 1.719562 1_555
As0 O11 1.719562 1_555
As1 O24 1.719562 1_555
As1 O25 1.719562 1_555
As1 O30 1.719562 1_555
As1 O20 1.719562 1_555
C0 O14 1.280060 1_565
C0 O2 1.302119 1_555
C0 O0 1.309339 1_555
C1 O5 1.280050 1_555
C1 O3 1.302119 1_555
C1 O10 1.309339 1_555
C2 O23 1.280064 1_565
C2 O4 1.302122 1_555
C2 O12 1.309339 1_555
C3 O16 1.280064 1_555
C3 O9 1.302122 1_555
C3 O13 1.309339 1_555
C4 O15 1.280065 1_555
C4 O22 1.302120 1_555
C4 O18 1.309339 1_555
C5 O8 1.280065 1_545
C5 O27 1.302122 1_555
C5 O19 1.309339 1_555
C6 O26 1.280064 1_555
C6 O28 1.302120 1_555
C6 O21 1.309333 1_555
C7 O17 1.280050 1_545
C7 O29 1.302119 1_555
C7 O31 1.309339 1_555
