# generated using pymatgen
data_K4ZnH6(S2O9)2
_symmetry_space_group_name_H-M   'P 1'
_cell_length_a   7.39828700
_cell_length_b   12.27145500
_cell_length_c   21.67202900
_cell_angle_alpha   90.00000000
_cell_angle_beta   90.00000000
_cell_angle_gamma   90.00000000
_symmetry_Int_Tables_number   1
_chemical_formula_structural   K4ZnH6(S2O9)2
_chemical_formula_sum   'K16 Zn4 H24 S16 O72'
_cell_volume   1967.55466410
_cell_formula_units_Z   4
loop_
 _symmetry_equiv_pos_site_id
 _symmetry_equiv_pos_as_xyz
  1  'x, y, z'
loop_
 _atom_site_type_symbol
 _atom_site_label
 _atom_site_symmetry_multiplicity
 _atom_site_fract_x
 _atom_site_fract_y
 _atom_site_fract_z
 _atom_site_occupancy
  K  K0  1  0.60529300  0.36496700  0.18432700  1
  K  K1  1  0.89470700  0.36496700  0.31567300  1
  K  K2  1  0.10529300  0.13503300  0.81567300  1
  K  K3  1  0.39470700  0.13503300  0.68432700  1
  K  K4  1  0.39470700  0.63503300  0.81567300  1
  K  K5  1  0.10529300  0.63503300  0.68432700  1
  K  K6  1  0.89470700  0.86496700  0.18432700  1
  K  K7  1  0.60529300  0.86496700  0.31567300  1
  K  K8  1  0.23968800  0.66243400  0.43034400  1
  K  K9  1  0.26031200  0.66243400  0.06965600  1
  K  K10  1  0.73968800  0.83756600  0.56965600  1
  K  K11  1  0.76031200  0.83756600  0.93034400  1
  K  K12  1  0.76031200  0.33756600  0.56965600  1
  K  K13  1  0.73968800  0.33756600  0.93034400  1
  K  K14  1  0.26031200  0.16243400  0.43034400  1
  K  K15  1  0.23968800  0.16243400  0.06965600  1
  Zn  Zn0  1  0.25000000  0.66281900  0.25000000  1
  Zn  Zn1  1  0.75000000  0.83718100  0.75000000  1
  Zn  Zn2  1  0.75000000  0.33718100  0.75000000  1
  Zn  Zn3  1  0.25000000  0.16281900  0.25000000  1
  H  H0  1  0.27506700  0.89701000  0.06892800  1
  H  H1  1  0.22493300  0.89701000  0.43107200  1
  H  H2  1  0.77506700  0.60299000  0.93107200  1
  H  H3  1  0.72493300  0.60299000  0.56892800  1
  H  H4  1  0.72493300  0.10299000  0.93107200  1
  H  H5  1  0.77506700  0.10299000  0.56892800  1
  H  H6  1  0.22493300  0.39701000  0.06892800  1
  H  H7  1  0.27506700  0.39701000  0.43107200  1
  H  H8  1  0.55203000  0.11139700  0.22991100  1
  H  H9  1  0.94797000  0.11139700  0.27008900  1
  H  H10  1  0.05203000  0.38860300  0.77008900  1
  H  H11  1  0.44797000  0.38860300  0.72991100  1
  H  H12  1  0.44797000  0.88860300  0.77008900  1
  H  H13  1  0.05203000  0.88860300  0.72991100  1
  H  H14  1  0.94797000  0.61139700  0.22991100  1
  H  H15  1  0.55203000  0.61139700  0.27008900  1
  H  H16  1  0.60706000  0.13811300  0.33191200  1
  H  H17  1  0.89294000  0.13811300  0.16808800  1
  H  H18  1  0.10706000  0.36188700  0.66808800  1
  H  H19  1  0.39294000  0.36188700  0.83191200  1
  H  H20  1  0.39294000  0.86188700  0.66808800  1
  H  H21  1  0.10706000  0.86188700  0.83191200  1
  H  H22  1  0.89294000  0.63811300  0.33191200  1
  H  H23  1  0.60706000  0.63811300  0.16808800  1
  S  S0  1  0.73903400  0.14319500  0.07297300  1
  S  S1  1  0.76096600  0.14319500  0.42702700  1
  S  S2  1  0.23903400  0.35680500  0.92702700  1
  S  S3  1  0.26096600  0.35680500  0.57297300  1
  S  S4  1  0.26096600  0.85680500  0.92702700  1
  S  S5  1  0.23903400  0.85680500  0.57297300  1
  S  S6  1  0.76096600  0.64319500  0.07297300  1
  S  S7  1  0.73903400  0.64319500  0.42702700  1
  S  S8  1  0.35475000  0.91624400  0.16343100  1
  S  S9  1  0.14525000  0.91624400  0.33656900  1
  S  S10  1  0.85475000  0.58375600  0.83656900  1
  S  S11  1  0.64525000  0.58375600  0.66343100  1
  S  S12  1  0.64525000  0.08375600  0.83656900  1
  S  S13  1  0.85475000  0.08375600  0.66343100  1
  S  S14  1  0.14525000  0.41624400  0.16343100  1
  S  S15  1  0.35475000  0.41624400  0.33656900  1
  O  O0  1  0.58386900  0.20141400  0.10407200  1
  O  O1  1  0.91613100  0.20141400  0.39592800  1
  O  O2  1  0.08386900  0.29858600  0.89592800  1
  O  O3  1  0.41613100  0.29858600  0.60407200  1
  O  O4  1  0.41613100  0.79858600  0.89592800  1
  O  O5  1  0.08386900  0.79858600  0.60407200  1
  O  O6  1  0.91613100  0.70141400  0.10407200  1
  O  O7  1  0.58386900  0.70141400  0.39592800  1
  O  O8  1  0.85970600  0.22513900  0.04151600  1
  O  O9  1  0.64029400  0.22513900  0.45848400  1
  O  O10  1  0.35970600  0.27486100  0.95848400  1
  O  O11  1  0.14029400  0.27486100  0.54151600  1
  O  O12  1  0.14029400  0.77486100  0.95848400  1
  O  O13  1  0.35970600  0.77486100  0.54151600  1
  O  O14  1  0.64029400  0.72513900  0.04151600  1
  O  O15  1  0.85970600  0.72513900  0.45848400  1
  O  O16  1  0.86541400  0.09145200  0.13058300  1
  O  O17  1  0.63458600  0.09145200  0.36941700  1
  O  O18  1  0.36541400  0.40854800  0.86941700  1
  O  O19  1  0.13458600  0.40854800  0.63058300  1
  O  O20  1  0.13458600  0.90854800  0.86941700  1
  O  O21  1  0.36541400  0.90854800  0.63058300  1
  O  O22  1  0.63458600  0.59145200  0.13058300  1
  O  O23  1  0.86541400  0.59145200  0.36941700  1
  O  O24  1  0.07487900  0.02079900  0.99270100  1
  O  O25  1  0.42512100  0.02079900  0.50729900  1
  O  O26  1  0.57487900  0.47920100  0.00729900  1
  O  O27  1  0.92512100  0.47920100  0.49270100  1
  O  O28  1  0.92512100  0.97920100  0.00729900  1
  O  O29  1  0.57487900  0.97920100  0.49270100  1
  O  O30  1  0.42512100  0.52079900  0.99270100  1
  O  O31  1  0.07487900  0.52079900  0.50729900  1
  O  O32  1  0.26049000  0.81184200  0.17251800  1
  O  O33  1  0.23951000  0.81184200  0.32748200  1
  O  O34  1  0.76049000  0.68815800  0.82748200  1
  O  O35  1  0.73951000  0.68815800  0.67251800  1
  O  O36  1  0.73951000  0.18815800  0.82748200  1
  O  O37  1  0.76049000  0.18815800  0.67251800  1
  O  O38  1  0.23951000  0.31184200  0.17251800  1
  O  O39  1  0.26049000  0.31184200  0.32748200  1
  O  O40  1  0.23856300  0.00963900  0.17835400  1
  O  O41  1  0.26143700  0.00963900  0.32164600  1
  O  O42  1  0.73856300  0.49036100  0.82164600  1
  O  O43  1  0.76143700  0.49036100  0.67835400  1
  O  O44  1  0.76143700  0.99036100  0.82164600  1
  O  O45  1  0.73856300  0.99036100  0.67835400  1
  O  O46  1  0.26143700  0.50963900  0.17835400  1
  O  O47  1  0.23856300  0.50963900  0.32164600  1
  O  O48  1  0.38482500  0.92311900  0.08936100  1
  O  O49  1  0.11517500  0.92311900  0.41063900  1
  O  O50  1  0.88482500  0.57688100  0.91063900  1
  O  O51  1  0.61517500  0.57688100  0.58936100  1
  O  O52  1  0.61517500  0.07688100  0.91063900  1
  O  O53  1  0.88482500  0.07688100  0.58936100  1
  O  O54  1  0.11517500  0.42311900  0.08936100  1
  O  O55  1  0.38482500  0.42311900  0.41063900  1
  O  O56  1  0.53624100  0.92227800  0.18902900  1
  O  O57  1  0.96375900  0.92227800  0.31097100  1
  O  O58  1  0.03624100  0.57772200  0.81097100  1
  O  O59  1  0.46375900  0.57772200  0.68902900  1
  O  O60  1  0.46375900  0.07772200  0.81097100  1
  O  O61  1  0.03624100  0.07772200  0.68902900  1
  O  O62  1  0.96375900  0.42227800  0.18902900  1
  O  O63  1  0.53624100  0.42227800  0.31097100  1
  O  O64  1  0.50517700  0.16898000  0.25642100  1
  O  O65  1  0.99482300  0.16898000  0.24357900  1
  O  O66  1  0.00517700  0.33102000  0.74357900  1
  O  O67  1  0.49482300  0.33102000  0.75642100  1
  O  O68  1  0.49482300  0.83102000  0.74357900  1
  O  O69  1  0.00517700  0.83102000  0.75642100  1
  O  O70  1  0.99482300  0.66898000  0.25642100  1
  O  O71  1  0.50517700  0.66898000  0.24357900  1
loop_
_geom_bond_atom_site_label_1
_geom_bond_atom_site_label_2
_geom_bond_distance
_geom_bond_site_symmetry_2
K0 O0 2.660532 1_555
K0 O62 2.745594 1_555
K0 O38 2.795325 1_555
K0 O63 2.878994 1_555
K0 O64 2.962099 1_555
K0 O22 3.021275 1_555
K0 O46 3.104872 1_555
K1 O1 2.660532 1_555
K1 O63 2.745594 1_555
K1 O39 2.795325 1_655
K1 O62 2.878994 1_555
K1 O65 2.962099 1_555
K1 O23 3.021275 1_555
K1 O47 3.104872 1_655
K2 O2 2.660532 1_555
K2 O60 2.745594 1_555
K2 O36 2.795325 1_455
K2 O61 2.878994 1_555
K2 O66 2.962099 1_555
K2 O20 3.021275 1_545
K2 O44 3.104872 1_445
K3 O3 2.660532 1_555
K3 O61 2.745594 1_555
K3 O37 2.795325 1_555
K3 O60 2.878994 1_555
K3 O67 2.962099 1_555
K3 O21 3.021275 1_545
K3 O45 3.104872 1_545
K4 O4 2.660532 1_555
K4 O58 2.745594 1_555
K4 O34 2.795325 1_555
K4 O59 2.878994 1_555
K4 O68 2.962099 1_555
K4 O18 3.021275 1_555
K4 O42 3.104872 1_555
K5 O5 2.660532 1_555
K5 O59 2.745594 1_555
K5 O35 2.795325 1_455
K5 O58 2.878994 1_555
K5 O69 2.962099 1_555
K5 O19 3.021275 1_555
K5 O43 3.104872 1_455
K6 O6 2.660532 1_555
K6 O56 2.745594 1_555
K6 O32 2.795325 1_655
K6 O57 2.878994 1_555
K6 O70 2.962099 1_555
K6 O16 3.021275 1_565
K6 O40 3.104872 1_665
K7 O7 2.660532 1_555
K7 O57 2.745594 1_555
K7 O33 2.795325 1_555
K7 O56 2.878994 1_555
K7 O71 2.962099 1_555
K7 O17 3.021275 1_565
K7 O41 3.104872 1_565
K8 O7 2.696112 1_555
K8 O31 2.699823 1_555
K8 O33 2.886349 1_555
K8 O13 2.914904 1_555
K8 O15 2.977743 1_455
K8 O47 3.010832 1_555
K8 O55 3.155915 1_555
K8 O23 3.188966 1_455
K9 O6 2.696112 1_455
K9 O30 2.699823 1_554
K9 O32 2.886349 1_555
K9 O12 2.914904 1_554
K9 O14 2.977743 1_555
K9 O46 3.010832 1_555
K9 O54 3.155915 1_555
K9 O22 3.188966 1_555
K10 O5 2.696112 1_655
K10 O29 2.699823 1_555
K10 O35 2.886349 1_555
K10 O15 2.914904 1_555
K10 O13 2.977743 1_555
K10 O45 3.010832 1_555
K10 O53 3.155915 1_565
K10 O21 3.188966 1_555
K11 O4 2.696112 1_555
K11 O28 2.699823 1_556
K11 O34 2.886349 1_555
K11 O14 2.914904 1_556
K11 O12 2.977743 1_655
K11 O44 3.010832 1_555
K11 O52 3.155915 1_565
K11 O20 3.188966 1_655
K12 O3 2.696112 1_555
K12 O27 2.699823 1_555
K12 O37 2.886349 1_555
K12 O9 2.914904 1_555
K12 O11 2.977743 1_655
K12 O43 3.010832 1_555
K12 O51 3.155915 1_555
K12 O19 3.188966 1_655
K13 O2 2.696112 1_655
K13 O26 2.699823 1_556
K13 O36 2.886349 1_555
K13 O8 2.914904 1_556
K13 O10 2.977743 1_555
K13 O42 3.010832 1_555
K13 O50 3.155915 1_555
K13 O18 3.188966 1_555
K14 O1 2.696112 1_455
K14 O25 2.699823 1_555
K14 O39 2.886349 1_555
K14 O11 2.914904 1_555
K14 O9 2.977743 1_555
K14 O41 3.010832 1_555
K14 O49 3.155915 1_545
K14 O17 3.188966 1_555
K15 O0 2.696112 1_555
K15 O24 2.699823 1_554
K15 O38 2.886349 1_555
K15 O10 2.914904 1_554
K15 O8 2.977743 1_455
K15 O40 3.010832 1_555
K15 O48 3.155915 1_545
K15 O16 3.188966 1_455
H0 O48 0.978839 1_555
H0 K9 2.880701 1_555
H1 O49 0.978839 1_555
H1 K8 2.880701 1_555
H2 O50 0.978839 1_555
H2 K11 2.880701 1_555
H3 O51 0.978839 1_555
H3 K10 2.880701 1_555
H4 O52 0.978839 1_555
H4 K13 2.880701 1_555
H5 O53 0.978839 1_555
H5 K12 2.880701 1_555
H6 O54 0.978839 1_555
H6 K15 2.880701 1_555
H7 O55 0.978839 1_555
H7 K14 2.880701 1_555
H8 O64 0.974451 1_555
H9 O65 0.974451 1_555
H10 O66 0.974451 1_555
H11 O67 0.974451 1_555
H12 O68 0.974451 1_555
H13 O69 0.974451 1_555
H14 O70 0.974451 1_555
H15 O71 0.974451 1_555
H16 O17 1.014889 1_555
H17 O16 1.014889 1_555
H18 O19 1.014889 1_555
H19 O18 1.014889 1_555
H20 O21 1.014889 1_555
H21 O20 1.014889 1_555
H22 O23 1.014889 1_555
H23 O22 1.014889 1_555
O0 S0 1.510782 1_555
O1 S1 1.510782 1_555
O2 S2 1.510782 1_555
O3 S3 1.510782 1_555
O4 S4 1.510782 1_555
O5 S5 1.510782 1_555
O6 S6 1.510782 1_555
O7 S7 1.510782 1_555
O8 S0 1.507638 1_555
O9 S1 1.507638 1_555
O10 S2 1.507638 1_555
O11 S3 1.507638 1_555
O12 S4 1.507638 1_555
O13 S5 1.507638 1_555
O14 S6 1.507638 1_555
O15 S7 1.507638 1_555
O16 S0 1.684105 1_555
O17 S1 1.684105 1_555
O18 S2 1.684105 1_555
O19 S3 1.684105 1_555
O20 S4 1.684105 1_555
O21 S5 1.684105 1_555
O22 S6 1.684105 1_555
O23 S7 1.684105 1_555
O24 O28 1.260248 1_446
O25 O29 1.260248 1_545
O26 O30 1.260248 1_554
O27 O31 1.260248 1_655
O32 S8 1.471897 1_555
O32 Zn0 2.483940 1_555
O33 S9 1.471897 1_555
O33 Zn0 2.483940 1_555
O34 S10 1.471897 1_555
O34 Zn1 2.483940 1_555
O35 S11 1.471897 1_555
O35 Zn1 2.483940 1_555
O36 S12 1.471897 1_555
O36 Zn2 2.483940 1_555
O37 S13 1.471897 1_555
O37 Zn2 2.483940 1_555
O38 S14 1.471897 1_555
O38 Zn3 2.483940 1_555
O39 S15 1.471897 1_555
O39 Zn3 2.483940 1_555
O40 S8 1.468676 1_545
O40 Zn3 2.439571 1_555
O41 S9 1.468676 1_545
O41 Zn3 2.439571 1_555
O42 S10 1.468676 1_555
O42 Zn2 2.439571 1_555
O43 S11 1.468676 1_555
O43 Zn2 2.439571 1_555
O44 S12 1.468676 1_565
O44 Zn1 2.439571 1_555
O45 S13 1.468676 1_565
O45 Zn1 2.439571 1_555
O46 S14 1.468676 1_555
O46 Zn0 2.439571 1_555
O47 S15 1.468676 1_555
O47 Zn0 2.439571 1_555
O48 S8 1.622789 1_555
O49 S9 1.622789 1_555
O50 S10 1.622789 1_555
O51 S11 1.622789 1_555
O52 S12 1.622789 1_555
O53 S13 1.622789 1_555
O54 S14 1.622789 1_555
O55 S15 1.622789 1_555
O56 S8 1.454698 1_555
O57 S9 1.454698 1_655
O58 S10 1.454698 1_455
O59 S11 1.454698 1_555
O60 S12 1.454698 1_555
O61 S13 1.454698 1_455
O62 S14 1.454698 1_655
O63 S15 1.454698 1_555
O64 Zn3 1.894504 1_555
O65 Zn3 1.894504 1_655
O66 Zn2 1.894504 1_455
O67 Zn2 1.894504 1_555
O68 Zn1 1.894504 1_555
O69 Zn1 1.894504 1_455
O70 Zn0 1.894504 1_655
O71 Zn0 1.894504 1_555
