# generated using pymatgen
data_TbHoO3
_symmetry_space_group_name_H-M   'P 1'
_cell_length_a   5.69193100
_cell_length_b   5.95207200
_cell_length_c   8.43528200
_cell_angle_alpha   90.00000000
_cell_angle_beta   90.00000000
_cell_angle_gamma   90.00000000
_symmetry_Int_Tables_number   1
_chemical_formula_structural   TbHoO3
_chemical_formula_sum   'Tb4 Ho4 O12'
_cell_volume   285.77708953
_cell_formula_units_Z   4
loop_
 _symmetry_equiv_pos_site_id
 _symmetry_equiv_pos_as_xyz
  1  'x, y, z'
loop_
 _atom_site_type_symbol
 _atom_site_label
 _atom_site_symmetry_multiplicity
 _atom_site_fract_x
 _atom_site_fract_y
 _atom_site_fract_z
 _atom_site_occupancy
  Tb  Tb0  1  0.01695000  0.94832400  0.75000000  1
  Tb  Tb1  1  0.48305000  0.44832400  0.75000000  1
  Tb  Tb2  1  0.51695000  0.55167600  0.25000000  1
  Tb  Tb3  1  0.98305000  0.05167600  0.25000000  1
  Ho  Ho0  1  0.00000000  0.50000000  0.00000000  1
  Ho  Ho1  1  0.00000000  0.50000000  0.50000000  1
  Ho  Ho2  1  0.50000000  0.00000000  0.00000000  1
  Ho  Ho3  1  0.50000000  0.00000000  0.50000000  1
  O  O0  1  0.14804300  0.42048700  0.25000000  1
  O  O1  1  0.18169300  0.18519500  0.57799600  1
  O  O2  1  0.18169300  0.18519500  0.92200400  1
  O  O3  1  0.31830700  0.68519500  0.92200400  1
  O  O4  1  0.31830700  0.68519500  0.57799600  1
  O  O5  1  0.35195700  0.92048700  0.25000000  1
  O  O6  1  0.64804300  0.07951300  0.75000000  1
  O  O7  1  0.68169300  0.31480500  0.07799600  1
  O  O8  1  0.68169300  0.31480500  0.42200400  1
  O  O9  1  0.81830700  0.81480500  0.07799600  1
  O  O10  1  0.81830700  0.81480500  0.42200400  1
  O  O11  1  0.85195700  0.57951300  0.75000000  1
loop_
_geom_bond_atom_site_label_1
_geom_bond_atom_site_label_2
_geom_bond_distance
_geom_bond_site_symmetry_2
Ho0 O3 2.220464 1_554
Ho0 O7 2.220464 1_455
Ho0 O2 2.239040 1_554
Ho0 O9 2.239040 1_455
Ho0 O11 2.319734 1_454
Ho0 O0 2.319734 1_555
Ho1 O4 2.220464 1_555
Ho1 O8 2.220464 1_455
Ho1 O1 2.239040 1_555
Ho1 O10 2.239040 1_455
Ho1 O11 2.319734 1_455
Ho1 O0 2.319734 1_555
Ho2 O2 2.220464 1_554
Ho2 O9 2.220464 1_545
Ho2 O3 2.239040 1_544
Ho2 O7 2.239040 1_555
Ho2 O5 2.319734 1_545
Ho2 O6 2.319734 1_554
Ho3 O1 2.220464 1_555
Ho3 O10 2.220464 1_545
Ho3 O4 2.239040 1_545
Ho3 O8 2.239040 1_555
Ho3 O5 2.319734 1_545
Ho3 O6 2.319734 1_555
O0 Tb2 2.240280 1_555
O0 Tb3 2.387639 1_455
O1 Tb0 2.229832 1_545
O1 Tb1 2.738658 1_555
O1 Tb3 3.092703 1_455
O2 Tb0 2.229832 1_545
O2 Tb1 2.738658 1_555
O2 Tb3 3.092703 1_456
O3 Tb1 2.229832 1_555
O3 Tb0 2.738658 1_555
O3 Tb2 3.092703 1_556
O4 Tb1 2.229832 1_555
O4 Tb0 2.738658 1_555
O4 Tb2 3.092703 1_555
O5 Tb3 2.240280 1_465
O5 Tb2 2.387639 1_555
O6 Tb0 2.240280 1_645
O6 Tb1 2.387639 1_555
O7 Tb2 2.229832 1_555
O7 Tb3 2.738658 1_555
O7 Tb1 3.092703 1_554
O8 Tb2 2.229832 1_555
O8 Tb3 2.738658 1_555
O8 Tb1 3.092703 1_555
O9 Tb3 2.229832 1_565
O9 Tb2 2.738658 1_555
O9 Tb0 3.092703 1_654
O10 Tb3 2.229832 1_565
O10 Tb2 2.738658 1_555
O10 Tb0 3.092703 1_655
O11 Tb1 2.240280 1_555
O11 Tb0 2.387639 1_655
