# generated using pymatgen
data_K9Mg3Nb5(PO5)8
_symmetry_space_group_name_H-M   'P 1'
_cell_length_a   6.86882700
_cell_length_b   7.02539158
_cell_length_c   25.24510038
_cell_angle_alpha   87.32367947
_cell_angle_beta   86.93905477
_cell_angle_gamma   89.67852370
_symmetry_Int_Tables_number   1
_chemical_formula_structural   K9Mg3Nb5(PO5)8
_chemical_formula_sum   'K9 Mg3 Nb5 P8 O40'
_cell_volume   1215.16172967
_cell_formula_units_Z   1
loop_
 _symmetry_equiv_pos_site_id
 _symmetry_equiv_pos_as_xyz
  1  'x, y, z'
loop_
 _atom_site_type_symbol
 _atom_site_label
 _atom_site_symmetry_multiplicity
 _atom_site_fract_x
 _atom_site_fract_y
 _atom_site_fract_z
 _atom_site_occupancy
  K  K0  1  0.46519100  0.16365000  0.66248200  1
  K  K1  1  0.33981500  0.00159800  0.27492400  1
  K  K2  1  0.69950400  0.26434300  0.05186900  1
  K  K3  1  0.82848400  0.38196900  0.54349900  1
  K  K4  1  0.09076600  0.42983900  0.16646500  1
  K  K5  1  0.20207700  0.65039400  0.85778100  1
  K  K6  1  0.68231200  0.65920900  0.89634600  1
  K  K7  1  0.34042800  0.72280100  0.74741500  1
  K  K8  1  0.75158900  0.77331400  0.36744500  1
  Mg  Mg0  1  0.59453600  0.29284700  0.38696800  1
  Mg  Mg1  1  0.34072100  0.64667500  0.61160300  1
  Mg  Mg2  1  0.67414100  0.81581000  0.12389600  1
  Nb  Nb0  1  0.50191300  0.20261100  0.85285700  1
  Nb  Nb1  1  0.38591300  0.70066000  0.05076500  1
  Nb  Nb2  1  0.18981700  0.39928100  0.97898700  1
  Nb  Nb3  1  0.26872600  0.51783100  0.48306100  1
  Nb  Nb4  1  0.79115400  0.48168600  0.73667000  1
  P  P0  1  0.86342900  0.98209700  0.73771500  1
  P  P1  1  0.80068200  0.97583100  0.21614600  1
  P  P2  1  0.01699900  0.09032700  0.86048200  1
  P  P3  1  0.02260100  0.14145000  0.37799400  1
  P  P4  1  0.98826000  0.97624200  0.65312200  1
  P  P5  1  0.07251500  0.93685900  0.12526700  1
  P  P6  1  0.32288600  0.97005300  0.51397900  1
  P  P7  1  0.98002900  0.93010200  0.99170900  1
  O  O0  1  0.43309900  0.26253800  0.92208500  1
  O  O1  1  0.47274400  0.95229900  0.83584300  1
  O  O2  1  0.11427300  0.94867100  0.38203900  1
  O  O3  1  0.48820200  0.05336600  0.36485600  1
  O  O4  1  0.23609900  0.15859000  0.50121100  1
  O  O5  1  0.04984000  0.13950400  0.97959000  1
  O  O6  1  0.74153400  0.16473500  0.73772800  1
  O  O7  1  0.90041800  0.16611000  0.20786900  1
  O  O8  1  0.17663100  0.23943400  0.84855200  1
  O  O9  1  0.81031300  0.17667800  0.85934400  1
  O  O10  1  0.09358800  0.29639800  0.34006600  1
  O  O11  1  0.83700800  0.16334600  0.41244200  1
  O  O12  1  0.43150800  0.55433400  0.98497300  1
  O  O13  1  0.53802800  0.41933700  0.80275500  1
  O  O14  1  0.49926000  0.42844100  0.45039600  1
  O  O15  1  0.41907600  0.52302800  0.24215900  1
  O  O16  1  0.11163600  0.43562500  0.04784200  1
  O  O17  1  0.20950500  0.52242700  0.55694200  1
  O  O18  1  0.93425300  0.82561300  0.17586200  1
  O  O19  1  0.96516600  0.45840200  0.68168400  1
  O  O20  1  0.01434200  0.52153200  0.93819900  1
  O  O21  1  0.04578500  0.49002300  0.45177500  1
  O  O22  1  0.65925700  0.46310200  0.32395200  1
  O  O23  1  0.95154000  0.52783500  0.78828100  1
  O  O24  1  0.52500200  0.51714200  0.20102000  1
  O  O25  1  0.56932200  0.58015700  0.09351900  1
  O  O26  1  0.56967100  0.48593300  0.62041000  1
  O  O27  1  0.52984900  0.53691900  0.67793000  1
  O  O28  1  0.16470700  0.84563600  0.65004800  1
  O  O29  1  0.86205200  0.02723600  0.60830600  1
  O  O30  1  0.18981300  0.74529500  0.11095500  1
  O  O31  1  0.90259800  0.94779400  0.08269900  1
  O  O32  1  0.32254800  0.81540700  0.47490600  1
  O  O33  1  0.15960600  0.80795400  0.99853600  1
  O  O34  1  0.74010600  0.80187700  0.73390200  1
  O  O35  1  0.79503900  0.88600600  0.27138400  1
  O  O36  1  0.04209500  0.97291500  0.76967400  1
  O  O37  1  0.40926800  0.92230100  0.56619900  1
  O  O38  1  0.60449800  0.96250300  0.18785800  1
  O  O39  1  0.49893200  0.93327800  0.05051300  1
loop_
_geom_bond_atom_site_label_1
_geom_bond_atom_site_label_2
_geom_bond_distance
_geom_bond_site_symmetry_2
K0 O26 2.545939 1_555
K0 O27 2.711676 1_555
K0 O6 2.756462 1_555
K0 O37 3.069625 1_545
K0 O28 3.088118 1_545
K0 O29 3.148784 1_555
K1 O3 2.579532 1_555
K1 O38 2.799277 1_545
K1 O2 3.052178 1_545
K1 O10 3.136243 1_555
K1 O35 3.223836 1_545
K2 O25 2.631168 1_555
K2 O39 2.712430 1_545
K2 O31 2.723413 1_545
K2 O16 3.077040 1_655
K2 O5 3.089706 1_654
K2 O12 3.218672 1_554
K3 O26 2.685699 1_555
K3 O21 2.765048 1_655
K3 O17 2.844919 1_655
K3 O29 2.931498 1_555
K4 O7 2.436238 1_455
K4 O30 2.638802 1_555
K4 O18 2.990627 1_455
K4 O15 3.123984 1_555
K4 O24 3.222110 1_555
K5 O20 2.483116 1_555
K5 O23 2.694699 1_455
K5 O1 2.843668 1_555
K5 O8 2.914331 1_555
K5 O13 3.117029 1_555
K6 O20 2.718540 1_655
K6 O12 2.822279 1_555
K6 O1 2.924501 1_555
K6 O13 3.169409 1_555
K7 O27 2.535034 1_555
K7 O36 2.744335 1_555
K7 O34 2.803778 1_555
K7 O13 2.868991 1_555
K7 O28 2.889736 1_555
K7 O1 2.996384 1_555
K7 O23 3.112967 1_455
K8 O35 2.518510 1_555
K8 O22 2.582781 1_555
K8 O3 2.666264 1_565
K8 O2 2.834508 1_655
K8 O11 3.085910 1_565
Mg0 O3 1.954673 1_555
Mg0 O22 1.977835 1_555
Mg0 O14 1.980723 1_555
Mg0 O11 2.014429 1_555
Mg1 O17 1.931995 1_555
Mg1 O26 1.947251 1_555
Mg1 O28 2.083234 1_555
Mg1 O37 2.242859 1_555
Mg1 O27 2.277368 1_555
Mg2 O38 1.991393 1_555
Mg2 O25 2.009536 1_555
Mg2 O31 2.038598 1_555
Mg2 O18 2.275543 1_555
Mg2 O39 2.376044 1_555
Nb0 O1 1.844119 1_545
Nb0 O0 1.852908 1_555
Nb0 O13 1.941773 1_555
Nb0 O9 2.139471 1_555
Nb0 O8 2.255588 1_555
Nb1 O39 1.812774 1_555
Nb1 O25 1.875280 1_555
Nb1 O12 2.003453 1_554
Nb1 O30 2.010657 1_555
Nb1 O33 2.199087 1_554
Nb1 O16 2.662470 1_555
Nb2 O20 1.813567 1_555
Nb2 O16 1.820800 1_556
Nb2 O12 2.006970 1_555
Nb2 O5 2.066630 1_555
Nb2 O0 2.373470 1_555
Nb3 O21 1.775930 1_555
Nb3 O14 1.865373 1_555
Nb3 O17 1.889361 1_555
Nb3 O32 2.123668 1_555
Nb3 O4 2.552874 1_555
Nb4 O23 1.792524 1_555
Nb4 O19 1.795582 1_555
Nb4 O6 2.253239 1_555
Nb4 O34 2.273108 1_555
Nb4 O13 2.372486 1_555
Nb4 O27 2.407025 1_555
O2 P3 1.491832 1_565
O4 P6 1.478335 1_545
O5 P7 1.561405 1_445
O6 P0 1.528182 1_545
O7 P1 1.506279 1_545
O8 P2 1.529207 1_555
O9 P2 1.541893 1_655
O10 P3 1.482664 1_555
O11 P3 1.515575 1_655
O15 O24 1.238010 1_555
O18 P5 1.711646 1_655
O18 P1 1.726111 1_555
O26 O27 1.522094 1_555
O28 P4 1.516894 1_455
O29 P4 1.491074 1_545
O30 P5 1.610298 1_555
O31 P5 1.627318 1_655
O31 P7 2.338850 1_554
O32 P6 1.501239 1_555
O33 P7 1.511489 1_455
O34 P0 1.536878 1_555
O35 P1 1.502216 1_555
O36 P0 1.503721 1_455
O37 P6 1.497503 1_555
O38 P1 1.563678 1_555
