# generated using pymatgen
data_NaH5CO4
_symmetry_space_group_name_H-M   'P 1'
_cell_length_a   8.14925725
_cell_length_b   8.14925725
_cell_length_c   8.82243600
_cell_angle_alpha   90.00000000
_cell_angle_beta   90.00000000
_cell_angle_gamma   127.86435416
_symmetry_Int_Tables_number   1
_chemical_formula_structural   NaH5CO4
_chemical_formula_sum   'Na4 H20 C4 O16'
_cell_volume   462.54933251
_cell_formula_units_Z   4
loop_
 _symmetry_equiv_pos_site_id
 _symmetry_equiv_pos_as_xyz
  1  'x, y, z'
loop_
 _atom_site_type_symbol
 _atom_site_label
 _atom_site_symmetry_multiplicity
 _atom_site_fract_x
 _atom_site_fract_y
 _atom_site_fract_z
 _atom_site_occupancy
  Na  Na0  1  0.25810900  0.25810900  0.50000000  1
  Na  Na1  1  0.75810900  0.75810900  0.00000000  1
  Na  Na2  1  0.74189100  0.74189100  0.50000000  1
  Na  Na3  1  0.24189100  0.24189100  0.00000000  1
  H  H0  1  0.79175800  0.52847300  0.20077700  1
  H  H1  1  0.52847300  0.79175800  0.79922300  1
  H  H2  1  0.02847300  0.29175800  0.70077700  1
  H  H3  1  0.29175800  0.02847300  0.29922300  1
  H  H4  1  0.20824200  0.47152700  0.79922300  1
  H  H5  1  0.47152700  0.20824200  0.20077700  1
  H  H6  1  0.97152700  0.70824200  0.29922300  1
  H  H7  1  0.70824200  0.97152700  0.70077700  1
  H  H8  1  0.58477400  0.41522600  0.71496500  1
  H  H9  1  0.41522600  0.58477400  0.28503500  1
  H  H10  1  0.91522600  0.08477400  0.21496500  1
  H  H11  1  0.08477400  0.91522600  0.78503500  1
  H  H12  1  0.66046800  0.33953200  0.59120700  1
  H  H13  1  0.33953200  0.66046800  0.40879300  1
  H  H14  1  0.83953200  0.16046800  0.09120700  1
  H  H15  1  0.16046800  0.83953200  0.90879300  1
  H  H16  1  0.26998300  0.73001700  0.13608500  1
  H  H17  1  0.73001700  0.26998300  0.86391500  1
  H  H18  1  0.23001700  0.76998300  0.63608500  1
  H  H19  1  0.76998300  0.23001700  0.36391500  1
  C  C0  1  0.68106500  0.31893500  0.95998300  1
  C  C1  1  0.31893500  0.68106500  0.04001700  1
  C  C2  1  0.81893500  0.18106500  0.45998300  1
  C  C3  1  0.18106500  0.81893500  0.54001700  1
  O  O0  1  0.40308500  0.59691500  0.07190200  1
  O  O1  1  0.59691500  0.40308500  0.92809800  1
  O  O2  1  0.09691500  0.90308500  0.57190200  1
  O  O3  1  0.90308500  0.09691500  0.42809800  1
  O  O4  1  0.28598500  0.71401500  0.90593100  1
  O  O5  1  0.71401500  0.28598500  0.09406900  1
  O  O6  1  0.21401500  0.78598500  0.40593100  1
  O  O7  1  0.78598500  0.21401500  0.59406900  1
  O  O8  1  0.59325300  0.40674700  0.60353300  1
  O  O9  1  0.40674700  0.59325300  0.39646700  1
  O  O10  1  0.90674700  0.09325300  0.10353300  1
  O  O11  1  0.09325300  0.90674700  0.89646700  1
  O  O12  1  0.34005700  0.15994300  0.25000000  1
  O  O13  1  0.15994300  0.34005700  0.75000000  1
  O  O14  1  0.65994300  0.84005700  0.75000000  1
  O  O15  1  0.84005700  0.65994300  0.25000000  1
loop_
_geom_bond_atom_site_label_1
_geom_bond_atom_site_label_2
_geom_bond_distance
_geom_bond_site_symmetry_2
Na0 O8 2.387405 1_555
Na0 O9 2.387405 1_555
Na0 O2 2.415162 1_545
Na0 O3 2.415162 1_455
Na0 O12 2.570308 1_555
Na0 O13 2.570308 1_555
Na1 O11 2.387405 1_654
Na1 O10 2.387405 1_565
Na1 O0 2.415162 1_555
Na1 O1 2.415162 1_554
Na1 O14 2.570308 1_554
Na1 O15 2.570308 1_555
Na2 O8 2.387405 1_555
Na2 O9 2.387405 1_555
Na2 O3 2.415162 1_565
Na2 O2 2.415162 1_655
Na2 O14 2.570308 1_555
Na2 O15 2.570308 1_555
Na3 O11 2.387405 1_544
Na3 O10 2.387405 1_455
Na3 O0 2.415162 1_555
Na3 O1 2.415162 1_554
Na3 O12 2.570308 1_555
Na3 O13 2.570308 1_554
H0 O15 0.986762 1_555
H1 O14 0.986762 1_555
H2 O13 0.986762 1_555
H3 O12 0.986762 1_555
H4 O13 0.986762 1_555
H5 O12 0.986762 1_555
H6 O15 0.986762 1_555
H7 O14 0.986762 1_555
H8 O8 0.990908 1_555
H9 O9 0.990908 1_555
H10 O10 0.990908 1_555
H11 O11 0.990908 1_555
H12 O8 0.990054 1_555
H13 O9 0.990054 1_555
H14 O10 0.990054 1_555
H15 O11 0.990054 1_555
C0 H17 1.109947 1_555
C0 O1 1.263708 1_555
C0 O5 1.277545 1_556
C1 H16 1.109947 1_555
C1 O0 1.263708 1_555
C1 O4 1.277545 1_554
C2 H19 1.109947 1_555
C2 O3 1.263708 1_555
C2 O7 1.277545 1_555
C3 H18 1.109947 1_555
C3 O2 1.263708 1_555
C3 O6 1.277545 1_555
