# generated using pymatgen
data_Li5Mn5(CoO6)2
_symmetry_space_group_name_H-M   'P 1'
_cell_length_a   5.16072932
_cell_length_b   5.16072932
_cell_length_c   9.84258444
_cell_angle_alpha   85.41838361
_cell_angle_beta   85.41838361
_cell_angle_gamma   119.12046795
_symmetry_Int_Tables_number   1
_chemical_formula_structural   Li5Mn5(CoO6)2
_chemical_formula_sum   'Li5 Mn5 Co2 O12'
_cell_volume   226.13974809
_cell_formula_units_Z   1
loop_
 _symmetry_equiv_pos_site_id
 _symmetry_equiv_pos_as_xyz
  1  'x, y, z'
loop_
 _atom_site_type_symbol
 _atom_site_label
 _atom_site_symmetry_multiplicity
 _atom_site_fract_x
 _atom_site_fract_y
 _atom_site_fract_z
 _atom_site_occupancy
  Li  Li0  1  0.67646800  0.84620800  0.74176000  1
  Li  Li1  1  0.15379200  0.32353200  0.25824000  1
  Li  Li2  1  0.83321900  0.65710900  0.25589800  1
  Li  Li3  1  0.34289100  0.16678100  0.74410200  1
  Li  Li4  1  0.08133400  0.91866600  0.50000000  1
  Mn  Mn0  1  0.48680100  0.99579400  0.25761200  1
  Mn  Mn1  1  0.00420600  0.51319900  0.74238800  1
  Mn  Mn2  1  0.92255000  0.07745000  0.00000000  1
  Mn  Mn3  1  0.41814100  0.58185900  0.50000000  1
  Mn  Mn4  1  0.58211400  0.41788600  0.00000000  1
  Co  Co0  1  0.74526100  0.25473900  0.50000000  1
  Co  Co1  1  0.25112600  0.74887400  0.00000000  1
  O  O0  1  0.75234000  0.95052900  0.38741000  1
  O  O1  1  0.54216700  0.69659600  0.11559300  1
  O  O2  1  0.83320300  0.34916900  0.12993800  1
  O  O3  1  0.36406500  0.84291200  0.62425400  1
  O  O4  1  0.97956600  0.79327900  0.86686200  1
  O  O5  1  0.69459200  0.53314500  0.61137200  1
  O  O6  1  0.30340400  0.45783300  0.88440700  1
  O  O7  1  0.04947100  0.24766000  0.61259000  1
  O  O8  1  0.65083100  0.16679700  0.87006200  1
  O  O9  1  0.15708800  0.63593500  0.37574600  1
  O  O10  1  0.46685500  0.30540800  0.38862800  1
  O  O11  1  0.20672100  0.02043400  0.13313800  1
loop_
_geom_bond_atom_site_label_1
_geom_bond_atom_site_label_2
_geom_bond_distance
_geom_bond_site_symmetry_2
Li0 O3 2.052205 1_555
Li0 O4 2.169642 1_555
Li0 O5 2.173746 1_555
Li0 O8 2.206729 1_565
Li0 O7 2.218280 1_665
Li0 O6 2.248994 1_555
Li1 O9 2.052205 1_555
Li1 O11 2.169642 1_555
Li1 O10 2.173746 1_555
Li1 O2 2.206729 1_455
Li1 O0 2.218280 1_445
Li1 O1 2.248994 1_555
Li2 O2 2.092182 1_555
Li2 O11 2.106982 1_665
Li2 O10 2.112425 1_555
Li2 O9 2.160824 1_655
Li2 O1 2.188390 1_555
Li2 O0 2.232647 1_555
Li3 O8 2.092182 1_555
Li3 O4 2.106982 1_445
Li3 O5 2.112425 1_555
Li3 O3 2.160824 1_545
Li3 O6 2.188390 1_555
Li3 O7 2.232647 1_555
Li4 O3 2.131051 1_555
Li4 O9 2.131051 1_555
Li4 O5 2.140254 1_455
Li4 O10 2.140254 1_565
Li4 O0 2.163560 1_455
Li4 O7 2.163560 1_565
Mn0 O9 1.989858 1_555
Mn0 O11 2.010794 1_565
Mn0 O0 2.026872 1_555
Mn0 O2 2.050037 1_565
Mn0 O10 2.166708 1_565
Mn0 O1 2.264990 1_555
Mn1 O3 1.989858 1_555
Mn1 O4 2.010794 1_455
Mn1 O7 2.026872 1_555
Mn1 O8 2.050037 1_455
Mn1 O5 2.166708 1_455
Mn1 O6 2.264990 1_555
Mn2 O1 2.131144 1_545
Mn2 O6 2.131144 1_654
Mn2 O11 2.149397 1_655
Mn2 O4 2.149397 1_544
Mn2 O2 2.153190 1_555
Mn2 O8 2.153190 1_554
Mn3 O10 1.963463 1_555
Mn3 O5 1.963463 1_555
Mn3 O3 1.990779 1_555
Mn3 O9 1.990779 1_555
Mn3 O0 1.996646 1_555
Mn3 O7 1.996646 1_555
Mn4 O1 1.979482 1_555
Mn4 O6 1.979482 1_554
Mn4 O2 2.019920 1_555
Mn4 O8 2.019920 1_554
Mn4 O11 2.230466 1_555
Mn4 O4 2.230466 1_554
Co0 O5 1.976317 1_555
Co0 O10 1.976317 1_555
Co0 O0 2.005347 1_545
Co0 O7 2.005347 1_655
Co0 O3 2.239143 1_545
Co0 O9 2.239143 1_655
Co1 O1 2.059502 1_555
Co1 O6 2.059502 1_554
Co1 O11 2.071661 1_565
Co1 O4 2.071661 1_454
Co1 O8 2.313033 1_564
Co1 O2 2.313033 1_455
