# generated using pymatgen
data_Bi3BO6
_symmetry_space_group_name_H-M   'P 1'
_cell_length_a   4.94767500
_cell_length_b   9.84630600
_cell_length_c   12.42981700
_cell_angle_alpha   90.00000000
_cell_angle_beta   90.00000000
_cell_angle_gamma   90.00000000
_symmetry_Int_Tables_number   1
_chemical_formula_structural   Bi3BO6
_chemical_formula_sum   'Bi12 B4 O24'
_cell_volume   605.53496785
_cell_formula_units_Z   4
loop_
 _symmetry_equiv_pos_site_id
 _symmetry_equiv_pos_as_xyz
  1  'x, y, z'
loop_
 _atom_site_type_symbol
 _atom_site_label
 _atom_site_symmetry_multiplicity
 _atom_site_fract_x
 _atom_site_fract_y
 _atom_site_fract_z
 _atom_site_occupancy
  Bi  Bi0  1  0.48882000  0.75000000  0.07627500  1
  Bi  Bi1  1  0.98571000  0.06361400  0.13726200  1
  Bi  Bi2  1  0.98571000  0.43638600  0.13726200  1
  Bi  Bi3  1  0.48571000  0.56361400  0.36273800  1
  Bi  Bi4  1  0.48571000  0.93638600  0.36273800  1
  Bi  Bi5  1  0.98882000  0.25000000  0.42372500  1
  Bi  Bi6  1  0.01118000  0.75000000  0.57627500  1
  Bi  Bi7  1  0.51429000  0.06361400  0.63726200  1
  Bi  Bi8  1  0.51429000  0.43638600  0.63726200  1
  Bi  Bi9  1  0.01429000  0.56361400  0.86273800  1
  Bi  Bi10  1  0.01429000  0.93638600  0.86273800  1
  Bi  Bi11  1  0.51118000  0.25000000  0.92372500  1
  B  B0  1  0.42674700  0.25000000  0.21758400  1
  B  B1  1  0.92674700  0.75000000  0.28241600  1
  B  B2  1  0.07325300  0.25000000  0.71758400  1
  B  B3  1  0.57325300  0.75000000  0.78241600  1
  O  O0  1  0.21482600  0.59022600  0.03548700  1
  O  O1  1  0.21482600  0.90977400  0.03548700  1
  O  O2  1  0.31226900  0.25000000  0.10073200  1
  O  O3  1  0.80235300  0.87627400  0.23296900  1
  O  O4  1  0.80235300  0.62372600  0.23296900  1
  O  O5  1  0.71865300  0.25000000  0.22671900  1
  O  O6  1  0.21865300  0.75000000  0.27328100  1
  O  O7  1  0.30235300  0.12372600  0.26703100  1
  O  O8  1  0.30235300  0.37627400  0.26703100  1
  O  O9  1  0.81226900  0.75000000  0.39926800  1
  O  O10  1  0.71482600  0.09022600  0.46451300  1
  O  O11  1  0.71482600  0.40977400  0.46451300  1
  O  O12  1  0.28517400  0.59022600  0.53548700  1
  O  O13  1  0.28517400  0.90977400  0.53548700  1
  O  O14  1  0.18773100  0.25000000  0.60073200  1
  O  O15  1  0.69764700  0.62372600  0.73296900  1
  O  O16  1  0.69764700  0.87627400  0.73296900  1
  O  O17  1  0.78134700  0.25000000  0.72671900  1
  O  O18  1  0.28134700  0.75000000  0.77328100  1
  O  O19  1  0.19764700  0.12372600  0.76703100  1
  O  O20  1  0.19764700  0.37627400  0.76703100  1
  O  O21  1  0.68773100  0.75000000  0.89926800  1
  O  O22  1  0.78517400  0.09022600  0.96451300  1
  O  O23  1  0.78517400  0.40977400  0.96451300  1
loop_
_geom_bond_atom_site_label_1
_geom_bond_atom_site_label_2
_geom_bond_distance
_geom_bond_site_symmetry_2
Bi0 O1 2.137682 1_555
Bi0 O0 2.137682 1_555
Bi0 O21 2.410243 1_554
Bi0 O4 2.783115 1_555
Bi0 O3 2.783115 1_555
Bi0 O6 2.789827 1_555
Bi1 O1 2.275929 1_645
Bi1 O7 2.325186 1_655
Bi1 O3 2.375030 1_545
Bi1 O22 2.379859 1_554
Bi1 O2 2.486904 1_655
Bi1 O5 2.519974 1_555
Bi2 O0 2.275929 1_655
Bi2 O8 2.325186 1_655
Bi2 O4 2.375030 1_555
Bi2 O23 2.379859 1_554
Bi2 O2 2.486904 1_655
Bi2 O5 2.519974 1_555
Bi3 O11 2.275929 1_555
Bi3 O4 2.325186 1_555
Bi3 O8 2.375030 1_555
Bi3 O12 2.379859 1_555
Bi3 O9 2.486904 1_555
Bi3 O6 2.519974 1_555
Bi4 O10 2.275929 1_565
Bi4 O3 2.325186 1_555
Bi4 O7 2.375030 1_565
Bi4 O13 2.379859 1_555
Bi4 O9 2.486904 1_555
Bi4 O6 2.519974 1_555
Bi5 O11 2.137682 1_555
Bi5 O10 2.137682 1_555
Bi5 O14 2.410243 1_655
Bi5 O8 2.783115 1_655
Bi5 O7 2.783115 1_655
Bi5 O5 2.789827 1_555
Bi6 O12 2.137682 1_555
Bi6 O13 2.137682 1_555
Bi6 O9 2.410243 1_455
Bi6 O16 2.783115 1_455
Bi6 O15 2.783115 1_455
Bi6 O18 2.789827 1_555
Bi7 O13 2.275929 1_545
Bi7 O19 2.325186 1_555
Bi7 O16 2.375030 1_545
Bi7 O10 2.379859 1_555
Bi7 O14 2.486904 1_555
Bi7 O17 2.519974 1_555
Bi8 O12 2.275929 1_555
Bi8 O20 2.325186 1_555
Bi8 O15 2.375030 1_555
Bi8 O11 2.379859 1_555
Bi8 O14 2.486904 1_555
Bi8 O17 2.519974 1_555
Bi9 O23 2.275929 1_455
Bi9 O15 2.325186 1_455
Bi9 O20 2.375030 1_555
Bi9 O0 2.379859 1_556
Bi9 O21 2.486904 1_455
Bi9 O18 2.519974 1_555
Bi10 O22 2.275929 1_465
Bi10 O16 2.325186 1_455
Bi10 O19 2.375030 1_565
Bi10 O1 2.379859 1_556
Bi10 O21 2.486904 1_455
Bi10 O18 2.519974 1_555
Bi11 O23 2.137682 1_555
Bi11 O22 2.137682 1_555
Bi11 O2 2.410243 1_556
Bi11 O20 2.783115 1_555
Bi11 O19 2.783115 1_555
Bi11 O17 2.789827 1_555
B0 O5 1.448713 1_555
B0 O8 1.517373 1_555
B0 O7 1.517373 1_555
B0 O2 1.558979 1_555
B1 O6 1.448713 1_655
B1 O3 1.517373 1_555
B1 O4 1.517373 1_555
B1 O9 1.558979 1_555
B2 O17 1.448713 1_455
B2 O20 1.517373 1_555
B2 O19 1.517373 1_555
B2 O14 1.558979 1_555
B3 O18 1.448713 1_555
B3 O15 1.517373 1_555
B3 O16 1.517373 1_555
B3 O21 1.558979 1_555
