# generated using pymatgen
data_Fe6O7F6
_symmetry_space_group_name_H-M   'P 1'
_cell_length_a   7.86959773
_cell_length_b   7.86959773
_cell_length_c   9.48645643
_cell_angle_alpha   80.29112394
_cell_angle_beta   80.29112394
_cell_angle_gamma   28.14595198
_symmetry_Int_Tables_number   1
_chemical_formula_structural   Fe6O7F6
_chemical_formula_sum   'Fe6 O7 F6'
_cell_volume   272.91512548
_cell_formula_units_Z   1
loop_
 _symmetry_equiv_pos_site_id
 _symmetry_equiv_pos_as_xyz
  1  'x, y, z'
loop_
 _atom_site_type_symbol
 _atom_site_label
 _atom_site_symmetry_multiplicity
 _atom_site_fract_x
 _atom_site_fract_y
 _atom_site_fract_z
 _atom_site_occupancy
  Fe  Fe0  1  0.11197700  0.11197700  0.90429400  1
  Fe  Fe1  1  0.17323300  0.17323300  0.56757900  1
  Fe  Fe2  1  0.23820900  0.23820900  0.23273800  1
  Fe  Fe3  1  0.76179100  0.76179100  0.76726200  1
  Fe  Fe4  1  0.82676700  0.82676700  0.43242100  1
  Fe  Fe5  1  0.88802300  0.88802300  0.09570600  1
  O  O0  1  0.00000000  0.00000000  0.00000000  1
  O  O1  1  0.35888600  0.35888600  0.11445000  1
  O  O2  1  0.23197700  0.23197700  0.76371300  1
  O  O3  1  0.29353600  0.29353600  0.42306700  1
  O  O4  1  0.70646400  0.70646400  0.57693300  1
  O  O5  1  0.76802300  0.76802300  0.23628700  1
  O  O6  1  0.64111400  0.64111400  0.88555000  1
  F  F0  1  0.16720500  0.16720500  0.08538700  1
  F  F1  1  0.06784500  0.06784500  0.70920100  1
  F  F2  1  0.12840000  0.12840000  0.38573400  1
  F  F3  1  0.87160000  0.87160000  0.61426600  1
  F  F4  1  0.93215500  0.93215500  0.29079900  1
  F  F5  1  0.83279500  0.83279500  0.91461300  1
loop_
_geom_bond_atom_site_label_1
_geom_bond_atom_site_label_2
_geom_bond_distance
_geom_bond_site_symmetry_2
Fe0 O0 1.790839 1_556
Fe0 O6 1.965622 1_455
Fe0 O6 1.965622 1_545
Fe0 O2 2.070088 1_555
Fe1 O4 1.985597 1_455
Fe1 O4 1.985597 1_545
Fe1 O3 2.092159 1_555
Fe1 O2 2.201462 1_555
Fe2 O5 1.968583 1_455
Fe2 O5 1.968583 1_545
Fe2 O1 1.983579 1_555
Fe2 O3 2.122208 1_555
Fe3 O2 1.968583 1_565
Fe3 O2 1.968583 1_655
Fe3 O6 1.983579 1_555
Fe3 O4 2.122208 1_555
Fe4 O3 1.985597 1_655
Fe4 O3 1.985597 1_565
Fe4 O4 2.092159 1_555
Fe4 O5 2.201462 1_555
Fe5 O0 1.790839 1_665
Fe5 O1 1.965622 1_655
Fe5 O1 1.965622 1_565
Fe5 O5 2.070088 1_555
F0 Fe2 1.912043 1_555
F0 Fe0 2.041045 1_554
F1 Fe1 1.908408 1_555
F1 Fe0 2.076723 1_555
F2 Fe1 1.963388 1_555
F2 Fe2 2.017648 1_555
F3 Fe4 1.963388 1_555
F3 Fe3 2.017648 1_555
F4 Fe4 1.908408 1_555
F4 Fe5 2.076723 1_555
F5 Fe3 1.912043 1_555
F5 Fe5 2.041045 1_556
