# generated using pymatgen
data_LiFe2(BO3)2
_symmetry_space_group_name_H-M   'P 1'
_cell_length_a   5.20812000
_cell_length_b   9.11939472
_cell_length_c   11.41725315
_cell_angle_alpha   112.96744782
_cell_angle_beta   102.53233968
_cell_angle_gamma   89.75892637
_symmetry_Int_Tables_number   1
_chemical_formula_structural   LiFe2(BO3)2
_chemical_formula_sum   'Li4 Fe8 B8 O24'
_cell_volume   485.42157651
_cell_formula_units_Z   4
loop_
 _symmetry_equiv_pos_site_id
 _symmetry_equiv_pos_as_xyz
  1  'x, y, z'
loop_
 _atom_site_type_symbol
 _atom_site_label
 _atom_site_symmetry_multiplicity
 _atom_site_fract_x
 _atom_site_fract_y
 _atom_site_fract_z
 _atom_site_occupancy
  Li  Li0  1  0.02655800  0.02845200  0.38715500  1
  Li  Li1  1  0.29671100  0.27465900  0.91745500  1
  Li  Li2  1  0.97868000  0.00121500  0.65920000  1
  Li  Li3  1  0.74231900  0.74146500  0.13695500  1
  Fe  Fe0  1  0.01587500  0.35779000  0.37353600  1
  Fe  Fe1  1  0.25729600  0.92904100  0.88402800  1
  Fe  Fe2  1  0.46704900  0.16062600  0.62376200  1
  Fe  Fe3  1  0.24099600  0.56441700  0.14476700  1
  Fe  Fe4  1  0.77265700  0.44212700  0.86916500  1
  Fe  Fe5  1  0.52959900  0.84563600  0.38789600  1
  Fe  Fe6  1  0.98249500  0.64622400  0.63278800  1
  Fe  Fe7  1  0.74718900  0.06891900  0.12390300  1
  B  B0  1  0.02959900  0.68726000  0.38140900  1
  B  B1  1  0.27451400  0.59474000  0.87819500  1
  B  B2  1  0.48646600  0.81940100  0.63431500  1
  B  B3  1  0.23740000  0.88876100  0.13267500  1
  B  B4  1  0.51316900  0.18535500  0.37415900  1
  B  B5  1  0.76642600  0.11568900  0.87691100  1
  B  B6  1  0.96291900  0.30953500  0.61823600  1
  B  B7  1  0.73471400  0.40592800  0.12942500  1
  O  O0  1  0.02007400  0.10083800  0.85729800  1
  O  O1  1  0.12643400  0.68722200  0.82313000  1
  O  O2  1  0.15192700  0.49321200  0.92143000  1
  O  O3  1  0.07914100  0.16943400  0.60290700  1
  O  O4  1  0.04847200  0.41733400  0.57292300  1
  O  O5  1  0.23202100  0.83043300  0.66090600  1
  O  O6  1  0.25655800  0.65337800  0.33297400  1
  O  O7  1  0.54192000  0.60133500  0.89693500  1
  O  O8  1  0.61778300  0.23493500  0.84810700  1
  O  O9  1  0.42643000  0.07271600  0.41542100  1
  O  O10  1  0.36072600  0.30350600  0.36590300  1
  O  O11  1  0.64668300  0.02379400  0.92299700  1
  O  O12  1  0.35804100  0.97774400  0.08402100  1
  O  O13  1  0.63709900  0.70029800  0.64236500  1
  O  O14  1  0.58091900  0.93432400  0.59695100  1
  O  O15  1  0.38618800  0.77159500  0.16530400  1
  O  O16  1  0.46575400  0.39904400  0.10929100  1
  O  O17  1  0.75290500  0.34480600  0.67898200  1
  O  O18  1  0.76432600  0.17474000  0.34417700  1
  O  O19  1  0.94252900  0.58554800  0.43206900  1
  O  O20  1  0.89980000  0.81555200  0.37477000  1
  O  O21  1  0.85987700  0.51189300  0.09170900  1
  O  O22  1  0.88156700  0.31062900  0.18093400  1
  O  O23  1  0.98586100  0.90412100  0.15104800  1
loop_
_geom_bond_atom_site_label_1
_geom_bond_atom_site_label_2
_geom_bond_distance
_geom_bond_site_symmetry_2
Li0 O20 1.995329 1_445
Li0 O18 2.022480 1_455
Li0 O9 2.053770 1_555
Li0 O3 2.243748 1_555
Li0 O23 2.442541 1_445
Li1 O0 1.949439 1_555
Li1 O8 1.974830 1_555
Li1 O16 2.022771 1_556
Li1 O2 2.115325 1_555
Li2 O3 1.990553 1_655
Li2 O5 2.040120 1_645
Li2 O0 2.042975 1_655
Li2 O14 2.049886 1_545
Li3 O23 1.891023 1_555
Li3 O15 1.951225 1_555
Li3 O21 2.075369 1_555
Li3 O20 2.471439 1_555
Li3 O7 2.503796 1_554
Fe0 O10 1.872202 1_555
Fe0 O19 1.981762 1_455
Fe0 O18 2.001608 1_455
Fe0 O22 2.026504 1_455
Fe0 O4 2.091476 1_555
Fe1 O0 2.065736 1_565
Fe1 O12 2.092108 1_556
Fe1 O11 2.092946 1_565
Fe1 O1 2.102719 1_555
Fe1 O5 2.320158 1_555
Fe2 O3 1.987320 1_555
Fe2 O17 2.054826 1_555
Fe2 O14 2.068791 1_545
Fe2 O9 2.154160 1_555
Fe2 O8 2.326696 1_555
Fe3 O16 1.876926 1_555
Fe3 O15 1.945695 1_555
Fe3 O21 1.948334 1_455
Fe3 O6 1.961275 1_555
Fe3 O2 2.309939 1_554
Fe4 O7 1.855802 1_555
Fe4 O2 1.937554 1_655
Fe4 O8 1.962813 1_555
Fe4 O17 1.978124 1_555
Fe4 O21 2.303684 1_556
Fe5 O20 1.975846 1_555
Fe5 O9 2.057147 1_565
Fe5 O6 2.065274 1_555
Fe5 O14 2.154290 1_555
Fe5 O15 2.305154 1_555
Fe6 O13 1.877992 1_555
Fe6 O4 1.981085 1_655
Fe6 O5 2.007571 1_655
Fe6 O1 2.021322 1_655
Fe6 O19 2.098943 1_555
Fe7 O23 2.019987 1_545
Fe7 O12 2.079545 1_545
Fe7 O11 2.109246 1_554
Fe7 O22 2.113670 1_555
Fe7 O18 2.296378 1_555
B0 O20 1.368145 1_455
B0 O19 1.391614 1_455
B0 O6 1.394892 1_555
B1 O7 1.360260 1_555
B1 O1 1.378123 1_555
B1 O2 1.416667 1_555
B2 O13 1.357597 1_555
B2 O14 1.402374 1_555
B2 O5 1.417052 1_555
B3 O12 1.367254 1_555
B3 O23 1.369171 1_455
B3 O15 1.435029 1_555
B4 O10 1.356372 1_555
B4 O9 1.398236 1_555
B4 O18 1.415964 1_555
B5 O11 1.363452 1_555
B5 O0 1.384488 1_655
B5 O8 1.432317 1_555
B6 O3 1.376347 1_655
B6 O17 1.390317 1_555
B6 O4 1.390406 1_655
B7 O16 1.367001 1_555
B7 O22 1.372649 1_555
B7 O21 1.412808 1_555
