# generated using pymatgen
data_Li4V3P8O29
_symmetry_space_group_name_H-M   'P 1'
_cell_length_a   9.78250464
_cell_length_b   9.78250464
_cell_length_c   13.97720126
_cell_angle_alpha   89.65000174
_cell_angle_beta   89.65000174
_cell_angle_gamma   60.15796201
_symmetry_Int_Tables_number   1
_chemical_formula_structural   Li4V3P8O29
_chemical_formula_sum   'Li8 V6 P16 O58'
_cell_volume   1160.19031528
_cell_formula_units_Z   2
loop_
 _symmetry_equiv_pos_site_id
 _symmetry_equiv_pos_as_xyz
  1  'x, y, z'
loop_
 _atom_site_type_symbol
 _atom_site_label
 _atom_site_symmetry_multiplicity
 _atom_site_fract_x
 _atom_site_fract_y
 _atom_site_fract_z
 _atom_site_occupancy
  Li  Li0  1  0.32353700  0.90711500  0.56082400  1
  Li  Li1  1  0.90711500  0.32353700  0.06082400  1
  Li  Li2  1  0.77442100  0.90252900  0.05922400  1
  Li  Li3  1  0.08695800  0.23125400  0.43921400  1
  Li  Li4  1  0.90252900  0.77442100  0.55922400  1
  Li  Li5  1  0.23125400  0.08695800  0.93921400  1
  Li  Li6  1  0.22841200  0.67497200  0.43865900  1
  Li  Li7  1  0.67497200  0.22841200  0.93865900  1
  V  V0  1  0.99942000  0.43331400  0.24879600  1
  V  V1  1  0.00582400  0.56550500  0.75604800  1
  V  V2  1  0.43331400  0.99942000  0.74879600  1
  V  V3  1  0.56550500  0.00582400  0.25604800  1
  V  V4  1  0.43704700  0.56755700  0.24501300  1
  V  V5  1  0.56755700  0.43704700  0.74501300  1
  P  P0  1  0.31406100  0.76953200  0.84489700  1
  P  P1  1  0.31694300  0.91209600  0.34042700  1
  P  P2  1  0.76953200  0.31406100  0.34489700  1
  P  P3  1  0.66912200  0.66894400  0.12766800  1
  P  P4  1  0.66894400  0.66912200  0.62766800  1
  P  P5  1  0.91209600  0.31694300  0.84042700  1
  P  P6  1  0.08721300  0.23233900  0.65609100  1
  P  P7  1  0.76806500  0.91283700  0.84211200  1
  P  P8  1  0.23233900  0.08721300  0.15609100  1
  P  P9  1  0.91283700  0.76806500  0.34211200  1
  P  P10  1  0.08723100  0.68444300  0.15826100  1
  P  P11  1  0.32949300  0.33679500  0.37327500  1
  P  P12  1  0.33679500  0.32949300  0.87327500  1
  P  P13  1  0.22976300  0.68411200  0.65848100  1
  P  P14  1  0.68444300  0.08723100  0.65826100  1
  P  P15  1  0.68411200  0.22976300  0.15848100  1
  O  O0  1  0.24265700  0.75680200  0.56661700  1
  O  O1  1  0.33769100  0.74442500  0.34001900  1
  O  O2  1  0.24248200  0.00507900  0.06569600  1
  O  O3  1  0.33916000  0.91502300  0.83765400  1
  O  O4  1  0.47505000  0.61695100  0.82059800  1
  O  O5  1  0.51807700  0.66826100  0.17402400  1
  O  O6  1  0.61695100  0.47505000  0.32059800  1
  O  O7  1  0.75680200  0.24265700  0.06661700  1
  O  O8  1  0.74442500  0.33769100  0.84001900  1
  O  O9  1  0.51333500  0.81394000  0.66631000  1
  O  O10  1  0.47926900  0.90177200  0.32360000  1
  O  O11  1  0.66826100  0.51807700  0.67402400  1
  O  O12  1  0.66637500  0.66637700  0.02142700  1
  O  O13  1  0.66637700  0.66637500  0.52142700  1
  O  O14  1  0.81394000  0.51333500  0.16631000  1
  O  O15  1  0.62201300  0.89916200  0.82484800  1
  O  O16  1  0.66954700  0.81764100  0.16899200  1
  O  O17  1  0.91502300  0.33916000  0.33765400  1
  O  O18  1  0.99815600  0.21029000  0.74902000  1
  O  O19  1  0.00507900  0.24248200  0.56569600  1
  O  O20  1  0.99936400  0.24131000  0.93068400  1
  O  O21  1  0.90177200  0.47926900  0.82360000  1
  O  O22  1  0.81764100  0.66954700  0.66899200  1
  O  O23  1  0.08362500  0.25276200  0.16029100  1
  O  O24  1  0.89916200  0.62201300  0.32484800  1
  O  O25  1  0.74442600  0.91543000  0.33428000  1
  O  O26  1  0.21029000  0.99815600  0.24902000  1
  O  O27  1  0.24131000  0.99936400  0.43068400  1
  O  O28  1  0.76835800  0.99579900  0.57279800  1
  O  O29  1  0.25276200  0.08362500  0.66029100  1
  O  O30  1  0.09552500  0.38355200  0.67950000  1
  O  O31  1  0.91543000  0.74442600  0.83428000  1
  O  O32  1  0.18619900  0.32680000  0.33313700  1
  O  O33  1  0.09465400  0.52374400  0.17631500  1
  O  O34  1  0.99579900  0.76835800  0.07279800  1
  O  O35  1  0.99695800  0.76120400  0.43296900  1
  O  O36  1  0.00631100  0.79006700  0.25371100  1
  O  O37  1  0.08326400  0.66232100  0.65991700  1
  O  O38  1  0.32680000  0.18619900  0.83313700  1
  O  O39  1  0.38355200  0.09552500  0.17950000  1
  O  O40  1  0.18580100  0.48139500  0.82669400  1
  O  O41  1  0.33150400  0.33389900  0.97950400  1
  O  O42  1  0.33389900  0.33150400  0.47950400  1
  O  O43  1  0.32944300  0.48674000  0.33133000  1
  O  O44  1  0.52374400  0.09465400  0.67631500  1
  O  O45  1  0.48139500  0.18580100  0.32669400  1
  O  O46  1  0.25809300  0.65627900  0.16558900  1
  O  O47  1  0.21045900  0.79310700  0.74712400  1
  O  O48  1  0.23431400  0.76169900  0.93165700  1
  O  O49  1  0.38096200  0.52134300  0.67589400  1
  O  O50  1  0.48674000  0.32944300  0.83133000  1
  O  O51  1  0.52134300  0.38096200  0.17589400  1
  O  O52  1  0.66232100  0.08326400  0.15991700  1
  O  O53  1  0.76120400  0.99695800  0.93296900  1
  O  O54  1  0.79006700  0.00631100  0.75371100  1
  O  O55  1  0.65627900  0.25809300  0.66558900  1
  O  O56  1  0.76169900  0.23431400  0.43165700  1
  O  O57  1  0.79310700  0.21045900  0.24712400  1
loop_
_geom_bond_atom_site_label_1
_geom_bond_atom_site_label_2
_geom_bond_distance
_geom_bond_site_symmetry_2
Li0 O0 1.987556 1_555
Li0 O27 2.011352 1_555
Li0 O29 2.054634 1_565
Li0 O9 2.187407 1_555
Li1 O7 1.987556 1_555
Li1 O20 2.011352 1_554
Li1 O23 2.054634 1_655
Li1 O14 2.187407 1_555
Li2 O34 1.903101 1_555
Li2 O53 1.961677 1_554
Li2 O52 2.095538 1_565
Li2 O16 2.215656 1_555
Li3 O19 1.917419 1_555
Li3 O27 2.008059 1_545
Li3 O17 2.049923 1_455
Li3 O32 2.209743 1_555
Li4 O28 1.903101 1_555
Li4 O35 1.961677 1_555
Li4 O37 2.095538 1_655
Li4 O22 2.215656 1_555
Li5 O2 1.917419 1_556
Li5 O20 2.008059 1_455
Li5 O3 2.049923 1_545
Li5 O38 2.209743 1_555
Li6 O35 1.986212 1_455
Li6 O0 1.997621 1_555
Li6 O1 2.049065 1_555
Li6 O43 2.195995 1_555
Li7 O53 1.986212 1_545
Li7 O7 1.997621 1_556
Li7 O8 2.049065 1_555
Li7 O50 2.195995 1_555
O0 P13 1.498783 1_555
O1 P1 1.549322 1_555
O1 V4 2.010061 1_555
O2 P8 1.477600 1_555
O3 P0 1.562672 1_555
O3 V2 1.950084 1_555
O4 P0 1.575978 1_555
O4 V5 1.859667 1_555
O5 P3 1.612832 1_555
O5 V4 1.827282 1_555
O6 P2 1.575978 1_555
O6 V4 1.859667 1_555
O7 P15 1.498783 1_555
O8 P5 1.549322 1_555
O8 V5 2.010061 1_555
O9 P4 1.571308 1_555
O9 V2 1.958374 1_555
O10 P1 1.556675 1_555
O10 V3 1.863431 1_565
O11 P4 1.612832 1_555
O11 V5 1.827282 1_555
O12 P3 1.485951 1_555
O13 P4 1.485951 1_555
O14 P3 1.571308 1_555
O14 V0 1.958374 1_555
O15 P7 1.520621 1_555
O15 V2 1.925832 1_555
O16 P3 1.570315 1_555
O16 V3 2.013195 1_565
O17 P2 1.562672 1_555
O17 V0 1.950084 1_555
O18 P5 1.599558 1_555
O18 P6 1.631683 1_655
O19 P6 1.477600 1_555
O20 P5 1.496946 1_555
O21 P5 1.556675 1_555
O21 V1 1.863431 1_655
O22 P4 1.570315 1_555
O22 V1 2.013195 1_655
O23 P8 1.548536 1_555
O23 V0 1.973513 1_455
O24 P9 1.520621 1_555
O24 V0 1.925832 1_555
O25 P9 1.562371 1_555
O25 V3 1.874130 1_565
O26 P1 1.599558 1_555
O26 P8 1.631683 1_565
O27 P1 1.496946 1_555
O28 P14 1.473479 1_565
O29 P6 1.548536 1_555
O29 V2 1.973513 1_545
O30 P6 1.558129 1_555
O30 V1 1.881580 1_555
O31 P7 1.562371 1_555
O31 V1 1.874130 1_655
O32 P11 1.560754 1_555
O32 V0 1.982545 1_455
O33 P10 1.556286 1_555
O33 V0 1.864019 1_455
O34 P10 1.473479 1_655
O35 P9 1.500388 1_555
O36 P9 1.608725 1_455
O36 P10 1.632199 1_555
O37 P13 1.550269 1_555
O37 V1 1.990564 1_555
O38 P12 1.560754 1_555
O38 V2 1.982545 1_545
O39 P8 1.558129 1_555
O39 V3 1.881580 1_555
O40 P12 1.621523 1_555
O40 V1 1.822477 1_555
O41 P12 1.485511 1_555
O42 P11 1.485511 1_555
O43 P11 1.576107 1_555
O43 V4 1.997426 1_555
O44 P14 1.556286 1_555
O44 V2 1.864019 1_545
O45 P11 1.621523 1_555
O45 V3 1.822477 1_555
O46 P10 1.556794 1_555
O46 V4 1.884188 1_555
O47 P13 1.587609 1_555
O47 P0 1.651779 1_555
O48 P0 1.460074 1_555
O49 P13 1.561450 1_555
O49 V5 1.859855 1_555
O50 P12 1.576107 1_555
O50 V5 1.997426 1_555
O51 P15 1.561450 1_555
O51 V4 1.859855 1_555
O52 P15 1.550269 1_555
O52 V3 1.990564 1_555
O53 P7 1.500388 1_555
O54 P7 1.608725 1_545
O54 P14 1.632199 1_555
O55 P14 1.556794 1_555
O55 V5 1.884188 1_555
O56 P2 1.460074 1_555
O57 P15 1.587609 1_555
O57 P2 1.651779 1_555
