# generated using pymatgen
data_Li2CoGeO4
_symmetry_space_group_name_H-M   'P 1'
_cell_length_a   5.52413600
_cell_length_b   8.22307715
_cell_length_c   8.21398255
_cell_angle_alpha   76.81904180
_cell_angle_beta   89.99994296
_cell_angle_gamma   89.99998967
_symmetry_Int_Tables_number   1
_chemical_formula_structural   Li2CoGeO4
_chemical_formula_sum   'Li8 Co4 Ge4 O16'
_cell_volume   363.29338111
_cell_formula_units_Z   4
loop_
 _symmetry_equiv_pos_site_id
 _symmetry_equiv_pos_as_xyz
  1  'x, y, z'
loop_
 _atom_site_type_symbol
 _atom_site_label
 _atom_site_symmetry_multiplicity
 _atom_site_fract_x
 _atom_site_fract_y
 _atom_site_fract_z
 _atom_site_occupancy
  Li  Li0  1  0.33633100  0.37256000  0.87427800  1
  Li  Li1  1  0.33633100  0.87256100  0.37427800  1
  Li  Li2  1  0.66366700  0.87256100  0.87427900  1
  Li  Li3  1  0.66366900  0.37256000  0.37427800  1
  Li  Li4  1  0.82886500  0.74727000  0.24816400  1
  Li  Li5  1  0.82886700  0.24726900  0.74816400  1
  Li  Li6  1  0.17113500  0.74727000  0.74816400  1
  Li  Li7  1  0.17113400  0.24726900  0.24816400  1
  Co  Co0  1  0.16736400  0.50079300  0.50040500  1
  Co  Co1  1  0.83263500  0.50079100  0.00040500  1
  Co  Co2  1  0.16736700  0.00079200  0.00040500  1
  Co  Co3  1  0.83263300  0.00079100  0.50040500  1
  Ge  Ge0  1  0.66917300  0.12575200  0.12067800  1
  Ge  Ge1  1  0.66917200  0.62575000  0.62068000  1
  Ge  Ge2  1  0.33082800  0.62575000  0.12068000  1
  Ge  Ge3  1  0.33082700  0.12575300  0.62067700  1
  O  O0  1  0.67626500  0.30157500  0.94671600  1
  O  O1  1  0.67626600  0.80157400  0.44671700  1
  O  O2  1  0.32373300  0.80157500  0.94671700  1
  O  O3  1  0.32373900  0.30157600  0.44671400  1
  O  O4  1  0.17853900  0.68355600  0.29115800  1
  O  O5  1  0.17854200  0.18355400  0.79115800  1
  O  O6  1  0.82145900  0.68355500  0.79115600  1
  O  O7  1  0.82145800  0.18355400  0.29115800  1
  O  O8  1  0.17757000  0.45537400  0.06325900  1
  O  O9  1  0.17756400  0.95537300  0.56325900  1
  O  O10  1  0.82243100  0.45537000  0.56326000  1
  O  O11  1  0.82243700  0.95537200  0.06325800  1
  O  O12  1  0.63636700  0.56882700  0.17674200  1
  O  O13  1  0.63637700  0.06882400  0.67674500  1
  O  O14  1  0.36363400  0.56882700  0.67674200  1
  O  O15  1  0.36362000  0.06882400  0.17674400  1
loop_
_geom_bond_atom_site_label_1
_geom_bond_atom_site_label_2
_geom_bond_distance
_geom_bond_site_symmetry_2
Li0 O0 2.015602 1_555
Li0 O14 2.016411 1_555
Li0 O8 2.030906 1_556
Li0 O5 2.031113 1_555
Li1 O1 2.015613 1_555
Li1 O15 2.016375 1_565
Li1 O9 2.030912 1_555
Li1 O4 2.031113 1_555
Li2 O2 2.015603 1_555
Li2 O13 2.016376 1_565
Li2 O11 2.030903 1_556
Li2 O6 2.031132 1_555
Li3 O3 2.015575 1_555
Li3 O12 2.016411 1_555
Li3 O10 2.030900 1_555
Li3 O7 2.031112 1_555
Li4 O1 1.975352 1_555
Li4 O12 2.005159 1_555
Li4 O4 2.011490 1_655
Li4 O11 2.012731 1_555
Li5 O0 1.975359 1_555
Li5 O13 2.005138 1_555
Li5 O5 2.011497 1_655
Li5 O10 2.012717 1_555
Li6 O2 1.975355 1_555
Li6 O14 2.005161 1_555
Li6 O6 2.011500 1_455
Li6 O9 2.012732 1_555
Li7 O3 1.975356 1_555
Li7 O15 2.005129 1_555
Li7 O7 2.011502 1_455
Li7 O8 2.012744 1_555
Co0 O10 1.987181 1_455
Co0 O3 1.988420 1_555
Co0 O14 1.988975 1_555
Co0 O4 2.009609 1_555
Co1 O8 1.987184 1_655
Co1 O0 1.988395 1_554
Co1 O12 1.988975 1_555
Co1 O6 2.009625 1_554
Co2 O11 1.987158 1_445
Co2 O2 1.988388 1_544
Co2 O15 1.988930 1_555
Co2 O5 2.009604 1_554
Co3 O9 1.987164 1_645
Co3 O1 1.988391 1_545
Co3 O13 1.988947 1_555
Co3 O7 2.009609 1_555
Ge0 O15 1.783807 1_555
Ge0 O0 1.786483 1_554
Ge0 O7 1.788310 1_555
Ge0 O11 1.789850 1_545
Ge1 O14 1.783713 1_555
Ge1 O1 1.786494 1_555
Ge1 O6 1.788298 1_555
Ge1 O10 1.789837 1_555
Ge2 O12 1.783719 1_555
Ge2 O2 1.786499 1_554
Ge2 O4 1.788319 1_555
Ge2 O8 1.789811 1_555
Ge3 O13 1.783796 1_555
Ge3 O3 1.786488 1_555
Ge3 O5 1.788312 1_555
Ge3 O9 1.789841 1_545
