# generated using pymatgen
data_BaP2(HO4)2
_symmetry_space_group_name_H-M   'P 1'
_cell_length_a   7.74532900
_cell_length_b   8.77389600
_cell_length_c   10.65679300
_cell_angle_alpha   90.00000000
_cell_angle_beta   90.00000000
_cell_angle_gamma   90.00000000
_symmetry_Int_Tables_number   1
_chemical_formula_structural   BaP2(HO4)2
_chemical_formula_sum   'Ba4 P8 H8 O32'
_cell_volume   724.20060349
_cell_formula_units_Z   4
loop_
 _symmetry_equiv_pos_site_id
 _symmetry_equiv_pos_as_xyz
  1  'x, y, z'
loop_
 _atom_site_type_symbol
 _atom_site_label
 _atom_site_symmetry_multiplicity
 _atom_site_fract_x
 _atom_site_fract_y
 _atom_site_fract_z
 _atom_site_occupancy
  Ba  Ba0  1  0.25000000  0.40074900  0.25000000  1
  Ba  Ba1  1  0.75000000  0.09925100  0.75000000  1
  Ba  Ba2  1  0.75000000  0.59925100  0.75000000  1
  Ba  Ba3  1  0.25000000  0.90074900  0.25000000  1
  P  P0  1  0.93242600  0.21030600  0.42802200  1
  P  P1  1  0.56757400  0.21030600  0.07197800  1
  P  P2  1  0.06757400  0.28969400  0.92802200  1
  P  P3  1  0.43242600  0.28969400  0.57197800  1
  P  P4  1  0.06757400  0.78969400  0.57197800  1
  P  P5  1  0.43242600  0.78969400  0.92802200  1
  P  P6  1  0.93242600  0.71030600  0.07197800  1
  P  P7  1  0.56757400  0.71030600  0.42802200  1
  H  H0  1  0.67534800  0.94548300  0.38931300  1
  H  H1  1  0.82465200  0.94548300  0.11068700  1
  H  H2  1  0.32465200  0.55451700  0.88931300  1
  H  H3  1  0.17534800  0.55451700  0.61068700  1
  H  H4  1  0.32465200  0.05451700  0.61068700  1
  H  H5  1  0.17534800  0.05451700  0.88931300  1
  H  H6  1  0.67534800  0.44548300  0.11068700  1
  H  H7  1  0.82465200  0.44548300  0.38931300  1
  O  O0  1  0.76845900  0.11115300  0.43284000  1
  O  O1  1  0.73154100  0.11115300  0.06716000  1
  O  O2  1  0.23154100  0.38884700  0.93284000  1
  O  O3  1  0.26845900  0.38884700  0.56716000  1
  O  O4  1  0.23154100  0.88884700  0.56716000  1
  O  O5  1  0.26845900  0.88884700  0.93284000  1
  O  O6  1  0.76845900  0.61115300  0.06716000  1
  O  O7  1  0.73154100  0.61115300  0.43284000  1
  O  O8  1  0.08583100  0.14162500  0.36046300  1
  O  O9  1  0.41416900  0.14162500  0.13953700  1
  O  O10  1  0.91416900  0.35837500  0.86046300  1
  O  O11  1  0.58583100  0.35837500  0.63953700  1
  O  O12  1  0.91416900  0.85837500  0.63953700  1
  O  O13  1  0.58583100  0.85837500  0.86046300  1
  O  O14  1  0.08583100  0.64162500  0.13953700  1
  O  O15  1  0.41416900  0.64162500  0.36046300  1
  O  O16  1  0.90458400  0.36695200  0.35397300  1
  O  O17  1  0.59541600  0.36695200  0.14602700  1
  O  O18  1  0.09541600  0.13304800  0.85397300  1
  O  O19  1  0.40458400  0.13304800  0.64602700  1
  O  O20  1  0.09541600  0.63304800  0.64602700  1
  O  O21  1  0.40458400  0.63304800  0.85397300  1
  O  O22  1  0.90458400  0.86695200  0.14602700  1
  O  O23  1  0.59541600  0.86695200  0.35397300  1
  O  O24  1  0.95677800  0.24266400  0.56994400  1
  O  O25  1  0.54322200  0.24266400  0.93005600  1
  O  O26  1  0.04322200  0.25733600  0.06994400  1
  O  O27  1  0.45677800  0.25733600  0.43005600  1
  O  O28  1  0.04322200  0.75733600  0.43005600  1
  O  O29  1  0.45677800  0.75733600  0.06994400  1
  O  O30  1  0.95677800  0.74266400  0.93005600  1
  O  O31  1  0.54322200  0.74266400  0.56994400  1
loop_
_geom_bond_atom_site_label_1
_geom_bond_atom_site_label_2
_geom_bond_distance
_geom_bond_site_symmetry_2
Ba0 O15 2.732970 1_555
Ba0 O14 2.732970 1_555
Ba0 O27 2.798244 1_555
Ba0 O26 2.798244 1_555
Ba0 O9 2.858584 1_555
Ba0 O8 2.858584 1_555
Ba0 O17 2.910875 1_555
Ba0 O16 2.910875 1_455
Ba1 O12 2.732970 1_545
Ba1 O13 2.732970 1_545
Ba1 O24 2.798244 1_555
Ba1 O25 2.798244 1_555
Ba1 O11 2.858584 1_555
Ba1 O10 2.858584 1_555
Ba1 O19 2.910875 1_555
Ba1 O18 2.910875 1_655
Ba2 O10 2.732970 1_555
Ba2 O11 2.732970 1_555
Ba2 O30 2.798244 1_555
Ba2 O31 2.798244 1_555
Ba2 O12 2.858584 1_555
Ba2 O13 2.858584 1_555
Ba2 O20 2.910875 1_655
Ba2 O21 2.910875 1_555
Ba3 O9 2.732970 1_565
Ba3 O8 2.732970 1_565
Ba3 O28 2.798244 1_555
Ba3 O29 2.798244 1_555
Ba3 O15 2.858584 1_555
Ba3 O14 2.858584 1_555
Ba3 O23 2.910875 1_555
Ba3 O22 2.910875 1_455
H0 O23 0.999936 1_555
H0 O0 1.687640 1_565
H1 O22 0.999936 1_555
H1 O1 1.687640 1_565
H2 O21 0.999936 1_555
H2 O2 1.687640 1_555
H3 O20 0.999936 1_555
H3 O3 1.687640 1_555
H4 O19 0.999936 1_555
H4 O4 1.687640 1_545
H5 O18 0.999936 1_555
H5 O5 1.687640 1_545
H6 O17 0.999936 1_555
H6 O6 1.687640 1_555
H7 O16 0.999936 1_555
H7 O7 1.687640 1_555
O0 P0 1.540230 1_555
O1 P1 1.540230 1_555
O2 P2 1.540230 1_555
O3 P3 1.540230 1_555
O4 P4 1.540230 1_555
O5 P5 1.540230 1_555
O6 P6 1.540230 1_555
O7 P7 1.540230 1_555
O8 P0 1.514340 1_455
O9 P1 1.514340 1_555
O10 P2 1.514340 1_655
O11 P3 1.514340 1_555
O12 P4 1.514340 1_655
O13 P5 1.514340 1_555
O14 P6 1.514340 1_455
O15 P7 1.514340 1_555
O16 P0 1.599433 1_555
O17 P1 1.599433 1_555
O18 P2 1.599433 1_555
O19 P3 1.599433 1_555
O20 P4 1.599433 1_555
O21 P5 1.599433 1_555
O22 P6 1.599433 1_555
O23 P7 1.599433 1_555
O24 P0 1.550365 1_555
O25 P1 1.550365 1_556
O26 P2 1.550365 1_554
O27 P3 1.550365 1_555
O28 P4 1.550365 1_555
O29 P5 1.550365 1_554
O30 P6 1.550365 1_556
O31 P7 1.550365 1_555
