# generated using pymatgen
data_Li5Fe3(BO3)4
_symmetry_space_group_name_H-M   'P 1'
_cell_length_a   8.98109600
_cell_length_b   5.24550600
_cell_length_c   11.23094356
_cell_angle_alpha   63.84916191
_cell_angle_beta   90.00000000
_cell_angle_gamma   90.00000000
_symmetry_Int_Tables_number   1
_chemical_formula_structural   Li5Fe3(BO3)4
_chemical_formula_sum   'Li10 Fe6 B8 O24'
_cell_volume   474.93442849
_cell_formula_units_Z   2
loop_
 _symmetry_equiv_pos_site_id
 _symmetry_equiv_pos_as_xyz
  1  'x, y, z'
loop_
 _atom_site_type_symbol
 _atom_site_label
 _atom_site_symmetry_multiplicity
 _atom_site_fract_x
 _atom_site_fract_y
 _atom_site_fract_z
 _atom_site_occupancy
  Li  Li0  1  0.23292700  0.50136200  0.33817100  1
  Li  Li1  1  0.91454700  0.45698900  0.38394500  1
  Li  Li2  1  0.23888500  0.91517600  0.90481900  1
  Li  Li3  1  0.40646900  0.54975200  0.11343100  1
  Li  Li4  1  0.74008800  0.06675600  0.61220000  1
  Li  Li5  1  0.76707300  0.50136200  0.83817100  1
  Li  Li6  1  0.76111500  0.91517600  0.40481900  1
  Li  Li7  1  0.08545300  0.45698900  0.88394500  1
  Li  Li8  1  0.25991200  0.06675600  0.11220000  1
  Li  Li9  1  0.59353100  0.54975200  0.61343100  1
  Fe  Fe0  1  0.57266700  0.97698400  0.87042200  1
  Fe  Fe1  1  0.72320400  0.48754700  0.16743600  1
  Fe  Fe2  1  0.07135600  0.03250100  0.62336300  1
  Fe  Fe3  1  0.42733300  0.97698400  0.37042200  1
  Fe  Fe4  1  0.92864400  0.03250100  0.12336300  1
  Fe  Fe5  1  0.27679600  0.48754700  0.66743600  1
  B  B0  1  0.57490900  0.45723100  0.37923800  1
  B  B1  1  0.91598700  0.96339100  0.87113300  1
  B  B2  1  0.07787400  0.55031600  0.11995100  1
  B  B3  1  0.41716500  0.03025600  0.62771100  1
  B  B4  1  0.08401300  0.96339100  0.37113300  1
  B  B5  1  0.42509100  0.45723100  0.87923800  1
  B  B6  1  0.58283500  0.03025600  0.12771100  1
  B  B7  1  0.92212600  0.55031600  0.61995100  1
  O  O0  1  0.57999400  0.80743100  0.09273500  1
  O  O1  1  0.91690900  0.31836500  0.59068400  1
  O  O2  1  0.20257300  0.70106900  0.11750900  1
  O  O3  1  0.54163600  0.14545900  0.65435100  1
  O  O4  1  0.93937900  0.62998600  0.15242900  1
  O  O5  1  0.27569900  0.13980000  0.63761000  1
  O  O6  1  0.43694800  0.37711200  0.35149200  1
  O  O7  1  0.78540800  0.83781400  0.86437600  1
  O  O8  1  0.04837400  0.89165400  0.82497000  1
  O  O9  1  0.70548800  0.31227800  0.37079000  1
  O  O10  1  0.07683600  0.16632700  0.42224100  1
  O  O11  1  0.40903800  0.68444400  0.90899400  1
  O  O12  1  0.08309100  0.31836500  0.09068400  1
  O  O13  1  0.42000600  0.80743100  0.59273500  1
  O  O14  1  0.79742700  0.70106900  0.61750900  1
  O  O15  1  0.45836400  0.14545900  0.15435100  1
  O  O16  1  0.72430100  0.13980000  0.13761000  1
  O  O17  1  0.06062100  0.62998600  0.65242900  1
  O  O18  1  0.21459200  0.83781400  0.36437600  1
  O  O19  1  0.56305200  0.37711200  0.85149200  1
  O  O20  1  0.95162600  0.89165400  0.32497000  1
  O  O21  1  0.29451200  0.31227800  0.87079000  1
  O  O22  1  0.59096200  0.68444400  0.40899400  1
  O  O23  1  0.92316400  0.16632700  0.92224100  1
loop_
_geom_bond_atom_site_label_1
_geom_bond_atom_site_label_2
_geom_bond_distance
_geom_bond_site_symmetry_2
Li0 O18 1.919977 1_555
Li0 O6 1.928382 1_555
Li0 O10 2.117219 1_555
Li0 O2 2.241649 1_555
Li1 O10 2.013944 1_655
Li1 O9 2.054798 1_555
Li1 O20 2.101665 1_555
Li1 O1 2.105246 1_555
Li1 O4 2.356716 1_555
Li2 O11 1.937083 1_555
Li2 O8 1.960736 1_555
Li2 O21 2.008190 1_565
Li2 O2 2.169992 1_556
Li3 O2 2.004366 1_555
Li3 O0 2.008188 1_555
Li3 O15 2.016628 1_555
Li3 O11 2.083626 1_554
Li3 O6 2.430881 1_555
Li4 O3 1.934802 1_555
Li4 O14 1.961497 1_545
Li4 O1 2.010242 1_555
Li4 O9 2.455247 1_555
Li4 O7 2.575076 1_545
Li5 O7 1.919977 1_555
Li5 O19 1.928382 1_555
Li5 O23 2.117219 1_555
Li5 O14 2.241649 1_555
Li6 O22 1.937083 1_555
Li6 O20 1.960736 1_555
Li6 O9 2.008190 1_565
Li6 O14 2.169992 1_555
Li7 O23 2.013944 1_455
Li7 O21 2.054798 1_555
Li7 O8 2.101665 1_555
Li7 O12 2.105246 1_556
Li7 O17 2.356716 1_555
Li8 O15 1.934802 1_555
Li8 O2 1.961497 1_545
Li8 O12 2.010242 1_555
Li8 O21 2.455247 1_554
Li8 O18 2.575076 1_545
Li9 O14 2.004366 1_555
Li9 O13 2.008188 1_555
Li9 O3 2.016628 1_555
Li9 O22 2.083626 1_555
Li9 O19 2.430881 1_555
Fe0 O19 2.016084 1_565
Fe0 O11 2.028813 1_555
Fe0 O7 2.057135 1_555
Fe0 O3 2.203879 1_565
Fe0 O0 2.252081 1_556
Fe1 O0 1.983121 1_555
Fe1 O16 1.994563 1_555
Fe1 O9 2.058088 1_555
Fe1 O4 2.060349 1_555
Fe2 O5 1.946746 1_555
Fe2 O1 1.955032 1_455
Fe2 O17 1.991557 1_545
Fe2 O10 2.049303 1_555
Fe2 O8 2.059283 1_545
Fe3 O6 2.016084 1_565
Fe3 O22 2.028813 1_555
Fe3 O18 2.057135 1_555
Fe3 O15 2.203879 1_565
Fe3 O13 2.252081 1_555
Fe4 O16 1.946746 1_555
Fe4 O12 1.955032 1_655
Fe4 O4 1.991557 1_545
Fe4 O23 2.049303 1_554
Fe4 O20 2.059283 1_545
Fe5 O13 1.983121 1_555
Fe5 O5 1.994563 1_555
Fe5 O21 2.058088 1_555
Fe5 O17 2.060349 1_555
B0 O22 1.379876 1_555
B0 O6 1.387222 1_555
B0 O9 1.423395 1_555
B1 O7 1.363471 1_555
B1 O8 1.412812 1_655
B1 O23 1.416113 1_565
B2 O2 1.364263 1_555
B2 O12 1.393958 1_555
B2 O4 1.410388 1_455
B3 O3 1.365186 1_555
B3 O13 1.387742 1_545
B3 O5 1.418828 1_555
B4 O18 1.363471 1_555
B4 O20 1.412812 1_455
B4 O10 1.416113 1_565
B5 O11 1.379876 1_555
B5 O19 1.387222 1_555
B5 O21 1.423395 1_555
B6 O15 1.365186 1_555
B6 O0 1.387742 1_545
B6 O16 1.418828 1_555
B7 O14 1.364263 1_555
B7 O1 1.393958 1_555
B7 O17 1.410388 1_655
