# generated using pymatgen
data_LiVF3
_symmetry_space_group_name_H-M   'P 1'
_cell_length_a   6.17580300
_cell_length_b   6.17580300
_cell_length_c   6.17580300
_cell_angle_alpha   90.00000000
_cell_angle_beta   90.00000000
_cell_angle_gamma   90.00000000
_symmetry_Int_Tables_number   1
_chemical_formula_structural   LiVF3
_chemical_formula_sum   'Li4 V4 F12'
_cell_volume   235.54847800
_cell_formula_units_Z   4
loop_
 _symmetry_equiv_pos_site_id
 _symmetry_equiv_pos_as_xyz
  1  'x, y, z'
loop_
 _atom_site_type_symbol
 _atom_site_label
 _atom_site_symmetry_multiplicity
 _atom_site_fract_x
 _atom_site_fract_y
 _atom_site_fract_z
 _atom_site_occupancy
  Li  Li0  1  0.08610200  0.08610200  0.08610200  1
  Li  Li1  1  0.41389800  0.91389800  0.58610200  1
  Li  Li2  1  0.58610200  0.41389800  0.91389800  1
  Li  Li3  1  0.91389800  0.58610200  0.41389800  1
  V  V0  1  0.15067300  0.65067300  0.84932700  1
  V  V1  1  0.34932700  0.34932700  0.34932700  1
  V  V2  1  0.65067300  0.84932700  0.15067300  1
  V  V3  1  0.84932700  0.15067300  0.65067300  1
  F  F0  1  0.01539000  0.25656800  0.37060600  1
  F  F1  1  0.12939400  0.98461000  0.75656800  1
  F  F2  1  0.25656800  0.37060600  0.01539000  1
  F  F3  1  0.24343200  0.62939400  0.51539000  1
  F  F4  1  0.37060600  0.01539000  0.25656800  1
  F  F5  1  0.48461000  0.74343200  0.87060600  1
  F  F6  1  0.51539000  0.24343200  0.62939400  1
  F  F7  1  0.62939400  0.51539000  0.24343200  1
  F  F8  1  0.75656800  0.12939400  0.98461000  1
  F  F9  1  0.74343200  0.87060600  0.48461000  1
  F  F10  1  0.87060600  0.48461000  0.74343200  1
  F  F11  1  0.98461000  0.75656800  0.12939400  1
loop_
_geom_bond_atom_site_label_1
_geom_bond_atom_site_label_2
_geom_bond_distance
_geom_bond_site_symmetry_2
F0 Li0 2.094329 1_555
F0 V3 2.114509 1_455
F0 V1 2.144444 1_555
F0 Li3 2.146191 1_455
F1 Li1 2.094329 1_555
F1 V3 2.114509 1_465
F1 V0 2.144444 1_555
F1 Li0 2.146191 1_566
F2 Li0 2.094329 1_555
F2 V0 2.114509 1_554
F2 V1 2.144444 1_555
F2 Li2 2.146191 1_554
F3 Li1 2.094329 1_555
F3 V1 2.114509 1_555
F3 V0 2.144444 1_555
F3 Li3 2.146191 1_455
F4 Li0 2.094329 1_555
F4 V2 2.114509 1_545
F4 V1 2.144444 1_555
F4 Li1 2.146191 1_545
F5 Li1 2.094329 1_555
F5 V2 2.114509 1_556
F5 V0 2.144444 1_555
F5 Li2 2.146191 1_555
F6 Li2 2.094329 1_555
F6 V1 2.114509 1_555
F6 V3 2.144444 1_555
F6 Li1 2.146191 1_545
F7 Li3 2.094329 1_555
F7 V1 2.114509 1_555
F7 V2 2.144444 1_555
F7 Li2 2.146191 1_554
F8 Li2 2.094329 1_555
F8 V2 2.114509 1_546
F8 V3 2.144444 1_555
F8 Li0 2.146191 1_656
F9 Li3 2.094329 1_555
F9 V3 2.114509 1_565
F9 V2 2.144444 1_555
F9 Li1 2.146191 1_555
F10 Li2 2.094329 1_555
F10 V0 2.114509 1_655
F10 V3 2.144444 1_555
F10 Li3 2.146191 1_555
F11 Li3 2.094329 1_555
F11 V0 2.114509 1_654
F11 V2 2.144444 1_555
F11 Li0 2.146191 1_665
