# generated using pymatgen
data_Li24Mn7Cr5O36
_symmetry_space_group_name_H-M   'P 1'
_cell_length_a   4.99903900
_cell_length_b   9.72357564
_cell_length_c   13.26916393
_cell_angle_alpha   97.12802318
_cell_angle_beta   100.46865918
_cell_angle_gamma   94.64342540
_symmetry_Int_Tables_number   1
_chemical_formula_structural   Li24Mn7Cr5O36
_chemical_formula_sum   'Li24 Mn7 Cr5 O36'
_cell_volume   625.80578565
_cell_formula_units_Z   1
loop_
 _symmetry_equiv_pos_site_id
 _symmetry_equiv_pos_as_xyz
  1  'x, y, z'
loop_
 _atom_site_type_symbol
 _atom_site_label
 _atom_site_symmetry_multiplicity
 _atom_site_fract_x
 _atom_site_fract_y
 _atom_site_fract_z
 _atom_site_occupancy
  Li  Li0  1  0.16688700  0.99990800  0.83327500  1
  Li  Li1  1  0.05474900  0.00110800  0.61504800  1
  Li  Li2  1  0.99943500  0.74947100  0.25034300  1
  Li  Li3  1  0.33310800  0.75021600  0.91758900  1
  Li  Li4  1  0.04652200  0.49875800  0.11166000  1
  Li  Li5  1  0.37988600  0.50083800  0.77771600  1
  Li  Li6  1  0.16583300  0.50065600  0.33366900  1
  Li  Li7  1  0.50219100  0.49999200  0.00012300  1
  Li  Li8  1  0.28544000  0.49970800  0.55440700  1
  Li  Li9  1  0.33161300  0.25119100  0.41725500  1
  Li  Li10  1  0.50076900  0.99955900  0.50003800  1
  Li  Li11  1  0.28019200  0.99992900  0.05279200  1
  Li  Li12  1  0.61430000  0.99803300  0.71804400  1
  Li  Li13  1  0.38102300  0.99837200  0.27938700  1
  Li  Li14  1  0.71860500  0.00154500  0.94854800  1
  Li  Li15  1  0.66363500  0.75031400  0.58451800  1
  Li  Li16  1  0.71401200  0.49966600  0.44421300  1
  Li  Li17  1  0.83060300  0.50014700  0.66652700  1
  Li  Li18  1  0.62245900  0.50284800  0.22269400  1
  Li  Li19  1  0.95368300  0.49958100  0.88937700  1
  Li  Li20  1  0.66778800  0.24920300  0.08211700  1
  Li  Li21  1  0.83194900  0.99995200  0.16640400  1
  Li  Li22  1  0.00147900  0.24961700  0.74924300  1
  Li  Li23  1  0.95256300  0.99976100  0.38558200  1
  Mn  Mn0  1  0.10969000  0.24985600  0.97270200  1
  Mn  Mn1  1  0.22459100  0.75104000  0.69432800  1
  Mn  Mn2  1  0.44256300  0.24882800  0.63780000  1
  Mn  Mn3  1  0.44385700  0.74999100  0.13909400  1
  Mn  Mn4  1  0.55362100  0.74871900  0.35975900  1
  Mn  Mn5  1  0.89173700  0.25145400  0.52827000  1
  Mn  Mn6  1  0.89086900  0.75028200  0.02905600  1
  Cr  Cr0  1  0.10447200  0.75033800  0.47326100  1
  Cr  Cr1  1  0.22501200  0.24798000  0.19260600  1
  Cr  Cr2  1  0.55975000  0.25014400  0.85912700  1
  Cr  Cr3  1  0.77652200  0.74963400  0.80790500  1
  Cr  Cr4  1  0.77393000  0.25167100  0.30746600  1
  O  O0  1  0.00141600  0.86221600  0.93061500  1
  O  O1  1  0.06764400  0.63595900  0.78400500  1
  O  O2  1  0.00443700  0.36398700  0.43145000  1
  O  O3  1  0.14262000  0.36167400  0.64357800  1
  O  O4  1  0.26481900  0.36415100  0.88268200  1
  O  O5  1  0.33751300  0.86339700  0.59746400  1
  O  O6  1  0.06895700  0.13503800  0.28400200  1
  O  O7  1  0.19123400  0.13820800  0.52289000  1
  O  O8  1  0.40141700  0.13563900  0.95146400  1
  O  O9  1  0.14302300  0.86171600  0.14345400  1
  O  O10  1  0.26500700  0.86455500  0.38214300  1
  O  O11  1  0.47959900  0.86171400  0.80893500  1
  O  O12  1  0.33073400  0.13722700  0.73550200  1
  O  O13  1  0.19134000  0.63820000  0.02393100  1
  O  O14  1  0.40280500  0.63637800  0.45054800  1
  O  O15  1  0.52004100  0.63669000  0.68902500  1
  O  O16  1  0.33109100  0.63800800  0.23735900  1
  O  O17  1  0.66900900  0.63775700  0.90575800  1
  O  O18  1  0.33084800  0.36094200  0.09595300  1
  O  O19  1  0.66316700  0.36182400  0.76150300  1
  O  O20  1  0.48251200  0.36239600  0.30971000  1
  O  O21  1  0.59665200  0.36376800  0.54759700  1
  O  O22  1  0.81442200  0.36355000  0.97823900  1
  O  O23  1  0.66629500  0.86185600  0.26139700  1
  O  O24  1  0.51741100  0.13714100  0.19029700  1
  O  O25  1  0.73712600  0.13624200  0.61834800  1
  O  O26  1  0.85356700  0.13841900  0.85802100  1
  O  O27  1  0.59637000  0.86353100  0.04826800  1
  O  O28  1  0.81119600  0.86190800  0.47420600  1
  O  O29  1  0.93215600  0.86475500  0.71468100  1
  O  O30  1  0.67246900  0.13869200  0.40464900  1
  O  O31  1  0.73662700  0.63594000  0.11886300  1
  O  O32  1  0.85067100  0.63662000  0.35507000  1
  O  O33  1  0.00368900  0.63904100  0.57086600  1
  O  O34  1  0.93192100  0.36424900  0.21657100  1
  O  O35  1  0.99486100  0.13629600  0.06901600  1
loop_
_geom_bond_atom_site_label_1
_geom_bond_atom_site_label_2
_geom_bond_distance
_geom_bond_site_symmetry_2
Li0 O8 2.035567 1_565
Li0 O29 2.036269 1_455
Li0 O11 2.183942 1_555
Li0 O12 2.185380 1_565
Li0 O0 2.187051 1_555
Li0 O26 2.189460 1_465
Li1 O5 2.048017 1_545
Li1 O7 2.073301 1_555
Li1 O29 2.116391 1_445
Li1 O12 2.141943 1_555
Li1 O25 2.144389 1_455
Li1 O28 2.255122 1_445
Li2 O16 2.074025 1_655
Li2 O32 2.076081 1_555
Li2 O23 2.081545 1_555
Li2 O9 2.084560 1_655
Li2 O31 2.107773 1_555
Li2 O10 2.122114 1_655
Li3 O13 2.073542 1_556
Li3 O0 2.077287 1_555
Li3 O17 2.095360 1_555
Li3 O27 2.101088 1_556
Li3 O11 2.105557 1_555
Li3 O1 2.134262 1_555
Li4 O18 2.050900 1_555
Li4 O13 2.063162 1_555
Li4 O31 2.131928 1_455
Li4 O34 2.144079 1_455
Li4 O22 2.153574 1_454
Li4 O16 2.214595 1_555
Li5 O15 2.038734 1_555
Li5 O19 2.056043 1_555
Li5 O1 2.126452 1_555
Li5 O4 2.159641 1_555
Li5 O3 2.186591 1_555
Li5 O17 2.232225 1_555
Li6 O34 2.029293 1_455
Li6 O14 2.030152 1_555
Li6 O32 2.171946 1_455
Li6 O16 2.174385 1_555
Li6 O2 2.176035 1_555
Li6 O20 2.199095 1_555
Li7 O4 2.035834 1_554
Li7 O31 2.040741 1_555
Li7 O17 2.161621 1_554
Li7 O22 2.164512 1_554
Li7 O13 2.175255 1_555
Li7 O18 2.194003 1_555
Li8 O33 2.052891 1_555
Li8 O3 2.063294 1_555
Li8 O21 2.128420 1_555
Li8 O14 2.152111 1_555
Li8 O2 2.170126 1_555
Li8 O15 2.176147 1_555
Li9 O2 2.065091 1_555
Li9 O7 2.068552 1_555
Li9 O21 2.099428 1_555
Li9 O20 2.101610 1_555
Li9 O30 2.118487 1_555
Li9 O6 2.132284 1_555
Li10 O10 2.032092 1_555
Li10 O25 2.044710 1_565
Li10 O7 2.170411 1_565
Li10 O5 2.173348 1_555
Li10 O28 2.175523 1_555
Li10 O30 2.191080 1_565
Li11 O35 2.045993 1_465
Li11 O9 2.067696 1_555
Li11 O8 2.126799 1_564
Li11 O27 2.148254 1_555
Li11 O0 2.168311 1_554
Li11 O24 2.206545 1_565
Li12 O11 2.052389 1_555
Li12 O12 2.060863 1_565
Li12 O25 2.129750 1_565
Li12 O29 2.133333 1_555
Li12 O5 2.137933 1_555
Li12 O26 2.245659 1_565
Li13 O23 2.050445 1_555
Li13 O24 2.054956 1_565
Li13 O10 2.119907 1_555
Li13 O6 2.133904 1_565
Li13 O9 2.191801 1_555
Li13 O30 2.232106 1_565
Li14 O26 2.053121 1_555
Li14 O0 2.059899 1_645
Li14 O27 2.127658 1_546
Li14 O8 2.135495 1_555
Li14 O35 2.136408 1_556
Li14 O11 2.239569 1_545
Li15 O5 2.059507 1_555
Li15 O15 2.066998 1_555
Li15 O33 2.110532 1_655
Li15 O29 2.112320 1_555
Li15 O28 2.126285 1_555
Li15 O14 2.126657 1_555
Li16 O32 2.043651 1_555
Li16 O2 2.054525 1_655
Li16 O14 2.132869 1_555
Li16 O21 2.142207 1_555
Li16 O20 2.171244 1_555
Li16 O33 2.233972 1_655
Li17 O1 2.035328 1_655
Li17 O21 2.043421 1_555
Li17 O15 2.160082 1_555
Li17 O19 2.172455 1_555
Li17 O3 2.179330 1_655
Li17 O33 2.195279 1_655
Li18 O20 2.053758 1_555
Li18 O16 2.058185 1_555
Li18 O31 2.123053 1_555
Li18 O32 2.131504 1_555
Li18 O34 2.138258 1_555
Li18 O18 2.250521 1_555
Li19 O22 2.039808 1_555
Li19 O17 2.055996 1_555
Li19 O4 2.124626 1_655
Li19 O1 2.159929 1_655
Li19 O13 2.188293 1_656
Li19 O19 2.237848 1_555
Li20 O35 2.062879 1_555
Li20 O22 2.070999 1_554
Li20 O18 2.100118 1_555
Li20 O8 2.108554 1_554
Li20 O24 2.112029 1_555
Li20 O34 2.141810 1_555
Li21 O6 2.032622 1_665
Li21 O27 2.040573 1_555
Li21 O23 2.167250 1_555
Li21 O35 2.173385 1_565
Li21 O9 2.174086 1_655
Li21 O24 2.183619 1_565
Li22 O3 2.065200 1_555
Li22 O12 2.070640 1_555
Li22 O19 2.105191 1_455
Li22 O25 2.105527 1_455
Li22 O26 2.108297 1_455
Li22 O4 2.129466 1_555
Li23 O30 2.049315 1_565
Li23 O28 2.053991 1_555
Li23 O6 2.118171 1_665
Li23 O10 2.124513 1_655
Li23 O23 2.201222 1_555
Li23 O7 2.212834 1_665
Mn0 O22 1.920873 1_455
Mn0 O35 1.922571 1_456
Mn0 O8 1.942563 1_555
Mn0 O18 1.942905 1_556
Mn0 O26 1.946081 1_455
Mn0 O4 1.946752 1_555
Mn1 O5 1.917433 1_555
Mn1 O15 1.925337 1_555
Mn1 O11 1.939868 1_555
Mn1 O29 1.940041 1_455
Mn1 O33 1.947918 1_555
Mn1 O1 1.952245 1_555
Mn2 O12 1.919661 1_555
Mn2 O7 1.933498 1_555
Mn2 O3 1.935312 1_555
Mn2 O25 1.939696 1_555
Mn2 O21 1.950052 1_555
Mn2 O19 1.953489 1_555
Mn3 O16 1.929676 1_555
Mn3 O9 1.930217 1_555
Mn3 O23 1.940005 1_555
Mn3 O13 1.942895 1_555
Mn3 O31 1.943097 1_555
Mn3 O27 1.944333 1_555
Mn4 O32 1.917266 1_555
Mn4 O14 1.932938 1_555
Mn4 O16 1.936456 1_555
Mn4 O23 1.937559 1_555
Mn4 O10 1.942763 1_555
Mn4 O28 1.954653 1_555
Mn5 O2 1.917636 1_655
Mn5 O3 1.934082 1_655
Mn5 O7 1.935330 1_655
Mn5 O21 1.939918 1_555
Mn5 O30 1.949384 1_555
Mn5 O25 1.951633 1_555
Mn6 O0 1.927177 1_654
Mn6 O13 1.931928 1_655
Mn6 O9 1.934564 1_655
Mn6 O27 1.942731 1_555
Mn6 O31 1.942843 1_555
Mn6 O17 1.950334 1_554
Cr0 O28 1.894028 1_455
Cr0 O33 1.897119 1_555
Cr0 O10 1.969982 1_555
Cr0 O14 1.972549 1_555
Cr0 O32 1.977722 1_455
Cr0 O5 1.981705 1_555
Cr1 O24 1.887390 1_555
Cr1 O18 1.906122 1_555
Cr1 O6 1.954743 1_555
Cr1 O35 1.965329 1_455
Cr1 O34 1.968320 1_455
Cr1 O20 1.980277 1_555
Cr2 O26 1.897371 1_555
Cr2 O19 1.904238 1_555
Cr2 O4 1.961239 1_555
Cr2 O12 1.968288 1_555
Cr2 O8 1.978796 1_555
Cr2 O22 1.985896 1_555
Cr3 O11 1.912253 1_555
Cr3 O17 1.915114 1_555
Cr3 O1 1.944603 1_655
Cr3 O0 1.951076 1_655
Cr3 O29 1.985169 1_555
Cr3 O15 1.986313 1_555
Cr4 O20 1.882577 1_555
Cr4 O30 1.904216 1_555
Cr4 O34 1.952073 1_555
Cr4 O2 1.971940 1_655
Cr4 O6 1.976951 1_655
Cr4 O24 1.978989 1_555
