# generated using pymatgen
data_KIrBr5NO2
_symmetry_space_group_name_H-M   'P 1'
_cell_length_a   6.57212300
_cell_length_b   7.63833400
_cell_length_c   23.99807900
_cell_angle_alpha   90.00000000
_cell_angle_beta   90.00000000
_cell_angle_gamma   90.00000000
_symmetry_Int_Tables_number   1
_chemical_formula_structural   KIrBr5NO2
_chemical_formula_sum   'K4 Ir4 Br20 N4 O8'
_cell_volume   1204.70525918
_cell_formula_units_Z   4
loop_
 _symmetry_equiv_pos_site_id
 _symmetry_equiv_pos_as_xyz
  1  'x, y, z'
loop_
 _atom_site_type_symbol
 _atom_site_label
 _atom_site_symmetry_multiplicity
 _atom_site_fract_x
 _atom_site_fract_y
 _atom_site_fract_z
 _atom_site_occupancy
  K  K0  1  0.98999200  0.75000000  0.32659500  1
  K  K1  1  0.51000800  0.75000000  0.82659500  1
  K  K2  1  0.01000800  0.25000000  0.67340500  1
  K  K3  1  0.48999200  0.25000000  0.17340500  1
  Ir  Ir0  1  0.86121300  0.75000000  0.12568700  1
  Ir  Ir1  1  0.63878700  0.75000000  0.62568700  1
  Ir  Ir2  1  0.13878700  0.25000000  0.87431300  1
  Ir  Ir3  1  0.36121300  0.25000000  0.37431300  1
  Br  Br0  1  0.97829600  0.51552400  0.19360700  1
  Br  Br1  1  0.52170400  0.98447600  0.69360700  1
  Br  Br2  1  0.02170400  0.01552400  0.80639300  1
  Br  Br3  1  0.47829600  0.48447600  0.30639300  1
  Br  Br4  1  0.02170400  0.48447600  0.80639300  1
  Br  Br5  1  0.47829600  0.01552400  0.30639300  1
  Br  Br6  1  0.97829600  0.98447600  0.19360700  1
  Br  Br7  1  0.52170400  0.51552400  0.69360700  1
  Br  Br8  1  0.71886300  0.51462400  0.06256200  1
  Br  Br9  1  0.78113700  0.98537600  0.56256200  1
  Br  Br10  1  0.28113700  0.01462400  0.93743800  1
  Br  Br11  1  0.21886300  0.48537600  0.43743800  1
  Br  Br12  1  0.28113700  0.48537600  0.93743800  1
  Br  Br13  1  0.21886300  0.01462400  0.43743800  1
  Br  Br14  1  0.71886300  0.98537600  0.06256200  1
  Br  Br15  1  0.78113700  0.51462400  0.56256200  1
  Br  Br16  1  0.53102400  0.75000000  0.17446400  1
  Br  Br17  1  0.96897600  0.75000000  0.67446400  1
  Br  Br18  1  0.46897600  0.25000000  0.82553600  1
  Br  Br19  1  0.03102400  0.25000000  0.32553600  1
  N  N0  1  0.08947500  0.75000000  0.08575000  1
  N  N1  1  0.41052500  0.75000000  0.58575000  1
  N  N2  1  0.91052500  0.25000000  0.91425000  1
  N  N3  1  0.58947500  0.25000000  0.41425000  1
  O  O0  1  0.22585000  0.75000000  0.05555900  1
  O  O1  1  0.27415000  0.75000000  0.55555900  1
  O  O2  1  0.77415000  0.25000000  0.94444100  1
  O  O3  1  0.72585000  0.25000000  0.44444100  1
  O  O4  1  0.72479000  0.75000000  0.42060900  1
  O  O5  1  0.77521000  0.75000000  0.92060900  1
  O  O6  1  0.27521000  0.25000000  0.57939100  1
  O  O7  1  0.22478900  0.25000000  0.07939100  1
loop_
_geom_bond_atom_site_label_1
_geom_bond_atom_site_label_2
_geom_bond_distance
_geom_bond_site_symmetry_2
K0 O4 2.850978 1_555
K1 O5 2.850978 1_555
K2 O6 2.850978 1_555
K3 O7 2.850982 1_555
Ir0 N0 1.780183 1_655
Ir1 N1 1.780183 1_555
Ir2 N2 1.780183 1_455
Ir3 N3 1.780183 1_555
Br0 Ir0 2.540973 1_555
Br1 Ir1 2.540973 1_555
Br2 Ir2 2.540973 1_555
Br3 Ir3 2.540973 1_555
Br4 Ir2 2.540973 1_555
Br5 Ir3 2.540973 1_555
Br6 Ir0 2.540973 1_555
Br7 Ir1 2.540973 1_555
Br8 Ir0 2.530310 1_555
Br8 K3 3.663854 1_555
Br9 Ir1 2.530310 1_555
Br9 K2 3.663854 1_665
Br10 Ir2 2.530310 1_555
Br10 K1 3.663854 1_545
Br11 Ir3 2.530310 1_555
Br11 K0 3.663854 1_455
Br12 Ir2 2.530310 1_555
Br12 K1 3.663854 1_555
Br13 Ir3 2.530310 1_555
Br13 K0 3.663854 1_445
Br14 Ir0 2.530310 1_555
Br14 K3 3.663854 1_565
Br15 Ir1 2.530310 1_555
Br15 K2 3.663854 1_655
Br16 Ir0 2.465620 1_555
Br17 Ir1 2.465620 1_555
Br18 Ir2 2.465620 1_555
Br19 Ir3 2.465620 1_555
N0 O0 1.152495 1_555
N1 O1 1.152495 1_555
N2 O2 1.152495 1_555
N3 O3 1.152495 1_555
