# generated using pymatgen
data_Li5Co2Ni5O12
_symmetry_space_group_name_H-M   'P 1'
_cell_length_a   4.96304485
_cell_length_b   5.02396805
_cell_length_c   9.63792686
_cell_angle_alpha   95.24411267
_cell_angle_beta   79.74807313
_cell_angle_gamma   119.73695090
_symmetry_Int_Tables_number   1
_chemical_formula_structural   Li5Co2Ni5O12
_chemical_formula_sum   'Li5 Co2 Ni5 O12'
_cell_volume   205.33449964
_cell_formula_units_Z   1
loop_
 _symmetry_equiv_pos_site_id
 _symmetry_equiv_pos_as_xyz
  1  'x, y, z'
loop_
 _atom_site_type_symbol
 _atom_site_label
 _atom_site_symmetry_multiplicity
 _atom_site_fract_x
 _atom_site_fract_y
 _atom_site_fract_z
 _atom_site_occupancy
  Li  Li0  1  0.16413000  0.83614500  0.00446400  1
  Li  Li1  1  0.67469400  0.83853800  0.49576300  1
  Li  Li2  1  0.08450100  0.16851400  0.25038200  1
  Li  Li3  1  0.33474300  0.17245300  0.49467300  1
  Li  Li4  1  0.83517600  0.17149900  0.00393700  1
  Co  Co0  1  0.24763200  0.49724700  0.75023100  1
  Co  Co1  1  0.75011600  0.50140900  0.24973000  1
  Ni  Ni0  1  0.00238300  0.49266500  0.49588000  1
  Ni  Ni1  1  0.49297200  0.49281600  0.00345800  1
  Ni  Ni2  1  0.41828400  0.83832300  0.25000000  1
  Ni  Ni3  1  0.91540000  0.83094400  0.75007700  1
  Ni  Ni4  1  0.58513900  0.16691500  0.75028700  1
  O  O0  1  0.04805500  0.81143600  0.36345100  1
  O  O1  1  0.27244300  0.80844000  0.63730200  1
  O  O2  1  0.12904100  0.52908400  0.13767400  1
  O  O3  1  0.76088300  0.81042700  0.13574600  1
  O  O4  1  0.53800000  0.80934200  0.86485500  1
  O  O5  1  0.40082400  0.52733500  0.36353400  1
  O  O6  1  0.61786600  0.50455000  0.63189700  1
  O  O7  1  0.47624100  0.17991200  0.13404800  1
  O  O8  1  0.88882800  0.50400800  0.87130300  1
  O  O9  1  0.20890300  0.18478000  0.86775900  1
  O  O10  1  0.69713300  0.17559300  0.36245000  1
  O  O11  1  0.97543500  0.18527800  0.63110200  1
loop_
_geom_bond_atom_site_label_1
_geom_bond_atom_site_label_2
_geom_bond_distance
_geom_bond_site_symmetry_2
Li0 O2 2.018516 1_555
Li0 O8 2.066227 1_454
Li0 O3 2.120134 1_455
Li0 O7 2.140659 1_565
Li0 O4 2.144216 1_554
Li0 O9 2.187398 1_564
Li1 O5 2.015005 1_555
Li1 O6 2.101847 1_555
Li1 O0 2.110874 1_655
Li1 O1 2.153640 1_555
Li1 O11 2.159189 1_565
Li1 O10 2.165738 1_565
Li2 O7 2.041020 1_555
Li2 O10 2.045886 1_455
Li2 O5 2.084751 1_555
Li2 O2 2.094597 1_555
Li2 O0 2.098527 1_545
Li2 O3 2.106819 1_445
Li3 O10 2.004675 1_555
Li3 O11 2.043765 1_455
Li3 O6 2.107059 1_555
Li3 O5 2.137315 1_555
Li3 O0 2.138860 1_545
Li3 O1 2.253226 1_545
Li4 O7 2.004388 1_555
Li4 O9 2.047952 1_654
Li4 O8 2.079311 1_554
Li4 O3 2.152072 1_545
Li4 O2 2.159283 1_655
Li4 O4 2.208701 1_544
Co0 O1 1.927807 1_555
Co0 O11 1.929364 1_455
Co0 O9 1.931987 1_555
Co0 O4 1.940149 1_555
Co0 O8 1.961374 1_455
Co0 O6 1.968058 1_555
Co1 O10 1.930070 1_555
Co1 O7 1.931779 1_555
Co1 O5 1.935531 1_555
Co1 O2 1.941014 1_655
Co1 O0 1.947775 1_655
Co1 O3 1.956662 1_555
Ni0 O0 2.038568 1_555
Ni0 O11 2.049929 1_455
Ni0 O1 2.077659 1_555
Ni0 O5 2.090179 1_555
Ni0 O10 2.100324 1_455
Ni0 O6 2.138273 1_455
Ni1 O3 2.016549 1_555
Ni1 O9 2.053048 1_554
Ni1 O7 2.063308 1_555
Ni1 O4 2.071888 1_554
Ni1 O2 2.102528 1_555
Ni1 O8 2.120873 1_554
Ni2 O0 1.911995 1_555
Ni2 O3 1.914439 1_555
Ni2 O2 1.918248 1_555
Ni2 O5 1.946890 1_555
Ni2 O10 1.957770 1_565
Ni2 O7 2.005789 1_565
Ni3 O1 1.955743 1_655
Ni3 O4 1.956165 1_555
Ni3 O6 2.005479 1_555
Ni3 O8 2.039951 1_555
Ni3 O9 2.054040 1_665
Ni3 O11 2.073150 1_565
Ni4 O11 2.032305 1_555
Ni4 O9 2.042494 1_555
Ni4 O6 2.054307 1_555
Ni4 O8 2.057332 1_555
Ni4 O1 2.075592 1_545
Ni4 O4 2.086835 1_545
