# generated using pymatgen
data_Li2FePCO7
_symmetry_space_group_name_H-M   'P 1'
_cell_length_a   8.20907850
_cell_length_b   9.30578175
_cell_length_c   8.27029391
_cell_angle_alpha   107.13990858
_cell_angle_beta   76.26565656
_cell_angle_gamma   74.84100078
_symmetry_Int_Tables_number   1
_chemical_formula_structural   Li2FePCO7
_chemical_formula_sum   'Li8 Fe4 P4 C4 O28'
_cell_volume   547.79836929
_cell_formula_units_Z   4
loop_
 _symmetry_equiv_pos_site_id
 _symmetry_equiv_pos_as_xyz
  1  'x, y, z'
loop_
 _atom_site_type_symbol
 _atom_site_label
 _atom_site_symmetry_multiplicity
 _atom_site_fract_x
 _atom_site_fract_y
 _atom_site_fract_z
 _atom_site_occupancy
  Li  Li0  1  0.68812000  0.10151600  0.58161800  1
  Li  Li1  1  0.18821300  0.10142500  0.08156400  1
  Li  Li2  1  0.81189600  0.89851700  0.91831600  1
  Li  Li3  1  0.31194100  0.89851600  0.41832200  1
  Li  Li4  1  0.74506600  0.27193600  0.28774600  1
  Li  Li5  1  0.24520400  0.27179000  0.78769100  1
  Li  Li6  1  0.75477800  0.72822400  0.21232800  1
  Li  Li7  1  0.25490400  0.72822900  0.71242600  1
  Fe  Fe0  1  0.30992400  0.33050900  0.43521600  1
  Fe  Fe1  1  0.69026300  0.66921500  0.56444700  1
  Fe  Fe2  1  0.81002700  0.33027900  0.93530100  1
  Fe  Fe3  1  0.18979700  0.66942200  0.06485700  1
  P  P0  1  0.54484900  0.41858900  0.69874000  1
  P  P1  1  0.04502500  0.41848700  0.19851000  1
  P  P2  1  0.95499800  0.58146900  0.80145600  1
  P  P3  1  0.45500500  0.58148200  0.30142300  1
  C  C0  1  0.02563400  0.04774100  0.74499900  1
  C  C1  1  0.52557900  0.04782000  0.24505000  1
  C  C2  1  0.47458500  0.95210900  0.75480200  1
  C  C3  1  0.97440700  0.95234300  0.25500200  1
  O  O0  1  0.87356500  0.07435900  0.86714200  1
  O  O1  1  0.37354900  0.07439000  0.36716200  1
  O  O2  1  0.62660500  0.92551800  0.63269000  1
  O  O3  1  0.12641700  0.92570500  0.13283300  1
  O  O4  1  0.86067100  0.09120600  0.35643000  1
  O  O5  1  0.36079200  0.09100800  0.85617700  1
  O  O6  1  0.63933700  0.90898700  0.14360800  1
  O  O7  1  0.13941100  0.90890400  0.64364200  1
  O  O8  1  0.04918100  0.17934400  0.73443700  1
  O  O9  1  0.54913800  0.17943200  0.23452100  1
  O  O10  1  0.45098400  0.82056400  0.76542100  1
  O  O11  1  0.95073800  0.82079500  0.26566500  1
  O  O12  1  0.45832000  0.30007500  0.60955400  1
  O  O13  1  0.95836400  0.30008400  0.10942000  1
  O  O14  1  0.04159800  0.69991500  0.89067600  1
  O  O15  1  0.54166800  0.69990600  0.39048700  1
  O  O16  1  0.67005700  0.31833500  0.77067800  1
  O  O17  1  0.17014400  0.31842500  0.27059700  1
  O  O18  1  0.82982400  0.68163000  0.72943300  1
  O  O19  1  0.32978600  0.68161600  0.22942800  1
  O  O20  1  0.10016600  0.42562000  0.65649900  1
  O  O21  1  0.60005100  0.42563100  0.15638400  1
  O  O22  1  0.39972200  0.57450300  0.84363100  1
  O  O23  1  0.89995300  0.57428100  0.34349800  1
  O  O24  1  0.65806100  0.46076200  0.55147100  1
  O  O25  1  0.15812600  0.46081800  0.05142500  1
  O  O26  1  0.84175700  0.53928600  0.94865000  1
  O  O27  1  0.34180000  0.53928300  0.44862700  1
loop_
_geom_bond_atom_site_label_1
_geom_bond_atom_site_label_2
_geom_bond_distance
_geom_bond_site_symmetry_2
Li0 O2 1.963366 1_545
Li0 O4 2.013710 1_555
Li0 O16 2.100413 1_555
Li0 O12 2.178222 1_555
Li1 O3 1.962502 1_545
Li1 O5 2.014636 1_554
Li1 O17 2.101514 1_555
Li1 O13 2.179252 1_455
Li2 O0 1.962839 1_565
Li2 O6 2.013772 1_556
Li2 O18 2.100616 1_555
Li2 O14 2.178818 1_655
Li3 O1 1.962868 1_565
Li3 O7 2.014144 1_555
Li3 O19 2.100988 1_555
Li3 O15 2.178424 1_555
Li4 O4 2.009023 1_555
Li4 O9 2.087736 1_555
Li4 O13 2.133298 1_555
Li4 O24 2.167921 1_555
Li4 O21 2.298374 1_555
Li5 O5 2.008314 1_555
Li5 O8 2.088228 1_555
Li5 O12 2.132127 1_555
Li5 O25 2.168704 1_556
Li5 O20 2.298154 1_555
Li6 O6 2.009028 1_555
Li6 O11 2.088576 1_555
Li6 O15 2.132356 1_555
Li6 O26 2.168125 1_554
Li6 O23 2.299197 1_555
Li7 O7 2.008851 1_555
Li7 O10 2.087510 1_555
Li7 O14 2.133845 1_555
Li7 O27 2.168929 1_555
Li7 O22 2.296788 1_555
Fe0 O20 1.961998 1_555
Fe0 O17 1.975325 1_555
Fe0 O27 2.001979 1_555
Fe0 O9 2.054441 1_555
Fe0 O12 2.130103 1_555
Fe0 O1 2.165367 1_555
Fe1 O23 1.960153 1_555
Fe1 O18 1.976440 1_555
Fe1 O24 2.000812 1_555
Fe1 O10 2.056127 1_555
Fe1 O15 2.129019 1_555
Fe1 O2 2.166793 1_555
Fe2 O21 1.961867 1_556
Fe2 O16 1.976530 1_555
Fe2 O26 2.003749 1_555
Fe2 O8 2.054425 1_655
Fe2 O13 2.127816 1_556
Fe2 O0 2.163559 1_555
Fe3 O22 1.962554 1_554
Fe3 O19 1.976314 1_555
Fe3 O25 1.999712 1_555
Fe3 O11 2.054595 1_455
Fe3 O14 2.127969 1_554
Fe3 O3 2.167131 1_555
C0 O7 1.266113 1_545
C0 O8 1.312879 1_555
C0 O0 1.316114 1_455
C1 O6 1.266172 1_545
C1 O9 1.312915 1_555
C1 O1 1.315888 1_555
C2 O5 1.266547 1_565
C2 O10 1.312655 1_555
C2 O2 1.315773 1_555
C3 O4 1.266270 1_565
C3 O11 1.313004 1_555
C3 O3 1.315818 1_655
O12 P0 1.563312 1_555
O13 P1 1.563123 1_655
O14 P2 1.563421 1_455
O15 P3 1.563189 1_555
O16 P0 1.548166 1_555
O17 P1 1.547648 1_555
O18 P2 1.548036 1_555
O19 P3 1.547954 1_555
O20 P2 1.534156 1_455
O21 P3 1.534037 1_555
O22 P0 1.534176 1_555
O23 P1 1.533704 1_655
O24 P0 1.560821 1_555
O25 P1 1.560240 1_555
O26 P2 1.560552 1_555
O27 P3 1.560565 1_555
