# generated using pymatgen
data_Li3FeSiCO7
_symmetry_space_group_name_H-M   'P 1'
_cell_length_a   6.44814600
_cell_length_b   5.02306300
_cell_length_c   8.41370958
_cell_angle_alpha   86.75389909
_cell_angle_beta   90.00000000
_cell_angle_gamma   90.00000000
_symmetry_Int_Tables_number   1
_chemical_formula_structural   Li3FeSiCO7
_chemical_formula_sum   'Li6 Fe2 Si2 C2 O14'
_cell_volume   272.07812795
_cell_formula_units_Z   2
loop_
 _symmetry_equiv_pos_site_id
 _symmetry_equiv_pos_as_xyz
  1  'x, y, z'
loop_
 _atom_site_type_symbol
 _atom_site_label
 _atom_site_symmetry_multiplicity
 _atom_site_fract_x
 _atom_site_fract_y
 _atom_site_fract_z
 _atom_site_occupancy
  Li  Li0  1  0.75000000  0.24714900  0.89376600  1
  Li  Li1  1  0.97568400  0.76861800  0.72609900  1
  Li  Li2  1  0.52431600  0.76861800  0.72609900  1
  Li  Li3  1  0.47568400  0.23138200  0.27390100  1
  Li  Li4  1  0.02431600  0.23138200  0.27390100  1
  Li  Li5  1  0.25000000  0.75285100  0.10623400  1
  Fe  Fe0  1  0.25000000  0.20515100  0.65916900  1
  Fe  Fe1  1  0.75000000  0.79484900  0.34083100  1
  Si  Si0  1  0.75000000  0.28775200  0.57937900  1
  Si  Si1  1  0.25000000  0.71224800  0.42062100  1
  C  C0  1  0.25000000  0.27414500  0.96601600  1
  C  C1  1  0.75000000  0.72585500  0.03398400  1
  O  O0  1  0.75000000  0.65640900  0.88804700  1
  O  O1  1  0.25000000  0.02736500  0.92931700  1
  O  O2  1  0.25000000  0.45848500  0.84997900  1
  O  O3  1  0.94609500  0.18589400  0.69189800  1
  O  O4  1  0.55390500  0.18589400  0.69189800  1
  O  O5  1  0.75000000  0.61802600  0.55544500  1
  O  O6  1  0.25000000  0.82736300  0.59908800  1
  O  O7  1  0.75000000  0.17263700  0.40091200  1
  O  O8  1  0.25000000  0.38197400  0.44455500  1
  O  O9  1  0.44609500  0.81410600  0.30810200  1
  O  O10  1  0.05390500  0.81410600  0.30810200  1
  O  O11  1  0.75000000  0.54151500  0.15002100  1
  O  O12  1  0.75000000  0.97263500  0.07068300  1
  O  O13  1  0.25000000  0.34359100  0.11195300  1
loop_
_geom_bond_atom_site_label_1
_geom_bond_atom_site_label_2
_geom_bond_distance
_geom_bond_site_symmetry_2
Li0 O12 1.970948 1_546
Li0 O0 2.053576 1_555
Li0 O3 2.153474 1_555
Li0 O4 2.153474 1_555
Li1 O0 2.050628 1_555
Li1 O6 2.078965 1_655
Li1 O3 2.108111 1_565
Li1 O5 2.207837 1_555
Li1 O2 2.541267 1_655
Li2 O0 2.050628 1_555
Li2 O6 2.078965 1_555
Li2 O4 2.108111 1_565
Li2 O5 2.207837 1_555
Li2 O2 2.541267 1_555
Li3 O13 2.050628 1_555
Li3 O7 2.078965 1_555
Li3 O9 2.108111 1_545
Li3 O8 2.207837 1_555
Li3 O11 2.541267 1_555
Li4 O13 2.050628 1_555
Li4 O7 2.078965 1_455
Li4 O10 2.108111 1_545
Li4 O8 2.207837 1_555
Li4 O11 2.541267 1_455
Li5 O1 1.970948 1_564
Li5 O13 2.053576 1_555
Li5 O9 2.153474 1_555
Li5 O10 2.153474 1_555
Fe0 O8 1.966674 1_555
Fe0 O4 1.980479 1_555
Fe0 O3 1.980479 1_455
Fe0 O6 1.991296 1_545
Fe0 O2 2.104286 1_555
Fe0 O1 2.394559 1_555
Fe1 O5 1.966674 1_555
Fe1 O10 1.980479 1_655
Fe1 O9 1.980479 1_555
Fe1 O7 1.991296 1_565
Fe1 O11 2.104286 1_555
Fe1 O12 2.394559 1_555
C0 O1 1.294324 1_555
C0 O13 1.295322 1_556
C0 O2 1.306971 1_555
C1 O12 1.294324 1_555
C1 O0 1.295322 1_554
C1 O11 1.306971 1_555
O3 Si0 1.643775 1_555
O4 Si0 1.643775 1_555
O5 Si0 1.659806 1_555
O6 Si1 1.639326 1_555
O7 Si0 1.639326 1_555
O8 Si1 1.659806 1_555
O9 Si1 1.643775 1_555
O10 Si1 1.643775 1_555
