# generated using pymatgen
data_Na(CuO)2
_symmetry_space_group_name_H-M   'P 1'
_cell_length_a   5.97880435
_cell_length_b   5.97880339
_cell_length_c   13.04841518
_cell_angle_alpha   90.00001150
_cell_angle_beta   90.00009150
_cell_angle_gamma   89.99999770
_symmetry_Int_Tables_number   1
_chemical_formula_structural   Na(CuO)2
_chemical_formula_sum   'Na8 Cu16 O16'
_cell_volume   466.42989797
_cell_formula_units_Z   8
loop_
 _symmetry_equiv_pos_site_id
 _symmetry_equiv_pos_as_xyz
  1  'x, y, z'
loop_
 _atom_site_type_symbol
 _atom_site_label
 _atom_site_symmetry_multiplicity
 _atom_site_fract_x
 _atom_site_fract_y
 _atom_site_fract_z
 _atom_site_occupancy
  Na  Na0  1  0.26164236  -0.00000012  0.07735526  1
  Na  Na1  1  0.50000116  0.76163581  0.57735603  1
  Na  Na2  1  0.50000118  0.23836424  0.57735614  1
  Na  Na3  1  0.73835359  -0.00000014  0.07735551  1
  Na  Na4  1  0.76163281  0.50000018  0.42264370  1
  Na  Na5  1  0.00000069  0.73835571  0.92264507  1
  Na  Na6  1  0.00000067  0.26164423  0.92264497  1
  Na  Na7  1  0.23836158  0.50000017  0.42264384  1
  Cu  Cu0  1  0.25183708  0.50000000  0.10934477  1
  Cu  Cu1  1  0.25149431  0.49999990  0.74432305  1
  Cu  Cu2  1  0.50000233  0.25183150  0.89065561  1
  Cu  Cu3  1  0.49999996  0.25149500  0.25567833  1
  Cu  Cu4  1  0.49999989  0.74850511  0.25567795  1
  Cu  Cu5  1  0.50000214  0.74816852  0.89065491  1
  Cu  Cu6  1  0.74850485  0.49999989  0.74432138  1
  Cu  Cu7  1  0.74817459  0.49999997  0.10934460  1
  Cu  Cu8  1  0.75183899  0.00000011  0.39066313  1
  Cu  Cu9  1  0.75151997  0.00000013  0.75565185  1
  Cu  Cu10  1  -0.00000075  0.75152011  0.24434829  1
  Cu  Cu11  1  -0.00000077  0.24847977  0.24434794  1
  Cu  Cu12  1  0.00000346  0.75183247  0.60933781  1
  Cu  Cu13  1  0.00000351  0.24816739  0.60933750  1
  Cu  Cu14  1  0.24847956  0.00000021  0.75565215  1
  Cu  Cu15  1  0.24817254  0.00000002  0.39066273  1
  O  O0  1  0.28045103  -0.00000004  0.89677779  1
  O  O1  1  0.28306681  0.49999994  0.88420915  1
  O  O2  1  0.49999855  0.28306589  0.11579145  1
  O  O3  1  0.49999814  0.78046220  0.39679784  1
  O  O4  1  0.49999813  0.21953789  0.39679813  1
  O  O5  1  0.49999857  0.71693394  0.11579123  1
  O  O6  1  0.71693284  0.49999997  0.88420854  1
  O  O7  1  0.71954049  -0.00000002  0.89677698  1
  O  O8  1  0.78046024  0.49999999  0.60320185  1
  O  O9  1  0.78306906  -0.00000002  0.61576757  1
  O  O10  1  -0.00000329  0.71954470  0.10322266  1
  O  O11  1  -0.00000329  0.28045520  0.10322243  1
  O  O12  1  -0.00000123  0.78306943  0.38423302  1
  O  O13  1  -0.00000123  0.21693077  0.38423286  1
  O  O14  1  0.21693088  -0.00000001  0.61576695  1
  O  O15  1  0.21953659  0.49999999  0.60320304  1
loop_
_geom_bond_atom_site_label_1
_geom_bond_atom_site_label_2
_geom_bond_distance
_geom_bond_site_symmetry_2
Na0 O5 2.268612 1_545
Na0 O2 2.268613 1_555
Na0 O11 2.317900 1_555
Na0 O10 2.317901 1_545
Na0 O0 2.358932 1_554
Na1 O9 2.268580 1_565
Na1 O14 2.268590 1_565
Na1 O8 2.317836 1_555
Na1 O15 2.317863 1_555
Na1 O3 2.358686 1_555
Na2 O9 2.268580 1_555
Na2 O14 2.268590 1_555
Na2 O8 2.317835 1_555
Na2 O15 2.317862 1_555
Na2 O4 2.358683 1_555
Na3 O5 2.268608 1_545
Na3 O2 2.268609 1_555
Na3 O10 2.317889 1_645
Na3 O11 2.317889 1_655
Na3 O7 2.358947 1_554
Na4 O12 2.268591 1_655
Na4 O13 2.268592 1_655
Na4 O3 2.317844 1_555
Na4 O4 2.317845 1_555
Na4 O8 2.358685 1_555
Na5 O1 2.268612 1_555
Na5 O6 2.268620 1_455
Na5 O0 2.317874 1_565
Na5 O7 2.317917 1_465
Na5 O10 2.358934 1_556
Na6 O1 2.268612 1_555
Na6 O6 2.268620 1_455
Na6 O0 2.317874 1_555
Na6 O7 2.317917 1_455
Na6 O11 2.358932 1_556
Na7 O12 2.268579 1_555
Na7 O13 2.268580 1_555
Na7 O3 2.317853 1_555
Na7 O4 2.317853 1_555
Na7 O15 2.358698 1_555
Cu0 O5 1.972483 1_555
Cu0 O2 1.972484 1_555
Cu0 O10 1.999121 1_555
Cu0 O11 1.999121 1_555
Cu1 O1 1.835026 1_555
Cu1 O15 1.851279 1_555
Cu2 O6 1.972502 1_555
Cu2 O1 1.972521 1_555
Cu2 O7 1.999055 1_555
Cu2 O0 1.999107 1_555
Cu3 O2 1.835036 1_555
Cu3 O4 1.851276 1_555
Cu4 O5 1.835034 1_555
Cu4 O3 1.851277 1_555
Cu5 O6 1.972502 1_555
Cu5 O1 1.972520 1_555
Cu5 O7 1.999056 1_565
Cu5 O0 1.999106 1_565
Cu6 O6 1.835040 1_555
Cu6 O8 1.851272 1_555
Cu7 O5 1.972549 1_555
Cu7 O2 1.972550 1_555
Cu7 O10 1.999039 1_655
Cu7 O11 1.999039 1_655
Cu8 O12 1.972454 1_645
Cu8 O13 1.972454 1_655
Cu8 O4 1.999103 1_555
Cu8 O3 1.999103 1_545
Cu9 O9 1.834989 1_555
Cu9 O7 1.851359 1_555
Cu10 O12 1.834995 1_555
Cu10 O10 1.851363 1_555
Cu11 O13 1.834997 1_555
Cu11 O11 1.851361 1_555
Cu12 O14 1.972475 1_565
Cu12 O9 1.972503 1_465
Cu12 O15 1.999046 1_555
Cu12 O8 1.999087 1_455
Cu13 O14 1.972475 1_555
Cu13 O9 1.972503 1_455
Cu13 O15 1.999047 1_555
Cu13 O8 1.999087 1_455
Cu14 O14 1.835000 1_555
Cu14 O0 1.851360 1_555
Cu15 O12 1.972516 1_545
Cu15 O13 1.972517 1_555
Cu15 O3 1.999034 1_545
Cu15 O4 1.999034 1_555
