# generated using pymatgen
data_Ba2Y5Cl19
_symmetry_space_group_name_H-M   'P 1'
_cell_length_a   9.39337000
_cell_length_b   7.44765500
_cell_length_c   31.12220177
_cell_angle_alpha   77.18034618
_cell_angle_beta   90.00000000
_cell_angle_gamma   90.00000000
_symmetry_Int_Tables_number   1
_chemical_formula_structural   Ba2Y5Cl19
_chemical_formula_sum   'Ba4 Y10 Cl38'
_cell_volume   2122.99298204
_cell_formula_units_Z   2
loop_
 _symmetry_equiv_pos_site_id
 _symmetry_equiv_pos_as_xyz
  1  'x, y, z'
loop_
 _atom_site_type_symbol
 _atom_site_label
 _atom_site_symmetry_multiplicity
 _atom_site_fract_x
 _atom_site_fract_y
 _atom_site_fract_z
 _atom_site_occupancy
  Ba  Ba0  1  0.98083200  0.31292900  0.20668700  1
  Ba  Ba1  1  0.48083200  0.68707100  0.29331300  1
  Ba  Ba2  1  0.51916800  0.31292900  0.70668700  1
  Ba  Ba3  1  0.01916800  0.68707100  0.79331300  1
  Y  Y0  1  0.33249200  0.42887200  0.06913500  1
  Y  Y1  1  0.85931700  0.87632000  0.63591100  1
  Y  Y2  1  0.50000000  0.00000000  0.50000000  1
  Y  Y3  1  0.83249200  0.57112800  0.43086500  1
  Y  Y4  1  0.64068300  0.87632000  0.13591100  1
  Y  Y5  1  0.00000000  0.00000000  0.00000000  1
  Y  Y6  1  0.35931700  0.12368000  0.86408900  1
  Y  Y7  1  0.16750800  0.42887200  0.56913500  1
  Y  Y8  1  0.14068300  0.12368000  0.36408900  1
  Y  Y9  1  0.66750800  0.57112800  0.93086500  1
  Cl  Cl0  1  0.50000000  0.50000000  0.00000000  1
  Cl  Cl1  1  0.76833400  0.65966200  0.85116500  1
  Cl  Cl2  1  0.66249300  0.92309700  0.57134900  1
  Cl  Cl3  1  0.05860500  0.81961300  0.69694000  1
  Cl  Cl4  1  0.25648600  0.85216800  0.83242600  1
  Cl  Cl5  1  0.67803100  0.26416500  0.45819300  1
  Cl  Cl6  1  0.87103300  0.74689500  0.96550700  1
  Cl  Cl7  1  0.31517200  0.33855600  0.30706200  1
  Cl  Cl8  1  0.53588800  0.60157700  0.10397600  1
  Cl  Cl9  1  0.03240600  0.10679000  0.58428400  1
  Cl  Cl10  1  0.03588800  0.39842300  0.39602400  1
  Cl  Cl11  1  0.81517200  0.66144400  0.19293800  1
  Cl  Cl12  1  0.17803100  0.73583500  0.04180700  1
  Cl  Cl13  1  0.53240600  0.89321000  0.91571600  1
  Cl  Cl14  1  0.37103300  0.25310500  0.53449300  1
  Cl  Cl15  1  0.75648600  0.14783200  0.66757400  1
  Cl  Cl16  1  0.55860500  0.18038700  0.80306000  1
  Cl  Cl17  1  0.73166600  0.65966200  0.35116500  1
  Cl  Cl18  1  0.83750700  0.92309700  0.07134900  1
  Cl  Cl19  1  0.16249300  0.07690300  0.92865100  1
  Cl  Cl20  1  0.26833400  0.34033800  0.64883500  1
  Cl  Cl21  1  0.44139500  0.81961300  0.19694000  1
  Cl  Cl22  1  0.00000000  0.50000000  0.50000000  1
  Cl  Cl23  1  0.24351400  0.85216800  0.33242600  1
  Cl  Cl24  1  0.62896700  0.74689500  0.46550700  1
  Cl  Cl25  1  0.46759400  0.10679000  0.08428400  1
  Cl  Cl26  1  0.82196900  0.26416500  0.95819300  1
  Cl  Cl27  1  0.18482800  0.33855600  0.80706200  1
  Cl  Cl28  1  0.96411200  0.60157700  0.60397600  1
  Cl  Cl29  1  0.96759400  0.89321000  0.41571600  1
  Cl  Cl30  1  0.46411200  0.39842300  0.89602400  1
  Cl  Cl31  1  0.68482800  0.66144400  0.69293800  1
  Cl  Cl32  1  0.12896700  0.25310500  0.03449300  1
  Cl  Cl33  1  0.32196900  0.73583500  0.54180700  1
  Cl  Cl34  1  0.74351400  0.14783200  0.16757400  1
  Cl  Cl35  1  0.94139500  0.18038700  0.30306000  1
  Cl  Cl36  1  0.33750700  0.07690300  0.42865100  1
  Cl  Cl37  1  0.23166600  0.34033800  0.14883500  1
loop_
_geom_bond_atom_site_label_1
_geom_bond_atom_site_label_2
_geom_bond_distance
_geom_bond_site_symmetry_2
Ba0 Cl34 2.937221 1_555
Ba0 Cl37 2.944804 1_655
Ba0 Cl35 2.965437 1_555
Ba0 Cl11 2.974715 1_555
Ba1 Cl23 2.937221 1_555
Ba1 Cl17 2.944804 1_555
Ba1 Cl21 2.965437 1_555
Ba1 Cl7 2.974715 1_555
Ba2 Cl15 2.937221 1_555
Ba2 Cl20 2.944804 1_555
Ba2 Cl16 2.965437 1_555
Ba2 Cl31 2.974715 1_555
Ba3 Cl4 2.937221 1_555
Ba3 Cl1 2.944804 1_455
Ba3 Cl3 2.965437 1_555
Ba3 Cl27 2.974715 1_555
Cl0 Y9 2.623001 1_554
Cl0 Y0 2.623001 1_555
Cl1 Y9 2.599721 1_555
Cl2 Y2 2.650322 1_565
Cl2 Y1 2.695603 1_555
Cl3 Y1 2.633302 1_455
Cl4 Y6 2.622470 1_565
Cl5 Y3 2.681818 1_555
Cl5 Y2 2.687802 1_555
Cl6 Y5 2.659199 1_666
Cl6 Y9 2.675298 1_555
Cl7 Y8 2.671518 1_555
Cl8 Y4 2.654466 1_555
Cl8 Y0 2.664474 1_555
Cl9 Y1 2.635814 1_445
Cl9 Y7 2.661759 1_555
Cl10 Y8 2.654466 1_555
Cl10 Y3 2.664474 1_455
Cl11 Y4 2.671518 1_555
Cl12 Y0 2.681818 1_555
Cl12 Y5 2.687802 1_565
Cl13 Y6 2.635814 1_565
Cl13 Y9 2.661759 1_555
Cl14 Y2 2.659199 1_555
Cl14 Y7 2.675298 1_555
Cl15 Y1 2.622470 1_545
Cl16 Y6 2.633302 1_555
Cl17 Y3 2.599721 1_555
Cl18 Y5 2.650322 1_665
Cl18 Y4 2.695603 1_555
Cl19 Y5 2.650322 1_556
Cl19 Y6 2.695603 1_555
Cl20 Y7 2.599721 1_555
Cl21 Y4 2.633302 1_555
Cl22 Y7 2.623001 1_555
Cl22 Y3 2.623001 1_455
Cl23 Y8 2.622470 1_565
Cl24 Y2 2.659199 1_565
Cl24 Y3 2.675298 1_555
Cl25 Y4 2.635814 1_545
Cl25 Y0 2.661759 1_555
Cl26 Y9 2.681818 1_555
Cl26 Y5 2.687802 1_656
Cl27 Y6 2.671518 1_555
Cl28 Y1 2.654466 1_555
Cl28 Y7 2.664474 1_655
Cl29 Y8 2.635814 1_665
Cl29 Y3 2.661759 1_555
Cl30 Y6 2.654466 1_555
Cl30 Y9 2.664474 1_555
Cl31 Y1 2.671518 1_555
Cl32 Y5 2.659199 1_555
Cl32 Y0 2.675298 1_555
Cl33 Y7 2.681818 1_555
Cl33 Y2 2.687802 1_565
Cl34 Y4 2.622470 1_545
Cl35 Y8 2.633302 1_655
Cl36 Y2 2.650322 1_555
Cl36 Y8 2.695603 1_555
Cl37 Y0 2.599721 1_555
