# generated using pymatgen
data_Li4CoSn3(PO4)4
_symmetry_space_group_name_H-M   'P 1'
_cell_length_a   6.76970200
_cell_length_b   4.85562900
_cell_length_c   10.93427889
_cell_angle_alpha   88.79380630
_cell_angle_beta   90.00000000
_cell_angle_gamma   90.00000000
_symmetry_Int_Tables_number   1
_chemical_formula_structural   Li4CoSn3(PO4)4
_chemical_formula_sum   'Li4 Co1 Sn3 P4 O16'
_cell_volume   359.34280246
_cell_formula_units_Z   1
loop_
 _symmetry_equiv_pos_site_id
 _symmetry_equiv_pos_as_xyz
  1  'x, y, z'
loop_
 _atom_site_type_symbol
 _atom_site_label
 _atom_site_symmetry_multiplicity
 _atom_site_fract_x
 _atom_site_fract_y
 _atom_site_fract_z
 _atom_site_occupancy
  Li  Li0  1  0.27374100  0.96681900  0.00753900  1
  Li  Li1  1  0.72625900  0.96681900  0.00753900  1
  Li  Li2  1  0.75686400  0.49778100  0.48717800  1
  Li  Li3  1  0.24313600  0.49778100  0.48717800  1
  Co  Co0  1  0.00000000  0.03555600  0.27156500  1
  Sn  Sn0  1  0.00000000  0.46645400  0.78153300  1
  Sn  Sn1  1  0.50000000  0.54179100  0.21776900  1
  Sn  Sn2  1  0.50000000  0.94285700  0.70402200  1
  P  P0  1  0.50000000  0.09554200  0.41628200  1
  P  P1  1  0.50000000  0.38031300  0.92888000  1
  P  P2  1  0.00000000  0.62320200  0.10158000  1
  P  P3  1  0.00000000  0.91548400  0.55640700  1
  O  O0  1  0.50000000  0.23667400  0.54630100  1
  O  O1  1  0.31364400  0.21370700  0.34770300  1
  O  O2  1  0.68635600  0.21370700  0.34770300  1
  O  O3  1  0.00000000  0.23161700  0.55445000  1
  O  O4  1  0.00000000  0.30863600  0.12041400  1
  O  O5  1  0.31474800  0.27444700  0.85695500  1
  O  O6  1  0.68525200  0.27444700  0.85695500  1
  O  O7  1  0.50000000  0.22114900  0.05515500  1
  O  O8  1  0.00000000  0.71785600  0.96323800  1
  O  O9  1  0.81934000  0.76848100  0.16219900  1
  O  O10  1  0.18066000  0.76848100  0.16219900  1
  O  O11  1  0.50000000  0.69197400  0.94891900  1
  O  O12  1  0.50000000  0.78056300  0.43101500  1
  O  O13  1  0.81729500  0.78842000  0.62691300  1
  O  O14  1  0.18270500  0.78842000  0.62691300  1
  O  O15  1  0.00000000  0.79102400  0.42549500  1
loop_
_geom_bond_atom_site_label_1
_geom_bond_atom_site_label_2
_geom_bond_distance
_geom_bond_site_symmetry_2
Li0 O10 2.028738 1_555
Li0 O7 2.041892 1_565
Li0 O11 2.138688 1_554
Li0 O5 2.217159 1_564
Li0 O8 2.270422 1_554
Li1 O9 2.028738 1_555
Li1 O7 2.041892 1_565
Li1 O11 2.138688 1_554
Li1 O6 2.217159 1_564
Li1 O8 2.270422 1_654
Li2 O2 2.131860 1_555
Li2 O13 2.141077 1_555
Li2 O3 2.209186 1_655
Li2 O0 2.239325 1_555
Li2 O15 2.269598 1_655
Li2 O12 2.291447 1_555
Li3 O1 2.131860 1_555
Li3 O14 2.141077 1_555
Li3 O3 2.209186 1_555
Li3 O0 2.239325 1_555
Li3 O15 2.269598 1_555
Li3 O12 2.291447 1_555
Co0 O15 2.039252 1_545
Co0 O4 2.097011 1_555
Co0 O9 2.161670 1_445
Co0 O10 2.161670 1_545
Co0 O1 2.445401 1_555
Co0 O2 2.445401 1_455
O0 P0 1.591151 1_555
O0 Sn2 2.214931 1_545
O1 P0 1.570018 1_555
O1 Sn1 2.460201 1_555
O2 P0 1.570018 1_555
O2 Sn1 2.460201 1_555
O3 P3 1.534723 1_545
O3 Sn0 2.754029 1_555
O4 P2 1.536934 1_555
O5 P1 1.572429 1_555
O5 Sn0 2.461106 1_555
O5 Sn2 2.659843 1_545
O6 P1 1.572429 1_555
O6 Sn0 2.461106 1_655
O6 Sn2 2.659843 1_545
O7 P1 1.568044 1_554
O7 Sn1 2.387900 1_555
O8 P2 1.571667 1_556
O8 Sn0 2.353653 1_555
O9 P2 1.566016 1_655
O9 Sn1 2.495229 1_555
O10 P2 1.566016 1_555
O10 Sn1 2.495229 1_555
O11 P1 1.533649 1_555
O12 P0 1.534506 1_565
O12 Sn1 2.625791 1_555
O13 P3 1.576321 1_655
O13 Sn2 2.431809 1_555
O13 Sn0 2.592474 1_655
O14 P3 1.576321 1_555
O14 Sn2 2.431809 1_555
O14 Sn0 2.592474 1_555
O15 P3 1.565447 1_555
