# generated using pymatgen
data_SrU(SeO4)2
_symmetry_space_group_name_H-M   'P 1'
_cell_length_a   5.81231600
_cell_length_b   6.88887019
_cell_length_c   11.47307535
_cell_angle_alpha   104.76538068
_cell_angle_beta   94.04440417
_cell_angle_gamma   109.42836122
_symmetry_Int_Tables_number   1
_chemical_formula_structural   SrU(SeO4)2
_chemical_formula_sum   'Sr2 U2 Se4 O16'
_cell_volume   412.80096662
_cell_formula_units_Z   2
loop_
 _symmetry_equiv_pos_site_id
 _symmetry_equiv_pos_as_xyz
  1  'x, y, z'
loop_
 _atom_site_type_symbol
 _atom_site_label
 _atom_site_symmetry_multiplicity
 _atom_site_fract_x
 _atom_site_fract_y
 _atom_site_fract_z
 _atom_site_occupancy
  Sr  Sr0  1  0.20683100  0.62617000  0.56254800  1
  Sr  Sr1  1  0.79316900  0.37383000  0.43745200  1
  U  U0  1  0.84252400  0.93624900  0.16320400  1
  U  U1  1  0.15747600  0.06375100  0.83679600  1
  Se  Se0  1  0.94332400  0.43574700  0.87767100  1
  Se  Se1  1  0.04413900  0.00838800  0.34168900  1
  Se  Se2  1  0.05667600  0.56425300  0.12232900  1
  Se  Se3  1  0.95586100  0.99161200  0.65831100  1
  O  O0  1  0.03377600  0.80572900  0.02969200  1
  O  O1  1  0.80409500  0.26809400  0.15765900  1
  O  O2  1  0.74086700  0.84340800  0.91095200  1
  O  O3  1  0.25913300  0.15659200  0.08904800  1
  O  O4  1  0.06614600  0.76836300  0.42684500  1
  O  O5  1  0.17598100  0.47449200  0.75273600  1
  O  O6  1  0.58159200  0.29595600  0.75704700  1
  O  O7  1  0.78938000  0.00898200  0.44253200  1
  O  O8  1  0.41840800  0.70404400  0.24295300  1
  O  O9  1  0.96622400  0.19427100  0.97030800  1
  O  O10  1  0.93385400  0.23163700  0.57315500  1
  O  O11  1  0.82401900  0.52550800  0.24726400  1
  O  O12  1  0.21062000  0.99101800  0.55746800  1
  O  O13  1  0.24247900  0.20414900  0.65858800  1
  O  O14  1  0.75752100  0.79585100  0.34141200  1
  O  O15  1  0.19590500  0.73190600  0.84234100  1
loop_
_geom_bond_atom_site_label_1
_geom_bond_atom_site_label_2
_geom_bond_distance
_geom_bond_site_symmetry_2
Se1 U0 2.137506 1_445
Se3 U1 2.137506 1_665
O0 U0 2.143269 1_455
O0 Se2 2.223306 1_555
O1 O11 1.769804 1_555
O1 Se2 2.234926 1_655
O1 U0 2.385732 1_545
O1 Sr1 3.115595 1_555
O2 U1 2.719391 1_665
O2 U0 2.774512 1_556
O3 U0 2.719391 1_445
O3 U1 2.774512 1_554
O4 Se1 2.156728 1_565
O4 Sr0 2.276585 1_555
O4 Sr1 2.691871 1_455
O5 Se0 2.045192 1_455
O5 Sr0 2.641584 1_555
O6 Se0 2.196913 1_555
O6 U1 2.813113 1_555
O7 Se1 1.942804 1_655
O7 Sr1 2.521714 1_555
O8 Se2 2.196913 1_555
O8 U0 2.813113 1_555
O9 U1 2.143269 1_655
O9 Se0 2.223306 1_555
O10 O7 1.760026 1_555
O10 Se3 2.156728 1_545
O10 Sr1 2.276585 1_555
O10 Sr0 2.691871 1_655
O11 Se2 2.045192 1_655
O11 Sr1 2.641584 1_555
O12 O13 1.567333 1_565
O12 O4 1.760026 1_555
O12 Se3 1.942804 1_455
O12 Sr0 2.521714 1_555
O13 Se3 1.814723 1_445
O13 O6 2.013328 1_555
O14 O7 1.567333 1_565
O14 Se1 1.814723 1_665
O14 O8 2.013328 1_555
O15 O5 1.769804 1_555
O15 Se0 2.234926 1_455
O15 U1 2.385732 1_565
O15 Sr0 3.115595 1_555
