# generated using pymatgen
data_Li7Nb2Fe3O16
_symmetry_space_group_name_H-M   'P 1'
_cell_length_a   5.92204893
_cell_length_b   5.92204893
_cell_length_c   9.61220344
_cell_angle_alpha   88.59255698
_cell_angle_beta   88.59255698
_cell_angle_gamma   57.89908894
_symmetry_Int_Tables_number   1
_chemical_formula_structural   Li7Nb2Fe3O16
_chemical_formula_sum   'Li7 Nb2 Fe3 O16'
_cell_volume   285.45481257
_cell_formula_units_Z   1
loop_
 _symmetry_equiv_pos_site_id
 _symmetry_equiv_pos_as_xyz
  1  'x, y, z'
loop_
 _atom_site_type_symbol
 _atom_site_label
 _atom_site_symmetry_multiplicity
 _atom_site_fract_x
 _atom_site_fract_y
 _atom_site_fract_z
 _atom_site_occupancy
  Li  Li0  1  0.33525500  0.82547000  0.20928700  1
  Li  Li1  1  0.67436900  0.67436900  0.90327700  1
  Li  Li2  1  0.99288600  0.99288600  0.00068600  1
  Li  Li3  1  0.99671000  0.99671000  0.48855400  1
  Li  Li4  1  0.82547000  0.33525500  0.20928700  1
  Li  Li5  1  0.16641400  0.16641400  0.71095100  1
  Li  Li6  1  0.33516700  0.33516700  0.39651500  1
  Nb  Nb0  1  0.63978800  0.63978800  0.47649800  1
  Nb  Nb1  1  0.32522800  0.32522800  0.00276700  1
  Fe  Fe0  1  0.82320000  0.82320000  0.22427800  1
  Fe  Fe1  1  0.16613700  0.65831900  0.71612200  1
  Fe  Fe2  1  0.65831900  0.16613700  0.71612200  1
  O  O0  1  0.32445500  0.81866400  0.59888600  1
  O  O1  1  0.51186700  0.51186700  0.35128400  1
  O  O2  1  0.68978200  0.68978200  0.11250700  1
  O  O3  1  0.97511000  0.97511000  0.30081000  1
  O  O4  1  0.98843500  0.98843500  0.80788900  1
  O  O5  1  0.81866400  0.32445500  0.59888600  1
  O  O6  1  0.53689200  0.96228600  0.34774700  1
  O  O7  1  0.96228600  0.53689200  0.34774700  1
  O  O8  1  0.16108800  0.16108800  0.07391000  1
  O  O9  1  0.84329600  0.84329600  0.61266900  1
  O  O10  1  0.04413500  0.50778700  0.83399100  1
  O  O11  1  0.50778700  0.04413500  0.83399100  1
  O  O12  1  0.34724500  0.34724500  0.61151000  1
  O  O13  1  0.15182300  0.65708600  0.09719900  1
  O  O14  1  0.48534700  0.48534700  0.82747900  1
  O  O15  1  0.65708600  0.15182300  0.09719900  1
loop_
_geom_bond_atom_site_label_1
_geom_bond_atom_site_label_2
_geom_bond_distance
_geom_bond_site_symmetry_2
Li0 O3 2.011323 1_455
Li0 O2 2.016635 1_555
Li0 O1 2.070535 1_555
Li0 O8 2.113663 1_565
Li0 O13 2.144008 1_555
Li0 O6 2.238972 1_555
Li1 O11 1.968892 1_565
Li1 O10 1.968892 1_655
Li1 O2 2.021960 1_556
Li1 O14 2.109227 1_555
Li2 O4 1.855072 1_554
Li2 O8 1.898226 1_665
Li2 O15 1.914183 1_565
Li2 O13 1.914183 1_655
Li3 O3 1.824691 1_555
Li3 O9 1.960845 1_555
Li3 O5 1.968445 1_565
Li3 O0 1.968445 1_655
Li4 O3 2.011323 1_545
Li4 O2 2.016635 1_555
Li4 O1 2.070535 1_555
Li4 O8 2.113663 1_655
Li4 O15 2.144008 1_555
Li4 O7 2.238972 1_555
Li5 O4 2.043106 1_445
Li5 O0 2.070825 1_545
Li5 O5 2.070825 1_455
Li5 O12 2.079793 1_555
Li5 O10 2.128279 1_555
Li5 O11 2.128279 1_555
Li6 O1 1.870332 1_555
Li6 O7 1.934612 1_455
Li6 O6 1.934612 1_545
Li6 O12 2.073868 1_555
Nb0 O1 1.815465 1_555
Nb0 O5 1.960662 1_555
Nb0 O0 1.960662 1_555
Nb0 O6 2.057788 1_555
Nb0 O7 2.057788 1_555
Nb0 O9 2.513338 1_555
Nb1 O8 1.815573 1_555
Nb1 O15 1.907268 1_555
Nb1 O13 1.907268 1_555
Nb1 O11 2.169220 1_554
Nb1 O10 2.169220 1_554
Nb1 O14 2.331492 1_554
Fe0 O3 1.756409 1_555
Fe0 O2 1.774737 1_555
Fe0 O6 1.851120 1_555
Fe0 O7 1.851120 1_555
Fe0 O15 2.038312 1_565
Fe0 O13 2.038312 1_655
Fe1 O10 1.787475 1_555
Fe1 O12 1.869016 1_555
Fe1 O4 1.886783 1_455
Fe1 O9 1.912612 1_455
Fe1 O14 1.938046 1_555
Fe1 O0 1.972907 1_555
Fe2 O11 1.787475 1_555
Fe2 O12 1.869016 1_555
Fe2 O4 1.886783 1_545
Fe2 O9 1.912612 1_545
Fe2 O14 1.938046 1_555
Fe2 O5 1.972907 1_555
