# generated using pymatgen
data_LiVP3HO10
_symmetry_space_group_name_H-M   'P 1'
_cell_length_a   6.39796254
_cell_length_b   6.39796254
_cell_length_c   6.35060402
_cell_angle_alpha   72.44509693
_cell_angle_beta   72.44509693
_cell_angle_gamma   85.33102069
_symmetry_Int_Tables_number   1
_chemical_formula_structural   LiVP3HO10
_chemical_formula_sum   'Li1 V1 P3 H1 O10'
_cell_volume   236.29278483
_cell_formula_units_Z   1
loop_
 _symmetry_equiv_pos_site_id
 _symmetry_equiv_pos_as_xyz
  1  'x, y, z'
loop_
 _atom_site_type_symbol
 _atom_site_label
 _atom_site_symmetry_multiplicity
 _atom_site_fract_x
 _atom_site_fract_y
 _atom_site_fract_z
 _atom_site_occupancy
  Li  Li0  1  0.99480500  0.00519500  0.50000000  1
  V  V0  1  0.33561400  0.66438600  0.00000000  1
  P  P0  1  0.80100900  0.55532800  0.10040500  1
  P  P1  1  0.42960300  0.57039700  0.50000000  1
  P  P2  1  0.44467200  0.19899100  0.89959500  1
  H  H0  1  0.75497900  0.24502100  0.00000000  1
  O  O0  1  0.66166100  0.66780300  0.94093800  1
  O  O1  1  0.32669400  0.98194500  0.97878300  1
  O  O2  1  0.39242400  0.72078600  0.64929600  1
  O  O3  1  0.68374600  0.59509100  0.35306600  1
  O  O4  1  0.69520500  0.18772000  0.85931000  1
  O  O5  1  0.81228000  0.30479500  0.14069000  1
  O  O6  1  0.40490900  0.31625400  0.64693400  1
  O  O7  1  0.27921400  0.60757600  0.35070400  1
  O  O8  1  0.01805500  0.67330600  0.02121700  1
  O  O9  1  0.33219700  0.33833900  0.05906200  1
loop_
_geom_bond_atom_site_label_1
_geom_bond_atom_site_label_2
_geom_bond_distance
_geom_bond_site_symmetry_2
H0 O4 1.226979 1_554
H0 O5 1.226979 1_555
O0 P0 1.529334 1_556
O0 V0 2.005791 1_556
O1 P2 1.507115 1_565
O1 V0 1.992476 1_556
O2 P1 1.502769 1_555
O2 V0 2.066611 1_556
O3 P1 1.605355 1_555
O3 P0 1.640474 1_555
O4 P2 1.544305 1_555
O5 P0 1.544305 1_555
O6 P1 1.605355 1_555
O6 P2 1.640474 1_555
O7 P1 1.502769 1_555
O7 V0 2.066611 1_555
O8 P0 1.507115 1_455
O8 V0 1.992476 1_555
O9 P2 1.529334 1_554
O9 V0 2.005791 1_555
