# generated using pymatgen
data_CeCoSi2
_symmetry_space_group_name_H-M   'P 1'
_cell_length_a   4.00241501
_cell_length_b   4.05057774
_cell_length_c   8.42879560
_cell_angle_alpha   103.90319101
_cell_angle_beta   90.00000000
_cell_angle_gamma   90.00000000
_symmetry_Int_Tables_number   1
_chemical_formula_structural   CeCoSi2
_chemical_formula_sum   'Ce2 Co2 Si4'
_cell_volume   132.64504450
_cell_formula_units_Z   2
loop_
 _symmetry_equiv_pos_site_id
 _symmetry_equiv_pos_as_xyz
  1  'x, y, z'
loop_
 _atom_site_type_symbol
 _atom_site_label
 _atom_site_symmetry_multiplicity
 _atom_site_fract_x
 _atom_site_fract_y
 _atom_site_fract_z
 _atom_site_occupancy
  Ce  Ce0  1  0.25000000  0.89034759  0.78069518  1
  Ce  Ce1  1  0.75000000  0.10965241  0.21930482  1
  Co  Co0  1  0.75000000  0.32156968  0.64313937  1
  Co  Co1  1  0.25000000  0.67843032  0.35686063  1
  Si  Si0  1  0.25000000  0.24961305  0.49922411  1
  Si  Si1  1  0.75000000  0.75038695  0.50077589  1
  Si  Si2  1  0.75000000  0.45904826  0.91809651  1
  Si  Si3  1  0.25000000  0.54095174  0.08190349  1
loop_
_geom_bond_atom_site_label_1
_geom_bond_atom_site_label_2
_geom_bond_distance
_geom_bond_site_symmetry_2
Ce0 Si1 3.041401 1_455
Ce0 Si1 3.041401 1_555
Ce0 Si2 3.061119 1_455
Ce0 Si2 3.061119 1_555
Ce0 Si2 3.061119 1_565
Ce0 Si2 3.061119 1_465
Ce0 Co0 3.061583 1_465
Ce0 Co0 3.061583 1_565
Ce0 Co0 3.061583 1_555
Ce0 Co0 3.061583 1_455
Ce0 Si0 3.066820 1_555
Ce0 Si0 3.066826 1_565
Ce0 Si3 3.189871 1_556
Ce0 Si3 3.189871 1_566
Ce1 Si0 3.041401 1_655
Ce1 Si0 3.041401 1_555
Ce1 Si3 3.061119 1_555
Ce1 Si3 3.061119 1_655
Ce1 Si3 3.061119 1_645
Ce1 Si3 3.061119 1_545
Ce1 Co1 3.061583 1_545
Ce1 Co1 3.061583 1_645
Ce1 Co1 3.061583 1_555
Ce1 Co1 3.061583 1_655
Ce1 Si1 3.066820 1_555
Ce1 Si1 3.066826 1_545
Ce1 Si2 3.189871 1_554
Ce1 Si2 3.189871 1_544
Co0 Si2 2.249660 1_555
Co0 Si0 2.321923 1_655
Co0 Si0 2.321923 1_555
Co0 Si1 2.336350 1_555
Co0 Si1 2.336357 1_545
Co1 Si3 2.249660 1_555
Co1 Si1 2.321923 1_555
Co1 Si1 2.321923 1_455
Co1 Si0 2.336350 1_555
Co1 Si0 2.336357 1_565
Si2 Si3 2.408545 1_656
Si2 Si3 2.408545 1_556
