# generated using pymatgen
data_V3Co3(TeO8)2
_symmetry_space_group_name_H-M   'P 1'
_cell_length_a   5.86946300
_cell_length_b   5.90162724
_cell_length_c   10.10526391
_cell_angle_alpha   91.35404396
_cell_angle_beta   90.21804199
_cell_angle_gamma   118.91350262
_symmetry_Int_Tables_number   1
_chemical_formula_structural   V3Co3(TeO8)2
_chemical_formula_sum   'V3 Co3 Te2 O16'
_cell_volume   306.27586150
_cell_formula_units_Z   1
loop_
 _symmetry_equiv_pos_site_id
 _symmetry_equiv_pos_as_xyz
  1  'x, y, z'
loop_
 _atom_site_type_symbol
 _atom_site_label
 _atom_site_symmetry_multiplicity
 _atom_site_fract_x
 _atom_site_fract_y
 _atom_site_fract_z
 _atom_site_occupancy
  V  V0  1  0.33383100  0.18031200  0.23700900  1
  V  V1  1  0.20814300  0.33944200  0.69861700  1
  V  V2  1  0.16414600  0.79933800  0.71934200  1
  Co  Co0  1  0.82343500  0.17772100  0.22632100  1
  Co  Co1  1  0.83245800  0.65937800  0.22217700  1
  Co  Co2  1  0.65922900  0.83645000  0.68542100  1
  Te  Te0  1  0.68258200  0.34122300  0.48780200  1
  Te  Te1  1  0.34857900  0.67762900  0.02455700  1
  O  O0  1  0.83515300  0.17485200  0.58518600  1
  O  O1  1  0.95388400  0.47417000  0.35413500  1
  O  O2  1  0.63202500  0.30105400  0.12881500  1
  O  O3  1  0.01350200  0.02363500  0.30506500  1
  O  O4  1  0.00784900  0.01072400  0.77056500  1
  O  O5  1  0.83596100  0.66287700  0.58624300  1
  O  O6  1  0.50755700  0.04504800  0.35225500  1
  O  O7  1  0.49755300  0.46064900  0.35677900  1
  O  O8  1  0.68034700  0.83830100  0.10932200  1
  O  O9  1  0.34634000  0.18127900  0.58365300  1
  O  O10  1  0.46451200  0.48447800  0.80470400  1
  O  O11  1  0.45062900  0.96305100  0.80965200  1
  O  O12  1  0.30730900  0.64939700  0.60186400  1
  O  O13  1  0.19759700  0.36144700  0.12922200  1
  O  O14  1  0.02401900  0.51439800  0.80606900  1
  O  O15  1  0.19336200  0.84295000  0.13094400  1
loop_
_geom_bond_atom_site_label_1
_geom_bond_atom_site_label_2
_geom_bond_distance
_geom_bond_site_symmetry_2
Co0 O2 1.891837 1_555
Co0 O3 1.926934 1_655
Co0 O1 1.976279 1_555
Co0 O6 2.081181 1_555
Co0 O8 2.090327 1_545
Co0 O13 2.173826 1_655
Co1 O3 2.037457 1_665
Co1 O8 2.042908 1_555
Co1 O2 2.058553 1_555
Co1 O1 2.072616 1_555
Co1 O15 2.086585 1_655
Co1 O7 2.226229 1_555
Co2 O4 1.973534 1_665
Co2 O12 1.983924 1_555
Co2 O5 2.028965 1_555
Co2 O0 2.046988 1_565
Co2 O11 2.117845 1_555
Co2 O10 2.215206 1_555
O0 Te0 1.903578 1_555
O0 V1 2.218604 1_655
O1 Te0 1.958098 1_555
O2 V0 1.900489 1_555
O3 V0 1.794925 1_555
O4 V1 1.882016 1_555
O4 V2 1.935350 1_545
O5 Te0 1.911790 1_555
O5 V2 2.144092 1_655
O6 V0 1.963484 1_555
O6 Te0 2.031388 1_555
O7 V0 1.866718 1_555
O7 Te0 2.050012 1_555
O8 Te1 1.894265 1_555
O9 V1 1.888630 1_555
O9 Te0 1.995120 1_555
O9 V2 2.435345 1_545
O10 V1 1.686737 1_555
O11 V2 1.723213 1_555
O12 V2 1.890874 1_555
O12 V1 1.923572 1_555
O13 V0 1.960481 1_555
O13 Te1 1.971624 1_555
O14 V2 1.734958 1_555
O14 V1 2.109034 1_555
O15 Te1 1.937804 1_555
O15 V0 2.024272 1_565
