# generated using pymatgen
data_Sr2CaI6
_symmetry_space_group_name_H-M   'P 1'
_cell_length_a   8.15115586
_cell_length_b   8.15115586
_cell_length_c   7.18989600
_cell_angle_alpha   90.00000000
_cell_angle_beta   90.00000000
_cell_angle_gamma   119.99999883
_symmetry_Int_Tables_number   1
_chemical_formula_structural   Sr2CaI6
_chemical_formula_sum   'Sr2 Ca1 I6'
_cell_volume   413.70582875
_cell_formula_units_Z   1
loop_
 _symmetry_equiv_pos_site_id
 _symmetry_equiv_pos_as_xyz
  1  'x, y, z'
loop_
 _atom_site_type_symbol
 _atom_site_label
 _atom_site_symmetry_multiplicity
 _atom_site_fract_x
 _atom_site_fract_y
 _atom_site_fract_z
 _atom_site_occupancy
  Sr  Sr0  1  0.33333300  0.66666700  0.50000000  1
  Sr  Sr1  1  0.66666700  0.33333300  0.50000000  1
  Ca  Ca0  1  0.00000000  0.00000000  0.00000000  1
  I  I0  1  0.00000000  0.67105100  0.75783600  1
  I  I1  1  0.00000000  0.32894900  0.24216400  1
  I  I2  1  0.32894900  0.32894900  0.75783600  1
  I  I3  1  0.67105100  0.67105100  0.24216400  1
  I  I4  1  0.32894900  0.00000000  0.24216400  1
  I  I5  1  0.67105100  0.00000000  0.75783600  1
loop_
_geom_bond_atom_site_label_1
_geom_bond_atom_site_label_2
_geom_bond_distance
_geom_bond_site_symmetry_2
Ca0 I4 3.197029 1_555
Ca0 I1 3.197029 1_555
Ca0 I0 3.197029 1_544
Ca0 I5 3.197029 1_454
Ca0 I2 3.197029 1_554
Ca0 I3 3.197029 1_445
I0 Sr0 3.304142 1_555
I0 Sr1 3.304145 1_455
I1 Sr1 3.304142 1_455
I1 Sr0 3.304145 1_555
I2 Sr1 3.304149 1_555
I2 Sr0 3.304149 1_555
I3 Sr0 3.304149 1_555
I3 Sr1 3.304149 1_555
I4 Sr0 3.304142 1_545
I4 Sr1 3.304145 1_555
I5 Sr1 3.304142 1_555
I5 Sr0 3.304145 1_545
