# generated using pymatgen
data_Fe5Cu(PO4)6
_symmetry_space_group_name_H-M   'P 1'
_cell_length_a   8.38817478
_cell_length_b   8.38817478
_cell_length_c   8.38817473
_cell_angle_alpha   62.11949981
_cell_angle_beta   62.11949981
_cell_angle_gamma   62.11949853
_symmetry_Int_Tables_number   1
_chemical_formula_structural   Fe5Cu(PO4)6
_chemical_formula_sum   'Fe5 Cu1 P6 O24'
_cell_volume   437.10545547
_cell_formula_units_Z   1
loop_
 _symmetry_equiv_pos_site_id
 _symmetry_equiv_pos_as_xyz
  1  'x, y, z'
loop_
 _atom_site_type_symbol
 _atom_site_label
 _atom_site_symmetry_multiplicity
 _atom_site_fract_x
 _atom_site_fract_y
 _atom_site_fract_z
 _atom_site_occupancy
  Fe  Fe0  1  0.99904400  0.99904400  0.99904400  1
  Fe  Fe1  1  0.35327500  0.35327500  0.35327500  1
  Fe  Fe2  1  0.49950900  0.49950900  0.49950900  1
  Fe  Fe3  1  0.14545500  0.14545500  0.14545500  1
  Fe  Fe4  1  0.64610100  0.64610100  0.64610100  1
  Cu  Cu0  1  0.85369000  0.85369000  0.85369000  1
  P  P0  1  0.74982800  0.04831300  0.45415600  1
  P  P1  1  0.04831300  0.45415600  0.74982800  1
  P  P2  1  0.45415600  0.74982800  0.04831300  1
  P  P3  1  0.54848500  0.24819900  0.95095600  1
  P  P4  1  0.95095600  0.54848500  0.24819900  1
  P  P5  1  0.24819900  0.95095600  0.54848500  1
  O  O0  1  0.89265100  0.49858300  0.67508300  1
  O  O1  1  0.49858300  0.67508300  0.89265100  1
  O  O2  1  0.67508300  0.89265100  0.49858300  1
  O  O3  1  0.90411600  0.05981500  0.25059600  1
  O  O4  1  0.81945200  0.01594700  0.60813100  1
  O  O5  1  0.59563000  0.25200700  0.43471200  1
  O  O6  1  0.05981500  0.25059600  0.90411600  1
  O  O7  1  0.25200700  0.43471200  0.59563000  1
  O  O8  1  0.39303200  0.17427900  0.99475500  1
  O  O9  1  0.43471200  0.59563000  0.25200700  1
  O  O10  1  0.75042000  0.09458600  0.94079000  1
  O  O11  1  0.99475500  0.39303200  0.17427900  1
  O  O12  1  0.01594700  0.60813100  0.81945200  1
  O  O13  1  0.25059600  0.90411600  0.05981500  1
  O  O14  1  0.56315900  0.40249100  0.74825000  1
  O  O15  1  0.60813100  0.81945200  0.01594700  1
  O  O16  1  0.74825000  0.56315900  0.40249100  1
  O  O17  1  0.94079000  0.75042000  0.09458600  1
  O  O18  1  0.40249100  0.74825000  0.56315900  1
  O  O19  1  0.17427900  0.99475500  0.39303200  1
  O  O20  1  0.09458600  0.94079000  0.75042000  1
  O  O21  1  0.32271500  0.10642100  0.50538400  1
  O  O22  1  0.50538400  0.32271500  0.10642100  1
  O  O23  1  0.10642100  0.50538400  0.32271500  1
loop_
_geom_bond_atom_site_label_1
_geom_bond_atom_site_label_2
_geom_bond_distance
_geom_bond_site_symmetry_2
Fe0 O10 2.062533 1_565
Fe0 O20 2.062533 1_655
Fe0 O17 2.062533 1_556
Fe0 O13 2.097907 1_656
Fe0 O3 2.097907 1_566
Fe0 O6 2.097907 1_665
Fe1 O23 1.923768 1_555
Fe1 O22 1.923768 1_555
Fe1 O21 1.923768 1_555
Fe1 O5 2.112340 1_555
Fe1 O7 2.112340 1_555
Fe1 O9 2.112340 1_555
Fe2 O5 2.082215 1_555
Fe2 O9 2.082215 1_555
Fe2 O7 2.082215 1_555
Fe2 O18 2.085231 1_555
Fe2 O14 2.085231 1_555
Fe2 O16 2.085231 1_555
Fe3 O11 1.922941 1_455
Fe3 O19 1.922941 1_545
Fe3 O8 1.922941 1_554
Fe3 O13 2.118913 1_545
Fe3 O6 2.118913 1_554
Fe3 O3 2.118913 1_455
Fe4 O0 1.913844 1_555
Fe4 O1 1.913844 1_555
Fe4 O2 1.913844 1_555
Fe4 O18 2.128013 1_555
Fe4 O16 2.128013 1_555
Fe4 O14 2.128013 1_555
Cu0 O12 1.934782 1_655
Cu0 O4 1.934782 1_565
Cu0 O15 1.934782 1_556
Cu0 O10 2.125809 1_565
Cu0 O17 2.125809 1_556
Cu0 O20 2.125809 1_655
O0 P1 1.526080 1_655
O1 P2 1.526080 1_556
O2 P0 1.526080 1_565
O3 P0 1.579790 1_555
O4 P0 1.520579 1_555
O5 P0 1.577569 1_555
O6 P1 1.579790 1_555
O7 P1 1.577569 1_555
O8 P3 1.521463 1_555
O9 P2 1.577569 1_555
O10 P3 1.569442 1_555
O11 P4 1.521463 1_555
O12 P1 1.520579 1_555
O13 P2 1.579790 1_555
O14 P3 1.573662 1_555
O15 P2 1.520579 1_555
O16 P4 1.573662 1_555
O17 P4 1.569442 1_555
O18 P5 1.573662 1_555
O19 P5 1.521463 1_555
O20 P5 1.569442 1_555
O21 P5 1.527101 1_545
O22 P3 1.527101 1_554
O23 P4 1.527101 1_455
