# generated using pymatgen
data_Li4Cr3Cu3(SbO8)2
_symmetry_space_group_name_H-M   'P 1'
_cell_length_a   5.95293113
_cell_length_b   5.95293113
_cell_length_c   9.62741483
_cell_angle_alpha   89.05173038
_cell_angle_beta   89.05173038
_cell_angle_gamma   59.75969754
_symmetry_Int_Tables_number   1
_chemical_formula_structural   Li4Cr3Cu3(SbO8)2
_chemical_formula_sum   'Li4 Cr3 Cu3 Sb2 O16'
_cell_volume   294.69053615
_cell_formula_units_Z   1
loop_
 _symmetry_equiv_pos_site_id
 _symmetry_equiv_pos_as_xyz
  1  'x, y, z'
loop_
 _atom_site_type_symbol
 _atom_site_label
 _atom_site_symmetry_multiplicity
 _atom_site_fract_x
 _atom_site_fract_y
 _atom_site_fract_z
 _atom_site_occupancy
  Li  Li0  1  0.66525900  0.66525900  0.90268700  1
  Li  Li1  1  0.99994500  0.99994500  0.99275000  1
  Li  Li2  1  0.00111100  0.00111100  0.48970800  1
  Li  Li3  1  0.33666200  0.33666200  0.40165700  1
  Cr  Cr0  1  0.82967800  0.82967800  0.21510700  1
  Cr  Cr1  1  0.65937300  0.16873700  0.71412400  1
  Cr  Cr2  1  0.16873700  0.65937300  0.71412400  1
  Cu  Cu0  1  0.83151100  0.34034600  0.21322600  1
  Cu  Cu1  1  0.34034600  0.83151100  0.21322600  1
  Cu  Cu2  1  0.16953200  0.16953200  0.71459700  1
  Sb  Sb0  1  0.66629200  0.66629200  0.48938700  1
  Sb  Sb1  1  0.33145300  0.33145300  0.98814900  1
  O  O0  1  0.83358000  0.32681100  0.59322700  1
  O  O1  1  0.52189900  0.52189900  0.34413100  1
  O  O2  1  0.66889800  0.66889800  0.11155700  1
  O  O3  1  0.99992700  0.99992700  0.30164900  1
  O  O4  1  0.99566500  0.99566500  0.80550800  1
  O  O5  1  0.32681100  0.83358000  0.59322700  1
  O  O6  1  0.96723400  0.52241500  0.34700200  1
  O  O7  1  0.52241500  0.96723400  0.34700200  1
  O  O8  1  0.16137000  0.16137000  0.09215000  1
  O  O9  1  0.83262100  0.83262100  0.59740600  1
  O  O10  1  0.48343700  0.03511600  0.84434800  1
  O  O11  1  0.03511600  0.48343700  0.84434800  1
  O  O12  1  0.33752000  0.33752000  0.60814100  1
  O  O13  1  0.66540800  0.16082600  0.09413200  1
  O  O14  1  0.48097000  0.48097000  0.84241000  1
  O  O15  1  0.16082600  0.66540800  0.09413200  1
loop_
_geom_bond_atom_site_label_1
_geom_bond_atom_site_label_2
_geom_bond_distance
_geom_bond_site_symmetry_2
Li0 O10 1.978236 1_565
Li0 O11 1.978236 1_655
Li0 O14 1.999565 1_555
Li0 O2 2.011946 1_556
Li1 O4 1.804041 1_555
Li1 O8 1.937432 1_666
Li1 O13 1.970116 1_566
Li1 O15 1.970116 1_656
Li2 O3 1.810797 1_445
Li2 O5 1.957159 1_545
Li2 O0 1.957159 1_455
Li2 O9 2.007885 1_445
Li3 O6 1.976260 1_455
Li3 O7 1.976260 1_545
Li3 O1 1.980652 1_555
Li3 O12 1.988096 1_555
Cr0 O2 1.952396 1_555
Cr0 O3 1.959327 1_555
Cr0 O6 2.019279 1_555
Cr0 O7 2.019279 1_555
Cr0 O15 2.053965 1_655
Cr0 O13 2.053965 1_565
Cr1 O4 1.947818 1_545
Cr1 O12 1.952766 1_555
Cr1 O10 2.015963 1_555
Cr1 O14 2.037721 1_555
Cr1 O0 2.054849 1_555
Cr1 O9 2.070593 1_545
Cr2 O4 1.947818 1_455
Cr2 O12 1.952766 1_555
Cr2 O11 2.015963 1_555
Cr2 O14 2.037721 1_555
Cr2 O5 2.054849 1_555
Cr2 O9 2.070593 1_455
Cu0 O3 1.939383 1_545
Cu0 O2 1.944590 1_555
Cu0 O1 2.028585 1_555
Cu0 O8 2.051285 1_655
Cu0 O6 2.109247 1_555
Cu0 O13 2.139357 1_555
Cu1 O3 1.939383 1_455
Cu1 O2 1.944590 1_555
Cu1 O1 2.028585 1_555
Cu1 O8 2.051285 1_565
Cu1 O7 2.109247 1_555
Cu1 O15 2.139357 1_555
Cu2 O4 1.981826 1_445
Cu2 O12 1.997485 1_555
Cu2 O10 2.056854 1_555
Cu2 O11 2.056854 1_555
Cu2 O0 2.096818 1_455
Cu2 O5 2.096818 1_545
O0 Sb0 2.003538 1_555
O1 Sb0 2.063276 1_555
O5 Sb0 2.003538 1_555
O6 Sb0 2.057704 1_555
O7 Sb0 2.057704 1_555
O8 Sb1 2.004563 1_554
O9 Sb0 2.024333 1_555
O10 Sb1 2.068558 1_555
O11 Sb1 2.068558 1_555
O13 Sb1 2.005965 1_554
O14 Sb1 2.066006 1_555
O15 Sb1 2.005965 1_554
