# generated using pymatgen
data_Li4V7(PO4)6
_symmetry_space_group_name_H-M   'P 1'
_cell_length_a   9.04226663
_cell_length_b   9.04226663
_cell_length_c   6.65955188
_cell_angle_alpha   81.57107886
_cell_angle_beta   81.57107886
_cell_angle_gamma   104.61118815
_symmetry_Int_Tables_number   1
_chemical_formula_structural   Li4V7(PO4)6
_chemical_formula_sum   'Li4 V7 P6 O24'
_cell_volume   511.52863927
_cell_formula_units_Z   1
loop_
 _symmetry_equiv_pos_site_id
 _symmetry_equiv_pos_as_xyz
  1  'x, y, z'
loop_
 _atom_site_type_symbol
 _atom_site_label
 _atom_site_symmetry_multiplicity
 _atom_site_fract_x
 _atom_site_fract_y
 _atom_site_fract_z
 _atom_site_occupancy
  Li  Li0  1  0.75712400  0.75712400  0.48921300  1
  Li  Li1  1  0.54869300  0.24222600  0.53040200  1
  Li  Li2  1  0.24222600  0.54869300  0.53040200  1
  Li  Li3  1  0.06207900  0.06207900  0.54921000  1
  V  V0  1  0.97076300  0.36135200  0.19177600  1
  V  V1  1  0.36135200  0.97076300  0.19177600  1
  V  V2  1  0.61740100  0.37568600  0.99742200  1
  V  V3  1  0.37568600  0.61740100  0.99742200  1
  V  V4  1  0.99813400  0.99813400  0.00111400  1
  V  V5  1  0.64553300  0.01827100  0.80941600  1
  V  V6  1  0.01827100  0.64553400  0.80941600  1
  P  P0  1  0.28827200  0.90135700  0.71139800  1
  P  P1  1  0.90135700  0.28827200  0.71139800  1
  P  P2  1  0.68671300  0.68671300  0.04136300  1
  P  P3  1  0.30255900  0.30255900  0.96577400  1
  P  P4  1  0.71704300  0.08812100  0.28367900  1
  P  P5  1  0.08812100  0.71704300  0.28367900  1
  O  O0  1  0.60624500  0.77896800  0.89523100  1
  O  O1  1  0.77896800  0.60624500  0.89523100  1
  O  O2  1  0.78776700  0.78776700  0.16435000  1
  O  O3  1  0.96315700  0.38960700  0.86570100  1
  O  O4  1  0.38960700  0.96315700  0.86570100  1
  O  O5  1  0.11023500  0.89754000  0.76651200  1
  O  O6  1  0.89754000  0.11023500  0.76651200  1
  O  O7  1  0.72086700  0.27705300  0.72776100  1
  O  O8  1  0.27705300  0.72086700  0.72776100  1
  O  O9  1  0.54963500  0.54963500  0.17949300  1
  O  O10  1  0.43672800  0.43672800  0.81223300  1
  O  O11  1  0.11202400  0.89620600  0.21450000  1
  O  O12  1  0.89620600  0.11202400  0.21450000  1
  O  O13  1  0.26159400  0.70485600  0.27883800  1
  O  O14  1  0.70485600  0.26159400  0.27883800  1
  O  O15  1  0.66762800  0.98220900  0.49844400  1
  O  O16  1  0.98220900  0.66762800  0.49844400  1
  O  O17  1  0.19693400  0.19693400  0.85518100  1
  O  O18  1  0.61492600  0.02035600  0.13414200  1
  O  O19  1  0.02035600  0.61492600  0.13414200  1
  O  O20  1  0.39147900  0.21349600  0.10269000  1
  O  O21  1  0.21349600  0.39147900  0.10269000  1
  O  O22  1  0.35440600  0.00975000  0.50028600  1
  O  O23  1  0.00975000  0.35440600  0.50028600  1
loop_
_geom_bond_atom_site_label_1
_geom_bond_atom_site_label_2
_geom_bond_distance
_geom_bond_site_symmetry_2
Li0 O2 2.108037 1_555
Li0 O16 2.377830 1_555
Li0 O15 2.377830 1_555
Li1 O14 1.981652 1_555
Li1 O7 2.173531 1_555
Li1 O22 2.430873 1_555
Li2 O13 1.981652 1_555
Li2 O8 2.173531 1_555
Li2 O23 2.430873 1_555
Li3 O5 2.092309 1_545
Li3 O6 2.092309 1_455
O0 P2 1.564668 1_556
O0 V5 2.079696 1_565
O0 V3 2.167886 1_555
O1 P2 1.564668 1_556
O1 V6 2.079695 1_655
O1 V2 2.167886 1_555
O2 P2 1.535673 1_555
O2 V4 2.319586 1_555
O3 P1 1.547211 1_555
O3 V0 2.162285 1_556
O3 V6 2.203018 1_655
O4 P0 1.547211 1_555
O4 V1 2.162285 1_556
O4 V5 2.203009 1_565
O5 P0 1.588263 1_555
O5 V4 2.171009 1_456
O5 V6 2.179244 1_555
O6 P1 1.588263 1_555
O6 V4 2.171009 1_546
O6 V5 2.179252 1_555
O7 P1 1.595872 1_555
O7 V5 2.224724 1_555
O7 V2 2.300793 1_555
O8 P0 1.595872 1_555
O8 V6 2.224724 1_555
O8 V3 2.300793 1_555
O9 P2 1.573291 1_555
O9 V3 2.268744 1_554
O9 V2 2.268744 1_554
O10 P3 1.587228 1_555
O10 V3 2.310979 1_555
O10 V2 2.310979 1_555
O11 P5 1.568068 1_555
O11 V4 2.110288 1_455
O11 V1 2.159486 1_555
O12 P4 1.568068 1_555
O12 V4 2.110288 1_545
O12 V0 2.159486 1_555
O13 P5 1.595957 1_555
O13 V1 2.296681 1_555
O13 V3 2.341193 1_554
O14 P4 1.595957 1_555
O14 V0 2.296681 1_555
O14 V2 2.341193 1_554
O15 P4 1.535447 1_565
O15 V5 2.131797 1_565
O16 P5 1.535447 1_655
O16 V6 2.131797 1_655
O17 P3 1.522841 1_555
O17 V4 2.180055 1_446
O18 P4 1.543633 1_555
O18 V5 2.143038 1_554
O18 V1 2.185983 1_545
O19 P5 1.543633 1_555
O19 V6 2.143038 1_554
O19 V0 2.185983 1_455
O20 P3 1.566126 1_554
O20 V1 2.124334 1_545
O20 V2 2.140729 1_554
O21 P3 1.566126 1_554
O21 V0 2.124334 1_455
O21 V3 2.140729 1_554
O22 P0 1.532540 1_545
O22 V1 2.129560 1_545
O23 P1 1.532540 1_455
O23 V0 2.129560 1_455
