# generated using pymatgen
data_V3CrO8
_symmetry_space_group_name_H-M   'P 1'
_cell_length_a   6.38741479
_cell_length_b   6.38741479
_cell_length_c   6.47207457
_cell_angle_alpha   73.60437453
_cell_angle_beta   73.60437453
_cell_angle_gamma   34.90177046
_symmetry_Int_Tables_number   1
_chemical_formula_structural   V3CrO8
_chemical_formula_sum   'V3 Cr1 O8'
_cell_volume   144.31935031
_cell_formula_units_Z   1
loop_
 _symmetry_equiv_pos_site_id
 _symmetry_equiv_pos_as_xyz
  1  'x, y, z'
loop_
 _atom_site_type_symbol
 _atom_site_label
 _atom_site_symmetry_multiplicity
 _atom_site_fract_x
 _atom_site_fract_y
 _atom_site_fract_z
 _atom_site_occupancy
  V  V0  1  0.59867400  0.59867400  0.29782900  1
  V  V1  1  0.39912900  0.39912900  0.72185400  1
  V  V2  1  0.70288700  0.70288700  0.71071900  1
  Cr  Cr0  1  0.29325500  0.29325500  0.31185600  1
  O  O0  1  0.86587100  0.86587100  0.69237500  1
  O  O1  1  0.75651800  0.75651800  0.35748100  1
  O  O2  1  0.64193900  0.64193900  0.98570600  1
  O  O3  1  0.55377700  0.55377700  0.63628800  1
  O  O4  1  0.44911800  0.44911800  0.35545600  1
  O  O5  1  0.36108100  0.36108100  0.99296800  1
  O  O6  1  0.24322200  0.24322200  0.64557500  1
  O  O7  1  0.13452900  0.13452900  0.29189400  1
loop_
_geom_bond_atom_site_label_1
_geom_bond_atom_site_label_2
_geom_bond_distance
_geom_bond_site_symmetry_2
Cr0 O1 1.969412 1_455
Cr0 O1 1.969412 1_545
Cr0 O7 1.976455 1_555
Cr0 O5 1.983242 1_554
Cr0 O4 2.001211 1_555
Cr0 O6 2.063351 1_555
O0 V2 1.954428 1_555
O0 V1 1.978792 1_655
O0 V1 1.978792 1_565
O1 V0 2.070956 1_555
O1 V2 2.183934 1_555
O2 V2 1.713733 1_555
O2 V0 1.930916 1_556
O3 V1 1.800288 1_555
O3 V2 2.013017 1_555
O3 V0 2.094883 1_555
O4 V0 1.748933 1_555
O4 V1 2.267059 1_555
O5 V1 1.677020 1_555
O6 V2 1.991463 1_545
O6 V2 1.991463 1_455
O6 V1 2.099732 1_555
O7 V0 1.962563 1_455
O7 V0 1.962563 1_545
