# generated using pymatgen
data_NaLi2MnPCO7
_symmetry_space_group_name_H-M   'P 1'
_cell_length_a   6.71940200
_cell_length_b   8.66575225
_cell_length_c   10.13029462
_cell_angle_alpha   91.44692494
_cell_angle_beta   90.03571126
_cell_angle_gamma   90.18515574
_symmetry_Int_Tables_number   1
_chemical_formula_structural   NaLi2MnPCO7
_chemical_formula_sum   'Na4 Li8 Mn4 P4 C4 O28'
_cell_volume   589.68230249
_cell_formula_units_Z   4
loop_
 _symmetry_equiv_pos_site_id
 _symmetry_equiv_pos_as_xyz
  1  'x, y, z'
loop_
 _atom_site_type_symbol
 _atom_site_label
 _atom_site_symmetry_multiplicity
 _atom_site_fract_x
 _atom_site_fract_y
 _atom_site_fract_z
 _atom_site_occupancy
  Na  Na0  1  0.23955200  0.91506200  0.37695900  1
  Na  Na1  1  0.99824300  0.75163000  0.62861000  1
  Na  Na2  1  0.50185500  0.74886100  0.12510500  1
  Na  Na3  1  0.50038300  0.24949800  0.37443100  1
  Li  Li0  1  0.25408100  0.92149300  0.87176700  1
  Li  Li1  1  0.47115400  0.72678300  0.61729300  1
  Li  Li2  1  0.02761600  0.72465300  0.11106200  1
  Li  Li3  1  0.52410500  0.26476000  0.88324500  1
  Li  Li4  1  0.97444900  0.26488200  0.88306700  1
  Li  Li5  1  0.97177000  0.27406300  0.38901200  1
  Li  Li6  1  0.74341100  0.08808400  0.63084600  1
  Li  Li7  1  0.77381000  0.09031200  0.12525600  1
  Mn  Mn0  1  0.75338900  0.64616300  0.88658900  1
  Mn  Mn1  1  0.74525400  0.63905100  0.38989100  1
  Mn  Mn2  1  0.24363100  0.35345500  0.61566400  1
  Mn  Mn3  1  0.25053900  0.35104300  0.10623700  1
  P  P0  1  0.25650500  0.59286500  0.85163100  1
  P  P1  1  0.23728600  0.58334600  0.35371700  1
  P  P2  1  0.74270400  0.40583000  0.64930400  1
  P  P3  1  0.76038400  0.40672000  0.14097200  1
  C  C0  1  0.74929900  0.96226000  0.86675100  1
  C  C1  1  0.76121200  0.95663300  0.36421800  1
  C  C2  1  0.25949300  0.05083800  0.64382400  1
  C  C3  1  0.24040800  0.04175300  0.12824800  1
  O  O0  1  0.28249300  0.90373200  0.66264900  1
  O  O1  1  0.21697700  0.89589800  0.14913700  1
  O  O2  1  0.74774700  0.92035800  0.98843100  1
  O  O3  1  0.75650300  0.92066000  0.48848700  1
  O  O4  1  0.75364700  0.85901300  0.77105700  1
  O  O5  1  0.74339700  0.84872300  0.27323900  1
  O  O6  1  0.07224800  0.69007400  0.89619700  1
  O  O7  1  0.43936700  0.68653800  0.90182600  1
  O  O8  1  0.05869200  0.68111400  0.40451900  1
  O  O9  1  0.42744400  0.67279900  0.40100300  1
  O  O10  1  0.26329300  0.58073300  0.69720000  1
  O  O11  1  0.72906700  0.57339200  0.59738800  1
  O  O12  1  0.23306300  0.57401200  0.19922400  1
  O  O13  1  0.77163100  0.57439300  0.09011600  1
  O  O14  1  0.25029900  0.42485700  0.90273200  1
  O  O15  1  0.75505700  0.41822700  0.80381800  1
  O  O16  1  0.23095300  0.41648700  0.40551900  1
  O  O17  1  0.76880400  0.41771000  0.29529300  1
  O  O18  1  0.56142200  0.30486900  0.60775700  1
  O  O19  1  0.92591800  0.31593700  0.59432400  1
  O  O20  1  0.56899500  0.31887600  0.09564800  1
  O  O21  1  0.93355600  0.30378200  0.08704600  1
  O  O22  1  0.24023000  0.14407400  0.74557300  1
  O  O23  1  0.25388400  0.13922600  0.22824300  1
  O  O24  1  0.25402600  0.10605100  0.52619600  1
  O  O25  1  0.25128000  0.09233000  0.00900300  1
  O  O26  1  0.74682800  0.10768500  0.83603700  1
  O  O27  1  0.78264300  0.09841000  0.32864300  1
loop_
_geom_bond_atom_site_label_1
_geom_bond_atom_site_label_2
_geom_bond_distance
_geom_bond_site_symmetry_2
Na0 O24 2.215105 1_565
Na0 O1 2.314531 1_555
Na0 O8 2.382856 1_555
Na0 O9 2.470487 1_555
Na0 O23 2.489818 1_565
Na1 O0 2.337574 1_655
Na1 O4 2.365272 1_555
Na1 O8 2.371599 1_655
Na1 O11 2.390332 1_555
Na1 O10 2.432153 1_655
Na1 O3 2.629927 1_555
Na1 O6 2.820101 1_655
Na2 O1 2.312509 1_555
Na2 O7 2.349415 1_554
Na2 O5 2.357392 1_555
Na2 O13 2.385145 1_555
Na2 O12 2.482565 1_555
Na2 O2 2.635609 1_554
Na3 O16 2.337829 1_555
Na3 O27 2.347985 1_555
Na3 O23 2.401033 1_555
Na3 O18 2.434254 1_555
Na3 O17 2.462611 1_555
Na3 O24 2.595295 1_555
Li0 O25 2.005261 1_566
Li0 O0 2.128872 1_555
Li0 O22 2.342830 1_565
Li0 O6 2.363341 1_555
Li0 O7 2.415688 1_555
Li1 O0 2.036458 1_555
Li1 O10 2.061453 1_555
Li1 O11 2.193789 1_555
Li1 O9 2.247775 1_555
Li2 O1 1.981967 1_555
Li2 O12 2.115768 1_555
Li2 O13 2.161082 1_455
Li2 O6 2.210424 1_554
Li3 O26 2.074220 1_555
Li3 O15 2.206035 1_555
Li3 O20 2.210895 1_556
Li3 O14 2.313389 1_555
Li3 O22 2.566596 1_555
Li4 O26 2.091603 1_555
Li4 O21 2.103602 1_556
Li4 O15 2.156069 1_555
Li4 O14 2.316494 1_655
Li4 O22 2.483339 1_655
Li5 O27 2.060459 1_555
Li5 O17 2.092829 1_555
Li5 O19 2.125057 1_555
Li5 O16 2.135316 1_655
Li6 O3 2.021831 1_545
Li6 O26 2.081401 1_555
Li6 O18 2.261842 1_555
Li6 O19 2.358245 1_555
Li6 O4 2.471006 1_545
Li7 O2 2.003970 1_544
Li7 O27 2.060605 1_555
Li7 O21 2.178969 1_555
Li7 O20 2.440118 1_555
Mn0 O15 2.126328 1_555
Mn0 O7 2.144985 1_555
Mn0 O13 2.172037 1_556
Mn0 O6 2.176547 1_655
Mn0 O4 2.209294 1_555
Mn0 O2 2.566813 1_555
Mn1 O17 2.128795 1_555
Mn1 O8 2.140671 1_655
Mn1 O9 2.158982 1_555
Mn1 O5 2.192383 1_555
Mn1 O11 2.194148 1_555
Mn1 O3 2.614244 1_555
Mn2 O10 2.120094 1_555
Mn2 O19 2.168265 1_455
Mn2 O18 2.178943 1_555
Mn2 O16 2.212766 1_555
Mn2 O22 2.268257 1_555
Mn2 O24 2.307754 1_555
Mn3 O12 2.131710 1_555
Mn3 O20 2.161187 1_555
Mn3 O14 2.173893 1_554
Mn3 O21 2.175312 1_455
Mn3 O23 2.238784 1_555
Mn3 O25 2.425928 1_555
C0 O2 1.293828 1_555
C0 O4 1.302889 1_555
C0 O26 1.305819 1_565
C1 O27 1.296675 1_565
C1 O5 1.301470 1_555
C1 O3 1.304901 1_555
C2 O24 1.295783 1_555
C2 O22 1.300299 1_555
C2 O0 1.303396 1_545
C3 O1 1.295910 1_545
C3 O25 1.297423 1_555
C3 O23 1.305368 1_555
O6 P0 1.560307 1_555
O7 P0 1.548930 1_555
O8 P1 1.551801 1_555
O9 P1 1.561116 1_555
O10 P0 1.566012 1_555
O11 P2 1.559747 1_555
O12 P1 1.565342 1_555
O13 P3 1.555480 1_555
O14 P0 1.557917 1_555
O15 P2 1.568374 1_555
O16 P1 1.551110 1_555
O17 P3 1.564790 1_555
O18 P2 1.549277 1_555
O19 P2 1.554913 1_555
O20 P3 1.555450 1_555
O21 P3 1.559179 1_555
