# generated using pymatgen
data_Li3MnFeCo(PO4)3
_symmetry_space_group_name_H-M   'P 1'
_cell_length_a   10.43142385
_cell_length_b   6.08901000
_cell_length_c   14.29127252
_cell_angle_alpha   90.00000000
_cell_angle_beta   89.93187075
_cell_angle_gamma   90.00000000
_symmetry_Int_Tables_number   1
_chemical_formula_structural   Li3MnFeCo(PO4)3
_chemical_formula_sum   'Li12 Mn4 Fe4 Co4 P12 O48'
_cell_volume   907.73874551
_cell_formula_units_Z   4
loop_
 _symmetry_equiv_pos_site_id
 _symmetry_equiv_pos_as_xyz
  1  'x, y, z'
loop_
 _atom_site_type_symbol
 _atom_site_label
 _atom_site_symmetry_multiplicity
 _atom_site_fract_x
 _atom_site_fract_y
 _atom_site_fract_z
 _atom_site_occupancy
  Li  Li0  1  0.99750600  0.49795700  0.66699800  1
  Li  Li1  1  0.99955100  0.00167800  0.99855400  1
  Li  Li2  1  0.99955100  0.49832200  0.99855400  1
  Li  Li3  1  0.99727700  0.00036100  0.33377800  1
  Li  Li4  1  0.99727700  0.49963900  0.33377800  1
  Li  Li5  1  0.99750600  0.00204300  0.66699800  1
  Li  Li6  1  0.50263300  0.00048800  0.50084900  1
  Li  Li7  1  0.50263300  0.49951200  0.50084900  1
  Li  Li8  1  0.50207200  0.00031200  0.16677900  1
  Li  Li9  1  0.50207200  0.49968800  0.16677900  1
  Li  Li10  1  0.50132000  0.00052800  0.83296000  1
  Li  Li11  1  0.50132000  0.49947200  0.83296000  1
  Mn  Mn0  1  0.21855900  0.75000000  0.15939600  1
  Mn  Mn1  1  0.21830300  0.75000000  0.49377800  1
  Mn  Mn2  1  0.28091100  0.25000000  0.32648500  1
  Mn  Mn3  1  0.71911200  0.75000000  0.00637100  1
  Fe  Fe0  1  0.21844800  0.75000000  0.82392400  1
  Fe  Fe1  1  0.28137200  0.25000000  0.65981300  1
  Fe  Fe2  1  0.28016800  0.25000000  0.99093600  1
  Fe  Fe3  1  0.72010000  0.75000000  0.34153200  1
  Co  Co0  1  0.72321700  0.75000000  0.67100500  1
  Co  Co1  1  0.77876700  0.25000000  0.83870400  1
  Co  Co2  1  0.77960000  0.25000000  0.50609100  1
  Co  Co3  1  0.78082900  0.25000000  0.17217200  1
  P  P0  1  0.09461200  0.25000000  0.80603400  1
  P  P1  1  0.09166100  0.25000000  0.13755600  1
  P  P2  1  0.09078700  0.25000000  0.47325700  1
  P  P3  1  0.40948400  0.75000000  0.30571200  1
  P  P4  1  0.40687500  0.75000000  0.64151200  1
  P  P5  1  0.40430900  0.75000000  0.97179000  1
  P  P6  1  0.59726900  0.25000000  0.36070500  1
  P  P7  1  0.59445300  0.25000000  0.02820400  1
  P  P8  1  0.59684800  0.25000000  0.69444800  1
  P  P9  1  0.90732200  0.75000000  0.85859900  1
  P  P10  1  0.90388900  0.75000000  0.19492700  1
  P  P11  1  0.90234400  0.75000000  0.52830800  1
  O  O0  1  0.04110700  0.75000000  0.23785200  1
  O  O1  1  0.03996300  0.75000000  0.56993500  1
  O  O2  1  0.04643300  0.75000000  0.89852100  1
  O  O3  1  0.09679700  0.25000000  0.58076800  1
  O  O4  1  0.09769900  0.25000000  0.91350900  1
  O  O5  1  0.09589100  0.25000000  0.24527400  1
  O  O6  1  0.16205100  0.04786700  0.09264700  1
  O  O7  1  0.16205100  0.45213300  0.09264700  1
  O  O8  1  0.16029700  0.04765200  0.42764200  1
  O  O9  1  0.16029700  0.45234800  0.42764200  1
  O  O10  1  0.16581900  0.04702900  0.76135100  1
  O  O11  1  0.16581900  0.45297100  0.76135100  1
  O  O12  1  0.33683700  0.54699300  0.59647700  1
  O  O13  1  0.33683700  0.95300700  0.59647700  1
  O  O14  1  0.33927000  0.54749200  0.26107500  1
  O  O15  1  0.33927000  0.95250800  0.26107500  1
  O  O16  1  0.33257800  0.54735100  0.92822100  1
  O  O17  1  0.33257800  0.95264900  0.92822100  1
  O  O18  1  0.40543300  0.75000000  0.41353000  1
  O  O19  1  0.40423900  0.75000000  0.07946400  1
  O  O20  1  0.39989900  0.75000000  0.74909900  1
  O  O21  1  0.45994500  0.25000000  0.40332000  1
  O  O22  1  0.45554500  0.25000000  0.06768200  1
  O  O23  1  0.45791700  0.25000000  0.73457900  1
  O  O24  1  0.54760200  0.75000000  0.26476800  1
  O  O25  1  0.54185400  0.75000000  0.92930000  1
  O  O26  1  0.54608600  0.75000000  0.60109800  1
  O  O27  1  0.59948500  0.25000000  0.25314400  1
  O  O28  1  0.60031400  0.25000000  0.92029100  1
  O  O29  1  0.60074200  0.25000000  0.58660900  1
  O  O30  1  0.66457200  0.04855700  0.07419500  1
  O  O31  1  0.66863900  0.04794100  0.40580800  1
  O  O32  1  0.66667300  0.04658000  0.74004000  1
  O  O33  1  0.66667300  0.45342000  0.74004000  1
  O  O34  1  0.66457200  0.45144300  0.07419500  1
  O  O35  1  0.66863900  0.45205900  0.40580800  1
  O  O36  1  0.83787500  0.54553100  0.90327900  1
  O  O37  1  0.83787500  0.95446900  0.90327900  1
  O  O38  1  0.83275400  0.54543500  0.23858700  1
  O  O39  1  0.83088200  0.54621900  0.57295800  1
  O  O40  1  0.83275400  0.95456500  0.23858700  1
  O  O41  1  0.83088200  0.95378100  0.57295800  1
  O  O42  1  0.90187500  0.75000000  0.75066800  1
  O  O43  1  0.90102800  0.75000000  0.42080100  1
  O  O44  1  0.90385200  0.75000000  0.08722000  1
  O  O45  1  0.95578400  0.25000000  0.76543900  1
  O  O46  1  0.95252000  0.25000000  0.09770700  1
  O  O47  1  0.95154000  0.25000000  0.43376900  1
loop_
_geom_bond_atom_site_label_1
_geom_bond_atom_site_label_2
_geom_bond_distance
_geom_bond_site_symmetry_2
Li0 O45 2.108723 1_555
Li0 O1 2.115222 1_655
Li0 O42 2.185727 1_555
Li0 O3 2.206337 1_655
Li0 O39 2.217927 1_555
Li0 O11 2.231938 1_655
Li1 O46 2.129140 1_556
Li1 O2 2.151678 1_645
Li1 O6 2.183151 1_656
Li1 O37 2.187777 1_545
Li1 O4 2.192876 1_655
Li1 O44 2.224338 1_546
Li2 O46 2.129140 1_556
Li2 O2 2.151678 1_655
Li2 O7 2.183151 1_656
Li2 O36 2.187777 1_555
Li2 O4 2.192876 1_655
Li2 O44 2.224338 1_556
Li3 O0 2.100209 1_645
Li3 O47 2.139768 1_555
Li3 O8 2.186229 1_655
Li3 O43 2.208107 1_545
Li3 O40 2.208931 1_545
Li3 O5 2.228333 1_655
Li4 O0 2.100209 1_655
Li4 O47 2.139768 1_555
Li4 O9 2.186229 1_655
Li4 O43 2.208107 1_555
Li4 O38 2.208931 1_555
Li4 O5 2.228333 1_655
Li5 O45 2.108723 1_555
Li5 O1 2.115222 1_645
Li5 O42 2.185727 1_545
Li5 O3 2.206337 1_655
Li5 O41 2.217927 1_545
Li5 O10 2.231938 1_655
Li6 O21 2.109667 1_555
Li6 O26 2.141472 1_545
Li6 O29 2.204705 1_555
Li6 O18 2.216897 1_545
Li6 O31 2.218438 1_555
Li6 O13 2.221895 1_545
Li7 O21 2.109667 1_555
Li7 O26 2.141472 1_555
Li7 O29 2.204705 1_555
Li7 O18 2.216897 1_555
Li7 O35 2.218438 1_555
Li7 O12 2.221895 1_555
Li8 O24 2.123977 1_545
Li8 O22 2.134092 1_555
Li8 O30 2.169114 1_555
Li8 O15 2.186187 1_545
Li8 O27 2.206907 1_555
Li8 O19 2.219161 1_545
Li9 O24 2.123977 1_555
Li9 O22 2.134092 1_555
Li9 O34 2.169114 1_555
Li9 O14 2.186187 1_555
Li9 O27 2.206907 1_555
Li9 O19 2.219161 1_555
Li10 O25 2.098298 1_545
Li10 O23 2.119147 1_555
Li10 O32 2.193579 1_555
Li10 O20 2.210365 1_545
Li10 O28 2.221392 1_555
Li10 O17 2.243007 1_545
Li11 O25 2.098298 1_555
Li11 O23 2.119147 1_555
Li11 O33 2.193579 1_555
Li11 O20 2.210365 1_555
Li11 O28 2.221392 1_555
Li11 O16 2.243007 1_555
Mn0 O7 2.132684 1_555
Mn0 O6 2.132684 1_565
Mn0 O0 2.163035 1_555
Mn0 O19 2.247502 1_555
Mn0 O15 2.285156 1_555
Mn0 O14 2.285156 1_555
Mn1 O8 2.132052 1_565
Mn1 O9 2.132052 1_555
Mn1 O1 2.154210 1_555
Mn1 O18 2.262822 1_555
Mn1 O13 2.283705 1_555
Mn1 O12 2.283705 1_555
Mn2 O15 2.127056 1_545
Mn2 O14 2.127056 1_555
Mn2 O21 2.167600 1_555
Mn2 O5 2.253292 1_555
Mn2 O9 2.277430 1_555
Mn2 O8 2.277430 1_555
Mn3 O30 2.136988 1_565
Mn3 O34 2.136988 1_555
Mn3 O25 2.153374 1_554
Mn3 O44 2.248120 1_555
Mn3 O36 2.291543 1_554
Mn3 O37 2.291543 1_554
Fe0 O2 2.086078 1_555
Fe0 O10 2.091249 1_565
Fe0 O11 2.091249 1_555
Fe0 O20 2.172866 1_555
Fe0 O17 2.272859 1_555
Fe0 O16 2.272859 1_555
Fe1 O13 2.103116 1_545
Fe1 O12 2.103116 1_555
Fe1 O23 2.130240 1_555
Fe1 O3 2.233468 1_555
Fe1 O10 2.254313 1_555
Fe1 O11 2.254313 1_555
Fe2 O17 2.092658 1_545
Fe2 O16 2.092658 1_555
Fe2 O22 2.134141 1_556
Fe2 O4 2.202815 1_555
Fe2 O6 2.267514 1_556
Fe2 O7 2.267514 1_556
Fe3 O35 2.102853 1_555
Fe3 O31 2.102853 1_565
Fe3 O24 2.108569 1_555
Fe3 O43 2.202382 1_555
Fe3 O40 2.256731 1_555
Fe3 O38 2.256731 1_555
Co0 O26 2.101574 1_555
Co0 O33 2.140349 1_555
Co0 O32 2.140349 1_565
Co0 O39 2.181894 1_555
Co0 O41 2.181894 1_555
Co0 O42 2.185043 1_555
Co1 O36 2.114560 1_555
Co1 O37 2.114560 1_545
Co1 O45 2.121656 1_555
Co1 O28 2.195360 1_555
Co1 O33 2.212143 1_555
Co1 O32 2.212143 1_555
Co2 O47 2.069007 1_555
Co2 O41 2.110413 1_545
Co2 O39 2.110413 1_555
Co2 O29 2.190894 1_555
Co2 O31 2.216173 1_555
Co2 O35 2.216173 1_555
Co3 O46 2.082211 1_555
Co3 O38 2.105129 1_555
Co3 O40 2.105129 1_545
Co3 O27 2.216377 1_555
Co3 O30 2.222581 1_555
Co3 O34 2.222581 1_555
O0 P10 1.557966 1_455
O1 P11 1.554599 1_455
O2 P9 1.559887 1_455
O3 P2 1.537822 1_555
O4 P0 1.536330 1_555
O5 P1 1.540112 1_555
O6 P1 1.569964 1_555
O7 P1 1.569964 1_555
O8 P2 1.570881 1_555
O9 P2 1.570881 1_555
O10 P0 1.576648 1_555
O11 P0 1.576648 1_555
O12 P4 1.573878 1_555
O13 P4 1.573878 1_555
O14 P3 1.570025 1_555
O15 P3 1.570025 1_555
O16 P5 1.572032 1_555
O17 P5 1.572032 1_555
O18 P3 1.541386 1_555
O19 P5 1.538798 1_554
O20 P4 1.539190 1_555
O21 P6 1.555907 1_555
O22 P7 1.554346 1_555
O23 P8 1.557971 1_555
O24 P3 1.554412 1_555
O25 P5 1.557333 1_555
O26 P4 1.562173 1_555
O27 P6 1.537330 1_555
O28 P7 1.543353 1_556
O29 P8 1.541643 1_555
O30 P7 1.572473 1_555
O31 P6 1.576269 1_555
O32 P8 1.578098 1_555
O33 P8 1.578098 1_555
O34 P7 1.572473 1_555
O35 P6 1.576269 1_555
O36 P9 1.575273 1_555
O37 P9 1.575273 1_555
O38 P10 1.578087 1_555
O39 P11 1.581578 1_555
O40 P10 1.578087 1_555
O41 P11 1.581578 1_555
O42 P9 1.543585 1_555
O43 P11 1.536489 1_555
O44 P10 1.539271 1_555
O45 P0 1.560700 1_655
O46 P1 1.559796 1_655
O47 P2 1.558944 1_655
