# generated using pymatgen
data_LiZnPH2O5
_symmetry_space_group_name_H-M   'P 1'
_cell_length_a   5.07305700
_cell_length_b   10.15418600
_cell_length_c   16.73517400
_cell_angle_alpha   90.00000000
_cell_angle_beta   90.00000000
_cell_angle_gamma   90.00000000
_symmetry_Int_Tables_number   1
_chemical_formula_structural   LiZnPH2O5
_chemical_formula_sum   'Li8 Zn8 P8 H16 O40'
_cell_volume   862.07507490
_cell_formula_units_Z   8
loop_
 _symmetry_equiv_pos_site_id
 _symmetry_equiv_pos_as_xyz
  1  'x, y, z'
loop_
 _atom_site_type_symbol
 _atom_site_label
 _atom_site_symmetry_multiplicity
 _atom_site_fract_x
 _atom_site_fract_y
 _atom_site_fract_z
 _atom_site_occupancy
  Li  Li0  1  0.90651400  0.89786400  0.25195600  1
  Li  Li1  1  0.09348600  0.39786400  0.74804400  1
  Li  Li2  1  0.90651400  0.39786400  0.24804400  1
  Li  Li3  1  0.09348600  0.89786400  0.75195600  1
  Li  Li4  1  0.53059400  0.17599000  0.99670600  1
  Li  Li5  1  0.46940600  0.67599000  0.00329400  1
  Li  Li6  1  0.53059400  0.67599000  0.50329400  1
  Li  Li7  1  0.46940600  0.17599000  0.49670600  1
  Zn  Zn0  1  0.54105000  0.15251100  0.19090700  1
  Zn  Zn1  1  0.45895000  0.65251100  0.80909300  1
  Zn  Zn2  1  0.54105000  0.65251100  0.30909300  1
  Zn  Zn3  1  0.45895000  0.15251100  0.69090700  1
  Zn  Zn4  1  0.89163000  0.91801200  0.05669900  1
  Zn  Zn5  1  0.10837000  0.41801200  0.94330100  1
  Zn  Zn6  1  0.89163000  0.41801200  0.44330100  1
  Zn  Zn7  1  0.10837000  0.91801200  0.55669900  1
  P  P0  1  0.41180400  0.84901800  0.15826700  1
  P  P1  1  0.58819600  0.34901800  0.84173300  1
  P  P2  1  0.41180400  0.34901800  0.34173300  1
  P  P3  1  0.58819600  0.84901800  0.65826700  1
  P  P4  1  0.98508200  0.72345100  0.90834600  1
  P  P5  1  0.01491800  0.22345100  0.09165400  1
  P  P6  1  0.98508200  0.22345100  0.59165400  1
  P  P7  1  0.01491800  0.72345100  0.40834600  1
  H  H0  1  0.13408600  0.10635900  0.30283600  1
  H  H1  1  0.86591400  0.60635900  0.69716400  1
  H  H2  1  0.13408600  0.60635900  0.19716400  1
  H  H3  1  0.86591400  0.10635900  0.80283600  1
  H  H4  1  0.09389400  0.00746000  0.37223200  1
  H  H5  1  0.90610600  0.50746000  0.62776800  1
  H  H6  1  0.09389400  0.50746000  0.12776800  1
  H  H7  1  0.90610600  0.00746000  0.87223200  1
  H  H8  1  0.36042200  0.04893400  0.88055900  1
  H  H9  1  0.63957800  0.54893400  0.11944100  1
  H  H10  1  0.36042200  0.54893400  0.61944100  1
  H  H11  1  0.63957800  0.04893400  0.38055900  1
  H  H12  1  0.39709100  0.94610200  0.94729200  1
  H  H13  1  0.60290900  0.44610200  0.05270800  1
  H  H14  1  0.39709100  0.44610200  0.55270800  1
  H  H15  1  0.60290900  0.94610200  0.44729200  1
  O  O0  1  0.56725700  0.95747800  0.20457600  1
  O  O1  1  0.43274300  0.45747800  0.79542400  1
  O  O2  1  0.56725700  0.45747800  0.29542400  1
  O  O3  1  0.43274300  0.95747800  0.70457600  1
  O  O4  1  0.31420100  0.19182800  0.09702200  1
  O  O5  1  0.68579900  0.69182800  0.90297800  1
  O  O6  1  0.31420100  0.69182800  0.40297800  1
  O  O7  1  0.68579900  0.19182800  0.59702200  1
  O  O8  1  0.89275900  0.23886600  0.17677600  1
  O  O9  1  0.10724100  0.73886600  0.82322400  1
  O  O10  1  0.89275900  0.73886600  0.32322400  1
  O  O11  1  0.10724100  0.23886600  0.67677600  1
  O  O12  1  0.53697200  0.83276900  0.07335600  1
  O  O13  1  0.46302800  0.33276900  0.92664400  1
  O  O14  1  0.53697200  0.33276900  0.42664400  1
  O  O15  1  0.46302800  0.83276900  0.57335600  1
  O  O16  1  0.86429200  0.11256300  0.04624300  1
  O  O17  1  0.13570800  0.61256300  0.95375700  1
  O  O18  1  0.86429200  0.61256300  0.45375700  1
  O  O19  1  0.13570800  0.11256300  0.54624300  1
  O  O20  1  0.11660100  0.88700800  0.15129000  1
  O  O21  1  0.88339900  0.38700800  0.84871000  1
  O  O22  1  0.11660100  0.38700800  0.34871000  1
  O  O23  1  0.88339900  0.88700800  0.65129000  1
  O  O24  1  0.43007200  0.21704100  0.29551600  1
  O  O25  1  0.56992800  0.71704100  0.70448400  1
  O  O26  1  0.43007200  0.71704100  0.20448400  1
  O  O27  1  0.56992800  0.21704100  0.79551600  1
  O  O28  1  0.02853100  0.85380700  0.95479600  1
  O  O29  1  0.97146900  0.35380700  0.04520400  1
  O  O30  1  0.02853100  0.35380700  0.54520400  1
  O  O31  1  0.97146900  0.85380700  0.45479600  1
  O  O32  1  0.01048600  0.03957600  0.32332200  1
  O  O33  1  0.98951400  0.53957600  0.67667800  1
  O  O34  1  0.01048600  0.53957600  0.17667800  1
  O  O35  1  0.98951400  0.03957600  0.82332200  1
  O  O36  1  0.47406200  0.02716200  0.92610100  1
  O  O37  1  0.52593800  0.52716200  0.07389900  1
  O  O38  1  0.47406200  0.52716200  0.57389900  1
  O  O39  1  0.52593800  0.02716200  0.42610100  1
loop_
_geom_bond_atom_site_label_1
_geom_bond_atom_site_label_2
_geom_bond_distance
_geom_bond_site_symmetry_2
Li0 O32 1.943000 1_665
Li0 O0 1.989276 1_555
Li0 O20 1.996531 1_655
Li0 O10 2.008471 1_555
Li1 O33 1.943000 1_455
Li1 O1 1.989276 1_555
Li1 O21 1.996531 1_455
Li1 O11 2.008471 1_555
Li2 O34 1.943000 1_655
Li2 O2 1.989276 1_555
Li2 O22 1.996531 1_655
Li2 O8 2.008471 1_555
Li3 O35 1.943000 1_465
Li3 O3 1.989276 1_555
Li3 O23 1.996531 1_455
Li3 O9 2.008471 1_555
Li4 O36 1.939640 1_555
Li4 O16 1.991950 1_556
Li4 O13 2.006637 1_555
Li4 O4 2.012302 1_556
Li5 O37 1.939640 1_555
Li5 O17 1.991950 1_554
Li5 O12 2.006637 1_555
Li5 O5 2.012302 1_554
Li6 O38 1.939640 1_555
Li6 O18 1.991950 1_555
Li6 O15 2.006637 1_555
Li6 O6 2.012302 1_555
Li7 O39 1.939640 1_555
Li7 O19 1.991950 1_555
Li7 O14 2.006637 1_555
Li7 O7 2.012302 1_555
H0 O32 0.985170 1_555
H1 O33 0.985170 1_555
H2 O34 0.985170 1_555
H3 O35 0.985170 1_555
H4 O32 0.977426 1_555
H5 O33 0.977426 1_555
H6 O34 0.977426 1_555
H7 O35 0.977426 1_555
H8 O36 0.980871 1_555
H9 O37 0.980871 1_555
H10 O38 0.980871 1_555
H11 O39 0.980871 1_555
H12 O36 0.977615 1_565
H13 O37 0.977615 1_555
H14 O38 0.977615 1_555
H15 O39 0.977615 1_565
O0 P0 1.560591 1_555
O0 Zn0 1.997997 1_565
O1 P1 1.560591 1_555
O1 Zn1 1.997997 1_555
O2 P2 1.560591 1_555
O2 Zn2 1.997997 1_555
O3 P3 1.560591 1_555
O3 Zn3 1.997997 1_565
O4 P5 1.554462 1_555
O4 Zn0 1.988059 1_555
O5 P4 1.554462 1_555
O5 Zn1 1.988059 1_555
O6 P7 1.554462 1_555
O6 Zn2 1.988059 1_555
O7 P6 1.554462 1_555
O7 Zn3 1.988059 1_555
O8 P5 1.561359 1_655
O8 Zn0 2.002081 1_555
O9 P4 1.561359 1_455
O9 Zn1 2.002081 1_555
O10 P7 1.561359 1_655
O10 Zn2 2.002081 1_555
O11 P6 1.561359 1_455
O11 Zn3 2.002081 1_555
O12 P0 1.565142 1_555
O12 Zn4 2.015948 1_555
O13 P1 1.565142 1_555
O13 Zn5 2.015948 1_555
O14 P2 1.565142 1_555
O14 Zn6 2.015948 1_555
O15 P3 1.565142 1_555
O15 Zn7 2.015948 1_555
O16 P5 1.558611 1_655
O16 Zn4 1.988085 1_545
O17 P4 1.558611 1_455
O17 Zn5 1.988085 1_555
O18 P7 1.558611 1_655
O18 Zn6 1.988085 1_555
O19 P6 1.558611 1_455
O19 Zn7 1.988085 1_545
O20 P0 1.550868 1_555
O20 Zn4 1.976749 1_455
O21 P1 1.550868 1_555
O21 Zn5 1.976749 1_655
O22 P2 1.550868 1_555
O22 Zn6 1.976749 1_455
O23 P3 1.550868 1_555
O23 Zn7 1.976749 1_655
O24 P2 1.550075 1_555
O24 Zn0 1.952202 1_555
O25 P3 1.550075 1_555
O25 Zn1 1.952202 1_555
O26 P0 1.550075 1_555
O26 Zn2 1.952202 1_555
O27 P1 1.550075 1_555
O27 Zn3 1.952202 1_555
O28 P4 1.550783 1_455
O28 Zn4 1.953368 1_456
O29 P5 1.550783 1_655
O29 Zn5 1.953368 1_654
O30 P6 1.550783 1_455
O30 Zn6 1.953368 1_455
O31 P7 1.550783 1_655
O31 Zn7 1.953368 1_655
