# generated using pymatgen
data_Ba4La6Mn(Co3O10)3
_symmetry_space_group_name_H-M   'P 1'
_cell_length_a   5.59716400
_cell_length_b   5.59716400
_cell_length_c   19.31652700
_cell_angle_alpha   90.00000000
_cell_angle_beta   90.00000000
_cell_angle_gamma   90.00000000
_symmetry_Int_Tables_number   1
_chemical_formula_structural   Ba4La6Mn(Co3O10)3
_chemical_formula_sum   'Ba4 La6 Mn1 Co9 O30'
_cell_volume   605.15288737
_cell_formula_units_Z   1
loop_
 _symmetry_equiv_pos_site_id
 _symmetry_equiv_pos_as_xyz
  1  'x, y, z'
loop_
 _atom_site_type_symbol
 _atom_site_label
 _atom_site_symmetry_multiplicity
 _atom_site_fract_x
 _atom_site_fract_y
 _atom_site_fract_z
 _atom_site_occupancy
  Ba  Ba0  1  0.50000000  0.00000000  0.39977900  1
  Ba  Ba1  1  0.00000000  0.50000000  0.39977900  1
  Ba  Ba2  1  0.00000000  0.50000000  0.60022100  1
  Ba  Ba3  1  0.50000000  0.00000000  0.60022100  1
  La  La0  1  0.00000000  0.50000000  0.00000000  1
  La  La1  1  0.50000000  0.00000000  0.00000000  1
  La  La2  1  0.00000000  0.50000000  0.80071300  1
  La  La3  1  0.00000000  0.50000000  0.19928700  1
  La  La4  1  0.50000000  0.00000000  0.80071300  1
  La  La5  1  0.50000000  0.00000000  0.19928700  1
  Mn  Mn0  1  0.50000000  0.50000000  0.50000000  1
  Co  Co0  1  0.00000000  0.00000000  0.69988800  1
  Co  Co1  1  0.00000000  0.00000000  0.50000000  1
  Co  Co2  1  0.00000000  0.00000000  0.09948900  1
  Co  Co3  1  0.00000000  0.00000000  0.90051100  1
  Co  Co4  1  0.00000000  0.00000000  0.30011200  1
  Co  Co5  1  0.50000000  0.50000000  0.70609800  1
  Co  Co6  1  0.50000000  0.50000000  0.09875600  1
  Co  Co7  1  0.50000000  0.50000000  0.90124400  1
  Co  Co8  1  0.50000000  0.50000000  0.29390200  1
  O  O0  1  0.74221700  0.25778300  0.28370000  1
  O  O1  1  0.50000000  0.50000000  0.60252600  1
  O  O2  1  0.50000000  0.50000000  0.39747400  1
  O  O3  1  0.50000000  0.50000000  0.00000000  1
  O  O4  1  0.50000000  0.50000000  0.80880100  1
  O  O5  1  0.50000000  0.50000000  0.19119900  1
  O  O6  1  0.75107200  0.75107200  0.50000000  1
  O  O7  1  0.74221700  0.74221700  0.71630000  1
  O  O8  1  0.75048400  0.75048400  0.90472900  1
  O  O9  1  0.75048400  0.75048400  0.09527100  1
  O  O10  1  0.74221700  0.74221700  0.28370000  1
  O  O11  1  0.74221700  0.25778300  0.71630000  1
  O  O12  1  0.25778300  0.74221700  0.28370000  1
  O  O13  1  0.00000000  0.00000000  0.60931600  1
  O  O14  1  0.75107200  0.24892800  0.50000000  1
  O  O15  1  0.75048400  0.24951600  0.09527100  1
  O  O16  1  0.00000000  0.00000000  0.39068400  1
  O  O17  1  0.75048400  0.24951600  0.90472900  1
  O  O18  1  0.00000000  0.00000000  0.80468700  1
  O  O19  1  0.00000000  0.00000000  0.00000000  1
  O  O20  1  0.00000000  0.00000000  0.19531300  1
  O  O21  1  0.25778300  0.25778300  0.71630000  1
  O  O22  1  0.24892800  0.24892800  0.50000000  1
  O  O23  1  0.24951600  0.24951600  0.09527100  1
  O  O24  1  0.24951600  0.24951600  0.90472900  1
  O  O25  1  0.25778300  0.25778300  0.28370000  1
  O  O26  1  0.24892800  0.75107200  0.50000000  1
  O  O27  1  0.25778300  0.74221700  0.71630000  1
  O  O28  1  0.24951600  0.75048400  0.90472900  1
  O  O29  1  0.24951600  0.75048400  0.09527100  1
loop_
_geom_bond_atom_site_label_1
_geom_bond_atom_site_label_2
_geom_bond_distance
_geom_bond_site_symmetry_2
Ba0 O14 2.768374 1_555
Ba0 O22 2.768374 1_555
Ba0 O6 2.768374 1_545
Ba0 O26 2.768374 1_545
Ba0 O2 2.798936 1_545
Ba0 O2 2.798936 1_555
Ba0 O16 2.804091 1_655
Ba0 O16 2.804091 1_555
Ba0 O25 2.991234 1_555
Ba0 O12 2.991234 1_545
Ba0 O0 2.991234 1_555
Ba0 O10 2.991234 1_545
Ba1 O26 2.768374 1_555
Ba1 O22 2.768374 1_555
Ba1 O6 2.768374 1_455
Ba1 O14 2.768374 1_455
Ba1 O2 2.798936 1_455
Ba1 O2 2.798936 1_555
Ba1 O16 2.804091 1_565
Ba1 O16 2.804091 1_555
Ba1 O25 2.991234 1_555
Ba1 O10 2.991234 1_455
Ba1 O12 2.991234 1_555
Ba1 O0 2.991234 1_455
Ba2 O26 2.768374 1_555
Ba2 O22 2.768374 1_555
Ba2 O6 2.768374 1_455
Ba2 O14 2.768374 1_455
Ba2 O1 2.798936 1_555
Ba2 O1 2.798936 1_455
Ba2 O13 2.804091 1_555
Ba2 O13 2.804091 1_565
Ba2 O11 2.991234 1_455
Ba2 O7 2.991234 1_455
Ba2 O27 2.991234 1_555
Ba2 O21 2.991234 1_555
Ba3 O14 2.768374 1_555
Ba3 O22 2.768374 1_555
Ba3 O6 2.768374 1_545
Ba3 O26 2.768374 1_545
Ba3 O1 2.798936 1_545
Ba3 O1 2.798936 1_555
Ba3 O13 2.804091 1_655
Ba3 O13 2.804091 1_555
Ba3 O11 2.991234 1_555
Ba3 O27 2.991234 1_545
Ba3 O21 2.991234 1_555
Ba3 O7 2.991234 1_545
La0 O29 2.702363 1_555
La0 O28 2.702363 1_554
La0 O8 2.702363 1_454
La0 O23 2.702363 1_555
La0 O9 2.702363 1_455
La0 O24 2.702363 1_554
La0 O15 2.702363 1_455
La0 O17 2.702363 1_454
La0 O19 2.798582 1_565
La0 O3 2.798582 1_555
La0 O3 2.798582 1_455
La0 O19 2.798582 1_555
La1 O15 2.702363 1_555
La1 O17 2.702363 1_554
La1 O23 2.702363 1_555
La1 O9 2.702363 1_545
La1 O8 2.702363 1_544
La1 O24 2.702363 1_554
La1 O28 2.702363 1_544
La1 O29 2.702363 1_545
La1 O3 2.798582 1_545
La1 O3 2.798582 1_555
La1 O19 2.798582 1_655
La1 O19 2.798582 1_555
La2 O27 2.564873 1_555
La2 O21 2.564873 1_555
La2 O7 2.564873 1_455
La2 O11 2.564873 1_455
La2 O18 2.799635 1_555
La2 O18 2.799635 1_565
La2 O4 2.802939 1_455
La2 O4 2.802939 1_555
La2 O28 2.820114 1_555
La2 O8 2.820114 1_455
La2 O24 2.820114 1_555
La2 O17 2.820114 1_455
La3 O0 2.564873 1_455
La3 O12 2.564873 1_555
La3 O10 2.564873 1_455
La3 O25 2.564873 1_555
La3 O20 2.799635 1_555
La3 O20 2.799635 1_565
La3 O5 2.802939 1_455
La3 O5 2.802939 1_555
La3 O29 2.820114 1_555
La3 O23 2.820114 1_555
La3 O9 2.820114 1_455
La3 O15 2.820114 1_455
La4 O11 2.564873 1_555
La4 O21 2.564873 1_555
La4 O27 2.564873 1_545
La4 O7 2.564873 1_545
La4 O18 2.799635 1_555
La4 O18 2.799635 1_655
La4 O4 2.802939 1_555
La4 O4 2.802939 1_545
La4 O17 2.820114 1_555
La4 O24 2.820114 1_555
La4 O8 2.820114 1_545
La4 O28 2.820114 1_545
La5 O10 2.564873 1_545
La5 O0 2.564873 1_555
La5 O25 2.564873 1_555
La5 O12 2.564873 1_545
La5 O20 2.799635 1_555
La5 O20 2.799635 1_655
La5 O5 2.802939 1_555
La5 O5 2.802939 1_545
La5 O15 2.820114 1_555
La5 O23 2.820114 1_555
La5 O9 2.820114 1_545
La5 O29 2.820114 1_545
Mn0 O1 1.980446 1_555
Mn0 O2 1.980446 1_555
Mn0 O6 1.987382 1_555
Mn0 O14 1.987382 1_555
Mn0 O26 1.987382 1_555
Mn0 O22 1.987382 1_555
Co0 O13 1.749536 1_555
Co0 O18 2.024353 1_555
Co0 O21 2.064984 1_555
Co0 O27 2.064984 1_545
Co0 O7 2.064984 1_445
Co0 O11 2.064984 1_455
Co1 O22 1.970411 1_555
Co1 O26 1.970411 1_545
Co1 O14 1.970411 1_455
Co1 O6 1.970411 1_445
Co1 O13 2.111605 1_555
Co1 O16 2.111605 1_555
Co2 O20 1.850987 1_555
Co2 O19 1.921782 1_555
Co2 O23 1.976745 1_555
Co2 O29 1.976745 1_545
Co2 O15 1.976745 1_455
Co2 O9 1.976745 1_445
Co3 O18 1.850987 1_555
Co3 O19 1.921782 1_556
Co3 O24 1.976745 1_555
Co3 O17 1.976745 1_455
Co3 O28 1.976745 1_545
Co3 O8 1.976745 1_445
Co4 O16 1.749536 1_555
Co4 O20 2.024353 1_555
Co4 O12 2.064984 1_545
Co4 O10 2.064984 1_445
Co4 O0 2.064984 1_455
Co4 O25 2.064984 1_555
Co5 O27 1.927390 1_555
Co5 O7 1.927390 1_555
Co5 O11 1.927390 1_555
Co5 O21 1.927390 1_555
Co5 O4 1.983865 1_555
Co5 O1 2.000651 1_555
Co6 O5 1.785678 1_555
Co6 O3 1.907623 1_555
Co6 O9 1.983870 1_555
Co6 O29 1.983870 1_555
Co6 O15 1.983870 1_555
Co6 O23 1.983870 1_555
Co7 O4 1.785678 1_555
Co7 O3 1.907623 1_556
Co7 O8 1.983870 1_555
Co7 O17 1.983870 1_555
Co7 O28 1.983870 1_555
Co7 O24 1.983870 1_555
Co8 O12 1.927390 1_555
Co8 O25 1.927390 1_555
Co8 O0 1.927390 1_555
Co8 O10 1.927390 1_555
Co8 O5 1.983865 1_555
Co8 O2 2.000651 1_555
