# generated using pymatgen
data_MnSn3(PO4)4
_symmetry_space_group_name_H-M   'P 1'
_cell_length_a   5.14819998
_cell_length_b   12.21830150
_cell_length_c   12.21833034
_cell_angle_alpha   118.79743760
_cell_angle_beta   89.52744751
_cell_angle_gamma   90.47339925
_symmetry_Int_Tables_number   1
_chemical_formula_structural   MnSn3(PO4)4
_chemical_formula_sum   'Mn2 Sn6 P8 O32'
_cell_volume   673.48035779
_cell_formula_units_Z   2
loop_
 _symmetry_equiv_pos_site_id
 _symmetry_equiv_pos_as_xyz
  1  'x, y, z'
loop_
 _atom_site_type_symbol
 _atom_site_label
 _atom_site_symmetry_multiplicity
 _atom_site_fract_x
 _atom_site_fract_y
 _atom_site_fract_z
 _atom_site_occupancy
  Mn  Mn0  1  0.05048400  0.23846600  0.51154000  1
  Mn  Mn1  1  0.05113200  0.73842800  0.01152700  1
  Sn  Sn0  1  0.45015900  0.48041500  0.26959900  1
  Sn  Sn1  1  0.45011800  0.98038400  0.76961800  1
  Sn  Sn2  1  0.55063500  0.51856600  0.73147100  1
  Sn  Sn3  1  0.55063900  0.01852600  0.23142800  1
  Sn  Sn4  1  0.95873000  0.26529200  0.98471800  1
  Sn  Sn5  1  0.95873100  0.76528700  0.48470100  1
  P  P0  1  0.11379500  0.43433900  0.81565000  1
  P  P1  1  0.11378400  0.93433200  0.31566500  1
  P  P2  1  0.43115100  0.16623000  0.08378900  1
  P  P3  1  0.43110200  0.66621200  0.58377900  1
  P  P4  1  0.58408300  0.82790800  0.92209500  1
  P  P5  1  0.58389600  0.32788100  0.42211500  1
  P  P6  1  0.87096200  0.57260400  0.17741900  1
  P  P7  1  0.87090400  0.07255600  0.67742600  1
  O  O0  1  0.16164900  0.36421200  0.88583400  1
  O  O1  1  0.16165300  0.86414600  0.38579600  1
  O  O2  1  0.14822300  0.54375200  0.20629000  1
  O  O3  1  0.14816200  0.04368800  0.70626700  1
  O  O4  1  0.29267300  0.82064900  0.92936400  1
  O  O5  1  0.29250500  0.32057800  0.42939300  1
  O  O6  1  0.32513700  0.59669800  0.65327400  1
  O  O7  1  0.32518400  0.09672800  0.15329900  1
  O  O8  1  0.67167400  0.39941200  0.35058900  1
  O  O9  1  0.67194100  0.89943900  0.85057900  1
  O  O10  1  0.72357300  0.16871400  0.08129400  1
  O  O11  1  0.72357300  0.66870600  0.58128700  1
  O  O12  1  0.81619300  0.44773300  0.80230300  1
  O  O13  1  0.81618000  0.94770200  0.30228700  1
  O  O14  1  0.88225600  0.64394800  0.10607800  1
  O  O15  1  0.88214000  0.14390600  0.60608400  1
  O  O16  1  0.25644900  0.37323000  0.68381700  1
  O  O17  1  0.25648600  0.87323500  0.18382500  1
  O  O18  1  0.25650400  0.56617800  0.87675400  1
  O  O19  1  0.25647200  0.06616000  0.37676700  1
  O  O20  1  0.30376900  0.10170600  0.94918200  1
  O  O21  1  0.30380200  0.60170600  0.44916400  1
  O  O22  1  0.30382000  0.30084400  0.14829500  1
  O  O23  1  0.30377500  0.80081800  0.64831000  1
  O  O24  1  0.72159600  0.69502900  0.85851600  1
  O  O25  1  0.72151300  0.19500800  0.35852500  1
  O  O26  1  0.72158100  0.89148500  0.05497900  1
  O  O27  1  0.72151700  0.39146100  0.55499000  1
  O  O28  1  0.70243800  0.44653400  0.11365500  1
  O  O29  1  0.70238900  0.94648300  0.61367100  1
  O  O30  1  0.70241500  0.63637600  0.30349300  1
  O  O31  1  0.70245000  0.13630500  0.80350600  1
loop_
_geom_bond_atom_site_label_1
_geom_bond_atom_site_label_2
_geom_bond_distance
_geom_bond_site_symmetry_2
Mn0 O5 2.120207 1_555
Mn0 O15 2.161750 1_455
Mn0 O16 2.221510 1_555
Mn0 O19 2.221833 1_555
Mn0 O27 2.392881 1_455
Mn0 O25 2.393024 1_455
Mn1 O4 2.119840 1_554
Mn1 O14 2.162123 1_455
Mn1 O18 2.219909 1_554
Mn1 O17 2.220305 1_555
Mn1 O24 2.395180 1_454
Mn1 O26 2.395535 1_455
O0 P0 1.498359 1_555
O0 Sn4 2.318847 1_455
O1 P1 1.498435 1_555
O1 Sn5 2.318478 1_455
O2 P6 1.556468 1_455
O2 Sn0 2.056672 1_555
O3 P7 1.556395 1_455
O3 Sn1 2.056812 1_545
O4 P4 1.506538 1_555
O5 P5 1.506492 1_555
O6 P3 1.555472 1_555
O6 Sn2 2.021697 1_555
O7 P2 1.555505 1_555
O7 Sn3 2.021585 1_555
O8 P5 1.566731 1_555
O8 Sn0 2.059159 1_555
O9 P4 1.566745 1_555
O9 Sn1 2.059289 1_555
O10 P2 1.505855 1_555
O10 Sn4 2.354741 1_554
O11 P3 1.506109 1_555
O11 Sn5 2.354861 1_555
O12 P0 1.560362 1_655
O12 Sn2 2.031698 1_555
O13 P1 1.560386 1_655
O13 Sn3 2.031778 1_565
O14 P6 1.501141 1_555
O15 P7 1.501206 1_555
O16 P0 1.588175 1_555
O16 Sn2 2.181768 1_555
O17 P1 1.588357 1_555
O17 Sn3 2.181351 1_565
O18 P0 1.588344 1_555
O18 Sn2 2.181221 1_555
O19 P1 1.588189 1_545
O19 Sn3 2.181782 1_555
O20 P2 1.586376 1_556
O20 Sn1 2.106283 1_545
O20 Sn4 2.559041 1_455
O21 P3 1.586279 1_555
O21 Sn0 2.106229 1_555
O21 Sn5 2.559111 1_455
O22 P2 1.586348 1_555
O22 Sn0 2.106257 1_555
O22 Sn4 2.559084 1_454
O23 P3 1.586259 1_555
O23 Sn1 2.106232 1_555
O23 Sn5 2.559249 1_455
O24 P4 1.592295 1_555
O24 Sn2 2.144675 1_555
O25 P5 1.592476 1_555
O25 Sn3 2.144798 1_555
O26 P4 1.592296 1_554
O26 Sn3 2.144536 1_565
O27 P5 1.592493 1_555
O27 Sn2 2.144856 1_555
O28 P6 1.601652 1_555
O28 Sn0 2.167212 1_555
O28 Sn4 2.404077 1_554
O29 P7 1.601651 1_565
O29 Sn1 2.167160 1_555
O29 Sn5 2.403960 1_555
O30 P6 1.601775 1_555
O30 Sn0 2.167244 1_555
O30 Sn5 2.403798 1_555
O31 P7 1.601563 1_555
O31 Sn1 2.167110 1_545
O31 Sn4 2.403918 1_555
