# generated using pymatgen
data_Co6O5F7
_symmetry_space_group_name_H-M   'P 1'
_cell_length_a   5.57862294
_cell_length_b   5.57862294
_cell_length_c   7.18056203
_cell_angle_alpha   71.97797285
_cell_angle_beta   71.97797285
_cell_angle_gamma   72.27119140
_symmetry_Int_Tables_number   1
_chemical_formula_structural   Co6O5F7
_chemical_formula_sum   'Co6 O5 F7'
_cell_volume   196.61644523
_cell_formula_units_Z   1
loop_
 _symmetry_equiv_pos_site_id
 _symmetry_equiv_pos_as_xyz
  1  'x, y, z'
loop_
 _atom_site_type_symbol
 _atom_site_label
 _atom_site_symmetry_multiplicity
 _atom_site_fract_x
 _atom_site_fract_y
 _atom_site_fract_z
 _atom_site_occupancy
  Co  Co0  1  0.30034700  0.30034700  0.17978800  1
  Co  Co1  1  0.35237900  0.35237900  0.69148000  1
  Co  Co2  1  0.66364200  0.66364200  0.32898900  1
  Co  Co3  1  0.67198900  0.67198900  0.83911100  1
  Co  Co4  1  0.02223300  0.02223300  0.48075300  1
  Co  Co5  1  0.99377800  0.99377800  0.00000600  1
  O  O0  1  0.95242100  0.38043500  0.32689300  1
  O  O1  1  0.77075200  0.77075200  0.04187100  1
  O  O2  1  0.57730600  0.57730600  0.61672300  1
  O  O3  1  0.21315700  0.21315700  0.96827400  1
  O  O4  1  0.38043500  0.95242100  0.32689300  1
  F  F0  1  0.64879900  0.04132900  0.66120500  1
  F  F1  1  0.42520300  0.42520300  0.37080400  1
  F  F2  1  0.10619600  0.10619600  0.69937500  1
  F  F3  1  0.90362600  0.90362600  0.29703800  1
  F  F4  1  0.04132900  0.64879900  0.66120500  1
  F  F5  1  0.68216000  0.29424900  0.00479500  1
  F  F6  1  0.29424900  0.68216000  0.00479500  1
loop_
_geom_bond_atom_site_label_1
_geom_bond_atom_site_label_2
_geom_bond_distance
_geom_bond_site_symmetry_2
Co0 O4 1.891543 1_545
Co0 O0 1.891543 1_455
Co0 O3 1.959130 1_554
Co0 F1 2.080705 1_555
Co0 F5 2.107882 1_555
Co0 F6 2.107882 1_555
Co1 O2 1.887446 1_555
Co1 O3 1.900993 1_555
Co1 F4 2.013994 1_555
Co1 F0 2.013994 1_555
Co1 F1 2.138941 1_555
Co1 F2 2.197227 1_555
Co2 O4 1.881815 1_555
Co2 O0 1.881815 1_555
Co2 O2 1.908530 1_555
Co2 O1 1.912454 1_555
Co2 F1 2.052345 1_555
Co2 F3 2.085370 1_555
Co3 O1 1.975962 1_556
Co3 F0 2.050660 1_565
Co3 F4 2.050660 1_655
Co3 F6 2.068064 1_556
Co3 F5 2.068064 1_556
Co3 O2 2.078875 1_555
Co4 O0 1.947199 1_455
Co4 O4 1.947199 1_545
Co4 F2 1.986639 1_555
Co4 F3 1.990637 1_445
Co4 F4 2.076104 1_545
Co4 F0 2.076104 1_455
Co5 O3 1.901193 1_664
Co5 O1 1.914739 1_555
Co5 F3 1.970160 1_555
Co5 F2 2.002685 1_664
Co5 F6 2.014183 1_655
Co5 F5 2.014183 1_565
