# generated using pymatgen
data_Li4TiCo2Ni3(PO4)6
_symmetry_space_group_name_H-M   'P 1'
_cell_length_a   8.41454000
_cell_length_b   8.50778713
_cell_length_c   8.52599093
_cell_angle_alpha   62.09020290
_cell_angle_beta   62.45929705
_cell_angle_gamma   62.31374491
_symmetry_Int_Tables_number   1
_chemical_formula_structural   Li4TiCo2Ni3(PO4)6
_chemical_formula_sum   'Li4 Ti1 Co2 Ni3 P6 O24'
_cell_volume   453.62538891
_cell_formula_units_Z   1
loop_
 _symmetry_equiv_pos_site_id
 _symmetry_equiv_pos_as_xyz
  1  'x, y, z'
loop_
 _atom_site_type_symbol
 _atom_site_label
 _atom_site_symmetry_multiplicity
 _atom_site_fract_x
 _atom_site_fract_y
 _atom_site_fract_z
 _atom_site_occupancy
  Li  Li0  1  0.25472000  0.64108500  0.84786400  1
  Li  Li1  1  0.71057600  0.35164200  0.15236900  1
  Li  Li2  1  0.35425400  0.14731800  0.71062100  1
  Li  Li3  1  0.14638900  0.70896400  0.35371000  1
  Ti  Ti0  1  0.14764300  0.14891800  0.15331100  1
  Co  Co0  1  0.98892100  0.00181300  0.99823100  1
  Co  Co1  1  0.50936100  0.49824800  0.49577400  1
  Ni  Ni0  1  0.85705200  0.85508400  0.85282100  1
  Ni  Ni1  1  0.64168700  0.64592700  0.64351000  1
  Ni  Ni2  1  0.35542200  0.35175300  0.35292500  1
  P  P0  1  0.75392700  0.04205200  0.45462600  1
  P  P1  1  0.44658900  0.75115800  0.04046000  1
  P  P2  1  0.05303000  0.45817300  0.75466000  1
  P  P3  1  0.94724200  0.55487200  0.25641900  1
  P  P4  1  0.55686400  0.24996800  0.95241100  1
  P  P5  1  0.25191000  0.95249600  0.55605700  1
  O  O0  1  0.88338900  0.50058900  0.70692200  1
  O  O1  1  0.69325600  0.88925500  0.47831000  1
  O  O2  1  0.94001100  0.74073400  0.09203200  1
  O  O3  1  0.44685100  0.69710500  0.89298400  1
  O  O4  1  0.00877200  0.38548400  0.18684400  1
  O  O5  1  0.75359100  0.55562800  0.40763400  1
  O  O6  1  0.74944000  0.09585200  0.92626600  1
  O  O7  1  0.53662200  0.41252900  0.76819200  1
  O  O8  1  0.83289700  0.00211500  0.59960000  1
  O  O9  1  0.39841400  0.75439500  0.56313300  1
  O  O10  1  0.90450500  0.08245200  0.24615800  1
  O  O11  1  0.60606200  0.81988900  0.98238100  1
  O  O12  1  0.38791100  0.17575600  0.01775100  1
  O  O13  1  0.10032700  0.92649300  0.75154700  1
  O  O14  1  0.59565400  0.24173600  0.43745800  1
  O  O15  1  0.18181000  0.01233000  0.38842600  1
  O  O16  1  0.43915700  0.59169900  0.23694900  1
  O  O17  1  0.24188700  0.90556800  0.08675100  1
  O  O18  1  0.24852300  0.43477200  0.59164500  1
  O  O19  1  0.04183400  0.60065200  0.82223700  1
  O  O20  1  0.52950900  0.31526800  0.10459900  1
  O  O21  1  0.08396000  0.25120500  0.90625100  1
  O  O22  1  0.32000600  0.10431300  0.52560800  1
  O  O23  1  0.10003100  0.52171200  0.32755600  1
loop_
_geom_bond_atom_site_label_1
_geom_bond_atom_site_label_2
_geom_bond_distance
_geom_bond_site_symmetry_2
Li0 O19 2.092820 1_555
Li0 O13 2.108718 1_555
Li0 O3 2.109890 1_555
Li0 O9 2.112459 1_555
Li0 O7 2.308576 1_555
Li0 O2 2.555997 1_456
Li1 O20 1.926909 1_555
Li1 O14 2.063125 1_555
Li1 O10 2.136996 1_555
Li1 O16 2.329919 1_555
Li2 O22 1.940057 1_555
Li2 O18 2.071651 1_555
Li2 O21 2.177167 1_555
Li2 O14 2.363369 1_555
Li3 O23 1.931408 1_555
Li3 O16 2.105520 1_555
Li3 O17 2.148876 1_555
Li3 O18 2.369552 1_555
Co0 O6 2.064691 1_555
Co0 O13 2.143174 1_645
Co0 O2 2.150542 1_546
Co0 O10 2.227049 1_556
Co0 O17 2.249091 1_646
Co0 O21 2.279376 1_655
Co1 O5 2.046238 1_555
Co1 O7 2.174999 1_555
Co1 O9 2.176181 1_555
Co1 O14 2.178647 1_555
Co1 O18 2.192307 1_555
Co1 O16 2.231001 1_555
Ni0 O11 1.972528 1_555
Ni0 O8 1.976985 1_565
Ni0 O19 2.048694 1_655
Ni0 O13 2.082088 1_655
Ni0 O6 2.088261 1_565
Ni0 O2 2.102703 1_556
Ni1 O1 1.999419 1_555
Ni1 O0 2.002928 1_555
Ni1 O3 2.092961 1_555
Ni1 O9 2.112198 1_555
Ni1 O5 2.131722 1_555
Ni1 O7 2.154240 1_555
Ni2 O22 1.990944 1_555
Ni2 O23 2.001323 1_555
Ni2 O20 2.012323 1_555
Ni2 O14 2.106964 1_555
Ni2 O16 2.108119 1_555
Ni2 O18 2.124360 1_555
O0 P2 1.501532 1_655
O1 P0 1.505638 1_565
O2 P3 1.543758 1_555
O3 P1 1.526533 1_556
O4 P3 1.587352 1_455
O4 Ti0 1.882085 1_555
O5 P3 1.540362 1_555
O6 P4 1.536200 1_555
O7 P4 1.550367 1_555
O8 P0 1.497126 1_555
O9 P5 1.551382 1_555
O10 P0 1.622611 1_555
O10 Ti0 2.071330 1_655
O11 P1 1.493793 1_556
O12 P4 1.581942 1_554
O12 Ti0 1.869883 1_555
O13 P5 1.550785 1_555
O14 P0 1.589416 1_555
O15 P5 1.571373 1_545
O15 Ti0 1.869002 1_555
O16 P1 1.582785 1_555
O17 P1 1.613212 1_555
O17 Ti0 2.096521 1_565
O18 P2 1.586747 1_555
O19 P2 1.519121 1_555
O20 P4 1.524825 1_554
O21 P2 1.610412 1_555
O21 Ti0 2.091873 1_556
O22 P5 1.516671 1_545
O23 P3 1.524534 1_455
