# generated using pymatgen
data_Li2MnSi3O8
_symmetry_space_group_name_H-M   'P 1'
_cell_length_a   6.41185960
_cell_length_b   6.30281682
_cell_length_c   10.26784950
_cell_angle_alpha   109.08029284
_cell_angle_beta   97.72674079
_cell_angle_gamma   103.07333553
_symmetry_Int_Tables_number   1
_chemical_formula_structural   Li2MnSi3O8
_chemical_formula_sum   'Li4 Mn2 Si6 O16'
_cell_volume   372.07506282
_cell_formula_units_Z   2
loop_
 _symmetry_equiv_pos_site_id
 _symmetry_equiv_pos_as_xyz
  1  'x, y, z'
loop_
 _atom_site_type_symbol
 _atom_site_label
 _atom_site_symmetry_multiplicity
 _atom_site_fract_x
 _atom_site_fract_y
 _atom_site_fract_z
 _atom_site_occupancy
  Li  Li0  1  0.85456700  0.78516300  0.14119300  1
  Li  Li1  1  0.85458600  0.28516500  0.64117600  1
  Li  Li2  1  0.10885700  0.68937400  0.38869600  1
  Li  Li3  1  0.10888800  0.18939300  0.88870300  1
  Mn  Mn0  1  0.61398300  0.08583300  0.81080500  1
  Mn  Mn1  1  0.61400700  0.58598000  0.31087400  1
  Si  Si0  1  0.82314700  0.25993800  0.14726000  1
  Si  Si1  1  0.82314400  0.75992700  0.64725700  1
  Si  Si2  1  0.40514800  0.93150000  0.16767200  1
  Si  Si3  1  0.40513500  0.43147300  0.66766400  1
  Si  Si4  1  0.19316300  0.25075300  0.36174000  1
  Si  Si5  1  0.19317300  0.75076800  0.86173800  1
  O  O0  1  0.85863700  0.64827400  0.49014800  1
  O  O1  1  0.85863400  0.14827200  0.99015100  1
  O  O2  1  0.18644500  0.79628300  0.03007300  1
  O  O3  1  0.18644000  0.29627900  0.53007400  1
  O  O4  1  0.88755800  0.54343000  0.21097200  1
  O  O5  1  0.88756200  0.04341800  0.71096800  1
  O  O6  1  0.55333500  0.76367600  0.17932500  1
  O  O7  1  0.55333400  0.26367000  0.67932300  1
  O  O8  1  0.31346000  0.49447100  0.35193000  1
  O  O9  1  0.31348300  0.99447400  0.85192400  1
  O  O10  1  0.55736200  0.17467900  0.15647400  1
  O  O11  1  0.55735600  0.67466000  0.65645200  1
  O  O12  1  0.94465600  0.14894500  0.25612400  1
  O  O13  1  0.94465800  0.64894700  0.75612100  1
  O  O14  1  0.29823800  0.02623000  0.30758100  1
  O  O15  1  0.29823900  0.52622800  0.80758000  1
loop_
_geom_bond_atom_site_label_1
_geom_bond_atom_site_label_2
_geom_bond_distance
_geom_bond_site_symmetry_2
Li0 O4 1.923067 1_555
Li0 O6 2.005454 1_555
Li0 O12 2.105228 1_565
Li0 O2 2.544125 1_655
Li1 O5 1.923209 1_555
Li1 O7 2.005628 1_555
Li1 O13 2.105257 1_555
Li1 O3 2.543884 1_655
Li2 O4 1.950741 1_455
Li2 O8 1.982843 1_555
Li2 O0 2.040601 1_455
Li3 O5 1.950904 1_455
Li3 O9 1.982882 1_545
Li3 O1 2.040770 1_455
Mn0 O9 2.024355 1_545
Mn0 O7 2.067734 1_555
Mn0 O1 2.115860 1_555
Mn0 O5 2.171606 1_555
Mn0 O11 2.468619 1_545
Mn1 O8 2.024483 1_555
Mn1 O6 2.067612 1_555
Mn1 O0 2.115500 1_555
Mn1 O4 2.171935 1_555
Mn1 O10 2.469384 1_555
O0 Si1 1.605714 1_555
O1 Si0 1.605711 1_556
O2 Si5 1.665272 1_554
O2 Si2 1.681743 1_555
O3 Si4 1.665244 1_555
O3 Si3 1.681654 1_555
O4 Si0 1.618787 1_555
O5 Si1 1.618779 1_545
O6 Si2 1.594624 1_555
O7 Si3 1.594584 1_555
O8 Si4 1.597109 1_555
O9 Si5 1.597084 1_555
O10 Si2 1.668416 1_545
O10 Si0 1.692405 1_555
O11 Si3 1.668539 1_555
O11 Si1 1.692371 1_555
O12 Si4 1.656665 1_655
O12 Si0 1.693962 1_555
O13 Si5 1.656706 1_655
O13 Si1 1.693916 1_555
O14 Si2 1.667121 1_545
O14 Si4 1.668323 1_555
O15 Si3 1.667151 1_555
O15 Si5 1.668374 1_555
