# generated using pymatgen
data_Li5Mn2Fe17O32
_symmetry_space_group_name_H-M   'P 1'
_cell_length_a   8.45437930
_cell_length_b   8.47448207
_cell_length_c   8.47731772
_cell_angle_alpha   89.86841886
_cell_angle_beta   90.00141145
_cell_angle_gamma   89.91282843
_symmetry_Int_Tables_number   1
_chemical_formula_structural   Li5Mn2Fe17O32
_chemical_formula_sum   'Li5 Mn2 Fe17 O32'
_cell_volume   607.36771891
_cell_formula_units_Z   1
loop_
 _symmetry_equiv_pos_site_id
 _symmetry_equiv_pos_as_xyz
  1  'x, y, z'
loop_
 _atom_site_type_symbol
 _atom_site_label
 _atom_site_symmetry_multiplicity
 _atom_site_fract_x
 _atom_site_fract_y
 _atom_site_fract_z
 _atom_site_occupancy
  Li  Li0  1  0.99605200  0.49774300  0.49651800  1
  Li  Li1  1  0.12478300  0.87117500  0.37577700  1
  Li  Li2  1  0.37590200  0.12485300  0.87397200  1
  Li  Li3  1  0.62730400  0.62437900  0.62523600  1
  Li  Li4  1  0.87553800  0.37658000  0.12930700  1
  Mn  Mn0  1  0.12740000  0.12497500  0.62631700  1
  Mn  Mn1  1  0.12328000  0.62564500  0.13018000  1
  Fe  Fe0  1  0.99764000  0.99675100  0.99723300  1
  Fe  Fe1  1  0.12580100  0.36988300  0.87742000  1
  Fe  Fe2  1  0.25056800  0.25509900  0.25655500  1
  Fe  Fe3  1  0.24734200  0.75243000  0.75093000  1
  Fe  Fe4  1  0.37781800  0.37512700  0.63071400  1
  Fe  Fe5  1  0.37080500  0.62969800  0.37978200  1
  Fe  Fe6  1  0.37130100  0.88174000  0.12588900  1
  Fe  Fe7  1  0.49808900  0.00041600  0.49726300  1
  Fe  Fe8  1  0.49805800  0.49902700  0.00012800  1
  Fe  Fe9  1  0.62509800  0.13059300  0.11970000  1
  Fe  Fe10  1  0.63799600  0.38197900  0.37655000  1
  Fe  Fe11  1  0.61944600  0.87547300  0.86931800  1
  Fe  Fe12  1  0.75442700  0.25113400  0.74877200  1
  Fe  Fe13  1  0.75501600  0.75002400  0.25218900  1
  Fe  Fe14  1  0.87994400  0.12986500  0.36949500  1
  Fe  Fe15  1  0.86989300  0.61901400  0.86859200  1
  Fe  Fe16  1  0.87410000  0.86244900  0.61838900  1
  O  O0  1  0.11905700  0.12899800  0.39270400  1
  O  O1  1  0.11826900  0.61680100  0.88964800  1
  O  O2  1  0.12982500  0.39181500  0.11661100  1
  O  O3  1  0.11760800  0.89417000  0.62708500  1
  O  O4  1  0.12330800  0.13046500  0.86052000  1
  O  O5  1  0.13781200  0.35112500  0.63945900  1
  O  O6  1  0.13809900  0.62855900  0.34848900  1
  O  O7  1  0.13323300  0.85883400  0.12035500  1
  O  O8  1  0.35671800  0.12987000  0.62366600  1
  O  O9  1  0.35922000  0.63432700  0.13036700  1
  O  O10  1  0.36592600  0.37468900  0.86634300  1
  O  O11  1  0.37531200  0.86603900  0.36438200  1
  O  O12  1  0.38552000  0.38471800  0.38670600  1
  O  O13  1  0.37753600  0.11659100  0.12761000  1
  O  O14  1  0.38351500  0.87382200  0.88452600  1
  O  O15  1  0.36645700  0.61671600  0.61577900  1
  O  O16  1  0.61387900  0.37033800  0.61809400  1
  O  O17  1  0.61501600  0.61772700  0.36953800  1
  O  O18  1  0.62744800  0.11659300  0.88334100  1
  O  O19  1  0.61613700  0.88366400  0.11596600  1
  O  O20  1  0.63180300  0.12999500  0.36538800  1
  O  O21  1  0.62086000  0.36460400  0.13304900  1
  O  O22  1  0.63303200  0.63510700  0.88139600  1
  O  O23  1  0.63190000  0.88072600  0.63451700  1
  O  O24  1  0.85903900  0.35530300  0.37045800  1
  O  O25  1  0.86383500  0.86691900  0.86701900  1
  O  O26  1  0.87163500  0.11954800  0.13378900  1
  O  O27  1  0.87646500  0.63906900  0.64042400  1
  O  O28  1  0.89284800  0.11775500  0.61862200  1
  O  O29  1  0.89542400  0.62757200  0.11795400  1
  O  O30  1  0.88654200  0.38275200  0.87682100  1
  O  O31  1  0.87312400  0.88873500  0.38314800  1
loop_
_geom_bond_atom_site_label_1
_geom_bond_atom_site_label_2
_geom_bond_distance
_geom_bond_site_symmetry_2
Li0 O27 1.986938 1_555
Li0 O24 1.987721 1_555
Li0 O6 2.060019 1_655
Li0 O5 2.106432 1_655
Li1 O6 2.072436 1_555
Li1 O11 2.120656 1_555
Li1 O31 2.133519 1_455
Li1 O3 2.140610 1_555
Li1 O7 2.169231 1_555
Li1 O0 2.190414 1_565
Li2 O10 2.119620 1_555
Li2 O8 2.128431 1_555
Li2 O18 2.129184 1_555
Li2 O14 2.129908 1_545
Li2 O4 2.139016 1_555
Li2 O13 2.151192 1_556
Li3 O27 2.114304 1_555
Li3 O16 2.157017 1_555
Li3 O17 2.170984 1_555
Li3 O22 2.174202 1_555
Li3 O23 2.174419 1_555
Li3 O15 2.207814 1_555
Li4 O24 2.056596 1_555
Li4 O29 2.135866 1_555
Li4 O30 2.142949 1_554
Li4 O21 2.155920 1_555
Li4 O2 2.156583 1_655
Li4 O26 2.178757 1_555
Mn0 O5 1.922145 1_555
Mn0 O8 1.939378 1_555
Mn0 O3 1.957826 1_545
Mn0 O0 1.981879 1_555
Mn0 O28 1.985103 1_455
Mn0 O4 1.986366 1_555
Mn1 O6 1.855131 1_555
Mn1 O29 1.929207 1_455
Mn1 O7 1.979637 1_555
Mn1 O2 1.985875 1_555
Mn1 O9 1.996195 1_555
Mn1 O1 2.041056 1_554
Fe0 O26 1.886825 1_566
Fe0 O25 1.928236 1_555
Fe0 O4 1.937450 1_665
Fe0 O7 1.939027 1_656
Fe1 O30 2.025564 1_455
Fe1 O5 2.026425 1_555
Fe1 O10 2.032746 1_555
Fe1 O4 2.034465 1_555
Fe1 O2 2.036912 1_556
Fe1 O1 2.096177 1_555
Fe2 O0 1.925703 1_555
Fe2 O13 1.930553 1_555
Fe2 O12 1.932613 1_555
Fe2 O2 1.944698 1_555
Fe3 O15 1.911056 1_555
Fe3 O14 1.917086 1_555
Fe3 O3 1.933445 1_555
Fe3 O1 1.972922 1_555
Fe4 O16 1.998973 1_555
Fe4 O10 2.000028 1_555
Fe4 O5 2.040911 1_555
Fe4 O15 2.053064 1_555
Fe4 O12 2.070972 1_555
Fe4 O8 2.087330 1_555
Fe5 O6 1.985224 1_555
Fe5 O15 2.003733 1_555
Fe5 O11 2.007238 1_555
Fe5 O17 2.068824 1_555
Fe5 O12 2.080307 1_555
Fe5 O9 2.116906 1_555
Fe6 O13 1.991106 1_565
Fe6 O7 2.022903 1_555
Fe6 O11 2.026129 1_555
Fe6 O14 2.049965 1_554
Fe6 O19 2.071734 1_555
Fe6 O9 2.099595 1_555
Fe7 O11 1.911187 1_545
Fe7 O23 1.911414 1_545
Fe7 O20 1.931792 1_555
Fe7 O8 1.944673 1_555
Fe8 O21 1.906763 1_555
Fe8 O22 1.908894 1_554
Fe8 O10 1.911403 1_554
Fe8 O9 1.978190 1_555
Fe9 O21 1.986876 1_555
Fe9 O18 2.007569 1_554
Fe9 O20 2.083539 1_555
Fe9 O26 2.089676 1_555
Fe9 O19 2.094393 1_545
Fe9 O13 2.097589 1_555
Fe10 O24 1.882788 1_555
Fe10 O17 2.007716 1_555
Fe10 O16 2.059930 1_555
Fe10 O21 2.074894 1_555
Fe10 O12 2.136359 1_555
Fe10 O20 2.138467 1_555
Fe11 O23 1.993667 1_555
Fe11 O14 1.998884 1_555
Fe11 O22 2.042372 1_555
Fe11 O18 2.048315 1_565
Fe11 O25 2.067412 1_555
Fe11 O19 2.092411 1_556
Fe12 O16 1.910701 1_555
Fe12 O30 1.918153 1_555
Fe12 O18 1.936915 1_555
Fe12 O28 1.966272 1_555
Fe13 O31 1.902862 1_555
Fe13 O17 1.909587 1_555
Fe13 O29 1.944904 1_555
Fe13 O19 1.996165 1_555
Fe14 O24 1.918396 1_555
Fe14 O26 2.001503 1_555
Fe14 O0 2.031100 1_655
Fe14 O31 2.047361 1_545
Fe14 O20 2.098165 1_555
Fe14 O28 2.116987 1_555
Fe15 O27 1.942120 1_555
Fe15 O30 2.007978 1_555
Fe15 O22 2.009897 1_555
Fe15 O25 2.101424 1_555
Fe15 O1 2.107485 1_655
Fe15 O29 2.126321 1_556
Fe16 O27 1.901872 1_555
Fe16 O31 2.006123 1_555
Fe16 O23 2.057839 1_555
Fe16 O3 2.077919 1_655
Fe16 O25 2.109928 1_555
Fe16 O28 2.169630 1_565
