# generated using pymatgen
data_LiMn5P3O13
_symmetry_space_group_name_H-M   'P 1'
_cell_length_a   6.48881100
_cell_length_b   8.80958301
_cell_length_c   9.76582580
_cell_angle_alpha   93.93250811
_cell_angle_beta   92.68305281
_cell_angle_gamma   90.12807947
_symmetry_Int_Tables_number   1
_chemical_formula_structural   LiMn5P3O13
_chemical_formula_sum   'Li2 Mn10 P6 O26'
_cell_volume   556.31769684
_cell_formula_units_Z   2
loop_
 _symmetry_equiv_pos_site_id
 _symmetry_equiv_pos_as_xyz
  1  'x, y, z'
loop_
 _atom_site_type_symbol
 _atom_site_label
 _atom_site_symmetry_multiplicity
 _atom_site_fract_x
 _atom_site_fract_y
 _atom_site_fract_z
 _atom_site_occupancy
  Li  Li0  1  0.21691500  0.39801000  0.44745600  1
  Li  Li1  1  0.78308500  0.60199000  0.55254400  1
  Mn  Mn0  1  0.99973200  0.13809400  0.77659800  1
  Mn  Mn1  1  0.24369300  0.84620400  0.91366900  1
  Mn  Mn2  1  0.26656500  0.78866300  0.56544400  1
  Mn  Mn3  1  0.25902600  0.56162600  0.10632700  1
  Mn  Mn4  1  0.49981200  0.13400500  0.77393600  1
  Mn  Mn5  1  0.50018800  0.86599500  0.22606400  1
  Mn  Mn6  1  0.74097400  0.43837400  0.89367300  1
  Mn  Mn7  1  0.73343500  0.21133700  0.43455600  1
  Mn  Mn8  1  0.75630700  0.15379600  0.08633100  1
  Mn  Mn9  1  0.00026800  0.86190600  0.22340200  1
  P  P0  1  0.24401100  0.48088700  0.74989300  1
  P  P1  1  0.24187700  0.10658300  0.48073800  1
  P  P2  1  0.25683900  0.16928600  0.09517100  1
  P  P3  1  0.74316100  0.83071400  0.90482900  1
  P  P4  1  0.75812300  0.89341700  0.51926200  1
  P  P5  1  0.75598900  0.51911300  0.25010700  1
  O  O0  1  0.04304000  0.38335700  0.75313000  1
  O  O1  1  0.05065000  0.20373800  0.45208900  1
  O  O2  1  0.06128200  0.09474400  0.14945400  1
  O  O3  1  0.25826900  0.12524700  0.93551800  1
  O  O4  1  0.24824000  0.60520500  0.87059800  1
  O  O5  1  0.24513800  0.05423200  0.63410000  1
  O  O6  1  0.24260600  0.55432500  0.60710600  1
  O  O7  1  0.25077100  0.95284400  0.39125600  1
  O  O8  1  0.24546600  0.79017000  0.11124700  1
  O  O9  1  0.25075800  0.34029700  0.12875500  1
  O  O10  1  0.44193900  0.38180800  0.76621300  1
  O  O11  1  0.42320800  0.21563000  0.46486800  1
  O  O12  1  0.54072100  0.89696200  0.83861800  1
  O  O13  1  0.45927900  0.10303800  0.16138200  1
  O  O14  1  0.57679200  0.78437000  0.53513200  1
  O  O15  1  0.55806100  0.61819200  0.23378700  1
  O  O16  1  0.74924200  0.65970300  0.87124500  1
  O  O17  1  0.75453400  0.20983000  0.88875300  1
  O  O18  1  0.74922900  0.04715600  0.60874400  1
  O  O19  1  0.75739400  0.44567500  0.39289400  1
  O  O20  1  0.75486200  0.94576800  0.36590000  1
  O  O21  1  0.75176000  0.39479500  0.12940200  1
  O  O22  1  0.74173100  0.87475300  0.06448200  1
  O  O23  1  0.93871800  0.90525600  0.85054600  1
  O  O24  1  0.94935000  0.79626200  0.54791100  1
  O  O25  1  0.95696000  0.61664300  0.24687000  1
loop_
_geom_bond_atom_site_label_1
_geom_bond_atom_site_label_2
_geom_bond_distance
_geom_bond_site_symmetry_2
Li0 O6 2.008756 1_555
Li0 O1 2.025341 1_555
Li0 O11 2.104279 1_555
Li1 O19 2.008756 1_555
Li1 O24 2.025341 1_555
Li1 O14 2.104279 1_555
Mn0 O17 2.050160 1_555
Mn0 O0 2.207081 1_655
Mn0 O3 2.239863 1_655
Mn0 O5 2.256061 1_655
Mn0 O23 2.260979 1_545
Mn0 O18 2.352791 1_555
Mn1 O8 2.023714 1_556
Mn1 O23 2.121595 1_455
Mn1 O4 2.136423 1_555
Mn1 O12 2.150629 1_555
Mn1 O3 2.454100 1_565
Mn2 O14 2.048375 1_555
Mn2 O24 2.059075 1_455
Mn2 O6 2.138044 1_555
Mn2 O7 2.306079 1_555
Mn2 O5 2.395288 1_565
Mn3 O9 1.977838 1_555
Mn3 O8 2.012873 1_555
Mn3 O15 2.290696 1_555
Mn3 O4 2.357575 1_554
Mn3 O25 2.474950 1_455
Mn4 O17 2.038183 1_555
Mn4 O5 2.177507 1_555
Mn4 O10 2.221705 1_555
Mn4 O12 2.235615 1_545
Mn4 O3 2.280394 1_555
Mn4 O18 2.426494 1_555
Mn5 O8 2.038183 1_555
Mn5 O20 2.177507 1_555
Mn5 O15 2.221705 1_555
Mn5 O13 2.235615 1_565
Mn5 O22 2.280394 1_555
Mn5 O7 2.426494 1_555
Mn6 O16 1.977838 1_555
Mn6 O17 2.012873 1_555
Mn6 O10 2.290696 1_555
Mn6 O21 2.357575 1_556
Mn6 O0 2.474950 1_655
Mn7 O11 2.048375 1_555
Mn7 O1 2.059075 1_655
Mn7 O19 2.138044 1_555
Mn7 O18 2.306079 1_555
Mn7 O20 2.395288 1_545
Mn8 O17 2.023714 1_554
Mn8 O2 2.121595 1_655
Mn8 O21 2.136423 1_555
Mn8 O13 2.150629 1_555
Mn8 O22 2.454100 1_545
Mn9 O8 2.050160 1_555
Mn9 O25 2.207081 1_455
Mn9 O22 2.239863 1_455
Mn9 O20 2.256061 1_455
Mn9 O2 2.260979 1_565
Mn9 O7 2.352791 1_555
O0 P0 1.562811 1_555
O1 P1 1.534796 1_555
O2 P2 1.558669 1_555
O3 P2 1.581118 1_556
O4 P0 1.552252 1_555
O5 P1 1.596273 1_555
O6 P0 1.576597 1_555
O7 P1 1.563343 1_565
O9 P2 1.520684 1_555
O10 P0 1.562581 1_555
O11 P1 1.537455 1_555
O12 P3 1.568409 1_555
O13 P2 1.568409 1_555
O14 P4 1.537455 1_555
O15 P5 1.562581 1_555
O16 P3 1.520684 1_555
O18 P4 1.563343 1_545
O19 P5 1.576597 1_555
O20 P4 1.596273 1_555
O21 P5 1.552252 1_555
O22 P3 1.581118 1_554
O23 P3 1.558669 1_555
O24 P4 1.534796 1_555
O25 P5 1.562811 1_555
