# generated using pymatgen
data_Li2V3SnO8
_symmetry_space_group_name_H-M   'P 1'
_cell_length_a   8.48702900
_cell_length_b   8.48702900
_cell_length_c   8.48702900
_cell_angle_alpha   90.00000000
_cell_angle_beta   90.00000000
_cell_angle_gamma   90.00000000
_symmetry_Int_Tables_number   1
_chemical_formula_structural   Li2V3SnO8
_chemical_formula_sum   'Li8 V12 Sn4 O32'
_cell_volume   611.31782386
_cell_formula_units_Z   4
loop_
 _symmetry_equiv_pos_site_id
 _symmetry_equiv_pos_as_xyz
  1  'x, y, z'
loop_
 _atom_site_type_symbol
 _atom_site_label
 _atom_site_symmetry_multiplicity
 _atom_site_fract_x
 _atom_site_fract_y
 _atom_site_fract_z
 _atom_site_occupancy
  Li  Li0  1  0.12880700  0.87119300  0.37119300  1
  Li  Li1  1  0.25311400  0.75311400  0.74688600  1
  Li  Li2  1  0.24688600  0.24688600  0.24688600  1
  Li  Li3  1  0.37119300  0.12880700  0.87119300  1
  Li  Li4  1  0.62880700  0.62880700  0.62880700  1
  Li  Li5  1  0.75311400  0.74688600  0.25311400  1
  Li  Li6  1  0.74688600  0.25311400  0.75311400  1
  Li  Li7  1  0.87119300  0.37119300  0.12880700  1
  V  V0  1  0.11666000  0.61337500  0.11364500  1
  V  V1  1  0.11337500  0.38635500  0.88334000  1
  V  V2  1  0.11364500  0.11666000  0.61337500  1
  V  V3  1  0.38635500  0.88334000  0.11337500  1
  V  V4  1  0.38662500  0.61364500  0.38334000  1
  V  V5  1  0.38334000  0.38662500  0.61364500  1
  V  V6  1  0.61666000  0.88662500  0.88635500  1
  V  V7  1  0.61337500  0.11364500  0.11666000  1
  V  V8  1  0.61364500  0.38334000  0.38662500  1
  V  V9  1  0.88635500  0.61666000  0.88662500  1
  V  V10  1  0.88662500  0.88635500  0.61666000  1
  V  V11  1  0.88334000  0.11337500  0.38635500  1
  Sn  Sn0  1  0.99664500  0.50335500  0.49664500  1
  Sn  Sn1  1  0.50335500  0.49664500  0.99664500  1
  Sn  Sn2  1  0.49664500  0.99664500  0.50335500  1
  Sn  Sn3  1  0.00335500  0.00335500  0.00335500  1
  O  O0  1  0.10709000  0.12590200  0.38864200  1
  O  O1  1  0.11135800  0.89291000  0.62590200  1
  O  O2  1  0.11877600  0.61877600  0.88122400  1
  O  O3  1  0.12590200  0.38864200  0.10709000  1
  O  O4  1  0.12443700  0.15004400  0.85858600  1
  O  O5  1  0.13570600  0.36429400  0.63570600  1
  O  O6  1  0.14141400  0.62443700  0.34995600  1
  O  O7  1  0.15004400  0.85858600  0.12443700  1
  O  O8  1  0.34995600  0.14141400  0.62443700  1
  O  O9  1  0.35858600  0.37556300  0.84995600  1
  O  O10  1  0.36429400  0.63570600  0.13570600  1
  O  O11  1  0.37556300  0.84995600  0.35858600  1
  O  O12  1  0.37409800  0.61135800  0.60709000  1
  O  O13  1  0.38122400  0.38122400  0.38122400  1
  O  O14  1  0.38864200  0.10709000  0.12590200  1
  O  O15  1  0.39291000  0.87409800  0.88864200  1
  O  O16  1  0.60709000  0.37409800  0.61135800  1
  O  O17  1  0.61135800  0.60709000  0.37409800  1
  O  O18  1  0.61877600  0.88122400  0.11877600  1
  O  O19  1  0.62590200  0.11135800  0.89291000  1
  O  O20  1  0.62443700  0.34995600  0.14141400  1
  O  O21  1  0.63570600  0.13570600  0.36429400  1
  O  O22  1  0.64141400  0.87556300  0.65004400  1
  O  O23  1  0.65004400  0.64141400  0.87556300  1
  O  O24  1  0.84995600  0.35858600  0.37556300  1
  O  O25  1  0.85858600  0.12443700  0.15004400  1
  O  O26  1  0.86429400  0.86429400  0.86429400  1
  O  O27  1  0.87556300  0.65004400  0.64141400  1
  O  O28  1  0.87409800  0.88864200  0.39291000  1
  O  O29  1  0.88122400  0.11877600  0.61877600  1
  O  O30  1  0.88864200  0.39291000  0.87409800  1
  O  O31  1  0.89291000  0.62590200  0.11135800  1
loop_
_geom_bond_atom_site_label_1
_geom_bond_atom_site_label_2
_geom_bond_distance
_geom_bond_site_symmetry_2
Li0 O7 2.104689 1_555
Li0 O11 2.104689 1_555
Li0 O6 2.104689 1_555
Li0 O28 2.174614 1_455
Li0 O0 2.174614 1_565
Li0 O1 2.174614 1_555
Li1 O2 1.974764 1_555
Li1 O12 1.977219 1_555
Li1 O15 1.977219 1_555
Li1 O1 1.977219 1_555
Li2 O13 1.974764 1_555
Li2 O14 1.977219 1_555
Li2 O3 1.977219 1_555
Li2 O0 1.977219 1_555
Li3 O4 2.104689 1_555
Li3 O8 2.104689 1_555
Li3 O9 2.104689 1_555
Li3 O19 2.174614 1_555
Li3 O15 2.174614 1_545
Li3 O14 2.174614 1_556
Li4 O23 2.104689 1_555
Li4 O27 2.104689 1_555
Li4 O22 2.104689 1_555
Li4 O16 2.174614 1_555
Li4 O17 2.174614 1_555
Li4 O12 2.174614 1_555
Li5 O18 1.974764 1_555
Li5 O28 1.977219 1_555
Li5 O17 1.977219 1_555
Li5 O31 1.977219 1_555
Li6 O29 1.974764 1_555
Li6 O16 1.977219 1_555
Li6 O30 1.977219 1_555
Li6 O19 1.977219 1_555
Li7 O24 2.104689 1_555
Li7 O20 2.104689 1_555
Li7 O25 2.104689 1_555
Li7 O31 2.174614 1_555
Li7 O3 2.174614 1_655
Li7 O30 2.174614 1_554
O0 V11 1.902046 1_455
O0 V2 1.909738 1_555
O1 V2 1.902046 1_565
O1 V10 1.909738 1_455
O2 V0 1.973178 1_556
O2 V1 1.973178 1_555
O2 V9 1.973178 1_455
O3 V1 1.902046 1_554
O3 V0 1.909738 1_555
O4 V1 2.018736 1_555
O4 Sn3 2.028676 1_556
O4 V2 2.102307 1_555
O5 Sn0 2.044192 1_455
O5 V5 2.118495 1_555
O5 V1 2.118495 1_555
O5 V2 2.118495 1_555
O6 V0 2.018736 1_555
O6 Sn0 2.028676 1_455
O6 V4 2.102307 1_555
O7 V3 2.018736 1_555
O7 Sn3 2.028676 1_565
O7 V0 2.102307 1_555
O8 V2 2.018736 1_555
O8 Sn2 2.028676 1_545
O8 V5 2.102307 1_555
O9 V5 2.018736 1_555
O9 Sn1 2.028676 1_555
O9 V1 2.102307 1_555
O10 Sn1 2.044192 1_554
O10 V3 2.118495 1_555
O10 V0 2.118495 1_555
O10 V4 2.118495 1_555
O11 V4 2.018736 1_555
O11 Sn2 2.028676 1_555
O11 V3 2.102307 1_555
O12 V4 1.902046 1_555
O12 V5 1.909738 1_555
O13 V4 1.973178 1_555
O13 V8 1.973178 1_555
O13 V5 1.973178 1_555
O14 V3 1.902046 1_545
O14 V7 1.909738 1_555
O15 V6 1.902046 1_555
O15 V3 1.909738 1_556
O16 V5 1.902046 1_555
O16 V8 1.909738 1_555
O17 V8 1.902046 1_555
O17 V4 1.909738 1_555
O18 V7 1.973178 1_565
O18 V6 1.973178 1_554
O18 V3 1.973178 1_555
O19 V7 1.902046 1_556
O19 V6 1.909738 1_545
O20 V7 2.018736 1_555
O20 Sn1 2.028676 1_554
O20 V8 2.102307 1_555
O21 Sn2 2.044192 1_545
O21 V8 2.118495 1_555
O21 V7 2.118495 1_555
O21 V11 2.118495 1_555
O22 V6 2.018736 1_555
O22 Sn2 2.028676 1_555
O22 V10 2.102307 1_555
O23 V9 2.018736 1_555
O23 Sn1 2.028676 1_555
O23 V6 2.102307 1_555
O24 V8 2.018736 1_555
O24 Sn0 2.028676 1_555
O24 V11 2.102307 1_555
O25 V11 2.018736 1_555
O25 Sn3 2.028676 1_655
O25 V7 2.102307 1_555
O26 Sn3 2.044192 1_666
O26 V10 2.118495 1_555
O26 V9 2.118495 1_555
O26 V6 2.118495 1_555
O27 V10 2.018736 1_555
O27 Sn0 2.028676 1_555
O27 V9 2.102307 1_555
O28 V10 1.902046 1_555
O28 V11 1.909738 1_565
O29 V2 1.973178 1_655
O29 V10 1.973178 1_545
O29 V11 1.973178 1_555
O30 V9 1.902046 1_555
O30 V1 1.909738 1_655
O31 V0 1.902046 1_655
O31 V9 1.909738 1_554
