# generated using pymatgen
data_LiMn2(BO3)2
_symmetry_space_group_name_H-M   'P 1'
_cell_length_a   5.29183300
_cell_length_b   11.56228211
_cell_length_c   13.76401668
_cell_angle_alpha   113.48598438
_cell_angle_beta   91.35034978
_cell_angle_gamma   101.21787637
_symmetry_Int_Tables_number   1
_chemical_formula_structural   LiMn2(BO3)2
_chemical_formula_sum   'Li6 Mn12 B12 O36'
_cell_volume   752.83811670
_cell_formula_units_Z   6
loop_
 _symmetry_equiv_pos_site_id
 _symmetry_equiv_pos_as_xyz
  1  'x, y, z'
loop_
 _atom_site_type_symbol
 _atom_site_label
 _atom_site_symmetry_multiplicity
 _atom_site_fract_x
 _atom_site_fract_y
 _atom_site_fract_z
 _atom_site_occupancy
  Li  Li0  1  0.11840600  0.94002400  0.03500400  1
  Li  Li1  1  0.04921700  0.43579000  0.77628200  1
  Li  Li2  1  0.26283500  0.77864600  0.61614400  1
  Li  Li3  1  0.28895900  0.27262700  0.85693000  1
  Li  Li4  1  0.41489400  0.10431800  0.44010500  1
  Li  Li5  1  0.58161600  0.45366700  0.27958200  1
  Mn  Mn0  1  0.00719600  0.70261800  0.82518500  1
  Mn  Mn1  1  0.06624000  0.82194300  0.43592900  1
  Mn  Mn2  1  0.32902000  0.98098000  0.85411400  1
  Mn  Mn3  1  0.28114100  0.86616900  0.23526500  1
  Mn  Mn4  1  0.34117600  0.35824500  0.47301300  1
  Mn  Mn5  1  0.38104500  0.46781800  0.08986400  1
  Mn  Mn6  1  0.59741700  0.53125000  0.89506100  1
  Mn  Mn7  1  0.67810700  0.62932600  0.49843800  1
  Mn  Mn8  1  0.73568700  0.13089000  0.76584000  1
  Mn  Mn9  1  0.68530700  0.02930500  0.15459900  1
  Mn  Mn10  1  0.96200400  0.21006700  0.57933900  1
  Mn  Mn11  1  0.99416500  0.30408400  0.17234900  1
  B  B0  1  0.10899800  0.53092800  0.39614800  1
  B  B1  1  0.15491000  0.64079600  0.01204800  1
  B  B2  1  0.18433300  0.03789400  0.66445800  1
  B  B3  1  0.23844600  0.12707000  0.25503400  1
  B  B4  1  0.56853900  0.80923100  0.93111200  1
  B  B5  1  0.50382900  0.69529400  0.31927200  1
  B  B6  1  0.48557700  0.30389700  0.67805800  1
  B  B7  1  0.42415700  0.20397500  0.07944300  1
  B  B8  1  0.76264700  0.84556200  0.72757800  1
  B  B9  1  0.83335400  0.98955400  0.35607900  1
  B  B10  1  0.83708400  0.35523600  0.98411200  1
  B  B11  1  0.89336100  0.46735000  0.59587200  1
  O  O0  1  0.00669500  0.82273900  0.75631700  1
  O  O1  1  0.07363600  0.95524500  0.36150900  1
  O  O2  1  0.01470100  0.59224100  0.90838600  1
  O  O3  1  0.06267700  0.64577300  0.47474700  1
  O  O4  1  0.00315300  0.54122700  0.69677400  1
  O  O5  1  0.10356700  0.73886500  0.09527600  1
  O  O6  1  0.22466900  0.92728800  0.59000900  1
  O  O7  1  0.31853100  0.83348500  0.91894000  1
  O  O8  1  0.03970800  0.16624600  0.21663300  1
  O  O9  1  0.31949500  0.76559800  0.31696000  1
  O  O10  1  0.35186900  0.50115100  0.40693900  1
  O  O11  1  0.25861200  0.11125600  0.99894700  1
  O  O12  1  0.34944400  0.57461100  0.01484500  1
  O  O13  1  0.37066200  0.37542600  0.76359800  1
  O  O14  1  0.35354900  0.24363400  0.57500100  1
  O  O15  1  0.32722000  0.09961400  0.76596500  1
  O  O16  1  0.61023500  0.75951100  0.63725600  1
  O  O17  1  0.37218100  0.32908300  0.14238900  1
  O  O18  1  0.69425300  0.95863400  0.79286500  1
  O  O19  1  0.27583600  0.00386200  0.18334900  1
  O  O20  1  0.67898500  0.93602500  0.25832400  1
  O  O21  1  0.38100000  0.19468200  0.34940200  1
  O  O22  1  0.62182600  0.69451600  0.85855100  1
  O  O23  1  0.53308800  0.58971700  0.23459700  1
  O  O24  1  0.65836100  0.73612900  0.41716200  1
  O  O25  1  0.59533800  0.38421900  0.97108600  1
  O  O26  1  0.74700400  0.89790900  0.01087000  1
  O  O27  1  0.69307900  0.49355600  0.54588900  1
  O  O28  1  0.73389400  0.28680400  0.69387700  1
  O  O29  1  0.65181800  0.18631400  0.11631300  1
  O  O30  1  0.75351600  0.07206600  0.44504300  1
  O  O31  1  0.92996200  0.44907400  0.31372800  1
  O  O32  1  0.94649500  0.28538300  0.89849500  1
  O  O33  1  0.97369700  0.35271900  0.53468100  1
  O  O34  1  0.96900700  0.40726500  0.08765700  1
  O  O35  1  0.98568900  0.09615400  0.64907500  1
loop_
_geom_bond_atom_site_label_1
_geom_bond_atom_site_label_2
_geom_bond_distance
_geom_bond_site_symmetry_2
Li0 O26 1.917859 1_455
Li0 O19 1.971609 1_565
Li0 O7 2.051782 1_554
Li0 O11 2.223849 1_564
Li1 O13 1.946773 1_555
Li1 O4 1.977274 1_555
Li1 O2 2.033307 1_555
Li1 O28 2.067205 1_455
Li2 O16 1.922851 1_555
Li2 O6 1.936055 1_555
Li2 O3 2.038722 1_555
Li2 O0 2.329734 1_555
Li3 O32 1.928460 1_455
Li3 O15 1.945132 1_555
Li3 O25 2.052403 1_555
Li3 O13 2.071998 1_555
Li4 O30 1.905033 1_555
Li4 O21 1.945359 1_555
Li4 O14 1.998877 1_555
Li4 O1 2.147796 1_545
Li5 O31 1.907600 1_555
Li5 O23 1.962092 1_555
Li5 O17 1.995301 1_555
Li5 O10 2.108420 1_555
Mn0 O0 1.969297 1_555
Mn0 O4 1.990069 1_555
Mn0 O7 2.010642 1_555
Mn0 O2 2.030809 1_555
Mn0 O22 2.093463 1_455
Mn1 O6 2.035702 1_555
Mn1 O9 2.120082 1_555
Mn1 O24 2.155502 1_455
Mn1 O1 2.159411 1_555
Mn1 O3 2.299536 1_555
Mn2 O11 2.059544 1_565
Mn2 O18 2.147200 1_555
Mn2 O15 2.164411 1_565
Mn2 O0 2.187099 1_555
Mn2 O7 2.210401 1_555
Mn3 O9 1.944482 1_555
Mn3 O5 1.969304 1_555
Mn3 O19 1.992286 1_565
Mn3 O20 2.070763 1_555
Mn3 O1 2.095091 1_555
Mn4 O21 2.030517 1_555
Mn4 O27 2.109321 1_555
Mn4 O33 2.139822 1_455
Mn4 O10 2.173526 1_555
Mn4 O14 2.289764 1_555
Mn5 O12 1.925417 1_555
Mn5 O23 1.961549 1_555
Mn5 O17 1.998657 1_555
Mn5 O25 2.036508 1_554
Mn5 O34 2.152061 1_455
Mn6 O12 2.095390 1_556
Mn6 O13 2.101937 1_555
Mn6 O22 2.120618 1_555
Mn6 O2 2.163103 1_655
Mn6 O25 2.322991 1_555
Mn7 O27 1.939146 1_555
Mn7 O24 1.983203 1_555
Mn7 O16 1.998957 1_555
Mn7 O10 2.043835 1_555
Mn7 O3 2.052845 1_655
Mn8 O35 2.070500 1_555
Mn8 O32 2.073203 1_555
Mn8 O15 2.121218 1_555
Mn8 O18 2.139538 1_545
Mn8 O28 2.379161 1_555
Mn9 O26 2.038679 1_545
Mn9 O20 2.101926 1_545
Mn9 O8 2.108292 1_655
Mn9 O29 2.118487 1_555
Mn9 O19 2.196261 1_555
Mn10 O35 1.933378 1_555
Mn10 O33 1.967809 1_555
Mn10 O30 2.011987 1_555
Mn10 O28 2.030086 1_555
Mn10 O14 2.039303 1_655
Mn11 O29 1.966812 1_555
Mn11 O8 1.971380 1_655
Mn11 O34 1.990675 1_555
Mn11 O17 2.040613 1_655
Mn11 O31 2.089287 1_555
B0 O31 1.350919 1_455
B0 O3 1.409910 1_555
B0 O10 1.412921 1_555
B1 O5 1.330811 1_555
B1 O12 1.405334 1_555
B1 O2 1.432147 1_554
B2 O6 1.342794 1_545
B2 O15 1.406622 1_555
B2 O35 1.407939 1_455
B3 O21 1.335046 1_555
B3 O8 1.393042 1_555
B3 O19 1.428501 1_555
B4 O26 1.351134 1_556
B4 O22 1.392547 1_555
B4 O7 1.424217 1_555
B5 O23 1.349262 1_555
B5 O9 1.393190 1_555
B5 O24 1.413446 1_555
B6 O13 1.375977 1_555
B6 O28 1.391064 1_555
B6 O14 1.400651 1_555
B7 O11 1.336565 1_554
B7 O29 1.378456 1_555
B7 O17 1.444252 1_555
B8 O16 1.356684 1_555
B8 O18 1.382301 1_555
B8 O0 1.444195 1_655
B9 O30 1.355787 1_565
B9 O20 1.395881 1_555
B9 O1 1.412498 1_655
B10 O32 1.353416 1_555
B10 O25 1.408856 1_555
B10 O34 1.409533 1_556
B11 O4 1.348828 1_655
B11 O27 1.394683 1_555
B11 O33 1.411782 1_555
