# generated using pymatgen
data_Li2FeBO4
_symmetry_space_group_name_H-M   'P 1'
_cell_length_a   4.81521500
_cell_length_b   5.82714800
_cell_length_c   10.78449100
_cell_angle_alpha   90.00000000
_cell_angle_beta   90.00000000
_cell_angle_gamma   90.00000000
_symmetry_Int_Tables_number   1
_chemical_formula_structural   Li2FeBO4
_chemical_formula_sum   'Li8 Fe4 B4 O16'
_cell_volume   302.60171436
_cell_formula_units_Z   4
loop_
 _symmetry_equiv_pos_site_id
 _symmetry_equiv_pos_as_xyz
  1  'x, y, z'
loop_
 _atom_site_type_symbol
 _atom_site_label
 _atom_site_symmetry_multiplicity
 _atom_site_fract_x
 _atom_site_fract_y
 _atom_site_fract_z
 _atom_site_occupancy
  Li  Li0  1  0.69732600  0.49662400  0.58395600  1
  Li  Li1  1  0.80267400  0.49662400  0.08395600  1
  Li  Li2  1  0.80267400  0.00337600  0.08395600  1
  Li  Li3  1  0.69732600  0.00337600  0.58395600  1
  Li  Li4  1  0.19732600  0.99662400  0.91604400  1
  Li  Li5  1  0.30267400  0.99662400  0.41604400  1
  Li  Li6  1  0.30267400  0.50337600  0.41604400  1
  Li  Li7  1  0.19732600  0.50337600  0.91604400  1
  Fe  Fe0  1  0.68839400  0.75000000  0.82177600  1
  Fe  Fe1  1  0.81160600  0.75000000  0.32177600  1
  Fe  Fe2  1  0.18839400  0.25000000  0.67822400  1
  Fe  Fe3  1  0.31160600  0.25000000  0.17822400  1
  B  B0  1  0.18244400  0.75000000  0.66422700  1
  B  B1  1  0.31755600  0.75000000  0.16422700  1
  B  B2  1  0.81755600  0.25000000  0.33577300  1
  B  B3  1  0.68244400  0.25000000  0.83577300  1
  O  O0  1  0.28040600  0.53706200  0.59735800  1
  O  O1  1  0.21959400  0.53706200  0.09735800  1
  O  O2  1  0.87370100  0.75000000  0.66687600  1
  O  O3  1  0.20725800  0.75000000  0.29591300  1
  O  O4  1  0.62629900  0.75000000  0.16687600  1
  O  O5  1  0.29274200  0.75000000  0.79591300  1
  O  O6  1  0.21959400  0.96293800  0.09735800  1
  O  O7  1  0.28040600  0.96293800  0.59735800  1
  O  O8  1  0.71959400  0.03706200  0.40264200  1
  O  O9  1  0.78040600  0.03706200  0.90264200  1
  O  O10  1  0.12629900  0.25000000  0.33312400  1
  O  O11  1  0.37370100  0.25000000  0.83312400  1
  O  O12  1  0.79274200  0.25000000  0.70408700  1
  O  O13  1  0.70725800  0.25000000  0.20408700  1
  O  O14  1  0.71959400  0.46293800  0.40264200  1
  O  O15  1  0.78040600  0.46293800  0.90264200  1
loop_
_geom_bond_atom_site_label_1
_geom_bond_atom_site_label_2
_geom_bond_distance
_geom_bond_site_symmetry_2
Li0 O2 1.923772 1_555
Li0 O14 1.968130 1_555
Li0 O12 1.988679 1_555
Li0 O0 2.026502 1_555
Li1 O4 1.923772 1_555
Li1 O15 1.968130 1_554
Li1 O13 1.988679 1_555
Li1 O1 2.026502 1_655
Li2 O4 1.923772 1_545
Li2 O9 1.968130 1_554
Li2 O13 1.988679 1_555
Li2 O6 2.026502 1_645
Li3 O2 1.923772 1_545
Li3 O8 1.968130 1_555
Li3 O12 1.988679 1_555
Li3 O7 2.026502 1_545
Li4 O11 1.923772 1_565
Li4 O6 1.968130 1_556
Li4 O5 1.988679 1_555
Li4 O9 2.026502 1_465
Li5 O10 1.923772 1_565
Li5 O7 1.968130 1_555
Li5 O3 1.988679 1_555
Li5 O8 2.026502 1_565
Li6 O10 1.923772 1_555
Li6 O0 1.968130 1_555
Li6 O3 1.988679 1_555
Li6 O14 2.026502 1_555
Li7 O11 1.923772 1_555
Li7 O1 1.968130 1_556
Li7 O5 1.988679 1_555
Li7 O15 2.026502 1_455
Fe0 O2 1.893889 1_555
Fe0 O5 1.925458 1_555
Fe0 O9 1.937771 1_565
Fe0 O15 1.937771 1_555
Fe1 O4 1.893889 1_555
Fe1 O3 1.925458 1_655
Fe1 O14 1.937771 1_555
Fe1 O8 1.937771 1_565
Fe2 O11 1.893889 1_555
Fe2 O12 1.925458 1_455
Fe2 O0 1.937771 1_555
Fe2 O7 1.937771 1_545
Fe3 O10 1.893889 1_555
Fe3 O13 1.925458 1_555
Fe3 O6 1.937771 1_545
Fe3 O1 1.937771 1_555
B0 O2 1.486938 1_455
B0 O0 1.510695 1_555
B0 O7 1.510695 1_555
B0 O5 1.516229 1_555
B1 O4 1.486938 1_555
B1 O1 1.510695 1_555
B1 O6 1.510695 1_555
B1 O3 1.516229 1_555
B2 O10 1.486938 1_655
B2 O14 1.510695 1_555
B2 O8 1.510695 1_555
B2 O13 1.516229 1_555
B3 O11 1.486938 1_555
B3 O9 1.510695 1_555
B3 O15 1.510695 1_555
B3 O12 1.516229 1_555
