# generated using pymatgen
data_Li4Mn2V3Sb3O16
_symmetry_space_group_name_H-M   'P 1'
_cell_length_a   6.17528446
_cell_length_b   6.17528446
_cell_length_c   10.02880856
_cell_angle_alpha   89.81642248
_cell_angle_beta   89.81642248
_cell_angle_gamma   59.89021110
_symmetry_Int_Tables_number   1
_chemical_formula_structural   Li4Mn2V3Sb3O16
_chemical_formula_sum   'Li4 Mn2 V3 Sb3 O16'
_cell_volume   330.83344968
_cell_formula_units_Z   1
loop_
 _symmetry_equiv_pos_site_id
 _symmetry_equiv_pos_as_xyz
  1  'x, y, z'
loop_
 _atom_site_type_symbol
 _atom_site_label
 _atom_site_symmetry_multiplicity
 _atom_site_fract_x
 _atom_site_fract_y
 _atom_site_fract_z
 _atom_site_occupancy
  Li  Li0  1  0.66390700  0.66390700  0.12676400  1
  Li  Li1  1  0.99095000  0.99095000  0.00899100  1
  Li  Li2  1  0.99388000  0.99388000  0.49456400  1
  Li  Li3  1  0.32774300  0.32774300  0.59833100  1
  Mn  Mn0  1  0.67527300  0.67527300  0.48234300  1
  Mn  Mn1  1  0.34309300  0.34309300  0.01960700  1
  V  V0  1  0.83229300  0.83229300  0.78329800  1
  V  V1  1  0.17089000  0.66372300  0.28509200  1
  V  V2  1  0.66372300  0.17089000  0.28509200  1
  Sb  Sb0  1  0.33653000  0.83243200  0.78382500  1
  Sb  Sb1  1  0.83243200  0.33653000  0.78382500  1
  Sb  Sb2  1  0.16952400  0.16952400  0.28499700  1
  O  O0  1  0.30946800  0.84869800  0.39713800  1
  O  O1  1  0.51301400  0.51301400  0.67153800  1
  O  O2  1  0.66163500  0.66163500  0.89613000  1
  O  O3  1  0.00458300  0.00458300  0.67884400  1
  O  O4  1  0.00681300  0.00681300  0.18543500  1
  O  O5  1  0.84869800  0.30946800  0.39713800  1
  O  O6  1  0.51221000  0.96847400  0.67671500  1
  O  O7  1  0.96847400  0.51221000  0.67671500  1
  O  O8  1  0.15327300  0.15327300  0.89558900  1
  O  O9  1  0.84718300  0.84718300  0.39049200  1
  O  O10  1  0.03148000  0.48099200  0.16959700  1
  O  O11  1  0.48099200  0.03148000  0.16959700  1
  O  O12  1  0.32616600  0.32616600  0.39773000  1
  O  O13  1  0.15741500  0.69467900  0.88980900  1
  O  O14  1  0.48323600  0.48323600  0.17315900  1
  O  O15  1  0.69467900  0.15741500  0.88980900  1
loop_
_geom_bond_atom_site_label_1
_geom_bond_atom_site_label_2
_geom_bond_distance
_geom_bond_site_symmetry_2
Li0 O14 1.987031 1_555
Li0 O10 2.010824 1_655
Li0 O11 2.010824 1_565
Li0 O2 2.313202 1_554
Li1 O4 1.778272 1_665
Li1 O15 1.987915 1_564
Li1 O13 1.987915 1_654
Li1 O8 2.072801 1_664
Li2 O3 1.852078 1_665
Li2 O9 1.888420 1_555
Li2 O5 1.948548 1_565
Li2 O0 1.948548 1_655
Li3 O12 2.011922 1_555
Li3 O6 2.072829 1_545
Li3 O7 2.072829 1_455
Li3 O1 2.116844 1_555
Mn0 O9 2.054428 1_555
Mn0 O5 2.135234 1_555
Mn0 O0 2.135234 1_555
Mn0 O6 2.504571 1_555
Mn0 O7 2.504571 1_555
Mn0 O1 2.567309 1_555
Mn1 O14 2.153569 1_555
Mn1 O10 2.244177 1_555
Mn1 O11 2.244177 1_555
Mn1 O15 2.284030 1_554
Mn1 O13 2.284030 1_554
Mn1 O8 2.385848 1_554
O0 Sb2 2.052049 1_565
O0 V1 2.072420 1_555
O1 Sb0 2.048448 1_555
O1 Sb1 2.048448 1_555
O2 Sb1 2.072162 1_555
O2 Sb0 2.072162 1_555
O2 V0 2.144930 1_555
O3 Sb0 2.064173 1_545
O3 Sb1 2.064173 1_455
O3 V0 2.117247 1_445
O4 Sb2 2.010466 1_555
O4 V1 2.086482 1_545
O4 V2 2.086482 1_455
O5 Sb2 2.052049 1_655
O5 V2 2.072420 1_555
O6 Sb0 1.984380 1_555
O6 V0 2.024042 1_555
O7 Sb1 1.984380 1_555
O7 V0 2.024042 1_555
O8 Sb0 2.054019 1_545
O8 Sb1 2.054019 1_455
O9 V2 2.029458 1_565
O9 V1 2.029458 1_655
O10 Sb2 2.027946 1_555
O10 V1 2.084588 1_555
O11 Sb2 2.027946 1_555
O11 V2 2.084588 1_555
O12 Sb2 2.025435 1_555
O12 V2 2.127702 1_555
O12 V1 2.127702 1_555
O13 Sb0 2.001874 1_555
O13 V0 2.047001 1_455
O14 V2 2.014934 1_555
O14 V1 2.014934 1_555
O15 Sb1 2.001874 1_555
O15 V0 2.047001 1_545
