# generated using pymatgen
data_SrH4(SO4)3
_symmetry_space_group_name_H-M   'P 1'
_cell_length_a   6.04084300
_cell_length_b   8.57448285
_cell_length_c   10.39035331
_cell_angle_alpha   81.46723579
_cell_angle_beta   83.52796782
_cell_angle_gamma   70.83111192
_symmetry_Int_Tables_number   1
_chemical_formula_structural   SrH4(SO4)3
_chemical_formula_sum   'Sr2 H8 S6 O24'
_cell_volume   501.54200514
_cell_formula_units_Z   2
loop_
 _symmetry_equiv_pos_site_id
 _symmetry_equiv_pos_as_xyz
  1  'x, y, z'
loop_
 _atom_site_type_symbol
 _atom_site_label
 _atom_site_symmetry_multiplicity
 _atom_site_fract_x
 _atom_site_fract_y
 _atom_site_fract_z
 _atom_site_occupancy
  Sr  Sr0  1  0.00216000  0.76118100  0.44063400  1
  Sr  Sr1  1  0.99784000  0.23881900  0.55936600  1
  H  H0  1  0.99263200  0.52246600  0.13297400  1
  H  H1  1  0.24358000  0.09585100  0.13126100  1
  H  H2  1  0.55896500  0.27949400  0.34482300  1
  H  H3  1  0.49922600  0.65231900  0.08488100  1
  H  H4  1  0.50077400  0.34768100  0.91511900  1
  H  H5  1  0.44103500  0.72050600  0.65517700  1
  H  H6  1  0.75642000  0.90414900  0.86873900  1
  H  H7  1  0.00736800  0.47753400  0.86702600  1
  S  S0  1  0.38217800  0.04504300  0.32404500  1
  S  S1  1  0.12347800  0.72422100  0.06479000  1
  S  S2  1  0.33809100  0.49235300  0.67792000  1
  S  S3  1  0.66190900  0.50764700  0.32208000  1
  S  S4  1  0.87652200  0.27577900  0.93521000  1
  S  S5  1  0.61782200  0.95495700  0.67595500  1
  O  O0  1  0.01131600  0.20513700  0.04721800  1
  O  O1  1  0.15112900  0.53415400  0.09846300  1
  O  O2  1  0.38973400  0.02763600  0.17574700  1
  O  O3  1  0.04350500  0.80549700  0.18187300  1
  O  O4  1  0.15837200  0.47106400  0.60363100  1
  O  O5  1  0.34363700  0.22158900  0.34116900  1
  O  O6  1  0.39082400  0.06583300  0.63774400  1
  O  O7  1  0.28677800  0.45633200  0.82016000  1
  O  O8  1  0.37974800  0.71414600  0.01826500  1
  O  O9  1  0.18053700  0.99872400  0.39306600  1
  O  O10  1  0.29515300  0.68591500  0.64521100  1
  O  O11  1  0.42061700  0.59503900  0.36210300  1
  O  O12  1  0.57938300  0.40496100  0.63789700  1
  O  O13  1  0.70484700  0.31408500  0.35478900  1
  O  O14  1  0.81946300  0.00127600  0.60693400  1
  O  O15  1  0.62025200  0.28585400  0.98173500  1
  O  O16  1  0.71322200  0.54366800  0.17984000  1
  O  O17  1  0.60917600  0.93416700  0.36225600  1
  O  O18  1  0.65636300  0.77841100  0.65883100  1
  O  O19  1  0.84162800  0.52893600  0.39636900  1
  O  O20  1  0.95649500  0.19450300  0.81812700  1
  O  O21  1  0.61026600  0.97236400  0.82425300  1
  O  O22  1  0.84887100  0.46584600  0.90153700  1
  O  O23  1  0.98868400  0.79486300  0.95278200  1
loop_
_geom_bond_atom_site_label_1
_geom_bond_atom_site_label_2
_geom_bond_distance
_geom_bond_site_symmetry_2
H0 O1 1.015036 1_655
H0 O16 1.660890 1_555
H1 O2 1.003947 1_555
H1 O0 1.667096 1_555
H2 O13 1.037609 1_555
H2 O5 1.542982 1_555
H3 O8 1.016618 1_555
H3 O16 1.654210 1_555
H4 O15 1.016618 1_555
H4 O7 1.654210 1_555
H5 O10 1.037609 1_555
H5 O18 1.542982 1_555
H6 O21 1.003947 1_555
H6 O23 1.667096 1_555
H7 O22 1.015036 1_455
H7 O7 1.660890 1_555
O0 S4 1.436980 1_454
O1 S1 1.572106 1_555
O2 S0 1.564147 1_555
O3 S1 1.448105 1_555
O3 Sr0 2.653904 1_555
O4 S2 1.472635 1_555
O4 Sr1 2.599630 1_455
O4 Sr0 2.741427 1_555
O5 S0 1.488812 1_555
O5 Sr1 2.890396 1_455
O6 S5 1.447902 1_545
O6 Sr1 2.502783 1_455
O7 S2 1.483198 1_555
O8 S1 1.547120 1_555
O9 S0 1.480545 1_565
O9 Sr0 2.564468 1_555
O9 Sr1 2.752372 1_465
O10 S2 1.583397 1_555
O10 Sr0 2.785382 1_555
O11 S3 1.448310 1_555
O11 Sr0 2.569096 1_555
O12 S2 1.448310 1_555
O12 Sr1 2.569096 1_555
O13 S3 1.583397 1_555
O13 Sr1 2.785382 1_555
O14 S5 1.480545 1_545
O14 Sr1 2.564468 1_555
O14 Sr0 2.752372 1_645
O15 S4 1.547120 1_555
O16 S3 1.483198 1_555
O17 S0 1.447902 1_565
O17 Sr0 2.502783 1_655
O18 S5 1.488812 1_555
O18 Sr0 2.890396 1_655
O19 S3 1.472635 1_555
O19 Sr0 2.599630 1_655
O19 Sr1 2.741427 1_555
O20 S4 1.448105 1_555
O20 Sr1 2.653904 1_555
O21 S5 1.564147 1_555
O22 S4 1.572106 1_555
O23 S1 1.436980 1_656
