# generated using pymatgen
data_Li2CoCuO4
_symmetry_space_group_name_H-M   'P 1'
_cell_length_a   4.07825065
_cell_length_b   8.53882817
_cell_length_c   4.07922600
_cell_angle_alpha   89.99996153
_cell_angle_beta   90.28573636
_cell_angle_gamma   90.00034480
_symmetry_Int_Tables_number   1
_chemical_formula_structural   Li2CoCuO4
_chemical_formula_sum   'Li4 Co2 Cu2 O8'
_cell_volume   142.05108488
_cell_formula_units_Z   2
loop_
 _symmetry_equiv_pos_site_id
 _symmetry_equiv_pos_as_xyz
  1  'x, y, z'
loop_
 _atom_site_type_symbol
 _atom_site_label
 _atom_site_symmetry_multiplicity
 _atom_site_fract_x
 _atom_site_fract_y
 _atom_site_fract_z
 _atom_site_occupancy
  Li  Li0  1  0.50001200  0.74994000  0.00001200  1
  Li  Li1  1  0.99998200  0.24998100  0.49998200  1
  Li  Li2  1  0.99999200  0.49871600  0.00000800  1
  Li  Li3  1  0.50001000  0.00127200  0.49999100  1
  Co  Co0  1  0.99999500  0.99965500  0.00000000  1
  Co  Co1  1  0.49999900  0.50029800  0.49999700  1
  Cu  Cu0  1  0.50000000  0.25007800  0.00000500  1
  Cu  Cu1  1  0.00001900  0.74996400  0.50002100  1
  O  O0  1  0.00001700  0.97446600  0.49998400  1
  O  O1  1  0.49998500  0.47423300  0.00001100  1
  O  O2  1  0.99998500  0.52562000  0.50001500  1
  O  O3  1  0.50001400  0.02569100  0.99998500  1
  O  O4  1  0.00001700  0.76447700  0.00001300  1
  O  O5  1  0.49997900  0.26412500  0.49998600  1
  O  O6  1  0.99998300  0.23589800  0.99997500  1
  O  O7  1  0.50001100  0.73558500  0.50001500  1
loop_
_geom_bond_atom_site_label_1
_geom_bond_atom_site_label_2
_geom_bond_distance
_geom_bond_site_symmetry_2
Li0 O4 2.042880 1_555
Li0 O4 2.042920 1_655
Li0 O7 2.043281 1_554
Li0 O7 2.043305 1_555
Li0 O1 2.354215 1_555
Li0 O3 2.354590 1_564
Li1 O5 2.042686 1_655
Li1 O5 2.042712 1_555
Li1 O6 2.043126 1_555
Li1 O6 2.043183 1_554
Li1 O0 2.352575 1_645
Li1 O2 2.353634 1_555
Li2 O1 2.049787 1_655
Li2 O1 2.049841 1_555
Li2 O2 2.052481 1_554
Li2 O2 2.052538 1_555
Li2 O6 2.244158 1_554
Li2 O4 2.269288 1_655
Li3 O3 2.050219 1_555
Li3 O3 2.050268 1_554
Li3 O0 2.051902 1_545
Li3 O0 2.051962 1_645
Li3 O5 2.244457 1_555
Li3 O7 2.268656 1_545
Co0 O4 2.008145 1_655
Co0 O6 2.017238 1_564
Co0 O0 2.050857 1_655
Co0 O0 2.050988 1_654
Co0 O3 2.051133 1_564
Co0 O3 2.051285 1_664
Co1 O7 2.009075 1_555
Co1 O5 2.016641 1_555
Co1 O2 2.050498 1_555
Co1 O2 2.050615 1_455
Co1 O1 2.051663 1_555
Co1 O1 2.051777 1_556
Cu0 O1 1.914021 1_555
Cu0 O3 1.916002 1_554
Cu0 O6 2.042649 1_554
Cu0 O6 2.042785 1_454
Cu0 O5 2.043060 1_555
Cu0 O5 2.043214 1_554
Cu1 O2 1.915635 1_455
Cu1 O0 1.916984 1_555
Cu1 O7 2.042787 1_555
Cu1 O7 2.042850 1_455
Cu1 O4 2.043342 1_556
Cu1 O4 2.043407 1_555
