# generated using pymatgen
data_La8Ni4O17
_symmetry_space_group_name_H-M   'P 1'
_cell_length_a   6.90271652
_cell_length_b   7.79377253
_cell_length_c   8.74090403
_cell_angle_alpha   63.09052097
_cell_angle_beta   67.59657928
_cell_angle_gamma   73.43279466
_symmetry_Int_Tables_number   1
_chemical_formula_structural   La8Ni4O17
_chemical_formula_sum   'La8 Ni4 O17'
_cell_volume   384.04238603
_cell_formula_units_Z   1
loop_
 _symmetry_equiv_pos_site_id
 _symmetry_equiv_pos_as_xyz
  1  'x, y, z'
loop_
 _atom_site_type_symbol
 _atom_site_label
 _atom_site_symmetry_multiplicity
 _atom_site_fract_x
 _atom_site_fract_y
 _atom_site_fract_z
 _atom_site_occupancy
  La  La0  1  0.71700500  0.90950100  0.82785800  1
  La  La1  1  0.70730100  0.41028800  0.82454700  1
  La  La2  1  0.27981700  0.83774100  0.67327900  1
  La  La3  1  0.27453200  0.33644100  0.68155700  1
  La  La4  1  0.72376200  0.66068800  0.31331300  1
  La  La5  1  0.71307800  0.16271000  0.32168100  1
  La  La6  1  0.28584800  0.09072500  0.17693700  1
  La  La7  1  0.28859800  0.58332900  0.18633100  1
  Ni  Ni0  1  0.99505100  0.24797600  0.50500300  1
  Ni  Ni1  1  0.99270800  0.75114500  0.50095600  1
  Ni  Ni2  1  0.00052100  0.99701400  0.00170300  1
  Ni  Ni3  1  0.00547800  0.50452300  0.99362400  1
  O  O0  1  0.34142800  0.98058900  0.91793700  1
  O  O1  1  0.34290200  0.47616400  0.84542800  1
  O  O2  1  0.96931300  0.12969700  0.76066800  1
  O  O3  1  0.97119900  0.62794800  0.75372800  1
  O  O4  1  0.65773700  0.29602600  0.57495200  1
  O  O5  1  0.65375600  0.79165000  0.58695800  1
  O  O6  1  0.01029600  0.99799000  0.49925600  1
  O  O7  1  0.34368100  0.17225200  0.48137500  1
  O  O8  1  0.34147400  0.70988100  0.41293000  1
  O  O9  1  0.01101700  0.50045700  0.49128700  1
  O  O10  1  0.00966700  0.37021500  0.24714800  1
  O  O11  1  0.66301000  0.98015100  0.08749100  1
  O  O12  1  0.49173800  0.31443600  0.12691200  1
  O  O13  1  0.66453300  0.60086100  0.08776700  1
  O  O14  1  0.98337200  0.88041900  0.25515600  1
  O  O15  1  0.05403700  0.74158800  0.99003400  1
  O  O16  1  0.97499000  0.25411300  0.00722000  1
loop_
_geom_bond_atom_site_label_1
_geom_bond_atom_site_label_2
_geom_bond_distance
_geom_bond_site_symmetry_2
La0 O0 2.380708 1_555
La0 O11 2.441666 1_556
La0 O13 2.449854 1_556
La0 O2 2.517109 1_565
La0 O3 2.557039 1_555
La0 O6 2.719373 1_655
La0 O4 2.843929 1_565
La0 O5 2.854516 1_555
La0 O15 2.869284 1_655
La1 O12 2.367782 1_556
La1 O1 2.371131 1_555
La1 O2 2.538722 1_555
La1 O3 2.555665 1_555
La1 O16 2.579246 1_556
La1 O5 2.766788 1_555
La1 O9 2.776097 1_655
La1 O4 2.858525 1_555
La1 O11 3.112723 1_546
La1 O13 3.148371 1_556
La2 O5 2.364939 1_555
La2 O7 2.436873 1_565
La2 O15 2.480955 1_555
La2 O1 2.521235 1_555
La2 O6 2.539146 1_555
La2 O8 2.724972 1_555
La2 O3 2.740429 1_455
La2 O2 2.810516 1_465
La2 O0 3.018615 1_555
La3 O1 2.383390 1_555
La3 O4 2.424062 1_555
La3 O7 2.443121 1_555
La3 O9 2.600825 1_555
La3 O0 2.642760 1_545
La3 O2 2.707433 1_455
La3 O16 2.721553 1_456
La3 O3 2.742516 1_455
La3 O8 2.819914 1_555
La4 O13 2.413807 1_555
La4 O8 2.417096 1_555
La4 O11 2.420388 1_555
La4 O14 2.582681 1_555
La4 O9 2.663060 1_655
La4 O10 2.668639 1_655
La4 O4 2.752496 1_555
La4 O15 2.806491 1_654
La4 O5 2.836205 1_555
La5 O7 2.393421 1_555
La5 O12 2.400234 1_555
La5 O16 2.550567 1_555
La5 O14 2.578719 1_545
La5 O10 2.673768 1_655
La5 O4 2.708804 1_555
La5 O6 2.718103 1_645
La5 O5 2.790969 1_545
La5 O13 3.082809 1_555
La5 O11 3.128938 1_545
La6 O12 2.345276 1_555
La6 O11 2.431196 1_545
La6 O10 2.589586 1_555
La6 O0 2.630273 1_544
La6 O6 2.633211 1_545
La6 O14 2.713397 1_445
La6 O16 2.754053 1_455
La6 O8 2.761245 1_545
La6 O1 3.082443 1_554
La6 O7 3.182649 1_555
La7 O12 2.319946 1_555
La7 O13 2.426173 1_555
La7 O15 2.479912 1_554
La7 O9 2.539301 1_555
La7 O10 2.644395 1_555
La7 O8 2.748416 1_555
La7 O14 2.770356 1_455
La7 O0 2.939374 1_554
Ni0 O6 1.943513 1_645
Ni0 O9 1.949034 1_655
Ni0 O2 1.949740 1_555
Ni0 O10 1.983850 1_655
Ni0 O4 2.135483 1_555
Ni0 O7 2.259140 1_655
Ni1 O3 1.933042 1_555
Ni1 O14 1.935069 1_555
Ni1 O6 1.955024 1_655
Ni1 O9 1.959842 1_655
Ni1 O5 2.142857 1_555
Ni1 O8 2.204922 1_655
Ni2 O14 1.946022 1_455
Ni2 O2 1.949736 1_464
Ni2 O15 1.961014 1_554
Ni2 O16 1.981940 1_465
Ni2 O0 2.165566 1_554
Ni2 O11 2.181979 1_455
Ni3 O3 1.949598 1_455
Ni3 O15 1.954419 1_555
Ni3 O16 1.967874 1_456
Ni3 O10 1.984753 1_556
Ni3 O1 2.194886 1_555
Ni3 O13 2.203399 1_456
