# generated using pymatgen
data_Ti3Cu2Sn(PO4)6
_symmetry_space_group_name_H-M   'P 1'
_cell_length_a   8.70600199
_cell_length_b   8.70600199
_cell_length_c   8.70600126
_cell_angle_alpha   59.85059034
_cell_angle_beta   59.85059034
_cell_angle_gamma   59.85059338
_symmetry_Int_Tables_number   1
_chemical_formula_structural   Ti3Cu2Sn(PO4)6
_chemical_formula_sum   'Ti3 Cu2 Sn1 P6 O24'
_cell_volume   465.01419955
_cell_formula_units_Z   1
loop_
 _symmetry_equiv_pos_site_id
 _symmetry_equiv_pos_as_xyz
  1  'x, y, z'
loop_
 _atom_site_type_symbol
 _atom_site_label
 _atom_site_symmetry_multiplicity
 _atom_site_fract_x
 _atom_site_fract_y
 _atom_site_fract_z
 _atom_site_occupancy
  Ti  Ti0  1  0.14149500  0.14149500  0.14149500  1
  Ti  Ti1  1  0.35764100  0.35764100  0.35764100  1
  Ti  Ti2  1  0.64158300  0.64158300  0.64158300  1
  Cu  Cu0  1  0.00377600  0.00377600  0.00377600  1
  Cu  Cu1  1  0.49993800  0.49993800  0.49993800  1
  Sn  Sn0  1  0.85740000  0.85740000  0.85740000  1
  P  P0  1  0.74859600  0.04118600  0.45656900  1
  P  P1  1  0.25217500  0.96152800  0.53681600  1
  P  P2  1  0.53681600  0.25217500  0.96152800  1
  P  P3  1  0.96152800  0.53681600  0.25217500  1
  P  P4  1  0.04118600  0.45656900  0.74859600  1
  P  P5  1  0.45656900  0.74859600  0.04118600  1
  O  O0  1  0.12462500  0.49651100  0.30539100  1
  O  O1  1  0.30539100  0.12462500  0.49651100  1
  O  O2  1  0.05966500  0.26883800  0.91579700  1
  O  O3  1  0.49651100  0.30539100  0.12462500  1
  O  O4  1  0.01441100  0.61496000  0.79956600  1
  O  O5  1  0.22921000  0.43585600  0.58215300  1
  O  O6  1  0.26883800  0.91579700  0.05966500  1
  O  O7  1  0.43585600  0.58215300  0.22921000  1
  O  O8  1  0.19776000  0.00014900  0.37472000  1
  O  O9  1  0.58215300  0.22921000  0.43585600  1
  O  O10  1  0.08799400  0.94545100  0.72861200  1
  O  O11  1  0.37472000  0.19776000  0.00014900  1
  O  O12  1  0.61496000  0.79956600  0.01441100  1
  O  O13  1  0.91579700  0.05966500  0.26883800  1
  O  O14  1  0.41828400  0.77205600  0.55671300  1
  O  O15  1  0.79956600  0.01441100  0.61496000  1
  O  O16  1  0.55671300  0.41828400  0.77205600  1
  O  O17  1  0.72861200  0.08799400  0.94545100  1
  O  O18  1  0.77205600  0.55671300  0.41828400  1
  O  O19  1  0.00014900  0.37472000  0.19776000  1
  O  O20  1  0.50047500  0.69805800  0.87404100  1
  O  O21  1  0.94545100  0.72861200  0.08799400  1
  O  O22  1  0.69805800  0.87404100  0.50047500  1
  O  O23  1  0.87404100  0.50047500  0.69805800  1
loop_
_geom_bond_atom_site_label_1
_geom_bond_atom_site_label_2
_geom_bond_distance
_geom_bond_site_symmetry_2
Cu0 O13 2.264201 1_455
Cu0 O2 2.264201 1_554
Cu0 O6 2.264201 1_545
Cu0 O10 2.370185 1_544
Cu0 O21 2.370185 1_445
Cu0 O17 2.370185 1_454
Cu1 O16 2.343865 1_555
Cu1 O18 2.343865 1_555
Cu1 O14 2.343865 1_555
Cu1 O7 2.367263 1_555
Cu1 O5 2.367263 1_555
Cu1 O9 2.367263 1_555
O0 P3 1.533289 1_455
O0 Ti1 1.922189 1_555
O1 P1 1.533289 1_545
O1 Ti1 1.922189 1_555
O2 P4 1.548323 1_555
O2 Ti0 2.005518 1_556
O3 P2 1.533289 1_554
O3 Ti1 1.922189 1_555
O4 P4 1.529911 1_555
O4 Sn0 2.013701 1_455
O5 P4 1.547607 1_555
O5 Ti1 1.977666 1_555
O6 P5 1.548323 1_555
O6 Ti0 2.005518 1_565
O7 P5 1.547607 1_555
O7 Ti1 1.977666 1_555
O8 P1 1.537499 1_545
O8 Ti0 1.939252 1_555
O9 P0 1.547607 1_555
O9 Ti1 1.977666 1_555
O10 P1 1.555483 1_555
O10 Sn0 2.072791 1_455
O11 P2 1.537499 1_554
O11 Ti0 1.939252 1_555
O12 P5 1.529911 1_555
O12 Sn0 2.013701 1_554
O13 P0 1.548323 1_555
O13 Ti0 2.005518 1_655
O14 P1 1.552642 1_555
O14 Ti2 1.999280 1_555
O15 P0 1.529911 1_555
O15 Sn0 2.013701 1_545
O16 P2 1.552642 1_555
O16 Ti2 1.999279 1_555
O17 P2 1.555483 1_555
O17 Sn0 2.072791 1_545
O18 P3 1.552642 1_555
O18 Ti2 1.999279 1_555
O19 P3 1.537499 1_455
O19 Ti0 1.939252 1_555
O20 P5 1.540344 1_556
O20 Ti2 1.934421 1_555
O21 P3 1.555483 1_555
O21 Sn0 2.072791 1_554
O22 P0 1.540344 1_565
O22 Ti2 1.934421 1_555
O23 P4 1.540344 1_655
O23 Ti2 1.934421 1_555
