# generated using pymatgen
data_Li2CrSiO4
_symmetry_space_group_name_H-M   'P 1'
_cell_length_a   5.11513700
_cell_length_b   10.58641900
_cell_length_c   13.09494800
_cell_angle_alpha   90.00000000
_cell_angle_beta   90.00000000
_cell_angle_gamma   90.00000000
_symmetry_Int_Tables_number   1
_chemical_formula_structural   Li2CrSiO4
_chemical_formula_sum   'Li16 Cr8 Si8 O32'
_cell_volume   709.10431340
_cell_formula_units_Z   8
loop_
 _symmetry_equiv_pos_site_id
 _symmetry_equiv_pos_as_xyz
  1  'x, y, z'
loop_
 _atom_site_type_symbol
 _atom_site_label
 _atom_site_symmetry_multiplicity
 _atom_site_fract_x
 _atom_site_fract_y
 _atom_site_fract_z
 _atom_site_occupancy
  Li  Li0  1  0.48207800  0.01725900  0.95278500  1
  Li  Li1  1  0.04766500  0.96624700  0.56566500  1
  Li  Li2  1  0.60409500  0.16370700  0.31183800  1
  Li  Li3  1  0.01787100  0.21464300  0.21367500  1
  Li  Li4  1  0.01787100  0.28535700  0.71367500  1
  Li  Li5  1  0.60409500  0.33629300  0.81183800  1
  Li  Li6  1  0.04766500  0.53375300  0.06566500  1
  Li  Li7  1  0.48207800  0.48274100  0.45278500  1
  Li  Li8  1  0.51792200  0.51725900  0.95278500  1
  Li  Li9  1  0.95233500  0.46624700  0.56566500  1
  Li  Li10  1  0.39590500  0.66370700  0.31183800  1
  Li  Li11  1  0.98212900  0.71464300  0.21367500  1
  Li  Li12  1  0.98212900  0.78535700  0.71367500  1
  Li  Li13  1  0.39590500  0.83629300  0.81183800  1
  Li  Li14  1  0.95233500  0.03375300  0.06566500  1
  Li  Li15  1  0.51792200  0.98274100  0.45278500  1
  Cr  Cr0  1  0.47181100  0.05666100  0.69882000  1
  Cr  Cr1  1  0.04213500  0.28053900  0.98167500  1
  Cr  Cr2  1  0.04213500  0.21946100  0.48167500  1
  Cr  Cr3  1  0.47181100  0.44333900  0.19882000  1
  Cr  Cr4  1  0.52818900  0.55666100  0.69882000  1
  Cr  Cr5  1  0.95786500  0.78053900  0.98167500  1
  Cr  Cr6  1  0.95786500  0.71946100  0.48167500  1
  Cr  Cr7  1  0.52818900  0.94333900  0.19882000  1
  Si  Si0  1  0.98979700  0.02260000  0.82697700  1
  Si  Si1  1  0.50121800  0.23847500  0.07912300  1
  Si  Si2  1  0.50121800  0.26152500  0.57912300  1
  Si  Si3  1  0.98979700  0.47740000  0.32697700  1
  Si  Si4  1  0.01020300  0.52260000  0.82697700  1
  Si  Si5  1  0.49878200  0.73847500  0.07912300  1
  Si  Si6  1  0.49878200  0.76152500  0.57912300  1
  Si  Si7  1  0.01020300  0.97740000  0.32697700  1
  O  O0  1  0.86437700  0.04176300  0.22496700  1
  O  O1  1  0.32670900  0.01476500  0.31971900  1
  O  O2  1  0.88287900  0.05515500  0.42645400  1
  O  O3  1  0.23179200  0.15433300  0.08618800  1
  O  O4  1  0.64817200  0.22799800  0.68756400  1
  O  O5  1  0.07459300  0.17167100  0.83168700  1
  O  O6  1  0.37258400  0.11930600  0.54640500  1
  O  O7  1  0.69945000  0.17168400  0.99865900  1
  O  O8  1  0.69945000  0.32831600  0.49865900  1
  O  O9  1  0.37258400  0.38069400  0.04640500  1
  O  O10  1  0.07459300  0.32832900  0.33168700  1
  O  O11  1  0.64817200  0.27200200  0.18756400  1
  O  O12  1  0.23179200  0.34566700  0.58618800  1
  O  O13  1  0.88287900  0.44484500  0.92645400  1
  O  O14  1  0.32670900  0.48523500  0.81971900  1
  O  O15  1  0.86437700  0.45823700  0.72496700  1
  O  O16  1  0.13562300  0.54176300  0.22496700  1
  O  O17  1  0.67329100  0.51476500  0.31971900  1
  O  O18  1  0.11712100  0.55515500  0.42645400  1
  O  O19  1  0.76820800  0.65433300  0.08618800  1
  O  O20  1  0.35182800  0.72799800  0.68756400  1
  O  O21  1  0.92540700  0.67167100  0.83168700  1
  O  O22  1  0.62741600  0.61930600  0.54640500  1
  O  O23  1  0.30055000  0.67168400  0.99865900  1
  O  O24  1  0.30055000  0.82831600  0.49865900  1
  O  O25  1  0.62741600  0.88069400  0.04640500  1
  O  O26  1  0.92540700  0.82832900  0.33168700  1
  O  O27  1  0.35182800  0.77200200  0.18756400  1
  O  O28  1  0.76820800  0.84566700  0.58618800  1
  O  O29  1  0.11712100  0.94484500  0.92645400  1
  O  O30  1  0.67329100  0.98523500  0.81971900  1
  O  O31  1  0.13562300  0.95823700  0.72496700  1
loop_
_geom_bond_atom_site_label_1
_geom_bond_atom_site_label_2
_geom_bond_distance
_geom_bond_site_symmetry_2
Li0 O30 2.026785 1_545
Li0 O25 2.036118 1_546
Li0 O29 2.047323 1_545
Li0 O7 2.066338 1_555
Li1 O28 1.935216 1_455
Li1 O31 2.135703 1_555
Li1 O24 2.139000 1_555
Li1 O2 2.218008 1_465
Li1 O6 2.334822 1_565
Li2 O11 2.003372 1_555
Li2 O1 2.123680 1_555
Li2 O0 2.175589 1_555
Li2 O2 2.367870 1_555
Li3 O10 1.980101 1_555
Li3 O0 1.996966 1_455
Li3 O11 2.015378 1_455
Li3 O3 2.095711 1_555
Li4 O5 1.980101 1_555
Li4 O15 1.996966 1_455
Li4 O4 2.015378 1_455
Li4 O12 2.095711 1_555
Li5 O4 2.003372 1_555
Li5 O14 2.123680 1_555
Li5 O15 2.175589 1_555
Li5 O13 2.367870 1_555
Li6 O19 1.935216 1_455
Li6 O16 2.135703 1_555
Li6 O23 2.139000 1_554
Li6 O13 2.218008 1_454
Li6 O9 2.334822 1_555
Li7 O17 2.026785 1_555
Li7 O22 2.036118 1_555
Li7 O18 2.047323 1_555
Li7 O8 2.066338 1_555
Li8 O14 2.026785 1_555
Li8 O9 2.036118 1_556
Li8 O13 2.047323 1_555
Li8 O23 2.066338 1_555
Li9 O12 1.935216 1_655
Li9 O15 2.135703 1_555
Li9 O8 2.139000 1_555
Li9 O18 2.218008 1_655
Li9 O22 2.334822 1_555
Li10 O27 2.003372 1_555
Li10 O17 2.123680 1_555
Li10 O16 2.175589 1_555
Li10 O18 2.367870 1_555
Li11 O26 1.980101 1_555
Li11 O16 1.996966 1_655
Li11 O27 2.015378 1_655
Li11 O19 2.095711 1_555
Li12 O21 1.980101 1_555
Li12 O31 1.996966 1_655
Li12 O20 2.015378 1_655
Li12 O28 2.095711 1_555
Li13 O20 2.003372 1_555
Li13 O30 2.123680 1_555
Li13 O31 2.175589 1_555
Li13 O29 2.367870 1_555
Li14 O3 1.935216 1_655
Li14 O0 2.135703 1_555
Li14 O7 2.139000 1_554
Li14 O29 2.218008 1_644
Li14 O25 2.334822 1_545
Li15 O1 2.026785 1_565
Li15 O6 2.036118 1_565
Li15 O2 2.047323 1_565
Li15 O24 2.066338 1_555
Cr0 O4 2.031148 1_555
Cr0 O30 2.034773 1_545
Cr0 O31 2.039632 1_545
Cr0 O6 2.163542 1_555
Cr1 O13 2.052328 1_455
Cr1 O7 2.109513 1_455
Cr1 O3 2.144589 1_556
Cr1 O9 2.167896 1_556
Cr1 O5 2.283310 1_555
Cr2 O2 2.052328 1_455
Cr2 O8 2.109513 1_455
Cr2 O12 2.144589 1_555
Cr2 O6 2.167896 1_555
Cr2 O10 2.283310 1_555
Cr3 O11 2.031148 1_555
Cr3 O17 2.034773 1_555
Cr3 O16 2.039632 1_555
Cr3 O9 2.163542 1_555
Cr4 O20 2.031148 1_555
Cr4 O14 2.034773 1_555
Cr4 O15 2.039632 1_555
Cr4 O22 2.163542 1_555
Cr5 O29 2.052328 1_655
Cr5 O23 2.109513 1_655
Cr5 O19 2.144589 1_556
Cr5 O25 2.167896 1_556
Cr5 O21 2.283310 1_555
Cr6 O18 2.052328 1_655
Cr6 O24 2.109513 1_655
Cr6 O28 2.144589 1_555
Cr6 O22 2.167896 1_555
Cr6 O26 2.283310 1_555
Cr7 O27 2.031148 1_555
Cr7 O1 2.034773 1_565
Cr7 O0 2.039632 1_565
Cr7 O25 2.163542 1_555
O0 Si7 1.674834 1_645
O1 Si7 1.669303 1_545
O2 Si7 1.672909 1_645
O3 Si1 1.643568 1_555
O4 Si2 1.645447 1_555
O5 Si0 1.637811 1_455
O6 Si2 1.698028 1_555
O7 Si1 1.624299 1_556
O8 Si2 1.624299 1_555
O9 Si1 1.698028 1_555
O10 Si3 1.637811 1_455
O11 Si1 1.645447 1_555
O12 Si2 1.643568 1_555
O13 Si4 1.672909 1_655
O14 Si4 1.669303 1_555
O15 Si4 1.674834 1_655
O16 Si3 1.674834 1_455
O17 Si3 1.669303 1_555
O18 Si3 1.672909 1_455
O19 Si5 1.643568 1_555
O20 Si6 1.645447 1_555
O21 Si4 1.637811 1_655
O22 Si6 1.698028 1_555
O23 Si5 1.624299 1_556
O24 Si6 1.624299 1_555
O25 Si5 1.698028 1_555
O26 Si7 1.637811 1_655
O27 Si5 1.645447 1_555
O28 Si6 1.643568 1_555
O29 Si0 1.672909 1_465
O30 Si0 1.669303 1_565
O31 Si0 1.674834 1_465
