# generated using pymatgen
data_LiCoPO4
_symmetry_space_group_name_H-M   'P 1'
_cell_length_a   4.89146318
_cell_length_b   4.89149002
_cell_length_c   15.98788804
_cell_angle_alpha   90.00371612
_cell_angle_beta   98.79120342
_cell_angle_gamma   59.99455665
_symmetry_Int_Tables_number   1
_chemical_formula_structural   LiCoPO4
_chemical_formula_sum   'Li4 Co4 P4 O16'
_cell_volume   326.06906602
_cell_formula_units_Z   4
loop_
 _symmetry_equiv_pos_site_id
 _symmetry_equiv_pos_as_xyz
  1  'x, y, z'
loop_
 _atom_site_type_symbol
 _atom_site_label
 _atom_site_symmetry_multiplicity
 _atom_site_fract_x
 _atom_site_fract_y
 _atom_site_fract_z
 _atom_site_occupancy
  Li  Li0  1  0.00537400  0.99736000  0.00788900  1
  Li  Li1  1  0.00536900  0.49729000  0.50793400  1
  Li  Li2  1  0.57028500  0.21490500  0.35535700  1
  Li  Li3  1  0.57022100  0.71487700  0.85531300  1
  Co  Co0  1  0.12897100  0.43553500  0.69343000  1
  Co  Co1  1  0.44657200  0.27668600  0.16986400  1
  Co  Co2  1  0.12898200  0.93550700  0.19341500  1
  Co  Co3  1  0.44650800  0.77674100  0.66979600  1
  P  P0  1  0.86319100  0.56840400  0.29486100  1
  P  P1  1  0.86314800  0.06843900  0.79482900  1
  P  P2  1  0.71232400  0.64382400  0.06842900  1
  P  P3  1  0.71226200  0.14385600  0.56837900  1
  O  O0  1  0.64890400  0.17553100  0.47311500  1
  O  O1  1  0.64862800  0.67572500  0.97312200  1
  O  O2  1  0.92658300  0.53672500  0.39016200  1
  O  O3  1  0.92680900  0.03659800  0.89014000  1
  O  O4  1  0.54797800  0.89478600  0.26069400  1
  O  O5  1  0.54793300  0.39483900  0.76071300  1
  O  O6  1  0.75765400  0.92490000  0.10259300  1
  O  O7  1  0.75760500  0.42493800  0.60256200  1
  O  O8  1  0.02760700  0.31744800  0.10252900  1
  O  O9  1  0.02750700  0.81745200  0.60256900  1
  O  O10  1  0.15544600  0.55719800  0.26071900  1
  O  O11  1  0.15533000  0.05727100  0.76064200  1
  O  O12  1  0.81794700  0.28728300  0.26070700  1
  O  O13  1  0.81779700  0.78740600  0.76066800  1
  O  O14  1  0.42013600  0.65489500  0.10261400  1
  O  O15  1  0.41999200  0.15505600  0.60254500  1
loop_
_geom_bond_atom_site_label_1
_geom_bond_atom_site_label_2
_geom_bond_distance
_geom_bond_site_symmetry_2
Li0 O3 1.853020 1_464
Li0 O8 2.207355 1_565
Li0 O6 2.208358 1_455
Li0 O14 2.208570 1_555
Li1 O2 1.853382 1_455
Li1 O15 2.206943 1_555
Li1 O7 2.207351 1_455
Li1 O9 2.207427 1_555
Li2 O0 1.853162 1_555
Li2 O12 2.207311 1_555
Li2 O10 2.207724 1_555
Li2 O4 2.207824 1_545
Li3 O1 1.853964 1_555
Li3 O5 2.206822 1_555
Li3 O13 2.207262 1_555
Li3 O11 2.208270 1_565
Co0 O11 2.077056 1_555
Co0 O13 2.077140 1_455
Co0 O5 2.077194 1_555
Co0 O15 2.167656 1_555
Co0 O9 2.167762 1_555
Co0 O7 2.168072 1_455
Co1 O14 2.076959 1_555
Co1 O6 2.077101 1_545
Co1 O8 2.077383 1_555
Co1 O4 2.167472 1_545
Co1 O10 2.167563 1_555
Co1 O12 2.167888 1_555
Co2 O12 2.077199 1_465
Co2 O4 2.077265 1_555
Co2 O10 2.077755 1_555
Co2 O14 2.167107 1_555
Co2 O6 2.167556 1_455
Co2 O8 2.168237 1_565
Co3 O7 2.076796 1_555
Co3 O9 2.077000 1_555
Co3 O15 2.077232 1_565
Co3 O11 2.167591 1_565
Co3 O13 2.167972 1_555
Co3 O5 2.168334 1_555
O0 P3 1.499173 1_555
O1 P2 1.499850 1_556
O2 P0 1.499755 1_555
O3 P1 1.499912 1_555
O4 P0 1.582783 1_555
O5 P1 1.582673 1_555
O6 P2 1.582906 1_555
O7 P3 1.583065 1_555
O8 P2 1.582701 1_455
O9 P3 1.582977 1_465
O10 P0 1.582637 1_455
O11 P1 1.582727 1_455
O12 P0 1.582841 1_555
O13 P1 1.582747 1_565
O14 P2 1.582937 1_555
O15 P3 1.582903 1_555
