# generated using pymatgen
data_K2AlOF5
_symmetry_space_group_name_H-M   'P 1'
_cell_length_a   6.16752071
_cell_length_b   6.16752071
_cell_length_c   7.52640600
_cell_angle_alpha   90.00000000
_cell_angle_beta   90.00000000
_cell_angle_gamma   100.75033303
_symmetry_Int_Tables_number   1
_chemical_formula_structural   K2AlOF5
_chemical_formula_sum   'K4 Al2 O2 F10'
_cell_volume   281.26716066
_cell_formula_units_Z   2
loop_
 _symmetry_equiv_pos_site_id
 _symmetry_equiv_pos_as_xyz
  1  'x, y, z'
loop_
 _atom_site_type_symbol
 _atom_site_label
 _atom_site_symmetry_multiplicity
 _atom_site_fract_x
 _atom_site_fract_y
 _atom_site_fract_z
 _atom_site_occupancy
  K  K0  1  0.03943000  0.50179200  0.25000000  1
  K  K1  1  0.49820800  0.96057000  0.75000000  1
  K  K2  1  0.96057000  0.49820800  0.75000000  1
  K  K3  1  0.50179200  0.03943000  0.25000000  1
  Al  Al0  1  0.00000000  0.00000000  0.50000000  1
  Al  Al1  1  0.00000000  0.00000000  0.00000000  1
  O  O0  1  0.54415500  0.54415500  0.25000000  1
  O  O1  1  0.45584500  0.45584500  0.75000000  1
  F  F0  1  0.80850500  0.19149500  0.50000000  1
  F  F1  1  0.80850500  0.19149500  0.00000000  1
  F  F2  1  0.19149500  0.80850500  0.50000000  1
  F  F3  1  0.19149500  0.80850500  0.00000000  1
  F  F4  1  0.22888800  0.22888800  0.52509200  1
  F  F5  1  0.77111200  0.77111200  0.47490800  1
  F  F6  1  0.22888800  0.22888800  0.97490800  1
  F  F7  1  0.77111200  0.77111200  0.02509200  1
  F  F8  1  0.03376000  0.03376000  0.25000000  1
  F  F9  1  0.96624000  0.96624000  0.75000000  1
loop_
_geom_bond_atom_site_label_1
_geom_bond_atom_site_label_2
_geom_bond_distance
_geom_bond_site_symmetry_2
K0 O0 3.074899 1_555
K0 O0 3.113952 1_455
K1 O1 3.074899 1_555
K1 O1 3.113952 1_565
K2 O1 3.074899 1_555
K2 O1 3.113952 1_655
K3 O0 3.074899 1_555
K3 O0 3.113952 1_545
Al0 F4 1.810486 1_555
Al0 F5 1.810486 1_445
Al0 F2 1.819376 1_545
Al0 F0 1.819376 1_455
Al0 F9 1.900252 1_445
Al0 F8 1.900252 1_555
Al1 F6 1.810486 1_554
Al1 F7 1.810486 1_445
Al1 F1 1.819376 1_455
Al1 F3 1.819376 1_545
Al1 F9 1.900252 1_444
Al1 F8 1.900252 1_555
F0 K3 2.708604 1_555
F0 K2 2.708604 1_555
F0 K1 2.866100 1_545
F0 K0 2.866100 1_655
F1 K3 2.708604 1_555
F1 K2 2.708604 1_554
F1 K1 2.866100 1_544
F1 K0 2.866100 1_655
F2 K0 2.708604 1_555
F2 K1 2.708604 1_555
F2 K2 2.866100 1_455
F2 K3 2.866100 1_565
F3 K0 2.708604 1_555
F3 K1 2.708604 1_554
F3 K2 2.866100 1_454
F3 K3 2.866100 1_565
F4 K3 3.036249 1_555
F4 K0 3.036249 1_555
F4 K2 3.064058 1_455
F4 K1 3.064058 1_545
F5 K2 3.036249 1_555
F5 K1 3.036249 1_555
F5 K0 3.064058 1_655
F5 K3 3.064058 1_565
F6 K3 3.036249 1_556
F6 K0 3.036249 1_556
F6 K2 3.064058 1_455
F6 K1 3.064058 1_545
F7 K2 3.036249 1_554
F7 K1 3.036249 1_554
F7 K0 3.064058 1_655
F7 K3 3.064058 1_565
F8 K3 2.880279 1_555
F8 K0 2.880279 1_555
F9 K1 2.880279 1_555
F9 K2 2.880279 1_555
