# generated using pymatgen
data_Li2MnNb3O8
_symmetry_space_group_name_H-M   'P 1'
_cell_length_a   6.13445760
_cell_length_b   6.13445760
_cell_length_c   10.26159800
_cell_angle_alpha   90.00000000
_cell_angle_beta   90.00000000
_cell_angle_gamma   119.99999564
_symmetry_Int_Tables_number   1
_chemical_formula_structural   Li2MnNb3O8
_chemical_formula_sum   'Li4 Mn2 Nb6 O16'
_cell_volume   334.42442221
_cell_formula_units_Z   2
loop_
 _symmetry_equiv_pos_site_id
 _symmetry_equiv_pos_as_xyz
  1  'x, y, z'
loop_
 _atom_site_type_symbol
 _atom_site_label
 _atom_site_symmetry_multiplicity
 _atom_site_fract_x
 _atom_site_fract_y
 _atom_site_fract_z
 _atom_site_occupancy
  Li  Li0  1  0.33333300  0.66666700  0.89036300  1
  Li  Li1  1  0.00000000  0.00000000  0.99527300  1
  Li  Li2  1  0.00000000  0.00000000  0.49527300  1
  Li  Li3  1  0.66666700  0.33333300  0.39036300  1
  Mn  Mn0  1  0.33333300  0.66666700  0.50118500  1
  Mn  Mn1  1  0.66666700  0.33333300  0.00118500  1
  Nb  Nb0  1  0.17679000  0.82321000  0.21410100  1
  Nb  Nb1  1  0.17679000  0.35358100  0.21410100  1
  Nb  Nb2  1  0.64641900  0.82321000  0.21410100  1
  Nb  Nb3  1  0.35358100  0.17679000  0.71410100  1
  Nb  Nb4  1  0.82321000  0.64641900  0.71410100  1
  Nb  Nb5  1  0.82321000  0.17679000  0.71410100  1
  O  O0  1  0.15650700  0.84349300  0.60618600  1
  O  O1  1  0.02561200  0.51280600  0.33586100  1
  O  O2  1  0.33333300  0.66666700  0.08454200  1
  O  O3  1  0.00000000  0.00000000  0.31411500  1
  O  O4  1  0.00000000  0.00000000  0.81411500  1
  O  O5  1  0.15650700  0.31301400  0.60618600  1
  O  O6  1  0.48719400  0.97438800  0.33586100  1
  O  O7  1  0.48719400  0.51280600  0.33586100  1
  O  O8  1  0.31301400  0.15650700  0.10618600  1
  O  O9  1  0.68698600  0.84349300  0.60618600  1
  O  O10  1  0.51280600  0.48719400  0.83586100  1
  O  O11  1  0.51280600  0.02561200  0.83586100  1
  O  O12  1  0.66666700  0.33333300  0.58454200  1
  O  O13  1  0.84349300  0.68698600  0.10618600  1
  O  O14  1  0.97438800  0.48719400  0.83586100  1
  O  O15  1  0.84349300  0.15650700  0.10618600  1
loop_
_geom_bond_atom_site_label_1
_geom_bond_atom_site_label_2
_geom_bond_distance
_geom_bond_site_symmetry_2
Li0 O14 1.987253 1_455
Li0 O11 1.987253 1_565
Li0 O10 1.987258 1_555
Li0 O2 1.992587 1_556
Li1 O4 1.858971 1_555
Li1 O15 2.015109 1_456
Li1 O13 2.015109 1_446
Li1 O8 2.015109 1_556
Li2 O3 1.858971 1_555
Li2 O0 2.015109 1_545
Li2 O9 2.015109 1_445
Li2 O5 2.015109 1_555
Li3 O6 1.987253 1_545
Li3 O1 1.987253 1_655
Li3 O7 1.987258 1_555
Li3 O12 1.992587 1_555
Mn0 O0 2.165845 1_555
Mn0 O5 2.165850 1_555
Mn0 O9 2.165850 1_555
Mn0 O1 2.355979 1_555
Mn0 O6 2.355979 1_555
Mn0 O7 2.355982 1_555
Mn1 O15 2.165845 1_555
Mn1 O8 2.165850 1_555
Mn1 O13 2.165850 1_555
Mn1 O14 2.355979 1_554
Mn1 O11 2.355979 1_554
Mn1 O10 2.355982 1_554
Nb0 O1 2.069084 1_555
Nb0 O6 2.069084 1_555
Nb0 O8 2.096761 1_565
Nb0 O13 2.096761 1_455
Nb0 O2 2.129340 1_555
Nb0 O3 2.140511 1_565
Nb1 O1 2.069080 1_555
Nb1 O7 2.069084 1_555
Nb1 O15 2.096761 1_455
Nb1 O8 2.096765 1_555
Nb1 O2 2.129340 1_555
Nb1 O3 2.140516 1_555
Nb2 O6 2.069080 1_555
Nb2 O7 2.069084 1_555
Nb2 O15 2.096761 1_565
Nb2 O13 2.096765 1_555
Nb2 O2 2.129340 1_555
Nb2 O3 2.140516 1_665
Nb3 O11 2.069080 1_555
Nb3 O10 2.069084 1_555
Nb3 O0 2.096761 1_545
Nb3 O5 2.096765 1_555
Nb3 O12 2.129340 1_555
Nb3 O4 2.140516 1_555
Nb4 O14 2.069080 1_555
Nb4 O10 2.069084 1_555
Nb4 O0 2.096761 1_655
Nb4 O9 2.096765 1_555
Nb4 O12 2.129340 1_555
Nb4 O4 2.140516 1_665
Nb5 O11 2.069084 1_555
Nb5 O14 2.069084 1_555
Nb5 O5 2.096761 1_655
Nb5 O9 2.096761 1_545
Nb5 O12 2.129340 1_555
Nb5 O4 2.140511 1_655
