# generated using pymatgen
data_Na3Ni2P2(CO7)2
_symmetry_space_group_name_H-M   'P 1'
_cell_length_a   10.16177866
_cell_length_b   10.43515946
_cell_length_c   6.51938388
_cell_angle_alpha   90.74965980
_cell_angle_beta   90.86376975
_cell_angle_gamma   60.20510795
_symmetry_Int_Tables_number   1
_chemical_formula_structural   Na3Ni2P2(CO7)2
_chemical_formula_sum   'Na6 Ni4 P4 C4 O28'
_cell_volume   599.84843116
_cell_formula_units_Z   2
loop_
 _symmetry_equiv_pos_site_id
 _symmetry_equiv_pos_as_xyz
  1  'x, y, z'
loop_
 _atom_site_type_symbol
 _atom_site_label
 _atom_site_symmetry_multiplicity
 _atom_site_fract_x
 _atom_site_fract_y
 _atom_site_fract_z
 _atom_site_occupancy
  Na  Na0  1  0.00580700  0.25042200  0.03050200  1
  Na  Na1  1  0.49562000  0.25027700  0.98955800  1
  Na  Na2  1  0.49845300  0.24734400  0.51554700  1
  Na  Na3  1  0.50438000  0.74972300  0.01044200  1
  Na  Na4  1  0.50154700  0.75265600  0.48445300  1
  Na  Na5  1  0.99419300  0.74957800  0.96949800  1
  Ni  Ni0  1  0.27719500  0.06526100  0.74434700  1
  Ni  Ni1  1  0.21413100  0.43935600  0.25470000  1
  Ni  Ni2  1  0.78586900  0.56064400  0.74530000  1
  Ni  Ni3  1  0.72280500  0.93473900  0.25565300  1
  P  P0  1  0.35328500  0.06922100  0.24987900  1
  P  P1  1  0.14725500  0.42587200  0.75070600  1
  P  P2  1  0.85274500  0.57412800  0.24929400  1
  P  P3  1  0.64671500  0.93077900  0.75012100  1
  C  C0  1  0.82107500  0.10770500  0.25102100  1
  C  C1  1  0.31950900  0.60602500  0.25049100  1
  C  C2  1  0.68049000  0.39397500  0.74950900  1
  C  C3  1  0.17892500  0.89229500  0.74897900  1
  O  O0  1  0.09269700  0.03423800  0.75000600  1
  O  O1  1  0.26739000  0.05494600  0.06078000  1
  O  O2  1  0.27479000  0.04890000  0.43659400  1
  O  O3  1  0.14509400  0.27926600  0.75886500  1
  O  O4  1  0.01921500  0.44510300  0.24328500  1
  O  O5  1  0.47810300  0.06021400  0.75370800  1
  O  O6  1  0.35409100  0.21731700  0.25098000  1
  O  O7  1  0.23387500  0.44269400  0.93840600  1
  O  O8  1  0.23481600  0.43408600  0.56446700  1
  O  O9  1  0.67559500  0.14992200  0.25423700  1
  O  O10  1  0.17574600  0.64995500  0.24989000  1
  O  O11  1  0.40272600  0.46250400  0.25670000  1
  O  O12  1  0.62674100  0.30831100  0.75504800  1
  O  O13  1  0.13143700  0.80289200  0.75115700  1
  O  O14  1  0.86856300  0.19710800  0.24884300  1
  O  O15  1  0.37325900  0.69168900  0.24495200  1
  O  O16  1  0.59727400  0.53749600  0.74330000  1
  O  O17  1  0.82425400  0.35004500  0.75011000  1
  O  O18  1  0.32440500  0.85007800  0.74576300  1
  O  O19  1  0.76612500  0.55730600  0.06159400  1
  O  O20  1  0.76518400  0.56591400  0.43553300  1
  O  O21  1  0.64590900  0.78268300  0.74902000  1
  O  O22  1  0.52189700  0.93978600  0.24629200  1
  O  O23  1  0.98078500  0.55489700  0.75671500  1
  O  O24  1  0.85490600  0.72073400  0.24113500  1
  O  O25  1  0.72521000  0.95110000  0.56340600  1
  O  O26  1  0.73261000  0.94505400  0.93922000  1
  O  O27  1  0.90730300  0.96576200  0.24999400  1
loop_
_geom_bond_atom_site_label_1
_geom_bond_atom_site_label_2
_geom_bond_distance
_geom_bond_site_symmetry_2
Na0 O14 2.265482 1_455
Na0 O3 2.396450 1_554
Na0 O17 2.422383 1_454
Na0 O1 2.423183 1_555
Na0 O4 2.503131 1_555
Na0 O0 2.678430 1_554
Na0 O19 2.911198 1_455
Na1 O12 2.316690 1_555
Na1 O9 2.338316 1_556
Na1 O6 2.381633 1_556
Na1 O7 2.429137 1_555
Na1 O5 2.567551 1_555
Na1 O11 2.588414 1_556
Na1 O26 2.902686 1_545
Na2 O12 2.297616 1_555
Na2 O9 2.324754 1_555
Na2 O6 2.364646 1_555
Na2 O8 2.428492 1_555
Na2 O11 2.591175 1_555
Na2 O5 2.599424 1_555
Na2 O25 2.808543 1_545
Na3 O15 2.316690 1_555
Na3 O18 2.338316 1_554
Na3 O21 2.381633 1_554
Na3 O19 2.429137 1_555
Na3 O22 2.567551 1_555
Na3 O16 2.588414 1_554
Na3 O1 2.902686 1_565
Na4 O15 2.297616 1_555
Na4 O18 2.324754 1_555
Na4 O21 2.364646 1_555
Na4 O20 2.428492 1_555
Na4 O16 2.591175 1_555
Na4 O22 2.599424 1_555
Na4 O2 2.808543 1_565
Na5 O13 2.265482 1_655
Na5 O24 2.396450 1_556
Na5 O10 2.422383 1_656
Na5 O26 2.423183 1_555
Na5 O23 2.503131 1_555
Na5 O27 2.678430 1_556
Na5 O7 2.911198 1_655
Ni0 O3 1.953754 1_555
Ni0 O2 2.012196 1_555
Ni0 O5 2.015944 1_555
Ni0 O18 2.049933 1_545
Ni0 O0 2.055896 1_555
Ni0 O1 2.073628 1_556
Ni1 O4 1.951898 1_555
Ni1 O8 2.025874 1_555
Ni1 O6 2.028935 1_555
Ni1 O10 2.032799 1_555
Ni1 O11 2.047085 1_555
Ni1 O7 2.077206 1_554
Ni2 O23 1.951898 1_555
Ni2 O20 2.025874 1_555
Ni2 O21 2.028935 1_555
Ni2 O17 2.032799 1_555
Ni2 O16 2.047085 1_555
Ni2 O19 2.077206 1_556
Ni3 O24 1.953754 1_555
Ni3 O25 2.012196 1_555
Ni3 O22 2.015944 1_555
Ni3 O9 2.049933 1_565
Ni3 O27 2.055896 1_555
Ni3 O26 2.073628 1_554
C0 O14 1.245549 1_555
C0 O27 1.293010 1_545
C0 O9 1.316609 1_555
C1 O15 1.259121 1_555
C1 O10 1.295643 1_555
C1 O11 1.304482 1_555
C2 O12 1.259113 1_555
C2 O17 1.295652 1_555
C2 O16 1.304481 1_555
C3 O13 1.245549 1_555
C3 O0 1.293010 1_565
C3 O18 1.316609 1_555
O1 P0 1.547848 1_555
O2 P0 1.538529 1_555
O3 P1 1.542506 1_555
O4 P2 1.553410 1_455
O5 P3 1.568791 1_545
O6 P0 1.549414 1_555
O7 P1 1.555140 1_555
O8 P1 1.544127 1_555
O19 P2 1.555140 1_555
O20 P2 1.544127 1_555
O21 P3 1.549414 1_555
O22 P0 1.568791 1_565
O23 P1 1.553410 1_655
O24 P2 1.542506 1_555
O25 P3 1.538529 1_555
O26 P3 1.547848 1_555
