# generated using pymatgen
data_Mn2OF3
_symmetry_space_group_name_H-M   'P 1'
_cell_length_a   7.39209130
_cell_length_b   7.39209130
_cell_length_c   7.11907700
_cell_angle_alpha   90.00000000
_cell_angle_beta   90.00000000
_cell_angle_gamma   128.75293619
_symmetry_Int_Tables_number   1
_chemical_formula_structural   Mn2OF3
_chemical_formula_sum   'Mn8 O4 F12'
_cell_volume   303.36868663
_cell_formula_units_Z   4
loop_
 _symmetry_equiv_pos_site_id
 _symmetry_equiv_pos_as_xyz
  1  'x, y, z'
loop_
 _atom_site_type_symbol
 _atom_site_label
 _atom_site_symmetry_multiplicity
 _atom_site_fract_x
 _atom_site_fract_y
 _atom_site_fract_z
 _atom_site_occupancy
  Mn  Mn0  1  0.76457100  0.76457100  0.00000000  1
  Mn  Mn1  1  0.23542900  0.23542900  0.00000000  1
  Mn  Mn2  1  0.24249200  0.75750800  0.00000000  1
  Mn  Mn3  1  0.50000000  0.50000000  0.50000000  1
  Mn  Mn4  1  0.75750800  0.24249200  0.00000000  1
  Mn  Mn5  1  0.00000000  0.00000000  0.50000000  1
  Mn  Mn6  1  0.50000000  0.00000000  0.50000000  1
  Mn  Mn7  1  0.00000000  0.50000000  0.50000000  1
  O  O0  1  0.09259300  0.90740700  0.00000000  1
  O  O1  1  0.90740700  0.09259300  0.00000000  1
  O  O2  1  0.65438800  0.34561200  0.50000000  1
  O  O3  1  0.34561200  0.65438800  0.50000000  1
  F  F0  1  0.59514700  0.40485300  0.00000000  1
  F  F1  1  0.74371200  0.74371200  0.30539900  1
  F  F2  1  0.25628800  0.25628800  0.30539900  1
  F  F3  1  0.00000000  0.50000000  0.19687200  1
  F  F4  1  0.74371200  0.74371200  0.69460100  1
  F  F5  1  0.25628800  0.25628800  0.69460100  1
  F  F6  1  0.50000000  0.00000000  0.19687200  1
  F  F7  1  0.15280600  0.84719400  0.50000000  1
  F  F8  1  0.40485300  0.59514700  0.00000000  1
  F  F9  1  0.84719400  0.15280600  0.50000000  1
  F  F10  1  0.00000000  0.50000000  0.80312800  1
  F  F11  1  0.50000000  0.00000000  0.80312800  1
loop_
_geom_bond_atom_site_label_1
_geom_bond_atom_site_label_2
_geom_bond_distance
_geom_bond_site_symmetry_2
Mn0 O0 1.946572 1_655
Mn0 O1 1.946572 1_565
Mn1 O0 1.946572 1_545
Mn1 O1 1.946572 1_455
Mn2 O0 1.998188 1_555
Mn3 O2 2.058028 1_555
Mn3 O3 2.058028 1_555
Mn4 O1 1.998188 1_555
Mn6 O3 2.044318 1_545
Mn6 O2 2.044318 1_555
Mn7 O2 2.044318 1_455
Mn7 O3 2.044318 1_555
F0 Mn1 2.114229 1_555
F0 Mn0 2.114229 1_555
F0 Mn4 2.164310 1_555
F1 Mn3 2.084991 1_555
F1 Mn5 2.145745 1_665
F1 Mn0 2.178245 1_555
F2 Mn3 2.084991 1_555
F2 Mn5 2.145745 1_555
F2 Mn1 2.178245 1_555
F3 Mn2 2.128183 1_555
F3 Mn4 2.128183 1_455
F3 Mn7 2.157992 1_555
F4 Mn3 2.084991 1_555
F4 Mn5 2.145745 1_665
F4 Mn0 2.178245 1_556
F5 Mn3 2.084991 1_555
F5 Mn5 2.145745 1_555
F5 Mn1 2.178245 1_556
F6 Mn4 2.128183 1_555
F6 Mn2 2.128183 1_545
F6 Mn6 2.157992 1_555
F7 Mn5 2.036939 1_565
F7 Mn7 2.057532 1_555
F7 Mn6 2.057532 1_565
F8 Mn1 2.114229 1_555
F8 Mn0 2.114229 1_555
F8 Mn2 2.164310 1_555
F9 Mn5 2.036939 1_655
F9 Mn7 2.057532 1_655
F9 Mn6 2.057532 1_555
F10 Mn2 2.128183 1_556
F10 Mn4 2.128183 1_456
F10 Mn7 2.157992 1_555
F11 Mn4 2.128183 1_556
F11 Mn2 2.128183 1_546
F11 Mn6 2.157992 1_555
