# generated using pymatgen
data_Mn3FeCo2(PO4)6
_symmetry_space_group_name_H-M   'P 1'
_cell_length_a   8.47402686
_cell_length_b   8.47402686
_cell_length_c   8.47402681
_cell_angle_alpha   60.87582549
_cell_angle_beta   60.87582549
_cell_angle_gamma   60.87582349
_symmetry_Int_Tables_number   1
_chemical_formula_structural   Mn3FeCo2(PO4)6
_chemical_formula_sum   'Mn3 Fe1 Co2 P6 O24'
_cell_volume   438.77898553
_cell_formula_units_Z   1
loop_
 _symmetry_equiv_pos_site_id
 _symmetry_equiv_pos_as_xyz
  1  'x, y, z'
loop_
 _atom_site_type_symbol
 _atom_site_label
 _atom_site_symmetry_multiplicity
 _atom_site_fract_x
 _atom_site_fract_y
 _atom_site_fract_z
 _atom_site_occupancy
  Mn  Mn0  1  0.64234300  0.64234300  0.64234300  1
  Mn  Mn1  1  0.85694300  0.85694300  0.85694300  1
  Mn  Mn2  1  0.35689300  0.35689300  0.35689300  1
  Fe  Fe0  1  0.14395500  0.14395500  0.14395500  1
  Co  Co0  1  0.00146400  0.00146400  0.00146400  1
  Co  Co1  1  0.49933100  0.49933100  0.49933100  1
  P  P0  1  0.95655200  0.25003800  0.54534900  1
  P  P1  1  0.54534900  0.95655200  0.25003800  1
  P  P2  1  0.25003800  0.54534900  0.95655200  1
  P  P3  1  0.74930400  0.45770600  0.03958300  1
  P  P4  1  0.45770600  0.03958300  0.74930400  1
  P  P5  1  0.03958300  0.74930400  0.45770600  1
  O  O0  1  0.51171700  0.11568000  0.31176600  1
  O  O1  1  0.31176600  0.51171700  0.11568000  1
  O  O2  1  0.11568000  0.31176600  0.51171700  1
  O  O3  1  0.93785900  0.09059500  0.74526700  1
  O  O4  1  0.99197300  0.18755200  0.38770300  1
  O  O5  1  0.75693200  0.41544400  0.55887000  1
  O  O6  1  0.74526700  0.93785900  0.09059500  1
  O  O7  1  0.55887000  0.75693200  0.41544400  1
  O  O8  1  0.81350300  0.61500900  0.00633000  1
  O  O9  1  0.41544400  0.55887000  0.75693200  1
  O  O10  1  0.90804600  0.25982400  0.05625300  1
  O  O11  1  0.61500900  0.00633000  0.81350300  1
  O  O12  1  0.38770300  0.99197300  0.18755200  1
  O  O13  1  0.09059500  0.74526700  0.93785900  1
  O  O14  1  0.58566400  0.44605600  0.23803900  1
  O  O15  1  0.18755200  0.38770300  0.99197300  1
  O  O16  1  0.44605600  0.23803900  0.58566400  1
  O  O17  1  0.25982400  0.05625300  0.90804600  1
  O  O18  1  0.23803900  0.58566400  0.44605600  1
  O  O19  1  0.00633000  0.81350300  0.61500900  1
  O  O20  1  0.05625300  0.90804600  0.25982400  1
  O  O21  1  0.87981500  0.68306400  0.49758900  1
  O  O22  1  0.68306400  0.49758900  0.87981500  1
  O  O23  1  0.49758900  0.87981500  0.68306400  1
loop_
_geom_bond_atom_site_label_1
_geom_bond_atom_site_label_2
_geom_bond_distance
_geom_bond_site_symmetry_2
Mn0 O23 1.879995 1_555
Mn0 O22 1.879995 1_555
Mn0 O21 1.879995 1_555
Mn0 O5 1.994519 1_555
Mn0 O7 1.994519 1_555
Mn0 O9 1.994520 1_555
Mn1 O11 1.922469 1_565
Mn1 O19 1.922469 1_655
Mn1 O8 1.922469 1_556
Mn1 O13 2.037648 1_655
Mn1 O6 2.037648 1_556
Mn1 O3 2.037648 1_565
Mn2 O0 1.925544 1_555
Mn2 O1 1.925544 1_555
Mn2 O2 1.925544 1_555
Mn2 O18 2.031737 1_555
Mn2 O16 2.031737 1_555
Mn2 O14 2.031737 1_555
Fe0 O12 1.936949 1_545
Fe0 O4 1.936949 1_455
Fe0 O15 1.936949 1_554
Fe0 O10 2.082792 1_455
Fe0 O17 2.082792 1_554
Fe0 O20 2.082792 1_545
Co0 O10 2.140118 1_455
Co0 O20 2.140118 1_545
Co0 O17 2.140118 1_554
Co0 O13 2.172768 1_544
Co0 O3 2.172768 1_454
Co0 O6 2.172768 1_445
Co1 O18 2.171732 1_555
Co1 O14 2.171732 1_555
Co1 O16 2.171732 1_555
Co1 O5 2.176575 1_555
Co1 O9 2.176575 1_555
Co1 O7 2.176575 1_555
O0 P1 1.529892 1_545
O1 P2 1.529892 1_554
O2 P0 1.529892 1_455
O3 P0 1.561943 1_555
O4 P0 1.516121 1_555
O5 P0 1.580797 1_555
O6 P1 1.561943 1_555
O7 P1 1.580797 1_555
O8 P3 1.530774 1_555
O9 P2 1.580797 1_555
O10 P3 1.549200 1_555
O11 P4 1.530774 1_555
O12 P1 1.516121 1_555
O13 P2 1.561943 1_555
O14 P3 1.569228 1_555
O15 P2 1.516121 1_555
O16 P4 1.569228 1_555
O17 P4 1.549200 1_555
O18 P5 1.569228 1_555
O19 P5 1.530774 1_555
O20 P5 1.549200 1_555
O21 P5 1.540121 1_655
O22 P3 1.540121 1_556
O23 P4 1.540121 1_565
