# generated using pymatgen
data_SrFe3P4HO16
_symmetry_space_group_name_H-M   'P 1'
_cell_length_a   7.39179300
_cell_length_b   8.60538300
_cell_length_c   19.80375540
_cell_angle_alpha   85.13171982
_cell_angle_beta   90.00000000
_cell_angle_gamma   90.00000000
_symmetry_Int_Tables_number   1
_chemical_formula_structural   SrFe3P4HO16
_chemical_formula_sum   'Sr4 Fe12 P16 H4 O64'
_cell_volume   1255.15677428
_cell_formula_units_Z   4
loop_
 _symmetry_equiv_pos_site_id
 _symmetry_equiv_pos_as_xyz
  1  'x, y, z'
loop_
 _atom_site_type_symbol
 _atom_site_label
 _atom_site_symmetry_multiplicity
 _atom_site_fract_x
 _atom_site_fract_y
 _atom_site_fract_z
 _atom_site_occupancy
  Sr  Sr0  1  0.56202900  0.29824100  0.06241800  1
  Sr  Sr1  1  0.06202900  0.70175900  0.43758200  1
  Sr  Sr2  1  0.43797100  0.70175900  0.93758200  1
  Sr  Sr3  1  0.93797100  0.29824100  0.56241800  1
  Fe  Fe0  1  0.93492400  0.71740600  0.91836700  1
  Fe  Fe1  1  0.43492400  0.28259400  0.58163300  1
  Fe  Fe2  1  0.06507600  0.28259400  0.08163300  1
  Fe  Fe3  1  0.56507600  0.71740600  0.41836700  1
  Fe  Fe4  1  0.49302500  0.77064100  0.71422100  1
  Fe  Fe5  1  0.99302500  0.22935900  0.78577900  1
  Fe  Fe6  1  0.50697500  0.22935900  0.28577900  1
  Fe  Fe7  1  0.00697500  0.77064100  0.21422100  1
  Fe  Fe8  1  0.39787000  0.23578600  0.80920600  1
  Fe  Fe9  1  0.89787000  0.76421400  0.69079400  1
  Fe  Fe10  1  0.60213000  0.76421400  0.19079400  1
  Fe  Fe11  1  0.10213000  0.23578600  0.30920600  1
  P  P0  1  0.70650800  0.05320500  0.89988600  1
  P  P1  1  0.20650800  0.94679500  0.60011400  1
  P  P2  1  0.29349200  0.94679500  0.10011400  1
  P  P3  1  0.79349200  0.05320500  0.39988600  1
  P  P4  1  0.18233600  0.88466300  0.81042400  1
  P  P5  1  0.68233600  0.11533700  0.68957600  1
  P  P6  1  0.81766400  0.11533700  0.18957600  1
  P  P7  1  0.31766400  0.88466300  0.31042400  1
  P  P8  1  0.70629500  0.51603400  0.81789800  1
  P  P9  1  0.20629500  0.48396600  0.68210200  1
  P  P10  1  0.29370500  0.48396600  0.18210200  1
  P  P11  1  0.79370500  0.51603400  0.31789800  1
  P  P12  1  0.81877400  0.61438100  0.06822600  1
  P  P13  1  0.31877400  0.38561900  0.43177400  1
  P  P14  1  0.18122600  0.38561900  0.93177400  1
  P  P15  1  0.68122600  0.61438100  0.56822600  1
  H  H0  1  0.85871700  0.21660700  0.96220000  1
  H  H1  1  0.35871700  0.78339300  0.53780000  1
  H  H2  1  0.14128300  0.78339300  0.03780000  1
  H  H3  1  0.64128300  0.21660700  0.46220000  1
  O  O0  1  0.11857200  0.55260600  0.90572800  1
  O  O1  1  0.61857200  0.44739400  0.59427200  1
  O  O2  1  0.88142800  0.44739400  0.09427200  1
  O  O3  1  0.38142800  0.55260600  0.40572800  1
  O  O4  1  0.96343300  0.69043700  0.01671900  1
  O  O5  1  0.46343300  0.30956300  0.48328100  1
  O  O6  1  0.03656700  0.30956300  0.98328100  1
  O  O7  1  0.53656700  0.69043700  0.51671900  1
  O  O8  1  0.73371500  0.59746100  0.88479800  1
  O  O9  1  0.23371500  0.40253900  0.61520200  1
  O  O10  1  0.26628500  0.40253900  0.11520200  1
  O  O11  1  0.76628500  0.59746100  0.38479800  1
  O  O12  1  0.13218000  0.86055100  0.88753800  1
  O  O13  1  0.63218000  0.13944900  0.61246200  1
  O  O14  1  0.86782000  0.13944900  0.11246200  1
  O  O15  1  0.36782000  0.86055100  0.38753800  1
  O  O16  1  0.72958900  0.88204900  0.92832900  1
  O  O17  1  0.22958900  0.11795100  0.57167100  1
  O  O18  1  0.27041100  0.11795100  0.07167100  1
  O  O19  1  0.77041100  0.88204900  0.42832900  1
  O  O20  1  0.69933500  0.64652800  0.75834500  1
  O  O21  1  0.19933500  0.35347200  0.74165500  1
  O  O22  1  0.30066500  0.35347200  0.24165500  1
  O  O23  1  0.80066500  0.64652800  0.25834500  1
  O  O24  1  0.68932200  0.72191700  0.62735500  1
  O  O25  1  0.18932200  0.27808300  0.87264500  1
  O  O26  1  0.31067800  0.27808300  0.37264500  1
  O  O27  1  0.81067800  0.72191700  0.12735500  1
  O  O28  1  0.69620800  0.93801200  0.71284200  1
  O  O29  1  0.19620800  0.06198800  0.78715800  1
  O  O30  1  0.30379200  0.06198800  0.28715800  1
  O  O31  1  0.80379200  0.93801200  0.21284200  1
  O  O32  1  0.34526600  0.90789000  0.65608600  1
  O  O33  1  0.84526600  0.09211000  0.84391400  1
  O  O34  1  0.65473400  0.09211000  0.34391400  1
  O  O35  1  0.15473400  0.90789000  0.15608600  1
  O  O36  1  0.36657900  0.58905800  0.69314300  1
  O  O37  1  0.86657900  0.41094200  0.80685700  1
  O  O38  1  0.63342100  0.41094200  0.30685700  1
  O  O39  1  0.13342100  0.58905800  0.19314300  1
  O  O40  1  0.37075100  0.80703500  0.80242700  1
  O  O41  1  0.87075100  0.19296500  0.69757300  1
  O  O42  1  0.62924900  0.19296500  0.19757300  1
  O  O43  1  0.12924900  0.80703500  0.30242700  1
  O  O44  1  0.53454100  0.19274700  0.72902900  1
  O  O45  1  0.03454100  0.80725300  0.77097100  1
  O  O46  1  0.46545900  0.80725300  0.27097100  1
  O  O47  1  0.96545900  0.19274700  0.22902900  1
  O  O48  1  0.50984000  0.08142400  0.87667000  1
  O  O49  1  0.00984000  0.91857600  0.62333000  1
  O  O50  1  0.49016000  0.91857600  0.12333000  1
  O  O51  1  0.99016000  0.08142400  0.37667000  1
  O  O52  1  0.52448000  0.42937700  0.82508200  1
  O  O53  1  0.02448000  0.57062300  0.67491800  1
  O  O54  1  0.47552000  0.57062300  0.17491800  1
  O  O55  1  0.97552000  0.42937700  0.32508200  1
  O  O56  1  0.73528600  0.16570800  0.95980100  1
  O  O57  1  0.23528600  0.83429200  0.54019900  1
  O  O58  1  0.26471400  0.83429200  0.04019900  1
  O  O59  1  0.76471400  0.16570800  0.45980100  1
  O  O60  1  0.63631400  0.59721800  0.03340100  1
  O  O61  1  0.13631400  0.40278200  0.46659900  1
  O  O62  1  0.36368600  0.40278200  0.96659900  1
  O  O63  1  0.86368600  0.59721800  0.53340100  1
loop_
_geom_bond_atom_site_label_1
_geom_bond_atom_site_label_2
_geom_bond_distance
_geom_bond_site_symmetry_2
Fe0 O4 1.953262 1_556
Fe0 O8 1.958531 1_555
Fe0 O12 1.971917 1_655
Fe0 O0 1.994209 1_655
Fe0 O16 2.097005 1_555
Fe1 O5 1.953262 1_555
Fe1 O9 1.958531 1_555
Fe1 O13 1.971917 1_555
Fe1 O1 1.994209 1_555
Fe1 O17 2.097005 1_555
Fe2 O6 1.953262 1_554
Fe2 O10 1.958531 1_555
Fe2 O14 1.971917 1_455
Fe2 O2 1.994209 1_455
Fe2 O18 2.097005 1_555
Fe3 O7 1.953262 1_555
Fe3 O11 1.958531 1_555
Fe3 O15 1.971917 1_555
Fe3 O3 1.994209 1_555
Fe3 O19 2.097005 1_555
Fe4 O36 1.897429 1_555
Fe4 O32 1.918994 1_555
Fe4 O40 2.014741 1_555
Fe4 O20 2.017794 1_555
Fe4 O28 2.079465 1_555
Fe4 O24 2.315800 1_555
Fe5 O37 1.897429 1_555
Fe5 O33 1.918994 1_555
Fe5 O41 2.014741 1_555
Fe5 O21 2.017794 1_655
Fe5 O29 2.079465 1_655
Fe5 O25 2.315800 1_655
Fe6 O38 1.897429 1_555
Fe6 O34 1.918994 1_555
Fe6 O42 2.014741 1_555
Fe6 O22 2.017794 1_555
Fe6 O30 2.079465 1_555
Fe6 O26 2.315800 1_555
Fe7 O39 1.897429 1_555
Fe7 O35 1.918994 1_555
Fe7 O43 2.014741 1_555
Fe7 O23 2.017794 1_455
Fe7 O31 2.079465 1_455
Fe7 O27 2.315800 1_455
Fe8 O44 1.943889 1_555
Fe8 O52 1.959316 1_555
Fe8 O48 1.983254 1_555
Fe8 O25 2.040789 1_555
Fe8 O21 2.176909 1_555
Fe8 O29 2.181816 1_555
Fe9 O45 1.943889 1_655
Fe9 O53 1.959316 1_655
Fe9 O49 1.983254 1_655
Fe9 O24 2.040789 1_555
Fe9 O20 2.176909 1_555
Fe9 O28 2.181816 1_555
Fe10 O46 1.943889 1_555
Fe10 O54 1.959316 1_555
Fe10 O50 1.983254 1_555
Fe10 O27 2.040789 1_555
Fe10 O23 2.176909 1_555
Fe10 O31 2.181816 1_555
Fe11 O47 1.943889 1_455
Fe11 O55 1.959316 1_455
Fe11 O51 1.983254 1_455
Fe11 O26 2.040789 1_555
Fe11 O22 2.176909 1_555
Fe11 O30 2.181816 1_555
H0 O56 1.014923 1_555
H0 O6 1.612173 1_655
H1 O57 1.014923 1_555
H1 O7 1.612173 1_555
H2 O58 1.014923 1_555
H2 O4 1.612173 1_455
H3 O59 1.014923 1_555
H3 O5 1.612173 1_555
O0 P14 1.555529 1_555
O0 Sr2 2.785101 1_555
O1 P15 1.555529 1_555
O1 Sr3 2.785101 1_555
O2 P12 1.555529 1_555
O2 Sr0 2.785101 1_555
O3 P13 1.555529 1_555
O3 Sr1 2.785101 1_555
O4 P12 1.580788 1_555
O5 P13 1.580788 1_555
O6 P14 1.580788 1_555
O7 P15 1.580788 1_555
O8 P8 1.563627 1_555
O8 Sr2 2.614656 1_555
O9 P9 1.563627 1_555
O9 Sr3 2.614656 1_455
O10 P10 1.563627 1_555
O10 Sr0 2.614656 1_555
O11 P11 1.563627 1_555
O11 Sr1 2.614656 1_655
O12 P4 1.568087 1_555
O12 Sr2 2.780058 1_555
O13 P5 1.568087 1_555
O13 Sr3 2.780058 1_555
O14 P6 1.568087 1_555
O14 Sr0 2.780058 1_555
O15 P7 1.568087 1_555
O15 Sr1 2.780058 1_555
O16 P0 1.541072 1_565
O16 Sr2 2.653091 1_555
O17 P1 1.541072 1_545
O17 Sr3 2.653091 1_455
O18 P2 1.541072 1_545
O18 Sr0 2.653091 1_555
O19 P3 1.541072 1_565
O19 Sr1 2.653091 1_655
O20 P8 1.558781 1_555
O21 P9 1.558781 1_555
O22 P10 1.558781 1_555
O23 P11 1.558781 1_555
O24 P15 1.554037 1_555
O25 P14 1.554037 1_555
O26 P13 1.554037 1_555
O27 P12 1.554037 1_555
O28 P5 1.559486 1_565
O29 P4 1.559486 1_545
O30 P7 1.559486 1_545
O31 P6 1.559486 1_565
O32 P1 1.526359 1_555
O33 P0 1.526359 1_555
O34 P3 1.526359 1_555
O35 P2 1.526359 1_555
O36 P9 1.517548 1_555
O37 P8 1.517548 1_555
O38 P11 1.517548 1_555
O39 P10 1.517548 1_555
O40 P4 1.558515 1_555
O40 Sr2 2.796446 1_555
O41 P5 1.558515 1_555
O41 Sr3 2.796446 1_555
O42 P6 1.558515 1_555
O42 Sr0 2.796446 1_555
O43 P7 1.558515 1_555
O43 Sr1 2.796446 1_555
O44 P5 1.528409 1_555
O45 P4 1.528409 1_555
O46 P7 1.528409 1_555
O47 P6 1.528409 1_555
O48 P0 1.537768 1_555
O49 P1 1.537768 1_555
O50 P2 1.537768 1_555
O51 P3 1.537768 1_555
O52 P8 1.537693 1_555
O53 P9 1.537693 1_555
O54 P10 1.537693 1_555
O55 P11 1.537693 1_555
O56 P0 1.607913 1_555
O56 Sr0 2.732052 1_556
O57 P1 1.607913 1_555
O57 Sr1 2.732052 1_555
O58 P2 1.607913 1_555
O58 Sr2 2.732052 1_554
O59 P3 1.607913 1_555
O59 Sr3 2.732052 1_555
O60 P12 1.527662 1_555
O60 Sr2 2.503964 1_554
O60 Sr0 2.645779 1_555
O61 P13 1.527662 1_555
O61 Sr3 2.503964 1_455
O61 Sr1 2.645779 1_555
O62 P14 1.527662 1_555
O62 Sr0 2.503964 1_556
O62 Sr2 2.645779 1_555
O63 P15 1.527662 1_555
O63 Sr1 2.503964 1_655
O63 Sr3 2.645779 1_555
