# generated using pymatgen
data_MnO2
_symmetry_space_group_name_H-M   'P 1'
_cell_length_a   5.84821856
_cell_length_b   5.84821856
_cell_length_c   28.63843200
_cell_angle_alpha   90.00000000
_cell_angle_beta   90.00000000
_cell_angle_gamma   120.00000632
_symmetry_Int_Tables_number   1
_chemical_formula_structural   MnO2
_chemical_formula_sum   'Mn24 O48'
_cell_volume   848.25617391
_cell_formula_units_Z   24
loop_
 _symmetry_equiv_pos_site_id
 _symmetry_equiv_pos_as_xyz
  1  'x, y, z'
loop_
 _atom_site_type_symbol
 _atom_site_label
 _atom_site_symmetry_multiplicity
 _atom_site_fract_x
 _atom_site_fract_y
 _atom_site_fract_z
 _atom_site_occupancy
  Mn  Mn0  1  0.00942800  0.50471400  0.08309200  1
  Mn  Mn1  1  0.49528600  0.50471400  0.08309200  1
  Mn  Mn2  1  0.49528600  0.99057200  0.08309200  1
  Mn  Mn3  1  0.34094200  0.17047100  0.24931400  1
  Mn  Mn4  1  0.82952900  0.17047100  0.24931400  1
  Mn  Mn5  1  0.82952900  0.65905800  0.24931400  1
  Mn  Mn6  1  0.66700800  0.83350400  0.41636200  1
  Mn  Mn7  1  0.00000000  0.00000000  0.14205100  1
  Mn  Mn8  1  0.00000000  0.00000000  0.33234500  1
  Mn  Mn9  1  0.16649600  0.83350400  0.41636200  1
  Mn  Mn10  1  0.00019600  0.50009800  0.58322200  1
  Mn  Mn11  1  0.16649600  0.33299200  0.41636200  1
  Mn  Mn12  1  0.49990200  0.50009800  0.58322200  1
  Mn  Mn13  1  0.33333300  0.66666700  0.49972900  1
  Mn  Mn14  1  0.33348400  0.16674200  0.74992600  1
  Mn  Mn15  1  0.49990200  0.99980400  0.58322200  1
  Mn  Mn16  1  0.66666700  0.33333300  0.66647800  1
  Mn  Mn17  1  0.83325800  0.16674200  0.74992600  1
  Mn  Mn18  1  0.83325800  0.66651600  0.74992600  1
  Mn  Mn19  1  0.66618500  0.83309200  0.91670300  1
  Mn  Mn20  1  0.16690800  0.83309200  0.91670300  1
  Mn  Mn21  1  0.00000000  0.00000000  0.83323500  1
  Mn  Mn22  1  0.16690800  0.33381500  0.91670300  1
  Mn  Mn23  1  0.66666700  0.33333300  0.97790000  1
  O  O0  1  0.18028900  0.36057700  0.04947200  1
  O  O1  1  0.18028900  0.81971100  0.04947200  1
  O  O2  1  0.33333300  0.66666700  0.11871500  1
  O  O3  1  0.63942300  0.81971100  0.04947200  1
  O  O4  1  0.35617800  0.17808900  0.12033300  1
  O  O5  1  0.51029200  0.02058500  0.21632700  1
  O  O6  1  0.66666700  0.33333300  0.04861600  1
  O  O7  1  0.51029200  0.48970800  0.21632700  1
  O  O8  1  0.66666700  0.33333300  0.28451500  1
  O  O9  1  0.82191100  0.17808900  0.12033300  1
  O  O10  1  0.97941500  0.48970800  0.21632700  1
  O  O11  1  0.82191100  0.64382200  0.12033300  1
  O  O12  1  0.85382800  0.70765700  0.37735000  1
  O  O13  1  0.71012400  0.85506200  0.28832200  1
  O  O14  1  0.00000000  0.00000000  0.45046300  1
  O  O15  1  0.00000000  0.00000000  0.21257900  1
  O  O16  1  0.85382800  0.14617200  0.37735000  1
  O  O17  1  0.14493800  0.85506200  0.28832200  1
  O  O18  1  0.29234300  0.14617200  0.37735000  1
  O  O19  1  0.14493800  0.28987600  0.28832200  1
  O  O20  1  0.04136500  0.52068200  0.45569500  1
  O  O21  1  0.18712400  0.37424800  0.54424200  1
  O  O22  1  0.33333300  0.66666700  0.38241500  1
  O  O23  1  0.33333300  0.66666700  0.61729200  1
  O  O24  1  0.18712400  0.81287600  0.54424200  1
  O  O25  1  0.47931800  0.52068200  0.45569500  1
  O  O26  1  0.62575200  0.81287600  0.54424200  1
  O  O27  1  0.47931800  0.95863500  0.45569500  1
  O  O28  1  0.37460600  0.18730300  0.62247500  1
  O  O29  1  0.52046900  0.04093800  0.71093700  1
  O  O30  1  0.66666700  0.33333300  0.54924800  1
  O  O31  1  0.81269700  0.18730300  0.62247500  1
  O  O32  1  0.52046900  0.47953100  0.71093700  1
  O  O33  1  0.66666700  0.33333300  0.78399000  1
  O  O34  1  0.81269700  0.62539400  0.62247500  1
  O  O35  1  0.95906200  0.47953100  0.71093700  1
  O  O36  1  0.85401200  0.70802400  0.87761200  1
  O  O37  1  0.70791400  0.85395700  0.78917500  1
  O  O38  1  0.00000000  0.00000000  0.95124400  1
  O  O39  1  0.00000000  0.00000000  0.71594900  1
  O  O40  1  0.14604300  0.85395700  0.78917500  1
  O  O41  1  0.85401200  0.14598800  0.87761200  1
  O  O42  1  0.14604300  0.29208600  0.78917500  1
  O  O43  1  0.29197600  0.14598800  0.87761200  1
  O  O44  1  0.02254400  0.51127200  0.95225800  1
  O  O45  1  0.48872800  0.51127200  0.95225800  1
  O  O46  1  0.33333300  0.66666700  0.88312000  1
  O  O47  1  0.48872800  0.97745600  0.95225800  1
loop_
_geom_bond_atom_site_label_1
_geom_bond_atom_site_label_2
_geom_bond_distance
_geom_bond_site_symmetry_2
Mn0 O1 1.865029 1_555
Mn0 O0 1.865033 1_555
Mn0 O2 1.931830 1_555
Mn0 O9 1.973344 1_455
Mn0 O11 1.973344 1_455
Mn0 O6 1.997117 1_455
Mn1 O0 1.865029 1_555
Mn1 O3 1.865029 1_555
Mn1 O2 1.931834 1_555
Mn1 O11 1.973344 1_555
Mn1 O4 1.973344 1_555
Mn1 O6 1.997122 1_555
Mn2 O1 1.865029 1_555
Mn2 O3 1.865033 1_555
Mn2 O2 1.931830 1_555
Mn2 O9 1.973344 1_565
Mn2 O4 1.973344 1_565
Mn2 O6 1.997117 1_565
Mn3 O5 1.873459 1_555
Mn3 O7 1.873464 1_555
Mn3 O8 1.933335 1_555
Mn3 O17 1.962142 1_545
Mn3 O19 1.962142 1_555
Mn3 O15 2.022007 1_555
Mn4 O5 1.873464 1_555
Mn4 O10 1.873464 1_555
Mn4 O8 1.933330 1_555
Mn4 O19 1.962142 1_655
Mn4 O13 1.962142 1_545
Mn4 O15 2.022007 1_655
Mn5 O10 1.873459 1_555
Mn5 O7 1.873464 1_555
Mn5 O8 1.933335 1_555
Mn5 O17 1.962142 1_655
Mn5 O13 1.962142 1_555
Mn5 O15 2.022007 1_665
Mn6 O12 1.946202 1_555
Mn6 O16 1.946206 1_565
Mn6 O14 1.948859 1_665
Mn6 O22 1.949650 1_555
Mn6 O27 1.952556 1_555
Mn6 O25 1.952559 1_555
Mn7 O11 1.908149 1_445
Mn7 O4 1.908149 1_555
Mn7 O9 1.908149 1_455
Mn7 O15 2.019811 1_555
Mn8 O19 1.935178 1_555
Mn8 O13 1.935178 1_445
Mn8 O17 1.935178 1_545
Mn8 O18 1.963024 1_555
Mn8 O12 1.963024 1_445
Mn8 O16 1.963027 1_455
Mn9 O18 1.946206 1_565
Mn9 O12 1.946206 1_455
Mn9 O14 1.948859 1_565
Mn9 O22 1.949646 1_555
Mn9 O20 1.952560 1_555
Mn9 O27 1.952560 1_555
Mn10 O24 1.946161 1_555
Mn10 O21 1.946162 1_555
Mn10 O23 1.949050 1_555
Mn10 O30 1.949395 1_455
Mn10 O31 1.951030 1_455
Mn10 O34 1.951031 1_455
Mn11 O18 1.946202 1_555
Mn11 O16 1.946206 1_455
Mn11 O14 1.948859 1_555
Mn11 O22 1.949650 1_555
Mn11 O20 1.952556 1_555
Mn11 O25 1.952559 1_555
Mn12 O26 1.946161 1_555
Mn12 O21 1.946161 1_555
Mn12 O23 1.949054 1_555
Mn12 O30 1.949399 1_555
Mn12 O34 1.951030 1_555
Mn12 O28 1.951030 1_555
Mn13 O27 1.943433 1_555
Mn13 O20 1.943433 1_555
Mn13 O25 1.943441 1_555
Mn13 O24 1.954089 1_555
Mn13 O21 1.954093 1_555
Mn13 O26 1.954093 1_555
Mn14 O32 1.946382 1_555
Mn14 O29 1.946382 1_555
Mn14 O33 1.949165 1_555
Mn14 O39 1.949240 1_555
Mn14 O40 1.950894 1_545
Mn14 O42 1.950895 1_555
Mn15 O24 1.946161 1_555
Mn15 O26 1.946162 1_555
Mn15 O23 1.949050 1_555
Mn15 O30 1.949395 1_565
Mn15 O31 1.951030 1_565
Mn15 O28 1.951031 1_565
Mn16 O31 1.943212 1_555
Mn16 O28 1.943216 1_555
Mn16 O34 1.943216 1_555
Mn16 O35 1.952992 1_555
Mn16 O29 1.952992 1_555
Mn16 O32 1.952996 1_555
Mn17 O35 1.946382 1_555
Mn17 O29 1.946382 1_555
Mn17 O33 1.949161 1_555
Mn17 O39 1.949240 1_655
Mn17 O42 1.950894 1_655
Mn17 O37 1.950894 1_545
Mn18 O32 1.946382 1_555
Mn18 O35 1.946382 1_555
Mn18 O33 1.949165 1_555
Mn18 O39 1.949240 1_665
Mn18 O40 1.950894 1_655
Mn18 O37 1.950895 1_555
Mn19 O45 1.924273 1_555
Mn19 O47 1.924277 1_555
Mn19 O46 1.940851 1_555
Mn19 O36 1.948925 1_555
Mn19 O41 1.948929 1_565
Mn19 O38 1.958800 1_665
Mn20 O47 1.924273 1_555
Mn20 O44 1.924273 1_555
Mn20 O46 1.940843 1_555
Mn20 O43 1.948930 1_565
Mn20 O36 1.948930 1_455
Mn20 O38 1.958805 1_565
Mn21 O37 1.944371 1_445
Mn21 O42 1.944371 1_555
Mn21 O40 1.944371 1_545
Mn21 O43 1.949852 1_555
Mn21 O36 1.949852 1_445
Mn21 O41 1.949852 1_455
Mn22 O45 1.924273 1_555
Mn22 O44 1.924277 1_555
Mn22 O46 1.940851 1_555
Mn22 O43 1.948925 1_555
Mn22 O41 1.948929 1_455
Mn22 O38 1.958800 1_555
Mn23 O44 1.946267 1_655
Mn23 O47 1.946267 1_545
Mn23 O45 1.946272 1_555
Mn23 O6 2.025195 1_556
