# generated using pymatgen
data_LiCuF4
_symmetry_space_group_name_H-M   'P 1'
_cell_length_a   10.19683924
_cell_length_b   7.27337836
_cell_length_c   7.43919354
_cell_angle_alpha   89.96466047
_cell_angle_beta   90.02586276
_cell_angle_gamma   90.21597438
_symmetry_Int_Tables_number   1
_chemical_formula_structural   LiCuF4
_chemical_formula_sum   'Li8 Cu8 F32'
_cell_volume   551.72720386
_cell_formula_units_Z   8
loop_
 _symmetry_equiv_pos_site_id
 _symmetry_equiv_pos_as_xyz
  1  'x, y, z'
loop_
 _atom_site_type_symbol
 _atom_site_label
 _atom_site_symmetry_multiplicity
 _atom_site_fract_x
 _atom_site_fract_y
 _atom_site_fract_z
 _atom_site_occupancy
  Li  Li0  1  0.02049500  0.75018700  0.37413800  1
  Li  Li1  1  0.02999200  0.74992800  0.90112400  1
  Li  Li2  1  0.47004400  0.24974900  0.40064700  1
  Li  Li3  1  0.47946700  0.25002700  0.87455500  1
  Li  Li4  1  0.52046400  0.75011700  0.12562800  1
  Li  Li5  1  0.53000900  0.75052100  0.59919000  1
  Li  Li6  1  0.97008500  0.24991200  0.09907700  1
  Li  Li7  1  0.97947400  0.24946500  0.62569000  1
  Cu  Cu0  1  0.24759800  0.00113100  0.12354600  1
  Cu  Cu1  1  0.24781400  0.49880200  0.12348700  1
  Cu  Cu2  1  0.25216400  0.99873600  0.62350300  1
  Cu  Cu3  1  0.25253300  0.50110600  0.62348900  1
  Cu  Cu4  1  0.74777600  0.00120800  0.37646600  1
  Cu  Cu5  1  0.74766600  0.49882200  0.37649200  1
  Cu  Cu6  1  0.75204200  0.50124600  0.87643400  1
  Cu  Cu7  1  0.75223200  0.99876300  0.87650100  1
  F  F0  1  0.07441500  0.57857900  0.14115200  1
  F  F1  1  0.07398400  0.92096300  0.14139900  1
  F  F2  1  0.08204300  0.57999000  0.60141700  1
  F  F3  1  0.08194300  0.91995300  0.60166700  1
  F  F4  1  0.17275600  0.25066100  0.09283600  1
  F  F5  1  0.18081300  0.25053200  0.65441500  1
  F  F6  1  0.23734500  0.95387200  0.87352200  1
  F  F7  1  0.23743300  0.54615800  0.87378100  1
  F  F8  1  0.26264500  0.04622400  0.37326500  1
  F  F9  1  0.26264800  0.45392400  0.37298100  1
  F  F10  1  0.31912000  0.74938700  0.15435800  1
  F  F11  1  0.32728200  0.74946200  0.59282000  1
  F  F12  1  0.41814200  0.08024300  0.10156900  1
  F  F13  1  0.41760200  0.42036000  0.10184700  1
  F  F14  1  0.42602900  0.07889200  0.64131800  1
  F  F15  1  0.42567800  0.42120000  0.64149500  1
  F  F16  1  0.57429200  0.57882300  0.35857500  1
  F  F17  1  0.57393600  0.92116300  0.35876700  1
  F  F18  1  0.58233500  0.57982100  0.89819600  1
  F  F19  1  0.58197500  0.92001200  0.89839800  1
  F  F20  1  0.67273400  0.25086000  0.40718000  1
  F  F21  1  0.68093500  0.25078000  0.84557300  1
  F  F22  1  0.73742600  0.54604300  0.62695300  1
  F  F23  1  0.73734800  0.95374300  0.62700400  1
  F  F24  1  0.76271200  0.04623500  0.12625700  1
  F  F25  1  0.76255900  0.45392000  0.12634100  1
  F  F26  1  0.81918300  0.74910400  0.34560200  1
  F  F27  1  0.82716300  0.74917300  0.90715600  1
  F  F28  1  0.91816900  0.08003800  0.39834800  1
  F  F29  1  0.91783500  0.42004500  0.39854500  1
  F  F30  1  0.92592800  0.07887300  0.85858600  1
  F  F31  1  0.92574100  0.42124500  0.85871300  1
loop_
_geom_bond_atom_site_label_1
_geom_bond_atom_site_label_2
_geom_bond_distance
_geom_bond_site_symmetry_2
Cu0 F12 1.837003 1_555
Cu0 F1 1.866543 1_545
Cu0 F8 1.892698 1_555
Cu0 F6 1.894449 1_544
Cu0 F4 1.984521 1_555
Cu0 F10 1.986576 1_545
Cu1 F13 1.832115 1_555
Cu1 F0 1.867686 1_555
Cu1 F9 1.890413 1_555
Cu1 F7 1.892054 1_554
Cu1 F4 1.971062 1_555
Cu1 F10 1.973234 1_555
Cu2 F3 1.832979 1_555
Cu2 F14 1.868858 1_565
Cu2 F6 1.894155 1_555
Cu2 F8 1.896119 1_565
Cu2 F11 1.984224 1_555
Cu2 F5 1.986703 1_565
Cu3 F2 1.839984 1_555
Cu3 F15 1.865543 1_555
Cu3 F7 1.897211 1_555
Cu3 F9 1.898040 1_555
Cu3 F11 1.971119 1_555
Cu3 F5 1.974568 1_555
Cu4 F28 1.834773 1_555
Cu4 F17 1.868307 1_545
Cu4 F24 1.895841 1_555
Cu4 F23 1.898250 1_545
Cu4 F20 1.986466 1_555
Cu4 F26 1.988941 1_545
Cu5 F29 1.836629 1_555
Cu5 F16 1.867926 1_555
Cu5 F25 1.895819 1_555
Cu5 F22 1.897819 1_555
Cu5 F20 1.969231 1_555
Cu5 F26 1.971820 1_555
Cu6 F18 1.831719 1_555
Cu6 F31 1.871127 1_555
Cu6 F22 1.890039 1_555
Cu6 F25 1.893561 1_556
Cu6 F27 1.969947 1_555
Cu6 F21 1.971687 1_555
Cu7 F19 1.833370 1_555
Cu7 F30 1.867238 1_565
Cu7 F23 1.890852 1_555
Cu7 F24 1.892901 1_566
Cu7 F27 1.985226 1_555
Cu7 F21 1.987660 1_565
F0 Li0 2.207488 1_555
F0 Li1 2.224324 1_554
F1 Li0 2.197987 1_555
F1 Li1 2.222963 1_554
F2 Li0 2.187994 1_555
F3 Li0 2.185875 1_555
F4 Li6 2.067133 1_455
F5 Li7 2.064003 1_455
F10 Li4 2.064250 1_555
F11 Li5 2.067682 1_555
F12 Li3 2.181885 1_554
F13 Li3 2.191183 1_554
F14 Li3 2.203070 1_555
F14 Li2 2.223749 1_555
F15 Li3 2.204197 1_555
F15 Li2 2.231081 1_555
F16 Li4 2.204133 1_555
F16 Li5 2.230522 1_555
F17 Li4 2.202216 1_555
F17 Li5 2.221212 1_555
F18 Li4 2.191853 1_556
F19 Li4 2.184124 1_556
F20 Li2 2.067332 1_555
F21 Li3 2.065703 1_555
F26 Li0 2.063584 1_655
F27 Li1 2.068708 1_655
F28 Li7 2.182993 1_555
F29 Li7 2.189072 1_555
F30 Li7 2.198296 1_555
F30 Li6 2.224607 1_556
F31 Li7 2.207935 1_555
F31 Li6 2.226099 1_556
