# generated using pymatgen
data_La2S2O
_symmetry_space_group_name_H-M   'P 1'
_cell_length_a   7.33158484
_cell_length_b   7.19436533
_cell_length_c   8.70453659
_cell_angle_alpha   81.95410656
_cell_angle_beta   90.00000000
_cell_angle_gamma   90.00000000
_symmetry_Int_Tables_number   1
_chemical_formula_structural   La2S2O
_chemical_formula_sum   'La8 S8 O4'
_cell_volume   454.61080245
_cell_formula_units_Z   4
loop_
 _symmetry_equiv_pos_site_id
 _symmetry_equiv_pos_as_xyz
  1  'x, y, z'
loop_
 _atom_site_type_symbol
 _atom_site_label
 _atom_site_symmetry_multiplicity
 _atom_site_fract_x
 _atom_site_fract_y
 _atom_site_fract_z
 _atom_site_occupancy
  La  La0  1  0.44431858  0.24733744  0.13968478  1
  La  La1  1  0.05568142  0.74733744  0.13968478  1
  La  La2  1  0.86985249  0.30970756  0.41676038  1
  La  La3  1  0.63014751  0.80970756  0.41676038  1
  La  La4  1  0.36985249  0.19029244  0.58323962  1
  La  La5  1  0.13014751  0.69029244  0.58323962  1
  La  La6  1  0.94431858  0.25266256  0.86031522  1
  La  La7  1  0.55568142  0.75266256  0.86031522  1
  S  S0  1  0.77283304  0.47310178  0.07878429  1
  S  S1  1  0.72716696  0.97310178  0.07878429  1
  S  S2  1  0.15278067  0.05329398  0.32873800  1
  S  S3  1  0.34721933  0.55329398  0.32873800  1
  S  S4  1  0.65278067  0.44670602  0.67126200  1
  S  S5  1  0.84721933  0.94670602  0.67126200  1
  S  S6  1  0.27283304  0.02689822  0.92121571  1
  S  S7  1  0.22716696  0.52689822  0.92121571  1
  O  O0  1  0.58813501  0.15008723  0.38308108  1
  O  O1  1  0.91186499  0.65008723  0.38308108  1
  O  O2  1  0.08813501  0.34991277  0.61691892  1
  O  O3  1  0.41186499  0.84991277  0.61691892  1
loop_
_geom_bond_atom_site_label_1
_geom_bond_atom_site_label_2
_geom_bond_distance
_geom_bond_site_symmetry_2
La0 O0 2.382229 1_555
La0 S0 2.911896 1_555
La0 S6 2.925141 1_554
La0 S2 2.929586 1_555
La0 S1 2.960857 1_545
La0 S3 3.012303 1_555
La0 S7 3.020849 1_554
La1 O1 2.382229 1_455
La1 S1 2.911896 1_455
La1 S7 2.925141 1_554
La1 S3 2.929586 1_555
La1 S0 2.960857 1_455
La1 S2 3.012303 1_565
La1 S6 3.020849 1_564
La2 O0 2.401032 1_555
La2 O2 2.412768 1_655
La2 O1 2.444699 1_555
La2 S2 2.947631 1_655
La2 S4 3.003849 1_555
La2 S0 3.094291 1_555
La2 S5 3.183695 1_545
La3 O1 2.401032 1_555
La3 O3 2.412768 1_555
La3 O0 2.444699 1_565
La3 S3 2.947631 1_555
La3 S5 3.003849 1_555
La3 S1 3.094291 1_555
La3 S4 3.183695 1_555
La4 O2 2.401032 1_555
La4 O0 2.412768 1_555
La4 O3 2.444699 1_545
La4 S4 2.947631 1_555
La4 S2 3.003849 1_555
La4 S6 3.094291 1_555
La4 S3 3.183695 1_555
La5 O3 2.401032 1_555
La5 O1 2.412768 1_455
La5 O2 2.444699 1_555
La5 S5 2.947631 1_455
La5 S3 3.003849 1_555
La5 S7 3.094291 1_555
La5 S2 3.183695 1_565
La6 O2 2.382229 1_655
La6 S6 2.911896 1_655
La6 S0 2.925141 1_556
La6 S4 2.929586 1_555
La6 S7 2.960857 1_655
La6 S5 3.012303 1_545
La6 S1 3.020849 1_546
La7 O3 2.382229 1_555
La7 S7 2.911896 1_555
La7 S1 2.925141 1_556
La7 S5 2.929586 1_555
La7 S6 2.960857 1_565
La7 S4 3.012303 1_555
La7 S0 3.020849 1_556
