# generated using pymatgen
data_NaBeSi3O8
_symmetry_space_group_name_H-M   'P 1'
_cell_length_a   7.76049876
_cell_length_b   7.76049876
_cell_length_c   13.11503349
_cell_angle_alpha   78.19670249
_cell_angle_beta   78.19670249
_cell_angle_gamma   66.25106079
_symmetry_Int_Tables_number   1
_chemical_formula_structural   NaBeSi3O8
_chemical_formula_sum   'Na4 Be4 Si12 O32'
_cell_volume   701.07446587
_cell_formula_units_Z   4
loop_
 _symmetry_equiv_pos_site_id
 _symmetry_equiv_pos_as_xyz
  1  'x, y, z'
loop_
 _atom_site_type_symbol
 _atom_site_label
 _atom_site_symmetry_multiplicity
 _atom_site_fract_x
 _atom_site_fract_y
 _atom_site_fract_z
 _atom_site_occupancy
  Na  Na0  1  0.88248300  0.11751700  0.25000000  1
  Na  Na1  1  0.11751700  0.88248300  0.75000000  1
  Na  Na2  1  0.40292700  0.59707300  0.25000000  1
  Na  Na3  1  0.59707300  0.40292700  0.75000000  1
  Be  Be0  1  0.40198200  0.46802900  0.06735800  1
  Be  Be1  1  0.53197100  0.59801800  0.43264200  1
  Be  Be2  1  0.59801800  0.53197100  0.93264200  1
  Be  Be3  1  0.46802900  0.40198200  0.56735800  1
  Si  Si0  1  0.82083700  0.40479100  0.11733200  1
  Si  Si1  1  0.59520900  0.17916300  0.38266800  1
  Si  Si2  1  0.17916300  0.59520900  0.88266800  1
  Si  Si3  1  0.40479100  0.82083700  0.61733200  1
  Si  Si4  1  0.19912900  0.05391900  0.19055800  1
  Si  Si5  1  0.94608100  0.80087100  0.30944200  1
  Si  Si6  1  0.80087100  0.94608100  0.80944200  1
  Si  Si7  1  0.05391900  0.19912900  0.69055800  1
  Si  Si8  1  0.08630000  0.43361600  0.23943500  1
  Si  Si9  1  0.56638400  0.91370000  0.26056500  1
  Si  Si10  1  0.91370000  0.56638400  0.76056500  1
  Si  Si11  1  0.43361600  0.08630000  0.73943500  1
  O  O0  1  0.03902300  0.17714000  0.10852900  1
  O  O1  1  0.82286000  0.96097700  0.39147100  1
  O  O2  1  0.96097700  0.82286000  0.89147100  1
  O  O3  1  0.17714000  0.03902300  0.60852900  1
  O  O4  1  0.61862300  0.46187400  0.05590500  1
  O  O5  1  0.53812600  0.38137700  0.44409500  1
  O  O6  1  0.38137700  0.53812600  0.94409500  1
  O  O7  1  0.46187400  0.61862300  0.55590500  1
  O  O8  1  0.65621400  0.34378600  0.25000000  1
  O  O9  1  0.34378600  0.65621400  0.75000000  1
  O  O10  1  0.13635100  0.86364900  0.25000000  1
  O  O11  1  0.86364900  0.13635100  0.75000000  1
  O  O12  1  0.13393000  0.20273700  0.27955700  1
  O  O13  1  0.79726300  0.86607000  0.22044300  1
  O  O14  1  0.86607000  0.79726300  0.72044300  1
  O  O15  1  0.20273700  0.13393000  0.77955700  1
  O  O16  1  0.53899300  0.72966600  0.33327100  1
  O  O17  1  0.27033400  0.46100700  0.16672900  1
  O  O18  1  0.46100700  0.27033400  0.66672900  1
  O  O19  1  0.72966600  0.53899300  0.83327100  1
  O  O20  1  0.88790300  0.51017400  0.19138200  1
  O  O21  1  0.48982600  0.11209700  0.30861800  1
  O  O22  1  0.11209700  0.48982600  0.80861800  1
  O  O23  1  0.51017400  0.88790300  0.69138200  1
  O  O24  1  0.43117700  0.96352200  0.16300800  1
  O  O25  1  0.03647700  0.56882300  0.33699200  1
  O  O26  1  0.56882300  0.03647700  0.83699200  1
  O  O27  1  0.96352200  0.43117700  0.66300800  1
  O  O28  1  0.09607900  0.49438900  0.00094100  1
  O  O29  1  0.50561100  0.90392100  0.49905900  1
  O  O30  1  0.90392100  0.50561100  0.99905900  1
  O  O31  1  0.49438900  0.09607900  0.50094100  1
loop_
_geom_bond_atom_site_label_1
_geom_bond_atom_site_label_2
_geom_bond_distance
_geom_bond_site_symmetry_2
Na0 O8 1.919177 1_555
Na0 O1 2.076492 1_545
Na0 O0 2.076492 1_655
Na0 O10 2.153268 1_645
Na0 O13 2.418520 1_545
Na0 O12 2.418520 1_655
Na1 O9 1.919177 1_555
Na1 O2 2.076492 1_455
Na1 O3 2.076492 1_565
Na1 O11 2.153268 1_465
Na1 O14 2.418520 1_455
Na1 O15 2.418520 1_565
Na2 O8 2.148340 1_555
Na2 O10 2.261055 1_555
Na2 O16 2.274466 1_555
Na2 O17 2.274466 1_555
Na3 O9 2.148340 1_555
Na3 O11 2.261055 1_555
Na3 O19 2.274466 1_555
Na3 O18 2.274466 1_555
Be0 O17 1.488722 1_555
Be0 O6 1.615798 1_554
Be0 O4 1.639011 1_555
Be1 O16 1.488722 1_555
Be1 O7 1.615798 1_555
Be1 O5 1.639011 1_555
Be2 O19 1.488722 1_555
Be2 O4 1.615798 1_556
Be2 O6 1.639011 1_555
Be3 O18 1.488722 1_555
Be3 O5 1.615798 1_555
Be3 O7 1.639011 1_555
O0 Si4 1.668708 1_555
O0 Si0 1.896194 1_455
O1 Si5 1.668708 1_555
O1 Si1 1.896194 1_565
O2 Si6 1.668708 1_555
O2 Si2 1.896194 1_655
O3 Si7 1.668708 1_555
O3 Si3 1.896194 1_545
O4 Si0 1.766117 1_555
O5 Si1 1.766117 1_555
O6 Si2 1.766117 1_555
O7 Si3 1.766117 1_555
O8 Si1 2.030881 1_555
O8 Si0 2.030881 1_555
O9 Si3 2.030881 1_555
O9 Si2 2.030881 1_555
O10 Si4 1.725845 1_565
O10 Si5 1.725845 1_455
O11 Si7 1.725845 1_655
O11 Si6 1.725845 1_545
O12 Si8 1.668608 1_555
O12 Si4 1.670756 1_555
O13 Si9 1.668608 1_555
O13 Si5 1.670756 1_555
O14 Si10 1.668608 1_555
O14 Si6 1.670756 1_555
O15 Si11 1.668608 1_555
O15 Si7 1.670756 1_555
O16 Si9 1.612029 1_555
O17 Si8 1.612029 1_555
O18 Si11 1.612029 1_555
O19 Si10 1.612029 1_555
O20 Si8 1.621017 1_655
O20 Si0 1.660557 1_555
O21 Si9 1.621017 1_545
O21 Si1 1.660557 1_555
O22 Si10 1.621017 1_455
O22 Si2 1.660557 1_555
O23 Si11 1.621017 1_565
O23 Si3 1.660557 1_555
O24 Si4 1.638768 1_565
O24 Si9 1.705159 1_555
O25 Si5 1.638767 1_455
O25 Si8 1.705158 1_555
O26 Si6 1.638767 1_545
O26 Si11 1.705158 1_555
O27 Si7 1.638768 1_655
O27 Si10 1.705159 1_555
O28 O30 1.463410 1_454
O28 Si2 1.713082 1_554
O29 O31 1.463410 1_565
O29 Si3 1.713082 1_555
O30 Si0 1.713082 1_556
O31 Si1 1.713082 1_555
