# generated using pymatgen
data_MnV3Sb2(PO4)6
_symmetry_space_group_name_H-M   'P 1'
_cell_length_a   8.88241030
_cell_length_b   8.88241030
_cell_length_c   8.88240957
_cell_angle_alpha   58.91805739
_cell_angle_beta   58.91805739
_cell_angle_gamma   58.91806081
_symmetry_Int_Tables_number   1
_chemical_formula_structural   MnV3Sb2(PO4)6
_chemical_formula_sum   'Mn1 V3 Sb2 P6 O24'
_cell_volume   483.30303990
_cell_formula_units_Z   1
loop_
 _symmetry_equiv_pos_site_id
 _symmetry_equiv_pos_as_xyz
  1  'x, y, z'
loop_
 _atom_site_type_symbol
 _atom_site_label
 _atom_site_symmetry_multiplicity
 _atom_site_fract_x
 _atom_site_fract_y
 _atom_site_fract_z
 _atom_site_occupancy
  Mn  Mn0  1  0.85002500  0.85002500  0.85002500  1
  V  V0  1  0.35181200  0.35181200  0.35181200  1
  V  V1  1  0.14551500  0.14551500  0.14551500  1
  V  V2  1  0.64728100  0.64728100  0.64728100  1
  Sb  Sb0  1  0.99538700  0.99538700  0.99538700  1
  Sb  Sb1  1  0.49738700  0.49738700  0.49738700  1
  P  P0  1  0.45590600  0.75031000  0.04305100  1
  P  P1  1  0.75031000  0.04305100  0.45590600  1
  P  P2  1  0.04305100  0.45590600  0.75031000  1
  P  P3  1  0.96105500  0.53740700  0.25398500  1
  P  P4  1  0.25398500  0.96105500  0.53740700  1
  P  P5  1  0.53740700  0.25398500  0.96105500  1
  O  O0  1  0.69827000  0.88409300  0.49215200  1
  O  O1  1  0.88409300  0.49215200  0.69827000  1
  O  O2  1  0.49215200  0.69827000  0.88409300  1
  O  O3  1  0.26281300  0.91344900  0.06543300  1
  O  O4  1  0.60602900  0.79727100  0.02433000  1
  O  O5  1  0.42997000  0.57986400  0.23592400  1
  O  O6  1  0.91344900  0.06543300  0.26281300  1
  O  O7  1  0.57986400  0.23592400  0.42997000  1
  O  O8  1  0.99431700  0.38354200  0.19967200  1
  O  O9  1  0.23592400  0.42997000  0.57986400  1
  O  O10  1  0.94693300  0.73002200  0.09178700  1
  O  O11  1  0.19967200  0.99431700  0.38354200  1
  O  O12  1  0.79727100  0.02433000  0.60602900  1
  O  O13  1  0.06543300  0.26281300  0.91344900  1
  O  O14  1  0.76874100  0.55909600  0.41960900  1
  O  O15  1  0.02433000  0.60602900  0.79727100  1
  O  O16  1  0.41960900  0.76874100  0.55909600  1
  O  O17  1  0.09178700  0.94693300  0.73002200  1
  O  O18  1  0.55909600  0.41960900  0.76874100  1
  O  O19  1  0.38354200  0.19967200  0.99431700  1
  O  O20  1  0.73002200  0.09178700  0.94693300  1
  O  O21  1  0.49634500  0.31439500  0.11684300  1
  O  O22  1  0.11684300  0.49634500  0.31439500  1
  O  O23  1  0.31439500  0.11684300  0.49634500  1
loop_
_geom_bond_atom_site_label_1
_geom_bond_atom_site_label_2
_geom_bond_distance
_geom_bond_site_symmetry_2
Mn0 O12 2.036809 1_565
Mn0 O4 2.036809 1_556
Mn0 O15 2.036810 1_655
Mn0 O10 2.255295 1_556
Mn0 O17 2.255295 1_655
Mn0 O20 2.255295 1_565
O0 P1 1.536791 1_565
O0 V2 1.968489 1_555
O1 P2 1.536791 1_655
O1 V2 1.968489 1_555
O2 P0 1.536791 1_556
O2 V2 1.968489 1_555
O3 P0 1.568502 1_555
O3 V1 2.090861 1_565
O3 Sb0 2.415087 1_454
O4 P0 1.501163 1_555
O5 P0 1.598345 1_555
O5 V0 2.050855 1_555
O5 Sb1 2.348444 1_555
O6 P1 1.568502 1_555
O6 V1 2.090861 1_655
O6 Sb0 2.415087 1_544
O7 P1 1.598345 1_555
O7 V0 2.050855 1_555
O7 Sb1 2.348444 1_555
O8 P3 1.518080 1_555
O8 V1 1.989069 1_655
O9 P2 1.598345 1_555
O9 V0 2.050855 1_555
O9 Sb1 2.348444 1_555
O10 P3 1.561554 1_555
O10 Sb0 2.248836 1_554
O11 P4 1.518080 1_555
O11 V1 1.989069 1_565
O12 P1 1.501163 1_555
O13 P2 1.568502 1_555
O13 V1 2.090861 1_556
O13 Sb0 2.415087 1_445
O14 P3 1.573988 1_555
O14 V2 2.092220 1_555
O14 Sb1 2.416807 1_555
O15 P2 1.501163 1_555
O16 P4 1.573988 1_555
O16 V2 2.092220 1_555
O16 Sb1 2.416807 1_555
O17 P4 1.561554 1_555
O17 Sb0 2.248836 1_455
O18 P5 1.573988 1_555
O18 V2 2.092220 1_555
O18 Sb1 2.416807 1_555
O19 P5 1.518080 1_555
O19 V1 1.989069 1_556
O20 P5 1.561554 1_555
O20 Sb0 2.248836 1_545
O21 P5 1.542482 1_554
O21 V0 1.903589 1_555
O22 P3 1.542482 1_455
O22 V0 1.903589 1_555
O23 P4 1.542482 1_545
O23 V0 1.903589 1_555
