# generated using pymatgen
data_Li2MnV(P2O7)2
_symmetry_space_group_name_H-M   'P 1'
_cell_length_a   8.27989400
_cell_length_b   4.85806500
_cell_length_c   13.33835918
_cell_angle_alpha   88.57619607
_cell_angle_beta   90.00000000
_cell_angle_gamma   90.00000000
_symmetry_Int_Tables_number   1
_chemical_formula_structural   Li2MnV(P2O7)2
_chemical_formula_sum   'Li4 Mn2 V2 P8 O28'
_cell_volume   536.36002016
_cell_formula_units_Z   2
loop_
 _symmetry_equiv_pos_site_id
 _symmetry_equiv_pos_as_xyz
  1  'x, y, z'
loop_
 _atom_site_type_symbol
 _atom_site_label
 _atom_site_symmetry_multiplicity
 _atom_site_fract_x
 _atom_site_fract_y
 _atom_site_fract_z
 _atom_site_occupancy
  Li  Li0  1  0.36222500  0.16184400  0.66148000  1
  Li  Li1  1  0.86216700  0.33710800  0.83754700  1
  Li  Li2  1  0.36216700  0.66289200  0.16245300  1
  Li  Li3  1  0.86222500  0.83815600  0.33852000  1
  Mn  Mn0  1  0.99950300  0.14976700  0.63479300  1
  Mn  Mn1  1  0.49950300  0.85023300  0.36520700  1
  V  V0  1  0.49914300  0.35068500  0.86389300  1
  V  V1  1  0.99914300  0.64931500  0.13610700  1
  P  P0  1  0.17991400  0.13970700  0.25945000  1
  P  P1  1  0.78338700  0.16882800  0.04306000  1
  P  P2  1  0.28658400  0.33207600  0.45571900  1
  P  P3  1  0.67882900  0.35994700  0.23926900  1
  P  P4  1  0.17882900  0.64005300  0.76073100  1
  P  P5  1  0.78658400  0.66792400  0.54428100  1
  P  P6  1  0.28338700  0.83117200  0.95694000  1
  P  P7  1  0.67991400  0.86029300  0.74055000  1
  O  O0  1  0.84258200  0.00333700  0.75181800  1
  O  O1  1  0.53574400  0.05218700  0.75829500  1
  O  O2  1  0.67667300  0.09214300  0.30422300  1
  O  O3  1  0.43645400  0.14340800  0.45696600  1
  O  O4  1  0.32374700  0.12485600  0.92593900  1
  O  O5  1  0.15550200  0.21992300  0.37616900  1
  O  O6  1  0.69393800  0.18962100  0.94277000  1
  O  O7  1  0.65192700  0.28118000  0.12390100  1
  O  O8  1  0.20220200  0.31841100  0.55682400  1
  O  O9  1  0.93310700  0.35557100  0.04112100  1
  O  O10  1  0.82693400  0.36862500  0.57470000  1
  O  O11  1  0.17554900  0.40877400  0.19743500  1
  O  O12  1  0.03650400  0.44554500  0.74050400  1
  O  O13  1  0.84296800  0.50355400  0.24671400  1
  O  O14  1  0.34296800  0.49644600  0.75328600  1
  O  O15  1  0.53650400  0.55445500  0.25949600  1
  O  O16  1  0.67554900  0.59122600  0.80256500  1
  O  O17  1  0.32693400  0.63137500  0.42530000  1
  O  O18  1  0.43310700  0.64442900  0.95887900  1
  O  O19  1  0.70220200  0.68158900  0.44317600  1
  O  O20  1  0.15192700  0.71882000  0.87609900  1
  O  O21  1  0.19393800  0.81037900  0.05723000  1
  O  O22  1  0.65550200  0.78007700  0.62383100  1
  O  O23  1  0.82374700  0.87514400  0.07406100  1
  O  O24  1  0.93645400  0.85659200  0.54303400  1
  O  O25  1  0.17667300  0.90785700  0.69577700  1
  O  O26  1  0.03574400  0.94781300  0.24170500  1
  O  O27  1  0.34258200  0.99666300  0.24818200  1
loop_
_geom_bond_atom_site_label_1
_geom_bond_atom_site_label_2
_geom_bond_distance
_geom_bond_site_symmetry_2
Li0 O1 1.995334 1_555
Li0 O25 2.015954 1_545
Li0 O8 2.056689 1_555
Li0 O14 2.065467 1_555
Li1 O12 2.000688 1_655
Li1 O0 2.013752 1_555
Li1 O16 2.025021 1_555
Li1 O6 2.091277 1_555
Li2 O15 2.000688 1_555
Li2 O27 2.013752 1_555
Li2 O11 2.025021 1_555
Li2 O21 2.091277 1_555
Li3 O26 1.995334 1_655
Li3 O2 2.015954 1_565
Li3 O19 2.056689 1_555
Li3 O13 2.065467 1_555
Mn0 O10 1.942213 1_555
Mn0 O24 1.971204 1_545
Mn0 O25 2.036474 1_645
Mn0 O12 2.060918 1_655
Mn0 O8 2.127726 1_655
Mn0 O0 2.139039 1_555
Mn1 O17 1.942213 1_555
Mn1 O3 1.971204 1_565
Mn1 O2 2.036474 1_565
Mn1 O15 2.060918 1_555
Mn1 O19 2.127726 1_555
Mn1 O27 2.139039 1_555
O0 P7 1.524716 1_545
O1 P7 1.536553 1_545
O1 V0 2.068836 1_555
O2 P3 1.545168 1_555
O3 P2 1.542548 1_555
O4 P6 1.512916 1_545
O4 V0 1.988079 1_555
O5 P2 1.621550 1_555
O5 P0 1.626843 1_555
O6 P1 1.530187 1_556
O6 V0 2.068723 1_555
O7 P3 1.610363 1_555
O7 P1 1.635432 1_555
O8 P2 1.518801 1_555
O9 P1 1.536002 1_555
O9 V1 2.007584 1_555
O10 P5 1.536581 1_555
O11 P0 1.529845 1_555
O11 V1 2.029927 1_455
O12 P4 1.538528 1_555
O13 P3 1.532008 1_555
O13 V1 2.073212 1_555
O14 P4 1.532008 1_555
O14 V0 2.073212 1_555
O15 P3 1.538528 1_555
O16 P7 1.529845 1_555
O16 V0 2.029927 1_555
O17 P2 1.536581 1_555
O18 P6 1.536002 1_555
O18 V0 2.007584 1_555
O19 P5 1.518801 1_555
O20 P4 1.610363 1_555
O20 P6 1.635432 1_555
O21 P6 1.530187 1_554
O21 V1 2.068723 1_455
O22 P5 1.621550 1_555
O22 P7 1.626843 1_555
O23 P1 1.512916 1_565
O23 V1 1.988079 1_555
O24 P5 1.542548 1_555
O25 P4 1.545168 1_555
O26 P0 1.536553 1_565
O26 V1 2.068836 1_455
O27 P0 1.524716 1_565
