# generated using pymatgen
data_Ca4Ta2O9
_symmetry_space_group_name_H-M   'P 1'
_cell_length_a   5.53085774
_cell_length_b   9.82474333
_cell_length_c   17.07613060
_cell_angle_alpha   55.99151240
_cell_angle_beta   90.00000000
_cell_angle_gamma   90.00000000
_symmetry_Int_Tables_number   1
_chemical_formula_structural   Ca4Ta2O9
_chemical_formula_sum   'Ca16 Ta8 O36'
_cell_volume   769.19062297
_cell_formula_units_Z   4
loop_
 _symmetry_equiv_pos_site_id
 _symmetry_equiv_pos_as_xyz
  1  'x, y, z'
loop_
 _atom_site_type_symbol
 _atom_site_label
 _atom_site_symmetry_multiplicity
 _atom_site_fract_x
 _atom_site_fract_y
 _atom_site_fract_z
 _atom_site_occupancy
  Ca  Ca0  1  0.00000000  0.50000000  0.50000000  1
  Ca  Ca1  1  0.00000000  -0.00000000  0.00000000  1
  Ca  Ca2  1  0.99733593  0.78544893  0.22903959  1
  Ca  Ca3  1  0.48005083  0.54631812  0.60487351  1
  Ca  Ca4  1  0.51858141  0.12324710  0.07125777  1
  Ca  Ca5  1  0.01858141  0.87675290  0.42874223  1
  Ca  Ca6  1  0.98005083  0.45368188  0.89512649  1
  Ca  Ca7  1  0.49733593  0.21455107  0.27096041  1
  Ca  Ca8  1  0.50000000  -0.00000000  0.50000000  1
  Ca  Ca9  1  0.50266407  0.78544893  0.72903959  1
  Ca  Ca10  1  0.50000000  0.50000000  0.00000000  1
  Ca  Ca11  1  0.01994917  0.54631812  0.10487351  1
  Ca  Ca12  1  0.98141859  0.12324710  0.57125777  1
  Ca  Ca13  1  0.48141859  0.87675290  0.92874223  1
  Ca  Ca14  1  0.51994917  0.45368188  0.39512649  1
  Ca  Ca15  1  0.00266407  0.21455107  0.77096041  1
  Ta  Ta0  1  0.49156513  0.32611405  0.83556089  1
  Ta  Ta1  1  0.51070400  0.83246255  0.33567357  1
  Ta  Ta2  1  0.99156513  0.67388595  0.66443911  1
  Ta  Ta3  1  0.01070400  0.16753745  0.16432643  1
  Ta  Ta4  1  0.98929600  0.83246255  0.83567357  1
  Ta  Ta5  1  0.00843487  0.32611405  0.33556089  1
  Ta  Ta6  1  0.48929600  0.16753745  0.66432643  1
  Ta  Ta7  1  0.50843487  0.67388595  0.16443911  1
  O  O0  1  0.59136064  0.27654831  0.73488974  1
  O  O1  1  0.32116028  0.12206597  0.89847698  1
  O  O2  1  0.79661147  0.69815524  0.37073964  1
  O  O3  1  0.32991676  0.67191934  0.44658253  1
  O  O4  1  0.78934253  0.23602530  0.90350743  1
  O  O5  1  0.11787648  0.05676690  0.10674463  1
  O  O6  1  0.88485554  0.62279135  0.57611254  1
  O  O7  1  0.19830081  0.45430195  0.74991707  1
  O  O8  1  0.70929615  0.02006109  0.21781027  1
  O  O9  1  0.20929615  0.97993891  0.28218973  1
  O  O10  1  0.69830081  0.54569805  0.75008293  1
  O  O11  1  0.38485554  0.37720865  0.92388746  1
  O  O12  1  0.61787648  0.94323310  0.39325537  1
  O  O13  1  0.28934253  0.76397470  0.59649257  1
  O  O14  1  0.82991676  0.32808066  0.05341747  1
  O  O15  1  0.29661147  0.30184476  0.12926036  1
  O  O16  1  0.82116028  0.87793403  0.60152302  1
  O  O17  1  0.09136064  0.72345169  0.76511026  1
  O  O18  1  0.90863936  0.27654831  0.23488974  1
  O  O19  1  0.17883972  0.12206597  0.39847698  1
  O  O20  1  0.70338853  0.69815524  0.87073964  1
  O  O21  1  0.17008324  0.67191934  0.94658253  1
  O  O22  1  0.71065747  0.23602530  0.40350743  1
  O  O23  1  0.38212352  0.05676690  0.60674463  1
  O  O24  1  0.61514446  0.62279135  0.07611254  1
  O  O25  1  0.30169919  0.45430195  0.24991707  1
  O  O26  1  0.79070385  0.02006109  0.71781027  1
  O  O27  1  0.29070385  0.97993891  0.78218973  1
  O  O28  1  0.80169919  0.54569805  0.25008293  1
  O  O29  1  0.11514446  0.37720865  0.42388746  1
  O  O30  1  0.88212352  0.94323310  0.89325537  1
  O  O31  1  0.21065747  0.76397470  0.09649257  1
  O  O32  1  0.67008324  0.32808066  0.55341747  1
  O  O33  1  0.20338853  0.30184476  0.62926036  1
  O  O34  1  0.67883972  0.87793403  0.10152302  1
  O  O35  1  0.40863936  0.72345169  0.26511026  1
loop_
_geom_bond_atom_site_label_1
_geom_bond_atom_site_label_2
_geom_bond_distance
_geom_bond_site_symmetry_2
Ca0 O33 2.262884 1_555
Ca0 O2 2.262884 1_455
Ca0 O3 2.300242 1_555
Ca0 O32 2.300242 1_455
Ca0 O6 2.303078 1_455
Ca0 O29 2.303078 1_555
Ca1 O4 2.274987 1_454
Ca1 O31 2.274987 1_545
Ca1 O30 2.279441 1_444
Ca1 O5 2.279441 1_555
Ca1 O34 2.296340 1_445
Ca1 O1 2.296340 1_554
Ca2 O2 2.345534 1_555
Ca2 O35 2.346425 1_655
Ca2 O5 2.384130 1_665
Ca2 O28 2.429288 1_555
Ca2 O34 2.541043 1_555
Ca2 O31 2.663395 1_655
Ca2 O8 2.719077 1_565
Ca2 O9 2.790927 1_655
Ca3 O13 2.315932 1_555
Ca3 O6 2.325012 1_555
Ca3 O0 2.398008 1_555
Ca3 O3 2.405675 1_555
Ca3 O7 2.622092 1_555
Ca3 O33 2.676761 1_555
Ca3 O10 2.754767 1_555
Ca3 O32 2.929422 1_555
Ca4 O5 2.294078 1_555
Ca4 O34 2.338407 1_545
Ca4 O8 2.359054 1_555
Ca4 O11 2.466087 1_554
Ca4 O14 2.534171 1_555
Ca4 O15 2.740660 1_555
Ca4 O4 2.850504 1_554
Ca5 O12 2.294078 1_455
Ca5 O19 2.338407 1_565
Ca5 O9 2.359054 1_555
Ca5 O6 2.466087 1_455
Ca5 O3 2.534171 1_555
Ca5 O2 2.740660 1_455
Ca5 O13 2.850504 1_555
Ca6 O4 2.315932 1_555
Ca6 O11 2.325012 1_655
Ca6 O17 2.398008 1_655
Ca6 O14 2.405675 1_556
Ca6 O10 2.622092 1_555
Ca6 O20 2.676761 1_555
Ca6 O7 2.754767 1_655
Ca6 O21 2.929422 1_655
Ca7 O15 2.345534 1_555
Ca7 O18 2.346425 1_555
Ca7 O12 2.384130 1_545
Ca7 O25 2.429288 1_555
Ca7 O19 2.541043 1_555
Ca7 O22 2.663395 1_555
Ca7 O9 2.719077 1_545
Ca7 O8 2.790927 1_555
Ca8 O22 2.274987 1_555
Ca8 O13 2.274987 1_545
Ca8 O12 2.279441 1_545
Ca8 O23 2.279441 1_555
Ca8 O19 2.296340 1_555
Ca8 O16 2.296340 1_545
Ca9 O20 2.345534 1_555
Ca9 O17 2.346425 1_555
Ca9 O23 2.384130 1_565
Ca9 O10 2.429288 1_555
Ca9 O16 2.541043 1_555
Ca9 O13 2.663395 1_555
Ca9 O26 2.719077 1_565
Ca9 O27 2.790927 1_555
Ca10 O20 2.262884 1_554
Ca10 O15 2.262884 1_555
Ca10 O21 2.300242 1_554
Ca10 O14 2.300242 1_555
Ca10 O24 2.303078 1_555
Ca10 O11 2.303078 1_554
Ca11 O31 2.315932 1_555
Ca11 O24 2.325012 1_455
Ca11 O18 2.398008 1_455
Ca11 O21 2.405675 1_554
Ca11 O25 2.622092 1_555
Ca11 O15 2.676761 1_555
Ca11 O28 2.754767 1_455
Ca11 O14 2.929422 1_455
Ca12 O23 2.294078 1_655
Ca12 O16 2.338407 1_545
Ca12 O26 2.359054 1_555
Ca12 O29 2.466087 1_655
Ca12 O32 2.534171 1_555
Ca12 O33 2.740660 1_655
Ca12 O22 2.850504 1_555
Ca13 O30 2.294078 1_555
Ca13 O1 2.338407 1_565
Ca13 O27 2.359054 1_555
Ca13 O24 2.466087 1_556
Ca13 O21 2.534171 1_555
Ca13 O20 2.740660 1_555
Ca13 O31 2.850504 1_556
Ca14 O22 2.315932 1_555
Ca14 O29 2.325012 1_555
Ca14 O35 2.398008 1_555
Ca14 O32 2.405675 1_555
Ca14 O28 2.622092 1_555
Ca14 O2 2.676761 1_555
Ca14 O25 2.754767 1_555
Ca14 O3 2.929422 1_555
Ca15 O33 2.345534 1_555
Ca15 O0 2.346425 1_455
Ca15 O30 2.384130 1_445
Ca15 O7 2.429288 1_555
Ca15 O1 2.541043 1_555
Ca15 O4 2.663395 1_455
Ca15 O27 2.719077 1_545
Ca15 O26 2.790927 1_455
O0 Ta6 2.088352 1_555
O0 Ta0 2.105578 1_555
O1 Ta0 1.911055 1_555
O2 Ta1 1.927801 1_555
O3 Ta1 1.932073 1_555
O4 Ta0 1.921803 1_555
O5 Ta3 1.923435 1_555
O6 Ta2 1.929297 1_555
O7 Ta0 2.072552 1_555
O7 Ta2 2.137668 1_455
O8 Ta3 2.057239 1_655
O8 Ta1 2.122417 1_545
O9 Ta1 2.057239 1_555
O9 Ta3 2.122417 1_565
O10 Ta2 2.072552 1_555
O10 Ta0 2.137668 1_555
O11 Ta0 1.929297 1_555
O12 Ta1 1.923435 1_555
O13 Ta2 1.921803 1_455
O14 Ta3 1.932073 1_655
O15 Ta3 1.927801 1_555
O16 Ta2 1.911055 1_555
O17 Ta4 2.088352 1_455
O17 Ta2 2.105578 1_455
O18 Ta3 2.088352 1_655
O18 Ta5 2.105578 1_655
O19 Ta5 1.911055 1_555
O20 Ta4 1.927801 1_555
O21 Ta4 1.932073 1_455
O22 Ta5 1.921803 1_655
O23 Ta6 1.923435 1_555
O24 Ta7 1.929297 1_555
O25 Ta5 2.072552 1_555
O25 Ta7 2.137668 1_555
O26 Ta6 2.057239 1_555
O26 Ta4 2.122417 1_545
O27 Ta4 2.057239 1_455
O27 Ta6 2.122417 1_565
O28 Ta7 2.072552 1_555
O28 Ta5 2.137668 1_655
O29 Ta5 1.929297 1_555
O30 Ta4 1.923435 1_555
O31 Ta7 1.921803 1_555
O32 Ta6 1.932073 1_555
O33 Ta6 1.927801 1_555
O34 Ta7 1.911055 1_555
O35 Ta1 2.088352 1_555
O35 Ta7 2.105578 1_555
