# generated using pymatgen
data_Na2SnO2
_symmetry_space_group_name_H-M   'P 1'
_cell_length_a   5.26591700
_cell_length_b   6.69714400
_cell_length_c   9.76057700
_cell_angle_alpha   90.00000000
_cell_angle_beta   90.00000000
_cell_angle_gamma   90.00000000
_symmetry_Int_Tables_number   1
_chemical_formula_structural   Na2SnO2
_chemical_formula_sum   'Na8 Sn4 O8'
_cell_volume   344.22240818
_cell_formula_units_Z   4
loop_
 _symmetry_equiv_pos_site_id
 _symmetry_equiv_pos_as_xyz
  1  'x, y, z'
loop_
 _atom_site_type_symbol
 _atom_site_label
 _atom_site_symmetry_multiplicity
 _atom_site_fract_x
 _atom_site_fract_y
 _atom_site_fract_z
 _atom_site_occupancy
  Na  Na0  1  0.00687800  0.62039800  0.42667200  1
  Na  Na1  1  0.00897900  0.13700200  0.75436500  1
  Na  Na2  1  0.49102100  0.86299800  0.25436500  1
  Na  Na3  1  0.49312200  0.37960200  0.92667200  1
  Na  Na4  1  0.50687800  0.87960200  0.57332800  1
  Na  Na5  1  0.50897900  0.36299800  0.24563500  1
  Na  Na6  1  0.99102100  0.63700200  0.74563500  1
  Na  Na7  1  0.99312200  0.12039800  0.07332800  1
  Sn  Sn0  1  0.00357700  0.09831400  0.42841100  1
  Sn  Sn1  1  0.49642300  0.90168600  0.92841100  1
  Sn  Sn2  1  0.50357700  0.40168600  0.57158900  1
  Sn  Sn3  1  0.99642300  0.59831400  0.07158900  1
  O  O0  1  0.01847100  0.89071900  0.58093500  1
  O  O1  1  0.11032000  0.33892800  0.55554500  1
  O  O2  1  0.38968000  0.66107200  0.05554500  1
  O  O3  1  0.48152900  0.10928100  0.08093500  1
  O  O4  1  0.51847100  0.60928100  0.41906500  1
  O  O5  1  0.61032000  0.16107200  0.44445500  1
  O  O6  1  0.88968000  0.83892800  0.94445500  1
  O  O7  1  0.98152900  0.39071900  0.91906500  1
loop_
_geom_bond_atom_site_label_1
_geom_bond_atom_site_label_2
_geom_bond_distance
_geom_bond_site_symmetry_2
Na0 O1 2.330743 1_555
Na0 O0 2.355487 1_555
Na0 O4 2.574059 1_455
Na0 O4 2.696057 1_555
Na1 O7 2.343582 1_455
Na1 O0 2.363998 1_545
Na1 O1 2.424767 1_555
Na1 O6 2.796805 1_445
Na2 O4 2.343582 1_555
Na2 O3 2.363998 1_565
Na2 O2 2.424767 1_555
Na2 O5 2.796805 1_565
Na3 O2 2.330743 1_556
Na3 O3 2.355487 1_556
Na3 O7 2.574059 1_555
Na3 O7 2.696057 1_455
Na4 O5 2.330743 1_565
Na4 O4 2.355487 1_555
Na4 O0 2.574059 1_555
Na4 O0 2.696057 1_655
Na5 O3 2.343582 1_555
Na5 O4 2.363998 1_555
Na5 O5 2.424767 1_555
Na5 O2 2.796805 1_555
Na6 O0 2.343582 1_655
Na6 O7 2.363998 1_555
Na6 O6 2.424767 1_555
Na6 O1 2.796805 1_655
Na7 O6 2.330743 1_544
Na7 O7 2.355487 1_554
Na7 O3 2.574059 1_655
Na7 O3 2.696057 1_555
O0 Sn0 2.038470 1_565
O1 Sn0 2.110092 1_555
O1 Sn2 2.118875 1_555
O2 Sn1 2.110092 1_554
O2 Sn3 2.118875 1_455
O3 Sn1 2.038470 1_544
O4 Sn2 2.038470 1_555
O5 Sn2 2.110092 1_555
O5 Sn0 2.118875 1_655
O6 Sn3 2.110092 1_556
O6 Sn1 2.118875 1_555
O7 Sn3 2.038470 1_556
