# generated using pymatgen
data_Li2FeBO4
_symmetry_space_group_name_H-M   'P 1'
_cell_length_a   4.88883800
_cell_length_b   6.19376000
_cell_length_c   10.21600200
_cell_angle_alpha   90.00000000
_cell_angle_beta   90.00000000
_cell_angle_gamma   90.00000000
_symmetry_Int_Tables_number   1
_chemical_formula_structural   Li2FeBO4
_chemical_formula_sum   'Li8 Fe4 B4 O16'
_cell_volume   309.34349555
_cell_formula_units_Z   4
loop_
 _symmetry_equiv_pos_site_id
 _symmetry_equiv_pos_as_xyz
  1  'x, y, z'
loop_
 _atom_site_type_symbol
 _atom_site_label
 _atom_site_symmetry_multiplicity
 _atom_site_fract_x
 _atom_site_fract_y
 _atom_site_fract_z
 _atom_site_occupancy
  Li  Li0  1  0.71157600  0.86856700  0.07940100  1
  Li  Li1  1  0.18927400  0.11642000  0.15815300  1
  Li  Li2  1  0.68927400  0.61642000  0.34184700  1
  Li  Li3  1  0.21157600  0.36856700  0.42059900  1
  Li  Li4  1  0.78842400  0.86856700  0.57940100  1
  Li  Li5  1  0.31072600  0.11642000  0.65815300  1
  Li  Li6  1  0.81072600  0.61642000  0.84184700  1
  Li  Li7  1  0.28842400  0.36856700  0.92059900  1
  Fe  Fe0  1  0.18638100  0.62015000  0.16222900  1
  Fe  Fe1  1  0.68638100  0.12015000  0.33777100  1
  Fe  Fe2  1  0.31361900  0.62015000  0.66222900  1
  Fe  Fe3  1  0.81361900  0.12015000  0.83777100  1
  B  B0  1  0.68339500  0.36686600  0.09097100  1
  B  B1  1  0.18339500  0.86686600  0.40902900  1
  B  B2  1  0.81660500  0.36686600  0.59097100  1
  B  B3  1  0.31660500  0.86686600  0.90902900  1
  O  O0  1  0.25205000  0.86106800  0.05231600  1
  O  O1  1  0.37730700  0.37434900  0.10496800  1
  O  O2  1  0.79944700  0.56740400  0.15261400  1
  O  O3  1  0.78655200  0.16727600  0.15803100  1
  O  O4  1  0.28655200  0.66727600  0.34196900  1
  O  O5  1  0.29944700  0.06740400  0.34738600  1
  O  O6  1  0.87730700  0.87434900  0.39503200  1
  O  O7  1  0.75205000  0.36106800  0.44768400  1
  O  O8  1  0.24795000  0.86106800  0.55231600  1
  O  O9  1  0.12269300  0.37434900  0.60496800  1
  O  O10  1  0.70055300  0.56740400  0.65261400  1
  O  O11  1  0.71344800  0.16727600  0.65803100  1
  O  O12  1  0.21344800  0.66727600  0.84196900  1
  O  O13  1  0.20055300  0.06740400  0.84738600  1
  O  O14  1  0.62269300  0.87434900  0.89503200  1
  O  O15  1  0.74795000  0.36106800  0.94768400  1
loop_
_geom_bond_atom_site_label_1
_geom_bond_atom_site_label_2
_geom_bond_distance
_geom_bond_site_symmetry_2
Li0 O14 1.933320 1_554
Li0 O3 2.050027 1_565
Li0 O2 2.055098 1_555
Li0 O0 2.264001 1_555
Li1 O1 1.921569 1_555
Li1 O0 1.940277 1_545
Li1 O3 1.993881 1_455
Li1 O5 2.029670 1_555
Li2 O6 1.921569 1_555
Li2 O7 1.940277 1_555
Li2 O4 1.993881 1_555
Li2 O2 2.029670 1_555
Li3 O9 1.933320 1_555
Li3 O4 2.050027 1_555
Li3 O5 2.055098 1_555
Li3 O7 2.264001 1_455
Li4 O6 1.933320 1_555
Li4 O11 2.050027 1_565
Li4 O10 2.055098 1_555
Li4 O8 2.264001 1_655
Li5 O9 1.921569 1_555
Li5 O8 1.940277 1_545
Li5 O11 1.993881 1_555
Li5 O13 2.029670 1_555
Li6 O14 1.921569 1_555
Li6 O15 1.940277 1_555
Li6 O12 1.993881 1_655
Li6 O10 2.029670 1_555
Li7 O1 1.933320 1_556
Li7 O12 2.050027 1_555
Li7 O13 2.055098 1_555
Li7 O15 2.264001 1_555
Fe0 O1 1.879161 1_555
Fe0 O0 1.894871 1_555
Fe0 O2 1.922173 1_455
Fe0 O4 1.922692 1_555
Fe1 O6 1.879161 1_545
Fe1 O7 1.894871 1_555
Fe1 O5 1.922173 1_555
Fe1 O3 1.922692 1_555
Fe2 O9 1.879161 1_555
Fe2 O8 1.894871 1_555
Fe2 O10 1.922173 1_555
Fe2 O12 1.922692 1_555
Fe3 O14 1.879161 1_545
Fe3 O15 1.894871 1_555
Fe3 O13 1.922173 1_655
Fe3 O11 1.922692 1_555
B0 O15 1.497886 1_554
B0 O3 1.500633 1_555
B0 O2 1.503745 1_555
B0 O1 1.503945 1_555
B1 O8 1.497886 1_555
B1 O4 1.500633 1_555
B1 O5 1.503745 1_565
B1 O6 1.503945 1_455
B2 O7 1.497886 1_555
B2 O11 1.500633 1_555
B2 O10 1.503745 1_555
B2 O9 1.503945 1_655
B3 O0 1.497886 1_556
B3 O12 1.500633 1_555
B3 O13 1.503745 1_565
B3 O14 1.503945 1_555
