# generated using pymatgen
data_Li4Mn3V3(SnO8)2
_symmetry_space_group_name_H-M   'P 1'
_cell_length_a   6.08718791
_cell_length_b   5.91320113
_cell_length_c   9.84968411
_cell_angle_alpha   89.40280790
_cell_angle_beta   91.77643518
_cell_angle_gamma   119.90222926
_symmetry_Int_Tables_number   1
_chemical_formula_structural   Li4Mn3V3(SnO8)2
_chemical_formula_sum   'Li4 Mn3 V3 Sn2 O16'
_cell_volume   307.18727644
_cell_formula_units_Z   1
loop_
 _symmetry_equiv_pos_site_id
 _symmetry_equiv_pos_as_xyz
  1  'x, y, z'
loop_
 _atom_site_type_symbol
 _atom_site_label
 _atom_site_symmetry_multiplicity
 _atom_site_fract_x
 _atom_site_fract_y
 _atom_site_fract_z
 _atom_site_occupancy
  Li  Li0  1  0.31492700  0.65833100  0.89697100  1
  Li  Li1  1  0.99956800  0.99085900  0.99150400  1
  Li  Li2  1  0.01525400  0.01223300  0.49172300  1
  Li  Li3  1  0.66597800  0.33754400  0.39894200  1
  Mn  Mn0  1  0.66469600  0.83468800  0.21326000  1
  Mn  Mn1  1  0.83149900  0.66424200  0.71305600  1
  Mn  Mn2  1  0.82500800  0.16658800  0.71441400  1
  V  V0  1  0.16522500  0.82032200  0.21378000  1
  V  V1  1  0.17306500  0.33984300  0.21460600  1
  V  V2  1  0.33746700  0.17523700  0.71564100  1
  Sn  Sn0  1  0.35013200  0.68120200  0.48883100  1
  Sn  Sn1  1  0.65466700  0.31534200  0.99086300  1
  O  O0  1  0.19873000  0.86933000  0.60213700  1
  O  O1  1  0.03545400  0.52844200  0.33741700  1
  O  O2  1  0.33884100  0.67946100  0.10976500  1
  O  O3  1  0.99862600  0.99052800  0.30486400  1
  O  O4  1  0.99770800  0.00016800  0.80408800  1
  O  O5  1  0.18652700  0.33960000  0.59743800  1
  O  O6  1  0.46434400  0.97454500  0.34320200  1
  O  O7  1  0.48444000  0.52320700  0.33600200  1
  O  O8  1  0.31944100  0.14628200  0.10420800  1
  O  O9  1  0.69874700  0.85078500  0.59456500  1
  O  O10  1  0.48113400  0.45382800  0.84137700  1
  O  O11  1  0.49074600  0.02073900  0.84468100  1
  O  O12  1  0.66561800  0.33568600  0.61314800  1
  O  O13  1  0.85176900  0.66358600  0.09546400  1
  O  O14  1  0.94864700  0.47535600  0.83859500  1
  O  O15  1  0.84174400  0.15232800  0.09730100  1
loop_
_geom_bond_atom_site_label_1
_geom_bond_atom_site_label_2
_geom_bond_distance
_geom_bond_site_symmetry_2
Li0 O11 1.930680 1_565
Li0 O14 2.000173 1_455
Li0 O10 2.013397 1_555
Li0 O2 2.097196 1_556
Li1 O4 1.846087 1_565
Li1 O13 1.970516 1_556
Li1 O15 1.979362 1_566
Li1 O8 1.992816 1_666
Li2 O3 1.842441 1_445
Li2 O5 1.970008 1_555
Li2 O9 1.978988 1_445
Li2 O0 1.997664 1_545
Li3 O6 1.941987 1_545
Li3 O7 1.990911 1_555
Li3 O1 2.058821 1_655
Li3 O12 2.109839 1_555
Mn0 O3 1.957328 1_555
Mn0 O2 1.973568 1_555
Mn0 O15 2.001809 1_565
Mn0 O7 2.019607 1_555
Mn0 O13 2.218494 1_555
Mn0 O6 2.221233 1_555
Mn1 O4 1.936611 1_565
Mn1 O12 1.945457 1_555
Mn1 O14 1.998918 1_555
Mn1 O9 2.008807 1_555
Mn1 O0 2.254376 1_655
Mn1 O10 2.276565 1_555
Mn2 O4 1.951785 1_555
Mn2 O12 1.955135 1_555
Mn2 O14 2.003870 1_555
Mn2 O9 2.007521 1_545
Mn2 O11 2.217962 1_555
Mn2 O5 2.259394 1_655
O0 V2 1.922411 1_565
O0 Sn0 2.108142 1_555
O1 V0 1.934518 1_555
O1 V1 2.104999 1_555
O1 Sn0 2.198893 1_555
O2 V0 1.955226 1_555
O2 V1 2.029409 1_555
O3 V0 1.984733 1_655
O3 V1 2.004459 1_665
O4 V2 2.016483 1_655
O5 V2 1.986140 1_555
O5 Sn0 2.057107 1_555
O6 V0 1.999184 1_555
O6 Sn0 2.087404 1_555
O7 V1 2.008823 1_555
O7 Sn0 2.162032 1_555
O8 V0 1.994129 1_545
O8 V1 2.095036 1_555
O8 Sn1 2.119858 1_554
O9 Sn0 2.087218 1_555
O10 V2 1.884507 1_555
O10 Sn1 2.166853 1_555
O11 V2 2.018114 1_555
O11 Sn1 2.081738 1_555
O12 V2 2.030974 1_555
O13 V0 1.994808 1_655
O13 Sn1 2.060506 1_554
O14 Sn1 2.189888 1_555
O15 V1 2.069919 1_655
O15 Sn1 2.079531 1_554
