# generated using pymatgen
data_YFeGe2O7
_symmetry_space_group_name_H-M   'P 1'
_cell_length_a   6.95357157
_cell_length_b   6.95357157
_cell_length_c   6.72585204
_cell_angle_alpha   69.21683403
_cell_angle_beta   69.21683403
_cell_angle_gamma   77.40592195
_symmetry_Int_Tables_number   1
_chemical_formula_structural   YFeGe2O7
_chemical_formula_sum   'Y2 Fe2 Ge4 O14'
_cell_volume   282.68003807
_cell_formula_units_Z   2
loop_
 _symmetry_equiv_pos_site_id
 _symmetry_equiv_pos_as_xyz
  1  'x, y, z'
loop_
 _atom_site_type_symbol
 _atom_site_label
 _atom_site_symmetry_multiplicity
 _atom_site_fract_x
 _atom_site_fract_y
 _atom_site_fract_z
 _atom_site_occupancy
  Y  Y0  1  0.20685600  0.79314400  0.00000000  1
  Y  Y1  1  0.79314400  0.20685600  0.00000000  1
  Fe  Fe0  1  0.30368600  0.69631400  0.50000000  1
  Fe  Fe1  1  0.69631400  0.30368600  0.50000000  1
  Ge  Ge0  1  0.21914500  0.21914500  0.48313900  1
  Ge  Ge1  1  0.78085500  0.78085500  0.51686100  1
  Ge  Ge2  1  0.69675700  0.69675700  0.07652000  1
  Ge  Ge3  1  0.30324300  0.30324300  0.92348000  1
  O  O0  1  0.43210800  0.78633800  0.17097700  1
  O  O1  1  0.21366200  0.56789200  0.82902300  1
  O  O2  1  0.56789200  0.21366200  0.82902300  1
  O  O3  1  0.78633800  0.43210800  0.17097700  1
  O  O4  1  0.36536500  0.36536500  0.54106600  1
  O  O5  1  0.63463500  0.63463500  0.45893400  1
  O  O6  1  0.31652800  0.31652800  0.18576600  1
  O  O7  1  0.68347200  0.68347200  0.81423400  1
  O  O8  1  0.13170600  0.13170600  0.96892900  1
  O  O9  1  0.86829400  0.86829400  0.03107100  1
  O  O10  1  0.27535000  0.94755600  0.59667200  1
  O  O11  1  0.05244400  0.72465000  0.40332800  1
  O  O12  1  0.72465000  0.05244400  0.40332800  1
  O  O13  1  0.94755600  0.27535000  0.59667200  1
loop_
_geom_bond_atom_site_label_1
_geom_bond_atom_site_label_2
_geom_bond_distance
_geom_bond_site_symmetry_2
Fe0 O0 1.986143 1_555
Fe0 O1 1.986143 1_555
Fe0 O10 2.019601 1_555
Fe0 O11 2.019601 1_555
Fe0 O5 2.181442 1_555
Fe0 O4 2.181442 1_555
Fe1 O3 1.986143 1_555
Fe1 O2 1.986143 1_555
Fe1 O13 2.019601 1_555
Fe1 O12 2.019601 1_555
Fe1 O5 2.181442 1_555
Fe1 O4 2.181442 1_555
Ge0 O10 1.780127 1_545
Ge0 O13 1.780127 1_455
Ge0 O6 1.787483 1_555
Ge0 O4 1.797894 1_555
Ge1 O11 1.780127 1_655
Ge1 O12 1.780127 1_565
Ge1 O7 1.787483 1_555
Ge1 O5 1.797894 1_555
Ge2 O9 1.744102 1_555
Ge2 O3 1.769021 1_555
Ge2 O0 1.769021 1_555
Ge2 O7 1.834155 1_554
Ge2 O5 2.343739 1_555
Ge3 O8 1.744102 1_555
Ge3 O1 1.769021 1_555
Ge3 O2 1.769021 1_555
Ge3 O6 1.834155 1_556
Ge3 O4 2.343739 1_555
O0 Y0 2.232773 1_555
O1 Y0 2.232773 1_556
O2 Y1 2.232773 1_556
O3 Y1 2.232773 1_555
O8 Y1 2.247431 1_456
O8 Y0 2.247431 1_546
O9 Y0 2.247431 1_655
O9 Y1 2.247431 1_565
O10 Y0 2.444925 1_556
O11 Y0 2.444925 1_555
O12 Y1 2.444925 1_555
O13 Y1 2.444925 1_556
