# generated using pymatgen
data_Li4Mn2Fe3P6WO24
_symmetry_space_group_name_H-M   'P 1'
_cell_length_a   8.58273300
_cell_length_b   8.63874767
_cell_length_c   8.69785710
_cell_angle_alpha   63.24133612
_cell_angle_beta   63.52672960
_cell_angle_gamma   63.67676143
_symmetry_Int_Tables_number   1
_chemical_formula_structural   Li4Mn2Fe3P6WO24
_chemical_formula_sum   'Li4 Mn2 Fe3 P6 W1 O24'
_cell_volume   491.10936182
_cell_formula_units_Z   1
loop_
 _symmetry_equiv_pos_site_id
 _symmetry_equiv_pos_as_xyz
  1  'x, y, z'
loop_
 _atom_site_type_symbol
 _atom_site_label
 _atom_site_symmetry_multiplicity
 _atom_site_fract_x
 _atom_site_fract_y
 _atom_site_fract_z
 _atom_site_occupancy
  Li  Li0  1  0.25445700  0.64957800  0.84796400  1
  Li  Li1  1  0.70185200  0.35545900  0.15541900  1
  Li  Li2  1  0.35576500  0.15356500  0.70722200  1
  Li  Li3  1  0.15275500  0.70198500  0.36370300  1
  Mn  Mn0  1  0.97863600  0.00243600  0.99015600  1
  Mn  Mn1  1  0.51376800  0.50150700  0.49568300  1
  Fe  Fe0  1  0.65129400  0.65027700  0.64571400  1
  Fe  Fe1  1  0.85061800  0.85122400  0.84974100  1
  Fe  Fe2  1  0.34606900  0.34341300  0.34792000  1
  P  P0  1  0.94968000  0.55694400  0.25277300  1
  P  P1  1  0.55454700  0.25574300  0.94612500  1
  P  P2  1  0.25399200  0.94634400  0.55652400  1
  P  P3  1  0.75220800  0.04827100  0.45487100  1
  P  P4  1  0.44432400  0.74860100  0.05112500  1
  P  P5  1  0.05690500  0.45273400  0.75385400  1
  W  W0  1  0.14567700  0.14658800  0.14993800  1
  O  O0  1  0.52875300  0.31536800  0.10052000  1
  O  O1  1  0.32067900  0.09846800  0.52813300  1
  O  O2  1  0.09939700  0.52756500  0.32355600  1
  O  O3  1  0.94805000  0.73401500  0.08817300  1
  O  O4  1  0.00218300  0.39161800  0.18794600  1
  O  O5  1  0.76151500  0.56565900  0.39729000  1
  O  O6  1  0.73672500  0.10210000  0.92275800  1
  O  O7  1  0.54610900  0.41594800  0.76730800  1
  O  O8  1  0.82716500  0.00997700  0.59981900  1
  O  O9  1  0.39922500  0.75455400  0.57259500  1
  O  O10  1  0.90237500  0.08135500  0.25399400  1
  O  O11  1  0.60296200  0.81266400  0.00156100  1
  O  O12  1  0.38901100  0.19043700  0.99435800  1
  O  O13  1  0.10378400  0.92320400  0.74532100  1
  O  O14  1  0.60136800  0.24077600  0.43199200  1
  O  O15  1  0.18867700  0.99114000  0.39786700  1
  O  O16  1  0.43150500  0.59315300  0.24039400  1
  O  O17  1  0.24822900  0.90188200  0.09181300  1
  O  O18  1  0.24426900  0.42801700  0.59718800  1
  O  O19  1  0.04291300  0.59529500  0.82139300  1
  O  O20  1  0.08215800  0.25158200  0.90244400  1
  O  O21  1  0.89113000  0.49413500  0.70454300  1
  O  O22  1  0.69125800  0.89605400  0.48105700  1
  O  O23  1  0.44801100  0.69736700  0.90224700  1
loop_
_geom_bond_atom_site_label_1
_geom_bond_atom_site_label_2
_geom_bond_distance
_geom_bond_site_symmetry_2
Li0 O13 2.115399 1_555
Li0 O9 2.119678 1_555
Li0 O23 2.153148 1_555
Li0 O19 2.190115 1_555
Li0 O7 2.461752 1_555
Li0 O3 2.566236 1_456
Li1 O0 1.947531 1_555
Li1 O14 2.067417 1_555
Li1 O10 2.275370 1_555
Li1 O16 2.399716 1_555
Li2 O1 1.989112 1_555
Li2 O18 2.052823 1_555
Li2 O20 2.256301 1_555
Li2 O14 2.455041 1_555
Li3 O2 1.957128 1_555
Li3 O16 2.093668 1_555
Li3 O17 2.257436 1_555
Li3 O18 2.405840 1_555
Mn0 O6 2.107386 1_555
Mn0 O3 2.175516 1_546
Mn0 O13 2.185938 1_645
Mn0 O20 2.370015 1_655
Mn0 O10 2.415229 1_556
Mn0 O17 2.498023 1_646
Mn1 O5 2.134594 1_555
Mn1 O9 2.239906 1_555
Mn1 O7 2.243953 1_555
Mn1 O14 2.279426 1_555
Mn1 O16 2.318357 1_555
Mn1 O18 2.347254 1_555
Fe0 O22 2.036303 1_555
Fe0 O21 2.042935 1_555
Fe0 O7 2.207495 1_555
Fe0 O9 2.208811 1_555
Fe0 O23 2.214779 1_555
Fe0 O5 2.254932 1_555
Fe1 O11 2.025372 1_556
Fe1 O8 2.026697 1_565
Fe1 O19 2.136523 1_655
Fe1 O6 2.205206 1_565
Fe1 O13 2.205247 1_655
Fe1 O3 2.220304 1_556
Fe2 O1 2.024778 1_555
Fe2 O2 2.041405 1_555
Fe2 O0 2.066889 1_555
Fe2 O16 2.245355 1_555
Fe2 O18 2.273733 1_555
Fe2 O14 2.289925 1_555
O0 P1 1.540907 1_554
O1 P2 1.537672 1_545
O2 P0 1.539487 1_455
O3 P0 1.554553 1_555
O4 P0 1.577537 1_455
O4 W0 2.015395 1_555
O5 P0 1.536663 1_555
O6 P1 1.538451 1_555
O7 P1 1.553355 1_555
O8 P3 1.507182 1_555
O9 P2 1.559992 1_555
O10 P3 1.632440 1_555
O10 W0 2.096815 1_655
O11 P4 1.508661 1_555
O12 P1 1.574529 1_555
O12 W0 2.014136 1_556
O13 P2 1.563356 1_555
O14 P3 1.582252 1_555
O15 P2 1.544272 1_555
O15 W0 2.062088 1_565
O16 P4 1.582532 1_555
O17 P4 1.620399 1_555
O17 W0 2.101090 1_565
O18 P5 1.578676 1_555
O19 P5 1.527620 1_555
O20 P5 1.621833 1_555
O20 W0 2.145568 1_556
O21 P5 1.513563 1_655
O22 P3 1.512879 1_565
O23 P4 1.529980 1_556
