# generated using pymatgen
data_YScO3
_symmetry_space_group_name_H-M   'P 1'
_cell_length_a   6.17402580
_cell_length_b   6.17402566
_cell_length_c   12.19474075
_cell_angle_alpha   89.99999271
_cell_angle_beta   90.00000341
_cell_angle_gamma   120.00005297
_symmetry_Int_Tables_number   1
_chemical_formula_structural   YScO3
_chemical_formula_sum   'Y6 Sc6 O18'
_cell_volume   402.56854914
_cell_formula_units_Z   6
loop_
 _symmetry_equiv_pos_site_id
 _symmetry_equiv_pos_as_xyz
  1  'x, y, z'
loop_
 _atom_site_type_symbol
 _atom_site_label
 _atom_site_symmetry_multiplicity
 _atom_site_fract_x
 _atom_site_fract_y
 _atom_site_fract_z
 _atom_site_occupancy
  Y  Y0  1  0.33333353  0.66666689  0.23613702  1
  Y  Y1  1  -0.00000001  -0.00000033  0.27450084  1
  Y  Y2  1  -0.00000012  0.00000005  0.77450049  1
  Y  Y3  1  0.33333341  0.66666682  0.73613739  1
  Y  Y4  1  0.66666664  0.33333330  0.73613728  1
  Y  Y5  1  0.66666677  0.33333324  0.23613731  1
  Sc  Sc0  1  0.00000054  0.66634868  0.50192688  1
  Sc  Sc1  1  0.99999956  0.33365132  0.00192685  1
  Sc  Sc2  1  0.33365235  0.33365251  0.50192666  1
  Sc  Sc3  1  0.66634738  0.66634778  0.00192674  1
  Sc  Sc4  1  0.33365128  -0.00000026  0.00192682  1
  Sc  Sc5  1  0.66634886  0.00000046  0.50192706  1
  O  O0  1  -0.00000008  0.69227379  0.66979280  1
  O  O1  1  -0.00000006  0.64074353  0.33514679  1
  O  O2  1  0.00000015  0.35925619  0.83514671  1
  O  O3  1  -0.00000009  0.30772607  0.16979273  1
  O  O4  1  0.33333342  0.66666687  0.02201149  1
  O  O5  1  -0.00000004  -0.00000002  0.47624287  1
  O  O6  1  0.00000001  0.00000008  0.97624275  1
  O  O7  1  0.33333305  0.66666651  0.52201164  1
  O  O8  1  0.30772622  0.30772601  0.66979278  1
  O  O9  1  0.35925627  0.35925615  0.33514670  1
  O  O10  1  0.30772599  -0.00000001  0.16979272  1
  O  O11  1  0.64074378  0.64074361  0.83514668  1
  O  O12  1  0.69227391  0.69227400  0.16979263  1
  O  O13  1  0.35925640  0.00000020  0.83514672  1
  O  O14  1  0.66666679  0.33333321  0.52201169  1
  O  O15  1  0.66666668  0.33333359  0.02201144  1
  O  O16  1  0.64074360  -0.00000010  0.33514667  1
  O  O17  1  0.69227381  -0.00000016  0.66979283  1
loop_
_geom_bond_atom_site_label_1
_geom_bond_atom_site_label_2
_geom_bond_distance
_geom_bond_site_symmetry_2
O0 Sc0 2.053330 1_555
O0 Y2 2.289124 1_565
O0 Y4 2.289175 1_455
O0 Y3 2.289178 1_555
O1 Sc0 2.039974 1_555
O1 Y5 2.321514 1_455
O1 Y0 2.321518 1_555
O1 Y1 2.338103 1_565
O2 Sc1 2.039975 1_456
O2 Y3 2.321514 1_555
O2 Y4 2.321516 1_455
O2 Y2 2.338104 1_555
O3 Sc1 2.053329 1_455
O3 Y1 2.289127 1_555
O3 Y0 2.289177 1_555
O3 Y5 2.289177 1_455
O4 Sc3 2.071553 1_555
O4 Sc4 2.071555 1_565
O4 Sc1 2.071558 1_455
O4 Y0 2.611205 1_555
O5 Sc5 2.083647 1_455
O5 Sc0 2.083648 1_545
O5 Sc2 2.083652 1_555
O5 Y1 2.460192 1_555
O6 Sc4 2.083648 1_556
O6 Sc1 2.083648 1_456
O6 Sc3 2.083652 1_446
O6 Y2 2.460195 1_555
O7 Sc0 2.071553 1_555
O7 Sc2 2.071554 1_555
O7 Sc5 2.071559 1_565
O7 Y3 2.611208 1_555
O8 Sc2 2.053333 1_555
O8 Y2 2.289122 1_555
O8 Y4 2.289176 1_555
O8 Y3 2.289179 1_555
O9 Sc2 2.039972 1_555
O9 Y5 2.321516 1_555
O9 Y0 2.321518 1_555
O9 Y1 2.338103 1_555
O10 Sc4 2.053329 1_555
O10 Y1 2.289125 1_555
O10 Y0 2.289176 1_545
O10 Y5 2.289177 1_555
O11 Sc3 2.039974 1_556
O11 Y4 2.321515 1_555
O11 Y3 2.321515 1_555
O11 Y2 2.338103 1_665
O12 Sc3 2.053330 1_555
O12 Y1 2.289124 1_665
O12 Y0 2.289176 1_555
O12 Y5 2.289179 1_555
O13 Sc4 2.039975 1_556
O13 Y4 2.321513 1_555
O13 Y3 2.321515 1_545
O13 Y2 2.338106 1_555
O14 Sc5 2.071554 1_555
O14 Sc2 2.071557 1_555
O14 Sc0 2.071558 1_655
O14 Y4 2.611206 1_555
O15 Sc3 2.071555 1_555
O15 Sc1 2.071556 1_555
O15 Sc4 2.071558 1_555
O15 Y5 2.611209 1_555
O16 Sc5 2.039978 1_555
O16 Y0 2.321514 1_545
O16 Y5 2.321514 1_555
O16 Y1 2.338105 1_655
O17 Sc5 2.053328 1_555
O17 Y2 2.289122 1_655
O17 Y3 2.289175 1_545
O17 Y4 2.289178 1_555
