# generated using pymatgen
data_Li4Cr2TeWO12
_symmetry_space_group_name_H-M   'P 1'
_cell_length_a   5.10263300
_cell_length_b   5.34732030
_cell_length_c   7.38647797
_cell_angle_alpha   86.43150452
_cell_angle_beta   89.92058537
_cell_angle_gamma   89.83084429
_symmetry_Int_Tables_number   1
_chemical_formula_structural   Li4Cr2TeWO12
_chemical_formula_sum   'Li4 Cr2 Te1 W1 O12'
_cell_volume   201.15130843
_cell_formula_units_Z   1
loop_
 _symmetry_equiv_pos_site_id
 _symmetry_equiv_pos_as_xyz
  1  'x, y, z'
loop_
 _atom_site_type_symbol
 _atom_site_label
 _atom_site_symmetry_multiplicity
 _atom_site_fract_x
 _atom_site_fract_y
 _atom_site_fract_z
 _atom_site_occupancy
  Li  Li0  1  0.99489600  0.42770900  0.71586300  1
  Li  Li1  1  0.50485800  0.93143000  0.21379700  1
  Li  Li2  1  0.00116700  0.44404500  0.21877600  1
  Li  Li3  1  0.50016100  0.93326000  0.71917400  1
  Cr  Cr0  1  0.00099000  0.99862200  0.49498900  1
  Cr  Cr1  1  0.49568300  0.49056800  0.00116000  1
  Te  Te0  1  0.50056500  0.49944600  0.50105800  1
  W  W0  1  0.99601600  0.99614900  0.99546300  1
  O  O0  1  0.69721300  0.19796000  0.57319100  1
  O  O1  1  0.89002400  0.01052600  0.25369800  1
  O  O2  1  0.68559600  0.81632800  0.95142000  1
  O  O3  1  0.79964200  0.69752900  0.57328000  1
  O  O4  1  0.19674200  0.70264400  0.06336100  1
  O  O5  1  0.62579200  0.51941700  0.25271800  1
  O  O6  1  0.37138400  0.51693800  0.75058500  1
  O  O7  1  0.81297600  0.31527600  0.95098100  1
  O  O8  1  0.18387100  0.32476200  0.44362600  1
  O  O9  1  0.31055000  0.20028000  0.06111200  1
  O  O10  1  0.11559400  0.01300000  0.75129500  1
  O  O11  1  0.31627900  0.82171100  0.44325000  1
loop_
_geom_bond_atom_site_label_1
_geom_bond_atom_site_label_2
_geom_bond_distance
_geom_bond_site_symmetry_2
Li0 O3 1.997200 1_555
Li0 O6 2.001499 1_655
Li0 O7 2.026845 1_555
Li0 O0 2.259156 1_555
Li0 O10 2.299044 1_655
Li0 O8 2.325028 1_655
Li1 O11 2.004417 1_555
Li1 O9 2.028448 1_565
Li1 O1 2.037260 1_565
Li1 O2 2.263965 1_554
Li1 O5 2.287137 1_555
Li1 O4 2.321354 1_555
Li2 O5 1.975031 1_455
Li2 O8 1.975678 1_555
Li2 O4 2.008299 1_555
Li2 O7 2.342583 1_454
Li2 O1 2.386414 1_455
Li2 O9 2.391495 1_555
Li3 O0 1.998147 1_565
Li3 O10 2.023637 1_565
Li3 O2 2.024012 1_555
Li3 O3 2.288804 1_555
Li3 O6 2.320674 1_555
Li3 O11 2.355842 1_555
Cr0 O1 1.868068 1_465
Cr0 O11 1.914036 1_555
Cr0 O3 1.968358 1_455
Cr0 O0 1.984178 1_465
Cr0 O10 1.988350 1_565
Cr0 O8 1.995612 1_565
Cr1 O9 1.849309 1_555
Cr1 O7 1.915691 1_554
Cr1 O6 1.953997 1_554
Cr1 O4 1.968918 1_555
Cr1 O5 1.989197 1_555
Cr1 O2 2.009411 1_554
O0 Te0 1.942871 1_555
O1 W0 1.987944 1_544
O2 W0 1.894392 1_555
O3 Te0 1.953863 1_555
O4 W0 1.912524 1_454
O5 Te0 1.938388 1_555
O6 Te0 1.964201 1_555
O7 W0 1.952942 1_545
O8 Te0 1.929767 1_555
O9 W0 2.020122 1_444
O10 W0 1.900059 1_445
O11 Te0 1.983967 1_555
