# generated using pymatgen
data_Bi10(Pb2O7)3
_symmetry_space_group_name_H-M   'P 1'
_cell_length_a   7.21669499
_cell_length_b   7.50232170
_cell_length_c   14.16040635
_cell_angle_alpha   92.65331336
_cell_angle_beta   97.26974302
_cell_angle_gamma   118.13280575
_symmetry_Int_Tables_number   1
_chemical_formula_structural   Bi10(Pb2O7)3
_chemical_formula_sum   'Bi10 Pb6 O21'
_cell_volume   665.72235451
_cell_formula_units_Z   1
loop_
 _symmetry_equiv_pos_site_id
 _symmetry_equiv_pos_as_xyz
  1  'x, y, z'
loop_
 _atom_site_type_symbol
 _atom_site_label
 _atom_site_symmetry_multiplicity
 _atom_site_fract_x
 _atom_site_fract_y
 _atom_site_fract_z
 _atom_site_occupancy
  Bi  Bi0  1  0.34783077  0.06691175  0.81226167  1
  Bi  Bi1  1  0.51747315  0.23835050  0.54591299  1
  Bi  Bi2  1  0.93480825  0.22794451  0.97488472  1
  Bi  Bi3  1  0.50907760  0.31694090  0.07220394  1
  Bi  Bi4  1  0.74664639  0.51233118  0.32382083  1
  Bi  Bi5  1  0.25335361  0.48766882  0.67617917  1
  Bi  Bi6  1  0.49092240  0.68305910  0.92779606  1
  Bi  Bi7  1  0.06519175  0.77205549  0.02511528  1
  Bi  Bi8  1  0.48252685  0.76164950  0.45408701  1
  Bi  Bi9  1  0.65216923  0.93308825  0.18773833  1
  Pb  Pb0  1  0.27031245  0.01746659  0.29138842  1
  Pb  Pb1  1  0.80741226  0.52321397  0.79342894  1
  Pb  Pb2  1  0.97660473  0.21083492  0.44224469  1
  Pb  Pb3  1  0.02339527  0.78916508  0.55775531  1
  Pb  Pb4  1  0.19258774  0.47678603  0.20657106  1
  Pb  Pb5  1  0.72968755  0.98253341  0.70861158  1
  O  O0  1  0.31009502  0.03598130  0.97324359  1
  O  O1  1  0.48602467  0.08287074  0.67537834  1
  O  O2  1  0.40981687  0.40361586  0.78940344  1
  O  O3  1  0.66463447  0.26072492  0.87955772  1
  O  O4  1  0.71393301  0.05213684  0.53141563  1
  O  O5  1  0.46801384  0.32141947  0.37744570  1
  O  O6  1  0.54258294  0.17698451  0.19494950  1
  O  O7  1  0.80999917  0.74870066  0.89881883  1
  O  O8  1  0.21590008  0.24472357  0.57284063  1
  O  O9  1  0.09864323  0.58980009  0.91738594  1
  O  O10  1  0.00000000  0.50000000  0.50000000  1
  O  O11  1  0.90135677  0.41019991  0.08261406  1
  O  O12  1  0.78409992  0.75527643  0.42715937  1
  O  O13  1  0.19000083  0.25129934  0.10118117  1
  O  O14  1  0.45741706  0.82301549  0.80505050  1
  O  O15  1  0.53198616  0.67858053  0.62255430  1
  O  O16  1  0.28606699  0.94786316  0.46858437  1
  O  O17  1  0.33536553  0.73927508  0.12044228  1
  O  O18  1  0.59018313  0.59638414  0.21059656  1
  O  O19  1  0.51397533  0.91712926  0.32462166  1
  O  O20  1  0.68990498  0.96401870  0.02675641  1
loop_
_geom_bond_atom_site_label_1
_geom_bond_atom_site_label_2
_geom_bond_distance
_geom_bond_site_symmetry_2
Bi0 O3 2.105886 1_555
Bi0 O1 2.272479 1_555
Bi0 O14 2.313394 1_545
Bi0 O0 2.339004 1_555
Bi0 O2 2.394283 1_555
Bi1 O16 2.149769 1_545
Bi1 O1 2.196974 1_555
Bi1 O8 2.278309 1_555
Bi1 O4 2.432891 1_555
Bi1 O5 2.517665 1_555
Bi2 O11 2.113382 1_556
Bi2 O20 2.178726 1_546
Bi2 O13 2.335359 1_656
Bi2 O3 2.345428 1_555
Bi2 O9 2.617657 1_655
Bi3 O6 2.117564 1_555
Bi3 O0 2.198096 1_554
Bi3 O13 2.213972 1_555
Bi3 O11 2.557840 1_555
Bi3 O18 2.598140 1_555
Bi4 O5 2.107732 1_555
Bi4 O18 2.133097 1_555
Bi4 O12 2.173660 1_555
Bi4 O6 2.688744 1_555
Bi5 O15 2.107732 1_555
Bi5 O2 2.133097 1_555
Bi5 O8 2.173660 1_555
Bi5 O14 2.688744 1_555
Bi6 O14 2.117564 1_555
Bi6 O20 2.198096 1_556
Bi6 O7 2.213972 1_555
Bi6 O9 2.557840 1_555
Bi6 O2 2.598140 1_555
Bi7 O9 2.113382 1_554
Bi7 O0 2.178726 1_564
Bi7 O7 2.335359 1_454
Bi7 O17 2.345428 1_555
Bi7 O11 2.617657 1_455
Bi8 O4 2.149769 1_565
Bi8 O19 2.196974 1_555
Bi8 O12 2.278309 1_555
Bi8 O16 2.432891 1_555
Bi8 O15 2.517665 1_555
Bi9 O17 2.105886 1_555
Bi9 O19 2.272479 1_555
Bi9 O6 2.313394 1_565
Bi9 O20 2.339004 1_555
Bi9 O18 2.394283 1_555
O1 Pb5 2.225282 1_545
O2 Pb1 2.562684 1_555
O3 Pb1 2.248133 1_555
O4 Pb2 2.285152 1_555
O4 Pb5 2.585850 1_545
O5 Pb0 2.226021 1_555
O6 Pb0 2.402247 1_555
O7 Pb1 2.195150 1_555
O8 Pb2 2.280562 1_455
O9 Pb1 2.396429 1_455
O10 Pb3 2.204332 1_555
O10 Pb2 2.204332 1_455
O11 Pb4 2.396429 1_655
O12 Pb3 2.280562 1_655
O13 Pb4 2.195150 1_555
O14 Pb5 2.402247 1_555
O15 Pb5 2.226021 1_555
O16 Pb3 2.285152 1_555
O16 Pb0 2.585850 1_565
O17 Pb4 2.248133 1_555
O18 Pb4 2.562684 1_555
O19 Pb0 2.225282 1_565
