# generated using pymatgen
data_Li2Ti2MnCr2(PO4)6
_symmetry_space_group_name_H-M   'P 1'
_cell_length_a   8.62235400
_cell_length_b   8.64346848
_cell_length_c   14.93492485
_cell_angle_alpha   90.21796011
_cell_angle_beta   106.53895960
_cell_angle_gamma   119.91898012
_symmetry_Int_Tables_number   1
_chemical_formula_structural   Li2Ti2MnCr2(PO4)6
_chemical_formula_sum   'Li4 Ti4 Mn2 Cr4 P12 O48'
_cell_volume   910.45887013
_cell_formula_units_Z   2
loop_
 _symmetry_equiv_pos_site_id
 _symmetry_equiv_pos_as_xyz
  1  'x, y, z'
loop_
 _atom_site_type_symbol
 _atom_site_label
 _atom_site_symmetry_multiplicity
 _atom_site_fract_x
 _atom_site_fract_y
 _atom_site_fract_z
 _atom_site_occupancy
  Li  Li0  1  0.00866900  0.01231900  0.00158700  1
  Li  Li1  1  0.48951800  0.23878900  0.75079500  1
  Li  Li2  1  0.74363600  0.57078600  0.92943500  1
  Li  Li3  1  0.35946400  0.47749600  0.62554700  1
  Ti  Ti0  1  0.85896500  0.21177700  0.07172200  1
  Ti  Ti1  1  0.64385400  0.04108500  0.68017700  1
  Ti  Ti2  1  0.35255900  0.96980300  0.32113300  1
  Ti  Ti3  1  0.15107500  0.78995200  0.92782300  1
  Mn  Mn0  1  0.98696000  0.49654700  0.49359600  1
  Mn  Mn1  1  0.50504600  0.74987000  0.25124300  1
  Cr  Cr0  1  0.64216300  0.53363700  0.17962500  1
  Cr  Cr1  1  0.85944200  0.71667900  0.57040100  1
  Cr  Cr2  1  0.14090200  0.28425200  0.42818200  1
  Cr  Cr3  1  0.35614400  0.46141500  0.82207600  1
  P  P0  1  0.24959300  0.27492100  0.22973900  1
  P  P1  1  0.95579200  0.83444400  0.37479500  1
  P  P2  1  0.54626800  0.76875100  0.02158400  1
  P  P3  1  0.46201100  0.73117000  0.47972200  1
  P  P4  1  0.03964500  0.66367300  0.12510300  1
  P  P5  1  0.24975800  0.76543600  0.72584500  1
  P  P6  1  0.75027900  0.23041100  0.27113400  1
  P  P7  1  0.95832900  0.33451400  0.87545800  1
  P  P8  1  0.54143900  0.27441000  0.52242000  1
  P  P9  1  0.46093200  0.23137900  0.98089600  1
  P  P10  1  0.04164400  0.16569900  0.62556300  1
  P  P11  1  0.75063600  0.73075400  0.76926200  1
  O  O0  1  0.69254600  0.37002000  0.25494800  1
  O  O1  1  0.49070800  0.36212600  0.06100000  1
  O  O2  1  0.08681700  0.19213600  0.13371200  1
  O  O3  1  0.88024600  0.65754200  0.15247800  1
  O  O4  1  0.19620100  0.31851600  0.31065300  1
  O  O5  1  0.41516400  0.45731300  0.22123200  1
  O  O6  1  0.94480100  0.72111400  0.45573200  1
  O  O7  1  0.76400600  0.73349500  0.29267800  1
  O  O8  1  0.61928000  0.69118000  0.49560100  1
  O  O9  1  0.55475600  0.70258600  0.11808300  1
  O  O10  1  0.27214800  0.55896400  0.47985200  1
  O  O11  1  0.99929600  0.47147500  0.09817500  1
  O  O12  1  0.99175900  0.02018400  0.40399400  1
  O  O13  1  0.69668400  0.87555400  0.74950100  1
  O  O14  1  0.73334500  0.94666800  0.03195500  1
  O  O15  1  0.43503600  0.79511700  0.38214900  1
  O  O16  1  0.37581600  0.79885800  0.99593700  1
  O  O17  1  0.50402900  0.87132700  0.56132100  1
  O  O18  1  0.23595100  0.76692100  0.20539500  1
  O  O19  1  0.08349500  0.68926100  0.63075500  1
  O  O20  1  0.87757000  0.15327500  0.65338700  1
  O  O21  1  0.19226500  0.80088200  0.81000800  1
  O  O22  1  0.04818400  0.76234000  0.03782400  1
  O  O23  1  0.41372500  0.95168200  0.72054500  1
  O  O24  1  0.58579700  0.04303500  0.27936300  1
  O  O25  1  0.93723600  0.22646900  0.95830900  1
  O  O26  1  0.80914100  0.19024100  0.19010800  1
  O  O27  1  0.12006100  0.84807200  0.34422500  1
  O  O28  1  0.91455900  0.30862800  0.36825200  1
  O  O29  1  0.76648200  0.23327400  0.79256600  1
  O  O30  1  0.49173900  0.13382300  0.43764900  1
  O  O31  1  0.62518000  0.19483000  0.00298400  1
  O  O32  1  0.56322000  0.20156200  0.61649600  1
  O  O33  1  0.26800900  0.05322500  0.96633500  1
  O  O34  1  0.30823300  0.13082500  0.25096500  1
  O  O35  1  0.00866300  0.98119300  0.59713400  1
  O  O36  1  0.98977200  0.52421900  0.90320200  1
  O  O37  1  0.73467200  0.44207100  0.52704900  1
  O  O38  1  0.46269600  0.31086500  0.88743600  1
  O  O39  1  0.38545400  0.31743400  0.51056300  1
  O  O40  1  0.23887000  0.27496600  0.70453700  1
  O  O41  1  0.06509000  0.28655900  0.54599300  1
  O  O42  1  0.58194800  0.54699900  0.77682100  1
  O  O43  1  0.80251500  0.68385200  0.68849400  1
  O  O44  1  0.12106900  0.34555400  0.84969700  1
  O  O45  1  0.90607600  0.79642700  0.86844500  1
  O  O46  1  0.52186700  0.63611400  0.94310500  1
  O  O47  1  0.30610500  0.62275900  0.73999100  1
loop_
_geom_bond_atom_site_label_1
_geom_bond_atom_site_label_2
_geom_bond_distance
_geom_bond_site_symmetry_2
Li0 O2 2.222267 1_555
Li0 O25 2.267830 1_454
Li0 O33 2.299008 1_554
Li0 O14 2.331192 1_445
Li0 O45 2.354215 1_444
Li0 O22 2.390779 1_545
Li1 O23 2.234976 1_545
Li1 O38 2.238057 1_555
Li1 O40 2.251992 1_555
Li1 O29 2.315164 1_555
Li1 O32 2.335625 1_555
Li1 O42 2.362412 1_555
Li2 O45 2.147113 1_555
Li2 O38 2.236964 1_555
Li2 O42 2.254409 1_555
Li2 O46 2.305512 1_555
Li2 O22 2.340866 1_656
Li2 O36 2.478680 1_555
Li3 O40 2.106107 1_555
Li3 O41 2.160381 1_555
Li3 O10 2.324911 1_555
Li3 O39 2.328863 1_555
Li3 O42 2.348987 1_555
Li3 O47 2.391064 1_555
Mn0 O37 2.191375 1_555
Mn0 O6 2.194249 1_555
Mn0 O28 2.198271 1_555
Mn0 O19 2.298660 1_655
Mn0 O41 2.300197 1_655
Mn0 O10 2.311855 1_655
Mn1 O7 2.217616 1_555
Mn1 O9 2.227033 1_555
Mn1 O5 2.243780 1_555
Mn1 O24 2.268825 1_565
Mn1 O15 2.289379 1_555
Mn1 O18 2.304652 1_555
Cr0 O1 1.942527 1_555
Cr0 O0 1.949606 1_555
Cr0 O3 1.951797 1_555
Cr0 O5 2.014881 1_555
Cr0 O7 2.023905 1_555
Cr0 O9 2.063729 1_555
Cr1 O43 1.946757 1_555
Cr1 O35 1.951468 1_655
Cr1 O8 1.952028 1_555
Cr1 O19 2.016847 1_655
Cr1 O6 2.041087 1_555
Cr1 O37 2.062735 1_555
Cr2 O4 1.932789 1_555
Cr2 O12 1.948104 1_455
Cr2 O39 1.989790 1_555
Cr2 O28 2.017770 1_455
Cr2 O41 2.047213 1_555
Cr2 O10 2.079088 1_555
Cr3 O44 1.932799 1_555
Cr3 O46 1.986337 1_555
Cr3 O47 1.986450 1_555
Cr3 O40 2.010838 1_555
Cr3 O42 2.027553 1_555
Cr3 O38 2.044971 1_555
O0 P6 1.515026 1_555
O1 P9 1.516481 1_554
O2 P0 1.543711 1_555
O2 Ti0 2.010981 1_455
O3 P4 1.518666 1_655
O4 P0 1.516766 1_555
O5 P0 1.548949 1_555
O6 P1 1.552843 1_555
O7 P1 1.548496 1_555
O8 P3 1.516454 1_555
O9 P2 1.548375 1_555
O10 P3 1.570539 1_555
O11 P4 1.543136 1_655
O11 Ti0 1.915852 1_555
O12 P1 1.511553 1_545
O13 P11 1.541229 1_555
O13 Ti1 1.928582 1_565
O14 P2 1.540208 1_555
O14 Ti0 1.980966 1_565
O15 P3 1.557102 1_555
O15 Ti2 2.080518 1_555
O16 P2 1.560840 1_556
O16 Ti3 1.877264 1_555
O17 P3 1.543888 1_555
O17 Ti1 1.937669 1_565
O18 P4 1.558459 1_555
O18 Ti2 2.074254 1_555
O19 P5 1.548454 1_555
O20 P10 1.539186 1_655
O20 Ti1 1.916775 1_555
O21 P5 1.556571 1_555
O21 Ti3 1.885387 1_555
O22 P4 1.559589 1_555
O22 Ti3 2.040725 1_554
O23 P5 1.546245 1_555
O23 Ti1 2.013193 1_565
O24 P6 1.568103 1_555
O24 Ti2 2.069209 1_545
O25 P7 1.550418 1_555
O25 Ti0 1.976755 1_556
O26 P6 1.537784 1_555
O26 Ti0 1.923672 1_555
O27 P1 1.559044 1_455
O27 Ti2 1.880699 1_555
O28 P6 1.560391 1_555
O29 P7 1.554517 1_555
O29 Ti1 1.977660 1_555
O30 P8 1.556625 1_555
O30 Ti2 1.890319 1_545
O31 P9 1.547696 1_554
O31 Ti0 1.914379 1_555
O32 P8 1.542816 1_555
O32 Ti1 1.976735 1_555
O33 P9 1.556224 1_555
O33 Ti3 1.974042 1_545
O34 P0 1.564394 1_555
O34 Ti2 1.869506 1_545
O35 P10 1.509352 1_565
O36 P7 1.556038 1_555
O36 Ti3 1.964905 1_655
O37 P8 1.551104 1_555
O38 P9 1.558690 1_555
O39 P8 1.530489 1_555
O40 P10 1.556420 1_555
O41 P10 1.574784 1_555
O42 P11 1.562463 1_555
O43 P11 1.517858 1_555
O44 P7 1.516634 1_455
O45 P11 1.554704 1_555
O45 Ti3 2.074568 1_655
O46 P2 1.530076 1_556
O47 P5 1.530605 1_555
