# generated using pymatgen
data_Ti5V(PO4)6
_symmetry_space_group_name_H-M   'P 1'
_cell_length_a   8.44972174
_cell_length_b   8.44972174
_cell_length_c   8.44972213
_cell_angle_alpha   62.41125309
_cell_angle_beta   62.41125309
_cell_angle_gamma   62.41125586
_symmetry_Int_Tables_number   1
_chemical_formula_structural   Ti5V(PO4)6
_chemical_formula_sum   'Ti5 V1 P6 O24'
_cell_volume   449.52983808
_cell_formula_units_Z   1
loop_
 _symmetry_equiv_pos_site_id
 _symmetry_equiv_pos_as_xyz
  1  'x, y, z'
loop_
 _atom_site_type_symbol
 _atom_site_label
 _atom_site_symmetry_multiplicity
 _atom_site_fract_x
 _atom_site_fract_y
 _atom_site_fract_z
 _atom_site_occupancy
  Ti  Ti0  1  0.00030500  0.00030500  0.00030500  1
  Ti  Ti1  1  0.36050000  0.36050000  0.36050000  1
  Ti  Ti2  1  0.49871700  0.49871700  0.49871700  1
  Ti  Ti3  1  0.14183100  0.14183100  0.14183100  1
  Ti  Ti4  1  0.63965900  0.63965900  0.63965900  1
  V  V0  1  0.86027700  0.86027700  0.86027700  1
  P  P0  1  0.75106800  0.04016200  0.45874500  1
  P  P1  1  0.04016200  0.45874500  0.75106800  1
  P  P2  1  0.45874500  0.75106800  0.04016200  1
  P  P3  1  0.54288600  0.24903100  0.95927400  1
  P  P4  1  0.95927400  0.54288600  0.24903100  1
  P  P5  1  0.24903100  0.95927400  0.54288600  1
  O  O0  1  0.88419400  0.49963500  0.67874700  1
  O  O1  1  0.49963500  0.67874700  0.88419400  1
  O  O2  1  0.67874700  0.88419400  0.49963500  1
  O  O3  1  0.90498800  0.05540000  0.25774000  1
  O  O4  1  0.82042400  0.00627900  0.60911300  1
  O  O5  1  0.59567800  0.24125200  0.43924000  1
  O  O6  1  0.05540000  0.25774000  0.90498800  1
  O  O7  1  0.24125200  0.43924000  0.59567800  1
  O  O8  1  0.38661900  0.17680000  0.00144700  1
  O  O9  1  0.43924000  0.59567800  0.24125200  1
  O  O10  1  0.74152800  0.09977600  0.94607500  1
  O  O11  1  0.00144700  0.38661900  0.17680000  1
  O  O12  1  0.00627900  0.60911300  0.82042400  1
  O  O13  1  0.25774000  0.90498800  0.05540000  1
  O  O14  1  0.55440300  0.40334900  0.75950600  1
  O  O15  1  0.60911300  0.82042400  0.00627900  1
  O  O16  1  0.75950600  0.55440300  0.40334900  1
  O  O17  1  0.94607500  0.74152800  0.09977600  1
  O  O18  1  0.40334900  0.75950600  0.55440300  1
  O  O19  1  0.17680000  0.00144700  0.38661900  1
  O  O20  1  0.09977600  0.94607500  0.74152800  1
  O  O21  1  0.32425800  0.11445200  0.49665200  1
  O  O22  1  0.49665200  0.32425800  0.11445200  1
  O  O23  1  0.11445200  0.49665200  0.32425800  1
loop_
_geom_bond_atom_site_label_1
_geom_bond_atom_site_label_2
_geom_bond_distance
_geom_bond_site_symmetry_2
O0 P1 1.535664 1_655
O0 Ti4 1.945281 1_555
O1 P2 1.535664 1_556
O1 Ti4 1.945281 1_555
O2 P0 1.535663 1_565
O2 Ti4 1.945281 1_555
O3 P0 1.580916 1_555
O3 Ti3 2.091265 1_655
O3 Ti0 2.136603 1_655
O4 P0 1.495691 1_555
O4 V0 1.997860 1_545
O5 P0 1.585204 1_555
O5 Ti1 2.038604 1_555
O5 Ti2 2.153379 1_555
O6 P1 1.580916 1_555
O6 Ti3 2.091266 1_556
O6 Ti0 2.136603 1_556
O7 P1 1.585204 1_555
O7 Ti1 2.038604 1_555
O7 Ti2 2.153379 1_555
O8 P3 1.533674 1_554
O8 Ti3 1.934295 1_555
O9 P2 1.585204 1_555
O9 Ti1 2.038604 1_555
O9 Ti2 2.153379 1_555
O10 P3 1.554486 1_555
O10 V0 2.105249 1_545
O10 Ti0 2.136972 1_656
O11 P4 1.533674 1_455
O11 Ti3 1.934295 1_555
O12 P1 1.495691 1_555
O12 V0 1.997860 1_455
O13 P2 1.580916 1_555
O13 Ti3 2.091266 1_565
O13 Ti0 2.136603 1_565
O14 P3 1.576616 1_555
O14 Ti4 2.077308 1_555
O14 Ti2 2.165876 1_555
O15 P2 1.495691 1_555
O15 V0 1.997860 1_554
O16 P4 1.576616 1_555
O16 Ti4 2.077308 1_555
O16 Ti2 2.165876 1_555
O17 P4 1.554486 1_555
O17 V0 2.105249 1_554
O17 Ti0 2.136971 1_665
O18 P5 1.576616 1_555
O18 Ti4 2.077308 1_555
O18 Ti2 2.165876 1_555
O19 P5 1.533674 1_545
O19 Ti3 1.934295 1_555
O20 P5 1.554486 1_555
O20 V0 2.105249 1_455
O20 Ti0 2.136972 1_566
O21 P5 1.530837 1_545
O21 Ti1 1.946198 1_555
O22 P3 1.530837 1_554
O22 Ti1 1.946198 1_555
O23 P4 1.530837 1_455
O23 Ti1 1.946198 1_555
