# generated using pymatgen
data_Li2FePO5
_symmetry_space_group_name_H-M   'P 1'
_cell_length_a   4.51919200
_cell_length_b   9.07458600
_cell_length_c   9.18727800
_cell_angle_alpha   90.00000000
_cell_angle_beta   90.00000000
_cell_angle_gamma   90.00000000
_symmetry_Int_Tables_number   1
_chemical_formula_structural   Li2FePO5
_chemical_formula_sum   'Li8 Fe4 P4 O20'
_cell_volume   376.76840075
_cell_formula_units_Z   4
loop_
 _symmetry_equiv_pos_site_id
 _symmetry_equiv_pos_as_xyz
  1  'x, y, z'
loop_
 _atom_site_type_symbol
 _atom_site_label
 _atom_site_symmetry_multiplicity
 _atom_site_fract_x
 _atom_site_fract_y
 _atom_site_fract_z
 _atom_site_occupancy
  Li  Li0  1  0.58682000  0.00000000  0.00125500  1
  Li  Li1  1  0.41318000  0.00000000  0.50125500  1
  Li  Li2  1  0.00702900  0.25369400  0.00170700  1
  Li  Li3  1  0.99297100  0.25369400  0.50170700  1
  Li  Li4  1  0.00654900  0.50000000  0.26012200  1
  Li  Li5  1  0.99345100  0.50000000  0.76012200  1
  Li  Li6  1  0.00702900  0.74630600  0.00170700  1
  Li  Li7  1  0.99297100  0.74630600  0.50170700  1
  Fe  Fe0  1  0.96679300  0.00000000  0.28433900  1
  Fe  Fe1  1  0.03320700  0.00000000  0.78433900  1
  Fe  Fe2  1  0.44748900  0.50000000  0.99709800  1
  Fe  Fe3  1  0.55251100  0.50000000  0.49709800  1
  P  P0  1  0.50217400  0.24853200  0.24787900  1
  P  P1  1  0.49782600  0.24853200  0.74787900  1
  P  P2  1  0.50217400  0.75146800  0.24787900  1
  P  P3  1  0.49782600  0.75146800  0.74787900  1
  O  O0  1  0.83175800  0.00000000  0.46937600  1
  O  O1  1  0.16824200  0.00000000  0.96937600  1
  O  O2  1  0.72160100  0.15035600  0.16081900  1
  O  O3  1  0.27839900  0.15035600  0.66081900  1
  O  O4  1  0.28348100  0.15469100  0.33852000  1
  O  O5  1  0.71651900  0.15469100  0.83852000  1
  O  O6  1  0.31173400  0.34573400  0.14503400  1
  O  O7  1  0.68826600  0.34573400  0.64503400  1
  O  O8  1  0.69442800  0.34754700  0.34804300  1
  O  O9  1  0.30557200  0.34754700  0.84804300  1
  O  O10  1  0.15303000  0.50000000  0.49286800  1
  O  O11  1  0.84697000  0.50000000  0.99286800  1
  O  O12  1  0.30557200  0.65245300  0.84804300  1
  O  O13  1  0.69442800  0.65245300  0.34804300  1
  O  O14  1  0.31173400  0.65426600  0.14503400  1
  O  O15  1  0.68826600  0.65426600  0.64503400  1
  O  O16  1  0.28348100  0.84530900  0.33852000  1
  O  O17  1  0.71651900  0.84530900  0.83852000  1
  O  O18  1  0.27839900  0.84964400  0.66081900  1
  O  O19  1  0.72160100  0.84964400  0.16081900  1
loop_
_geom_bond_atom_site_label_1
_geom_bond_atom_site_label_2
_geom_bond_distance
_geom_bond_site_symmetry_2
Li0 O1 1.914173 1_554
Li0 O2 2.093246 1_555
Li0 O19 2.093246 1_545
Li0 O5 2.132929 1_554
Li0 O17 2.132929 1_544
Li1 O0 1.914173 1_555
Li1 O3 2.093246 1_555
Li1 O18 2.093246 1_545
Li1 O4 2.132929 1_555
Li1 O16 2.132929 1_545
Li2 O6 2.080315 1_555
Li2 O9 2.130416 1_554
Li2 O2 2.163355 1_455
Li2 O5 2.185979 1_454
Li2 O11 2.350658 1_454
Li2 O1 2.432899 1_554
Li3 O7 2.080315 1_555
Li3 O8 2.130416 1_555
Li3 O3 2.163355 1_655
Li3 O4 2.185979 1_655
Li3 O10 2.350658 1_655
Li3 O0 2.432899 1_555
Li4 O13 2.134480 1_455
Li4 O8 2.134480 1_455
Li4 O14 2.231561 1_555
Li4 O6 2.231561 1_555
Li4 O10 2.238425 1_555
Li4 O11 2.559055 1_454
Li5 O12 2.134480 1_655
Li5 O9 2.134480 1_655
Li5 O15 2.231561 1_555
Li5 O7 2.231561 1_555
Li5 O11 2.238425 1_555
Li5 O10 2.559055 1_655
Li6 O14 2.080315 1_555
Li6 O12 2.130416 1_554
Li6 O19 2.163355 1_455
Li6 O17 2.185979 1_454
Li6 O11 2.350658 1_454
Li6 O1 2.432899 1_564
Li7 O15 2.080315 1_555
Li7 O13 2.130416 1_555
Li7 O18 2.163355 1_655
Li7 O16 2.185979 1_655
Li7 O10 2.350658 1_655
Li7 O0 2.432899 1_565
Fe0 O0 1.806200 1_555
Fe0 O4 2.065568 1_655
Fe0 O16 2.065568 1_645
Fe0 O2 2.092189 1_555
Fe0 O19 2.092189 1_545
Fe1 O1 1.806200 1_555
Fe1 O5 2.065568 1_455
Fe1 O17 2.065568 1_445
Fe1 O3 2.092189 1_555
Fe1 O18 2.092189 1_545
Fe2 O11 1.805750 1_555
Fe2 O14 2.045321 1_556
Fe2 O6 2.045321 1_556
Fe2 O12 2.049522 1_555
Fe2 O9 2.049522 1_555
Fe3 O10 1.805750 1_555
Fe3 O15 2.045321 1_555
Fe3 O7 2.045321 1_555
Fe3 O13 2.049522 1_555
Fe3 O8 2.049522 1_555
O2 P0 1.554606 1_555
O3 P1 1.554606 1_555
O4 P0 1.547708 1_555
O5 P1 1.547708 1_555
O6 P0 1.552903 1_555
O7 P1 1.552903 1_555
O8 P0 1.552108 1_555
O9 P1 1.552108 1_555
O12 P3 1.552108 1_555
O13 P2 1.552108 1_555
O14 P2 1.552903 1_555
O15 P3 1.552903 1_555
O16 P2 1.547708 1_555
O17 P3 1.547708 1_555
O18 P3 1.554606 1_555
O19 P2 1.554606 1_555
