# generated using pymatgen
data_Li10Mn3Cr3(FeO8)2
_symmetry_space_group_name_H-M   'P 1'
_cell_length_a   5.96645200
_cell_length_b   6.05571692
_cell_length_c   9.96310150
_cell_angle_alpha   91.30205342
_cell_angle_beta   90.59983639
_cell_angle_gamma   119.24064283
_symmetry_Int_Tables_number   1
_chemical_formula_structural   Li10Mn3Cr3(FeO8)2
_chemical_formula_sum   'Li10 Mn3 Cr3 Fe2 O16'
_cell_volume   313.93121071
_cell_formula_units_Z   1
loop_
 _symmetry_equiv_pos_site_id
 _symmetry_equiv_pos_as_xyz
  1  'x, y, z'
loop_
 _atom_site_type_symbol
 _atom_site_label
 _atom_site_symmetry_multiplicity
 _atom_site_fract_x
 _atom_site_fract_y
 _atom_site_fract_z
 _atom_site_occupancy
  Li  Li0  1  0.67828900  0.32512500  0.72203400  1
  Li  Li1  1  0.82179300  0.60330100  0.93685300  1
  Li  Li2  1  0.80753000  0.19915000  0.94731000  1
  Li  Li3  1  0.39409500  0.20232700  0.93979700  1
  Li  Li4  1  0.61086600  0.82266800  0.43072800  1
  Li  Li5  1  0.30736300  0.65433900  0.22094900  1
  Li  Li6  1  0.20536100  0.40306500  0.44725500  1
  Li  Li7  1  0.98855900  0.98468800  0.01748500  1
  Li  Li8  1  0.00246400  0.00500900  0.51682200  1
  Li  Li9  1  0.19134100  0.80405000  0.43935000  1
  Mn  Mn0  1  0.32230900  0.16436600  0.21674700  1
  Mn  Mn1  1  0.17754700  0.33757200  0.71642000  1
  Mn  Mn2  1  0.17869800  0.83012000  0.71432300  1
  Cr  Cr0  1  0.81629100  0.65896200  0.21376000  1
  Cr  Cr1  1  0.67627900  0.83266100  0.71455100  1
  Cr  Cr2  1  0.81779000  0.16270500  0.21451300  1
  Fe  Fe0  1  0.66535200  0.34557700  0.47210700  1
  Fe  Fe1  1  0.33931500  0.66809600  0.97317000  1
  O  O0  1  0.84758700  0.16050000  0.60907200  1
  O  O1  1  0.97327900  0.48931900  0.33288600  1
  O  O2  1  0.86282000  0.68816000  0.59920400  1
  O  O3  1  0.49554300  0.02437300  0.32800100  1
  O  O4  1  0.67623800  0.33816000  0.09213400  1
  O  O5  1  0.49351800  0.49298900  0.32452500  1
  O  O6  1  0.66851300  0.83571300  0.09815100  1
  O  O7  1  0.33363400  0.19979900  0.58864900  1
  O  O8  1  0.50406300  0.50869100  0.82609400  1
  O  O9  1  0.95735100  0.98267000  0.33171900  1
  O  O10  1  0.00621300  0.96799200  0.83114800  1
  O  O11  1  0.14697300  0.30353900  0.10334500  1
  O  O12  1  0.35251100  0.70027500  0.59207100  1
  O  O13  1  0.49706100  0.98364300  0.82986600  1
  O  O14  1  0.02529500  0.48244700  0.83803500  1
  O  O15  1  0.14958300  0.83243400  0.10614200  1
loop_
_geom_bond_atom_site_label_1
_geom_bond_atom_site_label_2
_geom_bond_distance
_geom_bond_site_symmetry_2
Li0 O0 2.058500 1_555
Li0 O8 2.119026 1_555
Li0 O14 2.121963 1_655
Li0 O13 2.130839 1_545
Li0 O7 2.223271 1_555
Li0 O2 2.308399 1_555
Li1 O14 1.959486 1_655
Li1 O8 2.001525 1_555
Li1 O4 2.122363 1_556
Li1 O10 2.225553 1_655
Li1 O15 2.401753 1_656
Li1 O6 2.566168 1_556
Li2 O14 1.937387 1_655
Li2 O4 2.004224 1_556
Li2 O13 2.006772 1_545
Li2 O11 2.357272 1_656
Li2 O6 2.486632 1_546
Li2 O10 2.506083 1_645
Li3 O13 2.018347 1_545
Li3 O8 2.019315 1_555
Li3 O4 2.085896 1_556
Li3 O10 2.282695 1_545
Li3 O11 2.468304 1_556
Li4 O3 1.968779 1_565
Li4 O5 2.029403 1_555
Li4 O9 2.077207 1_555
Li4 O12 2.121153 1_555
Li4 O0 2.509337 1_565
Li5 O5 2.082133 1_555
Li5 O1 2.089685 1_455
Li5 O15 2.093589 1_555
Li5 O11 2.163061 1_555
Li5 O3 2.197230 1_565
Li5 O6 2.269447 1_555
Li6 O5 1.976671 1_555
Li6 O1 2.046766 1_455
Li6 O12 2.098473 1_555
Li6 O7 2.249888 1_555
Li6 O9 2.479227 1_445
Li6 O0 2.535727 1_455
Li7 O15 1.854180 1_655
Li7 O10 1.863829 1_654
Li7 O11 1.865055 1_665
Li7 O6 1.867675 1_555
Li8 O0 1.847641 1_455
Li8 O9 1.853245 1_445
Li8 O7 1.860844 1_555
Li8 O2 1.890378 1_445
Li9 O1 1.976626 1_455
Li9 O3 2.012144 1_565
Li9 O12 2.058645 1_555
Li9 O2 2.375562 1_455
Li9 O9 2.401182 1_455
Li9 O7 2.549628 1_565
Mn0 O3 1.972409 1_555
Mn0 O11 1.990253 1_555
Mn0 O5 2.012643 1_555
Mn0 O15 2.041718 1_545
Mn0 O9 2.243459 1_445
Mn0 O4 2.247523 1_555
Mn1 O14 1.953549 1_555
Mn1 O7 1.979779 1_555
Mn1 O8 1.998693 1_555
Mn1 O0 2.002711 1_455
Mn1 O10 2.294797 1_545
Mn1 O12 2.315086 1_555
Mn2 O10 1.982745 1_555
Mn2 O2 1.983321 1_455
Mn2 O12 1.989184 1_555
Mn2 O13 1.994474 1_555
Mn2 O14 2.246909 1_555
Mn2 O7 2.358771 1_565
Cr0 O5 2.034870 1_555
Cr0 O9 2.048173 1_555
Cr0 O6 2.050983 1_555
Cr0 O4 2.055859 1_555
Cr0 O15 2.064599 1_655
Cr0 O1 2.076909 1_555
Cr1 O0 2.055573 1_565
Cr1 O10 2.056450 1_655
Cr1 O13 2.057285 1_555
Cr1 O12 2.063163 1_555
Cr1 O2 2.063425 1_555
Cr1 O8 2.072037 1_555
Cr2 O9 2.042058 1_545
Cr2 O3 2.047419 1_555
Cr2 O6 2.051688 1_545
Cr2 O1 2.059616 1_555
Cr2 O4 2.059812 1_555
Cr2 O11 2.064854 1_655
Fe0 O7 2.105333 1_555
Fe0 O1 2.145445 1_555
Fe0 O2 2.181041 1_555
Fe0 O3 2.188301 1_555
Fe0 O5 2.220860 1_555
Fe0 O0 2.351477 1_555
Fe1 O6 2.093393 1_556
Fe1 O14 2.099405 1_555
Fe1 O8 2.222187 1_555
Fe1 O13 2.229528 1_555
Fe1 O15 2.258120 1_556
Fe1 O11 2.357743 1_556
