# generated using pymatgen
data_Hg3I2ClO6
_symmetry_space_group_name_H-M   'P 1'
_cell_length_a   13.70226900
_cell_length_b   7.75667900
_cell_length_c   12.83676442
_cell_angle_alpha   54.97443881
_cell_angle_beta   90.00000000
_cell_angle_gamma   90.00000000
_symmetry_Int_Tables_number   1
_chemical_formula_structural   Hg3I2ClO6
_chemical_formula_sum   'Hg12 I8 Cl4 O24'
_cell_volume   1117.25593156
_cell_formula_units_Z   4
loop_
 _symmetry_equiv_pos_site_id
 _symmetry_equiv_pos_as_xyz
  1  'x, y, z'
loop_
 _atom_site_type_symbol
 _atom_site_label
 _atom_site_symmetry_multiplicity
 _atom_site_fract_x
 _atom_site_fract_y
 _atom_site_fract_z
 _atom_site_occupancy
  Hg  Hg0  1  0.19215800  0.22880200  0.73664600  1
  Hg  Hg1  1  0.30784200  0.22880200  0.23664600  1
  Hg  Hg2  1  0.80784200  0.77119800  0.26335400  1
  Hg  Hg3  1  0.69215800  0.77119800  0.76335400  1
  Hg  Hg4  1  0.19404700  0.44481800  0.93178200  1
  Hg  Hg5  1  0.30595300  0.44481800  0.43178200  1
  Hg  Hg6  1  0.80595300  0.55518200  0.06821800  1
  Hg  Hg7  1  0.69404700  0.55518200  0.56821800  1
  Hg  Hg8  1  0.32264600  0.97986200  0.04326000  1
  Hg  Hg9  1  0.17735400  0.97986200  0.54326000  1
  Hg  Hg10  1  0.67735400  0.02013800  0.95674000  1
  Hg  Hg11  1  0.82264600  0.02013800  0.45674000  1
  I  I0  1  0.13867600  0.68022900  0.01096400  1
  I  I1  1  0.36132400  0.68022900  0.51096400  1
  I  I2  1  0.86132400  0.31977100  0.98903600  1
  I  I3  1  0.63867600  0.31977100  0.48903600  1
  I  I4  1  0.44476500  0.66228400  0.18540600  1
  I  I5  1  0.05523500  0.66228400  0.68540600  1
  I  I6  1  0.55523500  0.33771600  0.81459400  1
  I  I7  1  0.94476500  0.33771600  0.31459400  1
  Cl  Cl0  1  0.39636700  0.85377200  0.76045900  1
  Cl  Cl1  1  0.10363300  0.85377200  0.26045900  1
  Cl  Cl2  1  0.60363300  0.14622800  0.23954100  1
  Cl  Cl3  1  0.89636700  0.14622800  0.73954100  1
  O  O0  1  0.21695500  0.20026800  0.90395500  1
  O  O1  1  0.28304500  0.20026800  0.40395500  1
  O  O2  1  0.78304500  0.79973200  0.09604500  1
  O  O3  1  0.71695500  0.79973200  0.59604500  1
  O  O4  1  0.17793100  0.26165500  0.56913800  1
  O  O5  1  0.32206900  0.26165500  0.06913800  1
  O  O6  1  0.82206900  0.73834500  0.43086200  1
  O  O7  1  0.67793100  0.73834500  0.93086200  1
  O  O8  1  0.30315500  0.77408000  0.74139100  1
  O  O9  1  0.19684500  0.77408000  0.24139100  1
  O  O10  1  0.69684500  0.22592000  0.25860900  1
  O  O11  1  0.80315500  0.22592000  0.75860900  1
  O  O12  1  0.46816300  0.87605600  0.66965200  1
  O  O13  1  0.03183700  0.87605600  0.16965200  1
  O  O14  1  0.53183700  0.12394400  0.33034800  1
  O  O15  1  0.96816300  0.12394400  0.83034800  1
  O  O16  1  0.42874700  0.70654800  0.88966200  1
  O  O17  1  0.07125300  0.70654800  0.38966200  1
  O  O18  1  0.57125300  0.29345200  0.11033800  1
  O  O19  1  0.92874700  0.29345200  0.61033800  1
  O  O20  1  0.37681400  0.06069500  0.73536900  1
  O  O21  1  0.12318600  0.06069500  0.23536900  1
  O  O22  1  0.62318600  0.93930500  0.26463100  1
  O  O23  1  0.87681400  0.93930500  0.76463100  1
loop_
_geom_bond_atom_site_label_1
_geom_bond_atom_site_label_2
_geom_bond_distance
_geom_bond_site_symmetry_2
Hg0 O4 2.024247 1_555
Hg0 O0 2.057044 1_555
Hg1 O5 2.024247 1_555
Hg1 O1 2.057044 1_555
Hg2 O6 2.024247 1_555
Hg2 O2 2.057044 1_555
Hg3 O7 2.024247 1_555
Hg3 O3 2.057044 1_555
Hg4 O0 2.145258 1_555
Hg4 O5 2.308478 1_556
Hg4 I0 2.659624 1_556
Hg4 O8 2.750647 1_555
Hg4 I5 3.215868 1_555
Hg5 O1 2.145258 1_555
Hg5 O4 2.308478 1_555
Hg5 I1 2.659624 1_555
Hg5 O9 2.750647 1_555
Hg5 I4 3.215868 1_555
Hg6 O2 2.145258 1_555
Hg6 O7 2.308478 1_554
Hg6 I2 2.659624 1_554
Hg6 O10 2.750647 1_555
Hg6 I7 3.215868 1_555
Hg7 O3 2.145258 1_555
Hg7 O6 2.308478 1_555
Hg7 I3 2.659624 1_555
Hg7 O11 2.750647 1_555
Hg7 I6 3.215868 1_555
Hg8 O0 2.169921 1_564
Hg8 O5 2.391967 1_565
Hg8 I4 2.652920 1_555
Hg8 O9 2.706992 1_555
Hg9 O1 2.169921 1_565
Hg9 O4 2.391967 1_565
Hg9 I5 2.652920 1_555
Hg9 O8 2.706992 1_555
Hg10 O2 2.169921 1_546
Hg10 O7 2.391967 1_545
Hg10 I6 2.652920 1_555
Hg10 O11 2.706992 1_555
Hg11 O3 2.169921 1_545
Hg11 O6 2.391967 1_545
Hg11 I7 2.652920 1_555
Hg11 O10 2.706992 1_555
Cl0 O16 1.441396 1_555
Cl0 O12 1.457799 1_555
Cl0 O20 1.469103 1_565
Cl0 O8 1.498992 1_555
Cl1 O17 1.441396 1_555
Cl1 O13 1.457799 1_555
Cl1 O21 1.469103 1_565
Cl1 O9 1.498992 1_555
Cl2 O18 1.441396 1_555
Cl2 O14 1.457799 1_555
Cl2 O22 1.469103 1_545
Cl2 O10 1.498992 1_555
Cl3 O19 1.441396 1_555
Cl3 O15 1.457799 1_555
Cl3 O23 1.469103 1_545
Cl3 O11 1.498992 1_555
