# generated using pymatgen
data_Gd2(WO4)3
_symmetry_space_group_name_H-M   'P 1'
_cell_length_a   7.00453936
_cell_length_b   7.00453936
_cell_length_c   11.53711607
_cell_angle_alpha   79.15608701
_cell_angle_beta   79.15608701
_cell_angle_gamma   112.22253832
_symmetry_Int_Tables_number   1
_chemical_formula_structural   Gd2(WO4)3
_chemical_formula_sum   'Gd4 W6 O24'
_cell_volume   493.27777564
_cell_formula_units_Z   2
loop_
 _symmetry_equiv_pos_site_id
 _symmetry_equiv_pos_as_xyz
  1  'x, y, z'
loop_
 _atom_site_type_symbol
 _atom_site_label
 _atom_site_symmetry_multiplicity
 _atom_site_fract_x
 _atom_site_fract_y
 _atom_site_fract_z
 _atom_site_occupancy
  Gd  Gd0  1  0.69343100  0.94799600  0.59471500  1
  Gd  Gd1  1  0.94799600  0.69343100  0.09471500  1
  Gd  Gd2  1  0.05200400  0.30656900  0.90528500  1
  Gd  Gd3  1  0.30656900  0.05200400  0.40528500  1
  W  W0  1  0.50854100  0.79722100  0.95206100  1
  W  W1  1  0.79722100  0.50854100  0.45206100  1
  W  W2  1  0.11812300  0.88187700  0.75000000  1
  W  W3  1  0.88187700  0.11812300  0.25000000  1
  W  W4  1  0.20277900  0.49145900  0.54793900  1
  W  W5  1  0.49145900  0.20277900  0.04793900  1
  O  O0  1  0.64918800  0.79552700  0.80209100  1
  O  O1  1  0.40542200  0.98824900  0.72010000  1
  O  O2  1  0.02649900  0.94746800  0.89169900  1
  O  O3  1  0.67316800  0.60622700  0.56146900  1
  O  O4  1  0.22191100  0.62207700  0.96217600  1
  O  O5  1  0.89819400  0.32427000  0.57630200  1
  O  O6  1  0.79552700  0.64918800  0.30209100  1
  O  O7  1  0.67573000  0.10180600  0.92369800  1
  O  O8  1  0.37792300  0.77808800  0.53782400  1
  O  O9  1  0.39377300  0.32683200  0.93853100  1
  O  O10  1  0.05253200  0.97350100  0.60830100  1
  O  O11  1  0.98824900  0.40542200  0.22010000  1
  O  O12  1  0.01175100  0.59457800  0.77990000  1
  O  O13  1  0.94746800  0.02649900  0.39169900  1
  O  O14  1  0.60622700  0.67316800  0.06146900  1
  O  O15  1  0.62207700  0.22191200  0.46217600  1
  O  O16  1  0.32427000  0.89819400  0.07630200  1
  O  O17  1  0.20447300  0.35081200  0.69790900  1
  O  O18  1  0.10180600  0.67573000  0.42369800  1
  O  O19  1  0.77808900  0.37792300  0.03782400  1
  O  O20  1  0.32683200  0.39377300  0.43853100  1
  O  O21  1  0.97350100  0.05253200  0.10830100  1
  O  O22  1  0.59457800  0.01175100  0.27990000  1
  O  O23  1  0.35081200  0.20447300  0.19790900  1
loop_
_geom_bond_atom_site_label_1
_geom_bond_atom_site_label_2
_geom_bond_distance
_geom_bond_site_symmetry_2
Gd0 O0 2.338806 1_555
Gd0 O8 2.362517 1_555
Gd0 O1 2.393227 1_555
Gd0 O5 2.421588 1_565
Gd0 O3 2.450951 1_555
Gd0 O13 2.482285 1_565
Gd0 O15 2.485609 1_565
Gd0 O10 2.490459 1_655
Gd1 O6 2.338806 1_555
Gd1 O19 2.362516 1_555
Gd1 O11 2.393227 1_555
Gd1 O16 2.421588 1_655
Gd1 O14 2.450951 1_555
Gd1 O2 2.482285 1_654
Gd1 O4 2.485603 1_654
Gd1 O21 2.490459 1_565
Gd2 O17 2.338806 1_555
Gd2 O4 2.362516 1_555
Gd2 O12 2.393227 1_555
Gd2 O7 2.421588 1_455
Gd2 O9 2.450951 1_555
Gd2 O21 2.482285 1_456
Gd2 O19 2.485603 1_456
Gd2 O2 2.490459 1_545
Gd3 O23 2.338806 1_555
Gd3 O15 2.362517 1_555
Gd3 O22 2.393227 1_555
Gd3 O18 2.421588 1_545
Gd3 O20 2.450951 1_555
Gd3 O10 2.482285 1_545
Gd3 O8 2.485609 1_545
Gd3 O13 2.490459 1_455
O0 W0 1.827446 1_555
O1 W2 1.797724 1_555
O2 W2 1.845643 1_555
O3 W1 1.782845 1_555
O4 W0 1.882672 1_555
O5 W4 1.932224 1_655
O5 W1 2.143980 1_555
O6 W1 1.827446 1_555
O7 W0 1.932224 1_545
O7 W5 2.143980 1_556
O8 W4 1.882666 1_555
O9 W5 1.782845 1_556
O10 W2 1.845643 1_555
O11 W3 1.797724 1_555
O12 W2 1.797724 1_555
O13 W3 1.845643 1_555
O14 W0 1.782845 1_554
O15 W1 1.882666 1_555
O16 W5 1.932224 1_565
O16 W0 2.143980 1_554
O17 W4 1.827446 1_555
O18 W1 1.932224 1_455
O18 W4 2.143980 1_555
O19 W5 1.882672 1_555
O20 W4 1.782845 1_555
O21 W3 1.845643 1_555
O22 W3 1.797724 1_555
O23 W5 1.827446 1_555
