# generated using pymatgen
data_Li6Mn5Fe(BO3)6
_symmetry_space_group_name_H-M   'P 1'
_cell_length_a   8.27309800
_cell_length_b   8.27603239
_cell_length_c   12.72996895
_cell_angle_alpha   89.93297471
_cell_angle_beta   90.16870139
_cell_angle_gamma   119.95158997
_symmetry_Int_Tables_number   1
_chemical_formula_structural   Li6Mn5Fe(BO3)6
_chemical_formula_sum   'Li12 Mn10 Fe2 B12 O36'
_cell_volume   755.19318972
_cell_formula_units_Z   2
loop_
 _symmetry_equiv_pos_site_id
 _symmetry_equiv_pos_as_xyz
  1  'x, y, z'
loop_
 _atom_site_type_symbol
 _atom_site_label
 _atom_site_symmetry_multiplicity
 _atom_site_fract_x
 _atom_site_fract_y
 _atom_site_fract_z
 _atom_site_occupancy
  Li  Li0  1  0.71609300  0.69859600  0.87497400  1
  Li  Li1  1  0.71592200  0.69832000  0.12489200  1
  Li  Li2  1  0.71609000  0.69838500  0.37524000  1
  Li  Li3  1  0.71622900  0.69855300  0.62480500  1
  Li  Li4  1  0.98284000  0.28406300  0.87500000  1
  Li  Li5  1  0.98334200  0.28469500  0.62482900  1
  Li  Li6  1  0.98317200  0.28479400  0.37489800  1
  Li  Li7  1  0.98280600  0.28365500  0.12516100  1
  Li  Li8  1  0.30167000  0.01759100  0.62517900  1
  Li  Li9  1  0.30187400  0.01714500  0.37488100  1
  Li  Li10  1  0.30121200  0.01733100  0.87503200  1
  Li  Li11  1  0.30138400  0.01679800  0.12517700  1
  Mn  Mn0  1  0.62890100  0.98818400  0.99998000  1
  Mn  Mn1  1  0.62784600  0.98796800  0.50008900  1
  Mn  Mn2  1  0.62880200  0.98810900  0.75003700  1
  Mn  Mn3  1  0.62782600  0.98803800  0.25018100  1
  Mn  Mn4  1  0.35954900  0.37111400  0.00004200  1
  Mn  Mn5  1  0.35919300  0.37107800  0.74866400  1
  Mn  Mn6  1  0.35985300  0.37188200  0.25134100  1
  Mn  Mn7  1  0.01204900  0.63958500  0.49880400  1
  Mn  Mn8  1  0.01214500  0.64103000  0.00122000  1
  Mn  Mn9  1  0.01170700  0.64046900  0.75004700  1
  Fe  Fe0  1  0.35942400  0.36653000  0.49979800  1
  Fe  Fe1  1  0.00803100  0.64006300  0.24899400  1
  B  B0  1  0.99995300  0.00010200  0.00012500  1
  B  B1  1  0.99988000  0.99982200  0.74996600  1
  B  B2  1  0.00009600  0.00251200  0.49992900  1
  B  B3  1  0.00181600  0.99949300  0.25008400  1
  B  B4  1  0.66761500  0.33433700  0.12626900  1
  B  B5  1  0.66673300  0.33345400  0.87503600  1
  B  B6  1  0.66593100  0.33326800  0.62382500  1
  B  B7  1  0.66658000  0.33431300  0.37507000  1
  B  B8  1  0.33318700  0.66654700  0.87501400  1
  B  B9  1  0.33349100  0.66555400  0.62415300  1
  B  B10  1  0.33193300  0.66533500  0.37481000  1
  B  B11  1  0.33206000  0.66622000  0.12580600  1
  O  O0  1  0.88471100  0.80638600  0.74999000  1
  O  O1  1  0.88473200  0.80668800  0.00022700  1
  O  O2  1  0.88854100  0.80914000  0.49996600  1
  O  O3  1  0.88836500  0.80538400  0.25085800  1
  O  O4  1  0.86149700  0.44221200  0.12786900  1
  O  O5  1  0.86018900  0.44080400  0.87548500  1
  O  O6  1  0.85933300  0.44101300  0.62445100  1
  O  O7  1  0.85975900  0.44236500  0.37265000  1
  O  O8  1  0.92161600  0.11535300  0.00009500  1
  O  O9  1  0.92007800  0.11582400  0.49991900  1
  O  O10  1  0.92047900  0.11179200  0.25009900  1
  O  O11  1  0.92160900  0.11511400  0.74992400  1
  O  O12  1  0.55993300  0.41995900  0.12555600  1
  O  O13  1  0.55835700  0.41958700  0.37765500  1
  O  O14  1  0.55922800  0.41945400  0.87465700  1
  O  O15  1  0.55799900  0.41892700  0.62256600  1
  O  O16  1  0.58212700  0.14113100  0.12496100  1
  O  O17  1  0.58069000  0.14006800  0.87499500  1
  O  O18  1  0.58141400  0.14101300  0.37477800  1
  O  O19  1  0.58035300  0.13999400  0.62499200  1
  O  O20  1  0.52681200  0.77788700  0.87498400  1
  O  O21  1  0.52575600  0.77792700  0.37520000  1
  O  O22  1  0.52708900  0.77787100  0.62468600  1
  O  O23  1  0.52579800  0.77799000  0.12510700  1
  O  O24  1  0.19343300  0.07829200  0.00005800  1
  O  O25  1  0.19336500  0.07807300  0.74984300  1
  O  O26  1  0.19463300  0.08403500  0.49987200  1
  O  O27  1  0.19521600  0.07933200  0.25001800  1
  O  O28  1  0.22184600  0.74892300  0.87523100  1
  O  O29  1  0.22181200  0.74784500  0.62481300  1
  O  O30  1  0.21962300  0.74696000  0.37326900  1
  O  O31  1  0.21980900  0.74744500  0.12646600  1
  O  O32  1  0.25242600  0.47231300  0.62330800  1
  O  O33  1  0.25113600  0.47305100  0.87480200  1
  O  O34  1  0.25202200  0.47215900  0.37595300  1
  O  O35  1  0.25097500  0.47276000  0.12534100  1
loop_
_geom_bond_atom_site_label_1
_geom_bond_atom_site_label_2
_geom_bond_distance
_geom_bond_site_symmetry_2
Li0 O20 1.977088 1_555
Li0 O14 2.006857 1_555
Li0 O1 2.008248 1_556
Li0 O0 2.010063 1_555
Li1 O23 1.986058 1_555
Li1 O12 2.001006 1_555
Li1 O1 2.008065 1_555
Li1 O3 2.029622 1_555
Li2 O21 1.986941 1_555
Li2 O13 2.005286 1_555
Li2 O3 2.018004 1_555
Li2 O2 2.020120 1_555
Li3 O22 1.976130 1_555
Li3 O0 2.006739 1_555
Li3 O15 2.011192 1_555
Li3 O2 2.025471 1_555
Li4 O33 1.976501 1_655
Li4 O5 2.006681 1_555
Li4 O8 2.008817 1_556
Li4 O11 2.009973 1_555
Li5 O32 1.978825 1_655
Li5 O9 2.006360 1_555
Li5 O11 2.012530 1_555
Li5 O6 2.012828 1_555
Li6 O34 1.976811 1_655
Li6 O9 2.007914 1_555
Li6 O7 2.018194 1_555
Li6 O10 2.025303 1_555
Li7 O35 1.975948 1_655
Li7 O8 2.006854 1_555
Li7 O4 2.011383 1_555
Li7 O10 2.021310 1_555
Li8 O29 1.986832 1_545
Li8 O19 2.002432 1_555
Li8 O25 2.007473 1_555
Li8 O26 2.026554 1_555
Li9 O30 1.985977 1_545
Li9 O27 2.003323 1_555
Li9 O18 2.007985 1_555
Li9 O26 2.031282 1_555
Li10 O28 1.977152 1_545
Li10 O25 2.006522 1_555
Li10 O17 2.008146 1_555
Li10 O24 2.010512 1_556
Li11 O31 1.980583 1_545
Li11 O27 2.007235 1_555
Li11 O24 2.009249 1_555
Li11 O16 2.016668 1_555
Mn0 O8 2.104074 1_566
Mn0 O17 2.182382 1_565
Mn0 O16 2.186484 1_566
Mn0 O20 2.192050 1_555
Mn0 O23 2.193346 1_556
Mn1 O9 2.100073 1_565
Mn1 O19 2.183461 1_565
Mn1 O18 2.184956 1_565
Mn1 O22 2.188148 1_555
Mn1 O21 2.189786 1_555
Mn2 O11 2.104869 1_565
Mn2 O19 2.183866 1_565
Mn2 O17 2.186012 1_565
Mn2 O20 2.191887 1_555
Mn2 O22 2.195081 1_555
Mn3 O10 2.105907 1_565
Mn3 O16 2.181573 1_565
Mn3 O18 2.181676 1_565
Mn3 O23 2.191537 1_555
Mn3 O21 2.191995 1_555
Mn4 O24 2.106176 1_555
Mn4 O12 2.186635 1_555
Mn4 O14 2.188797 1_554
Mn4 O33 2.191336 1_554
Mn4 O35 2.196540 1_555
Mn5 O25 2.107304 1_555
Mn5 O32 2.180871 1_555
Mn5 O14 2.189919 1_555
Mn5 O15 2.191445 1_555
Mn5 O33 2.203347 1_555
Mn6 O27 2.103451 1_555
Mn6 O34 2.179819 1_555
Mn6 O13 2.185618 1_555
Mn6 O12 2.195155 1_555
Mn6 O35 2.195538 1_555
Mn7 O2 2.108373 1_455
Mn7 O7 2.184327 1_455
Mn7 O30 2.186674 1_555
Mn7 O6 2.188107 1_455
Mn7 O29 2.195868 1_555
Mn8 O1 2.105666 1_455
Mn8 O31 2.178437 1_555
Mn8 O5 2.191453 1_454
Mn8 O4 2.194984 1_455
Mn8 O28 2.201270 1_554
Mn9 O0 2.104740 1_455
Mn9 O6 2.187849 1_455
Mn9 O5 2.188374 1_455
Mn9 O28 2.190075 1_555
Mn9 O29 2.196191 1_555
Fe0 O26 2.035168 1_555
Fe0 O15 2.145809 1_555
Fe0 O13 2.147311 1_555
Fe0 O34 2.191656 1_555
Fe0 O32 2.192563 1_555
Fe1 O3 2.050712 1_455
Fe1 O4 2.130981 1_455
Fe1 O7 2.158909 1_455
Fe1 O31 2.179560 1_555
Fe1 O30 2.188685 1_555
B0 O24 1.395219 1_655
B0 O8 1.395367 1_555
B0 O1 1.395454 1_545
B1 O25 1.395204 1_665
B1 O11 1.395238 1_565
B1 O0 1.395552 1_555
B2 O9 1.391960 1_455
B2 O2 1.392147 1_445
B2 O26 1.400423 1_555
B3 O27 1.393194 1_565
B3 O10 1.393217 1_465
B3 O3 1.398629 1_455
B4 O12 1.387854 1_555
B4 O16 1.388519 1_555
B4 O4 1.392919 1_555
B5 O14 1.389132 1_555
B5 O17 1.389463 1_555
B5 O5 1.389605 1_555
B6 O19 1.388959 1_555
B6 O6 1.389453 1_555
B6 O15 1.390009 1_555
B7 O7 1.388515 1_555
B7 O18 1.389302 1_555
B7 O13 1.389943 1_555
B8 O33 1.392754 1_555
B8 O28 1.392967 1_555
B8 O20 1.393269 1_555
B9 O32 1.391605 1_555
B9 O22 1.393814 1_555
B9 O29 1.394960 1_555
B10 O34 1.392060 1_555
B10 O30 1.395229 1_555
B10 O21 1.395543 1_555
B11 O31 1.392041 1_555
B11 O35 1.393208 1_555
B11 O23 1.394400 1_555
