# generated using pymatgen
data_Li3V2P4(HO8)2
_symmetry_space_group_name_H-M   'P 1'
_cell_length_a   7.88482400
_cell_length_b   8.08329692
_cell_length_c   9.74204072
_cell_angle_alpha   90.68507635
_cell_angle_beta   111.89786282
_cell_angle_gamma   90.12720440
_symmetry_Int_Tables_number   1
_chemical_formula_structural   Li3V2P4(HO8)2
_chemical_formula_sum   'Li6 V4 P8 H4 O32'
_cell_volume   576.05775224
_cell_formula_units_Z   2
loop_
 _symmetry_equiv_pos_site_id
 _symmetry_equiv_pos_as_xyz
  1  'x, y, z'
loop_
 _atom_site_type_symbol
 _atom_site_label
 _atom_site_symmetry_multiplicity
 _atom_site_fract_x
 _atom_site_fract_y
 _atom_site_fract_z
 _atom_site_occupancy
  Li  Li0  1  0.65703400  0.63375400  0.27830700  1
  Li  Li1  1  0.34442800  0.36624200  0.23000700  1
  Li  Li2  1  0.14915600  0.86829500  0.27161100  1
  Li  Li3  1  0.85108200  0.13392400  0.72185300  1
  Li  Li4  1  0.65777100  0.63449400  0.77622700  1
  Li  Li5  1  0.34381200  0.36828200  0.72792700  1
  V  V0  1  0.99510100  0.49430100  0.24703200  1
  V  V1  1  0.51076500  0.00229800  0.25109400  1
  V  V2  1  0.99972100  0.50533800  0.75005400  1
  V  V3  1  0.49783300  0.99851600  0.75191200  1
  P  P0  1  0.76856000  0.84937400  0.06881200  1
  P  P1  1  0.26283100  0.65489700  0.06644100  1
  P  P2  1  0.73047900  0.34795600  0.43326600  1
  P  P3  1  0.76842200  0.85220500  0.56878100  1
  P  P4  1  0.23762700  0.15135700  0.43316200  1
  P  P5  1  0.26354000  0.65714600  0.56559700  1
  P  P6  1  0.73161200  0.34830200  0.93186000  1
  P  P7  1  0.23850000  0.15329800  0.93312600  1
  H  H0  1  0.48947700  0.51006300  0.00981900  1
  H  H1  1  0.48914300  0.50950800  0.50925800  1
  H  H2  1  0.01144400  0.00970700  0.49048100  1
  H  H3  1  0.01293900  0.00832300  0.99010700  1
  O  O0  1  0.94696400  0.93848500  0.09124000  1
  O  O1  1  0.85209500  0.32864900  0.09607100  1
  O  O2  1  0.80571800  0.68236200  0.14807000  1
  O  O3  1  0.64730000  0.95009700  0.13954900  1
  O  O4  1  0.44848000  0.56028200  0.09563900  1
  O  O5  1  0.35379500  0.17342100  0.10072700  1
  O  O6  1  0.31472000  0.82344300  0.14825000  1
  O  O7  1  0.16427400  0.54550200  0.14300100  1
  O  O8  1  0.83709800  0.45216300  0.35985800  1
  O  O9  1  0.67940000  0.17392000  0.36099300  1
  O  O10  1  0.64318100  0.82929000  0.40059300  1
  O  O11  1  0.55199800  0.44435400  0.40582100  1
  O  O12  1  0.34767300  0.04678000  0.35776700  1
  O  O13  1  0.19229200  0.31807800  0.35606000  1
  O  O14  1  0.93738500  0.95568200  0.59184100  1
  O  O15  1  0.85025600  0.32803500  0.59947400  1
  O  O16  1  0.14973100  0.67435700  0.39914800  1
  O  O17  1  0.06225500  0.04770300  0.40684900  1
  O  O18  1  0.80587900  0.68333000  0.64390800  1
  O  O19  1  0.65056600  0.95353900  0.64288900  1
  O  O20  1  0.44651000  0.55795300  0.59499400  1
  O  O21  1  0.35517600  0.17306800  0.60090300  1
  O  O22  1  0.32094700  0.82676300  0.64085800  1
  O  O23  1  0.16239600  0.54887800  0.63955900  1
  O  O24  1  0.83624700  0.45531400  0.85669600  1
  O  O25  1  0.68726000  0.17620000  0.85167300  1
  O  O26  1  0.64457800  0.82837500  0.90119800  1
  O  O27  1  0.55094500  0.44076900  0.90484100  1
  O  O28  1  0.35491900  0.05154300  0.86260700  1
  O  O29  1  0.19081600  0.31770900  0.85172100  1
  O  O30  1  0.14877700  0.67190000  0.90203000  1
  O  O31  1  0.05463100  0.06212800  0.90685700  1
loop_
_geom_bond_atom_site_label_1
_geom_bond_atom_site_label_2
_geom_bond_distance
_geom_bond_site_symmetry_2
Li0 O10 1.995541 1_555
Li0 O8 1.999329 1_555
Li0 O4 2.002812 1_555
Li0 O2 2.063477 1_555
Li0 O11 2.319529 1_555
Li1 O11 1.972191 1_555
Li1 O7 1.994061 1_555
Li1 O5 2.010958 1_555
Li1 O13 2.051021 1_555
Li1 O4 2.385631 1_555
Li2 O0 1.972183 1_455
Li2 O16 2.010899 1_555
Li2 O12 2.053565 1_565
Li2 O6 2.107565 1_555
Li2 O17 2.222719 1_565
Li3 O15 1.980495 1_555
Li3 O31 2.008116 1_655
Li3 O19 2.067185 1_545
Li3 O25 2.143583 1_555
Li3 O14 2.178703 1_545
Li4 O24 1.976359 1_555
Li4 O26 1.999683 1_555
Li4 O20 2.012556 1_555
Li4 O18 2.077079 1_555
Li4 O27 2.357928 1_555
Li5 O27 1.962943 1_555
Li5 O23 2.009750 1_555
Li5 O21 2.016434 1_555
Li5 O29 2.042456 1_555
Li5 O20 2.346828 1_555
H0 O4 1.078115 1_555
H0 O27 1.397062 1_554
H1 O20 1.079893 1_555
H1 O11 1.378189 1_555
H2 O17 1.080539 1_555
H2 O14 1.395005 1_445
H3 O31 1.077799 1_555
H3 O0 1.397958 1_446
O0 P0 1.519154 1_555
O1 P6 1.536254 1_554
O1 V0 1.984069 1_555
O2 P0 1.537041 1_555
O2 V0 2.107471 1_555
O3 P0 1.591674 1_555
O3 V1 1.838897 1_565
O4 P1 1.583719 1_555
O5 P7 1.550699 1_554
O5 V1 2.072382 1_555
O6 P1 1.545015 1_555
O6 V1 2.069698 1_565
O7 P1 1.545048 1_555
O7 V0 1.998414 1_455
O8 P2 1.545118 1_555
O8 V0 1.976037 1_555
O9 P2 1.548957 1_555
O9 V1 1.932152 1_555
O10 P3 1.574540 1_555
O10 V1 2.021869 1_565
O11 P2 1.545419 1_555
O12 P4 1.571863 1_555
O12 V1 1.962868 1_555
O13 P4 1.527815 1_555
O13 V0 2.094971 1_455
O14 P3 1.514028 1_555
O15 P2 1.551112 1_555
O15 V2 2.060963 1_555
O16 P5 1.540978 1_555
O16 V0 2.096133 1_455
O17 P4 1.550847 1_555
O18 P3 1.533214 1_555
O18 V2 2.083706 1_555
O19 P3 1.595429 1_555
O19 V3 1.912405 1_555
O20 P5 1.583887 1_555
O21 P4 1.556577 1_555
O21 V3 2.059769 1_545
O22 P5 1.532298 1_555
O22 V3 1.968031 1_555
O23 P5 1.536783 1_555
O23 V2 1.991174 1_455
O24 P6 1.558110 1_555
O24 V2 1.977589 1_555
O25 P6 1.560746 1_555
O25 V3 2.027955 1_545
O26 P0 1.566139 1_556
O26 V3 2.035947 1_555
O27 P6 1.544983 1_555
O28 P7 1.565678 1_555
O28 V3 1.874558 1_545
O29 P7 1.530196 1_555
O29 V2 2.117652 1_455
O30 P1 1.524621 1_556
O30 V2 2.008338 1_455
O31 P7 1.557062 1_555
