# generated using pymatgen
data_Dy2Te4O11
_symmetry_space_group_name_H-M   'P 1'
_cell_length_a   6.76348768
_cell_length_b   6.76348768
_cell_length_c   17.74352269
_cell_angle_alpha   64.73828013
_cell_angle_beta   64.73828013
_cell_angle_gamma   44.99237711
_symmetry_Int_Tables_number   1
_chemical_formula_structural   Dy2Te4O11
_chemical_formula_sum   'Dy4 Te8 O22'
_cell_volume   508.97709333
_cell_formula_units_Z   2
loop_
 _symmetry_equiv_pos_site_id
 _symmetry_equiv_pos_as_xyz
  1  'x, y, z'
loop_
 _atom_site_type_symbol
 _atom_site_label
 _atom_site_symmetry_multiplicity
 _atom_site_fract_x
 _atom_site_fract_y
 _atom_site_fract_z
 _atom_site_occupancy
  Dy  Dy0  1  0.66053200  0.67326900  0.96676800  1
  Dy  Dy1  1  0.34797600  0.32857900  0.53394500  1
  Dy  Dy2  1  0.33182900  0.34805000  0.03395800  1
  Dy  Dy3  1  0.67163500  0.65838100  0.46698200  1
  Te  Te0  1  0.95265100  0.04714900  0.62130300  1
  Te  Te1  1  0.97316300  0.02668500  0.87517600  1
  Te  Te2  1  0.02972600  0.97304800  0.37572600  1
  Te  Te3  1  0.01890400  0.96925700  0.12649500  1
  Te  Te4  1  0.35697700  0.30730500  0.80435900  1
  Te  Te5  1  0.70443200  0.65853200  0.69530300  1
  Te  Te6  1  0.64794800  0.70596500  0.19400300  1
  Te  Te7  1  0.31373400  0.34510800  0.30152000  1
  O  O0  1  0.05176000  0.67657800  0.62843600  1
  O  O1  1  0.32118300  0.95088200  0.86648700  1
  O  O2  1  0.93546900  0.32624100  0.37163100  1
  O  O3  1  0.67733300  0.05693000  0.12414300  1
  O  O4  1  0.69414200  0.29377500  0.55094500  1
  O  O5  1  0.71585400  0.30626700  0.94832400  1
  O  O6  1  0.28555400  0.72783700  0.44786200  1
  O  O7  1  0.28934400  0.68894700  0.05379700  1
  O  O8  1  0.25903700  0.00732200  0.54477600  1
  O  O9  1  0.01019300  0.71039900  0.95750000  1
  O  O10  1  0.71942600  0.99271500  0.45841400  1
  O  O11  1  0.98728300  0.28001000  0.04503500  1
  O  O12  1  0.83807300  0.50721000  0.59822000  1
  O  O13  1  0.47741600  0.15669400  0.90742500  1
  O  O14  1  0.14977500  0.48941100  0.40166800  1
  O  O15  1  0.51815400  0.84933000  0.09527000  1
  O  O16  1  0.43595200  0.04074300  0.66637600  1
  O  O17  1  0.95775100  0.57506200  0.83225900  1
  O  O18  1  0.58207300  0.96285400  0.32965200  1
  O  O19  1  0.05468200  0.41728100  0.16314700  1
  O  O20  1  0.39983200  0.61438800  0.75091700  1
  O  O21  1  0.60025000  0.39924200  0.25260400  1
loop_
_geom_bond_atom_site_label_1
_geom_bond_atom_site_label_2
_geom_bond_distance
_geom_bond_site_symmetry_2
Dy0 O11 2.244983 1_556
Dy0 O7 2.270006 1_556
Dy0 O17 2.355410 1_555
Dy0 O5 2.384041 1_555
Dy0 O13 2.404203 1_565
Dy0 O9 2.481093 1_655
Dy0 O15 2.522994 1_556
Dy0 O1 2.549149 1_555
Dy1 O10 2.218267 1_545
Dy1 O6 2.284901 1_555
Dy1 O16 2.305661 1_555
Dy1 O4 2.321784 1_555
Dy1 O0 2.489224 1_555
Dy1 O8 2.552159 1_555
Dy1 O12 2.565107 1_455
Dy1 O14 2.633021 1_555
Dy2 O9 2.172427 1_554
Dy2 O19 2.234888 1_555
Dy2 O5 2.257148 1_554
Dy2 O7 2.278560 1_555
Dy2 O3 2.427495 1_555
Dy2 O15 2.484988 1_545
Dy2 O13 2.544791 1_554
Dy2 O11 2.594133 1_455
Dy3 O4 2.202457 1_555
Dy3 O8 2.332425 1_565
Dy3 O18 2.399554 1_555
Dy3 O14 2.410709 1_655
Dy3 O10 2.437081 1_555
Dy3 O6 2.457538 1_555
Dy3 O2 2.467870 1_555
Dy3 O12 2.512446 1_555
O0 Te0 2.042678 1_465
O0 Te5 2.200944 1_455
O1 Te1 1.969258 1_465
O1 Te4 2.326939 1_565
O2 Te2 1.963557 1_645
O2 Te7 2.391453 1_655
O3 Te3 1.952951 1_645
O3 Te6 2.270755 1_545
O4 Te0 1.832613 1_555
O5 Te1 1.949674 1_555
O6 Te2 1.844541 1_555
O7 Te3 1.942309 1_555
O8 Te0 1.825260 1_455
O9 Te1 1.913122 1_465
O10 Te2 1.928342 1_655
O11 Te3 1.894082 1_645
O12 Te5 1.923326 1_555
O12 Te0 2.494597 1_555
O13 Te4 1.885042 1_555
O13 Te1 2.639104 1_555
O14 Te7 1.899341 1_555
O14 Te2 2.616938 1_555
O15 Te6 1.854374 1_555
O15 Te3 2.698091 1_555
O16 Te5 1.807497 1_545
O17 Te4 1.877111 1_655
O18 Te7 1.806178 1_565
O19 Te6 1.926014 1_455
O20 Te5 2.047082 1_555
O20 Te4 2.057389 1_555
O21 Te7 1.984789 1_555
O21 Te6 2.075590 1_555
