# generated using pymatgen
data_Li5CuP3O11
_symmetry_space_group_name_H-M   'P 1'
_cell_length_a   5.39043700
_cell_length_b   8.26558540
_cell_length_c   9.59864665
_cell_angle_alpha   96.24415570
_cell_angle_beta   90.69791856
_cell_angle_gamma   95.07948818
_symmetry_Int_Tables_number   1
_chemical_formula_structural   Li5CuP3O11
_chemical_formula_sum   'Li10 Cu2 P6 O22'
_cell_volume   423.35934608
_cell_formula_units_Z   2
loop_
 _symmetry_equiv_pos_site_id
 _symmetry_equiv_pos_as_xyz
  1  'x, y, z'
loop_
 _atom_site_type_symbol
 _atom_site_label
 _atom_site_symmetry_multiplicity
 _atom_site_fract_x
 _atom_site_fract_y
 _atom_site_fract_z
 _atom_site_occupancy
  Li  Li0  1  0.23614500  0.66901000  0.33646500  1
  Li  Li1  1  0.26263200  0.35088600  0.82373500  1
  Li  Li2  1  0.30504400  0.61827100  0.68836300  1
  Li  Li3  1  0.18948800  0.37319400  0.14972500  1
  Li  Li4  1  0.49975100  0.00495900  0.84866200  1
  Li  Li5  1  0.50024900  0.99504100  0.15133800  1
  Li  Li6  1  0.81051200  0.62680600  0.85027500  1
  Li  Li7  1  0.69495600  0.38172900  0.31163700  1
  Li  Li8  1  0.73736800  0.64911400  0.17626500  1
  Li  Li9  1  0.76385500  0.33099000  0.66353500  1
  Cu  Cu0  1  0.00000000  0.00000000  0.00000000  1
  Cu  Cu1  1  0.50000000  0.00000000  0.50000000  1
  P  P0  1  0.03452200  0.03409700  0.30464100  1
  P  P1  1  0.24810300  0.69677400  0.01272500  1
  P  P2  1  0.26522500  0.32277000  0.47514000  1
  P  P3  1  0.73477500  0.67723000  0.52486000  1
  P  P4  1  0.75189700  0.30322600  0.98727500  1
  P  P5  1  0.96547800  0.96590300  0.69535900  1
  O  O0  1  0.00091000  0.77247200  0.06661400  1
  O  O1  1  0.03658900  0.18452700  0.42881800  1
  O  O2  1  0.11672700  0.12015200  0.17468900  1
  O  O3  1  0.17807000  0.58181700  0.87615700  1
  O  O4  1  0.18004900  0.39944800  0.61548900  1
  O  O5  1  0.23105200  0.04284800  0.70535700  1
  O  O6  1  0.24273600  0.92814100  0.34185300  1
  O  O7  1  0.29696000  0.43295900  0.35731900  1
  O  O8  1  0.35327500  0.60617600  0.13075700  1
  O  O9  1  0.43613600  0.83824900  0.98012800  1
  O  O10  1  0.49072400  0.76423200  0.51821800  1
  O  O11  1  0.50927600  0.23576800  0.48178200  1
  O  O12  1  0.56386400  0.16175100  0.01987200  1
  O  O13  1  0.64672500  0.39382400  0.86924300  1
  O  O14  1  0.70304000  0.56704100  0.64268100  1
  O  O15  1  0.75726400  0.07185900  0.65814700  1
  O  O16  1  0.76894800  0.95715200  0.29464300  1
  O  O17  1  0.81995100  0.60055200  0.38451100  1
  O  O18  1  0.82193000  0.41818300  0.12384300  1
  O  O19  1  0.88327300  0.87984800  0.82531100  1
  O  O20  1  0.96341100  0.81547300  0.57118200  1
  O  O21  1  0.99909000  0.22752800  0.93338600  1
loop_
_geom_bond_atom_site_label_1
_geom_bond_atom_site_label_2
_geom_bond_distance
_geom_bond_site_symmetry_2
Li0 O7 2.037386 1_555
Li0 O8 2.105341 1_555
Li0 O6 2.133993 1_555
Li0 O10 2.235611 1_555
Li0 O17 2.328775 1_455
Li1 O3 2.013736 1_555
Li1 O21 2.044235 1_455
Li1 O13 2.101802 1_555
Li1 O4 2.130563 1_555
Li2 O4 1.926700 1_555
Li2 O3 1.979948 1_555
Li2 O14 2.262209 1_555
Li2 O10 2.319298 1_555
Li3 O7 2.063313 1_555
Li3 O18 2.064972 1_455
Li3 O8 2.073692 1_555
Li3 O2 2.133504 1_555
Li3 O21 2.449592 1_454
Li4 O9 1.978346 1_545
Li4 O12 1.985766 1_556
Li4 O5 2.052692 1_555
Li4 O15 2.392195 1_555
Li4 O19 2.394370 1_545
Li5 O12 1.978346 1_565
Li5 O9 1.985766 1_554
Li5 O16 2.052692 1_555
Li5 O6 2.392195 1_555
Li5 O2 2.394370 1_565
Li6 O14 2.063313 1_555
Li6 O3 2.064972 1_655
Li6 O13 2.073692 1_555
Li6 O19 2.133504 1_555
Li6 O0 2.449592 1_656
Li7 O17 1.926700 1_555
Li7 O18 1.979948 1_555
Li7 O7 2.262209 1_555
Li7 O11 2.319298 1_555
Li8 O18 2.013736 1_555
Li8 O0 2.044235 1_655
Li8 O8 2.101802 1_555
Li8 O17 2.130563 1_555
Li9 O14 2.037386 1_555
Li9 O13 2.105341 1_555
Li9 O15 2.133993 1_555
Li9 O11 2.235611 1_555
Li9 O4 2.328775 1_655
Cu0 O2 1.922288 1_555
Cu0 O19 1.922288 1_444
Cu0 O21 2.051549 1_454
Cu0 O0 2.051549 1_545
Cu1 O11 1.971759 1_555
Cu1 O10 1.971759 1_545
Cu1 O15 2.046204 1_555
Cu1 O6 2.046204 1_545
Cu1 O16 2.474127 1_545
Cu1 O5 2.474127 1_555
O0 P1 1.590145 1_555
O1 P0 1.625325 1_555
O1 P2 1.627592 1_555
O2 P0 1.552053 1_555
O3 P1 1.554741 1_556
O4 P2 1.519276 1_555
O5 P5 1.511694 1_445
O6 P0 1.544871 1_565
O7 P2 1.529362 1_555
O8 P1 1.552361 1_555
O9 P1 1.539518 1_556
O10 P3 1.557980 1_555
O11 P2 1.557980 1_555
O12 P4 1.539518 1_554
O13 P4 1.552361 1_555
O14 P3 1.529362 1_555
O15 P5 1.544871 1_545
O16 P0 1.511694 1_665
O17 P3 1.519276 1_555
O18 P4 1.554741 1_554
O19 P5 1.552053 1_555
O20 P5 1.625325 1_555
O20 P3 1.627592 1_555
O21 P4 1.590145 1_555
