# generated using pymatgen
data_LiNiSnO4
_symmetry_space_group_name_H-M   'P 1'
_cell_length_a   6.12738551
_cell_length_b   6.12738551
_cell_length_c   6.12738551
_cell_angle_alpha   123.25826391
_cell_angle_beta   119.12025577
_cell_angle_gamma   87.99090725
_symmetry_Int_Tables_number   1
_chemical_formula_structural   LiNiSnO4
_chemical_formula_sum   'Li2 Ni2 Sn2 O8'
_cell_volume   159.36850573
_cell_formula_units_Z   2
loop_
 _symmetry_equiv_pos_site_id
 _symmetry_equiv_pos_as_xyz
  1  'x, y, z'
loop_
 _atom_site_type_symbol
 _atom_site_label
 _atom_site_symmetry_multiplicity
 _atom_site_fract_x
 _atom_site_fract_y
 _atom_site_fract_z
 _atom_site_occupancy
  Li  Li0  1  0.62406700  0.87406700  0.75000000  1
  Li  Li1  1  0.37593300  0.12593300  0.25000000  1
  Ni  Ni0  1  0.00000000  0.50000000  0.00000000  1
  Ni  Ni1  1  0.00000000  0.00000000  0.50000000  1
  Sn  Sn0  1  0.50000000  0.50000000  0.00000000  1
  Sn  Sn1  1  0.00000000  0.50000000  0.50000000  1
  O  O0  1  0.75554200  0.26991800  0.01437600  1
  O  O1  1  0.78148400  0.74009000  0.04139400  1
  O  O2  1  0.19869600  0.74009000  0.45860600  1
  O  O3  1  0.75554200  0.74116500  0.48562400  1
  O  O4  1  0.24445800  0.25883500  0.51437600  1
  O  O5  1  0.21851600  0.25991000  0.95860600  1
  O  O6  1  0.80130400  0.25991000  0.54139400  1
  O  O7  1  0.24445800  0.73008200  0.98562400  1
loop_
_geom_bond_atom_site_label_1
_geom_bond_atom_site_label_2
_geom_bond_distance
_geom_bond_site_symmetry_2
Li0 O3 1.927063 1_555
Li0 O0 1.927063 1_566
Li0 O1 2.160603 1_556
Li0 O2 2.160603 1_555
Li1 O4 1.927063 1_555
Li1 O7 1.927063 1_544
Li1 O5 2.160603 1_554
Li1 O6 2.160603 1_555
Ni0 O2 1.950496 1_555
Ni0 O5 1.950496 1_554
Ni0 O1 1.950496 1_455
Ni0 O6 1.950496 1_454
Ni0 O7 2.156772 1_554
Ni0 O0 2.156772 1_455
Ni1 O2 1.950496 1_545
Ni1 O5 1.950496 1_555
Ni1 O1 1.950496 1_445
Ni1 O6 1.950496 1_455
Ni1 O4 2.156776 1_555
Ni1 O3 2.156776 1_445
O0 Sn0 2.072252 1_555
O0 Sn1 2.072252 1_655
O1 Sn0 2.132184 1_555
O2 Sn1 2.132184 1_555
O3 Sn1 2.072248 1_655
O3 Sn0 2.072252 1_555
O4 Sn1 2.072248 1_555
O4 Sn0 2.072252 1_556
O5 Sn0 2.132184 1_556
O6 Sn1 2.132184 1_655
O7 Sn1 2.072252 1_555
O7 Sn0 2.072252 1_556
