# generated using pymatgen
data_K3ErSi3(HO5)2
_symmetry_space_group_name_H-M   'P 1'
_cell_length_a   5.93454700
_cell_length_b   13.24106400
_cell_length_c   13.74903600
_cell_angle_alpha   90.00000000
_cell_angle_beta   90.00000000
_cell_angle_gamma   90.00000000
_symmetry_Int_Tables_number   1
_chemical_formula_structural   K3ErSi3(HO5)2
_chemical_formula_sum   'K12 Er4 Si12 H8 O40'
_cell_volume   1080.39535293
_cell_formula_units_Z   4
loop_
 _symmetry_equiv_pos_site_id
 _symmetry_equiv_pos_as_xyz
  1  'x, y, z'
loop_
 _atom_site_type_symbol
 _atom_site_label
 _atom_site_symmetry_multiplicity
 _atom_site_fract_x
 _atom_site_fract_y
 _atom_site_fract_z
 _atom_site_occupancy
  K  K0  1  0.41878900  0.12552800  0.75000000  1
  K  K1  1  0.08917200  0.13848800  0.51380400  1
  K  K2  1  0.08917200  0.13848800  0.98619600  1
  K  K3  1  0.58917200  0.36151200  0.48619600  1
  K  K4  1  0.58917200  0.36151200  0.01380400  1
  K  K5  1  0.91878900  0.37447200  0.25000000  1
  K  K6  1  0.08121100  0.62552800  0.75000000  1
  K  K7  1  0.41082800  0.63848800  0.98619600  1
  K  K8  1  0.41082800  0.63848800  0.51380400  1
  K  K9  1  0.91082800  0.86151200  0.01380400  1
  K  K10  1  0.91082800  0.86151200  0.48619600  1
  K  K11  1  0.58121100  0.87447200  0.25000000  1
  Er  Er0  1  0.09094100  0.04193200  0.25000000  1
  Er  Er1  1  0.59094200  0.45806800  0.75000000  1
  Er  Er2  1  0.40905800  0.54193200  0.25000000  1
  Er  Er3  1  0.90905800  0.95806800  0.75000000  1
  Si  Si0  1  0.59172100  0.09935500  0.10533700  1
  Si  Si1  1  0.59172100  0.09935500  0.39466300  1
  Si  Si2  1  0.91690400  0.24565800  0.75000000  1
  Si  Si3  1  0.41690400  0.25434200  0.25000000  1
  Si  Si4  1  0.09172100  0.40064500  0.60533700  1
  Si  Si5  1  0.09172100  0.40064500  0.89466300  1
  Si  Si6  1  0.90827900  0.59935500  0.10533700  1
  Si  Si7  1  0.90827900  0.59935500  0.39466300  1
  Si  Si8  1  0.58309600  0.74565800  0.75000000  1
  Si  Si9  1  0.08309600  0.75434200  0.25000000  1
  Si  Si10  1  0.40827900  0.90064500  0.89466300  1
  Si  Si11  1  0.40827900  0.90064500  0.60533700  1
  H  H0  1  0.61339400  0.06964000  0.55938100  1
  H  H1  1  0.61339400  0.06964000  0.94061900  1
  H  H2  1  0.11339400  0.43036000  0.05938100  1
  H  H3  1  0.11339400  0.43036000  0.44061900  1
  H  H4  1  0.88660600  0.56964000  0.94061900  1
  H  H5  1  0.88660600  0.56964000  0.55938100  1
  H  H6  1  0.38660600  0.93036000  0.05938100  1
  H  H7  1  0.38660600  0.93036000  0.44061900  1
  O  O0  1  0.37160800  0.03037900  0.13197300  1
  O  O1  1  0.37160800  0.03037900  0.36802700  1
  O  O2  1  0.82996400  0.04658800  0.13259600  1
  O  O3  1  0.82996400  0.04658800  0.36740400  1
  O  O4  1  0.92871200  0.12419300  0.75000000  1
  O  O5  1  0.59129900  0.12930300  0.51398300  1
  O  O6  1  0.59129900  0.12930300  0.98601700  1
  O  O7  1  0.16822000  0.20545800  0.25000000  1
  O  O8  1  0.56630100  0.21441700  0.15346400  1
  O  O9  1  0.56630100  0.21441700  0.34653600  1
  O  O10  1  0.06630100  0.28558300  0.65346400  1
  O  O11  1  0.06630100  0.28558300  0.84653600  1
  O  O12  1  0.66822000  0.29454200  0.75000000  1
  O  O13  1  0.09129900  0.37069700  0.48601700  1
  O  O14  1  0.09129900  0.37069700  0.01398300  1
  O  O15  1  0.42871200  0.37580700  0.25000000  1
  O  O16  1  0.32996400  0.45341200  0.63259600  1
  O  O17  1  0.32996400  0.45341200  0.86740400  1
  O  O18  1  0.87160800  0.46962100  0.63197300  1
  O  O19  1  0.87160800  0.46962100  0.86802700  1
  O  O20  1  0.12839200  0.53037900  0.13197300  1
  O  O21  1  0.12839200  0.53037900  0.36802700  1
  O  O22  1  0.67003600  0.54658800  0.13259600  1
  O  O23  1  0.67003600  0.54658800  0.36740400  1
  O  O24  1  0.57128800  0.62419300  0.75000000  1
  O  O25  1  0.90870100  0.62930300  0.98601700  1
  O  O26  1  0.90870100  0.62930300  0.51398300  1
  O  O27  1  0.33178000  0.70545800  0.25000000  1
  O  O28  1  0.93369900  0.71441700  0.15346400  1
  O  O29  1  0.93369900  0.71441700  0.34653600  1
  O  O30  1  0.43369900  0.78558300  0.65346400  1
  O  O31  1  0.43369900  0.78558300  0.84653600  1
  O  O32  1  0.83178000  0.79454200  0.75000000  1
  O  O33  1  0.40870100  0.87069700  0.01398300  1
  O  O34  1  0.40870100  0.87069700  0.48601700  1
  O  O35  1  0.07128800  0.87580700  0.25000000  1
  O  O36  1  0.17003600  0.95341200  0.63259600  1
  O  O37  1  0.17003600  0.95341200  0.86740400  1
  O  O38  1  0.62839200  0.96962100  0.63197300  1
  O  O39  1  0.62839200  0.96962100  0.86802700  1
loop_
_geom_bond_atom_site_label_1
_geom_bond_atom_site_label_2
_geom_bond_distance
_geom_bond_site_symmetry_2
K0 O12 2.683184 1_555
K0 O39 2.905558 1_545
K0 O38 2.905558 1_545
K0 O4 2.908439 1_455
K0 O4 3.026214 1_555
K0 O37 3.158912 1_545
K0 O36 3.158912 1_545
K0 O11 3.260208 1_555
K0 O10 3.260208 1_555
K1 O10 2.738442 1_555
K1 O3 2.810453 1_455
K1 O5 2.957154 1_455
K1 O1 2.979217 1_555
K1 O5 2.982378 1_555
K1 O36 2.983847 1_545
K1 O13 3.098364 1_555
K2 O11 2.738442 1_555
K2 O2 2.810453 1_456
K2 O6 2.957154 1_455
K2 O0 2.979217 1_556
K2 O6 2.982378 1_555
K2 O37 2.983847 1_545
K2 O14 3.098364 1_556
K3 O9 2.738442 1_555
K3 O16 2.810453 1_555
K3 O13 2.957154 1_555
K3 O18 2.979217 1_555
K3 O13 2.982378 1_655
K3 O23 2.983847 1_555
K3 O5 3.098364 1_555
K4 O8 2.738442 1_555
K4 O17 2.810453 1_554
K4 O14 2.957154 1_555
K4 O19 2.979217 1_554
K4 O14 2.982378 1_655
K4 O22 2.983847 1_555
K4 O6 3.098364 1_554
K5 O7 2.683184 1_655
K5 O21 2.905558 1_655
K5 O20 2.905558 1_655
K5 O15 2.908439 1_555
K5 O15 3.026214 1_655
K5 O22 3.158912 1_555
K5 O23 3.158912 1_555
K5 O9 3.260208 1_555
K5 O8 3.260208 1_555
K6 O32 2.683184 1_455
K6 O18 2.905558 1_455
K6 O19 2.905558 1_455
K6 O24 2.908439 1_555
K6 O24 3.026214 1_455
K6 O17 3.158912 1_555
K6 O16 3.158912 1_555
K6 O30 3.260208 1_555
K6 O31 3.260208 1_555
K7 O31 2.738442 1_555
K7 O22 2.810453 1_556
K7 O25 2.957154 1_555
K7 O20 2.979217 1_556
K7 O25 2.982378 1_455
K7 O17 2.983847 1_555
K7 O33 3.098364 1_556
K8 O30 2.738442 1_555
K8 O23 2.810453 1_555
K8 O26 2.957154 1_555
K8 O21 2.979217 1_555
K8 O26 2.982378 1_455
K8 O16 2.983847 1_555
K8 O34 3.098364 1_555
K9 O28 2.738442 1_555
K9 O37 2.810453 1_654
K9 O33 2.957154 1_655
K9 O39 2.979217 1_554
K9 O33 2.982378 1_555
K9 O2 2.983847 1_565
K9 O25 3.098364 1_554
K10 O29 2.738442 1_555
K10 O36 2.810453 1_655
K10 O34 2.957154 1_655
K10 O38 2.979217 1_555
K10 O34 2.982378 1_555
K10 O3 2.983847 1_565
K10 O26 3.098364 1_555
K11 O27 2.683184 1_555
K11 O0 2.905558 1_565
K11 O1 2.905558 1_565
K11 O35 2.908439 1_655
K11 O35 3.026214 1_555
K11 O2 3.158912 1_565
K11 O3 3.158912 1_565
K11 O29 3.260208 1_555
K11 O28 3.260208 1_555
Er0 O35 2.202762 1_545
Er0 O7 2.213294 1_555
Er0 O2 2.237887 1_455
Er0 O3 2.237887 1_455
Er0 O0 2.330466 1_555
Er0 O1 2.330466 1_555
Er1 O24 2.202762 1_555
Er1 O12 2.213293 1_555
Er1 O17 2.237891 1_555
Er1 O16 2.237891 1_555
Er1 O18 2.330462 1_555
Er1 O19 2.330462 1_555
Er2 O15 2.202762 1_555
Er2 O27 2.213293 1_555
Er2 O22 2.237891 1_555
Er2 O23 2.237891 1_555
Er2 O21 2.330462 1_555
Er2 O20 2.330462 1_555
Er3 O4 2.202762 1_565
Er3 O32 2.213293 1_555
Er3 O36 2.237891 1_655
Er3 O37 2.237891 1_655
Er3 O38 2.330462 1_555
Er3 O39 2.330462 1_555
H0 O5 1.015330 1_555
H0 O38 1.660720 1_545
H0 K0 2.958063 1_555
H1 O6 1.015330 1_555
H1 O39 1.660720 1_545
H1 K0 2.958063 1_555
H2 O14 1.015330 1_555
H2 O20 1.660720 1_555
H2 K5 2.958063 1_455
H3 O13 1.015330 1_555
H3 O21 1.660720 1_555
H3 K5 2.958063 1_455
H4 O25 1.015330 1_555
H4 O19 1.660720 1_555
H4 K6 2.958063 1_655
H5 O26 1.015330 1_555
H5 O18 1.660720 1_555
H5 K6 2.958063 1_655
H6 O33 1.015330 1_555
H6 O0 1.660720 1_565
H6 K11 2.958063 1_555
H7 O34 1.015330 1_555
H7 O1 1.660720 1_565
H7 K11 2.958063 1_555
O0 Si0 1.635422 1_555
O1 Si1 1.635422 1_555
O2 Si0 1.621001 1_555
O3 Si1 1.621001 1_555
O4 Si2 1.609852 1_555
O5 Si1 1.687782 1_555
O6 Si0 1.687782 1_556
O7 Si3 1.611531 1_555
O8 Si0 1.667869 1_555
O8 Si3 1.681428 1_555
O9 Si1 1.667869 1_555
O9 Si3 1.681428 1_555
O10 Si4 1.667869 1_555
O10 Si2 1.681428 1_455
O11 Si5 1.667869 1_555
O11 Si2 1.681428 1_455
O12 Si2 1.611531 1_555
O13 Si4 1.687782 1_555
O14 Si5 1.687782 1_554
O15 Si3 1.609852 1_555
O16 Si4 1.621001 1_555
O17 Si5 1.621001 1_555
O18 Si4 1.635422 1_655
O19 Si5 1.635422 1_655
O20 Si6 1.635422 1_455
O21 Si7 1.635422 1_455
O22 Si6 1.621001 1_555
O23 Si7 1.621001 1_555
O24 Si8 1.609852 1_555
O25 Si6 1.687782 1_556
O26 Si7 1.687782 1_555
O27 Si9 1.611531 1_555
O28 Si6 1.667869 1_555
O28 Si9 1.681428 1_655
O29 Si7 1.667869 1_555
O29 Si9 1.681428 1_655
O30 Si11 1.667869 1_555
O30 Si8 1.681428 1_555
O31 Si10 1.667869 1_555
O31 Si8 1.681428 1_555
O32 Si8 1.611531 1_555
O33 Si10 1.687782 1_554
O34 Si11 1.687782 1_555
O35 Si9 1.609852 1_555
O36 Si11 1.621001 1_555
O37 Si10 1.621001 1_555
O38 Si11 1.635422 1_555
O39 Si10 1.635422 1_555
