# generated using pymatgen
data_Ba5B20(H2O19)2
_symmetry_space_group_name_H-M   'P 1'
_cell_length_a   6.79687800
_cell_length_b   9.63173900
_cell_length_c   11.82094958
_cell_angle_alpha   85.03542288
_cell_angle_beta   90.00000000
_cell_angle_gamma   90.00000000
_symmetry_Int_Tables_number   1
_chemical_formula_structural   Ba5B20(H2O19)2
_chemical_formula_sum   'Ba5 B20 H4 O38'
_cell_volume   770.96414021
_cell_formula_units_Z   1
loop_
 _symmetry_equiv_pos_site_id
 _symmetry_equiv_pos_as_xyz
  1  'x, y, z'
loop_
 _atom_site_type_symbol
 _atom_site_label
 _atom_site_symmetry_multiplicity
 _atom_site_fract_x
 _atom_site_fract_y
 _atom_site_fract_z
 _atom_site_occupancy
  Ba  Ba0  1  0.99388800  0.00000000  0.00000000  1
  Ba  Ba1  1  0.23325900  0.61576700  0.30199900  1
  Ba  Ba2  1  0.23325900  0.38423300  0.69800100  1
  Ba  Ba3  1  0.74733500  0.38144700  0.17559200  1
  Ba  Ba4  1  0.74733500  0.61855300  0.82440800  1
  B  B0  1  0.73006600  0.71490800  0.14264500  1
  B  B1  1  0.73006600  0.28509200  0.85735500  1
  B  B2  1  0.06010300  0.63557800  0.03406900  1
  B  B3  1  0.06010300  0.36442200  0.96593100  1
  B  B4  1  0.21707100  0.04575000  0.30983400  1
  B  B5  1  0.21707100  0.95425000  0.69016600  1
  B  B6  1  0.71882800  0.93028100  0.24515500  1
  B  B7  1  0.71882800  0.06971900  0.75484500  1
  B  B8  1  0.42291600  0.67859000  0.00778000  1
  B  B9  1  0.42291600  0.32141000  0.99222000  1
  B  B10  1  0.69383400  0.70335000  0.35716200  1
  B  B11  1  0.69383400  0.29665000  0.64283800  1
  B  B12  1  0.92576900  0.34230200  0.48363800  1
  B  B13  1  0.92576900  0.65769800  0.51636200  1
  B  B14  1  0.19553800  0.24249600  0.15462100  1
  B  B15  1  0.19553800  0.75750400  0.84537900  1
  B  B16  1  0.22687400  0.28700800  0.36077400  1
  B  B17  1  0.22687400  0.71299200  0.63922600  1
  B  B18  1  0.57307000  0.32959200  0.44533800  1
  B  B19  1  0.57307000  0.67040800  0.55466200  1
  H  H0  1  0.23128000  0.88822800  0.42614100  1
  H  H1  1  0.23128000  0.11177200  0.57385900  1
  H  H2  1  0.73115300  0.10377500  0.31835700  1
  H  H3  1  0.73115300  0.89622500  0.68164300  1
  O  O0  1  0.72188000  0.87058600  0.14346500  1
  O  O1  1  0.72188000  0.12941400  0.85653500  1
  O  O2  1  0.21938400  0.90256000  0.34344800  1
  O  O3  1  0.21938400  0.09744000  0.65655200  1
  O  O4  1  0.27002900  0.63425400  0.07724800  1
  O  O5  1  0.27002900  0.36574600  0.92275200  1
  O  O6  1  0.19875000  0.09000100  0.19678700  1
  O  O7  1  0.19875000  0.90999900  0.80321300  1
  O  O8  1  0.64374600  0.64860900  0.24970500  1
  O  O9  1  0.64374600  0.35139100  0.75029500  1
  O  O10  1  0.77149400  0.31365900  0.40966000  1
  O  O11  1  0.77149400  0.68634100  0.59034000  1
  O  O12  1  0.04523400  0.25864300  0.06447200  1
  O  O13  1  0.04523400  0.74135700  0.93552800  1
  O  O14  1  0.99267500  0.50000000  0.00000000  1
  O  O15  1  0.93885500  0.67228200  0.13213400  1
  O  O16  1  0.93885500  0.32771800  0.86786600  1
  O  O17  1  0.22932600  0.13666400  0.39299200  1
  O  O18  1  0.22932600  0.86333600  0.60700800  1
  O  O19  1  0.73024000  0.07643800  0.24101100  1
  O  O20  1  0.73024000  0.92356200  0.75898900  1
  O  O21  1  0.71383800  0.85546000  0.34737900  1
  O  O22  1  0.71383800  0.14454000  0.65262100  1
  O  O23  1  0.61762400  0.67046300  0.04347200  1
  O  O24  1  0.61762400  0.32953700  0.95652800  1
  O  O25  1  0.39270800  0.28173000  0.10585500  1
  O  O26  1  0.39270800  0.71827000  0.89414500  1
  O  O27  1  0.53387700  0.66528300  0.44241300  1
  O  O28  1  0.53387700  0.33471700  0.55758700  1
  O  O29  1  0.88050000  0.63908900  0.40575800  1
  O  O30  1  0.88050000  0.36091100  0.59424200  1
  O  O31  1  0.11767100  0.35690600  0.44970400  1
  O  O32  1  0.11767100  0.64309400  0.55029600  1
  O  O33  1  0.14324600  0.32609200  0.24918600  1
  O  O34  1  0.14324600  0.67390800  0.75081400  1
  O  O35  1  0.43729900  0.34232300  0.35982500  1
  O  O36  1  0.43729900  0.65767700  0.64017500  1
  O  O37  1  0.40324300  0.00000000  0.00000000  1
loop_
_geom_bond_atom_site_label_1
_geom_bond_atom_site_label_2
_geom_bond_distance
_geom_bond_site_symmetry_2
Ba0 O12 2.690207 1_655
Ba0 O13 2.690207 1_644
Ba0 O0 2.735320 1_545
Ba0 O1 2.735320 1_554
Ba0 O37 2.782336 1_655
Ba0 O6 2.906985 1_655
Ba0 O7 2.906985 1_644
Ba1 O4 2.659082 1_555
Ba1 O27 2.700819 1_555
Ba1 O29 2.711327 1_455
Ba1 O2 2.848438 1_555
Ba1 O15 2.853623 1_455
Ba1 O8 2.869253 1_555
Ba1 O33 2.974903 1_555
Ba1 O35 3.002592 1_555
Ba1 O31 3.021386 1_555
Ba1 O32 3.071655 1_555
Ba2 O5 2.659082 1_555
Ba2 O28 2.700819 1_555
Ba2 O30 2.711327 1_455
Ba2 O3 2.848438 1_555
Ba2 O16 2.853623 1_455
Ba2 O9 2.869253 1_555
Ba2 O34 2.974903 1_555
Ba2 O36 3.002592 1_555
Ba2 O32 3.021386 1_555
Ba2 O31 3.071655 1_555
Ba3 O12 2.737354 1_655
Ba3 O25 2.747523 1_555
Ba3 O10 2.792195 1_555
Ba3 O24 2.820831 1_554
Ba3 O14 2.825374 1_555
Ba3 O33 2.863924 1_655
Ba3 O8 2.876627 1_555
Ba3 O19 2.974691 1_555
Ba3 O35 3.030417 1_555
Ba3 H2 3.038375 1_555
Ba3 O15 3.091333 1_555
Ba3 O23 3.195794 1_555
Ba4 O13 2.737354 1_655
Ba4 O26 2.747523 1_555
Ba4 O11 2.792195 1_555
Ba4 O23 2.820831 1_556
Ba4 O14 2.825374 1_556
Ba4 O34 2.863924 1_655
Ba4 O9 2.876627 1_555
Ba4 O20 2.974691 1_555
Ba4 O36 3.030417 1_555
Ba4 H3 3.038375 1_555
Ba4 O16 3.091333 1_555
Ba4 O24 3.195794 1_555
B0 O15 1.485500 1_555
B0 O8 1.487867 1_555
B0 O23 1.492827 1_555
B0 O0 1.501351 1_555
B1 O16 1.485500 1_555
B1 O9 1.487867 1_555
B1 O24 1.492827 1_555
B1 O1 1.501351 1_555
B2 O14 1.472583 1_455
B2 O13 1.483139 1_554
B2 O15 1.489583 1_455
B2 O4 1.515070 1_555
B3 O14 1.472583 1_456
B3 O12 1.483139 1_556
B3 O16 1.489583 1_455
B3 O5 1.515070 1_555
B4 O6 1.372714 1_555
B4 O17 1.374410 1_555
B4 O2 1.401924 1_545
B5 O7 1.372714 1_555
B5 O18 1.374410 1_555
B5 O3 1.401924 1_565
B6 O21 1.352763 1_555
B6 O0 1.376815 1_555
B6 O19 1.406495 1_565
B7 O22 1.352763 1_555
B7 O1 1.376815 1_555
B7 O20 1.406495 1_545
B8 O4 1.369612 1_555
B8 O26 1.379765 1_554
B8 O23 1.389182 1_555
B9 O5 1.369612 1_555
B9 O25 1.379765 1_556
B9 O24 1.389182 1_555
B10 O8 1.457166 1_555
B10 O21 1.465949 1_555
B10 O29 1.503750 1_555
B10 O27 1.506008 1_555
B11 O9 1.457166 1_555
B11 O22 1.465949 1_555
B11 O30 1.503750 1_555
B11 O28 1.506008 1_555
B12 O31 1.368289 1_655
B12 O30 1.369952 1_555
B12 O10 1.407884 1_555
B13 O32 1.368289 1_655
B13 O29 1.369952 1_555
B13 O11 1.407884 1_555
B14 O12 1.474709 1_555
B14 O33 1.476482 1_555
B14 O25 1.494450 1_555
B14 O6 1.509821 1_555
B15 O13 1.474709 1_555
B15 O34 1.476482 1_555
B15 O26 1.494450 1_555
B15 O7 1.509821 1_555
B16 O33 1.455616 1_555
B16 O17 1.465192 1_555
B16 O31 1.493909 1_555
B16 O35 1.525946 1_555
B17 O34 1.455616 1_555
B17 O18 1.465192 1_555
B17 O32 1.493909 1_555
B17 O36 1.525946 1_555
B18 O28 1.358445 1_555
B18 O35 1.366376 1_555
B18 O10 1.425313 1_555
B19 O27 1.358445 1_555
B19 O36 1.366376 1_555
B19 O11 1.425313 1_555
H0 O2 0.978654 1_555
H1 O3 0.978654 1_555
H2 O19 0.973131 1_555
H3 O20 0.973131 1_555
