# generated using pymatgen
data_LiCo2(SO4)3
_symmetry_space_group_name_H-M   'P 1'
_cell_length_a   8.48617534
_cell_length_b   8.74156800
_cell_length_c   12.02157836
_cell_angle_alpha   90.00000000
_cell_angle_beta   89.83459032
_cell_angle_gamma   90.00000000
_symmetry_Int_Tables_number   1
_chemical_formula_structural   LiCo2(SO4)3
_chemical_formula_sum   'Li4 Co8 S12 O48'
_cell_volume   891.78676602
_cell_formula_units_Z   4
loop_
 _symmetry_equiv_pos_site_id
 _symmetry_equiv_pos_as_xyz
  1  'x, y, z'
loop_
 _atom_site_type_symbol
 _atom_site_label
 _atom_site_symmetry_multiplicity
 _atom_site_fract_x
 _atom_site_fract_y
 _atom_site_fract_z
 _atom_site_occupancy
  Li  Li0  1  0.18951300  0.71894000  0.82087600  1
  Li  Li1  1  0.31048700  0.21894000  0.67912400  1
  Li  Li2  1  0.68951300  0.78106000  0.32087600  1
  Li  Li3  1  0.81048700  0.28106000  0.17912400  1
  Co  Co0  1  0.24397100  0.96669000  0.38285700  1
  Co  Co1  1  0.24650100  0.53864500  0.60918300  1
  Co  Co2  1  0.25602900  0.46669000  0.11714300  1
  Co  Co3  1  0.25349900  0.03864500  0.89081700  1
  Co  Co4  1  0.74650100  0.96135500  0.10918300  1
  Co  Co5  1  0.74397100  0.53331000  0.88285700  1
  Co  Co6  1  0.75349900  0.46135500  0.39081700  1
  Co  Co7  1  0.75602900  0.03331000  0.61714300  1
  S  S0  1  0.03593600  0.24789500  0.50655000  1
  S  S1  1  0.10253800  0.11940400  0.15072900  1
  S  S2  1  0.10921900  0.39066300  0.85569800  1
  S  S3  1  0.39078100  0.89066300  0.64430200  1
  S  S4  1  0.39746200  0.61940400  0.34927100  1
  S  S5  1  0.46406400  0.74789500  0.99345000  1
  S  S6  1  0.53593600  0.25210500  0.00655000  1
  S  S7  1  0.60253800  0.38059600  0.65072900  1
  S  S8  1  0.60921900  0.10933700  0.35569800  1
  S  S9  1  0.89078100  0.60933700  0.14430200  1
  S  S10  1  0.89746200  0.88059600  0.84927100  1
  S  S11  1  0.96406400  0.75210500  0.49345000  1
  O  O0  1  0.04246800  0.63460300  0.56072400  1
  O  O1  1  0.06258900  0.61951200  0.12234000  1
  O  O2  1  0.06643900  0.91439300  0.82442100  1
  O  O3  1  0.07162200  0.81200600  0.40376900  1
  O  O4  1  0.08756700  0.12365600  0.43103800  1
  O  O5  1  0.11843800  0.28785600  0.16991900  1
  O  O6  1  0.14102700  0.08037200  0.03602100  1
  O  O7  1  0.14421100  0.50984100  0.77050600  1
  O  O8  1  0.17482800  0.31449800  0.56450700  1
  O  O9  1  0.16893300  0.24071700  0.81447900  1
  O  O10  1  0.19615300  0.43602400  0.95793600  1
  O  O11  1  0.20434000  0.02641700  0.22684300  1
  O  O12  1  0.29566000  0.52641700  0.27315700  1
  O  O13  1  0.30384700  0.93602400  0.54206400  1
  O  O14  1  0.33106700  0.74071700  0.68552100  1
  O  O15  1  0.32517200  0.81449800  0.93549300  1
  O  O16  1  0.35897300  0.58037200  0.46397900  1
  O  O17  1  0.35578900  0.00984100  0.72949400  1
  O  O18  1  0.38156200  0.78785600  0.33008100  1
  O  O19  1  0.41243300  0.62365600  0.06896200  1
  O  O20  1  0.42837800  0.31200600  0.09623100  1
  O  O21  1  0.43741100  0.11951200  0.37766000  1
  O  O22  1  0.43356100  0.41439300  0.67557900  1
  O  O23  1  0.45753200  0.13460300  0.93927600  1
  O  O24  1  0.54246800  0.86539700  0.06072400  1
  O  O25  1  0.56643900  0.58560700  0.32442100  1
  O  O26  1  0.56258800  0.88048800  0.62234000  1
  O  O27  1  0.57162200  0.68799400  0.90376900  1
  O  O28  1  0.58756700  0.37634400  0.93103800  1
  O  O29  1  0.61843800  0.21214400  0.66991900  1
  O  O30  1  0.64421100  0.99015900  0.27050600  1
  O  O31  1  0.64102700  0.41962800  0.53602100  1
  O  O32  1  0.67482800  0.18550200  0.06450700  1
  O  O33  1  0.66893300  0.25928300  0.31447900  1
  O  O34  1  0.69615300  0.06397600  0.45793600  1
  O  O35  1  0.70434000  0.47358300  0.72684300  1
  O  O36  1  0.79566000  0.97358300  0.77315700  1
  O  O37  1  0.80384700  0.56397600  0.04206400  1
  O  O38  1  0.83106700  0.75928300  0.18552100  1
  O  O39  1  0.82517200  0.68550200  0.43549300  1
  O  O40  1  0.85578900  0.49015900  0.22949400  1
  O  O41  1  0.85897300  0.91962800  0.96397900  1
  O  O42  1  0.88156200  0.71214400  0.83008100  1
  O  O43  1  0.91243300  0.87634400  0.56896200  1
  O  O44  1  0.92837800  0.18799400  0.59623100  1
  O  O45  1  0.93356100  0.08560700  0.17557900  1
  O  O46  1  0.93741200  0.38048800  0.87766000  1
  O  O47  1  0.95753200  0.36539700  0.43927600  1
loop_
_geom_bond_atom_site_label_1
_geom_bond_atom_site_label_2
_geom_bond_distance
_geom_bond_site_symmetry_2
Li0 O7 1.963886 1_555
Li0 O15 1.982624 1_555
Li0 O2 2.002894 1_555
Li0 O14 2.028713 1_555
Li1 O17 1.963886 1_555
Li1 O8 1.982624 1_555
Li1 O22 2.002894 1_555
Li1 O9 2.028713 1_555
Li2 O30 1.963886 1_555
Li2 O39 1.982624 1_555
Li2 O25 2.002894 1_555
Li2 O38 2.028713 1_555
Li3 O40 1.963886 1_555
Li3 O32 1.982624 1_555
Li3 O45 2.002894 1_555
Li3 O33 2.028713 1_555
Co0 O11 1.976607 1_565
Co0 O4 1.993849 1_565
Co0 O13 1.999687 1_555
Co0 O3 2.007142 1_555
Co0 O18 2.050723 1_555
Co0 O21 2.117236 1_565
Co1 O0 2.011659 1_555
Co1 O16 2.020265 1_555
Co1 O22 2.084243 1_555
Co1 O14 2.116897 1_555
Co1 O8 2.121206 1_555
Co1 O7 2.137358 1_555
Co2 O12 1.976607 1_555
Co2 O19 1.993849 1_555
Co2 O10 1.999687 1_554
Co2 O20 2.007142 1_555
Co2 O5 2.050723 1_555
Co2 O1 2.117236 1_555
Co3 O23 2.011659 1_555
Co3 O6 2.020265 1_556
Co3 O2 2.084243 1_545
Co3 O9 2.116897 1_555
Co3 O15 2.121206 1_545
Co3 O17 2.137358 1_555
Co4 O24 2.011659 1_555
Co4 O41 2.020265 1_554
Co4 O45 2.084243 1_565
Co4 O38 2.116897 1_555
Co4 O32 2.121206 1_565
Co4 O30 2.137358 1_555
Co5 O35 1.976607 1_555
Co5 O28 1.993849 1_555
Co5 O37 1.999687 1_556
Co5 O27 2.007142 1_555
Co5 O42 2.050723 1_555
Co5 O46 2.117243 1_555
Co6 O47 2.011659 1_555
Co6 O31 2.020265 1_555
Co6 O25 2.084243 1_555
Co6 O33 2.116897 1_555
Co6 O39 2.121206 1_555
Co6 O40 2.137358 1_555
Co7 O36 1.976607 1_545
Co7 O43 1.993849 1_545
Co7 O34 1.999687 1_555
Co7 O44 2.007142 1_555
Co7 O29 2.050723 1_555
Co7 O26 2.117243 1_545
O0 S11 1.467957 1_455
O1 S9 1.483623 1_455
O2 S10 1.493425 1_455
O3 S11 1.504641 1_455
O4 S0 1.480953 1_555
O5 S1 1.496651 1_555
O6 S1 1.456730 1_555
O7 S2 1.490182 1_555
O8 S0 1.489429 1_555
O9 S2 1.489623 1_555
O10 S2 1.489066 1_555
O11 S1 1.499626 1_555
O12 S4 1.499626 1_555
O13 S3 1.489066 1_555
O14 S3 1.489623 1_555
O15 S5 1.489429 1_555
O16 S4 1.456730 1_555
O17 S3 1.490182 1_545
O18 S4 1.496651 1_555
O19 S5 1.480953 1_554
O20 S6 1.504641 1_555
O21 S8 1.483623 1_555
O22 S7 1.493425 1_555
O23 S6 1.467957 1_556
O24 S5 1.467957 1_554
O25 S4 1.493425 1_555
O26 S3 1.483615 1_555
O27 S5 1.504641 1_555
O28 S6 1.480953 1_556
O29 S7 1.496651 1_555
O30 S8 1.490182 1_565
O31 S7 1.456730 1_555
O32 S6 1.489429 1_555
O33 S8 1.489623 1_555
O34 S8 1.489066 1_555
O35 S7 1.499626 1_555
O36 S10 1.499626 1_555
O37 S9 1.489066 1_555
O38 S9 1.489623 1_555
O39 S11 1.489429 1_555
O40 S9 1.490182 1_555
O41 S10 1.456730 1_555
O42 S10 1.496651 1_555
O43 S11 1.480953 1_555
O44 S0 1.504641 1_655
O45 S1 1.493425 1_655
O46 S2 1.483615 1_655
O47 S0 1.467957 1_655
