# generated using pymatgen
data_Li4Fe3OF11
_symmetry_space_group_name_H-M   'P 1'
_cell_length_a   5.87147500
_cell_length_b   5.96300366
_cell_length_c   6.16867935
_cell_angle_alpha   99.93135168
_cell_angle_beta   100.01992997
_cell_angle_gamma   98.26804919
_symmetry_Int_Tables_number   1
_chemical_formula_structural   Li4Fe3OF11
_chemical_formula_sum   'Li4 Fe3 O1 F11'
_cell_volume   206.10352610
_cell_formula_units_Z   1
loop_
 _symmetry_equiv_pos_site_id
 _symmetry_equiv_pos_as_xyz
  1  'x, y, z'
loop_
 _atom_site_type_symbol
 _atom_site_label
 _atom_site_symmetry_multiplicity
 _atom_site_fract_x
 _atom_site_fract_y
 _atom_site_fract_z
 _atom_site_occupancy
  Li  Li0  1  0.12313000  0.33430300  0.58319200  1
  Li  Li1  1  0.60199500  0.13243900  0.30980200  1
  Li  Li2  1  0.85986000  0.66299600  0.40126700  1
  Li  Li3  1  0.32909100  0.60291000  0.14585500  1
  Fe  Fe0  1  0.68706500  0.37375500  0.86684500  1
  Fe  Fe1  1  0.99406800  0.00359900  0.00719100  1
  Fe  Fe2  1  0.40909500  0.85714600  0.65839100  1
  O  O0  1  0.67904500  0.04553300  0.87331000  1
  F  F0  1  0.07990000  0.32152700  0.95368000  1
  F  F1  1  0.39877900  0.17962800  0.59316400  1
  F  F2  1  0.43718300  0.59264100  0.81689000  1
  F  F3  1  0.94623000  0.11762300  0.30627900  1
  F  F4  1  0.80951400  0.43076900  0.60561600  1
  F  F5  1  0.19348300  0.60149000  0.42162200  1
  F  F6  1  0.08144900  0.89250500  0.70865900  1
  F  F7  1  0.58228300  0.39923800  0.15709800  1
  F  F8  1  0.60011400  0.82309000  0.42867100  1
  F  F9  1  0.88251300  0.68250100  0.04501300  1
  F  F10  1  0.30520500  0.94630500  0.11745200  1
loop_
_geom_bond_atom_site_label_1
_geom_bond_atom_site_label_2
_geom_bond_distance
_geom_bond_site_symmetry_2
Fe0 O0 1.958435 1_555
Fe1 O0 1.959204 1_554
Fe2 O0 1.942879 1_565
F0 Fe1 1.988964 1_456
F0 Li3 2.089406 1_556
F0 Fe0 2.353331 1_455
F0 Li0 2.355789 1_555
F1 Li0 1.971842 1_555
F1 Fe2 2.038444 1_545
F1 Fe0 2.196188 1_555
F1 Li1 2.282743 1_555
F2 Fe2 2.005364 1_555
F2 Fe0 2.117388 1_555
F2 Li3 2.222836 1_556
F2 Li0 2.311588 1_555
F3 Fe1 1.935895 1_555
F3 Li0 1.975215 1_655
F3 Li1 2.039454 1_555
F4 Fe0 1.936761 1_555
F4 Li0 2.026465 1_655
F4 Li2 2.051352 1_555
F4 Li1 2.337144 1_555
F5 Li3 2.000549 1_555
F5 Fe2 2.023213 1_555
F5 Li2 2.030845 1_455
F5 Li0 2.050393 1_555
F6 Fe1 2.024623 1_466
F6 Fe2 2.035479 1_555
F6 Li2 2.212590 1_455
F7 Fe0 1.980848 1_554
F7 Li1 1.990907 1_555
F7 Li3 2.049945 1_555
F7 Li2 2.233815 1_555
F8 Li2 1.928368 1_555
F8 Fe2 1.956152 1_555
F8 Li1 2.098584 1_565
F8 Li3 2.223203 1_555
F9 Fe1 1.999033 1_565
F9 Fe0 2.042019 1_554
F9 Li2 2.246368 1_555
F10 Fe1 1.934926 1_465
F10 Li1 1.986552 1_565
F10 Li3 2.107391 1_555
