# generated using pymatgen
data_Mn2(CO3)3
_symmetry_space_group_name_H-M   'P 1'
_cell_length_a   7.60467551
_cell_length_b   7.60794690
_cell_length_c   7.60194200
_cell_angle_alpha   107.35849790
_cell_angle_beta   107.44579874
_cell_angle_gamma   107.60628331
_symmetry_Int_Tables_number   1
_chemical_formula_structural   Mn2(CO3)3
_chemical_formula_sum   'Mn4 C6 O18'
_cell_volume   361.48207759
_cell_formula_units_Z   2
loop_
 _symmetry_equiv_pos_site_id
 _symmetry_equiv_pos_as_xyz
  1  'x, y, z'
loop_
 _atom_site_type_symbol
 _atom_site_label
 _atom_site_symmetry_multiplicity
 _atom_site_fract_x
 _atom_site_fract_y
 _atom_site_fract_z
 _atom_site_occupancy
  Mn  Mn0  1  0.05423000  0.53336000  0.18399900  1
  Mn  Mn1  1  0.18275200  0.05245500  0.53271300  1
  Mn  Mn2  1  0.52176100  0.52180700  0.52350200  1
  Mn  Mn3  1  0.53271900  0.18293400  0.05316400  1
  C  C0  1  0.17067200  0.25430800  0.92380200  1
  C  C1  1  0.25410600  0.92346200  0.17060500  1
  C  C2  1  0.41434300  0.81164500  0.60992900  1
  C  C3  1  0.61024200  0.41487200  0.81043600  1
  C  C4  1  0.81043700  0.60744700  0.41365500  1
  C  C5  1  0.92361000  0.17081100  0.25423300  1
  O  O0  1  0.06228500  0.35276000  0.94918700  1
  O  O1  1  0.09881800  0.75006600  0.09851900  1
  O  O2  1  0.09824600  0.09941600  0.75044400  1
  O  O3  1  0.07219000  0.34532800  0.30876400  1
  O  O4  1  0.38480900  0.97200600  0.68552700  1
  O  O5  1  0.35806600  0.71148400  0.41452400  1
  O  O6  1  0.50392900  0.74649700  0.72802000  1
  O  O7  1  0.35241200  0.94844500  0.06189700  1
  O  O8  1  0.41511400  0.35960500  0.70805700  1
  O  O9  1  0.34529900  0.30846700  0.07186100  1
  O  O10  1  0.30834500  0.07175100  0.34473700  1
  O  O11  1  0.68458500  0.38520700  0.97094500  1
  O  O12  1  0.74191500  0.72359300  0.50268800  1
  O  O13  1  0.72872800  0.50428500  0.74512900  1
  O  O14  1  0.71180800  0.41272700  0.35772700  1
  O  O15  1  0.97102600  0.68608800  0.38565400  1
  O  O16  1  0.94869200  0.06216400  0.35276900  1
  O  O17  1  0.75035200  0.09854400  0.09898400  1
loop_
_geom_bond_atom_site_label_1
_geom_bond_atom_site_label_2
_geom_bond_distance
_geom_bond_site_symmetry_2
Mn0 O1 1.920573 1_555
Mn0 O0 1.931564 1_554
Mn0 O3 1.953148 1_555
Mn0 O15 2.015932 1_455
Mn0 O5 2.122989 1_555
Mn0 O11 2.461623 1_454
Mn1 O2 1.924598 1_555
Mn1 O16 1.929969 1_455
Mn1 O10 1.958176 1_555
Mn1 O4 2.002017 1_545
Mn1 O8 2.142633 1_555
Mn1 O15 2.440847 1_445
Mn2 O12 1.983354 1_555
Mn2 O13 2.001117 1_555
Mn2 O6 2.009610 1_555
Mn2 O8 2.293205 1_555
Mn2 O5 2.345222 1_555
Mn2 O14 2.357786 1_555
Mn3 O17 1.924382 1_555
Mn3 O7 1.926803 1_545
Mn3 O9 1.956434 1_555
Mn3 O11 2.006039 1_554
Mn3 O14 2.127295 1_555
Mn3 O4 2.449096 1_544
C0 O0 1.288510 1_555
C0 O2 1.293923 1_555
C0 O9 1.302372 1_556
C1 O7 1.286909 1_555
C1 O1 1.293565 1_555
C1 O10 1.301995 1_565
C2 O6 1.272302 1_555
C2 O4 1.301518 1_555
C2 O5 1.310156 1_555
C3 O13 1.272809 1_555
C3 O11 1.298953 1_555
C3 O8 1.311200 1_555
C4 O12 1.282024 1_555
C4 O15 1.297890 1_555
C4 O14 1.303349 1_555
C5 O16 1.288362 1_555
C5 O17 1.293577 1_555
C5 O3 1.301747 1_655
