# generated using pymatgen
data_LiTi2Ni(PO5)2
_symmetry_space_group_name_H-M   'P 1'
_cell_length_a   7.42063300
_cell_length_b   6.51576800
_cell_length_c   7.40528938
_cell_angle_alpha   89.98172487
_cell_angle_beta   90.00000000
_cell_angle_gamma   90.00000000
_symmetry_Int_Tables_number   1
_chemical_formula_structural   LiTi2Ni(PO5)2
_chemical_formula_sum   'Li2 Ti4 Ni2 P4 O20'
_cell_volume   358.05403959
_cell_formula_units_Z   2
loop_
 _symmetry_equiv_pos_site_id
 _symmetry_equiv_pos_as_xyz
  1  'x, y, z'
loop_
 _atom_site_type_symbol
 _atom_site_label
 _atom_site_symmetry_multiplicity
 _atom_site_fract_x
 _atom_site_fract_y
 _atom_site_fract_z
 _atom_site_occupancy
  Li  Li0  1  0.50000000  0.00000000  0.50000000  1
  Li  Li1  1  0.00000000  0.00000000  0.00000000  1
  Ti  Ti0  1  0.78221000  0.24581400  0.66109500  1
  Ti  Ti1  1  0.71779000  0.24581400  0.16109500  1
  Ti  Ti2  1  0.28221000  0.75418600  0.83890500  1
  Ti  Ti3  1  0.21779000  0.75418600  0.33890500  1
  Ni  Ni0  1  0.50000000  0.50000000  0.50000000  1
  Ni  Ni1  1  0.00000000  0.50000000  0.00000000  1
  P  P0  1  0.36879000  0.25051300  0.87441800  1
  P  P1  1  0.13121000  0.25051300  0.37441800  1
  P  P2  1  0.86879000  0.74948700  0.62558200  1
  P  P3  1  0.63121000  0.74948700  0.12558200  1
  O  O0  1  0.24817100  0.05694600  0.86935000  1
  O  O1  1  0.25182900  0.05694600  0.36935000  1
  O  O2  1  0.84755900  0.25990300  0.89660800  1
  O  O3  1  0.01598600  0.25079500  0.54593500  1
  O  O4  1  0.65244100  0.25990300  0.39660800  1
  O  O5  1  0.48401400  0.25079500  0.04593500  1
  O  O6  1  0.49149900  0.26049000  0.70306900  1
  O  O7  1  0.00850100  0.26049000  0.20306900  1
  O  O8  1  0.24182300  0.43997600  0.87303800  1
  O  O9  1  0.25817700  0.43997600  0.37303800  1
  O  O10  1  0.74182300  0.56002400  0.62696200  1
  O  O11  1  0.75817700  0.56002400  0.12696200  1
  O  O12  1  0.99149900  0.73951000  0.79693100  1
  O  O13  1  0.50850100  0.73951000  0.29693100  1
  O  O14  1  0.51598600  0.74920500  0.95406500  1
  O  O15  1  0.34755900  0.74009700  0.60339200  1
  O  O16  1  0.98401400  0.74920500  0.45406500  1
  O  O17  1  0.15244100  0.74009700  0.10339200  1
  O  O18  1  0.74817100  0.94305400  0.63065000  1
  O  O19  1  0.75182900  0.94305400  0.13065000  1
loop_
_geom_bond_atom_site_label_1
_geom_bond_atom_site_label_2
_geom_bond_distance
_geom_bond_site_symmetry_2
Li0 O1 2.113041 1_555
Li0 O18 2.113041 1_545
Li0 O4 2.175513 1_555
Li0 O15 2.175513 1_545
Li0 O13 2.268871 1_545
Li0 O6 2.268871 1_555
Li1 O0 2.113041 1_554
Li1 O19 2.113041 1_445
Li1 O17 2.175513 1_545
Li1 O2 2.175513 1_454
Li1 O7 2.268871 1_555
Li1 O12 2.268871 1_444
Ni0 O9 2.063325 1_555
Ni0 O10 2.063325 1_555
Ni0 O15 2.077020 1_555
Ni0 O4 2.077020 1_555
Ni0 O13 2.167786 1_555
Ni0 O6 2.167786 1_555
Ni1 O11 2.063325 1_455
Ni1 O8 2.063325 1_554
Ni1 O17 2.077020 1_555
Ni1 O2 2.077020 1_454
Ni1 O7 2.167786 1_555
Ni1 O12 2.167786 1_454
O0 P0 1.547032 1_555
O0 Ti2 2.001628 1_545
O1 P1 1.547032 1_555
O1 Ti3 2.001628 1_545
O2 Ti0 1.812559 1_555
O2 Ti1 2.184432 1_556
O3 P1 1.531120 1_555
O3 Ti0 1.933314 1_455
O4 Ti1 1.812559 1_555
O4 Ti0 2.184432 1_555
O5 P0 1.531120 1_554
O5 Ti1 1.933314 1_555
O6 P0 1.563140 1_555
O6 Ti0 2.181639 1_555
O7 P1 1.563140 1_555
O7 Ti1 2.181639 1_455
O8 P0 1.552989 1_555
O8 Ti2 2.084441 1_555
O9 P1 1.552989 1_555
O9 Ti3 2.084441 1_555
O10 P2 1.552989 1_555
O10 Ti0 2.084441 1_555
O11 P3 1.552989 1_555
O11 Ti1 2.084441 1_555
O12 P2 1.563140 1_555
O12 Ti2 2.181639 1_655
O13 P3 1.563140 1_555
O13 Ti3 2.181639 1_555
O14 P3 1.531120 1_556
O14 Ti2 1.933314 1_555
O15 Ti2 1.812559 1_555
O15 Ti3 2.184432 1_555
O16 P2 1.531120 1_555
O16 Ti3 1.933314 1_655
O17 Ti3 1.812559 1_555
O17 Ti2 2.184432 1_554
O18 P2 1.547032 1_555
O18 Ti0 2.001628 1_565
O19 P3 1.547032 1_555
O19 Ti1 2.001628 1_565
