# generated using pymatgen
data_Mn3O5F
_symmetry_space_group_name_H-M   'P 1'
_cell_length_a   3.00765700
_cell_length_b   4.53567100
_cell_length_c   13.59994400
_cell_angle_alpha   90.00000000
_cell_angle_beta   90.00000000
_cell_angle_gamma   90.00000000
_symmetry_Int_Tables_number   1
_chemical_formula_structural   Mn3O5F
_chemical_formula_sum   'Mn6 O10 F2'
_cell_volume   185.52693587
_cell_formula_units_Z   2
loop_
 _symmetry_equiv_pos_site_id
 _symmetry_equiv_pos_as_xyz
  1  'x, y, z'
loop_
 _atom_site_type_symbol
 _atom_site_label
 _atom_site_symmetry_multiplicity
 _atom_site_fract_x
 _atom_site_fract_y
 _atom_site_fract_z
 _atom_site_occupancy
  Mn  Mn0  1  0.50000000  0.73092400  0.99903700  1
  Mn  Mn1  1  0.50000000  0.77355400  0.33934900  1
  Mn  Mn2  1  0.50000000  0.77489800  0.65989200  1
  Mn  Mn3  1  0.00000000  0.22510200  0.15989200  1
  Mn  Mn4  1  0.00000000  0.26907600  0.49903700  1
  Mn  Mn5  1  0.00000000  0.22644600  0.83934900  1
  O  O0  1  0.00000000  0.94837900  0.26915700  1
  O  O1  1  0.00000000  0.95561100  0.59949700  1
  O  O2  1  0.00000000  0.93385000  0.93747200  1
  O  O3  1  0.50000000  0.04438900  0.09949700  1
  O  O4  1  0.50000000  0.05162100  0.76915700  1
  O  O5  1  0.50000000  0.06615000  0.43747200  1
  O  O6  1  0.50000000  0.45137900  0.56649500  1
  O  O7  1  0.50000000  0.43802500  0.89635300  1
  O  O8  1  0.00000000  0.54862100  0.06649500  1
  O  O9  1  0.00000000  0.56197500  0.39635300  1
  F  F0  1  0.50000000  0.44874500  0.23271400  1
  F  F1  1  0.00000000  0.55125500  0.73271400  1
loop_
_geom_bond_atom_site_label_1
_geom_bond_atom_site_label_2
_geom_bond_distance
_geom_bond_site_symmetry_2
Mn0 O7 1.927459 1_555
Mn0 O8 1.945990 1_556
Mn0 O8 1.945990 1_656
Mn0 O2 1.951842 1_555
Mn0 O2 1.951842 1_655
Mn0 O3 1.971822 1_566
Mn1 O5 1.882033 1_565
Mn1 O9 1.945109 1_555
Mn1 O9 1.945109 1_655
Mn1 O0 1.949755 1_555
Mn1 O0 1.949755 1_655
Mn2 O1 1.899468 1_555
Mn2 O1 1.899468 1_655
Mn2 O6 1.940769 1_555
Mn2 O4 1.945129 1_565
Mn3 O3 1.899468 1_455
Mn3 O3 1.899468 1_555
Mn3 O8 1.940769 1_555
Mn3 O0 1.945129 1_545
Mn4 O9 1.927459 1_555
Mn4 O6 1.945990 1_455
Mn4 O6 1.945990 1_555
Mn4 O5 1.951842 1_455
Mn4 O5 1.951842 1_555
Mn4 O1 1.971822 1_545
Mn5 O2 1.882033 1_545
Mn5 O7 1.945109 1_555
Mn5 O7 1.945109 1_455
Mn5 O4 1.949755 1_455
Mn5 O4 1.949755 1_555
F0 Mn3 2.066710 1_555
F0 Mn3 2.066710 1_655
F0 Mn1 2.067260 1_555
F1 Mn2 2.066710 1_555
F1 Mn2 2.066710 1_455
F1 Mn5 2.067260 1_555
