# generated using pymatgen
data_LiCo2OF3
_symmetry_space_group_name_H-M   'P 1'
_cell_length_a   5.98528500
_cell_length_b   6.22112200
_cell_length_c   8.71705400
_cell_angle_alpha   90.00000000
_cell_angle_beta   90.00000000
_cell_angle_gamma   90.00000000
_symmetry_Int_Tables_number   1
_chemical_formula_structural   LiCo2OF3
_chemical_formula_sum   'Li4 Co8 O4 F12'
_cell_volume   324.58114615
_cell_formula_units_Z   4
loop_
 _symmetry_equiv_pos_site_id
 _symmetry_equiv_pos_as_xyz
  1  'x, y, z'
loop_
 _atom_site_type_symbol
 _atom_site_label
 _atom_site_symmetry_multiplicity
 _atom_site_fract_x
 _atom_site_fract_y
 _atom_site_fract_z
 _atom_site_occupancy
  Li  Li0  1  0.75000000  0.47741300  0.60563500  1
  Li  Li1  1  0.25000000  0.52258700  0.39436500  1
  Li  Li2  1  0.25000000  0.02258700  0.10563500  1
  Li  Li3  1  0.75000000  0.97741300  0.89436500  1
  Co  Co0  1  0.00000000  0.00000000  0.50000000  1
  Co  Co1  1  0.50000000  0.00000000  0.50000000  1
  Co  Co2  1  0.75000000  0.73327500  0.23260800  1
  Co  Co3  1  0.75000000  0.23327500  0.26739200  1
  Co  Co4  1  0.50000000  0.50000000  0.00000000  1
  Co  Co5  1  0.00000000  0.50000000  0.00000000  1
  Co  Co6  1  0.25000000  0.76672500  0.73260800  1
  Co  Co7  1  0.25000000  0.26672500  0.76739200  1
  O  O0  1  0.75000000  0.20506000  0.49126900  1
  O  O1  1  0.25000000  0.79494000  0.50873100  1
  O  O2  1  0.25000000  0.29494000  0.99126900  1
  O  O3  1  0.75000000  0.70506000  0.00873100  1
  F  F0  1  0.75000000  0.74385300  0.47309600  1
  F  F1  1  0.25000000  0.25614700  0.52690400  1
  F  F2  1  0.50965600  0.48338700  0.25531500  1
  F  F3  1  0.99034400  0.48338700  0.25531500  1
  F  F4  1  0.99034400  0.98338700  0.24468500  1
  F  F5  1  0.50965600  0.98338700  0.24468500  1
  F  F6  1  0.25000000  0.75614700  0.97309600  1
  F  F7  1  0.75000000  0.24385300  0.02690400  1
  F  F8  1  0.49034400  0.01661300  0.75531500  1
  F  F9  1  0.00965600  0.01661300  0.75531500  1
  F  F10  1  0.00965600  0.51661300  0.74468500  1
  F  F11  1  0.49034400  0.51661300  0.74468500  1
loop_
_geom_bond_atom_site_label_1
_geom_bond_atom_site_label_2
_geom_bond_distance
_geom_bond_site_symmetry_2
Li0 O0 1.965877 1_555
Li1 O1 1.965877 1_555
Li2 O2 1.965877 1_554
Li3 O3 1.965877 1_556
Co0 O1 1.967788 1_545
Co0 O0 1.967788 1_455
Co0 F1 2.198475 1_555
Co0 F0 2.198475 1_445
Co0 F9 2.228743 1_555
Co0 F4 2.228743 1_445
Co1 O1 1.967788 1_545
Co1 O0 1.967788 1_555
Co1 F1 2.198475 1_555
Co1 F0 2.198475 1_545
Co1 F8 2.228743 1_555
Co1 F5 2.228743 1_545
Co2 O3 1.959426 1_555
Co2 F0 2.097380 1_555
Co2 F4 2.121676 1_555
Co2 F5 2.121676 1_555
Co2 F2 2.127268 1_555
Co2 F3 2.127268 1_555
Co3 O0 1.959426 1_555
Co3 F7 2.097380 1_555
Co3 F2 2.121676 1_555
Co3 F3 2.121676 1_555
Co3 F5 2.127268 1_545
Co3 F4 2.127268 1_545
Co4 O2 1.967788 1_554
Co4 O3 1.967788 1_555
Co4 F7 2.198475 1_555
Co4 F6 2.198475 1_554
Co4 F2 2.228743 1_555
Co4 F11 2.228743 1_554
Co5 O2 1.967788 1_554
Co5 O3 1.967788 1_455
Co5 F7 2.198475 1_455
Co5 F6 2.198475 1_554
Co5 F3 2.228743 1_455
Co5 F10 2.228743 1_554
Co6 O1 1.959426 1_555
Co6 F6 2.097380 1_555
Co6 F11 2.121676 1_555
Co6 F10 2.121676 1_555
Co6 F8 2.127268 1_565
Co6 F9 2.127268 1_565
Co7 O2 1.959426 1_555
Co7 F1 2.097380 1_555
Co7 F8 2.121676 1_555
Co7 F9 2.121676 1_555
Co7 F10 2.127268 1_555
Co7 F11 2.127268 1_555
F0 Li0 2.020476 1_555
F1 Li1 2.020476 1_555
F2 Li1 1.985937 1_555
F3 Li1 1.985937 1_655
F4 Li2 1.985937 1_665
F5 Li2 1.985937 1_565
F6 Li2 2.020476 1_566
F7 Li3 2.020476 1_544
F8 Li3 1.985937 1_545
F9 Li3 1.985937 1_445
F10 Li0 1.985937 1_455
F11 Li0 1.985937 1_555
