# generated using pymatgen
data_LiSiBiO4
_symmetry_space_group_name_H-M   'P 1'
_cell_length_a   6.40861200
_cell_length_b   5.62196200
_cell_length_c   11.18459843
_cell_angle_alpha   66.75502632
_cell_angle_beta   90.00000000
_cell_angle_gamma   90.00000000
_symmetry_Int_Tables_number   1
_chemical_formula_structural   LiSiBiO4
_chemical_formula_sum   'Li4 Si4 Bi4 O16'
_cell_volume   370.25887618
_cell_formula_units_Z   4
loop_
 _symmetry_equiv_pos_site_id
 _symmetry_equiv_pos_as_xyz
  1  'x, y, z'
loop_
 _atom_site_type_symbol
 _atom_site_label
 _atom_site_symmetry_multiplicity
 _atom_site_fract_x
 _atom_site_fract_y
 _atom_site_fract_z
 _atom_site_occupancy
  Li  Li0  1  0.63456000  0.92607700  0.92776500  1
  Li  Li1  1  0.13456000  0.07392300  0.57223500  1
  Li  Li2  1  0.86544000  0.92607700  0.42776500  1
  Li  Li3  1  0.36544000  0.07392300  0.07223500  1
  Si  Si0  1  0.65128900  0.09229800  0.64037700  1
  Si  Si1  1  0.15128900  0.90770200  0.85962300  1
  Si  Si2  1  0.84871100  0.09229800  0.14037700  1
  Si  Si3  1  0.34871100  0.90770200  0.35962300  1
  Bi  Bi0  1  0.61378100  0.44440200  0.34924900  1
  Bi  Bi1  1  0.11378100  0.55559800  0.15075100  1
  Bi  Bi2  1  0.88621900  0.44440200  0.84924900  1
  Bi  Bi3  1  0.38621900  0.55559800  0.65075100  1
  O  O0  1  0.66016200  0.23048100  0.74686500  1
  O  O1  1  0.13598700  0.22364800  0.77813900  1
  O  O2  1  0.43323400  0.21867800  0.55562500  1
  O  O3  1  0.83581800  0.17188200  0.52914100  1
  O  O4  1  0.33581800  0.82811800  0.97085900  1
  O  O5  1  0.93323400  0.78132200  0.94437500  1
  O  O6  1  0.83983800  0.23048100  0.24686500  1
  O  O7  1  0.36401300  0.22364800  0.27813900  1
  O  O8  1  0.63598700  0.77635200  0.72186100  1
  O  O9  1  0.16016200  0.76951900  0.75313500  1
  O  O10  1  0.06676600  0.21867800  0.05562500  1
  O  O11  1  0.66418200  0.17188200  0.02914100  1
  O  O12  1  0.16418200  0.82811800  0.47085900  1
  O  O13  1  0.56676600  0.78132200  0.44437500  1
  O  O14  1  0.86401300  0.77635200  0.22186100  1
  O  O15  1  0.33983800  0.76951900  0.25313500  1
loop_
_geom_bond_atom_site_label_1
_geom_bond_atom_site_label_2
_geom_bond_distance
_geom_bond_site_symmetry_2
Li0 O4 1.997869 1_555
Li0 O5 2.059414 1_555
Li0 O0 2.077561 1_565
Li0 O11 2.113787 1_566
Li1 O3 1.997869 1_455
Li1 O2 2.059414 1_555
Li1 O9 2.077561 1_545
Li1 O12 2.113787 1_545
Li2 O12 1.997869 1_655
Li2 O13 2.059414 1_555
Li2 O6 2.077561 1_565
Li2 O3 2.113787 1_565
Li3 O11 1.997869 1_555
Li3 O10 2.059414 1_555
Li3 O15 2.077561 1_545
Li3 O4 2.113787 1_544
Bi0 O7 2.348205 1_555
Bi0 O6 2.437931 1_555
Bi0 O2 2.442341 1_555
Bi0 O14 2.446555 1_555
Bi0 O3 2.446864 1_555
Bi0 O15 2.455125 1_555
Bi0 O13 2.530076 1_555
Bi1 O14 2.348205 1_455
Bi1 O15 2.437931 1_555
Bi1 O5 2.442341 1_454
Bi1 O7 2.446555 1_555
Bi1 O4 2.446864 1_554
Bi1 O6 2.455125 1_455
Bi1 O10 2.530076 1_555
Bi2 O1 2.348205 1_655
Bi2 O0 2.437931 1_555
Bi2 O10 2.442341 1_656
Bi2 O8 2.446555 1_555
Bi2 O11 2.446864 1_556
Bi2 O9 2.455125 1_655
Bi2 O5 2.530076 1_555
Bi3 O8 2.348205 1_555
Bi3 O9 2.437931 1_555
Bi3 O13 2.442341 1_555
Bi3 O1 2.446555 1_555
Bi3 O12 2.446864 1_555
Bi3 O0 2.455125 1_555
Bi3 O2 2.530076 1_555
O0 Si0 1.660005 1_555
O1 Si1 1.648471 1_545
O2 Si0 1.680643 1_555
O3 Si0 1.645342 1_555
O4 Si1 1.645342 1_555
O5 Si1 1.680643 1_655
O6 Si2 1.660005 1_555
O7 Si3 1.648471 1_545
O8 Si0 1.648471 1_565
O9 Si1 1.660005 1_555
O10 Si2 1.680643 1_455
O11 Si2 1.645342 1_555
O12 Si3 1.645342 1_555
O13 Si3 1.680643 1_555
O14 Si2 1.648471 1_565
O15 Si3 1.660005 1_555
