# generated using pymatgen
data_Li2Cr4O13
_symmetry_space_group_name_H-M   'P 1'
_cell_length_a   9.80376766
_cell_length_b   9.80376766
_cell_length_c   8.91970300
_cell_angle_alpha   90.00000000
_cell_angle_beta   90.00000000
_cell_angle_gamma   132.54253302
_symmetry_Int_Tables_number   1
_chemical_formula_structural   Li2Cr4O13
_chemical_formula_sum   'Li4 Cr8 O26'
_cell_volume   631.64295705
_cell_formula_units_Z   2
loop_
 _symmetry_equiv_pos_site_id
 _symmetry_equiv_pos_as_xyz
  1  'x, y, z'
loop_
 _atom_site_type_symbol
 _atom_site_label
 _atom_site_symmetry_multiplicity
 _atom_site_fract_x
 _atom_site_fract_y
 _atom_site_fract_z
 _atom_site_occupancy
  Li  Li0  1  0.58987300  0.90000800  0.14079500  1
  Li  Li1  1  0.09999200  0.41012700  0.35920500  1
  Li  Li2  1  0.90000800  0.58987300  0.85920500  1
  Li  Li3  1  0.41012700  0.09999200  0.64079500  1
  Cr  Cr0  1  0.16228700  0.27652400  0.72191800  1
  Cr  Cr1  1  0.72347600  0.83771300  0.77808200  1
  Cr  Cr2  1  0.07636400  0.40336200  0.01131600  1
  Cr  Cr3  1  0.59663800  0.92363600  0.48868400  1
  Cr  Cr4  1  0.40336200  0.07636400  0.98868400  1
  Cr  Cr5  1  0.92363600  0.59663800  0.51131600  1
  Cr  Cr6  1  0.83771300  0.72347600  0.22191800  1
  Cr  Cr7  1  0.27652400  0.16228700  0.27808200  1
  O  O0  1  0.25654200  0.30827600  0.31631800  1
  O  O1  1  0.69172400  0.74345800  0.18368200  1
  O  O2  1  0.94259500  0.05740500  0.75000000  1
  O  O3  1  0.60653700  0.77815600  0.61131400  1
  O  O4  1  0.22184400  0.39346300  0.88868600  1
  O  O5  1  0.15230400  0.37890300  0.58714200  1
  O  O6  1  0.62109700  0.84769600  0.91285800  1
  O  O7  1  0.90386800  0.19824100  0.07529100  1
  O  O8  1  0.80175900  0.09613200  0.42470900  1
  O  O9  1  0.46034700  0.79810800  0.34838800  1
  O  O10  1  0.20189200  0.53965300  0.15161200  1
  O  O11  1  0.00343800  0.48334400  0.91348900  1
  O  O12  1  0.51665600  0.99656200  0.58651100  1
  O  O13  1  0.48334400  0.00343800  0.08651100  1
  O  O14  1  0.99656200  0.51665600  0.41348900  1
  O  O15  1  0.53965300  0.20189200  0.84838800  1
  O  O16  1  0.79810800  0.46034700  0.65161200  1
  O  O17  1  0.09613200  0.80175900  0.57529100  1
  O  O18  1  0.19824100  0.90386800  0.92470900  1
  O  O19  1  0.84769600  0.62109700  0.08714200  1
  O  O20  1  0.37890300  0.15230400  0.41285800  1
  O  O21  1  0.39346300  0.22184400  0.11131400  1
  O  O22  1  0.77815600  0.60653700  0.38868600  1
  O  O23  1  0.05740500  0.94259500  0.25000000  1
  O  O24  1  0.30827600  0.25654200  0.68368200  1
  O  O25  1  0.74345800  0.69172400  0.81631800  1
loop_
_geom_bond_atom_site_label_1
_geom_bond_atom_site_label_2
_geom_bond_distance
_geom_bond_site_symmetry_2
Li0 O13 1.945627 1_565
Li0 O9 2.079355 1_555
Li0 O6 2.168557 1_554
Li0 O1 2.360363 1_555
Li0 O7 2.488992 1_565
Li1 O14 1.945627 1_455
Li1 O10 2.079355 1_555
Li1 O5 2.168557 1_555
Li1 O0 2.360363 1_555
Li1 O8 2.488992 1_455
Li2 O11 1.945627 1_655
Li2 O16 2.079355 1_555
Li2 O19 2.168557 1_556
Li2 O25 2.360363 1_555
Li2 O18 2.488992 1_655
Li3 O12 1.945627 1_545
Li3 O15 2.079355 1_555
Li3 O20 2.168557 1_555
Li3 O24 2.360363 1_555
Li3 O17 2.488992 1_545
Cr0 O24 1.606953 1_555
Cr0 O5 1.610908 1_555
Cr0 O4 1.721271 1_555
Cr0 O2 1.749190 1_455
Cr1 O25 1.606953 1_555
Cr1 O6 1.610908 1_555
Cr1 O3 1.721271 1_555
Cr1 O2 1.749190 1_565
Cr2 O7 1.621939 1_455
Cr2 O10 1.625490 1_555
Cr2 O11 1.626503 1_554
Cr2 O4 1.851280 1_554
Cr3 O8 1.621939 1_565
Cr3 O9 1.625490 1_555
Cr3 O12 1.626503 1_555
Cr3 O3 1.851280 1_555
Cr4 O18 1.621939 1_545
Cr4 O15 1.625490 1_555
Cr4 O13 1.626503 1_556
Cr4 O21 1.851280 1_556
Cr5 O17 1.621939 1_655
Cr5 O16 1.625490 1_555
Cr5 O14 1.626503 1_555
Cr5 O22 1.851280 1_555
Cr6 O1 1.606953 1_555
Cr6 O19 1.610908 1_555
Cr6 O22 1.721271 1_555
Cr6 O23 1.749190 1_655
Cr7 O0 1.606953 1_555
Cr7 O20 1.610908 1_555
Cr7 O21 1.721271 1_555
Cr7 O23 1.749190 1_545
