# generated using pymatgen
data_K3CuPCO7
_symmetry_space_group_name_H-M   'P 1'
_cell_length_a   7.28983300
_cell_length_b   5.52469900
_cell_length_c   9.54061039
_cell_angle_alpha   89.19339768
_cell_angle_beta   90.00000000
_cell_angle_gamma   90.00000000
_symmetry_Int_Tables_number   1
_chemical_formula_structural   K3CuPCO7
_chemical_formula_sum   'K6 Cu2 P2 C2 O14'
_cell_volume   384.20173780
_cell_formula_units_Z   2
loop_
 _symmetry_equiv_pos_site_id
 _symmetry_equiv_pos_as_xyz
  1  'x, y, z'
loop_
 _atom_site_type_symbol
 _atom_site_label
 _atom_site_symmetry_multiplicity
 _atom_site_fract_x
 _atom_site_fract_y
 _atom_site_fract_z
 _atom_site_occupancy
  K  K0  1  0.75000000  0.24117800  0.92178600  1
  K  K1  1  0.98447500  0.74868200  0.72022400  1
  K  K2  1  0.51552500  0.74868200  0.72022400  1
  K  K3  1  0.48447500  0.25131800  0.27977600  1
  K  K4  1  0.01552500  0.25131800  0.27977600  1
  K  K5  1  0.25000000  0.75882200  0.07821400  1
  Cu  Cu0  1  0.25000000  0.23404900  0.64085200  1
  Cu  Cu1  1  0.75000000  0.76595100  0.35914800  1
  P  P0  1  0.75000000  0.28780300  0.57499400  1
  P  P1  1  0.25000000  0.71219700  0.42500600  1
  C  C0  1  0.25000000  0.26738600  0.90901600  1
  C  C1  1  0.75000000  0.73261400  0.09098400  1
  O  O0  1  0.75000000  0.75331600  0.95594700  1
  O  O1  1  0.25000000  0.07356900  0.83056200  1
  O  O2  1  0.25000000  0.47491200  0.84509300  1
  O  O3  1  0.92232300  0.25012900  0.66957400  1
  O  O4  1  0.57767700  0.25012900  0.66957400  1
  O  O5  1  0.75000000  0.56035500  0.52228200  1
  O  O6  1  0.25000000  0.88218400  0.55275700  1
  O  O7  1  0.75000000  0.11781600  0.44724300  1
  O  O8  1  0.25000000  0.43964500  0.47771800  1
  O  O9  1  0.42232300  0.74987100  0.33042600  1
  O  O10  1  0.07767700  0.74987100  0.33042600  1
  O  O11  1  0.75000000  0.52508800  0.15490700  1
  O  O12  1  0.75000000  0.92643100  0.16943800  1
  O  O13  1  0.25000000  0.24668400  0.04405300  1
loop_
_geom_bond_atom_site_label_1
_geom_bond_atom_site_label_2
_geom_bond_distance
_geom_bond_site_symmetry_2
K0 O0 2.710366 1_545
K0 O3 2.714262 1_555
K0 O4 2.714262 1_555
K0 O11 2.739555 1_556
K0 O0 2.852672 1_555
K0 O12 2.913869 1_546
K1 O6 2.609646 1_655
K1 O2 2.720818 1_655
K1 O5 2.761502 1_555
K1 O0 2.825184 1_555
K1 O3 2.839496 1_555
K1 O3 2.841814 1_565
K1 O1 2.851264 1_665
K2 O6 2.609646 1_555
K2 O2 2.720818 1_555
K2 O5 2.761502 1_555
K2 O0 2.825184 1_555
K2 O4 2.839496 1_555
K2 O4 2.841814 1_565
K2 O1 2.851264 1_565
K3 O7 2.609646 1_555
K3 O11 2.720818 1_555
K3 O8 2.761502 1_555
K3 O13 2.825184 1_555
K3 O9 2.839496 1_555
K3 O9 2.841814 1_545
K3 O12 2.851264 1_545
K4 O7 2.609646 1_455
K4 O11 2.720818 1_455
K4 O8 2.761502 1_555
K4 O13 2.825184 1_555
K4 O10 2.839496 1_555
K4 O10 2.841814 1_545
K4 O12 2.851264 1_445
K5 O13 2.710366 1_565
K5 O9 2.714262 1_555
K5 O10 2.714262 1_555
K5 O2 2.739555 1_554
K5 O13 2.852672 1_555
K5 O1 2.913869 1_564
Cu0 O8 1.913836 1_555
Cu0 O1 2.004196 1_555
Cu0 O6 2.128695 1_545
Cu0 O2 2.375023 1_555
Cu0 O3 2.406160 1_455
Cu0 O4 2.406160 1_555
Cu1 O5 1.913836 1_555
Cu1 O12 2.004196 1_555
Cu1 O7 2.128695 1_565
Cu1 O11 2.375023 1_555
Cu1 O9 2.406160 1_555
Cu1 O10 2.406160 1_655
C0 O2 1.291028 1_555
C0 O13 1.291797 1_556
C0 O1 1.315062 1_555
C1 O11 1.291028 1_555
C1 O0 1.291797 1_554
C1 O12 1.315062 1_555
O3 P0 1.558950 1_555
O4 P0 1.558950 1_555
O5 P0 1.580800 1_555
O6 P1 1.549101 1_555
O7 P0 1.549101 1_555
O8 P1 1.580800 1_555
O9 P1 1.558950 1_555
O10 P1 1.558950 1_555
