# generated using pymatgen
data_Li3La5Ti6Nb2O26
_symmetry_space_group_name_H-M   'P 1'
_cell_length_a   5.53364800
_cell_length_b   5.53132100
_cell_length_c   17.25704310
_cell_angle_alpha   81.00039769
_cell_angle_beta   90.00000000
_cell_angle_gamma   90.00000000
_symmetry_Int_Tables_number   1
_chemical_formula_structural   Li3La5Ti6Nb2O26
_chemical_formula_sum   'Li3 La5 Ti6 Nb2 O26'
_cell_volume   521.70762090
_cell_formula_units_Z   1
loop_
 _symmetry_equiv_pos_site_id
 _symmetry_equiv_pos_as_xyz
  1  'x, y, z'
loop_
 _atom_site_type_symbol
 _atom_site_label
 _atom_site_symmetry_multiplicity
 _atom_site_fract_x
 _atom_site_fract_y
 _atom_site_fract_z
 _atom_site_occupancy
  Li  Li0  1  0.22876500  0.50000000  0.50000000  1
  Li  Li1  1  0.75906600  0.00000000  0.50000000  1
  Li  Li2  1  0.24264800  0.00000000  0.50000000  1
  La  La0  1  0.00214300  0.38203900  0.23418700  1
  La  La1  1  0.49869500  0.11547300  0.76455600  1
  La  La2  1  0.49869500  0.88452700  0.23544400  1
  La  La3  1  0.00104300  0.50000000  0.00000000  1
  La  La4  1  0.00214300  0.61796100  0.76581300  1
  Ti  Ti0  1  0.99969800  0.17980600  0.63837000  1
  Ti  Ti1  1  0.99984900  0.05756700  0.88545400  1
  Ti  Ti2  1  0.50031400  0.44264800  0.11368300  1
  Ti  Ti3  1  0.50031400  0.55735200  0.88631700  1
  Ti  Ti4  1  0.99984900  0.94243300  0.11454600  1
  Ti  Ti5  1  0.99969800  0.82019400  0.36163000  1
  Nb  Nb0  1  0.50293300  0.32280400  0.36302700  1
  Nb  Nb1  1  0.50293300  0.67719600  0.63697300  1
  O  O0  1  0.24945800  0.58318200  0.33973300  1
  O  O1  1  0.75072700  0.58585100  0.33598100  1
  O  O2  1  0.75993700  0.67876800  0.12082800  1
  O  O3  1  0.24050300  0.67891700  0.12090900  1
  O  O4  1  0.00935600  0.21989300  0.53581900  1
  O  O5  1  0.49821000  0.38397200  0.22970900  1
  O  O6  1  0.00261500  0.11190000  0.77100700  1
  O  O7  1  0.99981300  0.00000000  0.00000000  1
  O  O8  1  0.48760000  0.25527500  0.47038400  1
  O  O9  1  0.24011900  0.20069200  0.11999300  1
  O  O10  1  0.75924000  0.19934600  0.12106700  1
  O  O11  1  0.25128800  0.91888100  0.66324900  1
  O  O12  1  0.75117700  0.92020500  0.66024600  1
  O  O13  1  0.75117700  0.07979500  0.33975400  1
  O  O14  1  0.25128800  0.08111900  0.33675100  1
  O  O15  1  0.75924000  0.80065400  0.87893300  1
  O  O16  1  0.24011900  0.79930800  0.88000700  1
  O  O17  1  0.48760000  0.74472500  0.52961600  1
  O  O18  1  0.00261500  0.88810000  0.22899300  1
  O  O19  1  0.49821000  0.61602800  0.77029100  1
  O  O20  1  0.50038100  0.50000000  0.00000000  1
  O  O21  1  0.00935600  0.78010700  0.46418100  1
  O  O22  1  0.24050300  0.32108300  0.87909100  1
  O  O23  1  0.75993700  0.32123200  0.87917200  1
  O  O24  1  0.75072700  0.41414900  0.66401900  1
  O  O25  1  0.24945800  0.41681800  0.66026700  1
loop_
_geom_bond_atom_site_label_1
_geom_bond_atom_site_label_2
_geom_bond_distance
_geom_bond_site_symmetry_2
Li0 O21 1.989246 1_555
Li0 O4 1.989246 1_555
Li0 O17 2.088424 1_555
Li0 O8 2.088424 1_555
Li1 O21 2.003735 1_645
Li1 O4 2.003735 1_655
Li1 O8 2.070217 1_555
Li1 O17 2.070217 1_545
Li2 O21 1.939909 1_545
Li2 O4 1.939909 1_555
Li2 O8 1.966347 1_555
Li2 O17 1.966347 1_545
La0 O14 2.623416 1_555
La0 O1 2.629054 1_455
La0 O0 2.657503 1_555
La0 O13 2.662631 1_455
La0 O9 2.691142 1_555
La0 O3 2.693225 1_555
La0 O10 2.693662 1_455
La0 O2 2.704183 1_455
La0 O5 2.746121 1_555
La0 O18 2.747584 1_545
La0 O18 2.786573 1_555
La0 O5 2.789633 1_455
La1 O11 2.589976 1_545
La1 O24 2.605341 1_555
La1 O12 2.639541 1_545
La1 O25 2.642155 1_555
La1 O6 2.747334 1_555
La1 O19 2.748849 1_545
La1 O19 2.785929 1_555
La1 O6 2.790684 1_655
La1 O15 2.816316 1_545
La1 O22 2.818636 1_555
La1 O16 2.825791 1_545
La1 O23 2.828716 1_555
La2 O14 2.589976 1_565
La2 O1 2.605341 1_555
La2 O13 2.639541 1_565
La2 O0 2.642155 1_555
La2 O18 2.747334 1_555
La2 O5 2.748849 1_565
La2 O5 2.785929 1_555
La2 O18 2.790684 1_655
La2 O10 2.816316 1_565
La2 O3 2.818636 1_555
La2 O9 2.825791 1_565
La2 O2 2.828716 1_555
La3 O20 2.763161 1_555
La3 O7 2.765669 1_465
La3 O7 2.765669 1_455
La3 O20 2.770487 1_455
La3 O9 2.776058 1_555
La3 O16 2.776058 1_554
La3 O3 2.781168 1_555
La3 O22 2.781168 1_554
La3 O2 2.784006 1_455
La3 O23 2.784006 1_454
La3 O10 2.798928 1_455
La3 O15 2.798928 1_454
La4 O11 2.623416 1_555
La4 O24 2.629054 1_455
La4 O25 2.657503 1_555
La4 O12 2.662631 1_455
La4 O16 2.691142 1_555
La4 O22 2.693225 1_555
La4 O15 2.693662 1_455
La4 O23 2.704183 1_455
La4 O19 2.746121 1_555
La4 O6 2.747584 1_565
La4 O6 2.786573 1_555
La4 O19 2.789633 1_455
Nb0 O8 1.833735 1_555
Nb0 O1 2.000650 1_555
Nb0 O0 2.005528 1_555
Nb0 O13 2.005991 1_555
Nb0 O14 2.030146 1_555
Nb0 O5 2.272604 1_555
Nb1 O17 1.833735 1_555
Nb1 O24 2.000650 1_555
Nb1 O25 2.005528 1_555
Nb1 O12 2.005991 1_555
Nb1 O11 2.030146 1_555
Nb1 O19 2.272604 1_555
O0 Ti5 1.981572 1_455
O1 Ti5 1.988398 1_555
O2 Ti2 1.958409 1_555
O2 Ti4 1.962589 1_555
O3 Ti2 1.959964 1_555
O3 Ti4 1.964680 1_455
O4 Ti0 1.749625 1_455
O5 Ti2 1.977683 1_555
O6 Ti1 1.950781 1_455
O6 Ti0 2.260870 1_455
O7 Ti4 1.952412 1_545
O7 Ti1 1.952412 1_554
O9 Ti2 1.957169 1_555
O9 Ti4 1.964498 1_445
O10 Ti2 1.956181 1_555
O10 Ti4 1.963384 1_545
O11 Ti0 2.002928 1_465
O12 Ti0 1.981436 1_565
O13 Ti5 1.981436 1_545
O14 Ti5 2.002928 1_445
O15 Ti3 1.956181 1_555
O15 Ti1 1.963384 1_565
O16 Ti3 1.957169 1_555
O16 Ti1 1.964498 1_465
O18 Ti4 1.950781 1_455
O18 Ti5 2.260870 1_455
O19 Ti3 1.977683 1_555
O20 Ti3 1.937709 1_554
O20 Ti2 1.937709 1_555
O21 Ti5 1.749625 1_455
O22 Ti3 1.959964 1_555
O22 Ti1 1.964680 1_455
O23 Ti3 1.958409 1_555
O23 Ti1 1.962589 1_555
O24 Ti0 1.988398 1_555
O25 Ti0 1.981572 1_455
