# generated using pymatgen
data_Ti3V5O16
_symmetry_space_group_name_H-M   'P 1'
_cell_length_a   5.90771496
_cell_length_b   5.90771496
_cell_length_c   9.02114729
_cell_angle_alpha   89.89769404
_cell_angle_beta   89.89769404
_cell_angle_gamma   60.61583035
_symmetry_Int_Tables_number   1
_chemical_formula_structural   Ti3V5O16
_chemical_formula_sum   'Ti3 V5 O16'
_cell_volume   274.34196945
_cell_formula_units_Z   1
loop_
 _symmetry_equiv_pos_site_id
 _symmetry_equiv_pos_as_xyz
  1  'x, y, z'
loop_
 _atom_site_type_symbol
 _atom_site_label
 _atom_site_symmetry_multiplicity
 _atom_site_fract_x
 _atom_site_fract_y
 _atom_site_fract_z
 _atom_site_occupancy
  Ti  Ti0  1  0.66433700  0.16133700  0.78800100  1
  Ti  Ti1  1  0.16133700  0.66433700  0.78800100  1
  Ti  Ti2  1  0.83558900  0.83558900  0.29263200  1
  V  V0  1  0.33129000  0.33129000  0.51406600  1
  V  V1  1  0.16697300  0.16697300  0.79516600  1
  V  V2  1  0.66134500  0.66134500  0.01466100  1
  V  V3  1  0.33616900  0.83316200  0.28972100  1
  V  V4  1  0.83316200  0.33616900  0.28972100  1
  O  O0  1  0.66470700  0.17362100  0.39426400  1
  O  O1  1  0.47277000  0.47277000  0.65482200  1
  O  O2  1  0.33488100  0.33488100  0.90222800  1
  O  O3  1  0.99850500  0.99850500  0.68740200  1
  O  O4  1  0.00111500  0.00111500  0.18637800  1
  O  O5  1  0.17362100  0.66470700  0.39426400  1
  O  O6  1  0.46717500  0.04767100  0.66281000  1
  O  O7  1  0.04767100  0.46717500  0.66281000  1
  O  O8  1  0.82769600  0.82769600  0.89564900  1
  O  O9  1  0.17752200  0.17752200  0.39676700  1
  O  O10  1  0.94882500  0.52131100  0.16118500  1
  O  O11  1  0.52131100  0.94882500  0.16118500  1
  O  O12  1  0.66889300  0.66889300  0.40047900  1
  O  O13  1  0.83003500  0.34332700  0.89505000  1
  O  O14  1  0.52316800  0.52316800  0.16233200  1
  O  O15  1  0.34332700  0.83003500  0.89505000  1
loop_
_geom_bond_atom_site_label_1
_geom_bond_atom_site_label_2
_geom_bond_distance
_geom_bond_site_symmetry_2
O0 V4 1.932151 1_555
O0 Ti2 1.967889 1_545
O0 V0 2.027564 1_555
O1 V0 1.924235 1_555
O1 Ti0 2.015673 1_555
O1 Ti1 2.015673 1_555
O2 V1 1.968042 1_555
O2 Ti0 1.984840 1_555
O2 Ti1 1.984840 1_555
O3 Ti0 1.944071 1_565
O3 Ti1 1.944071 1_655
O3 V1 1.976140 1_665
O4 Ti2 1.939841 1_445
O4 V4 1.961537 1_455
O4 V3 1.961537 1_545
O5 V3 1.932151 1_555
O5 Ti2 1.967889 1_455
O5 V0 2.027564 1_555
O6 V1 1.958707 1_555
O6 Ti0 1.964192 1_555
O6 V0 1.981988 1_555
O7 V1 1.958707 1_555
O7 Ti1 1.964192 1_555
O7 V0 1.981988 1_555
O8 Ti1 1.972131 1_655
O8 Ti0 1.972131 1_565
O8 V2 2.006120 1_556
O9 V0 1.893898 1_555
O9 V4 2.020481 1_455
O9 V3 2.020481 1_545
O10 V4 1.932311 1_555
O10 V2 1.985275 1_555
O10 Ti2 2.021639 1_555
O11 V3 1.932311 1_555
O11 V2 1.985275 1_555
O11 Ti2 2.021639 1_555
O12 Ti2 1.957303 1_555
O12 V3 1.983798 1_555
O12 V4 1.983798 1_555
O13 V1 1.954849 1_655
O13 V2 1.962967 1_556
O13 Ti0 2.021546 1_555
O14 V2 1.937403 1_555
O14 V4 1.978018 1_555
O14 V3 1.978018 1_555
O15 V1 1.954849 1_565
O15 V2 1.962967 1_556
O15 Ti1 2.021546 1_555
