# generated using pymatgen
data_Li3Mn4(PO4)6
_symmetry_space_group_name_H-M   'P 1'
_cell_length_a   8.47305700
_cell_length_b   8.51115331
_cell_length_c   8.60378344
_cell_angle_alpha   89.72216377
_cell_angle_beta   119.09949476
_cell_angle_gamma   119.60909793
_symmetry_Int_Tables_number   1
_chemical_formula_structural   Li3Mn4(PO4)6
_chemical_formula_sum   'Li3 Mn4 P6 O24'
_cell_volume   448.14541910
_cell_formula_units_Z   1
loop_
 _symmetry_equiv_pos_site_id
 _symmetry_equiv_pos_as_xyz
  1  'x, y, z'
loop_
 _atom_site_type_symbol
 _atom_site_label
 _atom_site_symmetry_multiplicity
 _atom_site_fract_x
 _atom_site_fract_y
 _atom_site_fract_z
 _atom_site_occupancy
  Li  Li0  1  0.97770400  0.63061700  0.95006400  1
  Li  Li1  1  0.41326000  0.10675100  0.66184900  1
  Li  Li2  1  0.80526500  0.96864200  0.44707700  1
  Mn  Mn0  1  0.29037000  0.15369400  0.93398200  1
  Mn  Mn1  1  0.71991900  0.35584800  0.56651100  1
  Mn  Mn2  1  0.27892900  0.64215200  0.42688700  1
  Mn  Mn3  1  0.71153900  0.84948100  0.06759300  1
  P  P0  1  0.50829600  0.47835100  0.75801300  1
  P  P1  1  0.78058800  0.03528800  0.74470900  1
  P  P2  1  0.22512800  0.75703600  0.75141500  1
  P  P3  1  0.78791300  0.25137200  0.25583600  1
  P  P4  1  0.19843000  0.95511400  0.24540600  1
  P  P5  1  0.49469500  0.52796400  0.24500200  1
  O  O0  1  0.18972200  0.98656900  0.06360600  1
  O  O1  1  0.65099700  0.48627900  0.39266400  1
  O  O2  1  0.77333100  0.21387700  0.74625300  1
  O  O3  1  0.35845300  0.27888000  0.76261300  1
  O  O4  1  0.02885300  0.61166900  0.75361700  1
  O  O5  1  0.57764000  0.87209900  0.55724000  1
  O  O6  1  0.67408000  0.63279900  0.95182300  1
  O  O7  1  0.01100400  0.94334700  0.24723600  1
  O  O8  1  0.27127400  0.95890400  0.78725600  1
  O  O9  1  0.59657600  0.25734900  0.10208200  1
  O  O10  1  0.34488800  0.53768000  0.28926900  1
  O  O11  1  0.81950700  0.27199500  0.44873500  1
  O  O12  1  0.19215800  0.72896400  0.55571100  1
  O  O13  1  0.66033500  0.46325300  0.71949100  1
  O  O14  1  0.97334700  0.06225800  0.73750600  1
  O  O15  1  0.41412800  0.74843600  0.90164900  1
  O  O16  1  0.40174400  0.10971900  0.42681900  1
  O  O17  1  0.33291100  0.37258500  0.05125100  1
  O  O18  1  0.17340500  0.75886800  0.23241000  1
  O  O19  1  0.75556300  0.05653500  0.21734000  1
  O  O20  1  0.64694800  0.72791000  0.24135900  1
  O  O21  1  0.98781300  0.41002100  0.26069600  1
  O  O22  1  0.35053400  0.51632400  0.60604100  1
  O  O23  1  0.79535800  0.99341100  0.92196000  1
loop_
_geom_bond_atom_site_label_1
_geom_bond_atom_site_label_2
_geom_bond_distance
_geom_bond_site_symmetry_2
Li0 O4 1.963352 1_655
Li0 O18 2.039966 1_656
Li0 O13 2.061373 1_555
Li0 O0 2.510684 1_656
Li0 O6 2.589218 1_555
Li1 O16 1.977185 1_555
Li1 O8 1.987067 1_545
Li1 O3 2.046878 1_555
Li1 O2 2.401950 1_555
Li2 O19 2.032549 1_565
Li2 O20 2.034722 1_555
Li2 O14 2.084147 1_565
Li2 O5 2.344744 1_555
Li2 O11 2.524222 1_565
Mn0 O17 1.902541 1_556
Mn0 O9 1.924127 1_556
Mn0 O0 1.924935 1_546
Mn0 O3 1.961284 1_555
Mn0 O8 1.981155 1_545
Mn0 O14 2.051610 1_455
Mn1 O1 1.893554 1_555
Mn1 O11 1.918844 1_555
Mn1 O2 1.974323 1_555
Mn1 O13 1.984182 1_555
Mn1 O16 2.095958 1_555
Mn1 O4 2.118396 1_655
Mn2 O22 1.899308 1_555
Mn2 O10 1.910449 1_555
Mn2 O12 1.911103 1_555
Mn2 O21 1.952810 1_455
Mn2 O5 1.964583 1_555
Mn2 O18 1.998097 1_555
Mn3 O15 1.870623 1_554
Mn3 O23 1.888383 1_554
Mn3 O6 1.904182 1_554
Mn3 O7 1.913049 1_655
Mn3 O19 1.951839 1_565
Mn3 O20 1.956161 1_555
O0 P4 1.557865 1_555
O1 P5 1.522251 1_555
O2 P1 1.551676 1_555
O3 P0 1.553726 1_555
O4 P2 1.514610 1_555
O5 P1 1.565744 1_565
O6 P0 1.549207 1_555
O7 P4 1.548996 1_555
O8 P2 1.556911 1_555
O9 P3 1.541340 1_555
O10 P5 1.528831 1_555
O11 P3 1.543114 1_555
O12 P2 1.565478 1_555
O13 P0 1.537919 1_555
O14 P1 1.565857 1_555
O15 P2 1.530423 1_555
O16 P4 1.516574 1_545
O17 P5 1.553781 1_555
O18 P4 1.573556 1_555
O19 P3 1.550037 1_555
O20 P5 1.559061 1_555
O21 P3 1.538028 1_555
O22 P0 1.524377 1_555
O23 P1 1.523674 1_565
