# generated using pymatgen
data_Li5Mn6(BO3)6
_symmetry_space_group_name_H-M   'P 1'
_cell_length_a   5.28214100
_cell_length_b   6.22034027
_cell_length_c   11.80934872
_cell_angle_alpha   85.67909325
_cell_angle_beta   78.91033343
_cell_angle_gamma   87.78508764
_symmetry_Int_Tables_number   1
_chemical_formula_structural   Li5Mn6(BO3)6
_chemical_formula_sum   'Li5 Mn6 B6 O18'
_cell_volume   379.57314047
_cell_formula_units_Z   1
loop_
 _symmetry_equiv_pos_site_id
 _symmetry_equiv_pos_as_xyz
  1  'x, y, z'
loop_
 _atom_site_type_symbol
 _atom_site_label
 _atom_site_symmetry_multiplicity
 _atom_site_fract_x
 _atom_site_fract_y
 _atom_site_fract_z
 _atom_site_occupancy
  Li  Li0  1  0.49598300  0.19070100  0.87189000  1
  Li  Li1  1  0.83836700  0.13925200  0.45908600  1
  Li  Li2  1  0.17101300  0.47376100  0.79650400  1
  Li  Li3  1  0.15633200  0.85856000  0.53763400  1
  Li  Li4  1  0.52004400  0.79053100  0.13688300  1
  Mn  Mn0  1  0.03337000  0.02235300  0.78326700  1
  Mn  Mn1  1  0.63386400  0.63946500  0.88389600  1
  Mn  Mn2  1  0.30038100  0.30958300  0.54929200  1
  Mn  Mn3  1  0.69329300  0.69006500  0.44712100  1
  Mn  Mn4  1  0.35954500  0.36125000  0.12267500  1
  Mn  Mn5  1  0.98224200  0.96292900  0.21017200  1
  B  B0  1  0.74160500  0.40444700  0.66397200  1
  B  B1  1  0.07692900  0.74090400  0.99800700  1
  B  B2  1  0.40579100  0.06957400  0.33174000  1
  B  B3  1  0.59176700  0.92847300  0.66754100  1
  B  B4  1  0.92462300  0.24409400  0.00334300  1
  B  B5  1  0.25628200  0.61681300  0.33572400  1
  O  O0  1  0.67734400  0.30508700  0.98707900  1
  O  O1  1  0.12136000  0.20901100  0.91033100  1
  O  O2  1  0.98992500  0.36154000  0.68457000  1
  O  O3  1  0.54379400  0.45719600  0.75339400  1
  O  O4  1  0.69141800  0.38340300  0.55258300  1
  O  O5  1  0.02346600  0.71293000  0.88838200  1
  O  O6  1  0.65878600  0.02547100  0.34455900  1
  O  O7  1  0.64515200  0.95007200  0.77819000  1
  O  O8  1  0.21374000  0.12371600  0.42209600  1
  O  O9  1  0.78621100  0.87493000  0.57754600  1
  O  O10  1  0.34461000  0.04341400  0.22273700  1
  O  O11  1  0.34177500  0.97114400  0.64848900  1
  O  O12  1  0.98658100  0.23501800  0.11480900  1
  O  O13  1  0.30176000  0.61882000  0.44880800  1
  O  O14  1  0.43818400  0.54261500  0.24961600  1
  O  O15  1  0.01711100  0.70501600  0.31598300  1
  O  O16  1  0.88139800  0.81722300  0.08133500  1
  O  O17  1  0.32202400  0.68922600  0.02081900  1
loop_
_geom_bond_atom_site_label_1
_geom_bond_atom_site_label_2
_geom_bond_distance
_geom_bond_site_symmetry_2
Li0 O1 1.944106 1_555
Li0 O7 1.977034 1_545
Li0 O0 1.993551 1_555
Li0 O3 2.077688 1_555
Li1 O8 1.946768 1_655
Li1 O6 1.979798 1_555
Li1 O4 1.989960 1_555
Li1 O9 2.067942 1_545
Li2 O3 1.937439 1_555
Li2 O5 1.956086 1_555
Li2 O2 1.956176 1_455
Li2 O1 2.037640 1_555
Li3 O9 1.921467 1_455
Li3 O13 1.936879 1_555
Li3 O11 1.961685 1_555
Li3 O8 2.052900 1_565
Li4 O16 1.904606 1_555
Li4 O14 1.964232 1_555
Li4 O17 2.025439 1_555
Li4 O10 2.031569 1_565
Mn0 O11 2.080240 1_545
Mn0 O1 2.094821 1_555
Mn0 O7 2.129183 1_445
Mn0 O5 2.207028 1_545
Mn0 O2 2.357452 1_455
Mn1 O17 2.105950 1_556
Mn1 O3 2.115176 1_555
Mn1 O5 2.136586 1_655
Mn1 O7 2.216221 1_555
Mn1 O0 2.356384 1_555
Mn2 O8 2.090332 1_555
Mn2 O2 2.091607 1_455
Mn2 O4 2.141398 1_555
Mn2 O13 2.182219 1_555
Mn2 O11 2.354430 1_545
Mn3 O15 2.074660 1_655
Mn3 O13 2.127823 1_555
Mn3 O9 2.129990 1_555
Mn3 O4 2.197421 1_555
Mn3 O6 2.351122 1_565
Mn4 O14 2.055030 1_555
Mn4 O0 2.123444 1_554
Mn4 O12 2.169614 1_455
Mn4 O10 2.221585 1_555
Mn4 O17 2.310609 1_555
Mn5 O12 1.959378 1_565
Mn5 O15 1.983114 1_655
Mn5 O16 1.994237 1_555
Mn5 O10 2.032458 1_665
Mn5 O6 2.141885 1_565
B0 O3 1.384132 1_555
B0 O2 1.391674 1_555
B0 O4 1.407319 1_555
B1 O16 1.379116 1_456
B1 O17 1.393167 1_556
B1 O5 1.401571 1_555
B2 O8 1.375657 1_555
B2 O6 1.388255 1_555
B2 O10 1.408403 1_555
B3 O9 1.379243 1_555
B3 O11 1.393907 1_555
B3 O7 1.405753 1_555
B4 O1 1.383305 1_654
B4 O0 1.390725 1_554
B4 O12 1.412850 1_555
B5 O14 1.353085 1_555
B5 O13 1.402654 1_555
B5 O15 1.411323 1_555
