# generated using pymatgen
data_PrSO
_symmetry_space_group_name_H-M   'P 1'
_cell_length_a   5.89738761
_cell_length_b   7.17263695
_cell_length_c   5.89009034
_cell_angle_alpha   90.00604940
_cell_angle_beta   89.99996133
_cell_angle_gamma   114.26566923
_symmetry_Int_Tables_number   1
_chemical_formula_structural   PrSO
_chemical_formula_sum   'Pr4 S4 O4'
_cell_volume   227.13730149
_cell_formula_units_Z   4
loop_
 _symmetry_equiv_pos_site_id
 _symmetry_equiv_pos_as_xyz
  1  'x, y, z'
loop_
 _atom_site_type_symbol
 _atom_site_label
 _atom_site_symmetry_multiplicity
 _atom_site_fract_x
 _atom_site_fract_y
 _atom_site_fract_z
 _atom_site_occupancy
  Pr  Pr0  1  0.65916306  0.32160465  0.00470938  1
  Pr  Pr1  1  0.33630914  0.67604015  0.00486826  1
  Pr  Pr2  1  0.83634997  0.67615101  0.50478998  1
  Pr  Pr3  1  0.15905535  0.32143411  0.50480882  1
  S  S0  1  0.87288969  0.99854162  0.13037204  1
  S  S1  1  0.37416692  0.99887141  0.37966099  1
  S  S2  1  0.62385844  0.99899500  0.63186278  1
  S  S3  1  0.12425455  0.99869304  0.87982490  1
  O  O0  1  0.49198607  0.49866067  0.25482806  1
  O  O1  1  0.99204931  0.49871450  0.25480616  1
  O  O2  1  0.50311446  0.49887855  0.75463259  1
  O  O3  1  0.00316004  0.49893230  0.75460704  1
loop_
_geom_bond_atom_site_label_1
_geom_bond_atom_site_label_2
_geom_bond_distance
_geom_bond_site_symmetry_2
Pr0 S2 3.134256 1_544
Pr0 S3 3.138641 1_544
Pr0 S1 3.140711 1_545
Pr0 S0 3.147536 1_545
Pr1 S2 3.137021 1_554
Pr1 S3 3.137101 1_554
Pr1 S1 3.139898 1_555
Pr1 S0 3.145475 1_555
Pr2 S0 3.138262 1_555
Pr2 S2 3.142855 1_555
Pr2 S3 3.144037 1_655
Pr2 S1 3.150711 1_655
Pr3 S0 3.140438 1_445
Pr3 S2 3.141870 1_445
Pr3 S3 3.144937 1_545
Pr3 S1 3.149227 1_545
S0 S3 2.091410 1_654
S1 S2 2.091400 1_555
O0 Pr3 2.363866 1_555
O0 Pr1 2.364249 1_555
O0 Pr0 2.404976 1_555
O0 Pr2 2.405676 1_555
O1 Pr0 2.363803 1_555
O1 Pr2 2.364535 1_555
O1 Pr1 2.405153 1_655
O1 Pr3 2.405212 1_655
O2 Pr2 2.364521 1_555
O2 Pr0 2.365486 1_556
O2 Pr3 2.403992 1_555
O2 Pr1 2.404552 1_556
O3 Pr3 2.364868 1_555
O3 Pr1 2.365349 1_556
O3 Pr2 2.403510 1_455
O3 Pr0 2.404777 1_456
