# generated using pymatgen
data_Na2FePCO7
_symmetry_space_group_name_H-M   'P 1'
_cell_length_a   6.52654100
_cell_length_b   10.35602800
_cell_length_c   10.50723915
_cell_angle_alpha   59.83160380
_cell_angle_beta   90.00000000
_cell_angle_gamma   90.00000000
_symmetry_Int_Tables_number   1
_chemical_formula_structural   Na2FePCO7
_chemical_formula_sum   'Na8 Fe4 P4 C4 O28'
_cell_volume   613.98263651
_cell_formula_units_Z   4
loop_
 _symmetry_equiv_pos_site_id
 _symmetry_equiv_pos_as_xyz
  1  'x, y, z'
loop_
 _atom_site_type_symbol
 _atom_site_label
 _atom_site_symmetry_multiplicity
 _atom_site_fract_x
 _atom_site_fract_y
 _atom_site_fract_z
 _atom_site_occupancy
  Na  Na0  1  0.25795700  0.08015800  0.32828000  1
  Na  Na1  1  0.24204300  0.08015800  0.82828000  1
  Na  Na2  1  0.01283500  0.26349700  0.49147500  1
  Na  Na3  1  0.48716500  0.26349700  0.99147500  1
  Na  Na4  1  0.98716500  0.73650300  0.50852500  1
  Na  Na5  1  0.51283500  0.73650300  0.00852500  1
  Na  Na6  1  0.74204300  0.91984200  0.67172000  1
  Na  Na7  1  0.75795700  0.91984200  0.17172000  1
  Fe  Fe0  1  0.74659500  0.34606500  0.68519700  1
  Fe  Fe1  1  0.75340500  0.34606500  0.18519700  1
  Fe  Fe2  1  0.25340500  0.65393500  0.31480300  1
  Fe  Fe3  1  0.24659500  0.65393500  0.81480300  1
  P  P0  1  0.24966200  0.42434000  0.68305700  1
  P  P1  1  0.25033800  0.42434000  0.18305700  1
  P  P2  1  0.75033800  0.57566000  0.31694300  1
  P  P3  1  0.74966200  0.57566000  0.81694300  1
  C  C0  1  0.75159800  0.06518900  0.35205500  1
  C  C1  1  0.74840200  0.06518900  0.85205500  1
  C  C2  1  0.24840200  0.93481100  0.64794500  1
  C  C3  1  0.25159800  0.93481100  0.14794500  1
  O  O0  1  0.23844800  0.07506000  0.56494600  1
  O  O1  1  0.26155200  0.07506000  0.06494600  1
  O  O2  1  0.76759300  0.12909600  0.70831400  1
  O  O3  1  0.73240700  0.12909600  0.20831400  1
  O  O4  1  0.75976100  0.15801600  0.40257900  1
  O  O5  1  0.74023900  0.15801600  0.90257900  1
  O  O6  1  0.06181600  0.32527500  0.69785200  1
  O  O7  1  0.43886500  0.32344600  0.70965200  1
  O  O8  1  0.06113500  0.32344600  0.20965200  1
  O  O9  1  0.43818400  0.32527500  0.19785200  1
  O  O10  1  0.75183000  0.43106900  0.46958300  1
  O  O11  1  0.74817000  0.43106900  0.96958300  1
  O  O12  1  0.25049600  0.46885600  0.30471200  1
  O  O13  1  0.24950400  0.46885600  0.80471200  1
  O  O14  1  0.74950400  0.53114400  0.69528800  1
  O  O15  1  0.75049600  0.53114400  0.19528800  1
  O  O16  1  0.24817000  0.56893100  0.53041700  1
  O  O17  1  0.25183000  0.56893100  0.03041700  1
  O  O18  1  0.56113500  0.67655400  0.29034800  1
  O  O19  1  0.93818400  0.67472500  0.30214800  1
  O  O20  1  0.93886500  0.67655400  0.79034800  1
  O  O21  1  0.56181600  0.67472500  0.80214800  1
  O  O22  1  0.24023900  0.84198400  0.59742100  1
  O  O23  1  0.25976100  0.84198400  0.09742100  1
  O  O24  1  0.23240700  0.87090400  0.29168600  1
  O  O25  1  0.26759300  0.87090400  0.79168600  1
  O  O26  1  0.76155200  0.92494000  0.43505400  1
  O  O27  1  0.73844800  0.92494000  0.93505400  1
loop_
_geom_bond_atom_site_label_1
_geom_bond_atom_site_label_2
_geom_bond_distance
_geom_bond_site_symmetry_2
Na0 O24 2.389389 1_545
Na0 O0 2.463890 1_555
Na0 O9 2.491764 1_555
Na0 O8 2.528876 1_555
Na0 O22 2.661520 1_545
Na0 O1 2.793916 1_555
Na1 O25 2.389389 1_545
Na1 O1 2.463890 1_556
Na1 O6 2.491764 1_555
Na1 O7 2.528876 1_555
Na1 O23 2.661520 1_546
Na1 O0 2.793916 1_555
Na2 O0 2.249038 1_555
Na2 O10 2.359030 1_455
Na2 O4 2.412329 1_455
Na2 O2 2.550066 1_455
Na2 O12 2.566139 1_555
Na2 O6 2.570616 1_555
Na2 O8 2.721333 1_555
Na3 O1 2.249038 1_556
Na3 O11 2.359030 1_555
Na3 O5 2.412329 1_555
Na3 O3 2.550066 1_556
Na3 O13 2.566139 1_555
Na3 O9 2.570616 1_556
Na3 O7 2.721333 1_555
Na4 O26 2.249038 1_555
Na4 O16 2.359030 1_655
Na4 O22 2.412329 1_655
Na4 O24 2.550066 1_655
Na4 O14 2.566139 1_555
Na4 O19 2.570616 1_555
Na4 O20 2.721333 1_555
Na5 O27 2.249038 1_554
Na5 O17 2.359030 1_555
Na5 O23 2.412329 1_555
Na5 O25 2.550066 1_554
Na5 O15 2.566139 1_555
Na5 O21 2.570616 1_554
Na5 O18 2.721333 1_555
Na6 O2 2.389389 1_565
Na6 O26 2.463890 1_555
Na6 O21 2.491764 1_555
Na6 O20 2.528876 1_555
Na6 O4 2.661520 1_565
Na6 O27 2.793916 1_555
Na7 O3 2.389389 1_565
Na7 O27 2.463890 1_554
Na7 O19 2.491764 1_555
Na7 O18 2.528876 1_555
Na7 O5 2.661520 1_564
Na7 O26 2.793916 1_555
Fe0 O14 1.972190 1_555
Fe0 O10 1.975892 1_555
Fe0 O7 2.023393 1_555
Fe0 O6 2.065855 1_655
Fe0 O5 2.130855 1_555
Fe0 O2 2.139616 1_555
Fe1 O15 1.972190 1_555
Fe1 O11 1.975892 1_554
Fe1 O8 2.023393 1_655
Fe1 O9 2.065855 1_555
Fe1 O4 2.130855 1_555
Fe1 O3 2.139616 1_555
Fe2 O12 1.972190 1_555
Fe2 O16 1.975892 1_555
Fe2 O18 2.023393 1_555
Fe2 O19 2.065855 1_455
Fe2 O23 2.130855 1_555
Fe2 O24 2.139616 1_555
Fe3 O13 1.972190 1_555
Fe3 O17 1.975892 1_556
Fe3 O20 2.023393 1_455
Fe3 O21 2.065855 1_555
Fe3 O22 2.130855 1_555
Fe3 O25 2.139616 1_555
C0 O26 1.265388 1_545
C0 O4 1.312144 1_555
C0 O3 1.315339 1_555
C1 O27 1.265388 1_545
C1 O5 1.312144 1_555
C1 O2 1.315339 1_555
C2 O0 1.265388 1_565
C2 O22 1.312144 1_555
C2 O25 1.315339 1_555
C3 O1 1.265388 1_565
C3 O23 1.312144 1_555
C3 O24 1.315339 1_555
O6 P0 1.555449 1_555
O7 P0 1.549578 1_555
O8 P1 1.549578 1_555
O9 P1 1.555449 1_555
O10 P2 1.549438 1_555
O11 P3 1.549438 1_555
O12 P1 1.561653 1_555
O13 P0 1.561653 1_555
O14 P3 1.561653 1_555
O15 P2 1.561653 1_555
O16 P0 1.549438 1_555
O17 P1 1.549438 1_555
O18 P2 1.549578 1_555
O19 P2 1.555449 1_555
O20 P3 1.549578 1_555
O21 P3 1.555449 1_555
