# generated using pymatgen
data_Li8CoO5F
_symmetry_space_group_name_H-M   'P 1'
_cell_length_a   10.93619600
_cell_length_b   5.54506100
_cell_length_c   5.56834677
_cell_angle_alpha   60.47175440
_cell_angle_beta   90.00000000
_cell_angle_gamma   90.00000000
_symmetry_Int_Tables_number   1
_chemical_formula_structural   Li8CoO5F
_chemical_formula_sum   'Li16 Co2 O10 F2'
_cell_volume   293.81533695
_cell_formula_units_Z   2
loop_
 _symmetry_equiv_pos_site_id
 _symmetry_equiv_pos_as_xyz
  1  'x, y, z'
loop_
 _atom_site_type_symbol
 _atom_site_label
 _atom_site_symmetry_multiplicity
 _atom_site_fract_x
 _atom_site_fract_y
 _atom_site_fract_z
 _atom_site_occupancy
  Li  Li0  1  0.22740600  0.81357500  0.97237100  1
  Li  Li1  1  0.87944100  0.85877400  0.01734000  1
  Li  Li2  1  0.37944100  0.14122600  0.98266000  1
  Li  Li3  1  0.72740600  0.18642500  0.02762900  1
  Li  Li4  1  0.58635300  0.83480900  0.32554300  1
  Li  Li5  1  0.07512700  0.82959500  0.32849900  1
  Li  Li6  1  0.22752700  0.20942200  0.30743400  1
  Li  Li7  1  0.87769700  0.11411700  0.36286100  1
  Li  Li8  1  0.37769700  0.88588300  0.63713900  1
  Li  Li9  1  0.72810200  0.51960300  0.28789500  1
  Li  Li10  1  0.72752700  0.79057800  0.69256600  1
  Li  Li11  1  0.37797400  0.48023300  0.38036900  1
  Li  Li12  1  0.08635300  0.16519100  0.67445700  1
  Li  Li13  1  0.57512700  0.17040500  0.67150100  1
  Li  Li14  1  0.87797400  0.51976700  0.61963100  1
  Li  Li15  1  0.22810200  0.48039700  0.71210500  1
  Co  Co0  1  0.01219300  0.49355600  0.00257600  1
  Co  Co1  1  0.51219300  0.50644400  0.99742400  1
  O  O0  1  0.05252600  0.82398600  0.99204800  1
  O  O1  1  0.55252600  0.17601400  0.00795200  1
  O  O2  1  0.78678000  0.83041400  0.33155900  1
  O  O3  1  0.32854200  0.50007300  0.99852100  1
  O  O4  1  0.82854200  0.49992700  0.00147900  1
  O  O5  1  0.05111300  0.17659500  0.31688900  1
  O  O6  1  0.55201800  0.49136100  0.32237300  1
  O  O7  1  0.55111300  0.82340500  0.68311100  1
  O  O8  1  0.28678000  0.16958600  0.66844100  1
  O  O9  1  0.05201800  0.50863900  0.67762700  1
  F  F0  1  0.28998100  0.83370100  0.33006400  1
  F  F1  1  0.78998100  0.16629900  0.66993600  1
loop_
_geom_bond_atom_site_label_1
_geom_bond_atom_site_label_2
_geom_bond_distance
_geom_bond_site_symmetry_2
Li0 O0 1.918154 1_555
Li0 O8 1.972230 1_565
Li0 O3 2.004249 1_555
Li1 O0 1.914905 1_654
Li1 O2 1.960048 1_555
Li1 O4 2.109572 1_555
Li2 O1 1.914905 1_556
Li2 O8 1.960048 1_555
Li2 O3 2.109572 1_555
Li3 O1 1.918154 1_555
Li3 O2 1.972230 1_545
Li3 O4 2.004249 1_555
Li4 O1 1.883049 1_565
Li4 O6 1.949701 1_555
Li4 O7 1.998186 1_555
Li4 O2 2.192117 1_555
Li5 O9 1.897428 1_555
Li5 O0 1.905101 1_554
Li5 O5 1.911239 1_565
Li6 O5 1.936143 1_555
Li6 O3 2.010995 1_554
Li6 O8 2.017910 1_555
Li7 O5 1.922210 1_655
Li7 O2 1.940121 1_545
Li7 O4 2.161401 1_555
Li8 O7 1.922210 1_555
Li8 O8 1.940121 1_565
Li8 O3 2.161401 1_555
Li9 O6 1.933915 1_555
Li9 O2 1.963236 1_555
Li9 O4 1.983322 1_555
Li10 O7 1.936143 1_555
Li10 O4 2.010995 1_556
Li10 O2 2.017910 1_555
Li11 O6 1.926476 1_555
Li11 O8 1.952255 1_555
Li11 O3 2.143540 1_554
Li12 O0 1.883049 1_545
Li12 O9 1.949701 1_555
Li12 O5 1.998186 1_555
Li12 O8 2.192117 1_555
Li13 O6 1.897428 1_555
Li13 O1 1.905101 1_556
Li13 O7 1.911239 1_545
Li14 O9 1.926476 1_655
Li14 O2 1.952255 1_555
Li14 O4 2.143540 1_556
Li15 O9 1.933915 1_555
Li15 O8 1.963236 1_555
Li15 O3 1.983322 1_555
Co0 O5 1.816947 1_555
Co0 O9 1.822511 1_554
Co0 O0 1.857223 1_554
Co0 O4 2.008710 1_455
Co1 O7 1.816947 1_555
Co1 O6 1.822511 1_556
Co1 O1 1.857223 1_556
Co1 O3 2.008710 1_555
F0 Li11 2.074833 1_555
F0 Li2 2.087009 1_564
F0 Li8 2.101283 1_555
F0 Li6 2.136385 1_565
F0 Li0 2.160317 1_554
F0 Li15 2.171056 1_555
F0 Li5 2.349854 1_555
F1 Li14 2.074833 1_555
F1 Li1 2.087009 1_546
F1 Li7 2.101283 1_555
F1 Li10 2.136385 1_545
F1 Li3 2.160317 1_556
F1 Li9 2.171056 1_555
F1 Li13 2.349854 1_555
