# generated using pymatgen
data_Li3TiMn2O6
_symmetry_space_group_name_H-M   'P 1'
_cell_length_a   2.96736936
_cell_length_b   5.94848644
_cell_length_c   7.02455641
_cell_angle_alpha   101.78520063
_cell_angle_beta   77.80688545
_cell_angle_gamma   90.00215266
_symmetry_Int_Tables_number   1
_chemical_formula_structural   Li3TiMn2O6
_chemical_formula_sum   'Li3 Ti1 Mn2 O6'
_cell_volume   118.52061846
_cell_formula_units_Z   1
loop_
 _symmetry_equiv_pos_site_id
 _symmetry_equiv_pos_as_xyz
  1  'x, y, z'
loop_
 _atom_site_type_symbol
 _atom_site_label
 _atom_site_symmetry_multiplicity
 _atom_site_fract_x
 _atom_site_fract_y
 _atom_site_fract_z
 _atom_site_occupancy
  Li  Li0  1  0.33323700  0.83338000  0.33352500  1
  Li  Li1  1  0.99355000  0.50771400  0.01294400  1
  Li  Li2  1  0.67312600  0.15881800  0.65370700  1
  Ti  Ti0  1  0.33307800  0.33334500  0.33385000  1
  Mn  Mn0  1  0.66439200  0.67492900  0.67119500  1
  Mn  Mn1  1  0.00235400  0.99205400  0.99532000  1
  O  O0  1  0.48283000  0.24461000  0.03425000  1
  O  O1  1  0.18407200  0.42117600  0.63192300  1
  O  O2  1  0.16843500  0.90727200  0.66296400  1
  O  O3  1  0.49812800  0.76019900  0.00392600  1
  O  O4  1  0.83749500  0.55549100  0.32498900  1
  O  O5  1  0.82930100  0.11100900  0.34141000  1
loop_
_geom_bond_atom_site_label_1
_geom_bond_atom_site_label_2
_geom_bond_distance
_geom_bond_site_symmetry_2
Li0 O5 2.212266 1_565
Li0 O2 2.212277 1_555
Li0 O5 2.212324 1_465
Li0 O4 2.212836 1_455
Li0 O4 2.212880 1_555
Li0 O3 2.213422 1_555
Li1 O4 2.101604 1_555
Li1 O3 2.121153 1_555
Li1 O3 2.121361 1_655
Li1 O0 2.183444 1_655
Li1 O0 2.183635 1_555
Li1 O1 2.558577 1_654
Li2 O5 2.103305 1_555
Li2 O2 2.117472 1_645
Li2 O2 2.117654 1_545
Li2 O1 2.180943 1_555
Li2 O1 2.181082 1_655
Li2 O0 2.555417 1_556
Mn0 O2 2.036304 1_655
Mn0 O2 2.036693 1_555
Mn0 O1 2.093276 1_555
Mn0 O1 2.093544 1_655
Mn0 O3 2.234333 1_556
Mn0 O4 2.334422 1_555
Mn1 O3 2.034746 1_456
Mn1 O3 2.035155 1_556
Mn1 O0 2.088359 1_566
Mn1 O0 2.088691 1_466
Mn1 O2 2.231785 1_555
Mn1 O5 2.333400 1_466
O0 Ti0 2.014060 1_555
O1 Ti0 2.003666 1_555
O4 Ti0 1.996131 1_555
O4 Ti0 1.996264 1_655
O5 Ti0 1.995421 1_655
O5 Ti0 1.995507 1_555
