# generated using pymatgen
data_Ca2Ga2Si(HO4)2
_symmetry_space_group_name_H-M   'P 1'
_cell_length_a   7.82560442
_cell_length_b   7.82560442
_cell_length_c   7.82560442
_cell_angle_alpha   109.40011086
_cell_angle_beta   109.40011086
_cell_angle_gamma   109.61353399
_symmetry_Int_Tables_number   1
_chemical_formula_structural   Ca2Ga2Si(HO4)2
_chemical_formula_sum   'Ca4 Ga4 Si2 H4 O16'
_cell_volume   368.91793686
_cell_formula_units_Z   2
loop_
 _symmetry_equiv_pos_site_id
 _symmetry_equiv_pos_as_xyz
  1  'x, y, z'
loop_
 _atom_site_type_symbol
 _atom_site_label
 _atom_site_symmetry_multiplicity
 _atom_site_fract_x
 _atom_site_fract_y
 _atom_site_fract_z
 _atom_site_occupancy
  Ca  Ca0  1  0.99933300  0.72105000  0.00478700  1
  Ca  Ca1  1  0.27895000  0.28373700  0.27828300  1
  Ca  Ca2  1  0.71626300  0.99454600  0.99521300  1
  Ca  Ca3  1  0.00545400  0.00066700  0.72171700  1
  Ga  Ga0  1  0.50265900  0.75601300  0.25741300  1
  Ga  Ga1  1  0.24398700  0.50139900  0.74664600  1
  Ga  Ga2  1  0.75475400  0.49734100  0.25335400  1
  Ga  Ga3  1  0.49860100  0.24524600  0.74258700  1
  Si  Si0  1  0.25000000  0.75000000  0.50000000  1
  Si  Si1  1  0.75000000  0.25000000  0.50000000  1
  H  H0  1  0.34959300  0.98522600  0.01209900  1
  H  H1  1  0.97312600  0.33749400  0.98790100  1
  H  H2  1  0.66250600  0.65040700  0.63563200  1
  H  H3  1  0.01477400  0.02687400  0.36436800  1
  O  O0  1  0.44106300  0.74014100  0.00185700  1
  O  O1  1  0.02182500  0.73168900  0.45930600  1
  O  O2  1  0.00027900  0.22723500  0.99587600  1
  O  O3  1  0.26831100  0.72761700  0.29013600  1
  O  O4  1  0.43748100  0.97817500  0.70986300  1
  O  O5  1  0.23135900  0.00440300  0.00412400  1
  O  O6  1  0.99559700  0.99972100  0.22695500  1
  O  O7  1  0.27238300  0.56251900  0.54069400  1
  O  O8  1  0.56079400  0.55893700  0.29907800  1
  O  O9  1  0.73828400  0.43920600  0.99814300  1
  O  O10  1  0.25985900  0.26171600  0.70092200  1
  O  O11  1  0.72956800  0.26516800  0.28894200  1
  O  O12  1  0.77276500  0.76864100  0.77304500  1
  O  O13  1  0.55937400  0.27043200  0.53560000  1
  O  O14  1  0.73483200  0.02377400  0.46440000  1
  O  O15  1  0.97622600  0.44062600  0.71105800  1
loop_
_geom_bond_atom_site_label_1
_geom_bond_atom_site_label_2
_geom_bond_distance
_geom_bond_site_symmetry_2
Ca0 O12 2.308053 1_554
Ca0 O6 2.310222 1_555
Ca0 O5 2.350477 1_665
Ca0 O9 2.422603 1_554
Ca0 O3 2.479579 1_655
Ca0 O15 2.497699 1_554
Ca1 O5 2.308058 1_555
Ca1 O2 2.310226 1_554
Ca1 O6 2.350473 1_445
Ca1 O8 2.422603 1_555
Ca1 O7 2.479579 1_555
Ca1 O13 2.497699 1_555
Ca2 O6 2.308054 1_556
Ca2 O12 2.310221 1_555
Ca2 O2 2.350477 1_665
Ca2 O0 2.422603 1_556
Ca2 O4 2.479584 1_555
Ca2 O11 2.497699 1_566
Ca3 O2 2.308058 1_555
Ca3 O5 2.310226 1_556
Ca3 O12 2.350482 1_445
Ca3 O10 2.422603 1_555
Ca3 O1 2.479579 1_545
Ca3 O14 2.497699 1_455
Ga0 O8 1.843457 1_555
Ga0 O0 1.844364 1_555
Ga0 O14 1.884069 1_565
Ga0 O3 1.885310 1_555
Ga1 O0 1.843460 1_556
Ga1 O10 1.844356 1_555
Ga1 O15 1.884070 1_455
Ga1 O7 1.885314 1_555
Ga2 O9 1.843457 1_554
Ga2 O8 1.844364 1_555
Ga2 O11 1.884069 1_555
Ga2 O1 1.885310 1_655
Ga3 O10 1.843465 1_555
Ga3 O9 1.844361 1_555
Ga3 O13 1.884065 1_555
Ga3 O4 1.885306 1_545
H0 O5 0.971385 1_565
H1 O2 0.971389 1_655
H2 O12 0.971393 1_555
H3 O6 0.971399 1_445
O1 Si0 1.652419 1_555
O3 Si0 1.652419 1_555
O4 Si0 1.652417 1_555
O7 Si0 1.652419 1_555
O11 Si1 1.653834 1_555
O13 Si1 1.653834 1_555
O14 Si1 1.653834 1_555
O15 Si1 1.653834 1_555
