# generated using pymatgen
data_Li5Mn2Co5O12
_symmetry_space_group_name_H-M   'P 1'
_cell_length_a   5.15294984
_cell_length_b   5.15294984
_cell_length_c   9.87375855
_cell_angle_alpha   84.32026393
_cell_angle_beta   84.32026393
_cell_angle_gamma   121.29764733
_symmetry_Int_Tables_number   1
_chemical_formula_structural   Li5Mn2Co5O12
_chemical_formula_sum   'Li5 Mn2 Co5 O12'
_cell_volume   219.41097270
_cell_formula_units_Z   1
loop_
 _symmetry_equiv_pos_site_id
 _symmetry_equiv_pos_as_xyz
  1  'x, y, z'
loop_
 _atom_site_type_symbol
 _atom_site_label
 _atom_site_symmetry_multiplicity
 _atom_site_fract_x
 _atom_site_fract_y
 _atom_site_fract_z
 _atom_site_occupancy
  Li  Li0  1  0.83809800  0.67103100  0.25354700  1
  Li  Li1  1  0.66600500  0.83739900  0.74801800  1
  Li  Li2  1  0.32896900  0.16190200  0.74645300  1
  Li  Li3  1  0.16260100  0.33399500  0.25198200  1
  Li  Li4  1  0.08599500  0.91400500  0.50000000  1
  Mn  Mn0  1  0.75214900  0.24785100  0.50000000  1
  Mn  Mn1  1  0.24569500  0.75430500  0.00000000  1
  Co  Co0  1  0.91364600  0.08635400  0.00000000  1
  Co  Co1  1  0.99702600  0.50589800  0.74603000  1
  Co  Co2  1  0.49410200  0.00297400  0.25397000  1
  Co  Co3  1  0.57733100  0.42266900  0.00000000  1
  Co  Co4  1  0.41770500  0.58229500  0.50000000  1
  O  O0  1  0.88067700  0.38955300  0.11882700  1
  O  O1  1  0.70446300  0.50939700  0.61496300  1
  O  O2  1  0.61044700  0.11932300  0.88117300  1
  O  O3  1  0.97771700  0.79496000  0.88178800  1
  O  O4  1  0.49060300  0.29553700  0.38503700  1
  O  O5  1  0.77040600  0.95904400  0.38631800  1
  O  O6  1  0.20504000  0.02228300  0.11821200  1
  O  O7  1  0.51162700  0.71599100  0.11772100  1
  O  O8  1  0.39614000  0.86972000  0.61514300  1
  O  O9  1  0.04095600  0.22959400  0.61368200  1
  O  O10  1  0.28400900  0.48837300  0.88227900  1
  O  O11  1  0.13028000  0.60386000  0.38485700  1
loop_
_geom_bond_atom_site_label_1
_geom_bond_atom_site_label_2
_geom_bond_distance
_geom_bond_site_symmetry_2
Li0 O4 2.019575 1_555
Li0 O6 2.025416 1_665
Li0 O0 2.139181 1_555
Li0 O5 2.208009 1_555
Li0 O11 2.215084 1_655
Li0 O7 2.339307 1_555
Li1 O10 2.049407 1_555
Li1 O8 2.059438 1_555
Li1 O9 2.117059 1_665
Li1 O2 2.157919 1_565
Li1 O3 2.258333 1_555
Li1 O1 2.314713 1_555
Li2 O1 2.019575 1_555
Li2 O3 2.025416 1_445
Li2 O2 2.139181 1_555
Li2 O9 2.208009 1_555
Li2 O8 2.215084 1_545
Li2 O10 2.339307 1_555
Li3 O7 2.049407 1_555
Li3 O11 2.059438 1_555
Li3 O5 2.117059 1_445
Li3 O0 2.157919 1_455
Li3 O6 2.258333 1_555
Li3 O4 2.314713 1_555
Li4 O1 2.081280 1_455
Li4 O4 2.081280 1_565
Li4 O8 2.141476 1_555
Li4 O11 2.141476 1_555
Li4 O9 2.158759 1_565
Li4 O5 2.158759 1_455
Mn0 O4 1.938280 1_555
Mn0 O1 1.938280 1_555
Mn0 O8 1.972166 1_545
Mn0 O11 1.972166 1_655
Mn0 O9 1.984630 1_655
Mn0 O5 1.984630 1_545
Mn1 O10 1.954172 1_554
Mn1 O7 1.954172 1_555
Mn1 O3 1.970847 1_454
Mn1 O6 1.970847 1_565
Mn1 O0 1.975039 1_455
Mn1 O2 1.975039 1_564
Co0 O10 2.064328 1_654
Co0 O7 2.064328 1_545
Co0 O2 2.108452 1_554
Co0 O0 2.108452 1_555
Co0 O6 2.124065 1_655
Co0 O3 2.124065 1_544
Co1 O1 2.087490 1_555
Co1 O8 2.098329 1_655
Co1 O9 2.104905 1_655
Co1 O10 2.124457 1_655
Co1 O2 2.131142 1_555
Co1 O3 2.132637 1_555
Co2 O4 2.087490 1_555
Co2 O11 2.098329 1_545
Co2 O5 2.104905 1_545
Co2 O7 2.124457 1_545
Co2 O0 2.131142 1_555
Co2 O6 2.132637 1_555
Co3 O3 2.065718 1_554
Co3 O6 2.065718 1_555
Co3 O2 2.109398 1_554
Co3 O0 2.109398 1_555
Co3 O10 2.133487 1_554
Co3 O7 2.133487 1_555
Co4 O5 1.957299 1_555
Co4 O9 1.957299 1_555
Co4 O11 1.994436 1_555
Co4 O8 1.994436 1_555
Co4 O4 2.106499 1_555
Co4 O1 2.106499 1_555
