# generated using pymatgen
data_Hf2N2O
_symmetry_space_group_name_H-M   'P 1'
_cell_length_a   8.66672376
_cell_length_b   8.67170129
_cell_length_c   8.67557645
_cell_angle_alpha   109.49040813
_cell_angle_beta   109.44890365
_cell_angle_gamma   109.38886444
_symmetry_Int_Tables_number   1
_chemical_formula_structural   Hf2N2O
_chemical_formula_sum   'Hf16 N16 O8'
_cell_volume   502.44993592
_cell_formula_units_Z   8
loop_
 _symmetry_equiv_pos_site_id
 _symmetry_equiv_pos_as_xyz
  1  'x, y, z'
loop_
 _atom_site_type_symbol
 _atom_site_label
 _atom_site_symmetry_multiplicity
 _atom_site_fract_x
 _atom_site_fract_y
 _atom_site_fract_z
 _atom_site_occupancy
  Hf  Hf0  1  0.98862839  0.48189751  0.99142308  1
  Hf  Hf1  1  0.74583808  0.71575658  0.96711182  1
  Hf  Hf2  1  0.96356579  0.74763685  0.71462830  1
  Hf  Hf3  1  0.53386476  0.24948830  0.78586792  1
  Hf  Hf4  1  0.70309813  0.46015513  0.24128850  1
  Hf  Hf5  1  0.22340892  0.96658566  0.25802918  1
  Hf  Hf6  1  0.51176780  0.51152562  0.50077952  1
  Hf  Hf7  1  0.49133291  0.99603654  0.00324668  1
  Hf  Hf8  1  0.00149246  0.01094379  0.50992895  1
  Hf  Hf9  1  0.75026838  0.21373192  0.47121763  1
  Hf  Hf10  1  0.25032841  0.78537302  0.54077304  1
  Hf  Hf11  1  0.79071779  0.03058819  0.74784620  1
  Hf  Hf12  1  0.28064940  0.53783498  0.74999204  1
  Hf  Hf13  1  0.04254491  0.26065645  0.29108575  1
  Hf  Hf14  1  0.46792023  0.74935585  0.21057164  1
  Hf  Hf15  1  0.24800778  0.28950982  0.02976321  1
  N  N0  1  0.77621736  0.51987136  0.04983949  1
  N  N1  1  0.27443604  0.04405036  0.53145188  1
  N  N2  1  0.74186927  0.46741010  0.50936289  1
  N  N3  1  0.45738325  0.22495204  0.98907354  1
  N  N4  1  0.54986661  0.77487648  0.01262033  1
  N  N5  1  0.75800430  0.26978149  0.72776089  1
  N  N6  1  0.26330040  0.53706678  0.48436423  1
  N  N7  1  0.22765948  0.76428035  0.77288657  1
  N  N8  1  0.72816151  0.94974991  0.46341307  1
  N  N9  1  0.98875620  0.26153467  0.03732714  1
  N  N10  1  0.46245244  0.01237263  0.23759615  1
  N  N11  1  0.72516823  0.77065229  0.74164958  1
  N  N12  1  0.03331190  0.27030401  0.54110561  1
  N  N13  1  0.22351082  0.48880093  0.95266070  1
  N  N14  1  0.50830864  0.54245783  0.27201932  1
  N  N15  1  0.04655709  0.03218266  0.76960203  1
  O  O0  1  0.95879021  0.96686315  0.22242102  1
  O  O1  1  0.48731158  0.45218275  0.72640263  1
  O  O2  1  0.27025173  0.22500645  0.26690477  1
  O  O3  1  0.96872240  0.72601839  0.45363662  1
  O  O4  1  0.53233508  0.98582206  0.75981017  1
  O  O5  1  0.01727044  0.74508619  0.97055115  1
  O  O6  1  0.77348041  0.23430319  0.22405000  1
  O  O7  1  0.23344246  0.72730073  0.26993676  1
loop_
_geom_bond_atom_site_label_1
_geom_bond_atom_site_label_2
_geom_bond_distance
_geom_bond_site_symmetry_2
Hf0 N5 2.077834 1_555
Hf0 N9 2.078257 1_556
Hf0 N13 2.156150 1_655
Hf0 N0 2.160241 1_556
Hf0 O7 2.241792 1_656
Hf0 O5 2.287536 1_655
Hf1 N4 2.047678 1_556
Hf1 O0 2.108270 1_556
Hf1 N0 2.110571 1_556
Hf1 N11 2.128221 1_555
Hf1 O1 2.214524 1_555
Hf1 O5 2.269459 1_655
Hf2 N7 2.115806 1_655
Hf2 O5 2.120892 1_655
Hf2 N2 2.121744 1_555
Hf2 N15 2.154353 1_665
Hf2 N11 2.220086 1_555
Hf2 O3 2.225687 1_555
Hf3 O1 2.110879 1_555
Hf3 N1 2.124285 1_555
Hf3 N3 2.127763 1_555
Hf3 N5 2.131425 1_555
Hf3 O4 2.216310 1_545
Hf3 N0 2.257796 1_556
Hf4 N14 2.098370 1_555
Hf4 N0 2.117879 1_555
Hf4 N3 2.125520 1_554
Hf4 O3 2.196914 1_555
Hf4 O6 2.211052 1_555
Hf4 N2 2.212162 1_555
Hf5 N10 2.055843 1_565
Hf5 N1 2.077147 1_565
Hf5 O2 2.110115 1_565
Hf5 O7 2.140269 1_555
Hf5 O5 2.158487 1_554
Hf5 O0 2.210743 1_455
Hf6 N14 2.081476 1_555
Hf6 N11 2.090507 1_555
Hf6 N2 2.134358 1_555
Hf6 N6 2.199991 1_555
Hf6 O1 2.239916 1_555
Hf6 O2 2.241907 1_555
Hf7 N10 2.094401 1_565
Hf7 N7 2.117630 1_554
Hf7 N3 2.137486 1_564
Hf7 N4 2.159773 1_555
Hf7 O6 2.191572 1_565
Hf7 O4 2.233900 1_554
Hf8 N12 2.083319 1_555
Hf8 N15 2.085921 1_555
Hf8 N8 2.107586 1_445
Hf8 N1 2.220852 1_555
Hf8 O3 2.249551 1_445
Hf8 O0 2.271498 1_445
Hf9 N5 2.086008 1_555
Hf9 N2 2.142569 1_555
Hf9 N12 2.153562 1_655
Hf9 N10 2.181458 1_555
Hf9 N8 2.208695 1_545
Hf9 O6 2.277961 1_555
Hf10 N6 2.093505 1_555
Hf10 O3 2.114377 1_455
Hf10 O4 2.118546 1_555
Hf10 N7 2.147674 1_555
Hf10 O7 2.174492 1_555
Hf10 N1 2.214302 1_565
Hf11 N11 2.110713 1_545
Hf11 N8 2.139380 1_545
Hf11 N15 2.156709 1_655
Hf11 N9 2.180573 1_556
Hf11 O4 2.186451 1_545
Hf11 N5 2.238716 1_555
Hf12 N13 2.111030 1_555
Hf12 N7 2.122637 1_555
Hf12 N12 2.137060 1_555
Hf12 O1 2.197154 1_555
Hf12 N4 2.238470 1_556
Hf12 N6 2.256458 1_555
Hf13 N6 2.086681 1_555
Hf13 N9 2.096211 1_455
Hf13 O6 2.117218 1_455
Hf13 O2 2.161404 1_555
Hf13 N12 2.171909 1_555
Hf13 O0 2.200891 1_445
Hf14 N4 2.112843 1_555
Hf14 N8 2.116095 1_555
Hf14 N14 2.134636 1_555
Hf14 N13 2.211561 1_554
Hf14 O7 2.221741 1_555
Hf14 N10 2.231951 1_565
Hf15 N13 2.097523 1_554
Hf15 N15 2.133106 1_554
Hf15 N3 2.167943 1_554
Hf15 N14 2.190586 1_555
Hf15 N9 2.204190 1_455
Hf15 O2 2.271140 1_555
