# generated using pymatgen
data_Li4Ti3Mn2Fe3O16
_symmetry_space_group_name_H-M   'P 1'
_cell_length_a   5.96919044
_cell_length_b   5.96919044
_cell_length_c   9.59785017
_cell_angle_alpha   88.18364721
_cell_angle_beta   88.18364721
_cell_angle_gamma   59.31050974
_symmetry_Int_Tables_number   1
_chemical_formula_structural   Li4Ti3Mn2Fe3O16
_chemical_formula_sum   'Li4 Ti3 Mn2 Fe3 O16'
_cell_volume   293.89141770
_cell_formula_units_Z   1
loop_
 _symmetry_equiv_pos_site_id
 _symmetry_equiv_pos_as_xyz
  1  'x, y, z'
loop_
 _atom_site_type_symbol
 _atom_site_label
 _atom_site_symmetry_multiplicity
 _atom_site_fract_x
 _atom_site_fract_y
 _atom_site_fract_z
 _atom_site_occupancy
  Li  Li0  1  0.66776800  0.66776800  0.10742600  1
  Li  Li1  1  0.98818500  0.98818500  0.01111000  1
  Li  Li2  1  0.99747000  0.99747000  0.50170900  1
  Li  Li3  1  0.33401200  0.33401200  0.60030500  1
  Ti  Ti0  1  0.33167000  0.83134900  0.78617300  1
  Ti  Ti1  1  0.83134900  0.33167000  0.78617300  1
  Ti  Ti2  1  0.17693600  0.17693600  0.28406300  1
  Mn  Mn0  1  0.66931400  0.66931400  0.51381100  1
  Mn  Mn1  1  0.33765700  0.33765700  0.01709700  1
  Fe  Fe0  1  0.82730300  0.82730300  0.78550600  1
  Fe  Fe1  1  0.18104400  0.66263700  0.28984900  1
  Fe  Fe2  1  0.66263700  0.18104400  0.28984900  1
  O  O0  1  0.34170500  0.83729100  0.40391200  1
  O  O1  1  0.52100200  0.52100200  0.65807900  1
  O  O2  1  0.65568600  0.65568600  0.89404900  1
  O  O3  1  0.99993300  0.99993300  0.68721600  1
  O  O4  1  0.00964800  0.00964800  0.19751700  1
  O  O5  1  0.83729100  0.34170500  0.40391200  1
  O  O6  1  0.51505300  0.95453300  0.65601700  1
  O  O7  1  0.95453300  0.51505300  0.65601700  1
  O  O8  1  0.15380300  0.15380300  0.88868200  1
  O  O9  1  0.83323600  0.83323600  0.40473500  1
  O  O10  1  0.04540400  0.47817700  0.15618100  1
  O  O11  1  0.47817700  0.04540400  0.15618100  1
  O  O12  1  0.32625700  0.32625700  0.39840100  1
  O  O13  1  0.16601700  0.66683500  0.89604400  1
  O  O14  1  0.48960900  0.48960900  0.16610500  1
  O  O15  1  0.66683500  0.16601700  0.89604400  1
loop_
_geom_bond_atom_site_label_1
_geom_bond_atom_site_label_2
_geom_bond_distance
_geom_bond_site_symmetry_2
Li0 O14 1.912489 1_555
Li0 O10 2.002574 1_655
Li0 O11 2.002574 1_565
Li0 O2 2.056351 1_554
Li1 O4 1.810951 1_665
Li1 O15 2.001864 1_564
Li1 O13 2.001864 1_654
Li1 O8 2.045916 1_664
Li2 O3 1.781583 1_555
Li2 O9 1.971078 1_555
Li2 O0 1.986608 1_655
Li2 O5 1.986608 1_565
Li3 O12 1.942444 1_555
Li3 O7 2.011445 1_455
Li3 O6 2.011445 1_545
Li3 O1 2.037005 1_555
Mn0 O9 1.964251 1_555
Mn0 O5 2.001090 1_555
Mn0 O0 2.001090 1_555
Mn0 O7 2.019092 1_555
Mn0 O6 2.019092 1_555
Mn0 O1 2.032101 1_555
Mn1 O11 1.989612 1_555
Mn1 O10 1.989612 1_555
Mn1 O15 2.033787 1_554
Mn1 O13 2.033787 1_554
Mn1 O14 2.166798 1_555
Mn1 O8 2.308427 1_554
Fe0 O3 1.993567 1_555
Fe0 O2 2.029796 1_555
Fe0 O15 2.055631 1_565
Fe0 O13 2.055631 1_655
Fe0 O6 2.058516 1_555
Fe0 O7 2.058516 1_555
Fe1 O14 1.966487 1_555
Fe1 O4 1.974975 1_565
Fe1 O12 2.004140 1_555
Fe1 O9 2.081138 1_455
Fe1 O0 2.089161 1_555
Fe1 O10 2.139913 1_555
Fe2 O14 1.966487 1_555
Fe2 O4 1.974975 1_655
Fe2 O12 2.004140 1_555
Fe2 O9 2.081138 1_545
Fe2 O5 2.089161 1_555
Fe2 O11 2.139913 1_555
O0 Ti2 2.071069 1_565
O1 Ti1 2.034638 1_555
O1 Ti0 2.034638 1_555
O2 Ti1 1.974904 1_555
O2 Ti0 1.974904 1_555
O3 Ti0 1.964810 1_655
O3 Ti1 1.964810 1_565
O4 Ti2 1.951234 1_555
O5 Ti2 2.071069 1_655
O6 Ti0 1.994038 1_555
O7 Ti1 1.994038 1_555
O8 Ti0 1.941095 1_545
O8 Ti1 1.941095 1_455
O10 Ti2 1.958667 1_555
O11 Ti2 1.958667 1_555
O12 Ti2 1.930850 1_555
O13 Ti0 1.978278 1_555
O15 Ti1 1.978278 1_555
