# generated using pymatgen
data_Li4TiV4Cr4O18
_symmetry_space_group_name_H-M   'P 1'
_cell_length_a   2.97613400
_cell_length_b   8.96347100
_cell_length_c   24.95622800
_cell_angle_alpha   90.00000000
_cell_angle_beta   90.00000000
_cell_angle_gamma   90.00000000
_symmetry_Int_Tables_number   1
_chemical_formula_structural   Li4TiV4Cr4O18
_chemical_formula_sum   'Li8 Ti2 V8 Cr8 O36'
_cell_volume   665.74458667
_cell_formula_units_Z   2
loop_
 _symmetry_equiv_pos_site_id
 _symmetry_equiv_pos_as_xyz
  1  'x, y, z'
loop_
 _atom_site_type_symbol
 _atom_site_label
 _atom_site_symmetry_multiplicity
 _atom_site_fract_x
 _atom_site_fract_y
 _atom_site_fract_z
 _atom_site_occupancy
  Li  Li0  1  0.00000000  0.93373400  0.99368200  1
  Li  Li1  1  0.00000000  0.95550300  0.19016800  1
  Li  Li2  1  0.00000000  0.04449700  0.69016800  1
  Li  Li3  1  0.00000000  0.06626600  0.49368200  1
  Li  Li4  1  0.00000000  0.43481400  0.50959200  1
  Li  Li5  1  0.00000000  0.45923200  0.31297300  1
  Li  Li6  1  0.00000000  0.54076800  0.81297300  1
  Li  Li7  1  0.00000000  0.56518600  0.00959200  1
  Ti  Ti0  1  0.00000000  0.24407200  0.39751800  1
  Ti  Ti1  1  0.00000000  0.75592800  0.89751800  1
  V  V0  1  0.00000000  0.75088600  0.49989800  1
  V  V1  1  0.00000000  0.74685500  0.10293900  1
  V  V2  1  0.50000000  0.89564300  0.80282700  1
  V  V3  1  0.50000000  0.10435700  0.30282700  1
  V  V4  1  0.00000000  0.25314500  0.60293900  1
  V  V5  1  0.00000000  0.24911400  0.99989800  1
  V  V6  1  0.50000000  0.39300500  0.69610800  1
  V  V7  1  0.50000000  0.60699500  0.19610800  1
  Cr  Cr0  1  0.00000000  0.76789500  0.30990500  1
  Cr  Cr1  1  0.50000000  0.89874000  0.58676200  1
  Cr  Cr2  1  0.50000000  0.10126000  0.08676200  1
  Cr  Cr3  1  0.00000000  0.23210500  0.80990500  1
  Cr  Cr4  1  0.00000000  0.26654600  0.18893000  1
  Cr  Cr5  1  0.50000000  0.39735600  0.91379700  1
  Cr  Cr6  1  0.50000000  0.60264400  0.41379700  1
  Cr  Cr7  1  0.00000000  0.73345400  0.68893000  1
  O  O0  1  0.00000000  0.75126100  0.42427500  1
  O  O1  1  0.00000000  0.75163300  0.57657800  1
  O  O2  1  0.50000000  0.80936600  0.94190700  1
  O  O3  1  0.50000000  0.79753700  0.16011500  1
  O  O4  1  0.50000000  0.86745900  0.66517100  1
  O  O5  1  0.00000000  0.83977400  0.75659200  1
  O  O6  1  0.50000000  0.90143400  0.50518000  1
  O  O7  1  0.50000000  0.90179200  0.28476400  1
  O  O8  1  0.00000000  0.93743200  0.85410900  1
  O  O9  1  0.00000000  0.95114100  0.08625100  1
  O  O10  1  0.00000000  0.04885900  0.58625100  1
  O  O11  1  0.00000000  0.06256800  0.35410900  1
  O  O12  1  0.50000000  0.09820800  0.78476400  1
  O  O13  1  0.50000000  0.09856600  0.00518000  1
  O  O14  1  0.00000000  0.16022600  0.25659200  1
  O  O15  1  0.50000000  0.13254100  0.16517100  1
  O  O16  1  0.50000000  0.20246300  0.66011500  1
  O  O17  1  0.50000000  0.19063400  0.44190700  1
  O  O18  1  0.00000000  0.24836700  0.07657800  1
  O  O19  1  0.00000000  0.24873900  0.92427500  1
  O  O20  1  0.50000000  0.30804500  0.55729800  1
  O  O21  1  0.50000000  0.29599300  0.34022400  1
  O  O22  1  0.50000000  0.36417500  0.83516000  1
  O  O23  1  0.00000000  0.34213500  0.74298200  1
  O  O24  1  0.50000000  0.39915900  0.99549200  1
  O  O25  1  0.50000000  0.40289700  0.21179400  1
  O  O26  1  0.00000000  0.43192500  0.64373300  1
  O  O27  1  0.00000000  0.45352800  0.41327400  1
  O  O28  1  0.00000000  0.54647200  0.91327400  1
  O  O29  1  0.00000000  0.56807500  0.14373300  1
  O  O30  1  0.50000000  0.59710300  0.71179400  1
  O  O31  1  0.50000000  0.60084100  0.49549200  1
  O  O32  1  0.00000000  0.65786500  0.24298200  1
  O  O33  1  0.50000000  0.63582500  0.33516000  1
  O  O34  1  0.50000000  0.70400700  0.84022400  1
  O  O35  1  0.50000000  0.69195500  0.05729800  1
loop_
_geom_bond_atom_site_label_1
_geom_bond_atom_site_label_2
_geom_bond_distance
_geom_bond_site_symmetry_2
Li0 O13 2.116504 1_566
Li0 O13 2.116504 1_466
Li0 O2 2.264199 1_555
Li0 O2 2.264199 1_455
Li0 O9 2.315436 1_556
Li1 O3 2.186709 1_455
Li1 O3 2.186709 1_555
Li1 O15 2.263113 1_565
Li1 O15 2.263113 1_465
Li1 O14 2.472908 1_565
Li1 O9 2.593671 1_555
Li2 O16 2.186709 1_455
Li2 O16 2.186709 1_555
Li2 O4 2.263113 1_545
Li2 O4 2.263113 1_445
Li2 O5 2.472908 1_545
Li2 O10 2.593671 1_555
Li3 O6 2.116504 1_445
Li3 O6 2.116504 1_545
Li3 O17 2.264199 1_455
Li3 O17 2.264199 1_555
Li3 O10 2.315436 1_555
Li4 O31 2.133738 1_455
Li4 O31 2.133738 1_555
Li4 O20 2.218769 1_455
Li4 O20 2.218769 1_555
Li4 O27 2.409580 1_555
Li5 O21 2.194943 1_555
Li5 O21 2.194943 1_455
Li5 O33 2.241977 1_555
Li5 O33 2.241977 1_455
Li5 O32 2.494187 1_555
Li5 O27 2.503657 1_555
Li6 O34 2.194943 1_555
Li6 O34 2.194943 1_455
Li6 O22 2.241977 1_455
Li6 O22 2.241977 1_555
Li6 O23 2.494187 1_555
Li6 O28 2.503657 1_555
Li7 O24 2.133738 1_454
Li7 O24 2.133738 1_554
Li7 O35 2.218769 1_555
Li7 O35 2.218769 1_455
Li7 O28 2.409580 1_554
Cr0 O32 1.939607 1_555
Cr0 O33 2.003242 1_455
Cr0 O33 2.003242 1_555
Cr0 O7 2.012074 1_455
Cr0 O7 2.012074 1_555
Cr1 O4 1.976779 1_555
Cr1 O1 2.004399 1_655
Cr1 O1 2.004399 1_555
Cr1 O10 2.006268 1_565
Cr1 O10 2.006268 1_665
Cr1 O6 2.036122 1_555
Cr2 O15 1.976779 1_555
Cr2 O18 2.004399 1_555
Cr2 O18 2.004399 1_655
Cr2 O9 2.006268 1_645
Cr2 O9 2.006268 1_545
Cr2 O13 2.036122 1_555
Cr3 O23 1.939607 1_555
Cr3 O22 2.003242 1_455
Cr3 O22 2.003242 1_555
Cr3 O12 2.012074 1_455
Cr3 O12 2.012074 1_555
Cr4 O14 1.938951 1_555
Cr4 O15 2.002168 1_555
Cr4 O15 2.002168 1_455
Cr4 O25 2.008394 1_555
Cr4 O25 2.008394 1_455
Cr5 O22 1.984892 1_555
Cr5 O28 2.000251 1_655
Cr5 O28 2.000251 1_555
Cr5 O19 2.014268 1_555
Cr5 O19 2.014268 1_655
Cr5 O24 2.038863 1_555
Cr6 O33 1.984892 1_555
Cr6 O27 2.000251 1_555
Cr6 O27 2.000251 1_655
Cr6 O0 2.014268 1_555
Cr6 O0 2.014268 1_655
Cr6 O31 2.038863 1_555
Cr7 O5 1.938951 1_555
Cr7 O4 2.002168 1_555
Cr7 O4 2.002168 1_455
Cr7 O30 2.008394 1_455
Cr7 O30 2.008394 1_555
O0 V0 1.887268 1_555
O1 V0 1.913655 1_555
O2 Ti1 1.915974 1_655
O2 Ti1 1.915974 1_555
O3 V7 1.929724 1_555
O3 V1 2.111103 1_555
O3 V1 2.111103 1_655
O5 V2 1.948460 1_555
O5 V2 1.948460 1_455
O6 V0 2.013129 1_655
O6 V0 2.013129 1_555
O7 V3 1.870807 1_565
O8 Ti1 1.954588 1_555
O8 V2 1.998137 1_455
O8 V2 1.998137 1_555
O9 V1 1.877876 1_555
O10 V4 1.877876 1_555
O11 Ti0 1.954588 1_555
O11 V3 1.998137 1_455
O11 V3 1.998137 1_555
O12 V2 1.870807 1_545
O13 V5 2.013129 1_654
O13 V5 2.013129 1_554
O14 V3 1.948460 1_455
O14 V3 1.948460 1_555
O16 V6 1.929724 1_555
O16 V4 2.111103 1_655
O16 V4 2.111103 1_555
O17 Ti0 1.915974 1_655
O17 Ti0 1.915974 1_555
O18 V5 1.913655 1_554
O19 V5 1.887268 1_555
O20 V4 1.937494 1_655
O20 V4 1.937494 1_555
O21 V3 1.954892 1_555
O21 Ti0 2.115510 1_555
O21 Ti0 2.115510 1_655
O23 V6 1.946967 1_555
O23 V6 1.946967 1_455
O24 V5 2.008794 1_555
O24 V5 2.008794 1_655
O25 V7 1.870841 1_555
O26 V4 1.898533 1_555
O26 V6 2.011097 1_455
O26 V6 2.011097 1_555
O27 Ti0 1.918188 1_555
O28 Ti1 1.918188 1_555
O29 V1 1.898533 1_555
O29 V7 2.011097 1_555
O29 V7 2.011097 1_455
O30 V6 1.870841 1_555
O31 V0 2.008794 1_655
O31 V0 2.008794 1_555
O32 V7 1.946967 1_455
O32 V7 1.946967 1_555
O34 V2 1.954892 1_555
O34 Ti1 2.115510 1_655
O34 Ti1 2.115510 1_555
O35 V1 1.937494 1_655
O35 V1 1.937494 1_555
