# generated using pymatgen
data_Li5LaO4
_symmetry_space_group_name_H-M   'P 1'
_cell_length_a   9.08640200
_cell_length_b   9.53464100
_cell_length_c   10.03408500
_cell_angle_alpha   90.00000000
_cell_angle_beta   90.00000000
_cell_angle_gamma   90.00000000
_symmetry_Int_Tables_number   1
_chemical_formula_structural   Li5LaO4
_chemical_formula_sum   'Li40 La8 O32'
_cell_volume   869.30878430
_cell_formula_units_Z   8
loop_
 _symmetry_equiv_pos_site_id
 _symmetry_equiv_pos_as_xyz
  1  'x, y, z'
loop_
 _atom_site_type_symbol
 _atom_site_label
 _atom_site_symmetry_multiplicity
 _atom_site_fract_x
 _atom_site_fract_y
 _atom_site_fract_z
 _atom_site_occupancy
  Li  Li0  1  0.12695500  0.56853500  0.13094200  1
  Li  Li1  1  0.12695500  0.93146500  0.63094200  1
  Li  Li2  1  0.12532500  0.13288800  0.86380500  1
  Li  Li3  1  0.12532500  0.36711200  0.36380500  1
  Li  Li4  1  0.12885400  0.87715700  0.40593000  1
  Li  Li5  1  0.12885400  0.62284300  0.90593000  1
  Li  Li6  1  0.13664600  0.84863600  0.14442900  1
  Li  Li7  1  0.13664600  0.65136400  0.64442900  1
  Li  Li8  1  0.18675900  0.12436500  0.42448400  1
  Li  Li9  1  0.18675900  0.37563500  0.92448400  1
  Li  Li10  1  0.31324100  0.87563500  0.92448400  1
  Li  Li11  1  0.31324100  0.62436500  0.42448400  1
  Li  Li12  1  0.36335400  0.15136400  0.64442900  1
  Li  Li13  1  0.36335400  0.34863600  0.14442900  1
  Li  Li14  1  0.37114600  0.12284300  0.90593000  1
  Li  Li15  1  0.37114600  0.37715700  0.40593000  1
  Li  Li16  1  0.37467500  0.63288800  0.86380500  1
  Li  Li17  1  0.37467500  0.86711200  0.36380500  1
  Li  Li18  1  0.37304500  0.06853500  0.13094200  1
  Li  Li19  1  0.37304500  0.43146500  0.63094200  1
  Li  Li20  1  0.62695500  0.56853500  0.36905800  1
  Li  Li21  1  0.62695500  0.93146500  0.86905800  1
  Li  Li22  1  0.62532500  0.13288800  0.63619500  1
  Li  Li23  1  0.62532500  0.36711200  0.13619500  1
  Li  Li24  1  0.62885400  0.62284300  0.59407000  1
  Li  Li25  1  0.62885400  0.87715700  0.09407000  1
  Li  Li26  1  0.63664600  0.65136400  0.85557100  1
  Li  Li27  1  0.63664600  0.84863600  0.35557100  1
  Li  Li28  1  0.68675900  0.12436500  0.07551600  1
  Li  Li29  1  0.68675900  0.37563500  0.57551600  1
  Li  Li30  1  0.81324100  0.62436500  0.07551600  1
  Li  Li31  1  0.81324100  0.87563500  0.57551600  1
  Li  Li32  1  0.86335400  0.34863600  0.35557100  1
  Li  Li33  1  0.86335400  0.15136400  0.85557100  1
  Li  Li34  1  0.87114600  0.12284300  0.59407000  1
  Li  Li35  1  0.87114600  0.37715700  0.09407000  1
  Li  Li36  1  0.87467500  0.63288800  0.63619500  1
  Li  Li37  1  0.87467500  0.86711200  0.13619500  1
  Li  Li38  1  0.87304500  0.06853500  0.36905800  1
  Li  Li39  1  0.87304500  0.43146500  0.86905800  1
  La  La0  1  0.05181300  0.15932700  0.15564600  1
  La  La1  1  0.05181300  0.34067300  0.65564600  1
  La  La2  1  0.44818700  0.65932700  0.15564600  1
  La  La3  1  0.44818700  0.84067300  0.65564600  1
  La  La4  1  0.55181300  0.15932700  0.34435400  1
  La  La5  1  0.55181300  0.34067300  0.84435400  1
  La  La6  1  0.94818700  0.65932700  0.34435400  1
  La  La7  1  0.94818700  0.84067300  0.84435400  1
  O  O0  1  0.99800100  0.21944100  0.45491000  1
  O  O1  1  0.99800100  0.28055900  0.95491000  1
  O  O2  1  0.00215100  0.94871500  0.26641500  1
  O  O3  1  0.00215100  0.55128500  0.76641500  1
  O  O4  1  0.21126700  0.02261100  0.01259900  1
  O  O5  1  0.21126700  0.47738900  0.51259900  1
  O  O6  1  0.27217500  0.22440800  0.27821600  1
  O  O7  1  0.27217500  0.27559200  0.77821600  1
  O  O8  1  0.22782500  0.72440800  0.27821600  1
  O  O9  1  0.22782500  0.77559200  0.77821600  1
  O  O10  1  0.28873300  0.52261100  0.01259900  1
  O  O11  1  0.28873300  0.97738900  0.51259900  1
  O  O12  1  0.49784900  0.44871500  0.26641500  1
  O  O13  1  0.49784900  0.05128500  0.76641500  1
  O  O14  1  0.50199900  0.71944100  0.45491000  1
  O  O15  1  0.50199900  0.78055900  0.95491000  1
  O  O16  1  0.49800100  0.21944100  0.04509000  1
  O  O17  1  0.49800100  0.28055900  0.54509000  1
  O  O18  1  0.50215100  0.94871500  0.23358500  1
  O  O19  1  0.50215100  0.55128500  0.73358500  1
  O  O20  1  0.71126700  0.02261100  0.48740100  1
  O  O21  1  0.71126700  0.47738900  0.98740100  1
  O  O22  1  0.77217500  0.22440800  0.22178400  1
  O  O23  1  0.77217500  0.27559200  0.72178400  1
  O  O24  1  0.72782500  0.72440800  0.22178400  1
  O  O25  1  0.72782500  0.77559200  0.72178400  1
  O  O26  1  0.78873300  0.97738900  0.98740100  1
  O  O27  1  0.78873300  0.52261100  0.48740100  1
  O  O28  1  0.99784900  0.05128500  0.73358500  1
  O  O29  1  0.99784900  0.44871500  0.23358500  1
  O  O30  1  0.00199900  0.71944100  0.04509000  1
  O  O31  1  0.00199900  0.78055900  0.54509000  1
loop_
_geom_bond_atom_site_label_1
_geom_bond_atom_site_label_2
_geom_bond_distance
_geom_bond_site_symmetry_2
Li0 O29 1.934453 1_455
Li0 O10 1.939753 1_555
Li0 O30 2.025208 1_555
Li0 O8 2.287488 1_555
Li1 O28 1.934453 1_465
Li1 O11 1.939753 1_555
Li1 O31 2.025208 1_555
Li1 O9 2.287488 1_555
Li2 O28 1.911630 1_455
Li2 O4 1.986063 1_556
Li2 O1 2.038767 1_455
Li2 O7 2.090293 1_555
Li3 O29 1.911630 1_455
Li3 O5 1.986063 1_555
Li3 O0 2.038767 1_455
Li3 O6 2.090293 1_555
Li4 O2 1.936666 1_555
Li4 O31 2.031423 1_555
Li4 O11 2.041892 1_555
Li4 O8 2.138240 1_555
Li5 O3 1.936666 1_555
Li5 O30 2.031423 1_556
Li5 O10 2.041892 1_556
Li5 O9 2.138240 1_555
Li6 O8 1.972684 1_555
Li6 O2 1.975404 1_555
Li6 O30 2.001951 1_555
Li6 O4 2.227352 1_565
Li7 O9 1.972684 1_555
Li7 O3 1.975404 1_555
Li7 O31 2.001951 1_555
Li7 O5 2.227352 1_555
Li8 O11 1.898444 1_545
Li8 O6 1.914755 1_555
Li8 O0 1.963836 1_455
Li9 O10 1.898444 1_556
Li9 O7 1.914755 1_555
Li9 O1 1.963836 1_455
Li10 O4 1.898444 1_566
Li10 O9 1.914755 1_555
Li10 O15 1.963836 1_555
Li11 O5 1.898444 1_555
Li11 O8 1.914755 1_555
Li11 O14 1.963836 1_555
Li12 O7 1.972684 1_555
Li12 O13 1.975404 1_555
Li12 O17 2.001951 1_555
Li12 O11 2.227352 1_545
Li13 O6 1.972684 1_555
Li13 O12 1.975404 1_555
Li13 O16 2.001951 1_555
Li13 O10 2.227352 1_555
Li14 O13 1.936666 1_555
Li14 O16 2.031423 1_556
Li14 O4 2.041892 1_556
Li14 O7 2.138240 1_555
Li15 O12 1.936666 1_555
Li15 O17 2.031423 1_555
Li15 O5 2.041892 1_555
Li15 O6 2.138240 1_555
Li16 O19 1.911630 1_555
Li16 O10 1.986063 1_556
Li16 O15 2.038767 1_555
Li16 O9 2.090293 1_555
Li17 O18 1.911630 1_555
Li17 O11 1.986063 1_555
Li17 O14 2.038767 1_555
Li17 O8 2.090293 1_555
Li18 O18 1.934453 1_545
Li18 O4 1.939753 1_555
Li18 O16 2.025208 1_555
Li18 O6 2.287488 1_555
Li19 O19 1.934453 1_555
Li19 O5 1.939753 1_555
Li19 O17 2.025208 1_555
Li19 O7 2.287488 1_555
Li20 O12 1.934453 1_555
Li20 O27 1.939753 1_555
Li20 O14 2.025208 1_555
Li20 O24 2.287488 1_555
Li21 O13 1.934453 1_565
Li21 O26 1.939753 1_555
Li21 O15 2.025208 1_555
Li21 O25 2.287488 1_555
Li22 O13 1.911630 1_555
Li22 O20 1.986063 1_555
Li22 O17 2.038767 1_555
Li22 O23 2.090293 1_555
Li23 O12 1.911630 1_555
Li23 O21 1.986063 1_554
Li23 O16 2.038767 1_555
Li23 O22 2.090293 1_555
Li24 O19 1.936666 1_555
Li24 O14 2.031423 1_555
Li24 O27 2.041892 1_555
Li24 O25 2.138240 1_555
Li25 O18 1.936666 1_555
Li25 O15 2.031423 1_554
Li25 O26 2.041892 1_554
Li25 O24 2.138240 1_555
Li26 O25 1.972684 1_555
Li26 O19 1.975404 1_555
Li26 O15 2.001951 1_555
Li26 O21 2.227352 1_555
Li27 O24 1.972684 1_555
Li27 O18 1.975404 1_555
Li27 O14 2.001951 1_555
Li27 O20 2.227352 1_565
Li28 O26 1.898444 1_544
Li28 O22 1.914755 1_555
Li28 O16 1.963836 1_555
Li29 O27 1.898444 1_555
Li29 O23 1.914755 1_555
Li29 O17 1.963836 1_555
Li30 O21 1.898444 1_554
Li30 O24 1.914755 1_555
Li30 O30 1.963836 1_655
Li31 O20 1.898444 1_565
Li31 O25 1.914755 1_555
Li31 O31 1.963836 1_655
Li32 O22 1.972684 1_555
Li32 O29 1.975404 1_555
Li32 O0 2.001951 1_555
Li32 O27 2.227352 1_555
Li33 O23 1.972684 1_555
Li33 O28 1.975404 1_555
Li33 O1 2.001951 1_555
Li33 O26 2.227352 1_545
Li34 O28 1.936666 1_555
Li34 O0 2.031423 1_555
Li34 O20 2.041892 1_555
Li34 O23 2.138240 1_555
Li35 O29 1.936666 1_555
Li35 O1 2.031423 1_554
Li35 O21 2.041892 1_554
Li35 O22 2.138240 1_555
Li36 O3 1.911630 1_655
Li36 O27 1.986063 1_555
Li36 O31 2.038767 1_655
Li36 O25 2.090293 1_555
Li37 O2 1.911630 1_655
Li37 O26 1.986063 1_554
Li37 O30 2.038767 1_655
Li37 O24 2.090293 1_555
Li38 O2 1.934453 1_645
Li38 O20 1.939753 1_555
Li38 O0 2.025208 1_555
Li38 O22 2.287488 1_555
Li39 O3 1.934453 1_655
Li39 O21 1.939753 1_555
Li39 O1 2.025208 1_555
Li39 O23 2.287488 1_555
La0 O2 2.339121 1_545
La0 O1 2.373226 1_454
La0 O4 2.420461 1_555
La0 O6 2.430400 1_555
La0 O22 2.698453 1_455
La1 O3 2.339121 1_555
La1 O0 2.373226 1_455
La1 O5 2.420461 1_555
La1 O7 2.430400 1_555
La1 O23 2.698453 1_455
La2 O12 2.339121 1_555
La2 O15 2.373226 1_554
La2 O10 2.420461 1_555
La2 O8 2.430400 1_555
La2 O24 2.698453 1_555
La3 O13 2.339121 1_565
La3 O14 2.373226 1_555
La3 O11 2.420461 1_555
La3 O9 2.430400 1_555
La3 O25 2.698453 1_555
La4 O18 2.339121 1_545
La4 O17 2.373226 1_555
La4 O20 2.420461 1_555
La4 O22 2.430400 1_555
La4 O6 2.698453 1_555
La5 O19 2.339121 1_555
La5 O16 2.373226 1_556
La5 O21 2.420461 1_555
La5 O23 2.430400 1_555
La5 O7 2.698453 1_555
La6 O29 2.339121 1_555
La6 O31 2.373226 1_655
La6 O27 2.420461 1_555
La6 O24 2.430400 1_555
La6 O8 2.698453 1_655
La7 O28 2.339121 1_565
La7 O30 2.373226 1_656
La7 O26 2.420461 1_555
La7 O25 2.430400 1_555
La7 O9 2.698453 1_655
