# generated using pymatgen
data_Li3V(BO3)2
_symmetry_space_group_name_H-M   'P 1'
_cell_length_a   7.75278500
_cell_length_b   6.04765800
_cell_length_c   10.93582636
_cell_angle_alpha   62.08408832
_cell_angle_beta   90.00000000
_cell_angle_gamma   90.00000000
_symmetry_Int_Tables_number   1
_chemical_formula_structural   Li3V(BO3)2
_chemical_formula_sum   'Li12 V4 B8 O24'
_cell_volume   453.07468495
_cell_formula_units_Z   4
loop_
 _symmetry_equiv_pos_site_id
 _symmetry_equiv_pos_as_xyz
  1  'x, y, z'
loop_
 _atom_site_type_symbol
 _atom_site_label
 _atom_site_symmetry_multiplicity
 _atom_site_fract_x
 _atom_site_fract_y
 _atom_site_fract_z
 _atom_site_occupancy
  Li  Li0  1  0.70647600  0.60517900  0.87356700  1
  Li  Li1  1  0.80310900  0.04601400  0.43330700  1
  Li  Li2  1  0.55294800  0.71944600  0.61560000  1
  Li  Li3  1  0.05294800  0.28055400  0.88440000  1
  Li  Li4  1  0.20647600  0.39482100  0.62643300  1
  Li  Li5  1  0.69689100  0.04601400  0.93330700  1
  Li  Li6  1  0.30310900  0.95398600  0.06669300  1
  Li  Li7  1  0.79352400  0.60517900  0.37356700  1
  Li  Li8  1  0.94705200  0.71944600  0.11560000  1
  Li  Li9  1  0.44705200  0.28055400  0.38440000  1
  Li  Li10  1  0.19689100  0.95398600  0.56669300  1
  Li  Li11  1  0.29352400  0.39482100  0.12643300  1
  V  V0  1  0.62742800  0.08999000  0.17359800  1
  V  V1  1  0.12742800  0.91001000  0.32640200  1
  V  V2  1  0.87257200  0.08999000  0.67359800  1
  V  V3  1  0.37257200  0.91001000  0.82640200  1
  B  B0  1  0.90990100  0.63439400  0.62528200  1
  B  B1  1  0.94279300  0.19364300  0.11176900  1
  B  B2  1  0.40990100  0.36560600  0.87471800  1
  B  B3  1  0.44279300  0.80635700  0.38823100  1
  B  B4  1  0.55720700  0.19364300  0.61176900  1
  B  B5  1  0.59009900  0.63439400  0.12528200  1
  B  B6  1  0.05720700  0.80635700  0.88823100  1
  B  B7  1  0.09009900  0.36560600  0.37471800  1
  O  O0  1  0.79337100  0.75867500  0.66930000  1
  O  O1  1  0.45224000  0.61368800  0.79355500  1
  O  O2  1  0.98195300  0.77035500  0.49575100  1
  O  O3  1  0.82314300  0.27602800  0.00708700  1
  O  O4  1  0.88060000  0.11988700  0.24399500  1
  O  O5  1  0.48195300  0.22964500  0.00424900  1
  O  O6  1  0.11306800  0.14781900  0.09964300  1
  O  O7  1  0.61306800  0.85218100  0.40035700  1
  O  O8  1  0.38060000  0.88011300  0.25600500  1
  O  O9  1  0.32314300  0.72397200  0.49291300  1
  O  O10  1  0.95224000  0.38631200  0.70644500  1
  O  O11  1  0.29337100  0.24132500  0.83070000  1
  O  O12  1  0.70662900  0.75867500  0.16930000  1
  O  O13  1  0.04776000  0.61368800  0.29355500  1
  O  O14  1  0.67685700  0.27602800  0.50708700  1
  O  O15  1  0.61940000  0.11988700  0.74399500  1
  O  O16  1  0.38693200  0.14781900  0.59964300  1
  O  O17  1  0.88693200  0.85218100  0.90035700  1
  O  O18  1  0.51804700  0.77035500  0.99575100  1
  O  O19  1  0.11940000  0.88011300  0.75600500  1
  O  O20  1  0.17685700  0.72397200  0.99291300  1
  O  O21  1  0.01804700  0.22964500  0.50424900  1
  O  O22  1  0.54776000  0.38631200  0.20644500  1
  O  O23  1  0.20662900  0.24132500  0.33070000  1
loop_
_geom_bond_atom_site_label_1
_geom_bond_atom_site_label_2
_geom_bond_distance
_geom_bond_site_symmetry_2
Li0 O3 2.047204 1_556
Li0 O0 2.088995 1_555
Li0 O1 2.147346 1_555
Li0 O17 2.164325 1_555
Li0 O18 2.483368 1_555
Li1 O4 1.995130 1_555
Li1 O7 2.017484 1_545
Li1 O2 2.025351 1_545
Li1 O14 2.143592 1_555
Li1 O21 2.327807 1_655
Li1 O0 2.342344 1_545
Li2 O1 1.907996 1_555
Li2 O0 2.001476 1_555
Li2 O7 2.152447 1_555
Li2 O9 2.222764 1_555
Li3 O10 1.907996 1_455
Li3 O11 2.001476 1_555
Li3 O6 2.152447 1_556
Li3 O3 2.222764 1_456
Li4 O9 2.047204 1_555
Li4 O11 2.088995 1_555
Li4 O10 2.147346 1_455
Li4 O16 2.164325 1_555
Li4 O21 2.483368 1_555
Li5 O15 1.995130 1_555
Li5 O17 2.017484 1_545
Li5 O18 2.025351 1_545
Li5 O3 2.143592 1_556
Li5 O5 2.327807 1_556
Li5 O12 2.342344 1_546
Li6 O8 1.995130 1_555
Li6 O6 2.017484 1_565
Li6 O5 2.025351 1_565
Li6 O20 2.143592 1_554
Li6 O18 2.327807 1_554
Li6 O11 2.342344 1_564
Li7 O14 2.047204 1_555
Li7 O12 2.088995 1_555
Li7 O13 2.147346 1_655
Li7 O7 2.164325 1_555
Li7 O2 2.483368 1_555
Li8 O13 1.907996 1_655
Li8 O12 2.001476 1_555
Li8 O17 2.152447 1_554
Li8 O20 2.222764 1_654
Li9 O22 1.907996 1_555
Li9 O23 2.001476 1_555
Li9 O16 2.152447 1_555
Li9 O14 2.222764 1_555
Li10 O19 1.995130 1_555
Li10 O16 2.017484 1_565
Li10 O21 2.025351 1_565
Li10 O9 2.143592 1_555
Li10 O2 2.327807 1_455
Li10 O23 2.342344 1_565
Li11 O20 2.047204 1_554
Li11 O23 2.088995 1_555
Li11 O22 2.147346 1_555
Li11 O6 2.164325 1_555
Li11 O5 2.483368 1_555
B0 O10 1.378260 1_555
B0 O2 1.379884 1_555
B0 O0 1.396997 1_555
B1 O6 1.368018 1_655
B1 O3 1.373019 1_555
B1 O4 1.385074 1_555
B2 O1 1.378260 1_555
B2 O5 1.379884 1_556
B2 O11 1.396997 1_555
B3 O7 1.368018 1_555
B3 O9 1.373019 1_555
B3 O8 1.385074 1_555
B4 O16 1.368018 1_555
B4 O14 1.373019 1_555
B4 O15 1.385074 1_555
B5 O22 1.378260 1_555
B5 O18 1.379884 1_554
B5 O12 1.396997 1_555
B6 O17 1.368018 1_455
B6 O20 1.373019 1_555
B6 O19 1.385074 1_555
B7 O13 1.378260 1_555
B7 O21 1.379884 1_555
B7 O23 1.396997 1_555
O0 V2 2.117110 1_565
O1 V3 2.079598 1_555
O2 V1 1.987598 1_655
O3 V0 2.228369 1_555
O4 V0 2.146679 1_555
O4 V1 2.239199 1_645
O5 V0 1.987598 1_555
O6 V1 2.211506 1_545
O7 V0 2.211506 1_565
O8 V1 2.146679 1_555
O8 V0 2.239199 1_565
O9 V1 2.228369 1_555
O10 V2 2.079598 1_555
O11 V3 2.117110 1_545
O12 V0 2.117110 1_565
O13 V1 2.079598 1_555
O14 V2 2.228369 1_555
O15 V2 2.146679 1_555
O15 V3 2.239199 1_545
O16 V3 2.211506 1_545
O17 V2 2.211506 1_565
O18 V3 1.987598 1_555
O19 V3 2.146679 1_555
O19 V2 2.239199 1_465
O20 V3 2.228369 1_555
O21 V2 1.987598 1_455
O22 V0 2.079598 1_555
O23 V1 2.117110 1_545
