# generated using pymatgen
data_NaCuP2O7
_symmetry_space_group_name_H-M   'P 1'
_cell_length_a   8.18657960
_cell_length_b   8.18657960
_cell_length_c   8.11147494
_cell_angle_alpha   65.17425385
_cell_angle_beta   65.17425385
_cell_angle_gamma   36.70222225
_symmetry_Int_Tables_number   1
_chemical_formula_structural   NaCuP2O7
_chemical_formula_sum   'Na2 Cu2 P4 O14'
_cell_volume   291.38757370
_cell_formula_units_Z   2
loop_
 _symmetry_equiv_pos_site_id
 _symmetry_equiv_pos_as_xyz
  1  'x, y, z'
loop_
 _atom_site_type_symbol
 _atom_site_label
 _atom_site_symmetry_multiplicity
 _atom_site_fract_x
 _atom_site_fract_y
 _atom_site_fract_z
 _atom_site_occupancy
  Na  Na0  1  0.38105671  0.09499095  0.71797993  1
  Na  Na1  1  0.09499095  0.38105671  0.21797993  1
  Cu  Cu0  1  0.01663049  0.98263241  0.99189590  1
  Cu  Cu1  1  0.98263241  0.01663049  0.49189590  1
  P  P0  1  0.73533127  0.46102790  0.66223682  1
  P  P1  1  0.46102790  0.73533127  0.16223682  1
  P  P2  1  0.54468214  0.25639449  0.83916998  1
  P  P3  1  0.25639449  0.54468214  0.33916998  1
  O  O0  1  0.93523812  0.25632461  0.80506954  1
  O  O1  1  0.86881752  0.31962098  0.49607650  1
  O  O2  1  0.71782059  0.64447846  0.10178447  1
  O  O3  1  0.47464875  0.52263902  0.75905173  1
  O  O4  1  0.52263902  0.47464875  0.25905173  1
  O  O5  1  0.64447846  0.71782059  0.60178447  1
  O  O6  1  0.70409380  0.10363247  0.67433020  1
  O  O7  1  0.71736649  0.09187411  0.99144991  1
  O  O8  1  0.31962098  0.86881752  0.99607650  1
  O  O9  1  0.25632461  0.93523812  0.30506954  1
  O  O10  1  0.33603443  0.29255828  0.41201804  1
  O  O11  1  0.29255828  0.33603443  0.91201804  1
  O  O12  1  0.09187411  0.71736649  0.49144991  1
  O  O13  1  0.10363247  0.70409380  0.17433020  1
loop_
_geom_bond_atom_site_label_1
_geom_bond_atom_site_label_2
_geom_bond_distance
_geom_bond_site_symmetry_2
Na0 O5 2.265540 1_545
Na0 O10 2.313590 1_555
Na0 O8 2.408965 1_545
Na0 O11 2.500842 1_555
Na0 O0 2.540243 1_455
Na0 O6 2.572315 1_555
Na1 O2 2.265540 1_455
Na1 O11 2.313590 1_554
Na1 O1 2.408965 1_455
Na1 O10 2.500842 1_555
Na1 O9 2.540243 1_545
Na1 O13 2.572315 1_555
Cu0 O7 1.814790 1_465
Cu0 O13 1.828672 1_556
Cu0 O8 1.833056 1_555
Cu0 O0 1.833990 1_465
Cu1 O12 1.814790 1_645
Cu1 O6 1.828672 1_555
Cu1 O1 1.833056 1_555
Cu1 O9 1.833990 1_645
O0 P0 1.546956 1_555
O1 P0 1.547825 1_555
O2 P1 1.465096 1_555
O3 P2 1.619085 1_555
O3 P0 1.620114 1_555
O4 P3 1.619085 1_555
O4 P1 1.620114 1_555
O5 P0 1.465096 1_555
O6 P2 1.541678 1_555
O7 P2 1.534435 1_555
O8 P1 1.547825 1_556
O9 P1 1.546956 1_555
O10 P3 1.475119 1_555
O11 P2 1.475119 1_555
O12 P3 1.534435 1_555
O13 P3 1.541678 1_555
