# generated using pymatgen
data_Ba2GeO4
_symmetry_space_group_name_H-M   'P 1'
_cell_length_a   7.65111986
_cell_length_b   6.03167112
_cell_length_c   11.88075851
_cell_angle_alpha   61.82652590
_cell_angle_beta   90.00000000
_cell_angle_gamma   90.00000000
_symmetry_Int_Tables_number   1
_chemical_formula_structural   Ba2GeO4
_chemical_formula_sum   'Ba8 Ge4 O16'
_cell_volume   483.32587683
_cell_formula_units_Z   4
loop_
 _symmetry_equiv_pos_site_id
 _symmetry_equiv_pos_as_xyz
  1  'x, y, z'
loop_
 _atom_site_type_symbol
 _atom_site_label
 _atom_site_symmetry_multiplicity
 _atom_site_fract_x
 _atom_site_fract_y
 _atom_site_fract_z
 _atom_site_occupancy
  Ba  Ba0  1  0.99837292  0.46307903  0.30371086  1
  Ba  Ba1  1  0.84347478  0.17998411  0.07958155  1
  Ba  Ba2  1  0.65652522  0.17998411  0.57958155  1
  Ba  Ba3  1  0.50162708  0.46307903  0.80371086  1
  Ba  Ba4  1  0.49837292  0.53692097  0.19628914  1
  Ba  Ba5  1  0.34347478  0.82001589  0.42041845  1
  Ba  Ba6  1  0.15652522  0.82001589  0.92041845  1
  Ba  Ba7  1  0.00162708  0.53692097  0.69628914  1
  Ge  Ge0  1  0.77865141  0.83567605  0.41924506  1
  Ge  Ge1  1  0.72134859  0.83567605  0.91924506  1
  Ge  Ge2  1  0.27865141  0.16432395  0.08075494  1
  Ge  Ge3  1  0.22134859  0.16432395  0.58075494  1
  O  O0  1  0.99367937  0.19936471  0.57411707  1
  O  O1  1  0.81905365  0.64737857  0.85891283  1
  O  O2  1  0.81791108  0.72722601  0.07283840  1
  O  O3  1  0.77957470  0.15355209  0.82642747  1
  O  O4  1  0.72042530  0.15355209  0.32642747  1
  O  O5  1  0.68208892  0.72722601  0.57283840  1
  O  O6  1  0.68094635  0.64737857  0.35891283  1
  O  O7  1  0.50632063  0.19936471  0.07411707  1
  O  O8  1  0.49367937  0.80063529  0.92588293  1
  O  O9  1  0.31905365  0.35262143  0.64108717  1
  O  O10  1  0.31791108  0.27277399  0.42716160  1
  O  O11  1  0.27957470  0.84644791  0.67357253  1
  O  O12  1  0.22042530  0.84644791  0.17357253  1
  O  O13  1  0.18208892  0.27277399  0.92716160  1
  O  O14  1  0.18094635  0.35262143  0.14108717  1
  O  O15  1  0.00632063  0.80063529  0.42588293  1
loop_
_geom_bond_atom_site_label_1
_geom_bond_atom_site_label_2
_geom_bond_distance
_geom_bond_site_symmetry_2
Ba0 O12 2.692199 1_655
Ba0 O14 2.709925 1_655
Ba0 O4 2.757729 1_555
Ba0 O2 2.800337 1_555
Ba0 O10 2.802886 1_655
Ba0 O0 2.833195 1_555
Ba0 O6 2.872756 1_555
Ba0 O15 3.007755 1_655
Ba1 O7 2.581683 1_555
Ba1 O2 2.776511 1_545
Ba1 O1 2.806553 1_554
Ba1 O14 3.000613 1_655
Ba1 O4 3.011826 1_555
Ba1 O13 3.057378 1_654
Ba1 O3 3.124624 1_554
Ba1 O2 3.269578 1_555
Ba1 O12 3.389820 1_645
Ba2 O0 2.581683 1_555
Ba2 O5 2.776511 1_545
Ba2 O6 2.806553 1_555
Ba2 O9 3.000613 1_555
Ba2 O3 3.011826 1_555
Ba2 O10 3.057378 1_555
Ba2 O4 3.124624 1_555
Ba2 O5 3.269578 1_555
Ba2 O11 3.389820 1_545
Ba3 O11 2.692199 1_555
Ba3 O9 2.709925 1_555
Ba3 O3 2.757729 1_555
Ba3 O5 2.800337 1_555
Ba3 O13 2.802886 1_555
Ba3 O7 2.833195 1_556
Ba3 O1 2.872756 1_555
Ba3 O8 3.007755 1_555
Ba4 O4 2.692199 1_555
Ba4 O6 2.709925 1_555
Ba4 O12 2.757729 1_555
Ba4 O10 2.800337 1_555
Ba4 O2 2.802886 1_555
Ba4 O8 2.833195 1_554
Ba4 O14 2.872756 1_555
Ba4 O7 3.007755 1_555
Ba5 O15 2.581683 1_555
Ba5 O10 2.776511 1_565
Ba5 O9 2.806553 1_555
Ba5 O6 3.000613 1_555
Ba5 O12 3.011826 1_555
Ba5 O5 3.057378 1_555
Ba5 O11 3.124624 1_555
Ba5 O10 3.269578 1_555
Ba5 O4 3.389820 1_565
Ba6 O8 2.581683 1_555
Ba6 O13 2.776511 1_565
Ba6 O14 2.806553 1_556
Ba6 O1 3.000613 1_455
Ba6 O11 3.011826 1_555
Ba6 O2 3.057378 1_456
Ba6 O12 3.124624 1_556
Ba6 O13 3.269578 1_555
Ba6 O3 3.389820 1_465
Ba7 O3 2.692199 1_455
Ba7 O1 2.709925 1_455
Ba7 O11 2.757729 1_555
Ba7 O13 2.800337 1_555
Ba7 O5 2.802886 1_455
Ba7 O15 2.833195 1_555
Ba7 O9 2.872756 1_555
Ba7 O0 3.007755 1_455
Ge0 O15 1.751985 1_655
Ge0 O4 1.759011 1_565
Ge0 O6 1.769545 1_555
Ge0 O5 1.782270 1_555
Ge1 O8 1.751985 1_555
Ge1 O3 1.759011 1_565
Ge1 O1 1.769545 1_555
Ge1 O2 1.782270 1_556
Ge2 O7 1.751985 1_555
Ge2 O12 1.759011 1_545
Ge2 O14 1.769545 1_555
Ge2 O13 1.782270 1_554
Ge3 O0 1.751985 1_455
Ge3 O11 1.759011 1_545
Ge3 O9 1.769545 1_555
Ge3 O10 1.782270 1_555
