# generated using pymatgen
data_Li4Al3Cr3(SbO8)2
_symmetry_space_group_name_H-M   'P 1'
_cell_length_a   5.86585227
_cell_length_b   11.19230190
_cell_length_c   10.14033905
_cell_angle_alpha   63.26816516
_cell_angle_beta   90.18771368
_cell_angle_gamma   104.86669905
_symmetry_Int_Tables_number   1
_chemical_formula_structural   Li4Al3Cr3(SbO8)2
_chemical_formula_sum   'Li8 Al6 Cr6 Sb4 O32'
_cell_volume   569.81177141
_cell_formula_units_Z   2
loop_
 _symmetry_equiv_pos_site_id
 _symmetry_equiv_pos_as_xyz
  1  'x, y, z'
loop_
 _atom_site_type_symbol
 _atom_site_label
 _atom_site_symmetry_multiplicity
 _atom_site_fract_x
 _atom_site_fract_y
 _atom_site_fract_z
 _atom_site_occupancy
  Li  Li0  1  0.95498100  0.90481100  0.71341200  1
  Li  Li1  1  0.45497900  0.90480300  0.21341800  1
  Li  Li2  1  0.48968700  0.98591700  0.50813000  1
  Li  Li3  1  0.98968200  0.98591200  0.00812500  1
  Li  Li4  1  0.24188600  0.48956600  0.75615400  1
  Li  Li5  1  0.74188700  0.48957100  0.25615500  1
  Li  Li6  1  0.20524600  0.40752800  0.12907700  1
  Li  Li7  1  0.70524100  0.40752000  0.62908000  1
  Al  Al0  1  0.85195200  0.21476200  0.97774700  1
  Al  Al1  1  0.35193700  0.21476200  0.47775100  1
  Al  Al2  1  0.35863200  0.71441300  0.81273900  1
  Al  Al3  1  0.85863000  0.71440800  0.31274300  1
  Al  Al4  1  0.60300700  0.71443000  0.05706100  1
  Al  Al5  1  0.10299900  0.71442800  0.55705900  1
  Cr  Cr0  1  0.11296300  0.71364900  0.05779800  1
  Cr  Cr1  1  0.36181500  0.21366300  0.97729100  1
  Cr  Cr2  1  0.60813700  0.21364500  0.22362200  1
  Cr  Cr3  1  0.61291200  0.71364100  0.55780800  1
  Cr  Cr4  1  0.86178700  0.21364900  0.47728200  1
  Cr  Cr5  1  0.10815700  0.21363900  0.72363000  1
  Sb  Sb0  1  0.74555600  0.48849100  0.92197400  1
  Sb  Sb1  1  0.24557700  0.48848700  0.42196800  1
  Sb  Sb2  1  0.49584700  0.98565000  0.83951900  1
  Sb  Sb3  1  0.99585300  0.98565200  0.33951700  1
  O  O0  1  0.44906900  0.34425300  0.06890400  1
  O  O1  1  0.94907300  0.34426000  0.56890000  1
  O  O2  1  0.57062300  0.11092900  0.10615400  1
  O  O3  1  0.07061200  0.11094500  0.60614900  1
  O  O4  1  0.13522000  0.30358500  0.85374300  1
  O  O5  1  0.63521300  0.30359000  0.35372700  1
  O  O6  1  0.38574400  0.79792700  0.60542800  1
  O  O7  1  0.88574800  0.79792400  0.10542800  1
  O  O8  1  0.79013200  0.09093900  0.37295800  1
  O  O9  1  0.29014200  0.09094000  0.87295700  1
  O  O10  1  0.05118500  0.60139100  0.78245900  1
  O  O11  1  0.55119000  0.60139100  0.28246100  1
  O  O12  1  0.32151600  0.61403200  0.02146600  1
  O  O13  1  0.82151300  0.61402600  0.52147300  1
  O  O14  1  0.64599400  0.84017000  0.83794500  1
  O  O15  1  0.14598900  0.84016300  0.33795400  1
  O  O16  1  0.54069900  0.59829400  0.78620400  1
  O  O17  1  0.04070100  0.59829400  0.28620300  1
  O  O18  1  0.79187500  0.59831000  0.03735200  1
  O  O19  1  0.29186900  0.59830900  0.53735500  1
  O  O20  1  0.67464100  0.34235400  0.84570500  1
  O  O21  1  0.17464500  0.34236100  0.34570200  1
  O  O22  1  0.89757800  0.34234700  0.06863600  1
  O  O23  1  0.39758600  0.34235300  0.56863500  1
  O  O24  1  0.20168300  0.84040500  0.83548600  1
  O  O25  1  0.70167600  0.84039700  0.33549200  1
  O  O26  1  0.42741500  0.84042400  0.06118700  1
  O  O27  1  0.92741000  0.84042100  0.56119300  1
  O  O28  1  0.04249900  0.09797800  0.11604000  1
  O  O29  1  0.54250500  0.09798900  0.61603400  1
  O  O30  1  0.29821800  0.09798900  0.37174000  1
  O  O31  1  0.79822600  0.09799700  0.87173500  1
loop_
_geom_bond_atom_site_label_1
_geom_bond_atom_site_label_2
_geom_bond_distance
_geom_bond_site_symmetry_2
Li0 O24 1.966442 1_655
Li0 O27 1.966565 1_555
Li0 O3 1.977419 1_665
Li0 O14 1.980748 1_555
Li1 O25 1.966417 1_555
Li1 O26 1.966595 1_555
Li1 O2 1.977348 1_565
Li1 O15 1.980779 1_555
Li2 O6 1.802852 1_555
Li2 O8 1.967170 1_565
Li2 O30 1.974751 1_565
Li2 O29 1.974763 1_565
Li3 O7 1.802833 1_555
Li3 O9 1.967222 1_664
Li3 O31 1.974764 1_564
Li3 O28 1.974800 1_665
Li4 O4 1.785006 1_555
Li4 O16 1.970174 1_555
Li4 O19 1.970206 1_555
Li4 O10 1.977281 1_555
Li5 O5 1.785004 1_555
Li5 O17 1.970144 1_655
Li5 O18 1.970237 1_555
Li5 O11 1.977221 1_555
Li6 O0 1.957965 1_555
Li6 O21 1.970664 1_555
Li6 O22 1.970864 1_455
Li6 O12 1.981127 1_555
Li7 O1 1.957926 1_555
Li7 O20 1.970666 1_555
Li7 O23 1.970778 1_555
Li7 O13 1.981145 1_555
Al0 O4 1.836262 1_655
Al0 O2 1.854163 1_556
Al0 O22 1.986559 1_556
Al0 O20 1.986641 1_555
Al0 O31 2.003287 1_555
Al0 O28 2.003677 1_656
Al1 O5 1.836388 1_555
Al1 O3 1.854093 1_555
Al1 O23 1.986572 1_555
Al1 O21 1.986630 1_555
Al1 O30 2.003355 1_555
Al1 O29 2.003666 1_555
Al2 O6 1.864515 1_555
Al2 O12 1.878219 1_556
Al2 O24 1.962006 1_555
Al2 O16 1.982613 1_555
Al2 O14 1.997778 1_555
Al2 O10 2.030270 1_555
Al3 O7 1.864550 1_555
Al3 O13 1.878246 1_555
Al3 O25 1.962004 1_555
Al3 O17 1.982604 1_655
Al3 O15 1.997777 1_655
Al3 O11 2.030223 1_555
Al4 O7 1.864455 1_555
Al4 O12 1.878362 1_555
Al4 O26 1.962112 1_555
Al4 O18 1.982519 1_555
Al4 O14 1.997374 1_554
Al4 O11 2.030494 1_555
Al5 O6 1.864505 1_555
Al5 O13 1.878320 1_455
Al5 O27 1.962118 1_455
Al5 O19 1.982498 1_555
Al5 O15 1.997275 1_555
Al5 O10 2.030492 1_555
Cr0 O12 1.986904 1_555
Cr0 O7 1.989597 1_455
Cr0 O24 2.029069 1_554
Cr0 O26 2.029091 1_555
Cr0 O17 2.060672 1_555
Cr0 O18 2.060926 1_455
Cr1 O2 1.972395 1_556
Cr1 O4 1.972402 1_555
Cr1 O0 2.023808 1_556
Cr1 O20 2.037897 1_555
Cr1 O9 2.047151 1_555
Cr1 O28 2.073231 1_556
Cr2 O2 1.972147 1_555
Cr2 O5 1.972472 1_555
Cr2 O0 2.023859 1_555
Cr2 O22 2.037984 1_555
Cr2 O8 2.046884 1_555
Cr2 O30 2.073084 1_555
Cr3 O13 1.987114 1_555
Cr3 O6 1.989425 1_555
Cr3 O25 2.029122 1_555
Cr3 O27 2.029301 1_555
Cr3 O16 2.060575 1_555
Cr3 O19 2.060720 1_555
Cr4 O3 1.972338 1_655
Cr4 O5 1.972417 1_555
Cr4 O1 2.024063 1_555
Cr4 O21 2.038054 1_655
Cr4 O8 2.046941 1_555
Cr4 O29 2.073070 1_555
Cr5 O3 1.972051 1_555
Cr5 O4 1.972557 1_555
Cr5 O1 2.024046 1_455
Cr5 O23 2.037999 1_555
Cr5 O9 2.046767 1_555
Cr5 O31 2.073064 1_455
O0 Sb0 2.064722 1_554
O1 Sb1 2.064764 1_655
O8 Sb3 2.012881 1_545
O9 Sb2 2.012825 1_545
O10 Sb0 2.014481 1_455
O11 Sb1 2.014382 1_555
O14 Sb2 2.046101 1_555
O15 Sb3 2.046111 1_455
O16 Sb0 2.018557 1_555
O17 Sb1 2.018640 1_555
O18 Sb0 2.018333 1_554
O19 Sb1 2.018443 1_555
O20 Sb0 2.057465 1_555
O21 Sb1 2.057330 1_555
O22 Sb0 2.057616 1_554
O23 Sb1 2.057521 1_555
O24 Sb2 2.059542 1_555
O25 Sb3 2.059626 1_555
O26 Sb2 2.059098 1_554
O27 Sb3 2.059171 1_555
O28 Sb3 2.013774 1_445
O29 Sb2 2.013853 1_545
O30 Sb3 2.013664 1_445
O31 Sb2 2.013744 1_545
