# generated using pymatgen
data_Cr4Si4O13
_symmetry_space_group_name_H-M   'P 1'
_cell_length_a   6.97875700
_cell_length_b   7.77871893
_cell_length_c   9.95278169
_cell_angle_alpha   67.50287055
_cell_angle_beta   82.61526982
_cell_angle_gamma   79.43469973
_symmetry_Int_Tables_number   1
_chemical_formula_structural   Cr4Si4O13
_chemical_formula_sum   'Cr8 Si8 O26'
_cell_volume   489.70018411
_cell_formula_units_Z   2
loop_
 _symmetry_equiv_pos_site_id
 _symmetry_equiv_pos_as_xyz
  1  'x, y, z'
loop_
 _atom_site_type_symbol
 _atom_site_label
 _atom_site_symmetry_multiplicity
 _atom_site_fract_x
 _atom_site_fract_y
 _atom_site_fract_z
 _atom_site_occupancy
  Cr  Cr0  1  0.57185000  0.19794700  0.99258200  1
  Cr  Cr1  1  0.92543800  0.80686600  0.00868300  1
  Cr  Cr2  1  0.06226200  0.55912500  0.62009100  1
  Cr  Cr3  1  0.56225500  0.54873200  0.62812300  1
  Cr  Cr4  1  0.43774500  0.45126800  0.37187700  1
  Cr  Cr5  1  0.93773800  0.44087500  0.37990900  1
  Cr  Cr6  1  0.07456200  0.19313400  0.99131700  1
  Cr  Cr7  1  0.42815000  0.80205300  0.00741800  1
  Si  Si0  1  0.26241400  0.57965200  0.83308300  1
  Si  Si1  1  0.71672200  0.85548800  0.71850000  1
  Si  Si2  1  0.36934300  0.14728500  0.71103300  1
  Si  Si3  1  0.92773800  0.16554400  0.70149600  1
  Si  Si4  1  0.07226200  0.83445600  0.29850400  1
  Si  Si5  1  0.63065700  0.85271500  0.28896700  1
  Si  Si6  1  0.28327800  0.14451200  0.28150000  1
  Si  Si7  1  0.73758600  0.42034800  0.16691700  1
  O  O0  1  0.09071600  0.44976700  0.84686600  1
  O  O1  1  0.19705500  0.72211500  0.92244300  1
  O  O2  1  0.49015200  0.46414300  0.85038100  1
  O  O3  1  0.74282700  0.76798400  0.89341500  1
  O  O4  1  0.35479700  0.10327100  0.88913100  1
  O  O5  1  0.89775900  0.10200800  0.87992900  1
  O  O6  1  0.44835300  0.34276500  0.60251500  1
  O  O7  1  0.84329100  0.38801300  0.60726200  1
  O  O8  1  0.28583300  0.67951200  0.65111900  1
  O  O9  1  0.75075600  0.70560700  0.64026400  1
  O  O10  1  0.15715600  0.16409400  0.65847200  1
  O  O11  1  0.49269800  0.96139200  0.69017400  1
  O  O12  1  0.85625800  0.02082500  0.64473500  1
  O  O13  1  0.14374200  0.97917500  0.35526500  1
  O  O14  1  0.50730200  0.03860800  0.30982600  1
  O  O15  1  0.84284400  0.83590600  0.34152800  1
  O  O16  1  0.24924400  0.29439300  0.35973600  1
  O  O17  1  0.71416700  0.32048800  0.34888100  1
  O  O18  1  0.15670900  0.61198700  0.39273800  1
  O  O19  1  0.55164700  0.65723500  0.39748500  1
  O  O20  1  0.10224100  0.89799200  0.12007100  1
  O  O21  1  0.64520300  0.89672900  0.11086900  1
  O  O22  1  0.25717300  0.23201600  0.10658500  1
  O  O23  1  0.50984800  0.53585700  0.14961900  1
  O  O24  1  0.80294500  0.27788500  0.07755700  1
  O  O25  1  0.90928400  0.55023300  0.15313400  1
loop_
_geom_bond_atom_site_label_1
_geom_bond_atom_site_label_2
_geom_bond_distance
_geom_bond_site_symmetry_2
Cr0 O2 2.036557 1_555
Cr0 O21 2.177658 1_546
Cr0 O24 2.196301 1_556
Cr0 O4 2.299413 1_555
Cr0 O22 2.357217 1_556
Cr0 O5 2.519816 1_555
Cr1 O3 1.953059 1_554
Cr1 O25 1.977191 1_555
Cr1 O1 2.078697 1_654
Cr1 O20 2.127832 1_655
Cr1 O5 2.144722 1_564
Cr1 O21 2.208881 1_555
Cr2 O8 2.070668 1_555
Cr2 O0 2.107428 1_555
Cr2 O18 2.174328 1_555
Cr2 O7 2.247063 1_455
Cr2 O9 2.284534 1_455
Cr3 O9 1.994150 1_555
Cr3 O6 2.023692 1_555
Cr3 O8 2.038055 1_555
Cr3 O2 2.073854 1_555
Cr3 O19 2.127257 1_555
Cr3 O7 2.155806 1_555
Cr4 O16 1.994150 1_555
Cr4 O19 2.023692 1_555
Cr4 O17 2.038055 1_555
Cr4 O23 2.073854 1_555
Cr4 O6 2.127257 1_555
Cr4 O18 2.155806 1_555
Cr5 O17 2.070668 1_555
Cr5 O25 2.107428 1_555
Cr5 O7 2.174328 1_555
Cr5 O18 2.247063 1_655
Cr5 O16 2.284534 1_655
Cr6 O22 1.953059 1_556
Cr6 O0 1.977191 1_555
Cr6 O24 2.078697 1_456
Cr6 O5 2.127832 1_455
Cr6 O20 2.144722 1_546
Cr6 O4 2.208881 1_555
Cr7 O23 2.036557 1_555
Cr7 O4 2.177658 1_564
Cr7 O1 2.196301 1_554
Cr7 O21 2.299413 1_555
Cr7 O3 2.357217 1_554
Cr7 O20 2.519816 1_555
O0 Si0 1.664635 1_555
O1 Si0 1.640645 1_555
O2 Si0 1.670691 1_555
O3 Si1 1.629855 1_555
O4 Si2 1.664809 1_555
O5 Si3 1.646996 1_555
O6 Si2 1.637157 1_555
O7 Si3 1.657615 1_555
O8 Si0 1.674480 1_555
O9 Si1 1.602394 1_555
O10 Si2 1.599787 1_555
O10 Si3 1.602403 1_455
O11 Si2 1.613206 1_565
O11 Si1 1.632679 1_555
O12 Si3 1.612547 1_555
O12 Si1 1.641416 1_545
O13 Si4 1.612547 1_555
O13 Si6 1.641416 1_565
O14 Si5 1.613206 1_545
O14 Si6 1.632679 1_555
O15 Si5 1.599787 1_555
O15 Si4 1.602403 1_655
O16 Si6 1.602394 1_555
O17 Si7 1.674480 1_555
O18 Si4 1.657615 1_555
O19 Si5 1.637157 1_555
O20 Si4 1.646996 1_555
O21 Si5 1.664809 1_555
O22 Si6 1.629855 1_555
O23 Si7 1.670691 1_555
O24 Si7 1.640645 1_555
O25 Si7 1.664635 1_555
