# generated using pymatgen
data_Li2V3(FeO6)2
_symmetry_space_group_name_H-M   'P 1'
_cell_length_a   9.18098900
_cell_length_b   9.24139400
_cell_length_c   12.74388200
_cell_angle_alpha   90.00000000
_cell_angle_beta   90.00000000
_cell_angle_gamma   90.00000000
_symmetry_Int_Tables_number   1
_chemical_formula_structural   Li2V3(FeO6)2
_chemical_formula_sum   'Li8 V12 Fe8 O48'
_cell_volume   1081.25640985
_cell_formula_units_Z   4
loop_
 _symmetry_equiv_pos_site_id
 _symmetry_equiv_pos_as_xyz
  1  'x, y, z'
loop_
 _atom_site_type_symbol
 _atom_site_label
 _atom_site_symmetry_multiplicity
 _atom_site_fract_x
 _atom_site_fract_y
 _atom_site_fract_z
 _atom_site_occupancy
  Li  Li0  1  0.77316000  0.22141900  0.68920600  1
  Li  Li1  1  0.27316000  0.77858100  0.68920600  1
  Li  Li2  1  0.27316000  0.27858100  0.81079400  1
  Li  Li3  1  0.77316000  0.72141900  0.81079400  1
  Li  Li4  1  0.22684000  0.27858100  0.18920600  1
  Li  Li5  1  0.72684000  0.72141900  0.18920600  1
  Li  Li6  1  0.72684000  0.22141900  0.31079400  1
  Li  Li7  1  0.22684000  0.77858100  0.31079400  1
  V  V0  1  0.75000000  0.46452700  0.50000000  1
  V  V1  1  0.25000000  0.53547300  0.50000000  1
  V  V2  1  0.25000000  0.03547300  0.00000000  1
  V  V3  1  0.75000000  0.96452700  0.00000000  1
  V  V4  1  0.10575400  0.10140700  0.64356300  1
  V  V5  1  0.60575400  0.89859300  0.64356300  1
  V  V6  1  0.60575400  0.39859300  0.85643700  1
  V  V7  1  0.10575400  0.60140700  0.85643700  1
  V  V8  1  0.89424600  0.39859300  0.14356300  1
  V  V9  1  0.39424600  0.60140700  0.14356300  1
  V  V10  1  0.39424600  0.10140700  0.35643700  1
  V  V11  1  0.89424600  0.89859300  0.35643700  1
  Fe  Fe0  1  0.46782500  0.25087000  0.62025400  1
  Fe  Fe1  1  0.96782500  0.74913000  0.62025400  1
  Fe  Fe2  1  0.46782500  0.75087000  0.87974600  1
  Fe  Fe3  1  0.96782500  0.24913000  0.87974600  1
  Fe  Fe4  1  0.53217500  0.24913000  0.12025400  1
  Fe  Fe5  1  0.03217500  0.75087000  0.12025400  1
  Fe  Fe6  1  0.03217500  0.25087000  0.37974600  1
  Fe  Fe7  1  0.53217500  0.74913000  0.37974600  1
  O  O0  1  0.06057100  0.15144700  0.51756600  1
  O  O1  1  0.56057100  0.84855300  0.51756600  1
  O  O2  1  0.87017700  0.57124600  0.56908600  1
  O  O3  1  0.37017700  0.42875400  0.56908600  1
  O  O4  1  0.66118600  0.35048500  0.59063900  1
  O  O5  1  0.16118600  0.64951500  0.59063900  1
  O  O6  1  0.60532300  0.08781200  0.66054700  1
  O  O7  1  0.10532300  0.91218800  0.66054700  1
  O  O8  1  0.27813600  0.16694700  0.67489300  1
  O  O9  1  0.77813600  0.83305300  0.67489300  1
  O  O10  1  0.47622100  0.82383200  0.72833800  1
  O  O11  1  0.97622100  0.17616800  0.72833800  1
  O  O12  1  0.47622100  0.32383200  0.77166200  1
  O  O13  1  0.97622100  0.67616800  0.77166200  1
  O  O14  1  0.27813600  0.66694700  0.82510700  1
  O  O15  1  0.77813600  0.33305300  0.82510700  1
  O  O16  1  0.10532300  0.41218800  0.83945300  1
  O  O17  1  0.60532300  0.58781200  0.83945300  1
  O  O18  1  0.16118600  0.14951500  0.90936100  1
  O  O19  1  0.66118600  0.85048500  0.90936100  1
  O  O20  1  0.87017700  0.07124600  0.93091400  1
  O  O21  1  0.37017700  0.92875400  0.93091400  1
  O  O22  1  0.06057100  0.65144700  0.98243400  1
  O  O23  1  0.56057100  0.34855300  0.98243400  1
  O  O24  1  0.93942900  0.34855300  0.01756600  1
  O  O25  1  0.43942900  0.65144700  0.01756600  1
  O  O26  1  0.62982300  0.07124600  0.06908600  1
  O  O27  1  0.12982300  0.92875400  0.06908600  1
  O  O28  1  0.33881400  0.14951500  0.09063900  1
  O  O29  1  0.83881400  0.85048500  0.09063900  1
  O  O30  1  0.39467700  0.41218800  0.16054700  1
  O  O31  1  0.89467700  0.58781200  0.16054700  1
  O  O32  1  0.72186400  0.33305300  0.17489300  1
  O  O33  1  0.22186400  0.66694700  0.17489300  1
  O  O34  1  0.02377900  0.32383200  0.22833800  1
  O  O35  1  0.52377900  0.67616800  0.22833800  1
  O  O36  1  0.52377900  0.17616800  0.27166200  1
  O  O37  1  0.02377900  0.82383200  0.27166200  1
  O  O38  1  0.22186400  0.16694700  0.32510700  1
  O  O39  1  0.72186400  0.83305300  0.32510700  1
  O  O40  1  0.89467700  0.08781200  0.33945300  1
  O  O41  1  0.39467700  0.91218800  0.33945300  1
  O  O42  1  0.83881400  0.35048500  0.40936100  1
  O  O43  1  0.33881400  0.64951500  0.40936100  1
  O  O44  1  0.12982300  0.42875400  0.43091400  1
  O  O45  1  0.62982300  0.57124600  0.43091400  1
  O  O46  1  0.43942900  0.15144700  0.48243400  1
  O  O47  1  0.93942900  0.84855300  0.48243400  1
loop_
_geom_bond_atom_site_label_1
_geom_bond_atom_site_label_2
_geom_bond_distance
_geom_bond_site_symmetry_2
Li0 O11 1.974636 1_555
Li0 O6 2.008062 1_555
Li0 O4 2.014288 1_555
Li0 O15 2.016407 1_555
Li1 O10 1.974636 1_555
Li1 O7 2.008062 1_555
Li1 O5 2.014288 1_555
Li1 O14 2.016407 1_555
Li2 O12 1.974636 1_555
Li2 O16 2.008062 1_555
Li2 O18 2.014288 1_555
Li2 O8 2.016407 1_555
Li3 O13 1.974636 1_555
Li3 O17 2.008062 1_555
Li3 O19 2.014288 1_555
Li3 O9 2.016407 1_555
Li4 O34 1.974636 1_555
Li4 O30 2.008062 1_555
Li4 O28 2.014288 1_555
Li4 O38 2.016407 1_555
Li5 O35 1.974636 1_555
Li5 O31 2.008062 1_555
Li5 O29 2.014288 1_555
Li5 O39 2.016407 1_555
Li6 O36 1.974636 1_555
Li6 O40 2.008062 1_555
Li6 O42 2.014288 1_555
Li6 O32 2.016407 1_555
Li7 O37 1.974636 1_555
Li7 O41 2.008062 1_555
Li7 O43 2.014288 1_555
Li7 O33 2.016407 1_555
Fe0 O3 1.982756 1_555
Fe0 O46 1.999245 1_555
Fe0 O8 2.029603 1_555
Fe0 O6 2.031733 1_555
Fe0 O4 2.035044 1_555
Fe0 O12 2.045398 1_555
Fe1 O2 1.982756 1_555
Fe1 O47 1.999245 1_555
Fe1 O9 2.029603 1_555
Fe1 O7 2.031733 1_655
Fe1 O5 2.035044 1_655
Fe1 O13 2.045398 1_555
Fe2 O21 1.982756 1_555
Fe2 O25 1.999245 1_556
Fe2 O14 2.029603 1_555
Fe2 O17 2.031733 1_555
Fe2 O19 2.035044 1_555
Fe2 O10 2.045398 1_555
Fe3 O20 1.982756 1_555
Fe3 O24 1.999245 1_556
Fe3 O15 2.029603 1_555
Fe3 O16 2.031733 1_655
Fe3 O18 2.035044 1_655
Fe3 O11 2.045398 1_555
Fe4 O26 1.982756 1_555
Fe4 O23 1.999245 1_554
Fe4 O32 2.029603 1_555
Fe4 O30 2.031733 1_555
Fe4 O28 2.035044 1_555
Fe4 O36 2.045398 1_555
Fe5 O27 1.982756 1_555
Fe5 O22 1.999245 1_554
Fe5 O33 2.029603 1_555
Fe5 O31 2.031733 1_455
Fe5 O29 2.035044 1_455
Fe5 O37 2.045398 1_555
Fe6 O44 1.982756 1_555
Fe6 O0 1.999245 1_555
Fe6 O38 2.029603 1_555
Fe6 O40 2.031733 1_455
Fe6 O42 2.035044 1_455
Fe6 O34 2.045398 1_555
Fe7 O45 1.982756 1_555
Fe7 O1 1.999245 1_555
Fe7 O39 2.029603 1_555
Fe7 O41 2.031733 1_555
Fe7 O43 2.035044 1_555
Fe7 O35 2.045398 1_555
O0 V4 1.721677 1_555
O1 V5 1.721677 1_555
O2 V0 1.721966 1_555
O3 V1 1.721966 1_555
O4 V0 1.763473 1_555
O5 V1 1.763473 1_555
O6 V5 1.761996 1_545
O7 V4 1.761996 1_565
O8 V4 1.740978 1_555
O9 V5 1.740978 1_555
O10 V5 1.748947 1_555
O11 V4 1.748947 1_655
O12 V6 1.748947 1_555
O13 V7 1.748947 1_655
O14 V7 1.740978 1_555
O15 V6 1.740978 1_555
O16 V7 1.761996 1_555
O17 V6 1.761996 1_555
O18 V2 1.763473 1_556
O19 V3 1.763473 1_556
O20 V3 1.721966 1_546
O21 V2 1.721966 1_566
O22 V7 1.721677 1_555
O23 V6 1.721677 1_555
O24 V8 1.721677 1_555
O25 V9 1.721677 1_555
O26 V3 1.721966 1_545
O27 V2 1.721966 1_565
O28 V2 1.763473 1_555
O29 V3 1.763473 1_555
O30 V9 1.761996 1_555
O31 V8 1.761996 1_555
O32 V8 1.740978 1_555
O33 V9 1.740978 1_555
O34 V8 1.748947 1_455
O35 V9 1.748947 1_555
O36 V10 1.748947 1_555
O37 V11 1.748947 1_455
O38 V10 1.740978 1_555
O39 V11 1.740978 1_555
O40 V11 1.761996 1_545
O41 V10 1.761996 1_565
O42 V0 1.763473 1_555
O43 V1 1.763473 1_555
O44 V1 1.721966 1_555
O45 V0 1.721966 1_555
O46 V10 1.721677 1_555
O47 V11 1.721677 1_555
