# generated using pymatgen
data_Sc2H6(SeO4)3
_symmetry_space_group_name_H-M   'P 1'
_cell_length_a   9.04317363
_cell_length_b   9.04317363
_cell_length_c   9.04317405
_cell_angle_alpha   65.94271163
_cell_angle_beta   65.94271163
_cell_angle_gamma   65.94270995
_symmetry_Int_Tables_number   1
_chemical_formula_structural   Sc2H6(SeO4)3
_chemical_formula_sum   'Sc4 H12 Se6 O24'
_cell_volume   590.22185414
_cell_formula_units_Z   2
loop_
 _symmetry_equiv_pos_site_id
 _symmetry_equiv_pos_as_xyz
  1  'x, y, z'
loop_
 _atom_site_type_symbol
 _atom_site_label
 _atom_site_symmetry_multiplicity
 _atom_site_fract_x
 _atom_site_fract_y
 _atom_site_fract_z
 _atom_site_occupancy
  Sc  Sc0  1  0.15820300  0.15820300  0.15820300  1
  Sc  Sc1  1  0.39207000  0.39207000  0.39207000  1
  Sc  Sc2  1  0.89207000  0.89207000  0.89207000  1
  Sc  Sc3  1  0.65820300  0.65820300  0.65820300  1
  H  H0  1  0.92133200  0.20588500  0.88373900  1
  H  H1  1  0.88609100  0.24414400  0.71207300  1
  H  H2  1  0.74414400  0.38609100  0.21207300  1
  H  H3  1  0.70588500  0.42133200  0.38373900  1
  H  H4  1  0.38609100  0.21207300  0.74414400  1
  H  H5  1  0.42133200  0.38373900  0.70588500  1
  H  H6  1  0.88373900  0.92133200  0.20588500  1
  H  H7  1  0.71207300  0.88609100  0.24414400  1
  H  H8  1  0.38373900  0.70588500  0.42133200  1
  H  H9  1  0.24414400  0.71207300  0.88609100  1
  H  H10  1  0.21207300  0.74414400  0.38609100  1
  H  H11  1  0.20588500  0.88373900  0.92133200  1
  Se  Se0  1  0.99899400  0.45874100  0.37348700  1
  Se  Se1  1  0.95874100  0.49899400  0.87348700  1
  Se  Se2  1  0.45874100  0.37348700  0.99899400  1
  Se  Se3  1  0.87348700  0.95874100  0.49899400  1
  Se  Se4  1  0.49899400  0.87348700  0.95874100  1
  Se  Se5  1  0.37348700  0.99899400  0.45874100  1
  O  O0  1  0.90976800  0.15336700  0.81411100  1
  O  O1  1  0.96519000  0.30681700  0.03226800  1
  O  O2  1  0.48407300  0.14252700  0.39862000  1
  O  O3  1  0.80681700  0.46519000  0.53226800  1
  O  O4  1  0.35437400  0.02273100  0.26861400  1
  O  O5  1  0.30681700  0.03226800  0.96519000  1
  O  O6  1  0.89862000  0.64252700  0.98407300  1
  O  O7  1  0.76861400  0.52273100  0.85437400  1
  O  O8  1  0.65336700  0.40976800  0.31411100  1
  O  O9  1  0.40976800  0.31411100  0.65336700  1
  O  O10  1  0.85437400  0.76861400  0.52273100  1
  O  O11  1  0.98407300  0.89862000  0.64252700  1
  O  O12  1  0.46519000  0.53226800  0.80681700  1
  O  O13  1  0.39862000  0.48407300  0.14252700  1
  O  O14  1  0.26861400  0.35437400  0.02273100  1
  O  O15  1  0.81411100  0.90976800  0.15336700  1
  O  O16  1  0.02273100  0.26861400  0.35437400  1
  O  O17  1  0.14252700  0.39862000  0.48407300  1
  O  O18  1  0.53226800  0.80681700  0.46519000  1
  O  O19  1  0.31411100  0.65336700  0.40976800  1
  O  O20  1  0.52273100  0.85437400  0.76861400  1
  O  O21  1  0.64252700  0.98407300  0.89862000  1
  O  O22  1  0.15336700  0.81411100  0.90976800  1
  O  O23  1  0.03226800  0.96519000  0.30681700  1
loop_
_geom_bond_atom_site_label_1
_geom_bond_atom_site_label_2
_geom_bond_distance
_geom_bond_site_symmetry_2
H0 O0 0.985368 1_555
H1 O0 0.985595 1_555
H2 O8 0.985595 1_555
H3 O8 0.985368 1_555
H4 O9 0.985595 1_555
H5 O9 0.985368 1_555
H6 O15 0.985368 1_555
H7 O15 0.985595 1_555
H8 O19 0.985368 1_555
H9 O22 0.985595 1_555
H10 O19 0.985595 1_555
H11 O22 0.985368 1_555
O0 Sc2 2.228080 1_545
O1 Se1 1.742573 1_554
O1 Sc0 2.147102 1_655
O2 Se5 1.737855 1_545
O2 Sc1 2.046629 1_555
O3 Se0 1.742573 1_555
O3 Sc3 2.147102 1_555
O4 Se5 1.715592 1_545
O4 Sc0 2.078419 1_555
O5 Se4 1.742573 1_545
O5 Sc0 2.147102 1_556
O6 Se1 1.737855 1_555
O6 Sc2 2.046629 1_555
O7 Se1 1.715592 1_555
O7 Sc3 2.078419 1_555
O8 Sc1 2.228080 1_555
O9 Sc1 2.228080 1_555
O10 Se3 1.715592 1_555
O10 Sc3 2.078419 1_555
O11 Se3 1.737855 1_555
O11 Sc2 2.046629 1_555
O12 Se2 1.742573 1_555
O12 Sc3 2.147102 1_555
O13 Se2 1.737855 1_554
O13 Sc1 2.046629 1_555
O14 Se2 1.715592 1_554
O14 Sc0 2.078419 1_555
O15 Sc2 2.228080 1_554
O16 Se0 1.715592 1_455
O16 Sc0 2.078419 1_555
O17 Se0 1.737855 1_455
O17 Sc1 2.046629 1_555
O18 Se5 1.742573 1_555
O18 Sc3 2.147102 1_555
O19 Sc1 2.228080 1_555
O20 Se4 1.715592 1_555
O20 Sc3 2.078419 1_555
O21 Se4 1.737855 1_555
O21 Sc2 2.046629 1_555
O22 Sc2 2.228080 1_455
O23 Se3 1.742573 1_455
O23 Sc0 2.147102 1_565
