# generated using pymatgen
data_SmP2H9O11
_symmetry_space_group_name_H-M   'P 1'
_cell_length_a   11.63768100
_cell_length_b   6.70710900
_cell_length_c   13.49775292
_cell_angle_alpha   61.77930836
_cell_angle_beta   90.00000000
_cell_angle_gamma   90.00000000
_symmetry_Int_Tables_number   1
_chemical_formula_structural   SmP2H9O11
_chemical_formula_sum   'Sm4 P8 H36 O44'
_cell_volume   928.33478705
_cell_formula_units_Z   4
loop_
 _symmetry_equiv_pos_site_id
 _symmetry_equiv_pos_as_xyz
  1  'x, y, z'
loop_
 _atom_site_type_symbol
 _atom_site_label
 _atom_site_symmetry_multiplicity
 _atom_site_fract_x
 _atom_site_fract_y
 _atom_site_fract_z
 _atom_site_occupancy
  Sm  Sm0  1  0.91911600  0.91962400  0.33512100  1
  Sm  Sm1  1  0.58088400  0.91962400  0.83512100  1
  Sm  Sm2  1  0.08088400  0.08037600  0.66487900  1
  Sm  Sm3  1  0.41911600  0.08037600  0.16487900  1
  P  P0  1  0.04888800  0.39663400  0.35700600  1
  P  P1  1  0.45111200  0.39663400  0.85700600  1
  P  P2  1  0.95111200  0.60336600  0.64299400  1
  P  P3  1  0.54888800  0.60336600  0.14299400  1
  P  P4  1  0.13442100  0.81837600  0.16183200  1
  P  P5  1  0.36557900  0.81837600  0.66183200  1
  P  P6  1  0.86557900  0.18162400  0.83816800  1
  P  P7  1  0.63442100  0.18162400  0.33816800  1
  H  H0  1  0.99224500  0.74150900  0.07414400  1
  H  H1  1  0.50775500  0.74150900  0.57414400  1
  H  H2  1  0.00775500  0.25849100  0.92585600  1
  H  H3  1  0.49224500  0.25849100  0.42585600  1
  H  H4  1  0.13874300  0.95639400  0.45575900  1
  H  H5  1  0.36125700  0.95639400  0.95575900  1
  H  H6  1  0.86125700  0.04360600  0.54424100  1
  H  H7  1  0.63874300  0.04360600  0.04424100  1
  H  H8  1  0.11731800  0.69205900  0.50377600  1
  H  H9  1  0.38268200  0.69205900  0.00377600  1
  H  H10  1  0.88268200  0.30794100  0.49622400  1
  H  H11  1  0.61731800  0.30794100  0.99622400  1
  H  H12  1  0.75904600  0.17096900  0.12616100  1
  H  H13  1  0.74095400  0.17096900  0.62616100  1
  H  H14  1  0.24095400  0.82903100  0.87383900  1
  H  H15  1  0.25904600  0.82903100  0.37383900  1
  H  H16  1  0.88448800  0.17501800  0.08370000  1
  H  H17  1  0.61551200  0.17501800  0.58370000  1
  H  H18  1  0.11551200  0.82498200  0.91630000  1
  H  H19  1  0.38448800  0.82498200  0.41630000  1
  H  H20  1  0.66595900  0.79493200  0.31649900  1
  H  H21  1  0.83404100  0.79493200  0.81649900  1
  H  H22  1  0.33404100  0.20506800  0.68350100  1
  H  H23  1  0.16595900  0.20506800  0.18350100  1
  H  H24  1  0.74187200  0.61654600  0.30039700  1
  H  H25  1  0.75812800  0.61654600  0.80039700  1
  H  H26  1  0.25812800  0.38345400  0.69960300  1
  H  H27  1  0.24187200  0.38345400  0.19960300  1
  H  H28  1  0.79910900  0.72081300  0.05903600  1
  H  H29  1  0.70089100  0.72081300  0.55903600  1
  H  H30  1  0.20089100  0.27918700  0.94096400  1
  H  H31  1  0.29910900  0.27918700  0.44096400  1
  H  H32  1  0.86304500  0.50453000  0.14753900  1
  H  H33  1  0.63695500  0.50453000  0.64753900  1
  H  H34  1  0.13695500  0.49547000  0.85246100  1
  H  H35  1  0.36304500  0.49547000  0.35246100  1
  O  O0  1  0.95958900  0.54264000  0.37586000  1
  O  O1  1  0.54041100  0.54264000  0.87586000  1
  O  O2  1  0.04041100  0.45736000  0.62414000  1
  O  O3  1  0.45958900  0.45736000  0.12414000  1
  O  O4  1  0.00034200  0.26446600  0.30080900  1
  O  O5  1  0.49965800  0.26446600  0.80080900  1
  O  O6  1  0.99965800  0.73553400  0.69919100  1
  O  O7  1  0.50034200  0.73553400  0.19919100  1
  O  O8  1  0.11744300  0.24474600  0.46382300  1
  O  O9  1  0.38255700  0.24474600  0.96382300  1
  O  O10  1  0.88255700  0.75525400  0.53617700  1
  O  O11  1  0.61744300  0.75525400  0.03617700  1
  O  O12  1  0.07911700  0.77977700  0.06494100  1
  O  O13  1  0.42088300  0.77977700  0.56494100  1
  O  O14  1  0.92088300  0.22022300  0.93505900  1
  O  O15  1  0.57911700  0.22022300  0.43505900  1
  O  O16  1  0.05864700  0.96336900  0.19396900  1
  O  O17  1  0.44135300  0.96336900  0.69396900  1
  O  O18  1  0.94135300  0.03663100  0.80603100  1
  O  O19  1  0.55864700  0.03663100  0.30603100  1
  O  O20  1  0.25608100  0.89765900  0.12954700  1
  O  O21  1  0.24391900  0.89765900  0.62954700  1
  O  O22  1  0.74391900  0.10234100  0.87045300  1
  O  O23  1  0.75608100  0.10234100  0.37045300  1
  O  O24  1  0.14607500  0.56734500  0.26993900  1
  O  O25  1  0.35392500  0.56734500  0.76993900  1
  O  O26  1  0.85392500  0.43265500  0.73006100  1
  O  O27  1  0.64607500  0.43265500  0.23006100  1
  O  O28  1  0.12524400  0.83759600  0.43323000  1
  O  O29  1  0.37475600  0.83759600  0.93323000  1
  O  O30  1  0.87475600  0.16240400  0.56677000  1
  O  O31  1  0.62524400  0.16240400  0.06677000  1
  O  O32  1  0.84097400  0.16909900  0.14762400  1
  O  O33  1  0.65902600  0.16909900  0.64762400  1
  O  O34  1  0.15902600  0.83090100  0.85237600  1
  O  O35  1  0.34097400  0.83090100  0.35237600  1
  O  O36  1  0.74252000  0.72584600  0.32928600  1
  O  O37  1  0.75748000  0.72584600  0.82928600  1
  O  O38  1  0.25748000  0.27415400  0.67071400  1
  O  O39  1  0.24252000  0.27415400  0.17071400  1
  O  O40  1  0.86794800  0.67005600  0.10635500  1
  O  O41  1  0.63205200  0.67005600  0.60635500  1
  O  O42  1  0.13205200  0.32994400  0.89364500  1
  O  O43  1  0.36794800  0.32994400  0.39364500  1
loop_
_geom_bond_atom_site_label_1
_geom_bond_atom_site_label_2
_geom_bond_distance
_geom_bond_site_symmetry_2
H0 O12 1.035980 1_655
H0 O40 1.521214 1_555
H1 O13 1.035980 1_555
H1 O41 1.521214 1_555
H2 O14 1.035980 1_455
H2 O42 1.521214 1_555
H3 O15 1.035980 1_555
H3 O43 1.521214 1_555
H4 O28 0.990543 1_555
H5 O29 0.990543 1_555
H6 O30 0.990543 1_555
H7 O31 0.990543 1_555
H8 O28 0.994486 1_555
H9 O29 0.994486 1_554
H10 O30 0.994486 1_555
H11 O31 0.994486 1_556
H12 O32 0.994846 1_555
H13 O33 0.994846 1_555
H14 O34 0.994846 1_555
H15 O35 0.994846 1_555
H16 O32 0.984937 1_555
H17 O33 0.984937 1_555
H18 O34 0.984937 1_555
H19 O35 0.984937 1_555
H20 O36 0.981188 1_555
H21 O37 0.981188 1_555
H22 O38 0.981188 1_555
H23 O39 0.981188 1_555
H24 O36 0.979730 1_555
H25 O37 0.979730 1_555
H26 O38 0.979730 1_555
H27 O39 0.979730 1_555
H28 O40 0.979796 1_555
H29 O41 0.979796 1_555
H30 O42 0.979796 1_555
H31 O43 0.979796 1_555
H32 O40 0.980385 1_555
H33 O41 0.980385 1_555
H34 O42 0.980385 1_555
H35 O43 0.980385 1_555
O0 P0 1.529525 1_655
O0 Sm0 2.366955 1_555
O1 P1 1.529525 1_555
O1 Sm1 2.366955 1_555
O2 P2 1.529525 1_455
O2 Sm2 2.366955 1_555
O3 P3 1.529525 1_555
O3 Sm3 2.366955 1_555
O4 P0 1.521941 1_555
O4 Sm0 2.333339 1_445
O5 P1 1.521941 1_555
O5 Sm1 2.333339 1_545
O6 P2 1.521941 1_555
O6 Sm2 2.333339 1_665
O7 P3 1.521941 1_555
O7 Sm3 2.333339 1_565
O8 P0 1.537528 1_555
O8 Sm2 2.435499 1_555
O9 P1 1.537528 1_555
O9 Sm3 2.435499 1_556
O10 P2 1.537528 1_555
O10 Sm0 2.435499 1_555
O11 P3 1.537528 1_555
O11 Sm1 2.435499 1_554
O12 P4 1.584876 1_555
O13 P5 1.584876 1_555
O14 P6 1.584876 1_555
O15 P7 1.584876 1_555
O16 P4 1.520023 1_555
O16 Sm0 2.413321 1_455
O17 P5 1.520023 1_555
O17 Sm1 2.413321 1_555
O18 P6 1.520023 1_555
O18 Sm2 2.413321 1_655
O19 P7 1.520023 1_555
O19 Sm3 2.413321 1_555
O20 P4 1.502704 1_555
O20 Sm3 2.425275 1_565
O21 P5 1.502704 1_555
O21 Sm2 2.425275 1_565
O22 P6 1.502704 1_555
O22 Sm1 2.425275 1_545
O23 P7 1.502704 1_555
O23 Sm0 2.425275 1_545
O24 P4 1.630629 1_555
O24 P0 1.642786 1_555
O25 P5 1.630629 1_555
O25 P1 1.642786 1_555
O26 P6 1.630629 1_555
O26 P2 1.642786 1_555
O27 P7 1.630629 1_555
O27 P3 1.642786 1_555
O28 Sm0 2.668668 1_455
O29 Sm1 2.668668 1_555
O30 Sm2 2.668668 1_655
O31 Sm3 2.668668 1_555
O32 Sm0 2.454953 1_545
O33 Sm1 2.454953 1_545
O34 Sm2 2.454953 1_565
O35 Sm3 2.454953 1_565
O36 Sm0 2.452737 1_555
O37 Sm1 2.452737 1_555
O38 Sm2 2.452737 1_555
O39 Sm3 2.452737 1_555
