# generated using pymatgen
data_Li3Mn(PO4)2
_symmetry_space_group_name_H-M   'P 1'
_cell_length_a   8.45065301
_cell_length_b   8.45065301
_cell_length_c   8.45065242
_cell_angle_alpha   64.26556293
_cell_angle_beta   64.26556293
_cell_angle_gamma   64.26556130
_symmetry_Int_Tables_number   1
_chemical_formula_structural   Li3Mn(PO4)2
_chemical_formula_sum   'Li9 Mn3 P6 O24'
_cell_volume   466.73280916
_cell_formula_units_Z   3
loop_
 _symmetry_equiv_pos_site_id
 _symmetry_equiv_pos_as_xyz
  1  'x, y, z'
loop_
 _atom_site_type_symbol
 _atom_site_label
 _atom_site_symmetry_multiplicity
 _atom_site_fract_x
 _atom_site_fract_y
 _atom_site_fract_z
 _atom_site_occupancy
  Li  Li0  1  0.82681500  0.29807300  0.64495800  1
  Li  Li1  1  0.74694200  0.34644300  0.14979000  1
  Li  Li2  1  0.34644300  0.14979000  0.74694200  1
  Li  Li3  1  0.99741900  0.99741900  0.99741900  1
  Li  Li4  1  0.50877000  0.50877000  0.50877000  1
  Li  Li5  1  0.65090600  0.65090600  0.65090600  1
  Li  Li6  1  0.64495800  0.82681500  0.29807300  1
  Li  Li7  1  0.29807300  0.64495800  0.82681500  1
  Li  Li8  1  0.14979000  0.74694200  0.34644300  1
  Mn  Mn0  1  0.14480700  0.14480700  0.14480700  1
  Mn  Mn1  1  0.35557400  0.35557400  0.35557400  1
  Mn  Mn2  1  0.85385600  0.85385600  0.85385600  1
  P  P0  1  0.74756100  0.05150500  0.44613700  1
  P  P1  1  0.94998500  0.54916000  0.24807000  1
  P  P2  1  0.54916000  0.24807000  0.94998500  1
  P  P3  1  0.44613700  0.74756100  0.05150500  1
  P  P4  1  0.05150500  0.44613700  0.74756100  1
  P  P5  1  0.24807000  0.94998500  0.54916000  1
  O  O0  1  0.90487600  0.07351600  0.25285000  1
  O  O1  1  0.74125700  0.09849800  0.92889700  1
  O  O2  1  0.89563500  0.47070900  0.68787800  1
  O  O3  1  0.02314100  0.60806400  0.80562200  1
  O  O4  1  0.59917400  0.24714900  0.42473400  1
  O  O5  1  0.39009200  0.17642200  0.99079300  1
  O  O6  1  0.30688100  0.11263200  0.52185500  1
  O  O7  1  0.76522700  0.55386800  0.40345800  1
  O  O8  1  0.92889700  0.74125700  0.09849800  1
  O  O9  1  0.17642200  0.99079300  0.39009200  1
  O  O10  1  0.52185500  0.30688100  0.11263200  1
  O  O11  1  0.55386800  0.40345800  0.76522700  1
  O  O12  1  0.42473400  0.59917400  0.24714900  1
  O  O13  1  0.47070900  0.68787800  0.89563500  1
  O  O14  1  0.80562200  0.02314100  0.60806400  1
  O  O15  1  0.24714900  0.42473400  0.59917400  1
  O  O16  1  0.07351600  0.25285000  0.90487600  1
  O  O17  1  0.60806400  0.80562200  0.02314100  1
  O  O18  1  0.68787800  0.89563500  0.47070900  1
  O  O19  1  0.40345800  0.76522700  0.55386800  1
  O  O20  1  0.99079300  0.39009200  0.17642200  1
  O  O21  1  0.11263200  0.52185500  0.30688100  1
  O  O22  1  0.25285000  0.90487600  0.07351600  1
  O  O23  1  0.09849800  0.92889700  0.74125700  1
loop_
_geom_bond_atom_site_label_1
_geom_bond_atom_site_label_2
_geom_bond_distance
_geom_bond_site_symmetry_2
Li0 O2 1.994395 1_555
Li0 O11 2.028000 1_555
Li0 O1 2.272169 1_555
Li0 O7 2.285379 1_555
Li0 O14 2.562447 1_555
Li1 O4 2.087868 1_555
Li1 O0 2.109790 1_555
Li1 O10 2.233959 1_555
Li1 O20 2.359685 1_555
Li2 O15 2.087868 1_555
Li2 O16 2.109790 1_555
Li2 O6 2.233959 1_555
Li2 O5 2.359685 1_555
Li3 O23 2.191868 1_655
Li3 O1 2.191868 1_565
Li3 O8 2.191869 1_556
Li3 O0 2.233219 1_566
Li3 O22 2.233219 1_656
Li3 O16 2.233219 1_665
Li4 O11 2.093310 1_555
Li4 O19 2.093310 1_555
Li4 O7 2.093310 1_555
Li4 O12 2.324103 1_555
Li4 O4 2.324103 1_555
Li4 O15 2.324103 1_555
Li5 O13 2.026502 1_555
Li5 O2 2.026502 1_555
Li5 O18 2.026502 1_555
Li5 O7 2.241714 1_555
Li5 O19 2.241714 1_555
Li5 O11 2.241714 1_555
Li6 O18 1.994395 1_555
Li6 O7 2.028000 1_555
Li6 O8 2.272169 1_555
Li6 O19 2.285380 1_555
Li6 O17 2.562447 1_555
Li7 O13 1.994395 1_555
Li7 O19 2.028000 1_555
Li7 O23 2.272169 1_555
Li7 O11 2.285380 1_555
Li7 O3 2.562447 1_555
Li8 O12 2.087868 1_555
Li8 O22 2.109790 1_555
Li8 O21 2.233959 1_555
Li8 O9 2.359685 1_555
Mn0 O9 1.974353 1_545
Mn0 O20 1.974353 1_455
Mn0 O5 1.974353 1_554
Mn0 O16 2.069568 1_554
Mn0 O22 2.069568 1_545
Mn0 O0 2.069568 1_455
Mn1 O10 2.021143 1_555
Mn1 O21 2.021143 1_555
Mn1 O6 2.021143 1_555
Mn1 O15 2.088217 1_555
Mn1 O4 2.088217 1_555
Mn1 O12 2.088217 1_555
Mn2 O14 2.043399 1_565
Mn2 O3 2.043399 1_655
Mn2 O17 2.043399 1_556
Mn2 O8 2.118447 1_556
Mn2 O1 2.118447 1_565
Mn2 O23 2.118447 1_655
O0 P0 1.592210 1_555
O1 P2 1.557944 1_555
O2 P4 1.510288 1_655
O3 P4 1.538431 1_555
O4 P0 1.573376 1_555
O5 P2 1.554148 1_555
O6 P5 1.551652 1_545
O7 P1 1.540987 1_555
O8 P1 1.557944 1_555
O9 P5 1.554148 1_555
O10 P2 1.551652 1_554
O11 P2 1.540987 1_555
O12 P3 1.573376 1_555
O13 P3 1.510288 1_556
O14 P0 1.538431 1_555
O15 P4 1.573376 1_555
O16 P4 1.592210 1_555
O17 P3 1.538431 1_555
O18 P0 1.510288 1_565
O19 P5 1.540987 1_555
O20 P1 1.554148 1_555
O21 P1 1.551652 1_455
O22 P3 1.592210 1_555
O23 P5 1.557944 1_555
