# generated using pymatgen
data_Li24Ti7Cr5O36
_symmetry_space_group_name_H-M   'P 1'
_cell_length_a   5.08396500
_cell_length_b   9.80677927
_cell_length_c   13.38236533
_cell_angle_alpha   97.04844510
_cell_angle_beta   100.71444673
_cell_angle_gamma   95.05397507
_symmetry_Int_Tables_number   1
_chemical_formula_structural   Li24Ti7Cr5O36
_chemical_formula_sum   'Li24 Ti7 Cr5 O36'
_cell_volume   646.40059991
_cell_formula_units_Z   1
loop_
 _symmetry_equiv_pos_site_id
 _symmetry_equiv_pos_as_xyz
  1  'x, y, z'
loop_
 _atom_site_type_symbol
 _atom_site_label
 _atom_site_symmetry_multiplicity
 _atom_site_fract_x
 _atom_site_fract_y
 _atom_site_fract_z
 _atom_site_occupancy
  Li  Li0  1  0.16128400  0.00013500  0.83497600  1
  Li  Li1  1  0.05056200  0.00081700  0.61146900  1
  Li  Li2  1  0.00018700  0.74989700  0.25031400  1
  Li  Li3  1  0.33284200  0.75001000  0.91569200  1
  Li  Li4  1  0.04847000  0.50012800  0.11277000  1
  Li  Li5  1  0.38190300  0.49737900  0.77933200  1
  Li  Li6  1  0.16328500  0.50072300  0.33480300  1
  Li  Li7  1  0.50049000  0.49954900  0.00007800  1
  Li  Li8  1  0.28859000  0.49993800  0.55232400  1
  Li  Li9  1  0.33297700  0.24985800  0.41641800  1
  Li  Li10  1  0.49317900  0.00063700  0.50219900  1
  Li  Li11  1  0.28697700  0.00111100  0.05358800  1
  Li  Li12  1  0.61955500  0.00160500  0.72056000  1
  Li  Li13  1  0.38608300  0.00184900  0.28043400  1
  Li  Li14  1  0.70979400  0.99804700  0.94454200  1
  Li  Li15  1  0.66616300  0.75012200  0.58221200  1
  Li  Li16  1  0.71781500  0.50005300  0.44709800  1
  Li  Li17  1  0.82860200  0.49830600  0.66857600  1
  Li  Li18  1  0.61350900  0.49820000  0.21844900  1
  Li  Li19  1  0.95592700  0.50143900  0.88673800  1
  Li  Li20  1  0.66719700  0.24974800  0.08442600  1
  Li  Li21  1  0.83769900  0.00044400  0.16586600  1
  Li  Li22  1  0.99874100  0.25019200  0.74936000  1
  Li  Li23  1  0.94949700  0.99805300  0.38689700  1
  Ti  Ti0  1  0.11137900  0.24970200  0.97491300  1
  Ti  Ti1  1  0.22254800  0.75033000  0.69600300  1
  Ti  Ti2  1  0.55920400  0.25172800  0.86072300  1
  Ti  Ti3  1  0.44439500  0.75016000  0.13990700  1
  Ti  Ti4  1  0.55751100  0.75018500  0.36449900  1
  Ti  Ti5  1  0.88899000  0.24776300  0.52469700  1
  Ti  Ti6  1  0.89066300  0.75084000  0.02586800  1
  Cr  Cr0  1  0.10940000  0.74937700  0.47233600  1
  Cr  Cr1  1  0.22569800  0.25069800  0.19878300  1
  Cr  Cr2  1  0.43995000  0.25048900  0.63872600  1
  Cr  Cr3  1  0.77394000  0.74915600  0.80312200  1
  Cr  Cr4  1  0.77524900  0.24963100  0.30208500  1
  O  O0  1  0.00054100  0.86197000  0.92628100  1
  O  O1  1  0.07230200  0.63321100  0.78405900  1
  O  O2  1  0.99762500  0.36266200  0.42663400  1
  O  O3  1  0.15269300  0.36247500  0.64302200  1
  O  O4  1  0.26454300  0.36579800  0.88232200  1
  O  O5  1  0.33236000  0.86138200  0.59358100  1
  O  O6  1  0.07673200  0.13585000  0.28328800  1
  O  O7  1  0.18744500  0.13669100  0.52122000  1
  O  O8  1  0.40232600  0.13390900  0.95169000  1
  O  O9  1  0.14376400  0.86393500  0.14309100  1
  O  O10  1  0.25879300  0.86413300  0.38384100  1
  O  O11  1  0.47283200  0.86407600  0.80913800  1
  O  O12  1  0.32982500  0.13781300  0.73434600  1
  O  O13  1  0.19008700  0.63674800  0.02288400  1
  O  O14  1  0.40728400  0.63313600  0.45305200  1
  O  O15  1  0.53089800  0.63819000  0.69159400  1
  O  O16  1  0.33260300  0.63635900  0.23855400  1
  O  O17  1  0.66491800  0.63844700  0.90187600  1
  O  O18  1  0.33539900  0.36210200  0.09822900  1
  O  O19  1  0.67154500  0.36273100  0.76231500  1
  O  O20  1  0.46882000  0.36204100  0.30798300  1
  O  O21  1  0.59475500  0.36444700  0.54840300  1
  O  O22  1  0.80972800  0.36402600  0.97723000  1
  O  O23  1  0.66888500  0.86384500  0.26324100  1
  O  O24  1  0.53245200  0.13826400  0.19271000  1
  O  O25  1  0.73208000  0.13649300  0.61847500  1
  O  O26  1  0.85654100  0.13662100  0.85713500  1
  O  O27  1  0.59775400  0.86627600  0.04820600  1
  O  O28  1  0.80745000  0.86369600  0.47834400  1
  O  O29  1  0.92517400  0.86470600  0.71681100  1
  O  O30  1  0.66617600  0.13720200  0.40198500  1
  O  O31  1  0.73625200  0.63407200  0.11780000  1
  O  O32  1  0.86369500  0.63819500  0.35898600  1
  O  O33  1  0.99987500  0.63759900  0.56926500  1
  O  O34  1  0.92413300  0.36420900  0.21746300  1
  O  O35  1  0.00145800  0.13839400  0.07416300  1
loop_
_geom_bond_atom_site_label_1
_geom_bond_atom_site_label_2
_geom_bond_distance
_geom_bond_site_symmetry_2
Li0 O8 2.040718 1_555
Li0 O29 2.050194 1_445
Li0 O0 2.139911 1_545
Li0 O26 2.172236 1_455
Li0 O11 2.207130 1_545
Li0 O12 2.245472 1_555
Li1 O7 2.064593 1_555
Li1 O5 2.090919 1_545
Li1 O12 2.185946 1_555
Li1 O25 2.192303 1_455
Li1 O28 2.193223 1_445
Li1 O29 2.195778 1_445
Li2 O32 2.104457 1_455
Li2 O9 2.117047 1_555
Li2 O16 2.123209 1_555
Li2 O23 2.123235 1_455
Li2 O10 2.133610 1_555
Li2 O31 2.141923 1_455
Li3 O11 2.102307 1_555
Li3 O13 2.110524 1_556
Li3 O0 2.111244 1_555
Li3 O17 2.115010 1_555
Li3 O1 2.130609 1_555
Li3 O27 2.145660 1_556
Li4 O13 2.075563 1_555
Li4 O18 2.094465 1_555
Li4 O31 2.152880 1_455
Li4 O34 2.185945 1_455
Li4 O22 2.201485 1_454
Li4 O16 2.215608 1_555
Li5 O19 2.087415 1_555
Li5 O15 2.098477 1_555
Li5 O4 2.127734 1_555
Li5 O1 2.154450 1_555
Li5 O3 2.186647 1_555
Li5 O17 2.211024 1_555
Li6 O14 2.052110 1_555
Li6 O34 2.055174 1_455
Li6 O2 2.155219 1_455
Li6 O32 2.163354 1_455
Li6 O16 2.190968 1_555
Li6 O20 2.202505 1_555
Li7 O4 2.038463 1_554
Li7 O31 2.041606 1_555
Li7 O22 2.186016 1_554
Li7 O13 2.201407 1_555
Li7 O18 2.211714 1_555
Li7 O17 2.220017 1_554
Li8 O3 2.077761 1_555
Li8 O14 2.102472 1_555
Li8 O33 2.103845 1_455
Li8 O21 2.137457 1_555
Li8 O2 2.235624 1_455
Li8 O15 2.249723 1_555
Li9 O7 2.090274 1_555
Li9 O20 2.103236 1_555
Li9 O6 2.124330 1_555
Li9 O30 2.127542 1_555
Li9 O21 2.128163 1_555
Li9 O2 2.128630 1_455
Li10 O25 2.043254 1_555
Li10 O10 2.053661 1_545
Li10 O5 2.147990 1_545
Li10 O7 2.165676 1_555
Li10 O28 2.218264 1_545
Li10 O30 2.244449 1_555
Li11 O9 2.078844 1_545
Li11 O35 2.096987 1_555
Li11 O8 2.120864 1_554
Li11 O27 2.153375 1_545
Li11 O0 2.245423 1_544
Li11 O24 2.249124 1_555
Li12 O11 2.079536 1_545
Li12 O12 2.091693 1_555
Li12 O25 2.131717 1_555
Li12 O29 2.144543 1_545
Li12 O26 2.202609 1_555
Li12 O5 2.249586 1_545
Li13 O24 2.063116 1_555
Li13 O23 2.083534 1_545
Li13 O6 2.139158 1_555
Li13 O30 2.170582 1_555
Li13 O10 2.189846 1_545
Li13 O9 2.231481 1_545
Li14 O26 2.075471 1_565
Li14 O0 2.104112 1_655
Li14 O27 2.126727 1_556
Li14 O8 2.149205 1_565
Li14 O11 2.187710 1_555
Li14 O35 2.280380 1_666
Li15 O28 2.073362 1_555
Li15 O14 2.106521 1_555
Li15 O15 2.110958 1_555
Li15 O5 2.115445 1_555
Li15 O33 2.125634 1_555
Li15 O29 2.145181 1_555
Li16 O2 2.075094 1_555
Li16 O32 2.077475 1_555
Li16 O14 2.141573 1_555
Li16 O21 2.146883 1_555
Li16 O33 2.189730 1_555
Li16 O20 2.259126 1_555
Li17 O1 2.042342 1_655
Li17 O21 2.054014 1_555
Li17 O19 2.138605 1_555
Li17 O15 2.168628 1_555
Li17 O33 2.248722 1_555
Li17 O3 2.256227 1_655
Li18 O20 2.075333 1_555
Li18 O16 2.083739 1_555
Li18 O31 2.141390 1_555
Li18 O34 2.142382 1_555
Li18 O18 2.159526 1_555
Li18 O32 2.282315 1_555
Li19 O22 2.096102 1_555
Li19 O17 2.104770 1_555
Li19 O1 2.124019 1_655
Li19 O4 2.148853 1_655
Li19 O13 2.195306 1_656
Li19 O19 2.217126 1_555
Li20 O24 2.095334 1_555
Li20 O35 2.115699 1_655
Li20 O22 2.115875 1_554
Li20 O18 2.118251 1_555
Li20 O34 2.126600 1_555
Li20 O8 2.145923 1_554
Li21 O27 2.047715 1_545
Li21 O6 2.050097 1_655
Li21 O35 2.149011 1_655
Li21 O9 2.179329 1_645
Li21 O24 2.195850 1_555
Li21 O23 2.207008 1_545
Li22 O19 2.097355 1_555
Li22 O26 2.117396 1_555
Li22 O12 2.118115 1_655
Li22 O3 2.120622 1_655
Li22 O25 2.126157 1_555
Li22 O4 2.149053 1_655
Li23 O28 2.076519 1_555
Li23 O30 2.089133 1_565
Li23 O10 2.138615 1_655
Li23 O23 2.182373 1_555
Li23 O6 2.192338 1_665
Li23 O7 2.201138 1_665
Cr0 O32 1.923476 1_455
Cr0 O33 1.924634 1_455
Cr0 O10 1.938243 1_555
Cr0 O5 1.945098 1_555
Cr0 O28 1.986672 1_455
Cr0 O14 2.009198 1_555
Cr1 O20 1.885358 1_555
Cr1 O6 1.897821 1_555
Cr1 O18 1.961609 1_555
Cr1 O35 1.978626 1_555
Cr1 O24 1.995643 1_555
Cr1 O34 2.006763 1_455
Cr2 O3 1.908004 1_555
Cr2 O12 1.917365 1_555
Cr2 O21 1.964603 1_555
Cr2 O25 1.974034 1_555
Cr2 O7 1.983048 1_555
Cr2 O19 1.983469 1_555
Cr3 O15 1.901928 1_555
Cr3 O29 1.925434 1_555
Cr3 O17 1.936735 1_555
Cr3 O0 1.972190 1_655
Cr3 O11 1.986842 1_555
Cr3 O1 2.008831 1_655
Cr4 O24 1.886063 1_555
Cr4 O34 1.897124 1_555
Cr4 O30 1.959624 1_555
Cr4 O2 1.977389 1_555
Cr4 O20 1.993838 1_555
Cr4 O6 2.008334 1_655
O0 Ti6 1.949845 1_456
O1 Ti1 1.950269 1_555
O2 Ti5 1.954381 1_555
O3 Ti5 2.019409 1_455
O4 Ti2 1.988968 1_555
O4 Ti0 1.996673 1_555
O5 Ti1 1.979938 1_555
O7 Ti5 1.948324 1_455
O8 Ti0 1.988531 1_555
O8 Ti2 1.999227 1_555
O9 Ti3 1.973767 1_555
O9 Ti6 1.979325 1_455
O10 Ti4 1.999067 1_555
O11 Ti1 1.942873 1_555
O12 Ti2 2.010377 1_555
O13 Ti6 1.970401 1_455
O13 Ti3 1.981769 1_555
O14 Ti4 1.954783 1_555
O15 Ti1 1.998150 1_555
O16 Ti3 1.959608 1_555
O16 Ti4 1.997748 1_555
O17 Ti6 1.976240 1_556
O18 Ti0 1.966986 1_554
O19 Ti2 1.940998 1_555
O21 Ti5 2.009144 1_555
O22 Ti2 1.964441 1_555
O22 Ti0 1.980379 1_655
O23 Ti3 1.973191 1_555
O23 Ti4 1.985956 1_555
O25 Ti5 1.989220 1_555
O26 Ti2 1.968751 1_555
O26 Ti0 1.987761 1_655
O27 Ti3 1.988172 1_555
O27 Ti6 1.991967 1_555
O28 Ti4 1.946699 1_555
O29 Ti1 1.999994 1_655
O30 Ti5 1.952043 1_555
O31 Ti3 1.990832 1_555
O31 Ti6 1.996892 1_555
O32 Ti4 1.989658 1_555
O33 Ti1 1.996437 1_655
O35 Ti0 1.947374 1_554
