# generated using pymatgen
data_Li2Mn2(CO3)3
_symmetry_space_group_name_H-M   'P 1'
_cell_length_a   6.17627466
_cell_length_b   7.86876646
_cell_length_c   7.86876855
_cell_angle_alpha   76.56361298
_cell_angle_beta   106.53931324
_cell_angle_gamma   106.53960778
_symmetry_Int_Tables_number   1
_chemical_formula_structural   Li2Mn2(CO3)3
_chemical_formula_sum   'Li4 Mn4 C6 O18'
_cell_volume   346.63067506
_cell_formula_units_Z   2
loop_
 _symmetry_equiv_pos_site_id
 _symmetry_equiv_pos_as_xyz
  1  'x, y, z'
loop_
 _atom_site_type_symbol
 _atom_site_label
 _atom_site_symmetry_multiplicity
 _atom_site_fract_x
 _atom_site_fract_y
 _atom_site_fract_z
 _atom_site_occupancy
  Li  Li0  1  0.84388200  0.42194600  0.42194000  1
  Li  Li1  1  0.84388900  0.92194700  0.92195600  1
  Li  Li2  1  0.57814600  0.03907400  0.53907600  1
  Li  Li3  1  0.57819800  0.53908600  0.03908000  1
  Mn  Mn0  1  0.18673200  0.62845200  0.12844400  1
  Mn  Mn1  1  0.75690100  0.34331900  0.84332900  1
  Mn  Mn2  1  0.18655100  0.12842400  0.62842600  1
  Mn  Mn3  1  0.75707100  0.84337300  0.34337400  1
  C  C0  1  0.20497600  0.85241800  0.35241900  1
  C  C1  1  0.20490800  0.35243100  0.85242800  1
  C  C2  1  0.42270200  0.41304500  0.41306500  1
  C  C3  1  0.42269200  0.91306300  0.91304400  1
  C  C4  1  0.82623200  0.21145000  0.21146700  1
  C  C5  1  0.82622900  0.71146600  0.71144900  1
  O  O0  1  0.01553100  0.75771100  0.25771200  1
  O  O1  1  0.01547900  0.25772000  0.75771800  1
  O  O2  1  0.22093100  0.42114600  0.42117300  1
  O  O3  1  0.22092200  0.92117500  0.92114600  1
  O  O4  1  0.84230000  0.11052300  0.11057700  1
  O  O5  1  0.84230300  0.61057900  0.61052300  1
  O  O6  1  0.18297000  0.95166400  0.45166100  1
  O  O7  1  0.18294800  0.45168300  0.95168600  1
  O  O8  1  0.40353300  0.84144900  0.34144800  1
  O  O9  1  0.40343800  0.34143300  0.84143200  1
  O  O10  1  0.52421700  0.29229100  0.52354300  1
  O  O11  1  0.52419900  0.79228700  0.02351200  1
  O  O12  1  0.81594600  0.14656900  0.37784100  1
  O  O13  1  0.81589700  0.64656500  0.87781100  1
  O  O14  1  0.52421400  0.02354000  0.79229400  1
  O  O15  1  0.52421300  0.52351300  0.29229200  1
  O  O16  1  0.81594500  0.87784300  0.64657100  1
  O  O17  1  0.81590100  0.37781100  0.14656100  1
loop_
_geom_bond_atom_site_label_1
_geom_bond_atom_site_label_2
_geom_bond_distance
_geom_bond_site_symmetry_2
Li0 O12 2.224415 1_555
Li0 O17 2.224466 1_555
Li0 O15 2.224930 1_555
Li0 O10 2.225051 1_555
Li0 O2 2.332286 1_655
Li0 O5 2.333531 1_555
Li1 O16 2.224481 1_555
Li1 O13 2.224500 1_555
Li1 O11 2.225001 1_556
Li1 O14 2.225079 1_565
Li1 O3 2.332221 1_655
Li1 O4 2.333437 1_566
Li2 O16 2.082555 1_545
Li2 O12 2.082575 1_555
Li2 O10 2.082658 1_555
Li2 O14 2.082671 1_555
Li2 O6 2.282878 1_545
Li2 O8 2.283362 1_545
Li3 O13 2.082283 1_554
Li3 O17 2.082344 1_555
Li3 O11 2.082656 1_555
Li3 O15 2.082696 1_555
Li3 O7 2.283273 1_554
Li3 O9 2.283705 1_554
Mn0 O7 2.175289 1_554
Mn0 O0 2.211949 1_555
Mn0 O11 2.375556 1_555
Mn0 O15 2.375684 1_555
Mn0 O8 2.482181 1_555
Mn0 O3 2.486752 1_554
Mn0 O2 2.486819 1_555
Mn0 O13 2.576644 1_454
Mn0 O17 2.576653 1_455
Mn1 O9 2.174720 1_555
Mn1 O1 2.212220 1_655
Mn1 O17 2.376838 1_556
Mn1 O13 2.376924 1_555
Mn1 O7 2.482184 1_655
Mn1 O4 2.486842 1_556
Mn1 O5 2.486946 1_555
Mn1 O14 2.576884 1_555
Mn1 O10 2.576921 1_555
Mn2 O6 2.175720 1_545
Mn2 O1 2.211697 1_555
Mn2 O14 2.376437 1_555
Mn2 O10 2.376438 1_555
Mn2 O9 2.482338 1_555
Mn2 O3 2.486566 1_545
Mn2 O2 2.486591 1_555
Mn2 O16 2.575492 1_445
Mn2 O12 2.575513 1_455
Mn3 O8 2.175037 1_555
Mn3 O0 2.212089 1_655
Mn3 O12 2.376624 1_565
Mn3 O16 2.376642 1_555
Mn3 O6 2.481257 1_655
Mn3 O5 2.486167 1_555
Mn3 O4 2.486179 1_565
Mn3 O15 2.577760 1_555
Mn3 O11 2.577807 1_555
C0 O6 1.281580 1_555
C0 O8 1.281726 1_555
C0 O0 1.320971 1_555
C1 O7 1.281587 1_555
C1 O9 1.281711 1_555
C1 O1 1.320940 1_555
C2 O2 1.285892 1_555
C2 O10 1.302567 1_555
C2 O15 1.302629 1_555
C3 O3 1.285899 1_555
C3 O14 1.302559 1_565
C3 O11 1.302637 1_556
C4 O4 1.285898 1_555
C4 O17 1.302628 1_555
C4 O12 1.302632 1_555
C5 O5 1.285889 1_555
C5 O13 1.302631 1_555
C5 O16 1.302648 1_555
