# generated using pymatgen
data_Li3SbS4
_symmetry_space_group_name_H-M   'P 1'
_cell_length_a   7.20251700
_cell_length_b   9.24964800
_cell_length_c   10.06611200
_cell_angle_alpha   90.00000000
_cell_angle_beta   90.00000000
_cell_angle_gamma   90.00000000
_symmetry_Int_Tables_number   1
_chemical_formula_structural   Li3SbS4
_chemical_formula_sum   'Li12 Sb4 S16'
_cell_volume   670.61190046
_cell_formula_units_Z   4
loop_
 _symmetry_equiv_pos_site_id
 _symmetry_equiv_pos_as_xyz
  1  'x, y, z'
loop_
 _atom_site_type_symbol
 _atom_site_label
 _atom_site_symmetry_multiplicity
 _atom_site_fract_x
 _atom_site_fract_y
 _atom_site_fract_z
 _atom_site_occupancy
  Li  Li0  1  0.26394500  0.04830200  0.24521500  1
  Li  Li1  1  0.26394500  0.45169800  0.24521500  1
  Li  Li2  1  0.01213300  0.75000000  0.09578500  1
  Li  Li3  1  0.48786700  0.25000000  0.59578500  1
  Li  Li4  1  0.23605500  0.54830200  0.74521500  1
  Li  Li5  1  0.23605500  0.95169800  0.74521500  1
  Li  Li6  1  0.76394500  0.04830200  0.25478500  1
  Li  Li7  1  0.76394500  0.45169800  0.25478500  1
  Li  Li8  1  0.51213300  0.75000000  0.40421500  1
  Li  Li9  1  0.98786700  0.25000000  0.90421500  1
  Li  Li10  1  0.73605500  0.54830200  0.75478500  1
  Li  Li11  1  0.73605500  0.95169800  0.75478500  1
  Sb  Sb0  1  0.07456600  0.75000000  0.49354400  1
  Sb  Sb1  1  0.42543400  0.25000000  0.99354400  1
  Sb  Sb2  1  0.57456600  0.75000000  0.00645600  1
  Sb  Sb3  1  0.92543400  0.25000000  0.50645600  1
  S  S0  1  0.85225800  0.75000000  0.31934300  1
  S  S1  1  0.21530900  0.05292200  0.98022300  1
  S  S2  1  0.21530900  0.44707800  0.98022300  1
  S  S3  1  0.98169600  0.75000000  0.72020800  1
  S  S4  1  0.51830400  0.25000000  0.22020800  1
  S  S5  1  0.28469100  0.55292200  0.48022300  1
  S  S6  1  0.28469100  0.94707800  0.48022300  1
  S  S7  1  0.64774200  0.25000000  0.81934300  1
  S  S8  1  0.35225800  0.75000000  0.18065700  1
  S  S9  1  0.71530900  0.05292200  0.51977700  1
  S  S10  1  0.71530900  0.44707800  0.51977700  1
  S  S11  1  0.48169600  0.75000000  0.77979200  1
  S  S12  1  0.01830400  0.25000000  0.27979200  1
  S  S13  1  0.78469100  0.94707800  0.01977700  1
  S  S14  1  0.78469100  0.55292200  0.01977700  1
  S  S15  1  0.14774200  0.25000000  0.68065700  1
loop_
_geom_bond_atom_site_label_1
_geom_bond_atom_site_label_2
_geom_bond_distance
_geom_bond_site_symmetry_2
Li0 S6 2.548549 1_545
Li0 S12 2.594596 1_555
Li0 S4 2.626838 1_555
Li0 S1 2.690682 1_554
Li0 S8 2.905171 1_545
Li1 S5 2.548549 1_555
Li1 S12 2.594596 1_555
Li1 S4 2.626838 1_555
Li1 S2 2.690682 1_554
Li1 S8 2.905171 1_555
Li2 S0 2.527860 1_455
Li2 S13 2.567471 1_455
Li2 S14 2.567471 1_455
Li2 S8 2.594453 1_555
Li3 S7 2.527860 1_555
Li3 S9 2.567471 1_555
Li3 S10 2.567471 1_555
Li3 S15 2.594453 1_555
Li4 S2 2.548549 1_555
Li4 S11 2.594596 1_555
Li4 S3 2.626838 1_455
Li4 S5 2.690682 1_555
Li4 S15 2.905171 1_555
Li5 S1 2.548549 1_565
Li5 S11 2.594596 1_555
Li5 S3 2.626838 1_455
Li5 S6 2.690682 1_555
Li5 S15 2.905171 1_565
Li6 S13 2.548549 1_545
Li6 S4 2.594596 1_555
Li6 S12 2.626838 1_655
Li6 S9 2.690682 1_555
Li6 S0 2.905171 1_545
Li7 S14 2.548549 1_555
Li7 S4 2.594596 1_555
Li7 S12 2.626838 1_655
Li7 S10 2.690682 1_555
Li7 S0 2.905171 1_555
Li8 S8 2.527860 1_555
Li8 S5 2.567471 1_555
Li8 S6 2.567471 1_555
Li8 S0 2.594453 1_555
Li9 S15 2.527860 1_655
Li9 S2 2.567471 1_655
Li9 S1 2.567471 1_655
Li9 S7 2.594453 1_555
Li10 S10 2.548549 1_555
Li10 S3 2.594596 1_555
Li10 S11 2.626838 1_555
Li10 S14 2.690682 1_556
Li10 S7 2.905171 1_555
Li11 S9 2.548549 1_565
Li11 S3 2.594596 1_555
Li11 S11 2.626838 1_555
Li11 S13 2.690682 1_556
Li11 S7 2.905171 1_565
S0 Sb0 2.374579 1_655
S1 Sb1 2.373061 1_555
S2 Sb1 2.373061 1_555
S3 Sb0 2.377654 1_655
S4 Sb1 2.377654 1_554
S5 Sb0 2.373061 1_555
S6 Sb0 2.373061 1_555
S7 Sb1 2.374579 1_555
S8 Sb2 2.374579 1_555
S9 Sb3 2.373061 1_555
S10 Sb3 2.373061 1_555
S11 Sb2 2.377654 1_556
S12 Sb3 2.377654 1_455
S13 Sb2 2.373061 1_555
S14 Sb2 2.373061 1_555
S15 Sb3 2.374579 1_455
