# generated using pymatgen
data_Li8Fe7Co(PO4)12
_symmetry_space_group_name_H-M   'P 1'
_cell_length_a   8.66337500
_cell_length_b   8.79268757
_cell_length_c   12.22460197
_cell_angle_alpha   89.96818758
_cell_angle_beta   89.99316646
_cell_angle_gamma   89.94156182
_symmetry_Int_Tables_number   1
_chemical_formula_structural   Li8Fe7Co(PO4)12
_chemical_formula_sum   'Li8 Fe7 Co1 P12 O48'
_cell_volume   931.20047107
_cell_formula_units_Z   1
loop_
 _symmetry_equiv_pos_site_id
 _symmetry_equiv_pos_as_xyz
  1  'x, y, z'
loop_
 _atom_site_type_symbol
 _atom_site_label
 _atom_site_symmetry_multiplicity
 _atom_site_fract_x
 _atom_site_fract_y
 _atom_site_fract_z
 _atom_site_occupancy
  Li  Li0  1  0.78277000  0.27785500  0.18126600  1
  Li  Li1  1  0.78262900  0.22236300  0.81866900  1
  Li  Li2  1  0.71778700  0.77784900  0.31907200  1
  Li  Li3  1  0.71695500  0.72222500  0.68121300  1
  Li  Li4  1  0.28309500  0.27770300  0.31879900  1
  Li  Li5  1  0.28271500  0.22283800  0.68131400  1
  Li  Li6  1  0.21691800  0.77795700  0.18115200  1
  Li  Li7  1  0.21733400  0.72183700  0.81842200  1
  Fe  Fe0  1  0.75062800  0.04061800  0.61288900  1
  Fe  Fe1  1  0.75131200  0.45853800  0.38724800  1
  Fe  Fe2  1  0.74913800  0.95894300  0.11282600  1
  Fe  Fe3  1  0.74926500  0.54108100  0.88723300  1
  Fe  Fe4  1  0.25054300  0.45915100  0.11233800  1
  Fe  Fe5  1  0.25089500  0.04057100  0.88733600  1
  Fe  Fe6  1  0.24954800  0.95905400  0.38721900  1
  Co  Co0  1  0.24792300  0.54148200  0.61157500  1
  P  P0  1  0.96230200  0.74938500  0.49982400  1
  P  P1  1  0.53957400  0.24999200  0.99997700  1
  P  P2  1  0.46017900  0.75001000  0.00014300  1
  P  P3  1  0.03961400  0.25071100  0.49967900  1
  P  P4  1  0.89406000  0.60687100  0.14710600  1
  P  P5  1  0.89390200  0.89315800  0.85286800  1
  P  P6  1  0.60414200  0.39517000  0.64652100  1
  P  P7  1  0.60587600  0.10695500  0.35306200  1
  P  P8  1  0.39413100  0.89262300  0.64628700  1
  P  P9  1  0.39386200  0.60747700  0.35359000  1
  P  P10  1  0.10552600  0.39307400  0.85189200  1
  P  P11  1  0.10596700  0.10700400  0.14711500  1
  O  O0  1  0.94381100  0.35786900  0.42886700  1
  O  O1  1  0.94423000  0.14326600  0.57139000  1
  O  O2  1  0.92707300  0.10457500  0.15592500  1
  O  O3  1  0.92674100  0.39576700  0.84339200  1
  O  O4  1  0.85466700  0.83587500  0.58052700  1
  O  O5  1  0.85358700  0.66120300  0.42146200  1
  O  O6  1  0.84360000  0.56618000  0.03069500  1
  O  O7  1  0.84348100  0.93375800  0.96933900  1
  O  O8  1  0.83761100  0.76767300  0.18013600  1
  O  O9  1  0.83744200  0.73247400  0.81995600  1
  O  O10  1  0.82545700  0.48607500  0.22590400  1
  O  O11  1  0.82539300  0.01436400  0.77405500  1
  O  O12  1  0.67435600  0.98591700  0.27419100  1
  O  O13  1  0.67336300  0.51454700  0.72588300  1
  O  O14  1  0.65958000  0.23323700  0.68002200  1
  O  O15  1  0.66235100  0.26762000  0.32002000  1
  O  O16  1  0.65540600  0.43417200  0.53025500  1
  O  O17  1  0.65682900  0.06595600  0.46959200  1
  O  O18  1  0.64795900  0.16238900  0.07936700  1
  O  O19  1  0.64792800  0.33765000  0.92077000  1
  O  O20  1  0.57281000  0.89463700  0.65598200  1
  O  O21  1  0.57255400  0.60460300  0.34472900  1
  O  O22  1  0.55659500  0.85731400  0.07116900  1
  O  O23  1  0.55655300  0.64257400  0.92886900  1
  O  O24  1  0.44312900  0.35743400  0.07120600  1
  O  O25  1  0.44330700  0.14281700  0.92883600  1
  O  O26  1  0.42439500  0.39784100  0.65538800  1
  O  O27  1  0.42703600  0.10443100  0.34409300  1
  O  O28  1  0.35205000  0.66218200  0.07937900  1
  O  O29  1  0.35198400  0.83763300  0.92059700  1
  O  O30  1  0.34349000  0.93347500  0.53037600  1
  O  O31  1  0.34375300  0.56538500  0.47029100  1
  O  O32  1  0.33724800  0.76762800  0.31994200  1
  O  O33  1  0.33683700  0.73052000  0.67976000  1
  O  O34  1  0.32645400  0.48585600  0.27480300  1
  O  O35  1  0.32535800  0.01278600  0.72570900  1
  O  O36  1  0.17430900  0.98621800  0.22600500  1
  O  O37  1  0.17495200  0.51445900  0.77365200  1
  O  O38  1  0.16261900  0.26790600  0.17993700  1
  O  O39  1  0.16263200  0.23215200  0.81960600  1
  O  O40  1  0.15626300  0.43407900  0.96829500  1
  O  O41  1  0.15668000  0.06635300  0.03070400  1
  O  O42  1  0.14885700  0.33825000  0.58020700  1
  O  O43  1  0.14823500  0.16265300  0.42092200  1
  O  O44  1  0.07294400  0.89563000  0.84406700  1
  O  O45  1  0.07309400  0.60406700  0.15608800  1
  O  O46  1  0.05748400  0.85716700  0.42898400  1
  O  O47  1  0.05892000  0.64088400  0.57202300  1
loop_
_geom_bond_atom_site_label_1
_geom_bond_atom_site_label_2
_geom_bond_distance
_geom_bond_site_symmetry_2
Li0 O10 1.946522 1_555
Li0 O18 1.987625 1_555
Li0 O15 1.993282 1_555
Li0 O2 1.994176 1_555
Li1 O11 1.944003 1_555
Li1 O19 1.986421 1_555
Li1 O3 1.994804 1_555
Li1 O14 2.004566 1_555
Li2 O12 1.946049 1_555
Li2 O8 1.992452 1_555
Li2 O5 1.999800 1_555
Li2 O21 2.001295 1_555
Li3 O13 1.943069 1_555
Li3 O4 1.984350 1_555
Li3 O20 1.987071 1_555
Li3 O9 1.993779 1_555
Li4 O34 1.944312 1_555
Li4 O43 1.986845 1_555
Li4 O27 1.991854 1_555
Li4 O38 1.994787 1_555
Li5 O35 1.959510 1_555
Li5 O42 1.974544 1_555
Li5 O39 1.986593 1_555
Li5 O26 1.994489 1_555
Li6 O36 1.946739 1_555
Li6 O28 1.988292 1_555
Li6 O32 1.993406 1_555
Li6 O45 1.997152 1_555
Li7 O37 1.939508 1_555
Li7 O33 1.987610 1_555
Li7 O29 1.990409 1_555
Li7 O44 1.998674 1_555
Fe0 O17 1.943744 1_555
Fe0 O1 1.971673 1_555
Fe0 O14 2.040284 1_555
Fe0 O4 2.051138 1_545
Fe0 O20 2.073956 1_545
Fe0 O11 2.086617 1_555
Fe1 O16 1.947321 1_555
Fe1 O0 1.954541 1_555
Fe1 O15 2.022793 1_555
Fe1 O5 2.034593 1_555
Fe1 O21 2.076851 1_555
Fe1 O10 2.088288 1_555
Fe2 O7 1.947704 1_554
Fe2 O22 1.960624 1_555
Fe2 O8 2.022104 1_555
Fe2 O18 2.032647 1_565
Fe2 O2 2.073284 1_565
Fe2 O12 2.089766 1_555
Fe3 O6 1.947678 1_556
Fe3 O23 1.959604 1_555
Fe3 O9 2.023093 1_555
Fe3 O19 2.034845 1_555
Fe3 O3 2.068898 1_555
Fe3 O13 2.092481 1_555
Fe4 O40 1.953850 1_554
Fe4 O24 1.957979 1_555
Fe4 O38 2.022785 1_555
Fe4 O28 2.030981 1_555
Fe4 O45 2.066278 1_555
Fe4 O34 2.105529 1_555
Fe5 O41 1.946533 1_556
Fe5 O25 1.961645 1_555
Fe5 O39 2.025782 1_555
Fe5 O29 2.027898 1_545
Fe5 O44 2.070166 1_545
Fe5 O35 2.092758 1_555
Fe6 O30 1.942962 1_555
Fe6 O46 1.958113 1_555
Fe6 O32 2.021245 1_555
Fe6 O43 2.035291 1_565
Fe6 O27 2.068645 1_565
Fe6 O36 2.089342 1_555
Co0 O47 1.917177 1_555
Co0 O31 1.927705 1_555
Co0 O33 2.013750 1_555
Co0 O42 2.020101 1_555
Co0 O26 2.053016 1_555
Co0 O37 2.093142 1_555
O0 P3 1.524347 1_655
O1 P3 1.531130 1_655
O2 P11 1.553718 1_655
O3 P10 1.552531 1_655
O4 P0 1.555739 1_555
O5 P0 1.551910 1_555
O6 P4 1.531436 1_555
O7 P5 1.531530 1_555
O8 P4 1.549333 1_555
O9 P5 1.548981 1_555
O10 P4 1.552175 1_555
O11 P5 1.553703 1_545
O12 P7 1.553681 1_565
O13 P6 1.550858 1_555
O14 P6 1.556816 1_555
O15 P7 1.548845 1_555
O16 P6 1.527931 1_555
O17 P7 1.534066 1_555
O18 P1 1.553962 1_554
O19 P1 1.553454 1_555
O20 P8 1.552627 1_555
O21 P9 1.552029 1_555
O22 P2 1.531161 1_555
O23 P2 1.532238 1_556
O24 P1 1.532292 1_554
O25 P1 1.530555 1_555
O26 P6 1.561125 1_555
O27 P7 1.553428 1_555
O28 P2 1.553240 1_555
O29 P2 1.554247 1_556
O30 P8 1.525960 1_555
O31 P9 1.536319 1_555
O32 P9 1.546175 1_555
O33 P8 1.564001 1_555
O34 P9 1.553959 1_555
O35 P8 1.553597 1_545
O36 P11 1.551208 1_565
O37 P10 1.554262 1_555
O38 P11 1.550972 1_555
O39 P10 1.549750 1_555
O40 P10 1.532682 1_555
O41 P11 1.531675 1_555
O42 P3 1.568368 1_555
O43 P3 1.552763 1_555
O44 P5 1.554995 1_455
O45 P4 1.555103 1_455
O46 P0 1.525954 1_455
O47 P0 1.545115 1_455
