# generated using pymatgen
data_Fe5Sn(PO4)6
_symmetry_space_group_name_H-M   'P 1'
_cell_length_a   8.54737177
_cell_length_b   8.54737177
_cell_length_c   8.54737202
_cell_angle_alpha   61.08858296
_cell_angle_beta   61.08858296
_cell_angle_gamma   61.08858448
_symmetry_Int_Tables_number   1
_chemical_formula_structural   Fe5Sn(PO4)6
_chemical_formula_sum   'Fe5 Sn1 P6 O24'
_cell_volume   452.37341672
_cell_formula_units_Z   1
loop_
 _symmetry_equiv_pos_site_id
 _symmetry_equiv_pos_as_xyz
  1  'x, y, z'
loop_
 _atom_site_type_symbol
 _atom_site_label
 _atom_site_symmetry_multiplicity
 _atom_site_fract_x
 _atom_site_fract_y
 _atom_site_fract_z
 _atom_site_occupancy
  Fe  Fe0  1  0.00421900  0.00421900  0.00421900  1
  Fe  Fe1  1  0.35285400  0.35285400  0.35285400  1
  Fe  Fe2  1  0.49912400  0.49912400  0.49912400  1
  Fe  Fe3  1  0.14457500  0.14457500  0.14457500  1
  Fe  Fe4  1  0.64581700  0.64581700  0.64581700  1
  Sn  Sn0  1  0.85682800  0.85682800  0.85682800  1
  P  P0  1  0.74722200  0.04996900  0.45229500  1
  P  P1  1  0.04996900  0.45229500  0.74722200  1
  P  P2  1  0.45229500  0.74722200  0.04996900  1
  P  P3  1  0.54060500  0.25314600  0.95222200  1
  P  P4  1  0.95222200  0.54060500  0.25314600  1
  P  P5  1  0.25314600  0.95222200  0.54060500  1
  O  O0  1  0.89219800  0.50176900  0.67859800  1
  O  O1  1  0.50176900  0.67859800  0.89219800  1
  O  O2  1  0.67859800  0.89219800  0.50176900  1
  O  O3  1  0.90466900  0.06468300  0.25691500  1
  O  O4  1  0.81574200  0.01622700  0.60592400  1
  O  O5  1  0.58924400  0.24964300  0.43924400  1
  O  O6  1  0.06468300  0.25691500  0.90466900  1
  O  O7  1  0.24964300  0.43924400  0.58924400  1
  O  O8  1  0.38940800  0.18003200  0.99438600  1
  O  O9  1  0.43924400  0.58924400  0.24964300  1
  O  O10  1  0.74221200  0.09666100  0.93768500  1
  O  O11  1  0.99438600  0.38940800  0.18003200  1
  O  O12  1  0.01622700  0.60592400  0.81574200  1
  O  O13  1  0.25691500  0.90466900  0.06468300  1
  O  O14  1  0.55682400  0.40925500  0.75092400  1
  O  O15  1  0.60592400  0.81574200  0.01622700  1
  O  O16  1  0.75092400  0.55682400  0.40925500  1
  O  O17  1  0.93768500  0.74221200  0.09666100  1
  O  O18  1  0.40925500  0.75092400  0.55682400  1
  O  O19  1  0.18003200  0.99438600  0.38940800  1
  O  O20  1  0.09666100  0.93768500  0.74221200  1
  O  O21  1  0.32327400  0.10558400  0.50001200  1
  O  O22  1  0.50001200  0.32327400  0.10558400  1
  O  O23  1  0.10558400  0.50001200  0.32327400  1
loop_
_geom_bond_atom_site_label_1
_geom_bond_atom_site_label_2
_geom_bond_distance
_geom_bond_site_symmetry_2
Fe0 O6 2.129158 1_554
Fe0 O13 2.129158 1_545
Fe0 O3 2.129158 1_455
Fe0 O17 2.246991 1_445
Fe0 O10 2.246991 1_454
Fe0 O20 2.246991 1_544
Fe1 O21 1.936926 1_555
Fe1 O23 1.936926 1_555
Fe1 O22 1.936926 1_555
Fe1 O9 2.120193 1_555
Fe1 O5 2.120193 1_555
Fe1 O7 2.120193 1_555
Fe2 O7 2.118567 1_555
Fe2 O5 2.118567 1_555
Fe2 O9 2.118567 1_555
Fe2 O16 2.127642 1_555
Fe2 O18 2.127642 1_555
Fe2 O14 2.127642 1_555
Fe3 O8 1.938715 1_554
Fe3 O11 1.938715 1_455
Fe3 O19 1.938715 1_545
Fe3 O3 2.099818 1_455
Fe3 O13 2.099818 1_545
Fe3 O6 2.099818 1_554
Fe4 O2 1.938863 1_555
Fe4 O0 1.938863 1_555
Fe4 O1 1.938863 1_555
Fe4 O14 2.131686 1_555
Fe4 O18 2.131686 1_555
Fe4 O16 2.131686 1_555
O0 P1 1.521509 1_655
O1 P2 1.521509 1_556
O2 P0 1.521509 1_565
O3 P0 1.550248 1_555
O4 P0 1.537720 1_555
O4 Sn0 2.004783 1_545
O5 P0 1.575373 1_555
O6 P1 1.550248 1_555
O7 P1 1.575373 1_555
O8 P3 1.517680 1_555
O9 P2 1.575373 1_555
O10 P3 1.580810 1_555
O10 Sn0 2.100725 1_545
O11 P4 1.517680 1_555
O12 P1 1.537720 1_555
O12 Sn0 2.004782 1_455
O13 P2 1.550248 1_555
O14 P3 1.577461 1_555
O15 P2 1.537720 1_555
O15 Sn0 2.004782 1_554
O16 P4 1.577461 1_555
O17 P4 1.580810 1_555
O17 Sn0 2.100725 1_554
O18 P5 1.577461 1_555
O19 P5 1.517680 1_555
O20 P5 1.580810 1_555
O20 Sn0 2.100725 1_455
O21 P5 1.522123 1_545
O22 P3 1.522123 1_554
O23 P4 1.522123 1_455
