# generated using pymatgen
data_Mn3NbFe2(PO4)6
_symmetry_space_group_name_H-M   'P 1'
_cell_length_a   8.64214453
_cell_length_b   8.64214453
_cell_length_c   8.64214509
_cell_angle_alpha   60.78104994
_cell_angle_beta   60.78104994
_cell_angle_gamma   60.78104689
_symmetry_Int_Tables_number   1
_chemical_formula_structural   Mn3NbFe2(PO4)6
_chemical_formula_sum   'Mn3 Nb1 Fe2 P6 O24'
_cell_volume   464.44551957
_cell_formula_units_Z   1
loop_
 _symmetry_equiv_pos_site_id
 _symmetry_equiv_pos_as_xyz
  1  'x, y, z'
loop_
 _atom_site_type_symbol
 _atom_site_label
 _atom_site_symmetry_multiplicity
 _atom_site_fract_x
 _atom_site_fract_y
 _atom_site_fract_z
 _atom_site_occupancy
  Mn  Mn0  1  0.14561800  0.14561800  0.14561800  1
  Mn  Mn1  1  0.35664600  0.35664600  0.35664600  1
  Mn  Mn2  1  0.64343300  0.64343300  0.64343300  1
  Nb  Nb0  1  0.85749500  0.85749500  0.85749500  1
  Fe  Fe0  1  0.00542500  0.00542500  0.00542500  1
  Fe  Fe1  1  0.50041300  0.50041300  0.50041300  1
  P  P0  1  0.45063000  0.74830200  0.04522400  1
  P  P1  1  0.53960800  0.25616600  0.95566200  1
  P  P2  1  0.95566200  0.53960800  0.25616600  1
  P  P3  1  0.25616600  0.95566200  0.53960800  1
  P  P4  1  0.74830200  0.04522400  0.45063000  1
  P  P5  1  0.04522400  0.45063000  0.74830200  1
  O  O0  1  0.31263000  0.11003000  0.51207300  1
  O  O1  1  0.51207300  0.31263000  0.11003000  1
  O  O2  1  0.91179300  0.05906400  0.26027700  1
  O  O3  1  0.11003000  0.51207300  0.31263000  1
  O  O4  1  0.81733800  0.99127000  0.61525600  1
  O  O5  1  0.59376700  0.23828400  0.44767100  1
  O  O6  1  0.05906400  0.26027700  0.91179300  1
  O  O7  1  0.23828400  0.44767100  0.59376700  1
  O  O8  1  0.38754300  0.19083100  0.98887400  1
  O  O9  1  0.44767100  0.59376700  0.23828400  1
  O  O10  1  0.73851900  0.09055700  0.93560800  1
  O  O11  1  0.98887400  0.38754300  0.19083100  1
  O  O12  1  0.99127000  0.61525600  0.81733800  1
  O  O13  1  0.26027700  0.91179300  0.05906400  1
  O  O14  1  0.55984300  0.41082300  0.75840900  1
  O  O15  1  0.61525600  0.81733800  0.99127000  1
  O  O16  1  0.75840900  0.55984300  0.41082300  1
  O  O17  1  0.93560800  0.73851900  0.09055700  1
  O  O18  1  0.41082300  0.75840900  0.55984300  1
  O  O19  1  0.19083100  0.98887400  0.38754300  1
  O  O20  1  0.88822200  0.48853800  0.68815400  1
  O  O21  1  0.09055700  0.93560800  0.73851900  1
  O  O22  1  0.48853800  0.68815400  0.88822200  1
  O  O23  1  0.68815400  0.88822200  0.48853800  1
loop_
_geom_bond_atom_site_label_1
_geom_bond_atom_site_label_2
_geom_bond_distance
_geom_bond_site_symmetry_2
Mn0 O11 1.968421 1_455
Mn0 O8 1.968421 1_554
Mn0 O19 1.968421 1_545
Mn0 O13 2.102859 1_545
Mn0 O2 2.102859 1_455
Mn0 O6 2.102859 1_554
Mn1 O3 1.997267 1_555
Mn1 O0 1.997267 1_555
Mn1 O1 1.997267 1_555
Mn1 O5 2.146219 1_555
Mn1 O9 2.146219 1_555
Mn1 O7 2.146219 1_555
Mn2 O20 1.986210 1_555
Mn2 O23 1.986210 1_555
Mn2 O22 1.986210 1_555
Mn2 O18 2.077775 1_555
Mn2 O14 2.077775 1_555
Mn2 O16 2.077775 1_555
Nb0 O12 1.947898 1_555
Nb0 O15 1.947898 1_555
Nb0 O4 1.947898 1_555
Nb0 O10 2.048820 1_565
Nb0 O21 2.048820 1_655
Nb0 O17 2.048820 1_556
Fe0 O13 2.147354 1_545
Fe0 O6 2.147354 1_554
Fe0 O2 2.147354 1_455
Fe0 O10 2.344031 1_454
Fe0 O17 2.344032 1_445
Fe0 O21 2.344032 1_544
Fe1 O5 2.203460 1_555
Fe1 O7 2.203460 1_555
Fe1 O9 2.203460 1_555
Fe1 O18 2.208831 1_555
Fe1 O16 2.208831 1_555
Fe1 O14 2.208831 1_555
O0 P3 1.512198 1_545
O1 P1 1.512198 1_554
O2 P4 1.555798 1_555
O3 P2 1.512198 1_455
O4 P4 1.583336 1_565
O5 P4 1.544101 1_555
O6 P5 1.555798 1_555
O7 P5 1.544101 1_555
O8 P1 1.525185 1_555
O9 P0 1.544101 1_555
O10 P1 1.607101 1_555
O11 P2 1.525185 1_555
O12 P5 1.583336 1_655
O13 P0 1.555798 1_555
O14 P1 1.560668 1_555
O15 P0 1.583336 1_556
O16 P2 1.560668 1_555
O17 P2 1.607101 1_555
O18 P3 1.560668 1_555
O19 P3 1.525185 1_555
O20 P5 1.518839 1_655
O21 P3 1.607101 1_555
O22 P0 1.518839 1_556
O23 P4 1.518839 1_565
