# generated using pymatgen
data_Mn5P6WO24
_symmetry_space_group_name_H-M   'P 1'
_cell_length_a   8.75764927
_cell_length_b   8.75764927
_cell_length_c   8.75764872
_cell_angle_alpha   60.08253236
_cell_angle_beta   60.08253236
_cell_angle_gamma   60.08253270
_symmetry_Int_Tables_number   1
_chemical_formula_structural   Mn5P6WO24
_chemical_formula_sum   'Mn5 P6 W1 O24'
_cell_volume   475.83797310
_cell_formula_units_Z   1
loop_
 _symmetry_equiv_pos_site_id
 _symmetry_equiv_pos_as_xyz
  1  'x, y, z'
loop_
 _atom_site_type_symbol
 _atom_site_label
 _atom_site_symmetry_multiplicity
 _atom_site_fract_x
 _atom_site_fract_y
 _atom_site_fract_z
 _atom_site_occupancy
  Mn  Mn0  1  0.99102500  0.99102500  0.99102500  1
  Mn  Mn1  1  0.64551000  0.64551000  0.64551000  1
  Mn  Mn2  1  0.50006400  0.50006400  0.50006400  1
  Mn  Mn3  1  0.85178100  0.85178100  0.85178100  1
  Mn  Mn4  1  0.35540900  0.35540900  0.35540900  1
  P  P0  1  0.95507100  0.25238200  0.54745600  1
  P  P1  1  0.54745600  0.95507100  0.25238200  1
  P  P2  1  0.25238200  0.54745600  0.95507100  1
  P  P3  1  0.74434800  0.45874400  0.04879300  1
  P  P4  1  0.45874400  0.04879300  0.74434800  1
  P  P5  1  0.04879300  0.74434800  0.45874400  1
  W  W0  1  0.14386900  0.14386900  0.14386900  1
  O  O0  1  0.50473800  0.10791000  0.31636900  1
  O  O1  1  0.31636900  0.50473800  0.10791000  1
  O  O2  1  0.10791000  0.31636900  0.50473800  1
  O  O3  1  0.94335700  0.08646400  0.73286900  1
  O  O4  1  0.01720700  0.17902700  0.38100500  1
  O  O5  1  0.76503700  0.40416000  0.54522900  1
  O  O6  1  0.73286900  0.94335700  0.08646400  1
  O  O7  1  0.54522900  0.76503700  0.40416000  1
  O  O8  1  0.80683400  0.60976300  0.01466400  1
  O  O9  1  0.40416000  0.54522900  0.76503700  1
  O  O10  1  0.91603500  0.25960500  0.07673500  1
  O  O11  1  0.60976300  0.01466400  0.80683400  1
  O  O12  1  0.38100500  0.01720700  0.17902700  1
  O  O13  1  0.08646400  0.73286900  0.94335700  1
  O  O14  1  0.59158100  0.43211800  0.24420700  1
  O  O15  1  0.17902700  0.38100500  0.01720700  1
  O  O16  1  0.43211800  0.24420700  0.59158100  1
  O  O17  1  0.25960500  0.07673500  0.91603500  1
  O  O18  1  0.24420700  0.59158100  0.43211800  1
  O  O19  1  0.01466400  0.80683400  0.60976300  1
  O  O20  1  0.07673500  0.91603500  0.25960500  1
  O  O21  1  0.89383600  0.70153700  0.47525000  1
  O  O22  1  0.70153700  0.47525000  0.89383600  1
  O  O23  1  0.47525000  0.89383600  0.70153700  1
loop_
_geom_bond_atom_site_label_1
_geom_bond_atom_site_label_2
_geom_bond_distance
_geom_bond_site_symmetry_2
Mn0 O3 2.166270 1_565
Mn0 O13 2.166270 1_655
Mn0 O6 2.166270 1_556
Mn0 O20 2.501157 1_656
Mn0 O10 2.501157 1_566
Mn0 O17 2.501157 1_665
Mn1 O22 2.072100 1_555
Mn1 O21 2.072100 1_555
Mn1 O23 2.072100 1_555
Mn1 O7 2.249932 1_555
Mn1 O5 2.249932 1_555
Mn1 O9 2.249932 1_555
Mn2 O9 2.210618 1_555
Mn2 O5 2.210618 1_555
Mn2 O7 2.210618 1_555
Mn2 O14 2.253906 1_555
Mn2 O18 2.253906 1_555
Mn2 O16 2.253906 1_555
Mn3 O19 1.984523 1_655
Mn3 O8 1.984523 1_556
Mn3 O11 1.984523 1_565
Mn3 O6 2.151260 1_556
Mn3 O13 2.151260 1_655
Mn3 O3 2.151260 1_565
Mn4 O1 1.997733 1_555
Mn4 O2 1.997733 1_555
Mn4 O0 1.997733 1_555
Mn4 O16 2.098047 1_555
Mn4 O18 2.098047 1_555
Mn4 O14 2.098047 1_555
O0 P1 1.511677 1_545
O1 P2 1.511677 1_554
O2 P0 1.511677 1_455
O3 P0 1.545163 1_555
O4 P0 1.621086 1_455
O4 W0 1.907199 1_555
O5 P0 1.528666 1_555
O6 P1 1.545163 1_555
O7 P1 1.528666 1_555
O8 P3 1.517388 1_555
O9 P2 1.528666 1_555
O10 P3 1.639439 1_555
O10 W0 1.978030 1_655
O11 P4 1.517388 1_555
O12 P1 1.621086 1_545
O12 W0 1.907199 1_555
O13 P2 1.545164 1_555
O14 P3 1.549939 1_555
O15 P2 1.621086 1_554
O15 W0 1.907199 1_555
O16 P4 1.549939 1_555
O17 P4 1.639439 1_555
O17 W0 1.978030 1_556
O18 P5 1.549939 1_555
O19 P5 1.517388 1_555
O20 P5 1.639439 1_555
O20 W0 1.978030 1_565
O21 P5 1.503615 1_655
O22 P3 1.503615 1_556
O23 P4 1.503615 1_565
