# generated using pymatgen
data_Ag2Hg3
_symmetry_space_group_name_H-M   'P 1'
_cell_length_a   8.93220600
_cell_length_b   8.95583766
_cell_length_c   14.60412763
_cell_angle_alpha   90.35920700
_cell_angle_beta   90.55386691
_cell_angle_gamma   109.79762817
_symmetry_Int_Tables_number   1
_chemical_formula_structural   Ag2Hg3
_chemical_formula_sum   'Ag20 Hg30'
_cell_volume   1099.10451470
_cell_formula_units_Z   10
loop_
 _symmetry_equiv_pos_site_id
 _symmetry_equiv_pos_as_xyz
  1  'x, y, z'
loop_
 _atom_site_type_symbol
 _atom_site_label
 _atom_site_symmetry_multiplicity
 _atom_site_fract_x
 _atom_site_fract_y
 _atom_site_fract_z
 _atom_site_occupancy
  Ag  Ag0  1  0.00400500  0.66869700  0.99982600  1
  Ag  Ag1  1  0.81338500  0.18148400  0.82589400  1
  Ag  Ag2  1  0.64581700  0.64095800  0.00221600  1
  Ag  Ag3  1  0.35719000  0.35816200  0.99942100  1
  Ag  Ag4  1  0.68296100  0.32587300  0.67560500  1
  Ag  Ag5  1  0.66372400  0.99195500  0.00179100  1
  Ag  Ag6  1  0.17144100  0.16943500  0.83415700  1
  Ag  Ag7  1  0.49616400  0.16309800  0.50414700  1
  Ag  Ag8  1  0.66617100  0.66942000  0.67064200  1
  Ag  Ag9  1  0.85518000  0.85435200  0.50049800  1
  Ag  Ag10  1  0.14133200  0.14440400  0.49855800  1
  Ag  Ag11  1  0.17929300  0.82108400  0.82270200  1
  Ag  Ag12  1  0.32788800  0.67834600  0.67830000  1
  Ag  Ag13  1  0.66745000  0.30672100  0.32092200  1
  Ag  Ag14  1  0.82514400  0.18283100  0.17433800  1
  Ag  Ag15  1  0.16515800  0.50235000  0.50177900  1
  Ag  Ag16  1  0.66540800  0.67129100  0.33275200  1
  Ag  Ag17  1  0.16680200  0.16550500  0.17042100  1
  Ag  Ag18  1  0.31895700  0.67801900  0.32054600  1
  Ag  Ag19  1  0.17916900  0.82454800  0.17638600  1
  Hg  Hg0  1  0.00017600  0.23087500  0.99922300  1
  Hg  Hg1  1  0.79166300  0.52091500  0.83901100  1
  Hg  Hg2  1  0.87847800  0.88016300  0.88060700  1
  Hg  Hg3  1  0.37333300  0.07378900  0.70391400  1
  Hg  Hg4  1  0.98207200  0.61168300  0.65376700  1
  Hg  Hg5  1  0.44876200  0.47544200  0.81645100  1
  Hg  Hg6  1  0.35228600  0.71811100  0.98339400  1
  Hg  Hg7  1  0.82594900  0.18811000  0.46570100  1
  Hg  Hg8  1  0.99804700  0.94974000  0.68334700  1
  Hg  Hg9  1  0.54208900  0.87807800  0.81798900  1
  Hg  Hg10  1  0.11443000  0.47997900  0.84538900  1
  Hg  Hg11  1  0.73157400  0.49736300  0.49721400  1
  Hg  Hg12  1  0.25635500  0.01476200  0.99300900  1
  Hg  Hg13  1  0.38391200  0.38768300  0.61385900  1
  Hg  Hg14  1  0.02054600  0.28884700  0.65978600  1
  Hg  Hg15  1  0.00057100  0.67926400  0.36730800  1
  Hg  Hg16  1  0.67368500  0.00092700  0.63324700  1
  Hg  Hg17  1  0.31687200  0.02089600  0.33845900  1
  Hg  Hg18  1  0.50607400  0.74988000  0.49018400  1
  Hg  Hg19  1  0.38081600  0.38083200  0.38276800  1
  Hg  Hg20  1  0.85240700  0.53923500  0.18009200  1
  Hg  Hg21  1  0.48358200  0.11304300  0.15859600  1
  Hg  Hg22  1  0.92384100  0.98723900  0.31621900  1
  Hg  Hg23  1  0.49187300  0.45280100  0.18297100  1
  Hg  Hg24  1  0.22179300  0.85458400  0.52640900  1
  Hg  Hg25  1  0.68516100  0.32264100  0.00456900  1
  Hg  Hg26  1  0.04861400  0.35843000  0.31746400  1
  Hg  Hg27  1  0.88996700  0.88337500  0.11518900  1
  Hg  Hg28  1  0.54554900  0.81005700  0.17748000  1
  Hg  Hg29  1  0.17480000  0.50174500  0.13238900  1
loop_
_geom_bond_atom_site_label_1
_geom_bond_atom_site_label_2
_geom_bond_distance
_geom_bond_site_symmetry_2
Ag0 Hg27 2.981894 1_456
Ag0 Hg6 3.002403 1_555
Ag0 Hg1 3.006540 1_455
Ag0 Hg20 3.025278 1_456
Ag0 Hg2 3.052420 1_455
Ag0 Ag19 3.072850 1_556
Ag0 Ag11 3.111322 1_555
Ag0 Ag2 3.124582 1_456
Ag0 Hg29 3.136132 1_556
Ag0 Hg12 3.157883 1_565
Ag0 Hg10 3.168717 1_555
Ag0 Hg25 3.427594 1_456
Ag1 Hg0 2.965022 1_655
Ag1 Hg9 2.966358 1_545
Ag1 Ag4 2.975446 1_555
Ag1 Hg14 3.023927 1_655
Ag1 Hg2 3.056103 1_545
Ag1 Hg10 3.092633 1_655
Ag1 Hg1 3.115802 1_555
Ag1 Ag5 3.138634 1_546
Ag1 Ag6 3.237494 1_655
Ag1 Hg16 3.255086 1_555
Ag1 Hg25 3.273540 1_556
Ag2 Ag3 2.938747 1_554
Ag2 Hg6 2.939881 1_554
Ag2 Hg27 2.978206 1_555
Ag2 Hg25 2.988539 1_555
Ag2 Hg2 3.027474 1_554
Ag2 Hg1 3.083901 1_554
Ag2 Ag5 3.093010 1_555
Ag2 Hg23 3.202356 1_555
Ag2 Hg28 3.249852 1_555
Ag2 Hg5 3.277997 1_554
Ag2 Hg20 3.472612 1_555
Ag3 Hg12 2.897701 1_555
Ag3 Hg5 2.899644 1_555
Ag3 Hg23 2.927395 1_556
Ag3 Hg0 3.001003 1_555
Ag3 Hg25 3.052242 1_556
Ag3 Ag6 3.067008 1_555
Ag3 Hg29 3.086669 1_556
Ag3 Hg6 3.248616 1_555
Ag4 Hg1 2.905667 1_555
Ag4 Hg16 2.944773 1_555
Ag4 Hg3 2.953121 1_555
Ag4 Hg11 2.992479 1_555
Ag4 Hg4 3.030822 1_555
Ag4 Hg13 3.035793 1_555
Ag4 Ag7 3.066734 1_555
Ag4 Ag8 3.131980 1_555
Ag4 Hg14 3.153676 1_655
Ag5 Hg25 2.902312 1_565
Ag5 Hg9 2.929937 1_554
Ag5 Hg27 3.009767 1_555
Ag5 Hg2 3.026300 1_554
Ag5 Hg6 3.030066 1_554
Ag5 Hg0 3.042802 1_664
Ag5 Hg28 3.048148 1_555
Ag5 Hg21 3.198646 1_565
Ag6 Hg12 2.931557 1_555
Ag6 Hg3 2.948897 1_555
Ag6 Hg8 2.989358 1_445
Ag6 Hg10 2.996076 1_555
Ag6 Hg0 3.013147 1_555
Ag6 Hg5 3.022604 1_555
Ag6 Hg2 3.079531 1_445
Ag6 Hg14 3.223254 1_555
Ag7 Hg17 2.923451 1_555
Ag7 Hg7 2.937549 1_555
Ag7 Hg13 2.995796 1_555
Ag7 Hg11 3.022805 1_555
Ag7 Hg24 3.030798 1_545
Ag7 Hg19 3.061900 1_555
Ag7 Hg16 3.116884 1_555
Ag7 Hg3 3.138715 1_555
Ag8 Hg16 3.000552 1_565
Ag8 Hg13 3.005779 1_555
Ag8 Hg5 3.027306 1_555
Ag8 Hg4 3.047993 1_555
Ag8 Hg11 3.117700 1_555
Ag8 Ag9 3.163253 1_555
Ag8 Hg8 3.172836 1_555
Ag8 Hg1 3.173172 1_555
Ag8 Hg18 3.187268 1_555
Ag8 Hg9 3.278672 1_555
Ag9 Hg22 2.934772 1_555
Ag9 Hg18 2.938470 1_555
Ag9 Hg8 2.942122 1_555
Ag9 Hg11 3.008136 1_555
Ag9 Hg15 3.052683 1_655
Ag9 Hg16 3.095194 1_565
Ag9 Hg7 3.131483 1_565
Ag9 Hg24 3.292117 1_655
Ag10 Hg24 2.947918 1_545
Ag10 Ag9 2.964174 1_445
Ag10 Hg13 2.993809 1_555
Ag10 Hg19 2.994230 1_555
Ag10 Hg7 3.007074 1_455
Ag10 Hg14 3.055792 1_555
Ag10 Ag7 3.116950 1_555
Ag10 Ag15 3.140036 1_555
Ag10 Hg17 3.219010 1_555
Ag10 Hg8 3.251859 1_445
Ag10 Hg22 3.293467 1_445
Ag11 Hg3 2.930144 1_565
Ag11 Hg10 2.931760 1_555
Ag11 Hg12 2.961855 1_565
Ag11 Ag12 3.002133 1_555
Ag11 Hg2 3.035800 1_455
Ag11 Hg8 3.052819 1_455
Ag11 Hg9 3.106580 1_555
Ag11 Hg6 3.109305 1_555
Ag11 Ag6 3.147666 1_565
Ag11 Hg4 3.213590 1_455
Ag12 Hg9 2.929598 1_555
Ag12 Hg4 2.958514 1_455
Ag12 Hg13 2.961957 1_555
Ag12 Ag8 3.052719 1_555
Ag12 Hg24 3.053904 1_555
Ag12 Ag15 3.093146 1_555
Ag12 Hg5 3.141863 1_555
Ag12 Hg18 3.147537 1_555
Ag12 Hg10 3.255109 1_555
Ag12 Hg3 3.442924 1_565
Ag13 Hg7 2.931266 1_555
Ag13 Ag14 2.980775 1_555
Ag13 Hg19 2.999937 1_555
Ag13 Hg20 3.014063 1_555
Ag13 Hg11 3.020859 1_555
Ag13 Hg21 3.044551 1_555
Ag13 Hg23 3.097054 1_555
Ag13 Ag7 3.153508 1_555
Ag13 Ag16 3.274741 1_555
Ag13 Hg26 3.277824 1_655
Ag13 Hg17 3.319317 1_555
Ag14 Hg21 2.905932 1_555
Ag14 Hg26 2.928870 1_655
Ag14 Hg0 2.967346 1_654
Ag14 Hg22 3.032369 1_545
Ag14 Hg27 3.050644 1_545
Ag14 Ag5 3.091463 1_545
Ag14 Ag17 3.108798 1_655
Ag14 Hg20 3.118377 1_555
Ag14 Hg25 3.212129 1_555
Ag14 Hg28 3.426514 1_545
Ag14 Hg29 3.507645 1_655
Ag15 Hg13 2.978299 1_555
Ag15 Hg26 2.997329 1_555
Ag15 Hg14 3.014846 1_555
Ag15 Hg24 3.039365 1_555
Ag15 Hg19 3.062180 1_555
Ag15 Hg18 3.107689 1_555
Ag15 Hg4 3.112503 1_455
Ag15 Ag18 3.166405 1_555
Ag15 Hg15 3.176369 1_555
Ag15 Hg7 3.398882 1_455
Ag16 Hg18 2.920364 1_555
Ag16 Hg28 2.953373 1_555
Ag16 Hg23 2.973644 1_555
Ag16 Hg22 2.998029 1_555
Ag16 Hg15 3.007960 1_655
Ag16 Hg11 3.031083 1_555
Ag16 Hg19 3.056570 1_555
Ag16 Ag9 3.090217 1_555
Ag16 Ag18 3.118904 1_555
Ag16 Hg20 3.245962 1_555
Ag17 Hg27 2.975388 1_445
Ag17 Hg21 3.027521 1_555
Ag17 Hg29 3.042631 1_555
Ag17 Hg0 3.057046 1_554
Ag17 Ag19 3.094452 1_545
Ag17 Hg22 3.094709 1_445
Ag17 Hg12 3.146930 1_554
Ag17 Hg26 3.153432 1_555
Ag17 Hg23 3.163499 1_555
Ag17 Ag3 3.202196 1_554
Ag17 Hg17 3.263231 1_555
Ag18 Hg28 2.889922 1_555
Ag18 Hg18 2.918314 1_555
Ag18 Hg15 2.934815 1_555
Ag18 Ag19 2.967715 1_555
Ag18 Hg19 3.038376 1_555
Ag18 Hg26 3.056085 1_555
Ag18 Hg17 3.086593 1_565
Ag18 Hg29 3.193938 1_555
Ag19 Hg27 2.938108 1_455
Ag19 Hg17 2.938338 1_565
Ag19 Hg29 2.944808 1_555
Ag19 Hg21 3.065878 1_565
Ag19 Hg12 3.137937 1_564
Ag19 Hg20 3.162864 1_455
Ag19 Hg15 3.276831 1_555
Ag19 Hg28 3.318675 1_555
Hg0 Hg29 3.069028 1_556
Hg0 Hg10 3.103343 1_555
Hg0 Hg25 3.188853 1_456
Hg1 Hg5 2.964690 1_555
Hg1 Hg25 2.976245 1_556
Hg1 Hg10 3.027559 1_655
Hg1 Hg2 3.098086 1_555
Hg1 Hg4 3.170523 1_555
Hg2 Hg8 3.075579 1_555
Hg2 Hg9 3.126256 1_555
Hg3 Hg9 3.146032 1_545
Hg3 Hg8 3.164633 1_445
Hg4 Hg8 3.010482 1_555
Hg6 Hg9 3.039585 1_555
Hg10 Hg5 3.033934 1_555
Hg10 Hg14 3.147381 1_555
Hg10 Hg6 3.149308 1_555
Hg11 Hg15 3.082474 1_655
Hg11 Hg4 3.098684 1_555
Hg11 Hg7 3.188458 1_555
Hg12 Hg6 3.058115 1_545
Hg12 Hg21 3.067635 1_556
Hg13 Hg5 3.055545 1_555
Hg13 Hg3 3.083859 1_555
Hg13 Hg14 3.141831 1_555
Hg14 Hg8 2.997178 1_445
Hg14 Hg4 3.026701 1_455
Hg14 Hg7 3.267979 1_455
Hg14 Hg16 3.309198 1_455
Hg15 Hg24 3.087476 1_555
Hg15 Hg20 3.092315 1_455
Hg15 Hg26 3.128125 1_555
Hg15 Hg22 3.151251 1_455
Hg16 Hg9 3.015595 1_545
Hg16 Hg7 3.036192 1_555
Hg16 Hg18 3.043371 1_545
Hg16 Hg3 3.149493 1_555
Hg16 Hg8 3.162685 1_545
Hg17 Hg21 3.011406 1_555
Hg17 Hg24 3.116631 1_545
Hg17 Hg19 3.139363 1_555
Hg18 Hg24 3.039688 1_555
Hg19 Hg26 3.048652 1_555
Hg19 Hg23 3.091894 1_555
Hg20 Hg23 3.047310 1_555
Hg20 Hg29 3.095389 1_655
Hg20 Hg27 3.138857 1_555
Hg20 Hg25 3.235103 1_555
Hg21 Hg28 2.961300 1_545
Hg21 Hg23 3.037138 1_555
Hg21 Hg25 3.109219 1_555
Hg22 Hg27 3.055168 1_555
Hg22 Hg26 3.127731 1_665
Hg22 Hg7 3.133653 1_565
Hg23 Hg28 3.072150 1_555
Hg23 Hg29 3.092494 1_555
Hg24 Hg4 3.122341 1_455
Hg24 Hg3 3.236441 1_565
Hg26 Hg7 3.006435 1_455
Hg26 Hg29 3.057067 1_555
Hg27 Hg28 3.068592 1_555
Hg28 Hg6 3.256597 1_554
Hg29 Hg6 3.006904 1_554
