# generated using pymatgen
data_Fe6O5F7
_symmetry_space_group_name_H-M   'P 1'
_cell_length_a   4.77820100
_cell_length_b   5.69610227
_cell_length_c   7.82525621
_cell_angle_alpha   85.45839227
_cell_angle_beta   88.27198822
_cell_angle_gamma   87.89294719
_symmetry_Int_Tables_number   1
_chemical_formula_structural   Fe6O5F7
_chemical_formula_sum   'Fe6 O5 F7'
_cell_volume   212.08930394
_cell_formula_units_Z   1
loop_
 _symmetry_equiv_pos_site_id
 _symmetry_equiv_pos_as_xyz
  1  'x, y, z'
loop_
 _atom_site_type_symbol
 _atom_site_label
 _atom_site_symmetry_multiplicity
 _atom_site_fract_x
 _atom_site_fract_y
 _atom_site_fract_z
 _atom_site_occupancy
  Fe  Fe0  1  0.52626800  0.85146800  0.67428900  1
  Fe  Fe1  1  0.51940600  0.47657100  0.00026900  1
  Fe  Fe2  1  0.47003600  0.18711200  0.33319000  1
  Fe  Fe3  1  0.98864800  0.32584700  0.66721600  1
  Fe  Fe4  1  0.01893700  0.66007200  0.33108600  1
  Fe  Fe5  1  0.96412000  0.00584600  0.99572500  1
  O  O0  1  0.80666300  0.04305500  0.77159400  1
  O  O1  1  0.69636900  0.19415000  0.11077200  1
  O  O2  1  0.69514600  0.54444200  0.76909900  1
  O  O3  1  0.30472300  0.12599300  0.56493400  1
  O  O4  1  0.31855900  0.46733800  0.22007900  1
  F  F0  1  0.80109200  0.35978400  0.43849600  1
  F  F1  1  0.80451400  0.70178200  0.09176300  1
  F  F2  1  0.69741900  0.86469500  0.43108200  1
  F  F3  1  0.29711300  0.80050200  0.90550800  1
  F  F4  1  0.19654100  0.97310300  0.21887500  1
  F  F5  1  0.19840300  0.62510500  0.57630200  1
  F  F6  1  0.19604400  0.29313200  0.89971800  1
loop_
_geom_bond_atom_site_label_1
_geom_bond_atom_site_label_2
_geom_bond_distance
_geom_bond_site_symmetry_2
Fe0 O0 1.966310 1_565
Fe0 O2 1.996725 1_555
Fe0 O3 2.004771 1_565
Fe1 O4 1.942224 1_555
Fe1 O1 1.942781 1_555
Fe1 O2 1.987071 1_554
Fe2 O4 1.893434 1_555
Fe2 O3 1.966625 1_555
Fe2 O1 2.019667 1_555
Fe3 O0 1.967179 1_555
Fe3 O2 2.028332 1_555
Fe3 O3 2.040202 1_655
Fe4 O4 1.992457 1_555
Fe5 O1 1.892167 1_556
Fe5 O0 1.922514 1_555
F0 Fe3 2.018185 1_555
F0 Fe2 2.114254 1_555
F0 Fe4 2.136852 1_655
F1 Fe5 2.000643 1_564
F1 Fe1 2.084921 1_555
F1 Fe4 2.154243 1_655
F2 Fe0 2.045587 1_555
F2 Fe4 2.066695 1_655
F2 Fe2 2.195615 1_565
F3 Fe5 2.079495 1_465
F3 Fe0 2.092281 1_555
F3 Fe1 2.183876 1_556
F4 Fe2 2.086699 1_565
F4 Fe5 2.089856 1_464
F4 Fe4 2.118693 1_555
F5 Fe3 2.075303 1_455
F5 Fe4 2.117372 1_555
F5 Fe0 2.254387 1_555
F6 Fe5 2.087765 1_455
F6 Fe3 2.090073 1_455
F6 Fe1 2.102484 1_556
