# generated using pymatgen
data_Li5MnO3F2
_symmetry_space_group_name_H-M   'P 1'
_cell_length_a   5.15946794
_cell_length_b   7.60639518
_cell_length_c   11.59946832
_cell_angle_alpha   79.26568722
_cell_angle_beta   90.87671545
_cell_angle_gamma   106.32662600
_symmetry_Int_Tables_number   1
_chemical_formula_structural   Li5MnO3F2
_chemical_formula_sum   'Li20 Mn4 O12 F8'
_cell_volume   428.88757466
_cell_formula_units_Z   4
loop_
 _symmetry_equiv_pos_site_id
 _symmetry_equiv_pos_as_xyz
  1  'x, y, z'
loop_
 _atom_site_type_symbol
 _atom_site_label
 _atom_site_symmetry_multiplicity
 _atom_site_fract_x
 _atom_site_fract_y
 _atom_site_fract_z
 _atom_site_occupancy
  Li  Li0  1  0.87635400  0.12802900  0.74807100  1
  Li  Li1  1  0.12635500  0.87802800  0.24807000  1
  Li  Li2  1  0.37635400  0.62802900  0.74807100  1
  Li  Li3  1  0.62635400  0.37803000  0.24807200  1
  Li  Li4  1  0.45936900  0.86849800  0.93668700  1
  Li  Li5  1  0.70936600  0.61849500  0.43668600  1
  Li  Li6  1  0.95936600  0.36849500  0.93668600  1
  Li  Li7  1  0.20936900  0.11849800  0.43668700  1
  Li  Li8  1  0.29094400  0.38440400  0.55945000  1
  Li  Li9  1  0.54094400  0.13440300  0.05945100  1
  Li  Li10  1  0.79094700  0.88440600  0.55945100  1
  Li  Li11  1  0.04094700  0.63440600  0.05945200  1
  Li  Li12  1  0.27484700  0.02573700  0.65356800  1
  Li  Li13  1  0.52483400  0.77574100  0.15356900  1
  Li  Li14  1  0.77485100  0.52573700  0.65357100  1
  Li  Li15  1  0.02484100  0.27574100  0.15356800  1
  Li  Li16  1  0.47586400  0.22747700  0.84286300  1
  Li  Li17  1  0.72586400  0.97747600  0.34286100  1
  Li  Li18  1  0.97585900  0.72747800  0.84286000  1
  Li  Li19  1  0.22587400  0.47747500  0.34286100  1
  Mn  Mn0  1  0.25039400  0.75133000  0.49808400  1
  Mn  Mn1  1  0.50042400  0.50134700  0.99807400  1
  Mn  Mn2  1  0.00041200  0.00134200  0.99808800  1
  Mn  Mn3  1  0.75040900  0.25133300  0.49807600  1
  O  O0  1  0.25059300  0.25142600  0.99773600  1
  O  O1  1  0.50061700  0.00145200  0.49773700  1
  O  O2  1  0.75061600  0.75145200  0.99773700  1
  O  O3  1  0.00059500  0.50142600  0.49773700  1
  O  O4  1  0.74768500  0.11484800  0.90962500  1
  O  O5  1  0.99767900  0.86484700  0.40962700  1
  O  O6  1  0.24768500  0.61485000  0.90962200  1
  O  O7  1  0.49767900  0.36485000  0.40962800  1
  O  O8  1  0.00291000  0.13806200  0.58668300  1
  O  O9  1  0.25291500  0.88806000  0.08668100  1
  O  O10  1  0.50291100  0.63806000  0.58668600  1
  O  O11  1  0.75291600  0.38806200  0.08668100  1
  F  F0  1  0.57030900  0.25320100  0.67514300  1
  F  F1  1  0.82029400  0.00318900  0.17514200  1
  F  F2  1  0.07029400  0.75319400  0.67515300  1
  F  F3  1  0.32029400  0.50320200  0.17515300  1
  F  F4  1  0.18184000  0.99998600  0.82112500  1
  F  F5  1  0.43185500  0.74998500  0.32111500  1
  F  F6  1  0.68185400  0.49999300  0.82111500  1
  F  F7  1  0.93185500  0.24999800  0.32112700  1
loop_
_geom_bond_atom_site_label_1
_geom_bond_atom_site_label_2
_geom_bond_distance
_geom_bond_site_symmetry_2
Li0 O8 1.973017 1_655
Li0 O4 1.973089 1_555
Li1 O9 1.973036 1_555
Li1 O5 1.973134 1_455
Li2 O10 1.972989 1_555
Li2 O6 1.973060 1_555
Li3 O11 1.973062 1_555
Li3 O7 1.973123 1_555
Li4 O2 2.009203 1_555
Li4 O6 2.011022 1_555
Li4 O4 2.012618 1_565
Li4 O9 2.103834 1_556
Li5 O3 2.009228 1_655
Li5 O7 2.010981 1_555
Li5 O5 2.012621 1_555
Li5 O10 2.103904 1_555
Li6 O0 2.009216 1_655
Li6 O4 2.010996 1_555
Li6 O6 2.012652 1_655
Li6 O11 2.103847 1_556
Li7 O1 2.009207 1_555
Li7 O5 2.011030 1_445
Li7 O7 2.012614 1_555
Li7 O8 2.103873 1_555
Li8 O3 2.007085 1_555
Li8 O8 2.011867 1_555
Li8 O10 2.012117 1_555
Li8 O7 2.102902 1_555
Li9 O0 2.007105 1_554
Li9 O9 2.011860 1_545
Li9 O11 2.012121 1_555
Li9 O4 2.102961 1_554
Li10 O1 2.007111 1_565
Li10 O10 2.011893 1_555
Li10 O8 2.012096 1_665
Li10 O5 2.102928 1_555
Li11 O2 2.007118 1_454
Li11 O11 2.011870 1_455
Li11 O9 2.012079 1_555
Li11 O6 2.102995 1_554
Li12 O8 1.922024 1_555
Li12 O1 2.228913 1_555
Li13 O9 1.921930 1_555
Li13 O2 2.228969 1_554
Li14 O10 1.922028 1_555
Li14 O3 2.228943 1_655
Li15 O11 1.921961 1_455
Li15 O0 2.228958 1_554
Li16 O4 1.922405 1_555
Li16 O0 2.217234 1_555
Li17 O5 1.922393 1_555
Li17 O1 2.217272 1_565
Li18 O6 1.922422 1_655
Li18 O2 2.217264 1_555
Li19 O7 1.922335 1_555
Li19 O3 2.217292 1_555
Mn0 O10 1.938108 1_555
Mn0 O5 1.939185 1_455
Mn0 O3 1.974765 1_555
Mn0 O1 1.975531 1_565
Mn1 O11 1.938092 1_556
Mn1 O6 1.939201 1_555
Mn1 O0 1.974911 1_555
Mn1 O2 1.975388 1_555
Mn2 O9 1.938054 1_546
Mn2 O4 1.939220 1_455
Mn2 O2 1.974684 1_445
Mn2 O0 1.975213 1_555
Mn3 O8 1.938072 1_655
Mn3 O7 1.939201 1_555
Mn3 O1 1.974599 1_555
Mn3 O3 1.975301 1_655
F0 Li16 1.973363 1_555
F0 Li12 2.011657 1_555
F0 Li14 2.014595 1_555
F0 Li0 2.149369 1_555
F0 Li8 2.263866 1_555
F0 Mn3 2.271296 1_555
F1 Li17 1.973347 1_545
F1 Li13 2.011564 1_545
F1 Li15 2.014704 1_655
F1 Li1 2.149391 1_645
F1 Li9 2.263839 1_555
F1 Mn2 2.271152 1_654
F2 Li18 1.973214 1_455
F2 Li14 2.011593 1_455
F2 Li12 2.014645 1_565
F2 Li2 2.149369 1_555
F2 Li10 2.263883 1_455
F2 Mn0 2.271308 1_555
F3 Li19 1.973194 1_555
F3 Li15 2.011649 1_555
F3 Li13 2.014604 1_555
F3 Li3 2.149403 1_555
F3 Li11 2.263847 1_555
F3 Mn1 2.271460 1_554
F4 Li12 1.969770 1_565
F4 Li16 2.008509 1_565
F4 Li18 2.016070 1_455
F4 Li0 2.160005 1_465
F4 Li4 2.257099 1_555
F4 Mn2 2.271989 1_565
F5 Li13 1.969607 1_555
F5 Li17 2.008495 1_555
F5 Li19 2.016075 1_555
F5 Li1 2.160036 1_555
F5 Li5 2.257089 1_555
F5 Mn0 2.272101 1_555
F6 Li14 1.969620 1_555
F6 Li18 2.008450 1_555
F6 Li16 2.016124 1_555
F6 Li2 2.160001 1_555
F6 Li6 2.257124 1_555
F6 Mn1 2.271947 1_555
F7 Li15 1.969777 1_655
F7 Li19 2.008411 1_655
F7 Li17 2.016174 1_545
F7 Li3 2.160026 1_555
F7 Li7 2.257076 1_655
F7 Mn3 2.271835 1_555
