# generated using pymatgen
data_Na3H6S2NO10
_symmetry_space_group_name_H-M   'P 1'
_cell_length_a   9.57697124
_cell_length_b   9.57697124
_cell_length_c   5.96992400
_cell_angle_alpha   90.00000000
_cell_angle_beta   90.00000000
_cell_angle_gamma   108.56903180
_symmetry_Int_Tables_number   1
_chemical_formula_structural   Na3H6S2NO10
_chemical_formula_sum   'Na6 H12 S4 N2 O20'
_cell_volume   519.04656901
_cell_formula_units_Z   2
loop_
 _symmetry_equiv_pos_site_id
 _symmetry_equiv_pos_as_xyz
  1  'x, y, z'
loop_
 _atom_site_type_symbol
 _atom_site_label
 _atom_site_symmetry_multiplicity
 _atom_site_fract_x
 _atom_site_fract_y
 _atom_site_fract_z
 _atom_site_occupancy
  Na  Na0  1  0.51122500  0.76142800  0.01097800  1
  Na  Na1  1  0.76142800  0.51122500  0.01097800  1
  Na  Na2  1  0.48877500  0.23857200  0.51097800  1
  Na  Na3  1  0.23857200  0.48877500  0.51097800  1
  Na  Na4  1  0.90218700  0.90218700  0.99570000  1
  Na  Na5  1  0.09781300  0.09781300  0.49570000  1
  H  H0  1  0.80249200  0.34899100  0.59088100  1
  H  H1  1  0.34899100  0.80249200  0.59088100  1
  H  H2  1  0.19750800  0.65100900  0.09088100  1
  H  H3  1  0.65100900  0.19750800  0.09088100  1
  H  H4  1  0.17932100  0.76815800  0.63345100  1
  H  H5  1  0.76815800  0.17932100  0.63345100  1
  H  H6  1  0.82067900  0.23184200  0.13345100  1
  H  H7  1  0.23184200  0.82067900  0.13345100  1
  H  H8  1  0.41044700  0.41044700  0.85692200  1
  H  H9  1  0.58955300  0.58955300  0.35692200  1
  H  H10  1  0.54478500  0.54478500  0.76717600  1
  H  H11  1  0.45521500  0.45521500  0.26717600  1
  S  S0  1  0.70160000  0.89224500  0.51454700  1
  S  S1  1  0.89224500  0.70160000  0.51454700  1
  S  S2  1  0.29840000  0.10775500  0.01454700  1
  S  S3  1  0.10775500  0.29840000  0.01454700  1
  N  N0  1  0.71893000  0.71893000  0.58163800  1
  N  N1  1  0.28107000  0.28107000  0.08163800  1
  O  O0  1  0.69636000  0.69636000  0.81312900  1
  O  O1  1  0.30364000  0.30364000  0.31312900  1
  O  O2  1  0.82636800  0.00733100  0.61796800  1
  O  O3  1  0.00733100  0.82636800  0.61796800  1
  O  O4  1  0.17363200  0.99266900  0.11796800  1
  O  O5  1  0.99266900  0.17363200  0.11796800  1
  O  O6  1  0.56090400  0.88325400  0.61738000  1
  O  O7  1  0.88325400  0.56090400  0.61738000  1
  O  O8  1  0.43909600  0.11674600  0.11738000  1
  O  O9  1  0.11674600  0.43909600  0.11738000  1
  O  O10  1  0.70298900  0.89612400  0.26910300  1
  O  O11  1  0.89612400  0.70298900  0.26910300  1
  O  O12  1  0.29701100  0.10387600  0.76910300  1
  O  O13  1  0.10387600  0.29701100  0.76910300  1
  O  O14  1  0.27748900  0.74346700  0.11269000  1
  O  O15  1  0.74346700  0.27748900  0.11269000  1
  O  O16  1  0.72251100  0.25653300  0.61269000  1
  O  O17  1  0.25653300  0.72251100  0.61269000  1
  O  O18  1  0.45863800  0.45863800  0.71841900  1
  O  O19  1  0.54136200  0.54136200  0.21841900  1
loop_
_geom_bond_atom_site_label_1
_geom_bond_atom_site_label_2
_geom_bond_distance
_geom_bond_site_symmetry_2
Na0 O14 2.272415 1_555
Na0 O0 2.372921 1_554
Na0 O10 2.429535 1_555
Na0 O19 2.538937 1_555
Na0 O6 2.599114 1_554
Na1 O15 2.272415 1_555
Na1 O0 2.372921 1_554
Na1 O11 2.429535 1_555
Na1 O19 2.538937 1_555
Na1 O7 2.599114 1_554
Na2 O16 2.272415 1_555
Na2 O1 2.372921 1_555
Na2 O12 2.429535 1_555
Na2 O18 2.538937 1_555
Na2 O8 2.599114 1_555
Na3 O17 2.272415 1_555
Na3 O1 2.372921 1_555
Na3 O13 2.429535 1_555
Na3 O18 2.538937 1_555
Na3 O9 2.599114 1_555
Na4 O10 2.497249 1_556
Na4 O11 2.497249 1_556
Na4 O0 2.546464 1_555
Na4 O5 2.570409 1_566
Na4 O4 2.570409 1_656
Na4 O2 2.663092 1_565
Na4 O3 2.663092 1_655
Na5 O12 2.497249 1_555
Na5 O13 2.497249 1_555
Na5 O1 2.546464 1_555
Na5 O2 2.570409 1_455
Na5 O3 2.570409 1_545
Na5 O5 2.663092 1_455
Na5 O4 2.663092 1_545
H0 O16 0.977626 1_555
H1 O17 0.977626 1_555
H2 O14 0.977626 1_555
H3 O15 0.977626 1_555
H4 O17 0.979362 1_555
H5 O16 0.979362 1_555
H6 O15 0.979362 1_555
H7 O14 0.979362 1_555
H8 O18 0.986931 1_555
H9 O19 0.986931 1_555
H10 O18 1.006256 1_555
H10 O0 1.716868 1_555
H11 O19 1.006256 1_555
H11 O1 1.716868 1_555
N0 O0 1.404837 1_555
N0 S1 1.765918 1_555
N0 S0 1.765918 1_555
N1 O1 1.404837 1_555
N1 S2 1.765918 1_555
N1 S3 1.765918 1_555
O2 S0 1.478173 1_545
O3 S1 1.478173 1_455
O4 S2 1.478173 1_565
O5 S3 1.478173 1_655
O6 S0 1.458080 1_555
O7 S1 1.458080 1_555
O8 S2 1.458080 1_555
O9 S3 1.458080 1_555
O10 S0 1.465706 1_555
O11 S1 1.465706 1_555
O12 S2 1.465706 1_556
O13 S3 1.465706 1_556
