# generated using pymatgen
data_FeOF
_symmetry_space_group_name_H-M   'P 1'
_cell_length_a   3.09815500
_cell_length_b   9.45686100
_cell_length_c   14.19824090
_cell_angle_alpha   89.77559813
_cell_angle_beta   90.00000000
_cell_angle_gamma   90.00000000
_symmetry_Int_Tables_number   1
_chemical_formula_structural   FeOF
_chemical_formula_sum   'Fe12 O12 F12'
_cell_volume   415.98853072
_cell_formula_units_Z   12
loop_
 _symmetry_equiv_pos_site_id
 _symmetry_equiv_pos_as_xyz
  1  'x, y, z'
loop_
 _atom_site_type_symbol
 _atom_site_label
 _atom_site_symmetry_multiplicity
 _atom_site_fract_x
 _atom_site_fract_y
 _atom_site_fract_z
 _atom_site_occupancy
  Fe  Fe0  1  0.00000000  0.00277300  0.99979500  1
  Fe  Fe1  1  0.00000000  0.49640800  0.99179100  1
  Fe  Fe2  1  0.50000000  0.28004600  0.83327800  1
  Fe  Fe3  1  0.50000000  0.75030000  0.85256500  1
  Fe  Fe4  1  0.00000000  0.00490000  0.66241900  1
  Fe  Fe5  1  0.00000000  0.48781800  0.66071900  1
  Fe  Fe6  1  0.50000000  0.75389900  0.47903700  1
  Fe  Fe7  1  0.50000000  0.24620600  0.51105300  1
  Fe  Fe8  1  0.00000000  0.98995300  0.32438700  1
  Fe  Fe9  1  0.00000000  0.51440900  0.33392800  1
  Fe  Fe10  1  0.50000000  0.22081900  0.16913900  1
  Fe  Fe11  1  0.50000000  0.74514300  0.18098200  1
  O  O0  1  0.50000000  0.39896700  0.94167300  1
  O  O1  1  0.50000000  0.90918100  0.93185600  1
  O  O2  1  0.00000000  0.64970800  0.89832000  1
  O  O3  1  0.00000000  0.35097600  0.76510100  1
  O  O4  1  0.50000000  0.40819000  0.59522600  1
  O  O5  1  0.00000000  0.14692100  0.57030400  1
  O  O6  1  0.00000000  0.85564100  0.43714200  1
  O  O7  1  0.50000000  0.58824400  0.40095000  1
  O  O8  1  0.50000000  0.89925300  0.26792500  1
  O  O9  1  0.00000000  0.15253300  0.23638300  1
  O  O10  1  0.00000000  0.64696100  0.23011300  1
  O  O11  1  0.50000000  0.09890700  0.06152000  1
  F  F0  1  0.00000000  0.15489300  0.88878300  1
  F  F1  1  0.00000000  0.85210800  0.76140600  1
  F  F2  1  0.50000000  0.09163800  0.73345400  1
  F  F3  1  0.50000000  0.60619900  0.72701600  1
  F  F4  1  0.50000000  0.90033200  0.60498300  1
  F  F5  1  0.00000000  0.66330400  0.56841300  1
  F  F6  1  0.00000000  0.33603900  0.43372900  1
  F  F7  1  0.50000000  0.10261200  0.40268300  1
  F  F8  1  0.50000000  0.39930500  0.27007900  1
  F  F9  1  0.00000000  0.35575600  0.10710700  1
  F  F10  1  0.00000000  0.83982700  0.10017700  1
  F  F11  1  0.50000000  0.59983000  0.06656600  1
loop_
_geom_bond_atom_site_label_1
_geom_bond_atom_site_label_2
_geom_bond_distance
_geom_bond_site_symmetry_2
Fe0 O11 2.000111 1_456
Fe0 O11 2.000111 1_556
Fe0 O1 2.029825 1_445
Fe0 O1 2.029825 1_545
Fe1 O0 1.939142 1_455
Fe1 O0 1.939142 1_555
Fe1 O2 1.961612 1_555
Fe2 O0 1.909687 1_555
Fe2 O3 1.944609 1_555
Fe2 O3 1.944609 1_655
Fe3 O1 1.881014 1_555
Fe3 O2 1.929190 1_655
Fe3 O2 1.929190 1_555
Fe4 O5 1.870992 1_555
Fe5 O4 1.958793 1_455
Fe5 O4 1.958793 1_555
Fe5 O3 1.963697 1_555
Fe6 O6 1.916961 1_555
Fe6 O6 1.916961 1_655
Fe6 O7 1.922753 1_555
Fe7 O4 1.946592 1_555
Fe7 O5 1.995683 1_555
Fe7 O5 1.995683 1_655
Fe8 O8 1.945097 1_455
Fe8 O8 1.945097 1_555
Fe8 O9 1.977398 1_565
Fe8 O6 2.039695 1_555
Fe9 O10 1.931192 1_555
Fe9 O7 1.948827 1_455
Fe9 O7 1.948827 1_555
Fe10 O11 1.917752 1_555
Fe10 O9 1.929604 1_555
Fe10 O9 1.929604 1_655
Fe11 O8 1.913618 1_555
Fe11 O10 1.934755 1_655
Fe11 O10 1.934755 1_555
F0 Fe2 2.100999 1_555
F0 Fe2 2.100999 1_455
F0 Fe0 2.129806 1_555
F1 Fe4 2.011763 1_565
F1 Fe3 2.234287 1_555
F1 Fe3 2.234287 1_455
F2 Fe4 2.023902 1_655
F2 Fe4 2.023902 1_555
F2 Fe2 2.281056 1_555
F3 Fe5 2.132429 1_555
F3 Fe5 2.132429 1_655
F3 Fe3 2.248037 1_555
F4 Fe4 2.012182 1_565
F4 Fe4 2.012182 1_665
F4 Fe6 2.266001 1_555
F5 Fe5 2.110613 1_555
F5 Fe6 2.176109 1_555
F5 Fe6 2.176109 1_455
F6 Fe7 2.078306 1_555
F6 Fe7 2.078306 1_455
F6 Fe9 2.198755 1_555
F7 Fe7 2.056180 1_555
F7 Fe8 2.186275 1_545
F7 Fe8 2.186275 1_645
F8 Fe9 2.100970 1_555
F8 Fe9 2.100970 1_655
F8 Fe10 2.218556 1_555
F9 Fe1 2.105440 1_554
F9 Fe10 2.189733 1_455
F9 Fe10 2.189733 1_555
F10 Fe0 2.094917 1_564
F10 Fe11 2.123589 1_555
F10 Fe11 2.123589 1_455
F11 Fe1 2.119316 1_554
F11 Fe1 2.119316 1_654
F11 Fe11 2.131888 1_555
