# generated using pymatgen
data_VO2F
_symmetry_space_group_name_H-M   'P 1'
_cell_length_a   5.10327300
_cell_length_b   5.14759257
_cell_length_c   13.03346029
_cell_angle_alpha   91.21395233
_cell_angle_beta   89.96895947
_cell_angle_gamma   119.47479868
_symmetry_Int_Tables_number   1
_chemical_formula_structural   VO2F
_chemical_formula_sum   'V6 O12 F6'
_cell_volume   297.98335982
_cell_formula_units_Z   6
loop_
 _symmetry_equiv_pos_site_id
 _symmetry_equiv_pos_as_xyz
  1  'x, y, z'
loop_
 _atom_site_type_symbol
 _atom_site_label
 _atom_site_symmetry_multiplicity
 _atom_site_fract_x
 _atom_site_fract_y
 _atom_site_fract_z
 _atom_site_occupancy
  V  V0  1  0.94298600  0.95992500  0.50353400  1
  V  V1  1  0.95472400  0.99148400  0.99825900  1
  V  V2  1  0.63177400  0.35205700  0.16769500  1
  V  V3  1  0.27986700  0.63542600  0.33473800  1
  V  V4  1  0.71442200  0.35585200  0.66702700  1
  V  V5  1  0.36350900  0.73172600  0.83066800  1
  O  O0  1  0.01147900  0.41368800  0.25007500  1
  O  O1  1  0.34703400  0.25343900  0.08450400  1
  O  O2  1  0.58384900  0.00178800  0.74746600  1
  O  O3  1  0.99439600  0.58011500  0.75173000  1
  O  O4  1  0.75935200  0.07349800  0.08212800  1
  O  O5  1  0.09482600  0.74946300  0.41645900  1
  O  O6  1  0.59597800  0.58701000  0.25072400  1
  O  O7  1  0.92077500  0.25460600  0.58600700  1
  O  O8  1  0.26393700  0.91649700  0.91555000  1
  O  O9  1  0.73749600  0.66122400  0.58153300  1
  O  O10  1  0.67880500  0.74411200  0.91402500  1
  O  O11  1  0.68459300  0.92159300  0.41680700  1
  F  F0  1  0.41589600  0.99948700  0.24964900  1
  F  F1  1  0.33420400  0.08113300  0.58358400  1
  F  F2  1  0.07437700  0.32566700  0.91839100  1
  F  F3  1  0.27146200  0.33606500  0.41645700  1
  F  F4  1  0.40791000  0.40951400  0.74942000  1
  F  F5  1  0.93635100  0.66463300  0.08357000  1
loop_
_geom_bond_atom_site_label_1
_geom_bond_atom_site_label_2
_geom_bond_distance
_geom_bond_site_symmetry_2
O0 V3 1.675174 1_555
O0 V2 2.095509 1_455
O1 V2 1.672519 1_555
O1 V1 2.090840 1_444
O2 V5 1.702108 1_545
O2 V4 1.936495 1_555
O3 V4 1.708042 1_555
O3 V5 1.933193 1_655
O4 V1 1.661528 1_544
O4 V2 2.138665 1_555
O5 V3 1.699616 1_555
O5 V0 1.958362 1_455
O6 V2 1.681943 1_555
O6 V3 2.060513 1_555
O7 V4 1.735292 1_555
O7 V0 1.889242 1_545
O8 V5 1.678447 1_555
O8 V1 2.093100 1_455
O9 V0 1.725017 1_555
O9 V4 1.902204 1_555
O10 V1 1.728424 1_555
O10 V5 1.916093 1_555
O11 V0 1.670803 1_555
O11 V3 2.126407 1_555
F0 V2 1.939514 1_565
F0 V3 2.007686 1_555
F1 V4 2.045583 1_555
F1 V0 2.052471 1_445
F2 V1 1.859344 1_445
F2 V5 2.217606 1_555
F3 V3 1.874922 1_555
F3 V0 2.178069 1_445
F4 V4 2.021651 1_555
F4 V5 2.053990 1_555
F5 V2 1.954185 1_555
F5 V1 1.999953 1_554
