# generated using pymatgen
data_LiMn2(PO4)2
_symmetry_space_group_name_H-M   'P 1'
_cell_length_a   12.59119595
_cell_length_b   9.06824005
_cell_length_c   8.59345823
_cell_angle_alpha   104.67206103
_cell_angle_beta   80.45557922
_cell_angle_gamma   74.92400716
_symmetry_Int_Tables_number   1
_chemical_formula_structural   LiMn2(PO4)2
_chemical_formula_sum   'Li6 Mn12 P12 O48'
_cell_volume   887.89365508
_cell_formula_units_Z   6
loop_
 _symmetry_equiv_pos_site_id
 _symmetry_equiv_pos_as_xyz
  1  'x, y, z'
loop_
 _atom_site_type_symbol
 _atom_site_label
 _atom_site_symmetry_multiplicity
 _atom_site_fract_x
 _atom_site_fract_y
 _atom_site_fract_z
 _atom_site_occupancy
  Li  Li0  1  0.12145200  0.87043700  0.01130400  1
  Li  Li1  1  0.23778300  0.26298900  0.49382700  1
  Li  Li2  1  0.39239900  0.61843900  0.99186000  1
  Li  Li3  1  0.50133100  0.99785400  0.49783000  1
  Li  Li4  1  0.76229700  0.73749500  0.50855200  1
  Li  Li5  1  0.86331000  0.14123400  0.98832400  1
  Mn  Mn0  1  0.03962200  0.89722200  0.61588300  1
  Mn  Mn1  1  0.23254800  0.48790100  0.27720000  1
  Mn  Mn2  1  0.13008500  0.48752300  0.93340300  1
  Mn  Mn3  1  0.36900700  0.01441000  0.06445700  1
  Mn  Mn4  1  0.46194500  0.60157900  0.37966900  1
  Mn  Mn5  1  0.26169700  0.01144800  0.72361800  1
  Mn  Mn6  1  0.73732300  0.98986000  0.27473600  1
  Mn  Mn7  1  0.54171500  0.39516300  0.61397100  1
  Mn  Mn8  1  0.62954400  0.99075900  0.93434400  1
  Mn  Mn9  1  0.87034600  0.51616700  0.06721900  1
  Mn  Mn10  1  0.76387700  0.50842100  0.73208700  1
  Mn  Mn11  1  0.96026900  0.10302800  0.38296200  1
  P  P0  1  0.10920300  0.22728700  0.12595800  1
  P  P1  1  0.24933700  0.87173300  0.34019600  1
  P  P2  1  0.02086200  0.26567500  0.70458100  1
  P  P3  1  0.25414200  0.62501400  0.65917000  1
  P  P4  1  0.60473200  0.73955900  0.12864600  1
  P  P5  1  0.47913600  0.23016300  0.29277900  1
  P  P6  1  0.52100800  0.76957800  0.70686200  1
  P  P7  1  0.39312700  0.26772900  0.87036900  1
  P  P8  1  0.74924000  0.37739800  0.34259500  1
  P  P9  1  0.97858000  0.73430900  0.29607000  1
  P  P10  1  0.75221600  0.12067800  0.65529700  1
  P  P11  1  0.88966900  0.77193500  0.87484000  1
  O  O0  1  0.04310200  0.35156300  0.05272600  1
  O  O1  1  0.11640400  0.92455500  0.40543800  1
  O  O2  1  0.09731900  0.63529300  0.17437200  1
  O  O3  1  0.03310900  0.12369900  0.17257500  1
  O  O4  1  0.27834900  0.88048800  0.15994100  1
  O  O5  1  0.00600700  0.25774500  0.52719400  1
  O  O6  1  0.15299900  0.30716200  0.27151500  1
  O  O7  1  0.29436300  0.98192500  0.46300700  1
  O  O8  1  0.28469700  0.38961800  0.00432600  1
  O  O9  1  0.20120000  0.80505000  0.66978300  1
  O  O10  1  0.29789900  0.69093100  0.32677800  1
  O  O11  1  0.21275100  0.51010400  0.53687200  1
  O  O12  1  0.11883700  0.33779000  0.72219700  1
  O  O13  1  0.54688500  0.86024400  0.04084800  1
  O  O14  1  0.06193200  0.09893400  0.73643500  1
  O  O15  1  0.22266800  0.62120300  0.84124600  1
  O  O16  1  0.51824300  0.65310800  0.17532600  1
  O  O17  1  0.43137300  0.39846900  0.27176300  1
  O  O18  1  0.40204700  0.86391200  0.82905100  1
  O  O19  1  0.38666000  0.57817300  0.59748100  1
  O  O20  1  0.38484300  0.14967100  0.27716600  1
  O  O21  1  0.50419900  0.76744200  0.53023100  1
  O  O22  1  0.63405800  0.83538700  0.28347400  1
  O  O23  1  0.78739500  0.90051200  0.01599000  1
  O  O24  1  0.21270900  0.09998400  0.98489300  1
  O  O25  1  0.36305000  0.16881600  0.71822000  1
  O  O26  1  0.49730800  0.23106400  0.46939500  1
  O  O27  1  0.61427900  0.85174900  0.72422200  1
  O  O28  1  0.61591700  0.42222800  0.39979800  1
  O  O29  1  0.59770900  0.13293100  0.17132500  1
  O  O30  1  0.56638200  0.60204400  0.73314500  1
  O  O31  1  0.46404300  0.37498700  0.82175900  1
  O  O32  1  0.78694000  0.38518300  0.16425400  1
  O  O33  1  0.93786500  0.89971600  0.26175100  1
  O  O34  1  0.45793900  0.15020400  0.95265200  1
  O  O35  1  0.88149600  0.66035000  0.27815500  1
  O  O36  1  0.78660600  0.49078500  0.47265700  1
  O  O37  1  0.70090000  0.30110700  0.67104400  1
  O  O38  1  0.80008200  0.19552000  0.32775000  1
  O  O39  1  0.71431800  0.61635500  0.00114300  1
  O  O40  1  0.70743400  0.01170100  0.53021200  1
  O  O41  1  0.84626800  0.69069000  0.73019500  1
  O  O42  1  0.99308100  0.74248900  0.47364700  1
  O  O43  1  0.73135600  0.09620800  0.82805900  1
  O  O44  1  0.97029600  0.86932200  0.82809300  1
  O  O45  1  0.90266900  0.36461000  0.82821800  1
  O  O46  1  0.88518100  0.07334700  0.58845000  1
  O  O47  1  0.95376600  0.64538200  0.95114900  1
loop_
_geom_bond_atom_site_label_1
_geom_bond_atom_site_label_2
_geom_bond_distance
_geom_bond_site_symmetry_2
Li0 O3 2.231595 1_565
Li0 O15 2.253617 1_554
Li0 O4 2.532586 1_555
Li1 O12 2.092125 1_555
Li1 O11 2.105186 1_555
Li1 O20 2.202010 1_555
Li1 O7 2.392644 1_545
Li1 O6 2.406525 1_555
Li2 O31 2.171707 1_555
Li2 O4 2.365082 1_556
Li2 O16 2.435520 1_556
Li3 O22 2.163371 1_555
Li3 O21 2.168721 1_555
Li3 O26 2.178263 1_565
Li3 O25 2.244284 1_565
Li4 O35 2.104455 1_555
Li4 O36 2.111137 1_555
Li4 O27 2.204347 1_555
Li4 O40 2.350362 1_565
Li4 O41 2.402027 1_555
Li5 O32 2.195723 1_556
Li5 O43 2.377138 1_555
Li5 O44 2.393253 1_545
Mn0 O42 1.898086 1_455
Mn0 O14 1.975314 1_565
Mn0 O44 1.993053 1_455
Mn0 O1 2.009604 1_555
Mn0 O9 2.162459 1_555
Mn0 O46 2.261642 1_465
Mn1 O6 2.126391 1_555
Mn1 O11 2.154997 1_555
Mn1 O10 2.180669 1_555
Mn1 O8 2.202373 1_555
Mn1 O2 2.319451 1_555
Mn1 O17 2.411015 1_555
Mn2 O12 2.023556 1_555
Mn2 O2 2.068168 1_556
Mn2 O15 2.090677 1_555
Mn2 O8 2.172098 1_556
Mn2 O0 2.177491 1_556
Mn2 O47 2.263864 1_455
Mn3 O20 1.999454 1_555
Mn3 O18 2.038371 1_544
Mn3 O4 2.089609 1_545
Mn3 O34 2.157132 1_554
Mn3 O24 2.205262 1_554
Mn3 O13 2.255807 1_545
Mn4 O21 1.969290 1_555
Mn4 O16 1.994891 1_555
Mn4 O17 2.005606 1_555
Mn4 O19 2.040739 1_555
Mn4 O10 2.181014 1_555
Mn4 O28 2.246577 1_555
Mn5 O24 2.106224 1_555
Mn5 O7 2.142416 1_545
Mn5 O25 2.151385 1_555
Mn5 O9 2.171929 1_545
Mn5 O18 2.376737 1_545
Mn5 O14 2.407067 1_555
Mn6 O23 2.086809 1_555
Mn6 O40 2.113693 1_565
Mn6 O22 2.151011 1_555
Mn6 O38 2.183054 1_565
Mn6 O29 2.340702 1_565
Mn6 O33 2.417276 1_555
Mn7 O26 1.948657 1_555
Mn7 O31 1.964132 1_555
Mn7 O28 2.024449 1_555
Mn7 O30 2.024882 1_555
Mn7 O37 2.152665 1_555
Mn7 O19 2.260813 1_555
Mn8 O27 1.993623 1_555
Mn8 O43 2.020839 1_565
Mn8 O29 2.024982 1_566
Mn8 O13 2.048235 1_556
Mn8 O34 2.220556 1_565
Mn8 O23 2.240422 1_556
Mn9 O35 1.998571 1_555
Mn9 O32 2.017251 1_555
Mn9 O45 2.067533 1_554
Mn9 O47 2.087107 1_554
Mn9 O39 2.170298 1_555
Mn9 O0 2.258773 1_655
Mn10 O36 2.159097 1_555
Mn10 O41 2.169886 1_555
Mn10 O39 2.179613 1_556
Mn10 O37 2.202749 1_555
Mn10 O45 2.296967 1_555
Mn10 O30 2.407258 1_555
Mn11 O5 1.900645 1_655
Mn11 O3 1.963722 1_655
Mn11 O46 1.975864 1_555
Mn11 O33 1.989693 1_545
Mn11 O38 2.153043 1_555
Mn11 O1 2.269504 1_645
O0 P0 1.550430 1_555
O1 P1 1.575126 1_555
O2 P9 1.562893 1_455
O3 P0 1.578732 1_555
O4 P1 1.558501 1_555
O5 P2 1.552377 1_555
O6 P0 1.539772 1_555
O7 P1 1.546806 1_555
O8 P7 1.568462 1_554
O9 P3 1.567280 1_555
O10 P1 1.560339 1_555
O11 P3 1.539915 1_555
O12 P2 1.550433 1_555
O13 P4 1.575862 1_555
O14 P2 1.574324 1_555
O15 P3 1.560545 1_555
O16 P4 1.555627 1_555
O17 P5 1.556236 1_555
O18 P6 1.560377 1_555
O19 P3 1.571450 1_555
O20 P5 1.553834 1_555
O21 P6 1.562970 1_555
O22 P4 1.551092 1_555
O23 P11 1.572759 1_554
O24 P0 1.576455 1_556
O25 P7 1.550581 1_555
O26 P5 1.570291 1_555
O27 P6 1.553612 1_555
O28 P8 1.579568 1_555
O29 P5 1.558213 1_555
O30 P6 1.565440 1_555
O31 P7 1.565804 1_555
O32 P8 1.552436 1_555
O33 P9 1.572850 1_555
O34 P7 1.556416 1_555
O35 P9 1.550602 1_555
O36 P8 1.540025 1_555
O37 P10 1.556200 1_555
O38 P8 1.569525 1_555
O39 P4 1.558604 1_555
O40 P10 1.550072 1_555
O41 P11 1.535340 1_555
O42 P9 1.552295 1_555
O43 P10 1.546034 1_555
O44 P11 1.575678 1_555
O45 P2 1.564191 1_655
O46 P10 1.580974 1_555
O47 P11 1.572674 1_555
