# generated using pymatgen
data_Li2FeF4
_symmetry_space_group_name_H-M   'P 1'
_cell_length_a   3.14583000
_cell_length_b   5.04737400
_cell_length_c   9.86346500
_cell_angle_alpha   90.00000000
_cell_angle_beta   90.00000000
_cell_angle_gamma   90.00000000
_symmetry_Int_Tables_number   1
_chemical_formula_structural   Li2FeF4
_chemical_formula_sum   'Li4 Fe2 F8'
_cell_volume   156.61387812
_cell_formula_units_Z   2
loop_
 _symmetry_equiv_pos_site_id
 _symmetry_equiv_pos_as_xyz
  1  'x, y, z'
loop_
 _atom_site_type_symbol
 _atom_site_label
 _atom_site_symmetry_multiplicity
 _atom_site_fract_x
 _atom_site_fract_y
 _atom_site_fract_z
 _atom_site_occupancy
  Li  Li0  1  0.50000000  0.02819100  0.70521700  1
  Li  Li1  1  0.50000000  0.47180900  0.20521700  1
  Li  Li2  1  0.50000000  0.52819100  0.79478300  1
  Li  Li3  1  0.50000000  0.97180900  0.29478300  1
  Fe  Fe0  1  0.00000000  0.00000000  0.00000000  1
  Fe  Fe1  1  0.00000000  0.50000000  0.50000000  1
  F  F0  1  0.00000000  0.25749000  0.15839300  1
  F  F1  1  0.50000000  0.29913800  0.39414200  1
  F  F2  1  0.50000000  0.20086200  0.89414200  1
  F  F3  1  0.00000000  0.24251000  0.65839300  1
  F  F4  1  0.00000000  0.75749000  0.34160700  1
  F  F5  1  0.50000000  0.79913800  0.10585800  1
  F  F6  1  0.50000000  0.70086200  0.60585800  1
  F  F7  1  0.00000000  0.74251000  0.84160700  1
loop_
_geom_bond_atom_site_label_1
_geom_bond_atom_site_label_2
_geom_bond_distance
_geom_bond_site_symmetry_2
F0 Li1 1.964063 1_555
F0 Li1 1.964063 1_455
F0 Fe0 2.032210 1_555
F1 Li3 1.920951 1_545
F1 Li1 2.057192 1_555
F1 Fe1 2.142920 1_655
F1 Fe1 2.142920 1_555
F2 Li2 1.920951 1_555
F2 Li0 2.057192 1_555
F2 Fe0 2.142920 1_656
F2 Fe0 2.142920 1_556
F3 Li0 1.964063 1_555
F3 Li0 1.964063 1_455
F3 Fe1 2.032210 1_555
F4 Li3 1.964063 1_555
F4 Li3 1.964063 1_455
F4 Fe1 2.032210 1_555
F5 Li1 1.920951 1_555
F5 Li3 2.057192 1_555
F5 Fe0 2.142920 1_565
F5 Fe0 2.142920 1_665
F6 Li0 1.920951 1_565
F6 Li2 2.057192 1_555
F6 Fe1 2.142920 1_655
F6 Fe1 2.142920 1_555
F7 Li2 1.964063 1_455
F7 Li2 1.964063 1_555
F7 Fe0 2.032210 1_566
