# generated using pymatgen
data_V2CrO7
_symmetry_space_group_name_H-M   'P 1'
_cell_length_a   8.63583900
_cell_length_b   8.63583900
_cell_length_c   8.63583900
_cell_angle_alpha   90.00000000
_cell_angle_beta   90.00000000
_cell_angle_gamma   90.00000000
_symmetry_Int_Tables_number   1
_chemical_formula_structural   V2CrO7
_chemical_formula_sum   'V8 Cr4 O28'
_cell_volume   644.04114175
_cell_formula_units_Z   4
loop_
 _symmetry_equiv_pos_site_id
 _symmetry_equiv_pos_as_xyz
  1  'x, y, z'
loop_
 _atom_site_type_symbol
 _atom_site_label
 _atom_site_symmetry_multiplicity
 _atom_site_fract_x
 _atom_site_fract_y
 _atom_site_fract_z
 _atom_site_occupancy
  V  V0  1  0.11915200  0.88084800  0.38084800  1
  V  V1  1  0.11915200  0.61915200  0.88084800  1
  V  V2  1  0.38084800  0.38084800  0.38084800  1
  V  V3  1  0.38084800  0.11915200  0.88084800  1
  V  V4  1  0.61915200  0.61915200  0.61915200  1
  V  V5  1  0.61915200  0.88084800  0.11915200  1
  V  V6  1  0.88084800  0.11915200  0.61915200  1
  V  V7  1  0.88084800  0.38084800  0.11915200  1
  Cr  Cr0  1  0.00000000  0.00000000  0.00000000  1
  Cr  Cr1  1  0.00000000  0.50000000  0.50000000  1
  Cr  Cr2  1  0.50000000  0.00000000  0.50000000  1
  Cr  Cr3  1  0.50000000  0.50000000  0.00000000  1
  O  O0  1  0.00000000  0.00000000  0.50000000  1
  O  O1  1  0.00000000  0.50000000  0.00000000  1
  O  O2  1  0.06244000  0.69191600  0.40749400  1
  O  O3  1  0.06244000  0.80808400  0.90749400  1
  O  O4  1  0.09250600  0.56244000  0.69191600  1
  O  O5  1  0.09250600  0.93756000  0.19191600  1
  O  O6  1  0.19191600  0.09250600  0.93756000  1
  O  O7  1  0.19191600  0.40749400  0.43756000  1
  O  O8  1  0.30808400  0.59250600  0.93756000  1
  O  O9  1  0.30808400  0.90749400  0.43756000  1
  O  O10  1  0.40749400  0.06244000  0.69191600  1
  O  O11  1  0.40749400  0.43756000  0.19191600  1
  O  O12  1  0.43756000  0.30808400  0.90749400  1
  O  O13  1  0.43756000  0.19191600  0.40749400  1
  O  O14  1  0.50000000  0.50000000  0.50000000  1
  O  O15  1  0.50000000  0.00000000  0.00000000  1
  O  O16  1  0.56244000  0.69191600  0.09250600  1
  O  O17  1  0.56244000  0.80808400  0.59250600  1
  O  O18  1  0.59250600  0.56244000  0.80808400  1
  O  O19  1  0.59250600  0.93756000  0.30808400  1
  O  O20  1  0.69191600  0.09250600  0.56244000  1
  O  O21  1  0.69191600  0.40749400  0.06244000  1
  O  O22  1  0.80808400  0.59250600  0.56244000  1
  O  O23  1  0.80808400  0.90749400  0.06244000  1
  O  O24  1  0.90749400  0.06244000  0.80808400  1
  O  O25  1  0.90749400  0.43756000  0.30808400  1
  O  O26  1  0.93756000  0.19191600  0.09250600  1
  O  O27  1  0.93756000  0.30808400  0.59250600  1
loop_
_geom_bond_atom_site_label_1
_geom_bond_atom_site_label_2
_geom_bond_distance
_geom_bond_site_symmetry_2
Cr0 O23 1.917231 1_445
Cr0 O3 1.917231 1_544
Cr0 O24 1.917231 1_454
Cr0 O5 1.917231 1_545
Cr0 O26 1.917231 1_455
Cr0 O6 1.917231 1_554
Cr1 O25 1.917231 1_455
Cr1 O2 1.917231 1_555
Cr1 O27 1.917231 1_455
Cr1 O4 1.917231 1_555
Cr1 O7 1.917231 1_555
Cr1 O22 1.917231 1_455
Cr2 O10 1.917231 1_555
Cr2 O17 1.917231 1_545
Cr2 O9 1.917231 1_545
Cr2 O13 1.917231 1_555
Cr2 O19 1.917231 1_545
Cr2 O20 1.917231 1_555
Cr3 O12 1.917231 1_554
Cr3 O21 1.917231 1_555
Cr3 O11 1.917231 1_555
Cr3 O16 1.917231 1_555
Cr3 O18 1.917231 1_554
Cr3 O8 1.917231 1_554
O0 V0 1.782241 1_545
O0 V6 1.782241 1_455
O1 V7 1.782241 1_455
O1 V1 1.782241 1_554
O2 V0 1.718978 1_555
O3 V1 1.718978 1_555
O4 V1 1.718978 1_555
O5 V0 1.718978 1_555
O6 V3 1.718978 1_555
O7 V2 1.718978 1_555
O8 V1 1.718978 1_555
O9 V0 1.718978 1_555
O10 V3 1.718978 1_555
O11 V2 1.718978 1_555
O12 V3 1.718978 1_555
O13 V2 1.718978 1_555
O14 V2 1.782241 1_555
O14 V4 1.782241 1_555
O15 V3 1.782241 1_554
O15 V5 1.782241 1_545
O16 V5 1.718978 1_555
O17 V4 1.718978 1_555
O18 V4 1.718978 1_555
O19 V5 1.718978 1_555
O20 V6 1.718978 1_555
O21 V7 1.718978 1_555
O22 V4 1.718978 1_555
O23 V5 1.718978 1_555
O24 V6 1.718978 1_555
O25 V7 1.718978 1_555
O26 V7 1.718978 1_555
O27 V6 1.718978 1_555
