# generated using pymatgen
data_Li2Ti2MnCr2(PO4)6
_symmetry_space_group_name_H-M   'P 1'
_cell_length_a   8.60104500
_cell_length_b   8.63615160
_cell_length_c   8.63886753
_cell_angle_alpha   60.07624150
_cell_angle_beta   60.18768804
_cell_angle_gamma   60.24098215
_symmetry_Int_Tables_number   1
_chemical_formula_structural   Li2Ti2MnCr2(PO4)6
_chemical_formula_sum   'Li2 Ti2 Mn1 Cr2 P6 O24'
_cell_volume   455.47414755
_cell_formula_units_Z   1
loop_
 _symmetry_equiv_pos_site_id
 _symmetry_equiv_pos_as_xyz
  1  'x, y, z'
loop_
 _atom_site_type_symbol
 _atom_site_label
 _atom_site_symmetry_multiplicity
 _atom_site_fract_x
 _atom_site_fract_y
 _atom_site_fract_z
 _atom_site_occupancy
  Li  Li0  1  0.00474900  0.98868400  0.99807200  1
  Li  Li1  1  0.76254300  0.35224000  0.13648900  1
  Ti  Ti0  1  0.56793100  0.13871800  0.14473300  1
  Ti  Ti1  1  0.42414300  0.85811700  0.85788900  1
  Mn  Mn0  1  0.49642400  0.50231700  0.50943500  1
  Cr  Cr0  1  0.93013300  0.35676100  0.35854500  1
  Cr  Cr1  1  0.07308900  0.64512400  0.63967100  1
  P  P0  1  0.75109600  0.46068000  0.74854100  1
  P  P1  1  0.24301900  0.25188400  0.95846700  1
  P  P2  1  0.24658400  0.95961700  0.54312700  1
  P  P3  1  0.75079200  0.03976700  0.45971400  1
  P  P4  1  0.75194700  0.75135700  0.03746500  1
  P  P5  1  0.25288600  0.54063200  0.25095100  1
  O  O0  1  0.06713700  0.11712900  0.50854800  1
  O  O1  1  0.07511700  0.50367400  0.30299200  1
  O  O2  1  0.75340000  0.27503200  0.92325600  1
  O  O3  1  0.57186600  0.62543900  0.80333000  1
  O  O4  1  0.24451800  0.93749100  0.73286200  1
  O  O5  1  0.05588900  0.30588400  0.11470000  1
  O  O6  1  0.41780700  0.19709100  0.00946300  1
  O  O7  1  0.73526900  0.44034400  0.58828500  1
  O  O8  1  0.26444200  0.41547600  0.76594200  1
  O  O9  1  0.24464500  0.08501000  0.93594200  1
  O  O10  1  0.42664100  0.00419200  0.37802900  1
  O  O11  1  0.26686200  0.76563900  0.55452100  1
  O  O12  1  0.73429200  0.24021200  0.43464400  1
  O  O13  1  0.57168800  0.00014100  0.62190300  1
  O  O14  1  0.75340100  0.91353500  0.06676900  1
  O  O15  1  0.73491100  0.57882900  0.22736200  1
  O  O16  1  0.26729200  0.55650100  0.41468100  1
  O  O17  1  0.93219700  0.69726300  0.87954300  1
  O  O18  1  0.57224100  0.80872300  0.99537500  1
  O  O19  1  0.75483300  0.07209300  0.26302800  1
  O  O20  1  0.43823400  0.37944400  0.19374500  1
  O  O21  1  0.24769300  0.73149900  0.08462300  1
  O  O22  1  0.93188000  0.49306000  0.69545000  1
  O  O23  1  0.93241200  0.88340000  0.48890700  1
loop_
_geom_bond_atom_site_label_1
_geom_bond_atom_site_label_2
_geom_bond_distance
_geom_bond_site_symmetry_2
Li0 O4 2.259434 1_555
Li0 O21 2.268910 1_556
Li0 O14 2.275930 1_456
Li0 O9 2.322684 1_565
Li0 O19 2.365219 1_466
Li0 O2 2.386286 1_465
Li1 O19 2.121641 1_555
Li1 O12 2.180422 1_555
Li1 O5 2.271978 1_655
Li1 O2 2.294692 1_554
Li1 O15 2.321106 1_555
Li1 O20 2.484772 1_555
Mn0 O11 2.209836 1_555
Mn0 O8 2.210229 1_555
Mn0 O7 2.215145 1_555
Mn0 O16 2.253749 1_555
Mn0 O12 2.296621 1_555
Mn0 O15 2.313257 1_555
Cr0 O1 1.939894 1_655
Cr0 O0 1.942298 1_655
Cr0 O5 1.996649 1_655
Cr0 O7 2.046935 1_555
Cr0 O12 2.050476 1_555
Cr0 O15 2.075738 1_555
Cr1 O22 1.949877 1_455
Cr1 O23 1.953496 1_455
Cr1 O17 1.964107 1_455
Cr1 O16 2.034841 1_555
Cr1 O11 2.034988 1_555
Cr1 O8 2.053886 1_555
O0 P2 1.513486 1_545
O1 P5 1.516453 1_555
O2 P0 1.559775 1_555
O2 Ti0 2.042935 1_556
O3 P0 1.547254 1_555
O3 Ti1 1.920758 1_555
O4 P2 1.544471 1_555
O4 Ti1 1.972972 1_555
O5 P1 1.533788 1_554
O6 P1 1.556420 1_554
O6 Ti0 1.885039 1_555
O7 P0 1.555547 1_555
O8 P1 1.550982 1_555
O9 P1 1.540145 1_555
O9 Ti1 1.989412 1_545
O10 P2 1.558391 1_545
O10 Ti0 1.875798 1_555
O11 P2 1.552092 1_555
O12 P3 1.573626 1_555
O13 P3 1.533673 1_555
O13 Ti1 1.936229 1_545
O14 P4 1.549254 1_555
O14 Ti0 1.984725 1_565
O15 P4 1.572190 1_555
O16 P5 1.555410 1_555
O17 P4 1.515533 1_556
O18 P4 1.544555 1_556
O18 Ti1 1.916938 1_555
O19 P3 1.563294 1_555
O19 Ti0 2.021946 1_555
O20 P5 1.556742 1_555
O20 Ti0 1.962666 1_555
O21 P5 1.552869 1_555
O21 Ti1 1.972396 1_554
O22 P0 1.516885 1_555
O23 P3 1.511706 1_565
