# generated using pymatgen
data_Li2MnVP2(O4F)2
_symmetry_space_group_name_H-M   'P 1'
_cell_length_a   5.22968700
_cell_length_b   10.41699179
_cell_length_c   10.51744580
_cell_angle_alpha   78.63235367
_cell_angle_beta   83.05581143
_cell_angle_gamma   80.10877707
_symmetry_Int_Tables_number   1
_chemical_formula_structural   Li2MnVP2(O4F)2
_chemical_formula_sum   'Li6 Mn3 V3 P6 O24 F6'
_cell_volume   551.12350458
_cell_formula_units_Z   3
loop_
 _symmetry_equiv_pos_site_id
 _symmetry_equiv_pos_as_xyz
  1  'x, y, z'
loop_
 _atom_site_type_symbol
 _atom_site_label
 _atom_site_symmetry_multiplicity
 _atom_site_fract_x
 _atom_site_fract_y
 _atom_site_fract_z
 _atom_site_occupancy
  Li  Li0  1  0.99579000  0.91961900  0.73109200  1
  Li  Li1  1  0.66867400  0.41377600  0.60128500  1
  Li  Li2  1  0.33478100  0.74603600  0.93446100  1
  Li  Li3  1  0.66653100  0.25321900  0.06544900  1
  Li  Li4  1  0.33262700  0.58771200  0.39790800  1
  Li  Li5  1  0.00311500  0.07990200  0.26896300  1
  Mn  Mn0  1  0.50184100  0.99983600  0.49917400  1
  Mn  Mn1  1  0.66861000  0.33335500  0.33268600  1
  Mn  Mn2  1  0.16643500  0.33336100  0.83349800  1
  V  V0  1  0.99694000  0.99895100  0.00142300  1
  V  V1  1  0.83175300  0.66754000  0.16715000  1
  V  V2  1  0.33337600  0.66684700  0.66623300  1
  P  P0  1  0.81620200  0.62747700  0.86561200  1
  P  P1  1  0.85050900  0.70556200  0.46780700  1
  P  P2  1  0.48103000  0.96193500  0.20031000  1
  P  P3  1  0.51419000  0.03865600  0.80058600  1
  P  P4  1  0.14985600  0.29379300  0.53123300  1
  P  P5  1  0.18716900  0.37277400  0.13452600  1
  O  O0  1  0.74096700  0.97489400  0.88659600  1
  O  O1  1  0.97439500  0.67773400  0.33205600  1
  O  O2  1  0.88545300  0.47732600  0.86676900  1
  O  O3  1  0.78096800  0.85488200  0.46770800  1
  O  O4  1  0.92173400  0.35924200  0.44471300  1
  O  O5  1  0.94472900  0.29913700  0.18307600  1
  O  O6  1  0.59155700  0.69140400  0.77866800  1
  O  O7  1  0.61013100  0.63180500  0.51458200  1
  O  O8  1  0.69291300  0.65657800  0.00091100  1
  O  O9  1  0.54761500  0.81357900  0.20043700  1
  O  O10  1  0.63598900  0.00730200  0.66509700  1
  O  O11  1  0.27466800  0.96484400  0.84998600  1
  O  O12  1  0.72141100  0.03541800  0.15142000  1
  O  O13  1  0.36057400  0.99277800  0.33623000  1
  O  O14  1  0.44649400  0.18850900  0.79963900  1
  O  O15  1  0.30609300  0.33984600  0.99921300  1
  O  O16  1  0.39081500  0.36841200  0.48180500  1
  O  O17  1  0.41434800  0.30739800  0.22152100  1
  O  O18  1  0.05726800  0.70053100  0.81879400  1
  O  O19  1  0.07538300  0.64123200  0.55464700  1
  O  O20  1  0.21936800  0.14489400  0.53322400  1
  O  O21  1  0.11972000  0.52103100  0.13298100  1
  O  O22  1  0.02971500  0.32638500  0.66656700  1
  O  O23  1  0.25473100  0.02548300  0.11407000  1
  F  F0  1  0.92619300  0.19384000  0.94001300  1
  F  F1  1  0.74841200  0.13138900  0.39575900  1
  F  F2  1  0.59602100  0.54004500  0.26753400  1
  F  F3  1  0.40796700  0.47133800  0.72662200  1
  F  F4  1  0.25850600  0.86173500  0.60682900  1
  F  F5  1  0.06643700  0.80066500  0.06313500  1
loop_
_geom_bond_atom_site_label_1
_geom_bond_atom_site_label_2
_geom_bond_distance
_geom_bond_site_symmetry_2
Li0 O10 2.081364 1_565
Li0 O0 2.088767 1_555
Li0 O11 2.195888 1_655
Li0 O18 2.269926 1_655
Li1 O22 2.083686 1_655
Li1 O4 2.090316 1_555
Li1 O16 2.196703 1_555
Li1 O7 2.257396 1_555
Li2 O8 2.079620 1_556
Li2 O6 2.094031 1_555
Li2 O18 2.168296 1_555
Li2 O11 2.259769 1_555
Li3 O15 2.082805 1_554
Li3 O17 2.082865 1_555
Li3 O5 2.187141 1_555
Li3 O12 2.253413 1_555
Li4 O1 2.079184 1_455
Li4 O19 2.099184 1_555
Li4 O7 2.169043 1_555
Li4 O16 2.263044 1_555
Li5 O23 2.072728 1_555
Li5 O13 2.074286 1_545
Li5 O12 2.194128 1_455
Li5 O5 2.266869 1_455
Mn0 O3 1.960446 1_555
Mn0 O13 1.965360 1_555
Mn0 O10 1.977835 1_565
Mn0 O20 1.977963 1_565
Mn1 O17 1.957621 1_555
Mn1 O4 1.959167 1_555
Mn1 O5 2.045246 1_555
Mn1 O16 2.048469 1_555
Mn2 O2 1.963724 1_455
Mn2 O14 1.968559 1_555
Mn2 O15 1.986673 1_555
Mn2 O22 1.992646 1_555
O0 P3 1.554974 1_565
O0 V0 1.984640 1_556
O1 P1 1.554743 1_555
O1 V1 1.997130 1_555
O2 P0 1.541667 1_555
O3 P1 1.535201 1_555
O4 P4 1.566727 1_655
O5 P5 1.574755 1_655
O6 P0 1.552671 1_555
O6 V2 1.977590 1_555
O7 P1 1.563948 1_555
O7 V2 2.064416 1_555
O8 P0 1.553573 1_554
O8 V1 2.002834 1_555
O9 P2 1.524469 1_555
O9 V1 1.988081 1_555
O10 P3 1.560624 1_555
O11 P3 1.564053 1_565
O11 V0 2.063732 1_456
O12 P2 1.565192 1_545
O12 V0 2.051312 1_545
O13 P2 1.561215 1_555
O14 P3 1.538529 1_555
O15 P5 1.560426 1_556
O16 P4 1.575191 1_555
O17 P5 1.565797 1_555
O18 P0 1.562925 1_455
O18 V2 2.066485 1_555
O19 P1 1.553696 1_455
O19 V2 1.974577 1_555
O20 P4 1.527664 1_555
O21 P5 1.521240 1_555
O21 V1 2.005508 1_455
O22 P4 1.561081 1_555
O23 P2 1.554102 1_545
O23 V0 1.985173 1_445
F0 Li3 1.888655 1_556
F0 V0 1.989576 1_546
F0 Mn2 2.142665 1_655
F1 Li5 1.856697 1_655
F1 Mn1 2.062922 1_555
F1 Mn0 2.098603 1_545
F2 Li4 1.897596 1_555
F2 V1 2.023214 1_555
F2 Mn1 2.109487 1_555
F3 Li1 1.884755 1_555
F3 V2 1.995099 1_555
F3 Mn2 2.137380 1_555
F4 Li0 1.884451 1_455
F4 V2 1.987763 1_555
F4 Mn0 2.146956 1_555
F5 Li2 1.922165 1_554
F5 V0 2.022491 1_455
F5 V1 2.070806 1_455
