# generated using pymatgen
data_LiBiB2O5
_symmetry_space_group_name_H-M   'P 1'
_cell_length_a   10.03066900
_cell_length_b   6.45870100
_cell_length_c   7.32450130
_cell_angle_alpha   69.24545075
_cell_angle_beta   90.00000000
_cell_angle_gamma   90.00000000
_symmetry_Int_Tables_number   1
_chemical_formula_structural   LiBiB2O5
_chemical_formula_sum   'Li4 Bi4 B8 O20'
_cell_volume   443.72559795
_cell_formula_units_Z   4
loop_
 _symmetry_equiv_pos_site_id
 _symmetry_equiv_pos_as_xyz
  1  'x, y, z'
loop_
 _atom_site_type_symbol
 _atom_site_label
 _atom_site_symmetry_multiplicity
 _atom_site_fract_x
 _atom_site_fract_y
 _atom_site_fract_z
 _atom_site_occupancy
  Li  Li0  1  0.80379300  0.71613000  0.77663800  1
  Li  Li1  1  0.69620700  0.21613000  0.77663800  1
  Li  Li2  1  0.30379300  0.78387000  0.22336200  1
  Li  Li3  1  0.19620700  0.28387000  0.22336200  1
  Bi  Bi0  1  0.45109500  0.73097600  0.76759000  1
  Bi  Bi1  1  0.04890500  0.23097600  0.76759000  1
  Bi  Bi2  1  0.95109500  0.76902400  0.23241000  1
  Bi  Bi3  1  0.54890500  0.26902400  0.23241000  1
  B  B0  1  0.14461900  0.72726200  0.88915200  1
  B  B1  1  0.35538100  0.22726200  0.88915200  1
  B  B2  1  0.09261200  0.76260300  0.54099200  1
  B  B3  1  0.59261200  0.73739700  0.45900800  1
  B  B4  1  0.40738800  0.26260300  0.54099200  1
  B  B5  1  0.90738800  0.23739700  0.45900800  1
  B  B6  1  0.64461900  0.77273800  0.11084800  1
  B  B7  1  0.85538100  0.27273800  0.11084800  1
  O  O0  1  0.71017700  0.90549900  0.95671000  1
  O  O1  1  0.04168400  0.86923500  0.90136800  1
  O  O2  1  0.78982300  0.40549900  0.95671000  1
  O  O3  1  0.45831600  0.36923500  0.90136800  1
  O  O4  1  0.17980500  0.73402500  0.69794200  1
  O  O5  1  0.64555500  0.71157500  0.63867000  1
  O  O6  1  0.32019500  0.23402500  0.69794200  1
  O  O7  1  0.95624800  0.74063400  0.56074100  1
  O  O8  1  0.85444500  0.21157500  0.63867000  1
  O  O9  1  0.45624800  0.75936600  0.43925900  1
  O  O10  1  0.54375200  0.24063400  0.56074100  1
  O  O11  1  0.14555500  0.78842500  0.36133000  1
  O  O12  1  0.04375200  0.25936600  0.43925900  1
  O  O13  1  0.67980500  0.76597500  0.30205800  1
  O  O14  1  0.35444500  0.28842500  0.36133000  1
  O  O15  1  0.82019500  0.26597500  0.30205800  1
  O  O16  1  0.54168400  0.63076500  0.09863200  1
  O  O17  1  0.21017700  0.59450100  0.04329000  1
  O  O18  1  0.95831600  0.13076500  0.09863200  1
  O  O19  1  0.28982300  0.09450100  0.04329000  1
loop_
_geom_bond_atom_site_label_1
_geom_bond_atom_site_label_2
_geom_bond_distance
_geom_bond_site_symmetry_2
Li0 O5 1.887445 1_555
Li0 O2 1.977108 1_555
Li0 O7 2.164910 1_555
Li0 O0 2.293598 1_555
Li1 O8 1.887445 1_555
Li1 O0 1.977108 1_545
Li1 O10 2.164910 1_555
Li1 O2 2.293598 1_555
Li2 O11 1.887445 1_555
Li2 O19 1.977108 1_565
Li2 O9 2.164910 1_555
Li2 O17 2.293598 1_555
Li3 O14 1.887445 1_555
Li3 O17 1.977108 1_555
Li3 O12 2.164910 1_555
Li3 O19 2.293598 1_555
Bi0 O5 2.189958 1_555
Bi0 O3 2.191236 1_555
Bi0 O9 2.346727 1_555
Bi0 O16 2.451855 1_556
Bi0 O4 2.767408 1_555
Bi1 O8 2.189958 1_455
Bi1 O1 2.191236 1_545
Bi1 O12 2.346727 1_555
Bi1 O18 2.451855 1_456
Bi1 O6 2.767408 1_555
Bi2 O11 2.189958 1_655
Bi2 O18 2.191236 1_565
Bi2 O7 2.346727 1_555
Bi2 O1 2.451855 1_654
Bi2 O13 2.767408 1_555
Bi3 O14 2.189958 1_555
Bi3 O16 2.191236 1_555
Bi3 O10 2.346727 1_555
Bi3 O3 2.451855 1_554
Bi3 O15 2.767408 1_555
B0 O17 1.325209 1_556
B0 O1 1.404650 1_555
B0 O4 1.429884 1_555
B1 O19 1.325209 1_556
B1 O3 1.404650 1_555
B1 O6 1.429884 1_555
B2 O11 1.373307 1_555
B2 O7 1.377479 1_455
B2 O4 1.403622 1_555
B3 O5 1.373307 1_555
B3 O9 1.377479 1_555
B3 O13 1.403622 1_555
B4 O14 1.373307 1_555
B4 O10 1.377479 1_555
B4 O6 1.403622 1_555
B5 O8 1.373307 1_555
B5 O12 1.377479 1_655
B5 O15 1.403622 1_555
B6 O0 1.325209 1_554
B6 O16 1.404650 1_555
B6 O13 1.429884 1_555
B7 O2 1.325209 1_554
B7 O18 1.404650 1_555
B7 O15 1.429884 1_555
