# generated using pymatgen
data_Li3Fe2F7
_symmetry_space_group_name_H-M   'P 1'
_cell_length_a   10.51152900
_cell_length_b   7.68322900
_cell_length_c   9.60000506
_cell_angle_alpha   54.44670265
_cell_angle_beta   90.00000000
_cell_angle_gamma   90.00000000
_symmetry_Int_Tables_number   1
_chemical_formula_structural   Li3Fe2F7
_chemical_formula_sum   'Li12 Fe8 F28'
_cell_volume   630.78117058
_cell_formula_units_Z   4
loop_
 _symmetry_equiv_pos_site_id
 _symmetry_equiv_pos_as_xyz
  1  'x, y, z'
loop_
 _atom_site_type_symbol
 _atom_site_label
 _atom_site_symmetry_multiplicity
 _atom_site_fract_x
 _atom_site_fract_y
 _atom_site_fract_z
 _atom_site_occupancy
  Li  Li0  1  0.58738800  0.73819800  0.72067800  1
  Li  Li1  1  0.20610600  0.35951900  0.02811300  1
  Li  Li2  1  0.91300600  0.11193100  0.19981400  1
  Li  Li3  1  0.08738800  0.26180200  0.77932200  1
  Li  Li4  1  0.29389400  0.35951900  0.52811300  1
  Li  Li5  1  0.41300600  0.88806900  0.30018600  1
  Li  Li6  1  0.58699400  0.11193100  0.69981400  1
  Li  Li7  1  0.70610600  0.64048100  0.47188700  1
  Li  Li8  1  0.91261200  0.73819800  0.22067800  1
  Li  Li9  1  0.08699400  0.88806900  0.80018600  1
  Li  Li10  1  0.79389400  0.64048100  0.97188700  1
  Li  Li11  1  0.41261200  0.26180200  0.27932200  1
  Fe  Fe0  1  0.27971700  0.71369100  0.62435100  1
  Fe  Fe1  1  0.91473000  0.76136400  0.61099300  1
  Fe  Fe2  1  0.41473000  0.23863600  0.88900700  1
  Fe  Fe3  1  0.77971700  0.28630900  0.87564900  1
  Fe  Fe4  1  0.22028300  0.71369100  0.12435100  1
  Fe  Fe5  1  0.58527000  0.76136400  0.11099300  1
  Fe  Fe6  1  0.08527000  0.23863600  0.38900700  1
  Fe  Fe7  1  0.72028300  0.28630900  0.37564900  1
  F  F0  1  0.44902600  0.56890000  0.74905500  1
  F  F1  1  0.37732300  0.22231000  0.10162900  1
  F  F2  1  0.72380500  0.60454500  0.68909600  1
  F  F3  1  0.79703700  0.34901900  0.06088600  1
  F  F4  1  0.88863500  0.12433600  0.41621500  1
  F  F5  1  0.08594500  0.19787500  0.20211800  1
  F  F6  1  0.37629900  0.97951900  0.44706400  1
  F  F7  1  0.22380500  0.39545500  0.81090400  1
  F  F8  1  0.94902600  0.43110000  0.75094500  1
  F  F9  1  0.12267700  0.22231000  0.60162900  1
  F  F10  1  0.87629900  0.02048100  0.05293600  1
  F  F11  1  0.70296300  0.34901900  0.56088600  1
  F  F12  1  0.58594500  0.80212500  0.29788200  1
  F  F13  1  0.61136500  0.12433600  0.91621500  1
  F  F14  1  0.38863500  0.87566400  0.08378500  1
  F  F15  1  0.41405500  0.19787500  0.70211800  1
  F  F16  1  0.29703700  0.65098100  0.43911400  1
  F  F17  1  0.12370100  0.97951900  0.94706400  1
  F  F18  1  0.87732300  0.77769000  0.39837100  1
  F  F19  1  0.05097400  0.56890000  0.24905500  1
  F  F20  1  0.77619500  0.60454500  0.18909600  1
  F  F21  1  0.62370100  0.02048100  0.55293600  1
  F  F22  1  0.91405500  0.80212500  0.79788200  1
  F  F23  1  0.11136500  0.87566400  0.58378500  1
  F  F24  1  0.20296300  0.65098100  0.93911400  1
  F  F25  1  0.27619500  0.39545500  0.31090400  1
  F  F26  1  0.62267700  0.77769000  0.89837100  1
  F  F27  1  0.55097400  0.43110000  0.25094500  1
loop_
_geom_bond_atom_site_label_1
_geom_bond_atom_site_label_2
_geom_bond_distance
_geom_bond_site_symmetry_2
F0 Li0 1.862623 1_555
F0 Fe0 2.071065 1_555
F0 Fe2 2.099829 1_555
F1 Li11 1.934303 1_555
F1 Li1 1.995827 1_555
F1 Fe2 2.009721 1_554
F1 Li5 2.162494 1_545
F2 Li0 1.888041 1_555
F2 Li7 1.946639 1_555
F2 Fe3 2.106860 1_555
F2 Fe1 2.234061 1_555
F3 Li10 1.876390 1_554
F3 Li2 1.938479 1_555
F3 Fe3 2.103318 1_554
F4 Fe7 2.066009 1_555
F4 Li2 2.149598 1_555
F4 Fe6 2.201116 1_655
F4 Fe1 2.298864 1_545
F5 Li1 1.874990 1_555
F5 Li2 1.938581 1_455
F5 Fe6 1.992605 1_555
F6 Li11 1.838799 1_565
F6 Li5 1.944966 1_555
F6 Fe0 2.014044 1_555
F7 Li3 1.888041 1_555
F7 Li1 1.946639 1_556
F7 Fe0 2.106860 1_555
F7 Fe2 2.234061 1_555
F8 Li3 1.862623 1_655
F8 Fe3 2.071065 1_555
F8 Fe1 2.099829 1_555
F9 Li3 1.934303 1_555
F9 Li4 1.995827 1_555
F9 Fe6 2.009721 1_555
F9 Li9 2.162494 1_545
F10 Li8 1.838799 1_545
F10 Li2 1.944966 1_555
F10 Fe3 2.014044 1_554
F11 Li7 1.876390 1_555
F11 Li6 1.938479 1_555
F11 Fe7 2.103318 1_555
F12 Li7 1.874990 1_555
F12 Li5 1.938581 1_555
F12 Fe5 1.992605 1_555
F13 Fe3 2.066009 1_555
F13 Li6 2.149598 1_555
F13 Fe2 2.201116 1_555
F13 Fe5 2.298864 1_546
F14 Fe4 2.066009 1_555
F14 Li5 2.149598 1_555
F14 Fe5 2.201116 1_555
F14 Fe2 2.298864 1_564
F15 Li4 1.874990 1_555
F15 Li6 1.938581 1_555
F15 Fe2 1.992605 1_555
F16 Li4 1.876390 1_555
F16 Li5 1.938479 1_555
F16 Fe0 2.103318 1_555
F17 Li3 1.838799 1_565
F17 Li9 1.944966 1_555
F17 Fe4 2.014044 1_556
F18 Li8 1.934303 1_555
F18 Li7 1.995827 1_555
F18 Fe1 2.009721 1_555
F18 Li2 2.162494 1_565
F19 Li8 1.862623 1_455
F19 Fe4 2.071065 1_555
F19 Fe6 2.099829 1_555
F20 Li8 1.888041 1_555
F20 Li10 1.946639 1_554
F20 Fe7 2.106860 1_555
F20 Fe5 2.234061 1_555
F21 Li0 1.838799 1_545
F21 Li6 1.944966 1_555
F21 Fe7 2.014044 1_555
F22 Li10 1.874990 1_555
F22 Li9 1.938581 1_655
F22 Fe1 1.992605 1_555
F23 Fe0 2.066009 1_555
F23 Li9 2.149598 1_555
F23 Fe1 2.201116 1_455
F23 Fe6 2.298864 1_565
F24 Li1 1.876390 1_556
F24 Li9 1.938479 1_555
F24 Fe4 2.103318 1_556
F25 Li11 1.888041 1_555
F25 Li4 1.946639 1_555
F25 Fe4 2.106860 1_555
F25 Fe6 2.234061 1_555
F26 Li0 1.934303 1_555
F26 Li10 1.995827 1_555
F26 Fe5 2.009721 1_556
F26 Li6 2.162494 1_565
F27 Li11 1.862623 1_555
F27 Fe7 2.071065 1_555
F27 Fe5 2.099829 1_555
