# generated using pymatgen
data_Li4NbFe(TeO6)2
_symmetry_space_group_name_H-M   'P 1'
_cell_length_a   5.08532011
_cell_length_b   5.39618001
_cell_length_c   7.41996462
_cell_angle_alpha   85.53328733
_cell_angle_beta   89.86781217
_cell_angle_gamma   89.89932845
_symmetry_Int_Tables_number   1
_chemical_formula_structural   Li4NbFe(TeO6)2
_chemical_formula_sum   'Li4 Nb1 Fe1 Te2 O12'
_cell_volume   202.99427539
_cell_formula_units_Z   1
loop_
 _symmetry_equiv_pos_site_id
 _symmetry_equiv_pos_as_xyz
  1  'x, y, z'
loop_
 _atom_site_type_symbol
 _atom_site_label
 _atom_site_symmetry_multiplicity
 _atom_site_fract_x
 _atom_site_fract_y
 _atom_site_fract_z
 _atom_site_occupancy
  Li  Li0  1  0.99693117  0.57833760  0.26934465  1
  Li  Li1  1  0.50260666  0.05493463  0.79808690  1
  Li  Li2  1  0.00182362  0.60825997  0.80869379  1
  Li  Li3  1  0.50015639  0.93798998  0.21186131  1
  Nb  Nb0  1  0.50040849  0.49684346  0.50742228  1
  Fe  Fe0  1  0.00025460  0.02159629  0.00218365  1
  Te  Te0  1  0.00054394  0.00499455  0.49935208  1
  Te  Te1  1  0.49706474  0.49857113  0.00386291  1
  O  O0  1  0.69975665  0.81024097  0.42914790  1
  O  O1  1  0.87457598  0.98580581  0.73908815  1
  O  O2  1  0.66803279  0.18619503  0.05340542  1
  O  O3  1  0.82479748  0.31201524  0.43178035  1
  O  O4  1  0.19808033  0.31964551  0.92923083  1
  O  O5  1  0.63119991  0.49128722  0.75505394  1
  O  O6  1  0.37180879  0.50544358  0.24894283  1
  O  O7  1  0.79974081  0.68278850  0.05782658  1
  O  O8  1  0.18034828  0.68796331  0.56087045  1
  O  O9  1  0.31038880  0.79964158  0.93971592  1
  O  O10  1  0.12589476  0.98414762  0.25972020  1
  O  O11  1  0.31558582  0.17569803  0.56560886  1
loop_
_geom_bond_atom_site_label_1
_geom_bond_atom_site_label_2
_geom_bond_distance
_geom_bond_site_symmetry_2
Li0 O7 1.911525 1_555
Li0 O6 1.953767 1_655
Li0 O3 2.003496 1_555
Li0 O10 2.282762 1_655
Li0 O0 2.339223 1_555
Li0 O8 2.471750 1_655
Li1 O9 1.931875 1_545
Li1 O1 1.981922 1_545
Li1 O11 2.033478 1_555
Li1 O2 2.239821 1_556
Li1 O4 2.363742 1_555
Li1 O5 2.441566 1_555
Li2 O4 2.000804 1_555
Li2 O5 2.038590 1_455
Li2 O8 2.064219 1_555
Li2 O9 2.154767 1_555
Li2 O1 2.160811 1_455
Li2 O7 2.177282 1_456
Li3 O2 1.912893 1_565
Li3 O10 1.954343 1_555
Li3 O0 1.984151 1_555
Li3 O7 2.398642 1_555
Li3 O9 2.410926 1_554
Li3 O6 2.419549 1_555
Nb0 O5 1.953554 1_555
Nb0 O8 1.981119 1_555
Nb0 O11 1.990035 1_555
Nb0 O0 2.018741 1_555
Nb0 O6 2.024851 1_555
Nb0 O3 2.026855 1_555
Fe0 O4 1.938904 1_554
Fe0 O2 1.957538 1_455
Fe0 O10 2.011386 1_545
Fe0 O9 2.052595 1_544
Fe0 O1 2.078848 1_444
Fe0 O7 2.107083 1_445
O0 Te0 1.951938 1_665
O1 Te0 1.884571 1_665
O2 Te1 1.905838 1_555
O3 Te0 1.913739 1_655
O4 Te1 1.908642 1_556
O5 Te1 1.969902 1_556
O6 Te1 1.928487 1_555
O7 Te1 1.894168 1_555
O8 Te0 1.961098 1_565
O9 Te1 1.908762 1_556
O10 Te0 1.898991 1_565
O11 Te0 1.932938 1_555
