# generated using pymatgen
data_Ce3TaO7
_symmetry_space_group_name_H-M   'P 1'
_cell_length_a   6.68802057
_cell_length_b   6.68802057
_cell_length_c   7.71698174
_cell_angle_alpha   90.00000000
_cell_angle_beta   90.00000000
_cell_angle_gamma   111.34366250
_symmetry_Int_Tables_number   1
_chemical_formula_structural   Ce3TaO7
_chemical_formula_sum   'Ce6 Ta2 O14'
_cell_volume   321.50334793
_cell_formula_units_Z   2
loop_
 _symmetry_equiv_pos_site_id
 _symmetry_equiv_pos_as_xyz
  1  'x, y, z'
loop_
 _atom_site_type_symbol
 _atom_site_label
 _atom_site_symmetry_multiplicity
 _atom_site_fract_x
 _atom_site_fract_y
 _atom_site_fract_z
 _atom_site_occupancy
  Ce  Ce0  1  0.52044825  0.05988587  0.25000000  1
  Ce  Ce1  1  0.94011413  0.47955175  0.75000000  1
  Ce  Ce2  1  -0.00000000  0.00000000  0.00000000  1
  Ce  Ce3  1  -0.00000000  0.00000000  0.50000000  1
  Ce  Ce4  1  0.05988587  0.52044825  0.25000000  1
  Ce  Ce5  1  0.47955175  0.94011413  0.75000000  1
  Ta  Ta0  1  0.50000000  0.50000000  0.00000000  1
  Ta  Ta1  1  0.50000000  0.50000000  0.50000000  1
  O  O0  1  0.84754967  0.10873698  0.75000000  1
  O  O1  1  0.89126302  0.15245033  0.25000000  1
  O  O2  1  0.43792517  0.18698590  0.53181145  1
  O  O3  1  0.81301410  0.56207483  0.03181145  1
  O  O4  1  0.81301410  0.56207483  0.46818855  1
  O  O5  1  0.43792517  0.18698590  0.96818855  1
  O  O6  1  0.56232566  0.56232566  0.75000000  1
  O  O7  1  0.43767434  0.43767434  0.25000000  1
  O  O8  1  0.18698590  0.43792517  0.96818855  1
  O  O9  1  0.56207483  0.81301410  0.03181145  1
  O  O10  1  0.18698590  0.43792517  0.53181145  1
  O  O11  1  0.56207483  0.81301410  0.46818855  1
  O  O12  1  0.10873698  0.84754967  0.75000000  1
  O  O13  1  0.15245033  0.89126302  0.25000000  1
loop_
_geom_bond_atom_site_label_1
_geom_bond_atom_site_label_2
_geom_bond_distance
_geom_bond_site_symmetry_2
Ce0 O13 2.304084 1_545
Ce0 O1 2.327262 1_555
Ce0 O11 2.444017 1_545
Ce0 O9 2.444017 1_545
Ce0 O5 2.469447 1_554
Ce0 O2 2.469447 1_555
Ce0 O7 2.776443 1_555
Ce1 O12 2.304084 1_655
Ce1 O0 2.327262 1_555
Ce1 O8 2.444017 1_655
Ce1 O10 2.444017 1_655
Ce1 O3 2.469447 1_556
Ce1 O4 2.469447 1_555
Ce1 O6 2.776443 1_555
Ce2 O1 2.414574 1_455
Ce2 O13 2.414574 1_545
Ce2 O12 2.414574 1_544
Ce2 O0 2.414574 1_454
Ce2 O8 2.745210 1_554
Ce2 O5 2.745210 1_554
Ce2 O3 2.745210 1_445
Ce2 O9 2.745210 1_445
Ce3 O1 2.414574 1_455
Ce3 O12 2.414574 1_545
Ce3 O13 2.414574 1_545
Ce3 O0 2.414574 1_455
Ce3 O4 2.745210 1_445
Ce3 O10 2.745210 1_555
Ce3 O2 2.745210 1_555
Ce3 O11 2.745210 1_445
Ce4 O1 2.304084 1_455
Ce4 O13 2.327262 1_555
Ce4 O3 2.444017 1_455
Ce4 O4 2.444017 1_455
Ce4 O8 2.469447 1_554
Ce4 O10 2.469447 1_555
Ce4 O7 2.776443 1_555
Ce5 O0 2.304084 1_565
Ce5 O12 2.327262 1_555
Ce5 O5 2.444017 1_565
Ce5 O2 2.444017 1_565
Ce5 O9 2.469447 1_556
Ce5 O11 2.469447 1_555
Ce5 O6 2.776443 1_555
O2 Ta1 1.995617 1_555
O3 Ta0 1.995617 1_555
O4 Ta1 1.995617 1_555
O5 Ta0 1.995617 1_556
O6 Ta1 1.985702 1_555
O6 Ta0 1.985702 1_556
O7 Ta1 1.985702 1_555
O7 Ta0 1.985702 1_555
O8 Ta0 1.995617 1_556
O9 Ta0 1.995617 1_555
O10 Ta1 1.995617 1_555
O11 Ta1 1.995617 1_555
