# generated using pymatgen
data_Sb2(SO4)3
_symmetry_space_group_name_H-M   'P 1'
_cell_length_a   8.36873723
_cell_length_b   8.36873723
_cell_length_c   9.29531936
_cell_angle_alpha   68.60466095
_cell_angle_beta   68.60466095
_cell_angle_gamma   66.05904815
_symmetry_Int_Tables_number   1
_chemical_formula_structural   Sb2(SO4)3
_chemical_formula_sum   'Sb4 S6 O24'
_cell_volume   535.71684817
_cell_formula_units_Z   2
loop_
 _symmetry_equiv_pos_site_id
 _symmetry_equiv_pos_as_xyz
  1  'x, y, z'
loop_
 _atom_site_type_symbol
 _atom_site_label
 _atom_site_symmetry_multiplicity
 _atom_site_fract_x
 _atom_site_fract_y
 _atom_site_fract_z
 _atom_site_occupancy
  Sb  Sb0  1  0.37127200  0.85609900  0.47303800  1
  Sb  Sb1  1  0.85609900  0.37127200  0.97303800  1
  Sb  Sb2  1  0.14390100  0.62872800  0.02696200  1
  Sb  Sb3  1  0.62872800  0.14390100  0.52696200  1
  S  S0  1  0.75465100  0.54401000  0.32655000  1
  S  S1  1  0.54401000  0.75465100  0.82655000  1
  S  S2  1  0.06055600  0.93944400  0.25000000  1
  S  S3  1  0.93944400  0.06055600  0.75000000  1
  S  S4  1  0.45599000  0.24534900  0.17345000  1
  S  S5  1  0.24534900  0.45599000  0.67345000  1
  O  O0  1  0.89067500  0.94857100  0.37601000  1
  O  O1  1  0.94857100  0.89067500  0.87601000  1
  O  O2  1  0.86204300  0.51120700  0.43040600  1
  O  O3  1  0.61067300  0.72908000  0.31116600  1
  O  O4  1  0.86591400  0.54080100  0.15601600  1
  O  O5  1  0.51120700  0.86204300  0.93040600  1
  O  O6  1  0.21527500  0.89387400  0.31989800  1
  O  O7  1  0.65540000  0.40733800  0.37814100  1
  O  O8  1  0.72908000  0.61067300  0.81116600  1
  O  O9  1  0.54080100  0.86591400  0.65601600  1
  O  O10  1  0.89387400  0.21527500  0.81989800  1
  O  O11  1  0.59266200  0.34460000  0.12185900  1
  O  O12  1  0.40733800  0.65540000  0.87814100  1
  O  O13  1  0.10612600  0.78472500  0.18010200  1
  O  O14  1  0.45919900  0.13408600  0.34398400  1
  O  O15  1  0.27092000  0.38932700  0.18883400  1
  O  O16  1  0.34460000  0.59266200  0.62185900  1
  O  O17  1  0.78472500  0.10612600  0.68010200  1
  O  O18  1  0.48879300  0.13795700  0.06959400  1
  O  O19  1  0.13408600  0.45919900  0.84398400  1
  O  O20  1  0.38932700  0.27092000  0.68883400  1
  O  O21  1  0.13795700  0.48879300  0.56959400  1
  O  O22  1  0.05142900  0.10932500  0.12399000  1
  O  O23  1  0.10932500  0.05142900  0.62399000  1
loop_
_geom_bond_atom_site_label_1
_geom_bond_atom_site_label_2
_geom_bond_distance
_geom_bond_site_symmetry_2
O0 S2 1.470093 1_655
O0 Sb3 2.442849 1_565
O1 S3 1.470093 1_565
O1 Sb2 2.442849 1_656
O2 S0 1.433338 1_555
O3 S0 1.523354 1_555
O3 Sb0 2.155683 1_555
O4 S0 1.521301 1_555
O4 Sb2 2.470181 1_655
O4 Sb1 2.620975 1_554
O5 S1 1.433338 1_555
O6 S2 1.508756 1_555
O6 Sb0 2.126772 1_555
O7 S0 1.519315 1_555
O7 Sb3 2.184686 1_555
O8 S1 1.523354 1_555
O8 Sb1 2.155683 1_555
O9 S1 1.521301 1_555
O9 Sb3 2.470181 1_565
O9 Sb0 2.620975 1_555
O10 S3 1.508756 1_555
O10 Sb1 2.126772 1_555
O11 S4 1.519315 1_555
O11 Sb1 2.184686 1_554
O12 S1 1.519315 1_555
O12 Sb2 2.184686 1_556
O13 S2 1.508756 1_555
O13 Sb2 2.126772 1_555
O14 S4 1.521301 1_555
O14 Sb0 2.470181 1_545
O14 Sb3 2.620975 1_555
O15 S4 1.523354 1_555
O15 Sb2 2.155683 1_555
O16 S5 1.519315 1_555
O16 Sb0 2.184686 1_555
O17 S3 1.508756 1_555
O17 Sb3 2.126772 1_555
O18 S4 1.433338 1_555
O19 S5 1.521301 1_555
O19 Sb1 2.470181 1_455
O19 Sb2 2.620975 1_556
O20 S5 1.523354 1_555
O20 Sb3 2.155683 1_555
O21 S5 1.433338 1_555
O22 S2 1.470093 1_545
O22 Sb1 2.442849 1_454
O23 S3 1.470093 1_455
O23 Sb0 2.442849 1_545
