# generated using pymatgen
data_Ti3Cr2Co(PO4)6
_symmetry_space_group_name_H-M   'P 1'
_cell_length_a   8.64684145
_cell_length_b   8.64684145
_cell_length_c   8.64684170
_cell_angle_alpha   59.93554135
_cell_angle_beta   59.93554135
_cell_angle_gamma   59.93554490
_symmetry_Int_Tables_number   1
_chemical_formula_structural   Ti3Cr2Co(PO4)6
_chemical_formula_sum   'Ti3 Cr2 Co1 P6 O24'
_cell_volume   456.48036100
_cell_formula_units_Z   1
loop_
 _symmetry_equiv_pos_site_id
 _symmetry_equiv_pos_as_xyz
  1  'x, y, z'
loop_
 _atom_site_type_symbol
 _atom_site_label
 _atom_site_symmetry_multiplicity
 _atom_site_fract_x
 _atom_site_fract_y
 _atom_site_fract_z
 _atom_site_occupancy
  Ti  Ti0  1  0.14433900  0.14433900  0.14433900  1
  Ti  Ti1  1  0.35487100  0.35487100  0.35487100  1
  Ti  Ti2  1  0.64595400  0.64595400  0.64595400  1
  Cr  Cr0  1  0.99714500  0.99714500  0.99714500  1
  Cr  Cr1  1  0.49945200  0.49945200  0.49945200  1
  Co  Co0  1  0.85511800  0.85511800  0.85511800  1
  P  P0  1  0.45789700  0.75159200  0.04331600  1
  P  P1  1  0.75159200  0.04331600  0.45789700  1
  P  P2  1  0.95727500  0.54346700  0.25026100  1
  P  P3  1  0.25026100  0.95727500  0.54346700  1
  P  P4  1  0.54346700  0.25026100  0.95727500  1
  P  P5  1  0.04331600  0.45789700  0.75159200  1
  O  O0  1  0.49373400  0.31287800  0.12016300  1
  O  O1  1  0.12016300  0.49373400  0.31287800  1
  O  O2  1  0.26072900  0.91498500  0.05801800  1
  O  O3  1  0.31287800  0.12016300  0.49373400  1
  O  O4  1  0.61274300  0.80659800  0.01282500  1
  O  O5  1  0.43428200  0.58378800  0.23500300  1
  O  O6  1  0.91498500  0.05801800  0.26072900  1
  O  O7  1  0.58378800  0.23500300  0.43428200  1
  O  O8  1  0.00023500  0.37764800  0.19421000  1
  O  O9  1  0.23500300  0.43428200  0.58378800  1
  O  O10  1  0.94685600  0.73435100  0.08908900  1
  O  O11  1  0.19421000  0.00023500  0.37764800  1
  O  O12  1  0.80659800  0.01282500  0.61274300  1
  O  O13  1  0.05801800  0.26072900  0.91498500  1
  O  O14  1  0.76623500  0.55466300  0.41817700  1
  O  O15  1  0.01282500  0.61274300  0.80659800  1
  O  O16  1  0.41817700  0.76623500  0.55466300  1
  O  O17  1  0.08908900  0.94685600  0.73435100  1
  O  O18  1  0.55466300  0.41817700  0.76623500  1
  O  O19  1  0.37764800  0.19421000  0.00023500  1
  O  O20  1  0.69477300  0.87758300  0.49974900  1
  O  O21  1  0.73435100  0.08908900  0.94685600  1
  O  O22  1  0.87758300  0.49974900  0.69477300  1
  O  O23  1  0.49974900  0.69477300  0.87758300  1
loop_
_geom_bond_atom_site_label_1
_geom_bond_atom_site_label_2
_geom_bond_distance
_geom_bond_site_symmetry_2
Cr0 O10 2.195048 1_556
Cr0 O21 2.195048 1_565
Cr0 O17 2.195048 1_655
Cr0 O13 2.276262 1_665
Cr0 O2 2.276262 1_656
Cr0 O6 2.276262 1_566
Cr1 O14 2.277324 1_555
Cr1 O16 2.277324 1_555
Cr1 O18 2.277324 1_555
Cr1 O9 2.299276 1_555
Cr1 O7 2.299276 1_555
Cr1 O5 2.299276 1_555
Co0 O4 1.967774 1_556
Co0 O12 1.967774 1_565
Co0 O15 1.967774 1_655
Co0 O17 2.115161 1_655
Co0 O21 2.115161 1_565
Co0 O10 2.115161 1_556
O0 P4 1.544600 1_554
O0 Ti1 1.884756 1_555
O1 P2 1.544600 1_455
O1 Ti1 1.884756 1_555
O2 P0 1.571074 1_555
O2 Ti0 2.057600 1_565
O3 P3 1.544600 1_545
O3 Ti1 1.884756 1_555
O4 P0 1.499065 1_555
O5 P0 1.562811 1_555
O5 Ti1 2.014189 1_555
O6 P1 1.571074 1_555
O6 Ti0 2.057600 1_655
O7 P1 1.562811 1_555
O7 Ti1 2.014189 1_555
O8 P2 1.552717 1_455
O8 Ti0 1.903431 1_555
O9 P5 1.562811 1_555
O9 Ti1 2.014189 1_555
O10 P2 1.531893 1_555
O11 P3 1.552717 1_545
O11 Ti0 1.903431 1_555
O12 P1 1.499065 1_555
O13 P5 1.571074 1_555
O13 Ti0 2.057600 1_556
O14 P2 1.556836 1_555
O14 Ti2 2.065597 1_555
O15 P5 1.499065 1_555
O16 P3 1.556836 1_555
O16 Ti2 2.065597 1_555
O17 P3 1.531893 1_555
O18 P4 1.556836 1_555
O18 Ti2 2.065597 1_555
O19 P4 1.552717 1_554
O19 Ti0 1.903431 1_555
O20 P1 1.560034 1_565
O20 Ti2 1.887674 1_555
O21 P4 1.531893 1_555
O22 P5 1.560034 1_655
O22 Ti2 1.887674 1_555
O23 P0 1.560034 1_556
O23 Ti2 1.887674 1_555
