# generated using pymatgen
data_Mo3H9Br3(ClO)4
_symmetry_space_group_name_H-M   'P 1'
_cell_length_a   10.25244400
_cell_length_b   9.87623600
_cell_length_c   18.23086609
_cell_angle_alpha   79.36590615
_cell_angle_beta   90.00000000
_cell_angle_gamma   90.00000000
_symmetry_Int_Tables_number   1
_chemical_formula_structural   Mo3H9Br3(ClO)4
_chemical_formula_sum   'Mo12 H36 Br12 Cl16 O16'
_cell_volume   1814.27316543
_cell_formula_units_Z   4
loop_
 _symmetry_equiv_pos_site_id
 _symmetry_equiv_pos_as_xyz
  1  'x, y, z'
loop_
 _atom_site_type_symbol
 _atom_site_label
 _atom_site_symmetry_multiplicity
 _atom_site_fract_x
 _atom_site_fract_y
 _atom_site_fract_z
 _atom_site_occupancy
  Mo  Mo0  1  0.79044600  0.89188000  0.49702500  1
  Mo  Mo1  1  0.29044600  0.10812000  0.00297500  1
  Mo  Mo2  1  0.20955400  0.10812000  0.50297500  1
  Mo  Mo3  1  0.70955400  0.89188000  0.99702500  1
  Mo  Mo4  1  0.10658900  0.78942300  0.50159000  1
  Mo  Mo5  1  0.60658900  0.21057700  0.99841000  1
  Mo  Mo6  1  0.89341100  0.21057700  0.49841000  1
  Mo  Mo7  1  0.39341100  0.78942300  0.00159000  1
  Mo  Mo8  1  0.00352800  0.04664900  0.36218000  1
  Mo  Mo9  1  0.50352800  0.95335100  0.13782000  1
  Mo  Mo10  1  0.99647200  0.95335100  0.63782000  1
  Mo  Mo11  1  0.49647200  0.04664900  0.86218000  1
  H  H0  1  0.75404400  0.36593900  0.64519500  1
  H  H1  1  0.25404400  0.63406100  0.85480500  1
  H  H2  1  0.24595600  0.63406100  0.35480500  1
  H  H3  1  0.74595600  0.36593900  0.14519500  1
  H  H4  1  0.32234700  0.73450600  0.29161700  1
  H  H5  1  0.82234700  0.26549400  0.20838300  1
  H  H6  1  0.67765300  0.26549400  0.70838300  1
  H  H7  1  0.17765300  0.73450600  0.79161700  1
  H  H8  1  0.16452200  0.39033600  0.75529900  1
  H  H9  1  0.66452200  0.60966400  0.74470100  1
  H  H10  1  0.83547800  0.60966400  0.24470100  1
  H  H11  1  0.33547800  0.39033600  0.25529900  1
  H  H12  1  0.29177000  0.45498900  0.69638300  1
  H  H13  1  0.79177000  0.54501100  0.80361700  1
  H  H14  1  0.70823000  0.54501100  0.30361700  1
  H  H15  1  0.20823000  0.45498900  0.19638300  1
  H  H16  1  0.72707900  0.44710200  0.74014300  1
  H  H17  1  0.22707900  0.55289800  0.75985700  1
  H  H18  1  0.27292100  0.55289800  0.25985700  1
  H  H19  1  0.77292100  0.44710200  0.24014300  1
  H  H20  1  0.92894100  0.74949200  0.14573600  1
  H  H21  1  0.42894100  0.25050800  0.35426400  1
  H  H22  1  0.07105900  0.25050800  0.85426400  1
  H  H23  1  0.57105900  0.74949200  0.64573600  1
  H  H24  1  0.95170900  0.81135500  0.21832500  1
  H  H25  1  0.45170900  0.18864500  0.28167500  1
  H  H26  1  0.04829100  0.18864500  0.78167500  1
  H  H27  1  0.54829100  0.81135500  0.71832500  1
  H  H28  1  0.58625100  0.64416500  0.37674400  1
  H  H29  1  0.08625100  0.35583500  0.12325600  1
  H  H30  1  0.41374900  0.35583500  0.62325600  1
  H  H31  1  0.91374900  0.64416500  0.87674400  1
  H  H32  1  0.58029200  0.48428800  0.39576200  1
  H  H33  1  0.08029200  0.51571200  0.10423800  1
  H  H34  1  0.41970800  0.51571200  0.60423800  1
  H  H35  1  0.91970800  0.48428800  0.89576200  1
  Br  Br0  1  0.56153400  0.76540000  0.50622500  1
  Br  Br1  1  0.06153400  0.23460000  0.99377500  1
  Br  Br2  1  0.43846600  0.23460000  0.49377500  1
  Br  Br3  1  0.93846600  0.76540000  0.00622500  1
  Br  Br4  1  0.22812300  0.56371100  0.48296200  1
  Br  Br5  1  0.72812300  0.43628900  0.01703800  1
  Br  Br6  1  0.77187700  0.43628900  0.51703800  1
  Br  Br7  1  0.27187700  0.56371100  0.98296200  1
  Br  Br8  1  0.00892600  0.08490000  0.21836800  1
  Br  Br9  1  0.50892600  0.91510000  0.28163200  1
  Br  Br10  1  0.99107400  0.91510000  0.78163200  1
  Br  Br11  1  0.49107400  0.08490000  0.71836800  1
  Cl  Cl0  1  0.92412300  0.78245700  0.40084700  1
  Cl  Cl1  1  0.42412300  0.21754300  0.09915300  1
  Cl  Cl2  1  0.07587700  0.21754300  0.59915300  1
  Cl  Cl3  1  0.57587700  0.78245700  0.90084700  1
  Cl  Cl4  1  0.75090300  0.11697300  0.40168700  1
  Cl  Cl5  1  0.25090300  0.88302700  0.09831300  1
  Cl  Cl6  1  0.24909700  0.88302700  0.59831300  1
  Cl  Cl7  1  0.74909700  0.11697300  0.90168700  1
  Cl  Cl8  1  0.91999800  0.71775700  0.59706400  1
  Cl  Cl9  1  0.41999800  0.28224300  0.90293600  1
  Cl  Cl10  1  0.08000200  0.28224300  0.40293600  1
  Cl  Cl11  1  0.58000200  0.71775700  0.09706400  1
  Cl  Cl12  1  0.74732300  0.05145200  0.59125600  1
  Cl  Cl13  1  0.24732300  0.94854800  0.90874400  1
  Cl  Cl14  1  0.25267700  0.94854800  0.40874400  1
  Cl  Cl15  1  0.75267700  0.05145200  0.09125600  1
  O  O0  1  0.74647800  0.33565400  0.69986500  1
  O  O1  1  0.24647800  0.66434600  0.80013500  1
  O  O2  1  0.25352200  0.66434600  0.30013500  1
  O  O3  1  0.75352200  0.33565400  0.19986500  1
  O  O4  1  0.71219900  0.52485600  0.77273000  1
  O  O5  1  0.21219900  0.47514400  0.72727000  1
  O  O6  1  0.28780100  0.47514400  0.22727000  1
  O  O7  1  0.78780100  0.52485600  0.27273000  1
  O  O8  1  0.57923100  0.73015900  0.70016100  1
  O  O9  1  0.07923100  0.26984100  0.79983900  1
  O  O10  1  0.42076900  0.26984100  0.29983900  1
  O  O11  1  0.92076900  0.73015900  0.20016100  1
  O  O12  1  0.91080200  0.56192900  0.85378000  1
  O  O13  1  0.41080200  0.43807100  0.64622000  1
  O  O14  1  0.08919800  0.43807100  0.14622000  1
  O  O15  1  0.58919800  0.56192900  0.35378000  1
loop_
_geom_bond_atom_site_label_1
_geom_bond_atom_site_label_2
_geom_bond_distance
_geom_bond_site_symmetry_2
H0 O0 0.989358 1_555
H1 O1 0.989358 1_555
H2 O2 0.989358 1_555
H3 O3 0.989358 1_555
H4 O2 0.981041 1_555
H5 O3 0.981041 1_555
H6 O0 0.981041 1_555
H7 O1 0.981041 1_555
H8 O5 1.021581 1_555
H8 O9 1.575927 1_555
H9 O4 1.021581 1_555
H9 O8 1.575927 1_555
H10 O7 1.021581 1_555
H10 O11 1.575927 1_555
H11 O6 1.021581 1_555
H11 O10 1.575927 1_555
H12 O5 1.031307 1_555
H12 O13 1.552402 1_555
H13 O4 1.031307 1_555
H13 O12 1.552402 1_555
H14 O7 1.031307 1_555
H14 O15 1.552402 1_555
H15 O6 1.031307 1_555
H15 O14 1.552402 1_555
H16 O4 1.065029 1_555
H16 O0 1.445187 1_555
H17 O5 1.065029 1_555
H17 O1 1.445187 1_555
H18 O6 1.065029 1_555
H18 O2 1.445187 1_555
H19 O7 1.065029 1_555
H19 O3 1.445187 1_555
H20 O11 0.978798 1_555
H21 O10 0.978798 1_555
H22 O9 0.978798 1_555
H23 O8 0.978798 1_555
H24 O11 0.975371 1_555
H25 O10 0.975371 1_555
H26 O9 0.975371 1_555
H27 O8 0.975371 1_555
H28 O15 0.980468 1_555
H29 O14 0.980468 1_555
H30 O13 0.980468 1_555
H31 O12 0.980468 1_555
H32 O15 0.982602 1_555
H33 O14 0.982602 1_555
H34 O13 0.982602 1_555
H35 O12 0.982602 1_555
Br0 Mo0 2.649367 1_555
Br1 Mo1 2.649367 1_556
Br2 Mo2 2.649367 1_555
Br3 Mo3 2.649367 1_554
Br4 Mo4 2.629937 1_555
Br5 Mo5 2.629937 1_554
Br6 Mo6 2.629937 1_555
Br7 Mo7 2.629937 1_556
Br8 Mo8 2.579564 1_555
Br9 Mo9 2.579564 1_555
Br10 Mo10 2.579564 1_555
Br11 Mo11 2.579564 1_555
Cl0 Mo0 2.611511 1_555
Cl0 Mo4 2.631385 1_655
Cl0 Mo8 2.699792 1_665
Cl1 Mo1 2.611511 1_555
Cl1 Mo5 2.631385 1_554
Cl1 Mo9 2.699792 1_545
Cl2 Mo2 2.611511 1_555
Cl2 Mo6 2.631385 1_455
Cl2 Mo10 2.699792 1_445
Cl3 Mo3 2.611511 1_555
Cl3 Mo7 2.631385 1_556
Cl3 Mo11 2.699792 1_565
Cl4 Mo6 2.588497 1_555
Cl4 Mo0 2.588690 1_545
Cl4 Mo8 2.809623 1_655
Cl5 Mo7 2.588497 1_555
Cl5 Mo1 2.588690 1_565
Cl5 Mo9 2.809623 1_555
Cl6 Mo4 2.588497 1_555
Cl6 Mo2 2.588690 1_565
Cl6 Mo10 2.809623 1_455
Cl7 Mo5 2.588497 1_555
Cl7 Mo3 2.588690 1_545
Cl7 Mo11 2.809623 1_555
Cl8 Mo4 2.595285 1_655
Cl8 Mo0 2.624915 1_555
Cl8 Mo10 2.686779 1_555
Cl9 Mo5 2.595285 1_555
Cl9 Mo1 2.624915 1_556
Cl9 Mo11 2.686779 1_555
Cl10 Mo6 2.595285 1_455
Cl10 Mo2 2.624915 1_555
Cl10 Mo8 2.686779 1_555
Cl11 Mo7 2.595285 1_555
Cl11 Mo3 2.624915 1_554
Cl11 Mo9 2.686779 1_555
Cl12 Mo6 2.568346 1_555
Cl12 Mo0 2.574800 1_545
Cl12 Mo10 2.807254 1_545
Cl13 Mo7 2.568346 1_556
Cl13 Mo1 2.574800 1_566
Cl13 Mo11 2.807254 1_565
Cl14 Mo4 2.568346 1_555
Cl14 Mo2 2.574800 1_565
Cl14 Mo8 2.807254 1_565
Cl15 Mo5 2.568346 1_554
Cl15 Mo3 2.574800 1_544
Cl15 Mo9 2.807254 1_545
