# generated using pymatgen
data_Li4Ti3Fe2Co3O16
_symmetry_space_group_name_H-M   'P 1'
_cell_length_a   5.77606679
_cell_length_b   5.83056848
_cell_length_c   9.53070059
_cell_angle_alpha   90.09252650
_cell_angle_beta   89.76961790
_cell_angle_gamma   120.57199645
_symmetry_Int_Tables_number   1
_chemical_formula_structural   Li4Ti3Fe2Co3O16
_chemical_formula_sum   'Li4 Ti3 Fe2 Co3 O16'
_cell_volume   276.35214446
_cell_formula_units_Z   1
loop_
 _symmetry_equiv_pos_site_id
 _symmetry_equiv_pos_as_xyz
  1  'x, y, z'
loop_
 _atom_site_type_symbol
 _atom_site_label
 _atom_site_symmetry_multiplicity
 _atom_site_fract_x
 _atom_site_fract_y
 _atom_site_fract_z
 _atom_site_occupancy
  Li  Li0  1  0.33982100  0.66798000  0.88968800  1
  Li  Li1  1  0.97918300  0.98957000  0.99486100  1
  Li  Li2  1  0.98915900  0.99164000  0.49808000  1
  Li  Li3  1  0.67228900  0.33618300  0.39645200  1
  Ti  Ti0  1  0.17510700  0.83410900  0.21568500  1
  Ti  Ti1  1  0.17484000  0.34108800  0.21505900  1
  Ti  Ti2  1  0.34565200  0.17310700  0.71771300  1
  Fe  Fe0  1  0.33298600  0.67098600  0.49383500  1
  Fe  Fe1  1  0.67519600  0.33973100  0.99017700  1
  Co  Co0  1  0.65618600  0.82824600  0.21322400  1
  Co  Co1  1  0.83040100  0.66029900  0.71315500  1
  Co  Co2  1  0.83108100  0.16832600  0.71226900  1
  O  O0  1  0.16356300  0.83988400  0.60124200  1
  O  O1  1  0.03625600  0.51750100  0.33546100  1
  O  O2  1  0.32806800  0.66465200  0.10050900  1
  O  O3  1  0.99152800  0.99540000  0.31064400  1
  O  O4  1  0.99146800  0.99626100  0.80891100  1
  O  O5  1  0.15503100  0.32183700  0.60337200  1
  O  O6  1  0.48580800  0.96570800  0.33829100  1
  O  O7  1  0.48465600  0.51951000  0.33933700  1
  O  O8  1  0.32692500  0.16326700  0.09947300  1
  O  O9  1  0.67722900  0.84501400  0.61014000  1
  O  O10  1  0.52019800  0.48261600  0.83809400  1
  O  O11  1  0.52661800  0.03638600  0.83511800  1
  O  O12  1  0.67316000  0.33592000  0.60454100  1
  O  O13  1  0.83684400  0.67489400  0.10356300  1
  O  O14  1  0.96401100  0.47803200  0.82591200  1
  O  O15  1  0.83673800  0.16215000  0.10303900  1
loop_
_geom_bond_atom_site_label_1
_geom_bond_atom_site_label_2
_geom_bond_distance
_geom_bond_site_symmetry_2
Li0 O10 1.906561 1_555
Li0 O11 1.920973 1_565
Li0 O14 1.967461 1_455
Li0 O2 2.009937 1_556
Li1 O4 1.773067 1_555
Li1 O13 1.892184 1_556
Li1 O15 1.893268 1_566
Li1 O8 1.999425 1_666
Li2 O3 1.786478 1_555
Li2 O9 1.881049 1_555
Li2 O0 1.918824 1_655
Li2 O5 1.938204 1_665
Li3 O1 1.899082 1_655
Li3 O6 1.941018 1_545
Li3 O7 1.948972 1_555
Li3 O12 1.983266 1_555
Fe0 O0 1.986030 1_555
Fe0 O5 2.039678 1_555
Fe0 O9 2.042949 1_555
Fe0 O6 2.093898 1_555
Fe0 O1 2.114933 1_555
Fe0 O7 2.118531 1_555
Fe1 O13 2.000916 1_556
Fe1 O8 2.017806 1_556
Fe1 O15 2.023400 1_556
Fe1 O10 2.090349 1_555
Fe1 O14 2.121046 1_555
Fe1 O11 2.122824 1_555
Co0 O3 1.911795 1_555
Co0 O6 1.954864 1_555
Co0 O2 1.957008 1_555
Co0 O7 1.962104 1_555
Co0 O15 1.978150 1_565
Co0 O13 1.979391 1_555
Co1 O4 1.919047 1_555
Co1 O14 1.929891 1_555
Co1 O12 1.930646 1_555
Co1 O10 1.949395 1_555
Co1 O0 1.968403 1_655
Co1 O9 1.971366 1_555
Co2 O9 1.894113 1_545
Co2 O14 1.900892 1_555
Co2 O5 1.913958 1_655
Co2 O11 1.914547 1_555
Co2 O4 1.915294 1_545
Co2 O12 1.938694 1_555
O0 Ti2 2.009214 1_565
O1 Ti1 1.960074 1_555
O1 Ti0 1.961502 1_555
O2 Ti1 1.958244 1_555
O2 Ti0 1.959196 1_555
O3 Ti0 1.957484 1_655
O3 Ti1 1.959782 1_665
O4 Ti2 1.961304 1_665
O5 Ti2 2.033669 1_555
O6 Ti0 1.946303 1_555
O7 Ti1 1.951120 1_555
O8 Ti0 1.991493 1_545
O8 Ti1 1.993789 1_555
O10 Ti2 1.934234 1_555
O11 Ti2 1.959596 1_555
O12 Ti2 1.950196 1_555
O13 Ti0 1.997417 1_655
O15 Ti1 1.995672 1_655
