# generated using pymatgen
data_RbLiVPO5
_symmetry_space_group_name_H-M   'P 1'
_cell_length_a   7.57328900
_cell_length_b   8.40474800
_cell_length_c   8.59819600
_cell_angle_alpha   90.00000000
_cell_angle_beta   90.00000000
_cell_angle_gamma   90.00000000
_symmetry_Int_Tables_number   1
_chemical_formula_structural   RbLiVPO5
_chemical_formula_sum   'Rb4 Li4 V4 P4 O20'
_cell_volume   547.28880849
_cell_formula_units_Z   4
loop_
 _symmetry_equiv_pos_site_id
 _symmetry_equiv_pos_as_xyz
  1  'x, y, z'
loop_
 _atom_site_type_symbol
 _atom_site_label
 _atom_site_symmetry_multiplicity
 _atom_site_fract_x
 _atom_site_fract_y
 _atom_site_fract_z
 _atom_site_occupancy
  Rb  Rb0  1  0.38473900  0.95515700  0.76657900  1
  Rb  Rb1  1  0.11526100  0.04484300  0.26657900  1
  Rb  Rb2  1  0.61526100  0.45515700  0.73342100  1
  Rb  Rb3  1  0.88473900  0.54484300  0.23342100  1
  Li  Li0  1  0.17690400  0.74541400  0.04813100  1
  Li  Li1  1  0.32309600  0.25458600  0.54813100  1
  Li  Li2  1  0.82309600  0.24541400  0.45186900  1
  Li  Li3  1  0.67690400  0.75458600  0.95186900  1
  V  V0  1  0.90486500  0.97536700  0.87164200  1
  V  V1  1  0.59513500  0.02463300  0.37164200  1
  V  V2  1  0.09513500  0.47536700  0.62835800  1
  V  V3  1  0.40486500  0.52463300  0.12835800  1
  P  P0  1  0.86326400  0.81465300  0.59954700  1
  P  P1  1  0.63673600  0.18534700  0.09954700  1
  P  P2  1  0.13673600  0.31465300  0.90045300  1
  P  P3  1  0.36326400  0.68534700  0.40045300  1
  O  O0  1  0.93557700  0.81274400  0.01017000  1
  O  O1  1  0.72485900  0.81909800  0.73485900  1
  O  O2  1  0.41554200  0.85731200  0.43934300  1
  O  O3  1  0.79895300  0.89439500  0.44728800  1
  O  O4  1  0.01901700  0.91806800  0.66749700  1
  O  O5  1  0.48098300  0.08193200  0.16749700  1
  O  O6  1  0.70104700  0.10560500  0.94728800  1
  O  O7  1  0.08445800  0.14268800  0.93934300  1
  O  O8  1  0.77514100  0.18090200  0.23485900  1
  O  O9  1  0.56442300  0.18725600  0.51017000  1
  O  O10  1  0.06442300  0.31274400  0.48983000  1
  O  O11  1  0.27514100  0.31909800  0.76514100  1
  O  O12  1  0.58445800  0.35731200  0.06065700  1
  O  O13  1  0.20104700  0.39439500  0.05271200  1
  O  O14  1  0.98098300  0.41806800  0.83250300  1
  O  O15  1  0.51901700  0.58193200  0.33250300  1
  O  O16  1  0.29895300  0.60560500  0.55271200  1
  O  O17  1  0.91554200  0.64268800  0.56065700  1
  O  O18  1  0.22485900  0.68090200  0.26514100  1
  O  O19  1  0.43557700  0.68725600  0.98983000  1
loop_
_geom_bond_atom_site_label_1
_geom_bond_atom_site_label_2
_geom_bond_distance
_geom_bond_site_symmetry_2
Li0 O0 1.940884 1_455
Li0 O18 1.976727 1_555
Li0 O19 2.080364 1_554
Li1 O9 1.940884 1_555
Li1 O11 1.976727 1_555
Li1 O10 2.080364 1_555
Li2 O10 1.940884 1_655
Li2 O8 1.976727 1_555
Li2 O9 2.080364 1_555
Li3 O19 1.940884 1_555
Li3 O1 1.976727 1_555
Li3 O0 2.080364 1_556
O0 V0 1.827827 1_554
O0 Rb3 2.983758 1_555
O0 Rb1 3.243091 1_665
O1 P0 1.566419 1_555
O1 V0 2.228592 1_555
O1 Rb0 2.831423 1_555
O1 Rb2 3.169470 1_555
O2 P3 1.535422 1_555
O2 V1 2.041176 1_565
O2 Rb0 2.940623 1_555
O2 Rb1 3.140452 1_565
O3 P0 1.549283 1_555
O3 V1 2.000962 1_565
O3 Rb1 3.122738 1_665
O4 P0 1.577397 1_455
O4 V0 2.015018 1_455
O4 Rb0 2.914497 1_555
O5 P1 1.577397 1_555
O5 V1 2.015018 1_555
O5 Rb1 2.914497 1_555
O6 P1 1.549283 1_556
O6 V0 2.000962 1_545
O6 Rb0 3.122738 1_545
O7 P2 1.535422 1_555
O7 V0 2.041176 1_445
O7 Rb1 2.940623 1_556
O7 Rb0 3.140452 1_545
O8 P1 1.566419 1_555
O8 V1 2.228592 1_555
O8 Rb1 2.831423 1_655
O8 Rb3 3.169470 1_555
O9 V1 1.827827 1_555
O9 Rb2 2.983758 1_555
O9 Rb0 3.243091 1_545
O10 V2 1.827827 1_555
O10 Rb1 2.983758 1_555
O10 Rb3 3.243091 1_455
O11 P2 1.566419 1_555
O11 V2 2.228592 1_555
O11 Rb2 2.831423 1_555
O11 Rb0 3.169470 1_545
O12 P1 1.535422 1_555
O12 V3 2.041176 1_555
O12 Rb2 2.940623 1_554
O12 Rb3 3.140452 1_555
O13 P2 1.549283 1_554
O13 V3 2.000962 1_555
O13 Rb3 3.122738 1_455
O14 P2 1.577397 1_655
O14 V2 2.015018 1_655
O14 Rb2 2.914497 1_555
O15 P3 1.577397 1_555
O15 V3 2.015018 1_555
O15 Rb3 2.914497 1_555
O16 P3 1.549283 1_555
O16 V2 2.000962 1_555
O16 Rb2 3.122738 1_555
O17 P0 1.535422 1_555
O17 V2 2.041176 1_655
O17 Rb3 2.940623 1_555
O17 Rb2 3.140452 1_555
O18 P3 1.566419 1_555
O18 V3 2.228592 1_555
O18 Rb3 2.831423 1_455
O18 Rb1 3.169470 1_565
O19 V3 1.827827 1_556
O19 Rb0 2.983758 1_555
O19 Rb2 3.243091 1_555
