# generated using pymatgen
data_Sb7(O2F3)3
_symmetry_space_group_name_H-M   'P 1'
_cell_length_a   22.37485537
_cell_length_b   22.37485537
_cell_length_c   5.82519800
_cell_angle_alpha   90.00000000
_cell_angle_beta   90.00000000
_cell_angle_gamma   164.36337649
_symmetry_Int_Tables_number   1
_chemical_formula_structural   Sb7(O2F3)3
_chemical_formula_sum   'Sb14 O12 F18'
_cell_volume   786.04427603
_cell_formula_units_Z   2
loop_
 _symmetry_equiv_pos_site_id
 _symmetry_equiv_pos_as_xyz
  1  'x, y, z'
loop_
 _atom_site_type_symbol
 _atom_site_label
 _atom_site_symmetry_multiplicity
 _atom_site_fract_x
 _atom_site_fract_y
 _atom_site_fract_z
 _atom_site_occupancy
  Sb  Sb0  1  0.46841300  0.81453000  0.30439000  1
  Sb  Sb1  1  0.31453000  0.96841300  0.30439000  1
  Sb  Sb2  1  0.64567600  0.69721100  0.25053900  1
  Sb  Sb3  1  0.19721100  0.14567600  0.25053900  1
  Sb  Sb4  1  0.01760500  0.51760500  0.27119900  1
  Sb  Sb5  1  0.25562100  0.46450600  0.31687100  1
  Sb  Sb6  1  0.96450600  0.75562100  0.31687100  1
  Sb  Sb7  1  0.46450600  0.25562100  0.68312900  1
  Sb  Sb8  1  0.75562100  0.96450600  0.68312900  1
  Sb  Sb9  1  0.51760500  0.01760500  0.72880100  1
  Sb  Sb10  1  0.14567600  0.19721100  0.74946100  1
  Sb  Sb11  1  0.69721100  0.64567600  0.74946100  1
  Sb  Sb12  1  0.96841300  0.31453000  0.69561000  1
  Sb  Sb13  1  0.81453000  0.46841300  0.69561000  1
  O  O0  1  0.04220300  0.04220300  0.00000000  1
  O  O1  1  0.54220300  0.54220300  0.00000000  1
  O  O2  1  0.76916000  0.06279100  0.53375300  1
  O  O3  1  0.56279100  0.26916000  0.53375300  1
  O  O4  1  0.05423600  0.23258900  0.55189100  1
  O  O5  1  0.73258900  0.55423600  0.55189100  1
  O  O6  1  0.53592900  0.53592900  0.50000000  1
  O  O7  1  0.03592900  0.03592900  0.50000000  1
  O  O8  1  0.23258900  0.05423600  0.44810900  1
  O  O9  1  0.55423600  0.73258900  0.44810900  1
  O  O10  1  0.26916000  0.56279100  0.46624700  1
  O  O11  1  0.06279100  0.76916000  0.46624700  1
  F  F0  1  0.32435100  0.41544800  0.23150700  1
  F  F1  1  0.91544800  0.82435100  0.23150700  1
  F  F2  1  0.51880700  0.79995800  0.07328000  1
  F  F3  1  0.29995800  0.01880700  0.07328000  1
  F  F4  1  0.37380300  0.87380300  0.02935900  1
  F  F5  1  0.07823700  0.68920900  0.13587200  1
  F  F6  1  0.18920900  0.57823700  0.13587200  1
  F  F7  1  0.82248500  0.26276000  0.39067200  1
  F  F8  1  0.76276000  0.32248500  0.39067200  1
  F  F9  1  0.32248500  0.76276000  0.60932800  1
  F  F10  1  0.26276000  0.82248500  0.60932800  1
  F  F11  1  0.68920900  0.07823700  0.86412800  1
  F  F12  1  0.57823700  0.18920900  0.86412800  1
  F  F13  1  0.87380300  0.37380300  0.97064100  1
  F  F14  1  0.01880700  0.29995800  0.92672000  1
  F  F15  1  0.79995800  0.51880700  0.92672000  1
  F  F16  1  0.82435100  0.91544800  0.76849300  1
  F  F17  1  0.41544800  0.32435100  0.76849300  1
loop_
_geom_bond_atom_site_label_1
_geom_bond_atom_site_label_2
_geom_bond_distance
_geom_bond_site_symmetry_2
O0 Sb3 2.013437 1_555
O0 Sb10 2.013437 1_554
O1 Sb2 2.013437 1_555
O1 Sb11 2.013437 1_554
O2 Sb12 2.031464 1_555
O2 Sb8 2.098085 1_545
O2 Sb0 2.435372 1_545
O3 Sb13 2.031464 1_555
O3 Sb7 2.098085 1_555
O3 Sb1 2.435372 1_545
O4 Sb8 2.004404 1_445
O4 Sb5 2.017837 1_555
O5 Sb7 2.004404 1_555
O5 Sb6 2.017837 1_555
O6 Sb11 2.024152 1_555
O6 Sb2 2.024152 1_555
O7 Sb10 2.024152 1_555
O7 Sb3 2.024152 1_555
O8 Sb6 2.004404 1_445
O8 Sb7 2.017837 1_555
O9 Sb5 2.004404 1_555
O9 Sb8 2.017837 1_555
O10 Sb0 2.031464 1_555
O10 Sb5 2.098085 1_555
O10 Sb12 2.435372 1_455
O11 Sb1 2.031464 1_555
O11 Sb6 2.098085 1_455
O11 Sb13 2.435372 1_455
F0 Sb2 2.037366 1_555
F1 Sb3 2.037366 1_665
F2 Sb0 1.974380 1_555
F3 Sb1 1.974380 1_545
F4 Sb9 1.957454 1_564
F4 Sb4 2.585775 1_555
F5 Sb1 2.080924 1_555
F6 Sb0 2.080924 1_555
F7 Sb4 2.028003 1_655
F8 Sb4 2.028003 1_655
F9 Sb9 2.028003 1_565
F10 Sb9 2.028003 1_565
F11 Sb12 2.080924 1_555
F12 Sb13 2.080924 1_555
F13 Sb4 1.957454 1_656
F13 Sb9 2.585775 1_555
F14 Sb12 1.974380 1_455
F15 Sb13 1.974380 1_555
F16 Sb10 2.037366 1_665
F17 Sb11 2.037366 1_555
