# generated using pymatgen
data_LiV2(PO4)2
_symmetry_space_group_name_H-M   'P 1'
_cell_length_a   10.32936400
_cell_length_b   4.83905272
_cell_length_c   5.93255288
_cell_angle_alpha   89.06068955
_cell_angle_beta   89.99994353
_cell_angle_gamma   90.00006303
_symmetry_Int_Tables_number   1
_chemical_formula_structural   LiV2(PO4)2
_chemical_formula_sum   'Li2 V4 P4 O16'
_cell_volume   296.49487426
_cell_formula_units_Z   2
loop_
 _symmetry_equiv_pos_site_id
 _symmetry_equiv_pos_as_xyz
  1  'x, y, z'
loop_
 _atom_site_type_symbol
 _atom_site_label
 _atom_site_symmetry_multiplicity
 _atom_site_fract_x
 _atom_site_fract_y
 _atom_site_fract_z
 _atom_site_occupancy
  Li  Li0  1  0.24973000  0.50259100  0.23338200  1
  Li  Li1  1  0.74973000  0.99741000  0.76661300  1
  V  V0  1  0.02610200  0.97917400  0.00244700  1
  V  V1  1  0.47622500  0.03060300  0.49920800  1
  V  V2  1  0.52610300  0.52083100  0.99755300  1
  V  V3  1  0.97622700  0.46939000  0.50079700  1
  P  P0  1  0.15778300  0.90145200  0.50271500  1
  P  P1  1  0.34527400  0.07552900  0.00136000  1
  P  P2  1  0.65778500  0.59854200  0.49728200  1
  P  P3  1  0.84527100  0.42447600  0.99864300  1
  O  O0  1  0.07889500  0.76214300  0.69990400  1
  O  O1  1  0.09091300  0.74416900  0.29820100  1
  O  O2  1  0.13951300  0.21487800  0.48863100  1
  O  O3  1  0.20780500  0.18953800  0.00826300  1
  O  O4  1  0.30094900  0.81627300  0.49984900  1
  O  O5  1  0.35386200  0.76203000  0.01479600  1
  O  O6  1  0.42441700  0.20014200  0.79509800  1
  O  O7  1  0.42045200  0.21931300  0.20809400  1
  O  O8  1  0.57890300  0.73785900  0.30009100  1
  O  O9  1  0.59091200  0.75583100  0.70179300  1
  O  O10  1  0.63951100  0.28511800  0.51136800  1
  O  O11  1  0.70780200  0.31046600  0.99173500  1
  O  O12  1  0.80095100  0.68371900  0.50015800  1
  O  O13  1  0.85386100  0.73797400  0.98520300  1
  O  O14  1  0.92441300  0.29986400  0.20490500  1
  O  O15  1  0.92045200  0.28068700  0.79191000  1
loop_
_geom_bond_atom_site_label_1
_geom_bond_atom_site_label_2
_geom_bond_distance
_geom_bond_site_symmetry_2
Li0 O1 2.054353 1_555
Li0 O3 2.081436 1_555
Li0 O5 2.088377 1_555
Li0 O7 2.240110 1_555
Li0 O4 2.271936 1_555
Li0 O2 2.336324 1_555
Li1 O9 2.054364 1_555
Li1 O11 2.081465 1_565
Li1 O13 2.088380 1_555
Li1 O15 2.240109 1_565
Li1 O12 2.271920 1_555
Li1 O10 2.336308 1_565
O0 P0 1.568788 1_555
O0 V3 2.140483 1_455
O0 V0 2.164172 1_556
O1 P0 1.599601 1_555
O1 V3 2.136250 1_455
O1 V0 2.180487 1_555
O2 P0 1.529305 1_545
O2 V3 2.090386 1_455
O3 P1 1.524170 1_555
O3 V0 2.135708 1_545
O4 P0 1.535352 1_555
O4 V1 2.086490 1_565
O5 P1 1.520416 1_565
O5 V2 2.131201 1_554
O6 P1 1.582741 1_556
O6 V1 2.021889 1_555
O6 V2 2.239444 1_555
O7 P1 1.618427 1_555
O7 V1 2.024050 1_555
O7 V2 2.195489 1_554
O8 P2 1.568783 1_555
O8 V1 2.140538 1_565
O8 V2 2.164158 1_554
O9 P2 1.599615 1_555
O9 V1 2.136202 1_565
O9 V2 2.180494 1_555
O10 P2 1.529301 1_555
O10 V1 2.090391 1_555
O11 P3 1.524172 1_555
O11 V2 2.135677 1_555
O12 P2 1.535350 1_555
O12 V3 2.086490 1_555
O13 P3 1.520413 1_555
O13 V0 2.131202 1_656
O14 P3 1.582736 1_554
O14 V3 2.021890 1_555
O14 V0 2.239472 1_645
O15 P3 1.618448 1_555
O15 V3 2.024034 1_555
O15 V0 2.195457 1_646
