# generated using pymatgen
data_Li2VOF4
_symmetry_space_group_name_H-M   'P 1'
_cell_length_a   5.04808300
_cell_length_b   7.22002559
_cell_length_c   10.34605698
_cell_angle_alpha   108.97466729
_cell_angle_beta   89.78271864
_cell_angle_gamma   91.13500279
_symmetry_Int_Tables_number   1
_chemical_formula_structural   Li2VOF4
_chemical_formula_sum   'Li8 V4 O4 F16'
_cell_volume   356.52443723
_cell_formula_units_Z   4
loop_
 _symmetry_equiv_pos_site_id
 _symmetry_equiv_pos_as_xyz
  1  'x, y, z'
loop_
 _atom_site_type_symbol
 _atom_site_label
 _atom_site_symmetry_multiplicity
 _atom_site_fract_x
 _atom_site_fract_y
 _atom_site_fract_z
 _atom_site_occupancy
  Li  Li0  1  0.49293300  0.88468300  0.13842900  1
  Li  Li1  1  0.03320300  0.85203000  0.65991300  1
  Li  Li2  1  0.03590900  0.62860700  0.31302000  1
  Li  Li3  1  0.46803900  0.63951200  0.81295600  1
  Li  Li4  1  0.47661300  0.36777200  0.15730200  1
  Li  Li5  1  0.01627700  0.38314300  0.65900300  1
  Li  Li6  1  0.99711900  0.11624600  0.36157600  1
  Li  Li7  1  0.50956900  0.11840800  0.85406000  1
  V  V0  1  0.51789900  0.97277900  0.49947800  1
  V  V1  1  0.01309400  0.03439300  0.00533800  1
  V  V2  1  0.53567700  0.48387800  0.48924100  1
  V  V3  1  0.96891000  0.53447900  0.00060200  1
  O  O0  1  0.64965400  0.75491300  0.49960800  1
  O  O1  1  0.84047800  0.75058100  0.99951100  1
  O  O2  1  0.15325500  0.25295500  0.00996100  1
  O  O3  1  0.78946700  0.36675400  0.40062400  1
  F  F0  1  0.65073600  0.96621100  0.32231800  1
  F  F1  1  0.17675100  0.87847200  0.41519600  1
  F  F2  1  0.84007800  0.96431600  0.82662300  1
  F  F3  1  0.27419100  0.63768200  0.11731300  1
  F  F4  1  0.31598000  0.88104600  0.91457100  1
  F  F5  1  0.79468200  0.52508500  0.16634100  1
  F  F6  1  0.22707300  0.61111100  0.61486900  1
  F  F7  1  0.30749300  0.46390800  0.33202300  1
  F  F8  1  0.70323500  0.53497200  0.67037000  1
  F  F9  1  0.18529100  0.47331400  0.83745700  1
  F  F10  1  0.67329600  0.12119200  0.08804700  1
  F  F11  1  0.33737600  0.24030800  0.50303800  1
  F  F12  1  0.70479200  0.35832400  0.89483500  1
  F  F13  1  0.15532700  0.03439800  0.17967900  1
  F  F14  1  0.81508400  0.13659800  0.58040300  1
  F  F15  1  0.34051900  0.03192900  0.67629800  1
loop_
_geom_bond_atom_site_label_1
_geom_bond_atom_site_label_2
_geom_bond_distance
_geom_bond_site_symmetry_2
Li0 O1 2.285699 1_554
Li1 O0 2.491084 1_455
Li3 O1 2.620009 1_555
Li4 O2 2.195224 1_555
Li6 O3 2.032255 1_555
Li7 O2 2.410172 1_556
O0 V0 1.720327 1_555
O0 V2 1.997824 1_555
O1 V3 1.704836 1_556
O1 V1 2.193444 1_666
O2 V1 1.702940 1_555
O2 V3 2.282649 1_455
O3 V2 1.651324 1_555
F0 V0 1.935686 1_555
F0 Li0 1.966043 1_555
F0 Li6 2.010010 1_565
F1 Li2 1.895321 1_555
F1 V0 1.941286 1_555
F1 Li6 2.182206 1_465
F2 Li1 1.921418 1_655
F2 V1 1.955500 1_666
F2 Li7 1.991631 1_565
F3 V3 1.942094 1_455
F3 Li0 2.029249 1_555
F3 Li2 2.369738 1_555
F3 Li4 2.370526 1_555
F4 Li3 1.894802 1_555
F4 V1 1.955904 1_566
F4 Li7 2.215999 1_565
F4 Li0 2.477482 1_556
F5 Li2 1.893365 1_655
F5 Li4 1.933052 1_555
F5 V3 1.944307 1_555
F6 Li1 1.933253 1_555
F6 V2 2.055491 1_555
F6 Li5 2.113197 1_555
F6 Li3 2.336146 1_555
F7 Li2 1.884392 1_555
F7 Li4 1.916808 1_555
F7 V2 1.961771 1_555
F8 Li3 1.858416 1_555
F8 Li5 1.922528 1_655
F8 V2 1.978235 1_555
F9 Li3 1.915369 1_555
F9 V3 1.938449 1_456
F9 Li5 1.941360 1_555
F10 V1 1.936506 1_655
F10 Li4 1.975804 1_555
F10 Li0 2.128434 1_545
F11 V2 2.051215 1_555
F11 V0 2.141490 1_545
F11 Li6 2.236131 1_455
F11 Li5 2.293242 1_555
F12 Li7 1.900004 1_555
F12 V3 1.905653 1_556
F13 V1 1.943912 1_555
F13 Li6 1.952628 1_455
F13 Li0 2.005633 1_545
F14 V0 1.909411 1_545
F14 Li5 1.963348 1_655
F14 Li6 2.401027 1_555
F15 Li7 1.935089 1_555
F15 V0 1.955891 1_545
F15 Li1 1.975222 1_545
