# generated using pymatgen
data_Ho3Fe5O12
_symmetry_space_group_name_H-M   'P 1'
_cell_length_a   10.81685994
_cell_length_b   10.81685994
_cell_length_c   10.81685994
_cell_angle_alpha   109.47122063
_cell_angle_beta   109.47122063
_cell_angle_gamma   109.47122063
_symmetry_Int_Tables_number   1
_chemical_formula_structural   Ho3Fe5O12
_chemical_formula_sum   'Ho12 Fe20 O48'
_cell_volume   974.27538156
_cell_formula_units_Z   4
loop_
 _symmetry_equiv_pos_site_id
 _symmetry_equiv_pos_as_xyz
  1  'x, y, z'
loop_
 _atom_site_type_symbol
 _atom_site_label
 _atom_site_symmetry_multiplicity
 _atom_site_fract_x
 _atom_site_fract_y
 _atom_site_fract_z
 _atom_site_occupancy
  Ho  Ho0  1  0.75000000  0.12500000  0.37500000  1
  Ho  Ho1  1  0.37500000  0.12500000  0.25000000  1
  Ho  Ho2  1  0.87500000  0.62500000  0.25000000  1
  Ho  Ho3  1  0.25000000  0.37500000  0.12500000  1
  Ho  Ho4  1  0.62500000  0.25000000  0.87500000  1
  Ho  Ho5  1  0.37500000  0.75000000  0.12500000  1
  Ho  Ho6  1  0.12500000  0.25000000  0.37500000  1
  Ho  Ho7  1  0.87500000  0.75000000  0.62500000  1
  Ho  Ho8  1  0.75000000  0.62500000  0.87500000  1
  Ho  Ho9  1  0.62500000  0.87500000  0.75000000  1
  Ho  Ho10  1  0.12500000  0.37500000  0.75000000  1
  Ho  Ho11  1  0.25000000  0.87500000  0.62500000  1
  Fe  Fe0  1  0.87500000  0.25000000  0.12500000  1
  Fe  Fe1  1  0.50000000  0.00000000  0.00000000  1
  Fe  Fe2  1  0.00000000  0.00000000  0.00000000  1
  Fe  Fe3  1  0.62500000  0.37500000  0.25000000  1
  Fe  Fe4  1  0.50000000  0.00000000  0.50000000  1
  Fe  Fe5  1  0.50000000  0.50000000  0.00000000  1
  Fe  Fe6  1  0.87500000  0.12500000  0.75000000  1
  Fe  Fe7  1  0.75000000  0.87500000  0.12500000  1
  Fe  Fe8  1  0.75000000  0.37500000  0.62500000  1
  Fe  Fe9  1  0.62500000  0.75000000  0.37500000  1
  Fe  Fe10  1  0.50000000  0.50000000  0.50000000  1
  Fe  Fe11  1  0.00000000  0.50000000  0.00000000  1
  Fe  Fe12  1  0.00000000  0.00000000  0.50000000  1
  Fe  Fe13  1  0.37500000  0.25000000  0.62500000  1
  Fe  Fe14  1  0.25000000  0.62500000  0.37500000  1
  Fe  Fe15  1  0.25000000  0.12500000  0.87500000  1
  Fe  Fe16  1  0.37500000  0.62500000  0.75000000  1
  Fe  Fe17  1  0.12500000  0.87500000  0.25000000  1
  Fe  Fe18  1  0.00000000  0.50000000  0.50000000  1
  Fe  Fe19  1  0.12500000  0.75000000  0.87500000  1
  O  O0  1  0.90703500  0.03261400  0.32303300  1
  O  O1  1  0.87442100  0.40703500  0.08400300  1
  O  O2  1  0.91599700  0.29041800  0.32303300  1
  O  O3  1  0.91599700  0.12557900  0.59296500  1
  O  O4  1  0.96738600  0.67696700  0.09296500  1
  O  O5  1  0.58400300  0.17696700  0.20958200  1
  O  O6  1  0.62557900  0.41599700  0.09296500  1
  O  O7  1  0.20958200  0.12557900  0.03261400  1
  O  O8  1  0.70958200  0.67696700  0.08400300  1
  O  O9  1  0.59296500  0.17696700  0.46738600  1
  O  O10  1  0.90703500  0.37442100  0.58400300  1
  O  O11  1  0.12557900  0.03261400  0.20958200  1
  O  O12  1  0.82303200  0.53261400  0.40703500  1
  O  O13  1  0.67696700  0.08400300  0.70958200  1
  O  O14  1  0.46738600  0.37442100  0.29041800  1
  O  O15  1  0.46738600  0.59296500  0.17696800  1
  O  O16  1  0.41599700  0.09296500  0.62557900  1
  O  O17  1  0.03261400  0.20958200  0.12557900  1
  O  O18  1  0.82303200  0.79041800  0.41599700  1
  O  O19  1  0.37442100  0.29041800  0.46738600  1
  O  O20  1  0.67696700  0.09296500  0.96738600  1
  O  O21  1  0.70958200  0.53261400  0.62557900  1
  O  O22  1  0.79041800  0.41599700  0.82303300  1
  O  O23  1  0.59296500  0.91599700  0.12557900  1
  O  O24  1  0.29041800  0.46738600  0.37442100  1
  O  O25  1  0.40703500  0.08400300  0.87442100  1
  O  O26  1  0.20958200  0.58400300  0.17696700  1
  O  O27  1  0.17696700  0.20958200  0.58400300  1
  O  O28  1  0.62557900  0.70958200  0.53261400  1
  O  O29  1  0.32303200  0.90703500  0.03261400  1
  O  O30  1  0.58400300  0.90703500  0.37442100  1
  O  O31  1  0.53261400  0.40703500  0.82303300  1
  O  O32  1  0.96738600  0.79041800  0.87442100  1
  O  O33  1  0.53261400  0.62557900  0.70958200  1
  O  O34  1  0.32303200  0.91599700  0.29041800  1
  O  O35  1  0.17696700  0.46738600  0.59296500  1
  O  O36  1  0.87442100  0.96738600  0.79041800  1
  O  O37  1  0.40703500  0.82303200  0.53261400  1
  O  O38  1  0.29041800  0.32303200  0.91599700  1
  O  O39  1  0.09296500  0.62557900  0.41599700  1
  O  O40  1  0.79041800  0.87442100  0.96738600  1
  O  O41  1  0.37442100  0.58400300  0.90703500  1
  O  O42  1  0.41599700  0.82303200  0.79041800  1
  O  O43  1  0.03261400  0.32303200  0.90703500  1
  O  O44  1  0.08400300  0.87442100  0.40703500  1
  O  O45  1  0.08400300  0.70958200  0.67696700  1
  O  O46  1  0.12557900  0.59296500  0.91599700  1
  O  O47  1  0.09296500  0.96738600  0.67696700  1
loop_
_geom_bond_atom_site_label_1
_geom_bond_atom_site_label_2
_geom_bond_distance
_geom_bond_site_symmetry_2
Ho0 O0 2.365095 1_555
Ho0 O9 2.365095 1_555
Ho0 O23 2.365099 1_545
Ho0 O10 2.365099 1_555
Ho0 O2 2.437865 1_555
Ho0 O5 2.437865 1_555
Ho0 O30 2.437873 1_545
Ho0 O3 2.437873 1_555
Ho1 O14 2.365099 1_555
Ho1 O11 2.365099 1_555
Ho1 O34 2.365099 1_545
Ho1 O5 2.365099 1_555
Ho1 O7 2.437873 1_555
Ho1 O29 2.437873 1_545
Ho1 O19 2.437873 1_555
Ho1 O9 2.437877 1_555
Ho2 O4 2.365095 1_555
Ho2 O12 2.365099 1_555
Ho2 O6 2.365099 1_555
Ho2 O44 2.365099 1_655
Ho2 O8 2.437865 1_555
Ho2 O39 2.437873 1_655
Ho2 O18 2.437873 1_555
Ho2 O1 2.437873 1_555
Ho3 O24 2.365099 1_555
Ho3 O7 2.365099 1_555
Ho3 O38 2.365099 1_554
Ho3 O26 2.365099 1_555
Ho3 O43 2.437873 1_554
Ho3 O17 2.437873 1_555
Ho3 O14 2.437873 1_555
Ho3 O15 2.437873 1_555
Ho4 O20 2.365095 1_555
Ho4 O31 2.365095 1_555
Ho4 O1 2.365099 1_556
Ho4 O16 2.365099 1_555
Ho4 O13 2.437865 1_555
Ho4 O22 2.437865 1_555
Ho4 O6 2.437873 1_556
Ho4 O25 2.437873 1_555
Ho5 O46 2.365099 1_554
Ho5 O29 2.365099 1_555
Ho5 O30 2.365099 1_555
Ho5 O15 2.365099 1_555
Ho5 O26 2.437865 1_555
Ho5 O23 2.437873 1_555
Ho5 O41 2.437873 1_554
Ho5 O34 2.437873 1_555
Ho6 O17 2.365099 1_555
Ho6 O19 2.365099 1_555
Ho6 O2 2.365099 1_455
Ho6 O27 2.365099 1_555
Ho6 O11 2.437873 1_555
Ho6 O24 2.437873 1_555
Ho6 O35 2.437877 1_555
Ho6 O0 2.437877 1_455
Ho7 O18 2.365099 1_555
Ho7 O28 2.365099 1_555
Ho7 O32 2.365099 1_555
Ho7 O45 2.365099 1_655
Ho7 O12 2.437873 1_555
Ho7 O36 2.437873 1_555
Ho7 O21 2.437873 1_555
Ho7 O47 2.437877 1_655
Ho8 O21 2.365099 1_555
Ho8 O40 2.365099 1_555
Ho8 O22 2.365099 1_555
Ho8 O8 2.365099 1_556
Ho8 O33 2.437873 1_555
Ho8 O32 2.437873 1_555
Ho8 O4 2.437877 1_556
Ho8 O31 2.437877 1_555
Ho9 O42 2.365099 1_555
Ho9 O36 2.365099 1_555
Ho9 O33 2.365099 1_555
Ho9 O13 2.365099 1_565
Ho9 O40 2.437873 1_555
Ho9 O37 2.437873 1_555
Ho9 O28 2.437873 1_555
Ho9 O20 2.437877 1_565
Ho10 O35 2.365095 1_555
Ho10 O41 2.365099 1_555
Ho10 O3 2.365099 1_455
Ho10 O43 2.365099 1_555
Ho10 O27 2.437865 1_555
Ho10 O46 2.437873 1_555
Ho10 O38 2.437873 1_555
Ho10 O10 2.437873 1_455
Ho11 O47 2.365095 1_555
Ho11 O37 2.365099 1_555
Ho11 O39 2.365099 1_555
Ho11 O25 2.365099 1_565
Ho11 O45 2.437865 1_555
Ho11 O16 2.437873 1_565
Ho11 O42 2.437873 1_555
Ho11 O44 2.437873 1_555
Fe0 O17 1.894583 1_655
Fe0 O1 1.894583 1_555
Fe0 O20 1.894589 1_554
Fe0 O2 1.894594 1_555
Fe1 O20 2.050207 1_554
Fe1 O5 2.050212 1_555
Fe1 O42 2.050216 1_544
Fe1 O25 2.050216 1_554
Fe1 O23 2.050216 1_545
Fe1 O29 2.050216 1_545
Fe2 O11 2.050216 1_555
Fe2 O7 2.050216 1_555
Fe2 O17 2.050216 1_555
Fe2 O36 2.050216 1_444
Fe2 O32 2.050216 1_444
Fe2 O40 2.050216 1_444
Fe3 O6 1.894583 1_555
Fe3 O14 1.894583 1_555
Fe3 O12 1.894583 1_555
Fe3 O5 1.894594 1_555
Fe4 O9 2.050207 1_555
Fe4 O13 2.050212 1_555
Fe4 O34 2.050216 1_545
Fe4 O30 2.050216 1_545
Fe4 O16 2.050216 1_555
Fe4 O37 2.050216 1_545
Fe5 O31 2.050207 1_554
Fe5 O8 2.050212 1_555
Fe5 O15 2.050216 1_555
Fe5 O6 2.050216 1_555
Fe5 O38 2.050216 1_554
Fe5 O41 2.050216 1_554
Fe6 O43 1.894583 1_655
Fe6 O3 1.894583 1_555
Fe6 O36 1.894583 1_545
Fe6 O13 1.894594 1_555
Fe7 O23 1.894583 1_555
Fe7 O40 1.894583 1_554
Fe7 O0 1.894589 1_565
Fe7 O8 1.894594 1_555
Fe8 O10 1.894583 1_555
Fe8 O21 1.894583 1_555
Fe8 O9 1.894589 1_555
Fe8 O22 1.894594 1_555
Fe9 O28 1.894583 1_555
Fe9 O18 1.894583 1_555
Fe9 O30 1.894583 1_555
Fe9 O15 1.894583 1_555
Fe10 O33 2.050216 1_555
Fe10 O14 2.050216 1_555
Fe10 O24 2.050216 1_555
Fe10 O19 2.050216 1_555
Fe10 O28 2.050216 1_555
Fe10 O21 2.050216 1_555
Fe11 O4 2.050207 1_455
Fe11 O26 2.050212 1_555
Fe11 O22 2.050212 1_454
Fe11 O46 2.050216 1_554
Fe11 O43 2.050216 1_554
Fe11 O1 2.050216 1_455
Fe12 O0 2.050207 1_455
Fe12 O47 2.050207 1_545
Fe12 O27 2.050212 1_555
Fe12 O44 2.050216 1_545
Fe12 O3 2.050216 1_455
Fe12 O18 2.050216 1_445
Fe13 O16 1.894583 1_555
Fe13 O19 1.894583 1_555
Fe13 O31 1.894589 1_555
Fe13 O27 1.894594 1_555
Fe14 O39 1.894583 1_555
Fe14 O37 1.894583 1_555
Fe14 O24 1.894583 1_555
Fe14 O26 1.894594 1_555
Fe15 O7 1.894583 1_556
Fe15 O25 1.894583 1_555
Fe15 O38 1.894583 1_555
Fe15 O47 1.894589 1_545
Fe16 O42 1.894583 1_555
Fe16 O41 1.894583 1_555
Fe16 O33 1.894583 1_555
Fe16 O35 1.894589 1_555
Fe17 O11 1.894583 1_565
Fe17 O44 1.894583 1_555
Fe17 O34 1.894583 1_555
Fe17 O4 1.894589 1_455
Fe18 O35 2.050207 1_555
Fe18 O2 2.050212 1_455
Fe18 O45 2.050212 1_555
Fe18 O39 2.050216 1_555
Fe18 O10 2.050216 1_455
Fe18 O12 2.050216 1_455
Fe19 O29 1.894583 1_556
Fe19 O32 1.894583 1_455
Fe19 O46 1.894583 1_555
Fe19 O45 1.894594 1_555
