# generated using pymatgen
data_Na2ScPCO7
_symmetry_space_group_name_H-M   'P 1'
_cell_length_a   6.67148219
_cell_length_b   5.18905204
_cell_length_c   9.00224744
_cell_angle_alpha   90.03434090
_cell_angle_beta   90.00000000
_cell_angle_gamma   90.00000000
_symmetry_Int_Tables_number   1
_chemical_formula_structural   Na2ScPCO7
_chemical_formula_sum   'Na4 Sc2 P2 C2 O14'
_cell_volume   311.64576202
_cell_formula_units_Z   2
loop_
 _symmetry_equiv_pos_site_id
 _symmetry_equiv_pos_as_xyz
  1  'x, y, z'
loop_
 _atom_site_type_symbol
 _atom_site_label
 _atom_site_symmetry_multiplicity
 _atom_site_fract_x
 _atom_site_fract_y
 _atom_site_fract_z
 _atom_site_occupancy
  Na  Na0  1  0.49637305  0.23864993  0.77850845  1
  Na  Na1  1  0.00362695  0.23864993  0.77850845  1
  Na  Na2  1  0.50362695  0.76135007  0.22149155  1
  Na  Na3  1  0.99637305  0.76135007  0.22149155  1
  Sc  Sc0  1  0.75000000  0.78763748  0.63928785  1
  Sc  Sc1  1  0.25000000  0.21236252  0.36071215  1
  P  P0  1  0.25000000  0.70901380  0.57609412  1
  P  P1  1  0.75000000  0.29098620  0.42390588  1
  C  C0  1  0.75000000  0.72809163  0.92235264  1
  C  C1  1  0.25000000  0.27190837  0.07764736  1
  O  O0  1  0.25000000  0.30944896  0.94053036  1
  O  O1  1  0.75000000  0.95599434  0.86093705  1
  O  O2  1  0.75000000  0.53766840  0.82503484  1
  O  O3  1  0.06207515  0.80070309  0.65711442  1
  O  O4  1  0.43792485  0.80070309  0.65711442  1
  O  O5  1  0.75000000  0.18096994  0.58361876  1
  O  O6  1  0.25000000  0.41075735  0.56484086  1
  O  O7  1  0.75000000  0.58924265  0.43515914  1
  O  O8  1  0.25000000  0.81903006  0.41638124  1
  O  O9  1  0.56207515  0.19929691  0.34288558  1
  O  O10  1  0.93792485  0.19929691  0.34288558  1
  O  O11  1  0.25000000  0.46233160  0.17496516  1
  O  O12  1  0.25000000  0.04400566  0.13906295  1
  O  O13  1  0.75000000  0.69055104  0.05946964  1
loop_
_geom_bond_atom_site_label_1
_geom_bond_atom_site_label_2
_geom_bond_distance
_geom_bond_site_symmetry_2
Na0 O0 2.227866 1_555
Na0 O2 2.333511 1_555
Na0 O1 2.359296 1_545
Na0 O5 2.455631 1_555
Na0 O4 2.551022 1_545
Na0 O6 2.683489 1_555
Na1 O0 2.227866 1_555
Na1 O2 2.333511 1_455
Na1 O1 2.359296 1_445
Na1 O5 2.455631 1_455
Na1 O3 2.551022 1_545
Na1 O6 2.683489 1_555
Na2 O13 2.227866 1_555
Na2 O11 2.333511 1_555
Na2 O12 2.359296 1_565
Na2 O8 2.455631 1_555
Na2 O9 2.551022 1_565
Na2 O7 2.683489 1_555
Na3 O13 2.227866 1_555
Na3 O11 2.333511 1_655
Na3 O12 2.359296 1_665
Na3 O8 2.455631 1_655
Na3 O10 2.551022 1_565
Na3 O7 2.683489 1_555
C0 O13 1.249753 1_556
C0 O1 1.305756 1_555
C0 O2 1.320170 1_555
C1 O0 1.249753 1_554
C1 O12 1.305756 1_555
C1 O11 1.320170 1_555
O1 Sc0 2.177727 1_555
O2 Sc0 2.116868 1_555
O3 P0 1.526362 1_555
O3 Sc0 2.089277 1_455
O4 P0 1.526362 1_555
O4 Sc0 2.089277 1_555
O5 P1 1.547283 1_555
O5 Sc0 2.101939 1_545
O6 P0 1.550920 1_555
O6 Sc1 2.105802 1_555
O7 P1 1.550920 1_555
O7 Sc0 2.105802 1_555
O8 P0 1.547283 1_555
O8 Sc1 2.101939 1_565
O9 P1 1.526362 1_555
O9 Sc1 2.089277 1_555
O10 P1 1.526362 1_555
O10 Sc1 2.089277 1_655
O11 Sc1 2.116868 1_555
O12 Sc1 2.177727 1_555
