# generated using pymatgen
data_Li2BSbO4
_symmetry_space_group_name_H-M   'P 1'
_cell_length_a   4.93817500
_cell_length_b   7.54378000
_cell_length_c   10.34515834
_cell_angle_alpha   82.38708318
_cell_angle_beta   90.00000000
_cell_angle_gamma   90.00000000
_symmetry_Int_Tables_number   1
_chemical_formula_structural   Li2BSbO4
_chemical_formula_sum   'Li8 B4 Sb4 O16'
_cell_volume   381.98618867
_cell_formula_units_Z   4
loop_
 _symmetry_equiv_pos_site_id
 _symmetry_equiv_pos_as_xyz
  1  'x, y, z'
loop_
 _atom_site_type_symbol
 _atom_site_label
 _atom_site_symmetry_multiplicity
 _atom_site_fract_x
 _atom_site_fract_y
 _atom_site_fract_z
 _atom_site_occupancy
  Li  Li0  1  0.69053100  0.99654300  0.82777200  1
  Li  Li1  1  0.80946900  0.99654300  0.32777200  1
  Li  Li2  1  0.79271100  0.79971900  0.58393400  1
  Li  Li3  1  0.70728900  0.79971900  0.08393400  1
  Li  Li4  1  0.29271100  0.20028100  0.91606600  1
  Li  Li5  1  0.20728900  0.20028100  0.41606600  1
  Li  Li6  1  0.19053100  0.00345700  0.67222800  1
  Li  Li7  1  0.30946900  0.00345700  0.17222800  1
  B  B0  1  0.17359500  0.84653500  0.94059900  1
  B  B1  1  0.32640500  0.84653500  0.44059900  1
  B  B2  1  0.67359500  0.15346500  0.55940100  1
  B  B3  1  0.82640500  0.15346500  0.05940100  1
  Sb  Sb0  1  0.76375200  0.50335500  0.87600000  1
  Sb  Sb1  1  0.26375200  0.49664500  0.62400000  1
  Sb  Sb2  1  0.73624800  0.50335500  0.37600000  1
  Sb  Sb3  1  0.23624800  0.49664500  0.12400000  1
  O  O0  1  0.30146000  0.96836500  0.85338500  1
  O  O1  1  0.19854000  0.96836500  0.35338500  1
  O  O2  1  0.91047200  0.78896900  0.91969500  1
  O  O3  1  0.58952800  0.78896900  0.41969500  1
  O  O4  1  0.19874900  0.78063600  0.56222200  1
  O  O5  1  0.64529700  0.54747600  0.68401500  1
  O  O6  1  0.30125100  0.78063600  0.06222200  1
  O  O7  1  0.85470300  0.54747600  0.18401500  1
  O  O8  1  0.14529700  0.45252400  0.81598500  1
  O  O9  1  0.69874900  0.21936400  0.93777800  1
  O  O10  1  0.35470300  0.45252400  0.31598500  1
  O  O11  1  0.80125100  0.21936400  0.43777800  1
  O  O12  1  0.41047200  0.21103100  0.58030500  1
  O  O13  1  0.08952800  0.21103100  0.08030500  1
  O  O14  1  0.80146000  0.03163500  0.64661500  1
  O  O15  1  0.69854000  0.03163500  0.14661500  1
loop_
_geom_bond_atom_site_label_1
_geom_bond_atom_site_label_2
_geom_bond_distance
_geom_bond_site_symmetry_2
Li0 O14 1.936735 1_565
Li0 O0 1.947272 1_555
Li0 O2 2.035048 1_555
Li0 O9 2.151528 1_565
Li1 O15 1.936735 1_565
Li1 O1 1.947272 1_655
Li1 O3 2.035048 1_555
Li1 O11 2.151528 1_565
Li2 O14 1.945191 1_565
Li2 O3 1.984104 1_555
Li2 O4 2.024874 1_655
Li2 O5 2.168125 1_555
Li3 O15 1.945191 1_565
Li3 O2 1.984104 1_554
Li3 O6 2.024874 1_555
Li3 O7 2.168125 1_555
Li4 O0 1.945191 1_545
Li4 O13 1.984104 1_556
Li4 O9 2.024874 1_555
Li4 O8 2.168125 1_555
Li5 O1 1.945191 1_545
Li5 O12 1.984104 1_555
Li5 O11 2.024874 1_455
Li5 O10 2.168125 1_555
Li6 O0 1.936735 1_545
Li6 O14 1.947272 1_455
Li6 O12 2.035048 1_555
Li6 O4 2.151528 1_545
Li7 O1 1.936735 1_545
Li7 O15 1.947272 1_555
Li7 O13 2.035048 1_555
Li7 O6 2.151528 1_545
B0 O0 1.355615 1_555
B0 O2 1.395901 1_455
B0 O6 1.435927 1_556
B1 O1 1.355615 1_555
B1 O3 1.395901 1_555
B1 O4 1.435927 1_555
B2 O14 1.355615 1_555
B2 O12 1.395901 1_555
B2 O11 1.435927 1_555
B3 O15 1.355615 1_555
B3 O13 1.395901 1_655
B3 O9 1.435927 1_554
O2 Sb0 2.372693 1_555
O3 Sb2 2.372693 1_555
O4 Sb1 2.176796 1_555
O5 Sb1 2.036065 1_555
O5 Sb0 2.054860 1_555
O6 Sb3 2.176796 1_555
O7 Sb3 2.036065 1_655
O7 Sb2 2.054860 1_555
O8 Sb0 2.036065 1_455
O8 Sb1 2.054860 1_555
O9 Sb0 2.176796 1_555
O10 Sb2 2.036065 1_555
O10 Sb3 2.054860 1_555
O11 Sb2 2.176796 1_555
O12 Sb1 2.372693 1_555
O13 Sb3 2.372693 1_555
