# generated using pymatgen
data_Li6VCoP2(CO7)2
_symmetry_space_group_name_H-M   'P 1'
_cell_length_a   8.23422567
_cell_length_b   8.23501962
_cell_length_c   8.49770029
_cell_angle_alpha   93.83766666
_cell_angle_beta   86.15275695
_cell_angle_gamma   74.80943017
_symmetry_Int_Tables_number   1
_chemical_formula_structural   Li6VCoP2(CO7)2
_chemical_formula_sum   'Li12 V2 Co2 P4 C4 O28'
_cell_volume   552.69295895
_cell_formula_units_Z   2
loop_
 _symmetry_equiv_pos_site_id
 _symmetry_equiv_pos_as_xyz
  1  'x, y, z'
loop_
 _atom_site_type_symbol
 _atom_site_label
 _atom_site_symmetry_multiplicity
 _atom_site_fract_x
 _atom_site_fract_y
 _atom_site_fract_z
 _atom_site_occupancy
  Li  Li0  1  0.52194700  0.72815400  0.10584600  1
  Li  Li1  1  0.02182400  0.22808100  0.10581400  1
  Li  Li2  1  0.47719500  0.27284800  0.89621000  1
  Li  Li3  1  0.97715600  0.77287100  0.89620300  1
  Li  Li4  1  0.14510300  0.87715300  0.27783700  1
  Li  Li5  1  0.64508600  0.37719000  0.27788700  1
  Li  Li6  1  0.37284500  0.10493600  0.27790100  1
  Li  Li7  1  0.87280100  0.60492200  0.27791200  1
  Li  Li8  1  0.62619500  0.89230100  0.72371500  1
  Li  Li9  1  0.12628200  0.39240500  0.72359700  1
  Li  Li10  1  0.85772000  0.12361700  0.72363900  1
  Li  Li11  1  0.35773100  0.62338400  0.72344100  1
  V  V0  1  0.77068400  0.97931400  0.32717300  1
  V  V1  1  0.27056300  0.47947300  0.32718400  1
  Co  Co0  1  0.73080800  0.51917200  0.67030500  1
  Co  Co1  1  0.23081700  0.01915700  0.67033300  1
  P  P0  1  0.49214100  0.75782300  0.41248300  1
  P  P1  1  0.99212200  0.25787400  0.41245900  1
  P  P2  1  0.50962600  0.24032800  0.59030900  1
  P  P3  1  0.00966000  0.74037000  0.59031200  1
  C  C0  1  0.71068000  0.03932100  0.03626400  1
  C  C1  1  0.21070700  0.53935100  0.03623600  1
  C  C2  1  0.28606400  0.96402900  0.96020300  1
  C  C3  1  0.78600000  0.46397800  0.96020300  1
  O  O0  1  0.83500700  0.91497500  0.06666500  1
  O  O1  1  0.33501500  0.41497900  0.06663600  1
  O  O2  1  0.32150600  0.92857700  0.10264000  1
  O  O3  1  0.82145300  0.42852500  0.10265600  1
  O  O4  1  0.61825500  0.13174200  0.15791900  1
  O  O5  1  0.11828500  0.63180400  0.15790800  1
  O  O6  1  0.45995700  0.29004700  0.42516300  1
  O  O7  1  0.96000700  0.79007700  0.42516500  1
  O  O8  1  0.33456500  0.91537600  0.43590800  1
  O  O9  1  0.83457600  0.41543500  0.43596500  1
  O  O10  1  0.66667100  0.08318900  0.56944400  1
  O  O11  1  0.16681000  0.58330000  0.56943400  1
  O  O12  1  0.54424400  0.70560600  0.57639700  1
  O  O13  1  0.04431300  0.20563300  0.57637300  1
  O  O14  1  0.37711300  0.87340200  0.83651800  1
  O  O15  1  0.87687400  0.37315600  0.83653100  1
  O  O16  1  0.67840100  0.07162800  0.89312000  1
  O  O17  1  0.17841400  0.57167500  0.89308500  1
  O  O18  1  0.16121200  0.08845600  0.93282700  1
  O  O19  1  0.66133500  0.58859200  0.93284400  1
  O  O20  1  0.45324100  0.61348200  0.30649300  1
  O  O21  1  0.95314800  0.11355600  0.30650200  1
  O  O22  1  0.63655000  0.79677400  0.30659900  1
  O  O23  1  0.13648900  0.29686600  0.30651600  1
  O  O24  1  0.54938500  0.38685500  0.69428700  1
  O  O25  1  0.04934700  0.88693600  0.69433800  1
  O  O26  1  0.36297900  0.20069100  0.69432000  1
  O  O27  1  0.86309800  0.70060700  0.69427100  1
loop_
_geom_bond_atom_site_label_1
_geom_bond_atom_site_label_2
_geom_bond_distance
_geom_bond_site_symmetry_2
Li0 O19 1.911956 1_554
Li0 O2 2.008330 1_555
Li0 O20 2.117789 1_555
Li0 O22 2.118137 1_555
Li1 O18 1.912072 1_554
Li1 O3 2.008034 1_455
Li1 O21 2.117303 1_455
Li1 O23 2.118522 1_555
Li2 O1 1.914527 1_556
Li2 O16 2.010227 1_555
Li2 O24 2.133136 1_555
Li2 O26 2.133965 1_555
Li3 O0 1.914542 1_556
Li3 O17 2.010344 1_655
Li3 O25 2.133008 1_655
Li3 O27 2.133818 1_555
Li4 O21 2.149389 1_465
Li4 O2 2.149933 1_555
Li4 O8 2.195258 1_555
Li4 O7 2.200314 1_455
Li4 O5 2.271122 1_555
Li5 O20 2.148299 1_555
Li5 O3 2.149614 1_555
Li5 O9 2.195531 1_555
Li5 O6 2.200576 1_555
Li5 O4 2.272013 1_555
Li6 O23 2.148949 1_555
Li6 O2 2.150046 1_545
Li6 O8 2.195596 1_545
Li6 O6 2.200545 1_555
Li6 O4 2.271377 1_555
Li7 O22 2.148026 1_555
Li7 O3 2.150262 1_555
Li7 O9 2.195244 1_555
Li7 O7 2.201194 1_555
Li7 O5 2.272215 1_655
Li8 O16 2.137543 1_565
Li8 O27 2.151212 1_555
Li8 O12 2.187615 1_555
Li8 O10 2.189185 1_565
Li8 O14 2.252351 1_555
Li9 O17 2.137407 1_555
Li9 O26 2.150085 1_555
Li9 O13 2.187730 1_555
Li9 O11 2.188776 1_555
Li9 O15 2.256149 1_455
Li10 O16 2.136852 1_555
Li10 O25 2.149708 1_645
Li10 O13 2.186745 1_655
Li10 O10 2.189793 1_555
Li10 O15 2.257055 1_555
Li11 O17 2.136747 1_555
Li11 O24 2.148926 1_555
Li11 O12 2.186127 1_555
Li11 O11 2.187085 1_555
Li11 O14 2.261819 1_555
Co0 O24 2.074230 1_555
Co0 O27 2.074231 1_555
Co0 O12 2.108638 1_555
Co0 O15 2.141298 1_555
Co0 O9 2.141675 1_555
Co0 O19 2.262289 1_555
Co1 O25 2.074006 1_545
Co1 O26 2.074181 1_555
Co1 O13 2.108765 1_555
Co1 O14 2.140927 1_545
Co1 O8 2.142354 1_545
Co1 O18 2.261936 1_555
C0 O16 1.292552 1_554
C0 O0 1.298023 1_545
C0 O4 1.308709 1_555
C1 O17 1.292665 1_554
C1 O1 1.298055 1_555
C1 O5 1.308902 1_555
C2 O18 1.293407 1_565
C2 O2 1.298265 1_556
C2 O14 1.311403 1_555
C3 O19 1.293363 1_555
C3 O3 1.298419 1_556
C3 O15 1.311380 1_555
O0 V0 2.236156 1_555
O1 V1 2.236736 1_555
O4 V0 2.208594 1_545
O5 V1 2.207784 1_555
O6 P2 1.539646 1_555
O6 V1 2.152178 1_555
O7 P3 1.539595 1_655
O7 V0 2.151031 1_555
O8 P0 1.566871 1_555
O9 P1 1.566773 1_555
O10 P2 1.561976 1_555
O10 V0 2.201682 1_545
O11 P3 1.562155 1_555
O11 V1 2.200957 1_555
O12 P0 1.540392 1_555
O13 P1 1.540637 1_455
O20 P0 1.556160 1_555
O20 V1 2.090897 1_555
O21 P1 1.556132 1_555
O21 V0 2.090770 1_545
O22 P0 1.556075 1_555
O22 V0 2.090685 1_555
O23 P1 1.556227 1_455
O23 V1 2.090855 1_555
O24 P2 1.564295 1_555
O25 P3 1.564497 1_555
O26 P2 1.564549 1_555
O27 P3 1.564230 1_655
