# generated using pymatgen
data_Li9Y(NiO4)2
_symmetry_space_group_name_H-M   'P 1'
_cell_length_a   6.50581100
_cell_length_b   7.71254300
_cell_length_c   16.17257200
_cell_angle_alpha   90.00000000
_cell_angle_beta   90.00000000
_cell_angle_gamma   90.00000000
_symmetry_Int_Tables_number   1
_chemical_formula_structural   Li9Y(NiO4)2
_chemical_formula_sum   'Li36 Y4 Ni8 O32'
_cell_volume   811.48058597
_cell_formula_units_Z   4
loop_
 _symmetry_equiv_pos_site_id
 _symmetry_equiv_pos_as_xyz
  1  'x, y, z'
loop_
 _atom_site_type_symbol
 _atom_site_label
 _atom_site_symmetry_multiplicity
 _atom_site_fract_x
 _atom_site_fract_y
 _atom_site_fract_z
 _atom_site_occupancy
  Li  Li0  1  0.00009800  0.04036700  0.56962200  1
  Li  Li1  1  0.49990200  0.04036700  0.56962200  1
  Li  Li2  1  0.75000000  0.86215300  0.64645100  1
  Li  Li3  1  0.99910200  0.62960100  0.62717700  1
  Li  Li4  1  0.50089800  0.62960100  0.62717700  1
  Li  Li5  1  0.25000000  0.84977300  0.64658000  1
  Li  Li6  1  0.75000000  0.33147400  0.69647800  1
  Li  Li7  1  0.50919700  0.08249000  0.71090400  1
  Li  Li8  1  0.99080300  0.08249000  0.71090400  1
  Li  Li9  1  0.00919700  0.58249000  0.78909600  1
  Li  Li10  1  0.49080300  0.58249000  0.78909600  1
  Li  Li11  1  0.25000000  0.83147400  0.80352200  1
  Li  Li12  1  0.75000000  0.34977300  0.85342000  1
  Li  Li13  1  0.00089800  0.12960100  0.87282300  1
  Li  Li14  1  0.49910200  0.12960100  0.87282300  1
  Li  Li15  1  0.25000000  0.36215300  0.85354900  1
  Li  Li16  1  0.50009800  0.54036700  0.93037800  1
  Li  Li17  1  0.99990200  0.54036700  0.93037800  1
  Li  Li18  1  0.00009800  0.45963300  0.06962200  1
  Li  Li19  1  0.49990200  0.45963300  0.06962200  1
  Li  Li20  1  0.75000000  0.63784700  0.14645100  1
  Li  Li21  1  0.50089800  0.87039900  0.12717700  1
  Li  Li22  1  0.99910200  0.87039900  0.12717700  1
  Li  Li23  1  0.25000000  0.65022700  0.14658000  1
  Li  Li24  1  0.75000000  0.16852600  0.19647800  1
  Li  Li25  1  0.50919700  0.41751000  0.21090400  1
  Li  Li26  1  0.99080300  0.41751000  0.21090400  1
  Li  Li27  1  0.00919700  0.91751000  0.28909600  1
  Li  Li28  1  0.49080300  0.91751000  0.28909600  1
  Li  Li29  1  0.25000000  0.66852600  0.30352200  1
  Li  Li30  1  0.75000000  0.15022700  0.35342000  1
  Li  Li31  1  0.00089800  0.37039900  0.37282300  1
  Li  Li32  1  0.49910200  0.37039900  0.37282300  1
  Li  Li33  1  0.25000000  0.13784700  0.35354900  1
  Li  Li34  1  0.50009800  0.95963300  0.43037800  1
  Li  Li35  1  0.99990200  0.95963300  0.43037800  1
  Y  Y0  1  0.25000000  0.32544600  0.52128300  1
  Y  Y1  1  0.75000000  0.82544600  0.97871700  1
  Y  Y2  1  0.25000000  0.17455400  0.02128300  1
  Y  Y3  1  0.75000000  0.67455400  0.47871700  1
  Ni  Ni0  1  0.75000000  0.27899800  0.53399400  1
  Ni  Ni1  1  0.25000000  0.33079800  0.70386900  1
  Ni  Ni2  1  0.75000000  0.83079800  0.79613100  1
  Ni  Ni3  1  0.25000000  0.77899800  0.96600600  1
  Ni  Ni4  1  0.75000000  0.22100200  0.03399400  1
  Ni  Ni5  1  0.25000000  0.16920200  0.20386900  1
  Ni  Ni6  1  0.75000000  0.66920200  0.29613100  1
  Ni  Ni7  1  0.25000000  0.72100200  0.46600600  1
  O  O0  1  0.01197700  0.80830100  0.53233400  1
  O  O1  1  0.48802300  0.80830100  0.53233400  1
  O  O2  1  0.75000000  0.50318300  0.59376200  1
  O  O3  1  0.75000000  0.11046700  0.63156900  1
  O  O4  1  0.25000000  0.11718600  0.63121600  1
  O  O5  1  0.25000000  0.51385700  0.62075800  1
  O  O6  1  0.50651800  0.80785600  0.72192600  1
  O  O7  1  0.99348200  0.80785600  0.72192600  1
  O  O8  1  0.00651800  0.30785600  0.77807400  1
  O  O9  1  0.49348200  0.30785600  0.77807400  1
  O  O10  1  0.75000000  0.01385700  0.87924200  1
  O  O11  1  0.75000000  0.61718600  0.86878400  1
  O  O12  1  0.25000000  0.61046700  0.86843100  1
  O  O13  1  0.25000000  0.00318300  0.90623800  1
  O  O14  1  0.51197700  0.30830100  0.96766600  1
  O  O15  1  0.98802300  0.30830100  0.96766600  1
  O  O16  1  0.01197700  0.69169900  0.03233400  1
  O  O17  1  0.48802300  0.69169900  0.03233400  1
  O  O18  1  0.75000000  0.99681700  0.09376200  1
  O  O19  1  0.75000000  0.38953300  0.13156900  1
  O  O20  1  0.25000000  0.38281400  0.13121600  1
  O  O21  1  0.25000000  0.98614300  0.12075800  1
  O  O22  1  0.50651800  0.69214400  0.22192600  1
  O  O23  1  0.99348200  0.69214400  0.22192600  1
  O  O24  1  0.00651800  0.19214400  0.27807400  1
  O  O25  1  0.49348200  0.19214400  0.27807400  1
  O  O26  1  0.75000000  0.48614300  0.37924200  1
  O  O27  1  0.75000000  0.88281400  0.36878400  1
  O  O28  1  0.25000000  0.88953300  0.36843100  1
  O  O29  1  0.25000000  0.49681700  0.40623800  1
  O  O30  1  0.51197700  0.19169900  0.46766600  1
  O  O31  1  0.98802300  0.19169900  0.46766600  1
loop_
_geom_bond_atom_site_label_1
_geom_bond_atom_site_label_2
_geom_bond_distance
_geom_bond_site_symmetry_2
Li0 O0 1.890261 1_545
Li0 O3 1.985803 1_455
Li0 O4 1.996641 1_555
Li0 O31 2.021698 1_455
Li1 O1 1.890261 1_545
Li1 O3 1.985803 1_555
Li1 O4 1.996641 1_555
Li1 O30 2.021698 1_555
Li2 O3 1.930197 1_565
Li2 O6 2.043159 1_555
Li2 O7 2.043159 1_555
Li2 O0 2.546272 1_655
Li2 O1 2.546272 1_555
Li3 O5 1.863342 1_655
Li3 O2 1.966990 1_555
Li3 O7 2.058995 1_555
Li3 O0 2.063795 1_655
Li4 O5 1.863342 1_555
Li4 O2 1.966990 1_555
Li4 O6 2.058995 1_555
Li4 O1 2.063795 1_555
Li5 O4 2.077348 1_565
Li5 O7 2.091515 1_455
Li5 O6 2.091515 1_555
Li5 O0 2.431888 1_555
Li5 O1 2.431888 1_555
Li6 O3 2.001843 1_555
Li6 O2 2.124460 1_555
Li6 O8 2.135335 1_655
Li6 O9 2.135335 1_555
Li7 O3 2.036436 1_555
Li7 O9 2.052236 1_555
Li7 O6 2.125685 1_545
Li7 O4 2.139175 1_555
Li8 O3 2.036436 1_555
Li8 O8 2.052236 1_655
Li8 O7 2.125685 1_545
Li8 O4 2.139175 1_655
Li9 O12 2.036436 1_555
Li9 O7 2.052236 1_455
Li9 O8 2.125685 1_555
Li9 O11 2.139175 1_455
Li10 O12 2.036436 1_555
Li10 O6 2.052236 1_555
Li10 O9 2.125685 1_555
Li10 O11 2.139175 1_555
Li11 O12 2.001843 1_555
Li11 O13 2.124460 1_565
Li11 O7 2.135335 1_455
Li11 O6 2.135335 1_555
Li12 O11 2.077348 1_555
Li12 O8 2.091515 1_655
Li12 O9 2.091515 1_555
Li12 O15 2.431888 1_555
Li12 O14 2.431888 1_555
Li13 O10 1.863342 1_455
Li13 O13 1.966990 1_555
Li13 O8 2.058995 1_555
Li13 O15 2.063795 1_455
Li14 O10 1.863342 1_555
Li14 O13 1.966990 1_555
Li14 O9 2.058995 1_555
Li14 O14 2.063795 1_555
Li15 O12 1.930197 1_555
Li15 O9 2.043159 1_555
Li15 O8 2.043159 1_555
Li15 O14 2.546272 1_555
Li15 O15 2.546272 1_455
Li16 O14 1.890261 1_555
Li16 O12 1.985803 1_555
Li16 O11 1.996641 1_555
Li16 O17 2.021698 1_556
Li17 O15 1.890261 1_555
Li17 O12 1.985803 1_655
Li17 O11 1.996641 1_555
Li17 O16 2.021698 1_656
Li18 O16 1.890261 1_555
Li18 O19 1.985803 1_455
Li18 O20 1.996641 1_555
Li18 O15 2.021698 1_454
Li19 O17 1.890261 1_555
Li19 O19 1.985803 1_555
Li19 O20 1.996641 1_555
Li19 O14 2.021698 1_554
Li20 O19 1.930197 1_555
Li20 O22 2.043159 1_555
Li20 O23 2.043159 1_555
Li20 O16 2.546272 1_655
Li20 O17 2.546272 1_555
Li21 O21 1.863342 1_555
Li21 O18 1.966990 1_555
Li21 O22 2.058995 1_555
Li21 O17 2.063795 1_555
Li22 O21 1.863342 1_655
Li22 O18 1.966990 1_555
Li22 O23 2.058995 1_555
Li22 O16 2.063795 1_655
Li23 O20 2.077348 1_555
Li23 O22 2.091515 1_555
Li23 O23 2.091515 1_455
Li23 O17 2.431888 1_555
Li23 O16 2.431888 1_555
Li24 O19 2.001843 1_555
Li24 O18 2.124460 1_545
Li24 O24 2.135335 1_655
Li24 O25 2.135335 1_555
Li25 O19 2.036436 1_555
Li25 O25 2.052236 1_555
Li25 O22 2.125685 1_555
Li25 O20 2.139175 1_555
Li26 O19 2.036436 1_555
Li26 O24 2.052236 1_655
Li26 O23 2.125685 1_555
Li26 O20 2.139175 1_655
Li27 O28 2.036436 1_555
Li27 O23 2.052236 1_455
Li27 O24 2.125685 1_565
Li27 O27 2.139175 1_455
Li28 O28 2.036436 1_555
Li28 O22 2.052236 1_555
Li28 O25 2.125685 1_565
Li28 O27 2.139175 1_555
Li29 O28 2.001843 1_555
Li29 O29 2.124460 1_555
Li29 O22 2.135335 1_555
Li29 O23 2.135335 1_455
Li30 O27 2.077348 1_545
Li30 O24 2.091515 1_655
Li30 O25 2.091515 1_555
Li30 O30 2.431888 1_555
Li30 O31 2.431888 1_555
Li31 O26 1.863342 1_455
Li31 O29 1.966990 1_555
Li31 O24 2.058995 1_555
Li31 O31 2.063795 1_455
Li32 O26 1.863342 1_555
Li32 O29 1.966990 1_555
Li32 O25 2.058995 1_555
Li32 O30 2.063795 1_555
Li33 O28 1.930197 1_545
Li33 O25 2.043159 1_555
Li33 O24 2.043159 1_555
Li33 O31 2.546272 1_455
Li33 O30 2.546272 1_555
Li34 O30 1.890261 1_565
Li34 O28 1.985803 1_555
Li34 O27 1.996641 1_555
Li34 O1 2.021698 1_555
Li35 O31 1.890261 1_565
Li35 O28 1.985803 1_655
Li35 O27 1.996641 1_555
Li35 O0 2.021698 1_655
Ni0 O2 1.980880 1_555
Ni0 O30 2.000489 1_555
Ni0 O31 2.000489 1_555
Ni0 O3 2.044430 1_555
Ni1 O5 1.949353 1_555
Ni1 O9 1.995175 1_555
Ni1 O8 1.995175 1_555
Ni1 O4 2.023566 1_555
Ni2 O10 1.949353 1_565
Ni2 O6 1.995175 1_555
Ni2 O7 1.995175 1_555
Ni2 O11 2.023566 1_555
Ni3 O13 1.980880 1_565
Ni3 O17 2.000489 1_556
Ni3 O16 2.000489 1_556
Ni3 O12 2.044430 1_555
Ni4 O18 1.980880 1_545
Ni4 O15 2.000489 1_554
Ni4 O14 2.000489 1_554
Ni4 O19 2.044430 1_555
Ni5 O21 1.949353 1_545
Ni5 O25 1.995175 1_555
Ni5 O24 1.995175 1_555
Ni5 O20 2.023566 1_555
Ni6 O26 1.949353 1_555
Ni6 O23 1.995175 1_555
Ni6 O22 1.995175 1_555
Ni6 O27 2.023566 1_555
Ni7 O29 1.980880 1_555
Ni7 O1 2.000489 1_555
Ni7 O0 2.000489 1_555
Ni7 O28 2.044430 1_555
O0 Y3 2.172751 1_455
O1 Y3 2.172751 1_555
O2 Y3 2.282245 1_555
O4 Y0 2.396007 1_555
O5 Y0 2.167882 1_555
O10 Y1 2.167882 1_545
O11 Y1 2.396007 1_555
O13 Y2 2.282245 1_556
O14 Y2 2.172751 1_556
O15 Y2 2.172751 1_656
O16 Y1 2.172751 1_454
O17 Y1 2.172751 1_554
O18 Y1 2.282245 1_554
O20 Y2 2.396007 1_555
O21 Y2 2.167882 1_565
O26 Y3 2.167882 1_555
O27 Y3 2.396007 1_555
O29 Y0 2.282245 1_555
O30 Y0 2.172751 1_555
O31 Y0 2.172751 1_655
