# generated using pymatgen
data_LiFeP2HO7
_symmetry_space_group_name_H-M   'P 1'
_cell_length_a   6.60854360
_cell_length_b   10.74237727
_cell_length_c   7.50771400
_cell_angle_alpha   87.94157809
_cell_angle_beta   84.15044638
_cell_angle_gamma   95.20557005
_symmetry_Int_Tables_number   1
_chemical_formula_structural   LiFeP2HO7
_chemical_formula_sum   'Li4 Fe4 P8 H4 O28'
_cell_volume   527.47254855
_cell_formula_units_Z   4
loop_
 _symmetry_equiv_pos_site_id
 _symmetry_equiv_pos_as_xyz
  1  'x, y, z'
loop_
 _atom_site_type_symbol
 _atom_site_label
 _atom_site_symmetry_multiplicity
 _atom_site_fract_x
 _atom_site_fract_y
 _atom_site_fract_z
 _atom_site_occupancy
  Li  Li0  1  0.11630900  0.53724000  0.31612800  1
  Li  Li1  1  0.11644800  0.03727700  0.81622100  1
  Li  Li2  1  0.88362500  0.46275600  0.68387000  1
  Li  Li3  1  0.88363000  0.96272800  0.18388100  1
  Fe  Fe0  1  0.35151900  0.69217700  0.58907100  1
  Fe  Fe1  1  0.64860300  0.30799600  0.41070700  1
  Fe  Fe2  1  0.35149300  0.19175900  0.08947300  1
  Fe  Fe3  1  0.64837200  0.80783200  0.91072800  1
  P  P0  1  0.15909000  0.77378100  0.99399000  1
  P  P1  1  0.15910800  0.27377200  0.49400500  1
  P  P2  1  0.84094400  0.22626500  0.00600000  1
  P  P3  1  0.84089100  0.72622700  0.50597700  1
  P  P4  1  0.38954800  0.41015200  0.76645900  1
  P  P5  1  0.38962500  0.91016000  0.26645400  1
  P  P6  1  0.61040400  0.58983700  0.23353200  1
  P  P7  1  0.61042900  0.08984900  0.73357800  1
  H  H0  1  0.16443300  0.57952700  0.92591900  1
  H  H1  1  0.16450900  0.07952300  0.42587200  1
  H  H2  1  0.83551000  0.42051000  0.07407400  1
  H  H3  1  0.83550400  0.92048500  0.57412100  1
  O  O0  1  0.08693300  0.62882600  0.02301700  1
  O  O1  1  0.08696400  0.12881300  0.52295300  1
  O  O2  1  0.91302400  0.37123300  0.97695900  1
  O  O3  1  0.91301600  0.87118900  0.47700900  1
  O  O4  1  0.01626800  0.14552900  0.02869900  1
  O  O5  1  0.01622200  0.64549700  0.52859200  1
  O  O6  1  0.98377600  0.85453100  0.97135500  1
  O  O7  1  0.98378200  0.35451100  0.47135900  1
  O  O8  1  0.23829600  0.80187200  0.18277100  1
  O  O9  1  0.23825000  0.30182800  0.68279400  1
  O  O10  1  0.76179300  0.19814200  0.81722000  1
  O  O11  1  0.76168600  0.69815800  0.31720000  1
  O  O12  1  0.27637900  0.52954100  0.75532900  1
  O  O13  1  0.27645700  0.02955600  0.25541100  1
  O  O14  1  0.72359800  0.47046600  0.24463700  1
  O  O15  1  0.72353200  0.97043400  0.74465200  1
  O  O16  1  0.33152700  0.79345300  0.84249900  1
  O  O17  1  0.33157700  0.29348300  0.34254200  1
  O  O18  1  0.66847800  0.20657100  0.15747200  1
  O  O19  1  0.66846100  0.70652400  0.65746100  1
  O  O20  1  0.39365300  0.36151600  0.95726200  1
  O  O21  1  0.39370800  0.86149000  0.45724600  1
  O  O22  1  0.60630700  0.63846500  0.04270300  1
  O  O23  1  0.60631000  0.13850100  0.54277000  1
  O  O24  1  0.40707400  0.58110300  0.35210800  1
  O  O25  1  0.40711400  0.08113500  0.85221300  1
  O  O26  1  0.59289500  0.41889300  0.64786200  1
  O  O27  1  0.59292900  0.91888600  0.14784700  1
loop_
_geom_bond_atom_site_label_1
_geom_bond_atom_site_label_2
_geom_bond_distance
_geom_bond_site_symmetry_2
Li0 O24 1.984422 1_555
Li0 O5 2.095733 1_555
Li0 O7 2.300885 1_455
Li0 O0 2.411321 1_555
Li1 O25 1.983807 1_555
Li1 O4 2.095957 1_556
Li1 O6 2.300954 1_445
Li1 O1 2.412334 1_555
Li2 O26 1.984251 1_555
Li2 O7 2.096052 1_555
Li2 O5 2.301258 1_655
Li2 O2 2.410945 1_555
Li3 O27 1.984080 1_555
Li3 O6 2.095801 1_554
Li3 O4 2.301528 1_665
Li3 O3 2.411257 1_555
Fe0 O21 2.021829 1_555
Fe0 O12 2.101559 1_555
Fe0 O24 2.195992 1_555
Fe0 O19 2.200168 1_555
Fe0 O16 2.223681 1_555
Fe0 O5 2.321059 1_555
Fe1 O23 2.024325 1_555
Fe1 O14 2.099294 1_555
Fe1 O26 2.196183 1_555
Fe1 O17 2.200131 1_555
Fe1 O18 2.223254 1_555
Fe1 O7 2.320464 1_555
Fe2 O20 2.027259 1_554
Fe2 O13 2.096525 1_555
Fe2 O25 2.195028 1_554
Fe2 O18 2.199434 1_555
Fe2 O17 2.223871 1_555
Fe2 O4 2.320617 1_555
Fe3 O22 2.022828 1_556
Fe3 O15 2.100546 1_555
Fe3 O27 2.196719 1_556
Fe3 O16 2.199142 1_555
Fe3 O19 2.222825 1_555
Fe3 O6 2.322097 1_555
H0 O0 1.036842 1_556
H0 O12 1.550579 1_555
H1 O1 1.036839 1_555
H1 O13 1.549734 1_555
H2 O2 1.036833 1_554
H2 O14 1.550188 1_555
H3 O3 1.036931 1_555
H3 O15 1.550135 1_555
O0 P0 1.587240 1_554
O1 P1 1.587222 1_555
O2 P2 1.587280 1_556
O3 P3 1.587238 1_555
O4 P2 1.528286 1_455
O5 P3 1.528177 1_455
O6 P0 1.528246 1_655
O7 P1 1.528250 1_655
O8 P0 1.589687 1_554
O8 P5 1.648490 1_555
O9 P1 1.589501 1_555
O9 P4 1.648565 1_555
O10 P2 1.589600 1_556
O10 P7 1.648516 1_555
O11 P3 1.589611 1_555
O11 P6 1.648493 1_555
O12 P4 1.546047 1_555
O13 P5 1.546061 1_545
O14 P6 1.545958 1_555
O15 P7 1.546014 1_565
O16 P0 1.520417 1_555
O17 P1 1.520435 1_555
O18 P2 1.520459 1_555
O19 P3 1.520366 1_555
O20 P4 1.510786 1_555
O21 P5 1.510802 1_555
O22 P6 1.510935 1_555
O23 P7 1.510889 1_555
O24 P6 1.527804 1_555
O25 P7 1.527949 1_555
O26 P4 1.527970 1_555
O27 P5 1.527781 1_555
