# generated using pymatgen
data_Mn3(OF2)2
_symmetry_space_group_name_H-M   'P 1'
_cell_length_a   4.80538900
_cell_length_b   5.74930541
_cell_length_c   7.97406247
_cell_angle_alpha   87.10450665
_cell_angle_beta   87.60078445
_cell_angle_gamma   88.53261139
_symmetry_Int_Tables_number   1
_chemical_formula_structural   Mn3(OF2)2
_chemical_formula_sum   'Mn6 O4 F8'
_cell_volume   219.76953512
_cell_formula_units_Z   2
loop_
 _symmetry_equiv_pos_site_id
 _symmetry_equiv_pos_as_xyz
  1  'x, y, z'
loop_
 _atom_site_type_symbol
 _atom_site_label
 _atom_site_symmetry_multiplicity
 _atom_site_fract_x
 _atom_site_fract_y
 _atom_site_fract_z
 _atom_site_occupancy
  Mn  Mn0  1  0.49662200  0.49595700  0.00501300  1
  Mn  Mn1  1  0.56155900  0.83181700  0.66259400  1
  Mn  Mn2  1  0.48949700  0.17040400  0.33646100  1
  Mn  Mn3  1  0.96696900  0.33274600  0.67719500  1
  Mn  Mn4  1  0.00773400  0.66830800  0.33373700  1
  Mn  Mn5  1  0.99217000  0.99287900  0.98438600  1
  O  O0  1  0.80597500  0.04477200  0.76446900  1
  O  O1  1  0.69456100  0.52855600  0.78229400  1
  O  O2  1  0.69395800  0.88209900  0.43055800  1
  O  O3  1  0.30904700  0.46091500  0.22973200  1
  F  F0  1  0.79756600  0.37577200  0.43173500  1
  F  F1  1  0.79913300  0.69290100  0.09912400  1
  F  F2  1  0.70044700  0.19341500  0.10422300  1
  F  F3  1  0.27974400  0.14170900  0.56840800  1
  F  F4  1  0.32059000  0.80477600  0.88759300  1
  F  F5  1  0.18231600  0.61862000  0.57797500  1
  F  F6  1  0.19573300  0.96175700  0.21749100  1
  F  F7  1  0.20637500  0.30259600  0.90701000  1
loop_
_geom_bond_atom_site_label_1
_geom_bond_atom_site_label_2
_geom_bond_distance
_geom_bond_site_symmetry_2
Mn0 O3 1.975258 1_555
Mn0 O1 1.981923 1_554
Mn1 O2 1.941308 1_555
Mn1 O0 1.947419 1_565
Mn1 O1 2.045812 1_555
Mn2 O3 2.027293 1_555
Mn2 O2 2.031867 1_545
Mn3 O1 1.900331 1_555
Mn3 O0 1.930836 1_555
Mn4 O3 2.029034 1_555
Mn4 O2 2.069753 1_455
Mn5 O0 2.007394 1_565
F0 Mn4 2.085062 1_655
F0 Mn2 2.106455 1_555
F0 Mn3 2.151537 1_555
F1 Mn0 2.054247 1_555
F1 Mn5 2.126852 1_554
F1 Mn4 2.155877 1_655
F2 Mn5 2.030754 1_544
F2 Mn2 2.073521 1_555
F2 Mn0 2.109341 1_555
F3 Mn3 2.029881 1_455
F3 Mn2 2.070181 1_555
F3 Mn1 2.323517 1_545
F4 Mn5 2.037373 1_455
F4 Mn1 2.095498 1_555
F4 Mn0 2.136833 1_556
F5 Mn3 2.070114 1_455
F5 Mn4 2.155634 1_555
F5 Mn1 2.362164 1_555
F6 Mn4 2.090871 1_555
F6 Mn5 2.133933 1_454
F6 Mn2 2.155352 1_565
F7 Mn0 2.012545 1_556
F7 Mn5 2.130885 1_445
F7 Mn3 2.201371 1_455
