# generated using pymatgen
data_Ba17U11O42
_symmetry_space_group_name_H-M   'P 1'
_cell_length_a   8.95910600
_cell_length_b   10.90258209
_cell_length_c   14.23666565
_cell_angle_alpha   96.84494522
_cell_angle_beta   90.68344852
_cell_angle_gamma   113.45791901
_symmetry_Int_Tables_number   1
_chemical_formula_structural   Ba17U11O42
_chemical_formula_sum   'Ba17 U11 O42'
_cell_volume   1263.88456576
_cell_formula_units_Z   1
loop_
 _symmetry_equiv_pos_site_id
 _symmetry_equiv_pos_as_xyz
  1  'x, y, z'
loop_
 _atom_site_type_symbol
 _atom_site_label
 _atom_site_symmetry_multiplicity
 _atom_site_fract_x
 _atom_site_fract_y
 _atom_site_fract_z
 _atom_site_occupancy
  Ba  Ba0  1  0.89705500  0.78634600  0.42872300  1
  Ba  Ba1  1  0.39302100  0.78951900  0.42833700  1
  Ba  Ba2  1  0.82299900  0.64401400  0.71108600  1
  Ba  Ba3  1  0.75248000  0.49624400  0.99995700  1
  Ba  Ba4  1  0.46159400  0.92541100  0.14630500  1
  Ba  Ba5  1  0.10294500  0.21365400  0.57127700  1
  Ba  Ba6  1  0.24752000  0.50375600  0.00004300  1
  Ba  Ba7  1  0.50000000  0.50000000  0.50000000  1
  Ba  Ba8  1  0.64339700  0.78581000  0.92786400  1
  Ba  Ba9  1  0.17700100  0.35598600  0.28891400  1
  Ba  Ba10  1  0.32090000  0.63994800  0.71614100  1
  Ba  Ba11  1  0.96515900  0.93296800  0.14464700  1
  Ba  Ba12  1  0.67910000  0.36005200  0.28385900  1
  Ba  Ba13  1  0.35660300  0.21419000  0.07213600  1
  Ba  Ba14  1  0.60697900  0.21048100  0.57166300  1
  Ba  Ba15  1  0.03484100  0.06703200  0.85535300  1
  Ba  Ba16  1  0.53840600  0.07458900  0.85369500  1
  U  U0  1  0.00000000  0.50000000  0.50000000  1
  U  U1  1  0.07101400  0.64272800  0.21420400  1
  U  U2  1  0.13857200  0.77957500  0.92734500  1
  U  U3  1  0.78554800  0.07255800  0.35723000  1
  U  U4  1  0.86142800  0.22042500  0.07265500  1
  U  U5  1  0.57610700  0.64963200  0.21577500  1
  U  U6  1  0.92898600  0.35727200  0.78579600  1
  U  U7  1  0.28220100  0.06451800  0.36090100  1
  U  U8  1  0.42389300  0.35036800  0.78422500  1
  U  U9  1  0.71779900  0.93548200  0.63909900  1
  U  U10  1  0.21445200  0.92744200  0.64277000  1
  O  O0  1  0.83895500  0.66493000  0.24613400  1
  O  O1  1  0.06757700  0.70951300  0.58873800  1
  O  O2  1  0.21528900  0.86477000  0.26870800  1
  O  O3  1  0.45596600  0.91803100  0.61143000  1
  O  O4  1  0.77053800  0.47994300  0.46316700  1
  O  O5  1  0.90550900  0.75348500  0.88809900  1
  O  O6  1  0.91221800  0.40284400  0.63634200  1
  O  O7  1  0.05291900  0.67887200  0.06365200  1
  O  O8  1  0.08778200  0.59715600  0.36365800  1
  O  O9  1  0.22897600  0.88134400  0.79046600  1
  O  O10  1  0.22946200  0.52005700  0.53683300  1
  O  O11  1  0.37111400  0.80206800  0.96626000  1
  O  O12  1  0.64284200  0.85153400  0.30969800  1
  O  O13  1  0.92122900  0.42338700  0.16202200  1
  O  O14  1  0.66766500  0.75437300  0.55253300  1
  O  O15  1  0.93242300  0.29048700  0.41126200  1
  O  O16  1  0.07877100  0.57661300  0.83797800  1
  O  O17  1  0.31135100  0.63357000  0.18521400  1
  O  O18  1  0.77102400  0.11865600  0.20953400  1
  O  O19  1  0.48553200  0.54399700  0.32726300  1
  O  O20  1  0.79795400  0.03732000  0.50986800  1
  O  O21  1  0.63043500  0.83389800  0.75525200  1
  O  O22  1  0.66139800  0.75722400  0.10484700  1
  O  O23  1  0.94708100  0.32112800  0.93634800  1
  O  O24  1  0.09449100  0.24651500  0.11190100  1
  O  O25  1  0.33233500  0.24562700  0.44746700  1
  O  O26  1  0.47097900  0.53097300  0.87386400  1
  O  O27  1  0.78471100  0.13523000  0.73129200  1
  O  O28  1  0.52902100  0.46902700  0.12613600  1
  O  O29  1  0.82103500  0.03683000  0.98924500  1
  O  O30  1  0.01992400  0.04651700  0.33197900  1
  O  O31  1  0.16104500  0.33507000  0.75386600  1
  O  O32  1  0.20204600  0.96268000  0.49013200  1
  O  O33  1  0.33860200  0.24277600  0.89515300  1
  O  O34  1  0.36956500  0.16610200  0.24474800  1
  O  O35  1  0.51446800  0.45600300  0.67273700  1
  O  O36  1  0.54403400  0.08196900  0.38857000  1
  O  O37  1  0.68864900  0.36643000  0.81478600  1
  O  O38  1  0.98007600  0.95348300  0.66802100  1
  O  O39  1  0.17896500  0.96317000  0.01075500  1
  O  O40  1  0.35715800  0.14846600  0.69030200  1
  O  O41  1  0.62888600  0.19793200  0.03374000  1
loop_
_geom_bond_atom_site_label_1
_geom_bond_atom_site_label_2
_geom_bond_distance
_geom_bond_site_symmetry_2
Ba0 O14 2.667301 1_555
Ba0 O32 2.699386 1_655
Ba0 O0 2.716497 1_555
Ba0 O1 3.100969 1_655
Ba0 O30 3.104215 1_665
Ba0 O12 3.169752 1_555
Ba0 O4 3.173934 1_555
Ba0 O8 3.228129 1_655
Ba0 O20 3.288642 1_565
Ba1 O12 2.734403 1_555
Ba1 O3 2.746086 1_555
Ba1 O8 2.763734 1_555
Ba1 O36 3.054730 1_565
Ba1 O32 3.078511 1_555
Ba1 O2 3.125926 1_555
Ba1 O14 3.183688 1_555
Ba1 O19 3.286268 1_555
Ba1 O10 3.297306 1_555
Ba2 O5 2.618759 1_555
Ba2 O35 2.706773 1_555
Ba2 O1 2.736245 1_655
Ba2 O6 3.116328 1_555
Ba2 O21 3.196343 1_555
Ba2 O14 3.222605 1_555
Ba2 O38 3.236307 1_555
Ba2 O16 3.257719 1_655
Ba2 O37 3.315812 1_555
Ba3 O28 2.657604 1_556
Ba3 O7 2.697477 1_656
Ba3 O37 2.776701 1_555
Ba3 O13 3.090280 1_556
Ba3 O41 3.090907 1_556
Ba3 O23 3.127369 1_555
Ba3 O5 3.215089 1_555
Ba3 O26 3.246637 1_555
Ba3 O22 3.443347 1_556
Ba4 O11 2.701223 1_554
Ba4 O2 2.747370 1_555
Ba4 O18 2.787958 1_565
Ba4 O17 3.044792 1_555
Ba4 O22 3.048862 1_555
Ba4 O12 3.177168 1_555
Ba4 O34 3.225470 1_565
Ba4 O39 3.347800 1_555
Ba4 O41 3.359960 1_565
Ba5 O25 2.667301 1_555
Ba5 O20 2.699386 1_455
Ba5 O31 2.716497 1_555
Ba5 O15 3.100969 1_455
Ba5 O38 3.104215 1_445
Ba5 O40 3.169752 1_555
Ba5 O10 3.173934 1_555
Ba5 O6 3.228129 1_455
Ba5 O32 3.288642 1_545
Ba6 O26 2.657604 1_554
Ba6 O23 2.697477 1_454
Ba6 O17 2.776701 1_555
Ba6 O16 3.090280 1_554
Ba6 O11 3.090907 1_554
Ba6 O7 3.127369 1_555
Ba6 O24 3.215089 1_555
Ba6 O28 3.246637 1_555
Ba6 O33 3.443347 1_554
Ba7 O35 2.572477 1_555
Ba7 O19 2.572477 1_555
Ba7 O10 2.573413 1_555
Ba7 O4 2.573413 1_555
Ba7 O14 2.582474 1_555
Ba7 O25 2.582474 1_555
Ba8 O5 2.569476 1_555
Ba8 O11 2.575641 1_555
Ba8 O21 2.583803 1_555
Ba8 O22 2.586363 1_556
Ba8 O29 2.591417 1_565
Ba8 O26 2.596569 1_555
Ba9 O24 2.618759 1_555
Ba9 O19 2.706773 1_555
Ba9 O15 2.736245 1_455
Ba9 O8 3.116328 1_555
Ba9 O34 3.196343 1_555
Ba9 O25 3.222605 1_555
Ba9 O30 3.236307 1_555
Ba9 O13 3.257719 1_455
Ba9 O17 3.315812 1_555
Ba10 O10 2.682985 1_555
Ba10 O16 2.715488 1_555
Ba10 O21 2.735995 1_555
Ba10 O9 3.131628 1_555
Ba10 O35 3.148063 1_555
Ba10 O31 3.168925 1_555
Ba10 O26 3.177620 1_555
Ba10 O1 3.258228 1_555
Ba10 O3 3.328366 1_555
Ba11 O22 2.636565 1_555
Ba11 O39 2.673138 1_655
Ba11 O30 2.753963 1_665
Ba11 O29 3.088258 1_564
Ba11 O2 3.199898 1_655
Ba11 O0 3.212575 1_555
Ba11 O18 3.220691 1_565
Ba11 O24 3.238070 1_665
Ba11 O7 3.258332 1_655
Ba12 O4 2.682985 1_555
Ba12 O13 2.715488 1_555
Ba12 O34 2.735995 1_555
Ba12 O18 3.131628 1_555
Ba12 O19 3.148063 1_555
Ba12 O0 3.168925 1_555
Ba12 O28 3.177620 1_555
Ba12 O15 3.258228 1_555
Ba12 O36 3.328366 1_555
Ba13 O24 2.569476 1_555
Ba13 O41 2.575641 1_555
Ba13 O34 2.583803 1_555
Ba13 O33 2.586363 1_554
Ba13 O39 2.591417 1_545
Ba13 O28 2.596569 1_555
Ba14 O40 2.734403 1_555
Ba14 O36 2.746086 1_555
Ba14 O6 2.763734 1_555
Ba14 O3 3.054730 1_545
Ba14 O20 3.078511 1_555
Ba14 O27 3.125926 1_555
Ba14 O25 3.183688 1_555
Ba14 O35 3.286268 1_555
Ba14 O4 3.297306 1_555
Ba15 O33 2.636565 1_555
Ba15 O29 2.673138 1_455
Ba15 O38 2.753963 1_445
Ba15 O39 3.088258 1_546
Ba15 O27 3.199898 1_455
Ba15 O31 3.212575 1_555
Ba15 O9 3.220691 1_545
Ba15 O5 3.238070 1_445
Ba15 O23 3.258332 1_455
Ba16 O41 2.701223 1_556
Ba16 O27 2.747370 1_555
Ba16 O9 2.787958 1_545
Ba16 O37 3.044792 1_555
Ba16 O33 3.048862 1_555
Ba16 O40 3.177168 1_555
Ba16 O21 3.225470 1_545
Ba16 O29 3.347800 1_555
Ba16 O11 3.359960 1_545
O0 U1 2.232628 1_655
O0 U5 2.325066 1_555
O1 U10 2.240445 1_555
O1 U0 2.318002 1_555
O2 U7 2.255053 1_565
O2 U1 2.273841 1_555
O3 U10 2.253949 1_555
O3 U9 2.301924 1_555
O4 U0 2.034219 1_655
O5 U2 2.052902 1_655
O6 U6 2.258416 1_555
O6 U0 2.317648 1_655
O7 U1 2.240413 1_555
O7 U2 2.330809 1_554
O8 U1 2.258416 1_555
O8 U0 2.317648 1_555
O9 U10 2.233452 1_555
O9 U2 2.349914 1_555
O10 U0 2.034219 1_555
O11 U2 2.059325 1_555
O12 U3 2.244361 1_565
O12 U5 2.285271 1_555
O13 U1 2.251497 1_655
O13 U4 2.274000 1_555
O14 U9 2.078484 1_555
O15 U3 2.240445 1_555
O15 U0 2.318002 1_655
O16 U6 2.251497 1_455
O16 U2 2.274000 1_555
O17 U1 2.235875 1_555
O17 U5 2.339393 1_555
O18 U3 2.233452 1_555
O18 U4 2.349914 1_555
O19 U5 2.055856 1_555
O20 U9 2.239874 1_545
O20 U3 2.260389 1_555
O21 U9 2.085908 1_555
O22 U5 2.051985 1_555
O23 U6 2.240413 1_555
O23 U4 2.330809 1_556
O24 U4 2.052902 1_455
O25 U7 2.078484 1_555
O26 U8 2.100144 1_555
O27 U9 2.255053 1_545
O27 U6 2.273841 1_555
O28 U5 2.100144 1_555
O29 U4 2.096228 1_556
O30 U3 2.255507 1_455
O30 U7 2.306506 1_555
O31 U6 2.232628 1_455
O31 U8 2.325066 1_555
O32 U7 2.239874 1_565
O32 U10 2.260389 1_555
O33 U8 2.051985 1_555
O34 U7 2.085908 1_555
O35 U8 2.055856 1_555
O36 U3 2.253949 1_555
O36 U7 2.301924 1_555
O37 U6 2.235875 1_555
O37 U8 2.339393 1_555
O38 U10 2.255507 1_655
O38 U9 2.306506 1_555
O39 U2 2.096228 1_554
O40 U10 2.244361 1_545
O40 U8 2.285271 1_555
O41 U4 2.059325 1_555
