# generated using pymatgen
data_Li4Mn3Cr3(TeO8)2
_symmetry_space_group_name_H-M   'P 1'
_cell_length_a   6.04972726
_cell_length_b   6.04972726
_cell_length_c   9.81677289
_cell_angle_alpha   88.44744929
_cell_angle_beta   88.44744929
_cell_angle_gamma   59.53324091
_symmetry_Int_Tables_number   1
_chemical_formula_structural   Li4Mn3Cr3(TeO8)2
_chemical_formula_sum   'Li4 Mn3 Cr3 Te2 O16'
_cell_volume   309.52618575
_cell_formula_units_Z   1
loop_
 _symmetry_equiv_pos_site_id
 _symmetry_equiv_pos_as_xyz
  1  'x, y, z'
loop_
 _atom_site_type_symbol
 _atom_site_label
 _atom_site_symmetry_multiplicity
 _atom_site_fract_x
 _atom_site_fract_y
 _atom_site_fract_z
 _atom_site_occupancy
  Li  Li0  1  0.66164500  0.66164500  0.09025600  1
  Li  Li1  1  0.99482000  0.99482000  0.01449300  1
  Li  Li2  1  0.00373900  0.00373900  0.51180700  1
  Li  Li3  1  0.33652100  0.33652100  0.59561600  1
  Mn  Mn0  1  0.83427600  0.83427600  0.78841000  1
  Mn  Mn1  1  0.17475100  0.65994900  0.28756200  1
  Mn  Mn2  1  0.65994900  0.17475100  0.28756200  1
  Cr  Cr0  1  0.33695000  0.83366900  0.78668500  1
  Cr  Cr1  1  0.83366900  0.33695000  0.78668500  1
  Cr  Cr2  1  0.17266000  0.17266000  0.28481600  1
  Te  Te0  1  0.67161800  0.67161800  0.51726900  1
  Te  Te1  1  0.32926800  0.32926800  0.01354200  1
  O  O0  1  0.34817700  0.83756900  0.41462000  1
  O  O1  1  0.52347900  0.52347900  0.65552800  1
  O  O2  1  0.66946500  0.66946500  0.88423500  1
  O  O3  1  0.99870400  0.99870400  0.69537600  1
  O  O4  1  0.00211900  0.00211900  0.20403400  1
  O  O5  1  0.83756900  0.34817700  0.41462000  1
  O  O6  1  0.51374300  0.96247900  0.64928000  1
  O  O7  1  0.96247900  0.51374300  0.64928000  1
  O  O8  1  0.15338100  0.15338100  0.89913000  1
  O  O9  1  0.83498500  0.83498500  0.41284700  1
  O  O10  1  0.02696200  0.46818300  0.15202600  1
  O  O11  1  0.46818300  0.02696200  0.15202600  1
  O  O12  1  0.33148900  0.33148900  0.38722000  1
  O  O13  1  0.16199800  0.67986400  0.90363000  1
  O  O14  1  0.47700500  0.47700500  0.14997300  1
  O  O15  1  0.67986400  0.16199800  0.90363000  1
loop_
_geom_bond_atom_site_label_1
_geom_bond_atom_site_label_2
_geom_bond_distance
_geom_bond_site_symmetry_2
Li0 O10 2.008239 1_655
Li0 O11 2.008239 1_565
Li0 O14 2.008351 1_555
Li0 O2 2.021565 1_554
Li1 O4 1.864649 1_665
Li1 O15 1.984031 1_564
Li1 O13 1.984031 1_654
Li1 O8 1.984501 1_664
Li2 O3 1.801180 1_445
Li2 O5 2.020609 1_455
Li2 O0 2.020609 1_545
Li2 O9 2.047612 1_445
Li3 O6 2.013274 1_545
Li3 O7 2.013274 1_455
Li3 O12 2.048107 1_555
Li3 O1 2.067317 1_555
Mn0 O3 1.928244 1_555
Mn0 O2 1.944131 1_555
Mn0 O13 2.066140 1_655
Mn0 O15 2.066140 1_565
Mn0 O6 2.188193 1_555
Mn0 O7 2.188193 1_555
Mn1 O4 1.951980 1_565
Mn1 O12 1.959330 1_555
Mn1 O14 2.070695 1_555
Mn1 O9 2.141341 1_455
Mn1 O0 2.257877 1_555
Mn1 O10 2.261758 1_555
Mn2 O4 1.951980 1_655
Mn2 O12 1.959330 1_555
Mn2 O14 2.070695 1_555
Mn2 O9 2.141341 1_545
Mn2 O5 2.257877 1_555
Mn2 O11 2.261758 1_555
Cr0 O3 1.991659 1_455
Cr0 O2 1.994213 1_555
Cr0 O8 2.015899 1_565
Cr0 O13 2.044247 1_555
Cr0 O6 2.068988 1_555
Cr0 O1 2.087445 1_555
Cr1 O3 1.991659 1_545
Cr1 O2 1.994213 1_555
Cr1 O8 2.015899 1_655
Cr1 O15 2.044247 1_555
Cr1 O7 2.068988 1_555
Cr1 O1 2.087445 1_555
Cr2 O12 1.974358 1_555
Cr2 O4 1.981391 1_555
Cr2 O10 2.002624 1_555
Cr2 O11 2.002624 1_555
Cr2 O5 2.147389 1_455
Cr2 O0 2.147389 1_545
O0 Te0 1.977889 1_555
O1 Te0 2.032524 1_555
O5 Te0 1.977889 1_555
O6 Te0 2.010011 1_555
O7 Te0 2.010011 1_555
O8 Te1 2.191726 1_556
O9 Te0 1.971071 1_555
O10 Te1 2.065853 1_555
O11 Te1 2.065853 1_555
O13 Te1 2.108439 1_556
O14 Te1 2.081153 1_555
O15 Te1 2.108439 1_556
