# generated using pymatgen
data_TbPrO4
_symmetry_space_group_name_H-M   'P 1'
_cell_length_a   6.80402552
_cell_length_b   6.80402552
_cell_length_c   6.80402552
_cell_angle_alpha   131.23619072
_cell_angle_beta   131.23619072
_cell_angle_gamma   71.43808923
_symmetry_Int_Tables_number   1
_chemical_formula_structural   TbPrO4
_chemical_formula_sum   'Tb2 Pr2 O8'
_cell_volume   174.32892029
_cell_formula_units_Z   2
loop_
 _symmetry_equiv_pos_site_id
 _symmetry_equiv_pos_as_xyz
  1  'x, y, z'
loop_
 _atom_site_type_symbol
 _atom_site_label
 _atom_site_symmetry_multiplicity
 _atom_site_fract_x
 _atom_site_fract_y
 _atom_site_fract_z
 _atom_site_occupancy
  Tb  Tb0  1  0.50000000  0.50000000  0.00000000  1
  Tb  Tb1  1  0.25000000  0.75000000  0.50000000  1
  Pr  Pr0  1  0.75000000  0.25000000  0.50000000  1
  Pr  Pr1  1  0.00000000  0.00000000  0.00000000  1
  O  O0  1  0.87500000  0.38697000  0.01197000  1
  O  O1  1  0.61303000  0.12500000  0.98803000  1
  O  O2  1  0.13697000  0.62500000  0.01197000  1
  O  O3  1  0.37500000  0.38697000  0.51197000  1
  O  O4  1  0.37500000  0.86303000  0.98803000  1
  O  O5  1  0.61303000  0.62500000  0.48803000  1
  O  O6  1  0.13697000  0.12500000  0.51197000  1
  O  O7  1  0.87500000  0.86303000  0.48803000  1
loop_
_geom_bond_atom_site_label_1
_geom_bond_atom_site_label_2
_geom_bond_distance
_geom_bond_site_symmetry_2
O0 Tb0 2.380675 1_555
O0 Tb1 2.380675 1_655
O0 Pr1 2.458731 1_655
O0 Pr0 2.458731 1_554
O1 Tb1 2.380675 1_545
O1 Tb0 2.380675 1_556
O1 Pr1 2.458731 1_656
O1 Pr0 2.458731 1_556
O2 Tb0 2.380675 1_555
O2 Tb1 2.380675 1_555
O2 Pr1 2.458731 1_565
O2 Pr0 2.458731 1_454
O3 Tb0 2.380675 1_556
O3 Tb1 2.380675 1_555
O3 Pr1 2.458731 1_555
O3 Pr0 2.458731 1_555
O4 Tb1 2.380675 1_555
O4 Tb0 2.380675 1_556
O4 Pr0 2.458731 1_566
O4 Pr1 2.458731 1_566
O5 Tb1 2.380675 1_555
O5 Tb0 2.380675 1_555
O5 Pr0 2.458731 1_555
O5 Pr1 2.458731 1_666
O6 Tb1 2.380675 1_545
O6 Tb0 2.380675 1_556
O6 Pr0 2.458731 1_455
O6 Pr1 2.458731 1_555
O7 Tb0 2.380675 1_555
O7 Tb1 2.380675 1_655
O7 Pr1 2.458731 1_666
O7 Pr0 2.458731 1_565
