# generated using pymatgen
data_MnPO4
_symmetry_space_group_name_H-M   'P 1'
_cell_length_a   6.51329217
_cell_length_b   8.50052291
_cell_length_c   4.73528932
_cell_angle_alpha   89.99994894
_cell_angle_beta   89.99993356
_cell_angle_gamma   90.00019083
_symmetry_Int_Tables_number   1
_chemical_formula_structural   MnPO4
_chemical_formula_sum   'Mn4 P4 O16'
_cell_volume   262.17587210
_cell_formula_units_Z   4
loop_
 _symmetry_equiv_pos_site_id
 _symmetry_equiv_pos_as_xyz
  1  'x, y, z'
loop_
 _atom_site_type_symbol
 _atom_site_label
 _atom_site_symmetry_multiplicity
 _atom_site_fract_x
 _atom_site_fract_y
 _atom_site_fract_z
 _atom_site_occupancy
  Mn  Mn0  1  0.00000007  0.50000004  0.50000045  1
  Mn  Mn1  1  -0.00000004  0.00000004  0.99999955  1
  Mn  Mn2  1  0.50000009  0.49999987  0.49999986  1
  Mn  Mn3  1  0.50000010  -0.00000009  -0.00000015  1
  P  P0  1  0.25000017  0.82112715  0.53849061  1
  P  P1  1  0.25000038  0.32112715  0.96150886  1
  P  P2  1  0.74999978  0.67887280  0.03849133  1
  P  P3  1  0.74999997  0.17887274  0.46150874  1
  O  O0  1  0.05493927  0.87572280  0.68723979  1
  O  O1  1  0.05493914  0.37572323  0.81276063  1
  O  O2  1  0.25000044  0.87569536  0.23290865  1
  O  O3  1  0.25000027  0.63637781  0.56918413  1
  O  O4  1  0.25000057  0.37569536  0.26709254  1
  O  O5  1  0.25000014  0.13637806  0.93081580  1
  O  O6  1  0.44506140  0.87572387  0.68723948  1
  O  O7  1  0.44506088  0.37572374  0.81276095  1
  O  O8  1  0.55493918  0.62427603  0.18723932  1
  O  O9  1  0.55493865  0.12427603  0.31275977  1
  O  O10  1  0.74999975  0.86362189  0.06918394  1
  O  O11  1  0.74999974  0.62430436  0.73290781  1
  O  O12  1  0.74999976  0.36362205  0.43081572  1
  O  O13  1  0.74999963  0.12430439  0.76709067  1
  O  O14  1  0.94506099  0.62427706  0.18724007  1
  O  O15  1  0.94506066  0.12427725  0.31275948  1
loop_
_geom_bond_atom_site_label_1
_geom_bond_atom_site_label_2
_geom_bond_distance
_geom_bond_site_symmetry_2
Mn0 O1 1.854038 1_555
Mn0 O14 1.854039 1_455
Mn0 O3 2.025510 1_555
Mn0 O12 2.025512 1_455
Mn0 O11 2.232559 1_455
Mn0 O4 2.232562 1_555
Mn1 O0 1.854039 1_545
Mn1 O15 1.854040 1_456
Mn1 O5 2.025510 1_555
Mn1 O10 2.025511 1_446
Mn1 O13 2.232563 1_455
Mn1 O2 2.232566 1_546
Mn2 O8 1.854034 1_555
Mn2 O7 1.854036 1_555
Mn2 O12 2.025513 1_555
Mn2 O3 2.025515 1_555
Mn2 O4 2.232552 1_555
Mn2 O11 2.232554 1_555
Mn3 O9 1.854033 1_555
Mn3 O6 1.854034 1_544
Mn3 O10 2.025514 1_545
Mn3 O5 2.025517 1_554
Mn3 O13 2.232554 1_554
Mn3 O2 2.232554 1_545
O0 P0 1.525012 1_555
O1 P1 1.525014 1_555
O2 P0 1.519548 1_555
O3 P0 1.577177 1_555
O4 P1 1.519557 1_554
O5 P1 1.577175 1_555
O6 P0 1.525015 1_555
O7 P1 1.525007 1_555
O8 P2 1.525008 1_555
O9 P3 1.525016 1_555
O10 P2 1.577175 1_555
O11 P2 1.519557 1_556
O12 P3 1.577177 1_555
O13 P3 1.519549 1_555
O14 P2 1.525014 1_555
O15 P3 1.525011 1_555
