# generated using pymatgen
data_K2Cd(SeO5)2
_symmetry_space_group_name_H-M   'P 1'
_cell_length_a   6.94316300
_cell_length_b   7.38558232
_cell_length_c   10.95896432
_cell_angle_alpha   77.64477313
_cell_angle_beta   75.07937620
_cell_angle_gamma   70.87090809
_symmetry_Int_Tables_number   1
_chemical_formula_structural   K2Cd(SeO5)2
_chemical_formula_sum   'K4 Cd2 Se4 O20'
_cell_volume   507.84068256
_cell_formula_units_Z   2
loop_
 _symmetry_equiv_pos_site_id
 _symmetry_equiv_pos_as_xyz
  1  'x, y, z'
loop_
 _atom_site_type_symbol
 _atom_site_label
 _atom_site_symmetry_multiplicity
 _atom_site_fract_x
 _atom_site_fract_y
 _atom_site_fract_z
 _atom_site_occupancy
  K  K0  1  0.20886100  0.27106300  0.08313800  1
  K  K1  1  0.79113900  0.72893700  0.91686200  1
  K  K2  1  0.73928700  0.27990200  0.57298600  1
  K  K3  1  0.26071300  0.72009800  0.42701400  1
  Cd  Cd0  1  0.25216300  0.02540600  0.75750500  1
  Cd  Cd1  1  0.74783700  0.97459400  0.24249500  1
  Se  Se0  1  0.72705200  0.77741900  0.58886300  1
  Se  Se1  1  0.27294800  0.22258100  0.41113700  1
  Se  Se2  1  0.25337500  0.77730800  0.07672400  1
  Se  Se3  1  0.74662500  0.22269200  0.92327600  1
  O  O0  1  0.12449100  0.66040300  0.02974100  1
  O  O1  1  0.87550900  0.33959700  0.97025900  1
  O  O2  1  0.54985500  0.67465700  0.57453700  1
  O  O3  1  0.45014500  0.32534300  0.42546300  1
  O  O4  1  0.32499100  0.94365800  0.95693400  1
  O  O5  1  0.67500900  0.05634200  0.04306600  1
  O  O6  1  0.81077900  0.90290500  0.44860700  1
  O  O7  1  0.18922100  0.09709500  0.55139300  1
  O  O8  1  0.09964400  0.90029000  0.19810100  1
  O  O9  1  0.90035600  0.09971000  0.80189900  1
  O  O10  1  0.60918900  0.93562700  0.69560100  1
  O  O11  1  0.39081100  0.06437300  0.30439900  1
  O  O12  1  0.46981400  0.62900300  0.12469900  1
  O  O13  1  0.53018600  0.37099700  0.87530100  1
  O  O14  1  0.92929900  0.61456600  0.63900300  1
  O  O15  1  0.07070100  0.38543400  0.36099700  1
  O  O16  1  0.28361100  0.68298000  0.74834900  1
  O  O17  1  0.71638900  0.31702000  0.25165100  1
  O  O18  1  0.65517400  0.68352100  0.26679300  1
  O  O19  1  0.34482600  0.31647900  0.73320700  1
loop_
_geom_bond_atom_site_label_1
_geom_bond_atom_site_label_2
_geom_bond_distance
_geom_bond_site_symmetry_2
K0 O0 2.703064 1_555
K0 O1 2.753560 1_454
K0 O4 2.826515 1_544
K0 O13 2.907401 1_554
K0 O11 2.921533 1_555
K0 O8 3.008916 1_545
K0 O5 3.063517 1_555
K0 O15 3.157765 1_555
K1 O1 2.703064 1_555
K1 O0 2.753560 1_656
K1 O5 2.826515 1_566
K1 O12 2.907401 1_556
K1 O10 2.921533 1_555
K1 O9 3.008916 1_565
K1 O4 3.063517 1_555
K1 O14 3.157765 1_555
K2 O2 2.779713 1_555
K2 O3 2.784645 1_555
K2 O19 2.810468 1_555
K2 O9 2.890614 1_555
K2 O10 2.916304 1_545
K2 O7 2.937644 1_655
K2 O15 2.991190 1_655
K2 O6 3.197939 1_545
K3 O3 2.779713 1_555
K3 O2 2.784645 1_555
K3 O18 2.810468 1_555
K3 O8 2.890614 1_555
K3 O11 2.916304 1_565
K3 O6 2.937644 1_455
K3 O14 2.991190 1_455
K3 O7 3.197939 1_565
Cd0 O9 2.264542 1_455
Cd0 O4 2.280592 1_545
Cd0 O10 2.300875 1_545
Cd0 O7 2.327716 1_555
Cd0 O19 2.383173 1_555
Cd0 O16 2.487783 1_545
Cd1 O8 2.264542 1_655
Cd1 O5 2.280592 1_565
Cd1 O11 2.300875 1_565
Cd1 O6 2.327716 1_555
Cd1 O18 2.383173 1_555
Cd1 O17 2.487783 1_565
O0 Se2 1.656883 1_555
O1 Se3 1.656883 1_555
O2 Se0 1.696100 1_555
O3 Se1 1.696100 1_555
O4 Se2 1.689403 1_556
O5 Se3 1.689403 1_554
O6 Se0 1.686056 1_555
O7 Se1 1.686056 1_555
O8 Se2 1.698273 1_555
O9 Se3 1.698273 1_555
O10 Se0 1.693677 1_555
O11 Se1 1.693677 1_555
O12 Se2 1.678124 1_555
O13 Se3 1.678124 1_555
O14 Se0 1.651674 1_555
O15 Se1 1.651674 1_555
