# generated using pymatgen
data_Zr2N2O
_symmetry_space_group_name_H-M   'P 1'
_cell_length_a   8.86510800
_cell_length_b   8.87993602
_cell_length_c   8.88031519
_cell_angle_alpha   109.49253680
_cell_angle_beta   109.35391917
_cell_angle_gamma   109.51957377
_symmetry_Int_Tables_number   1
_chemical_formula_structural   Zr2N2O
_chemical_formula_sum   'Zr16 N16 O8'
_cell_volume   538.46144133
_cell_formula_units_Z   8
loop_
 _symmetry_equiv_pos_site_id
 _symmetry_equiv_pos_as_xyz
  1  'x, y, z'
loop_
 _atom_site_type_symbol
 _atom_site_label
 _atom_site_symmetry_multiplicity
 _atom_site_fract_x
 _atom_site_fract_y
 _atom_site_fract_z
 _atom_site_occupancy
  Zr  Zr0  1  0.50461000  0.50246400  0.49892600  1
  Zr  Zr1  1  0.79663300  0.82736100  0.95582300  1
  Zr  Zr2  1  0.18806000  0.46639100  0.78009300  1
  Zr  Zr3  1  0.82317700  0.03929200  0.70839600  1
  Zr  Zr4  1  0.95529400  0.70312100  0.75685000  1
  Zr  Zr5  1  0.46978400  0.21822900  0.75014100  1
  Zr  Zr6  1  0.28512800  0.82359900  0.46445900  1
  Zr  Zr7  1  0.99063700  0.47944900  0.01042500  1
  Zr  Zr8  1  0.00338400  0.00716400  0.49074900  1
  Zr  Zr9  1  0.49664800  0.01307800  0.99797500  1
  Zr  Zr10  1  0.72574800  0.18132600  0.53221200  1
  Zr  Zr11  1  0.02717000  0.27941100  0.25458900  1
  Zr  Zr12  1  0.53949700  0.79030400  0.24629500  1
  Zr  Zr13  1  0.83255600  0.54351600  0.21339300  1
  Zr  Zr14  1  0.18709200  0.97634900  0.28211200  1
  Zr  Zr15  1  0.19180300  0.16059500  0.04644200  1
  N  N0  1  0.02919500  0.98510500  0.74036000  1
  N  N1  1  0.70604700  0.67237500  0.27828800  1
  N  N2  1  0.49938300  0.96572400  0.77379500  1
  N  N3  1  0.08010700  0.31651100  0.45592900  1
  N  N4  1  0.01500500  0.50029300  0.72630000  1
  N  N5  1  0.32393400  0.31268200  0.22550900  1
  N  N6  1  0.99202900  0.50514000  0.27234200  1
  N  N7  1  0.06473900  0.29249100  0.98322400  1
  N  N8  1  0.31243300  0.04911200  0.95760200  1
  N  N9  1  0.91993400  0.68331300  0.54509000  1
  N  N10  1  0.69307700  0.92241100  0.53438500  1
  N  N11  1  0.50029400  0.02976300  0.22778400  1
  N  N12  1  0.48412600  0.21270800  0.02976700  1
  N  N13  1  0.28101300  0.31209800  0.73012000  1
  N  N14  1  0.79261000  0.25287300  0.23851000  1
  N  N15  1  0.95796100  0.00386000  0.26596400  1
  O  O0  1  0.20438100  0.75417400  0.76043400  1
  O  O1  1  0.52829200  0.80009300  0.96475800  1
  O  O2  1  0.29954800  0.07332700  0.46970500  1
  O  O3  1  0.67733400  0.93701400  0.04754900  1
  O  O4  1  0.74634100  0.47519500  0.48898300  1
  O  O5  1  0.93937100  0.71338600  0.01183200  1
  O  O6  1  0.68759100  0.69789100  0.77021000  1
  O  O7  1  0.24803200  0.52081200  0.51268000  1
loop_
_geom_bond_atom_site_label_1
_geom_bond_atom_site_label_2
_geom_bond_distance
_geom_bond_site_symmetry_2
N0 Zr3 1.995632 1_465
N0 Zr15 2.229247 1_566
N0 Zr8 2.233315 1_565
N0 Zr4 2.435715 1_455
N1 Zr13 1.935231 1_555
N1 Zr12 2.076323 1_555
N1 Zr8 2.658887 1_665
N2 Zr9 1.902836 1_565
N2 Zr6 2.317894 1_555
N2 Zr5 2.410711 1_565
N2 Zr3 3.018056 1_565
N3 Zr11 1.572582 1_555
N3 O7 1.687949 1_555
N4 Zr2 1.609755 1_555
N4 Zr4 2.000993 1_455
N4 Zr10 2.554950 1_455
N4 Zr7 2.663320 1_456
N5 Zr15 1.414105 1_555
N5 Zr0 2.046618 1_555
N6 Zr13 1.529482 1_555
N6 Zr7 2.255440 1_555
N6 Zr6 2.567269 1_655
N7 Zr7 1.952544 1_456
N7 Zr15 1.963952 1_556
N7 Zr3 2.292112 1_455
N7 Zr11 2.573809 1_556
N7 Zr2 2.978540 1_555
N8 Zr9 1.713355 1_555
N8 Zr15 1.868549 1_556
N9 O4 1.734540 1_555
N9 Zr4 1.736999 1_555
N10 Zr3 1.320509 1_565
N10 Zr12 2.096670 1_555
N10 Zr10 2.226805 1_565
N11 Zr9 1.984705 1_554
N11 Zr10 2.303792 1_555
N11 Zr12 2.314854 1_545
N11 Zr14 2.885754 1_545
N12 Zr9 1.747219 1_554
N12 Zr5 2.461877 1_554
N13 Zr2 1.828734 1_555
N13 Zr5 2.088254 1_555
N13 Zr8 2.479058 1_555
N14 Zr11 1.962935 1_655
N14 Zr9 2.344624 1_554
N15 Zr8 1.888894 1_655
N15 Zr14 2.090032 1_645
N15 Zr1 2.257827 1_544
N15 Zr11 2.361490 1_655
O0 Zr4 2.087444 1_455
O0 Zr9 2.368282 1_565
O1 O3 1.204421 1_556
O1 Zr9 1.944165 1_565
O1 Zr1 2.340291 1_555
O1 Zr12 2.500862 1_556
O1 Zr2 2.841376 1_555
O2 Zr14 1.370679 1_545
O2 Zr5 2.051310 1_555
O2 Zr6 2.161895 1_545
O3 Zr1 1.860099 1_554
O3 Zr9 1.915687 1_564
O4 Zr4 2.132416 1_555
O4 Zr0 2.262006 1_555
O4 Zr10 2.717909 1_555
O5 Zr1 1.909854 1_554
O5 Zr7 2.267029 1_555
O5 Zr4 2.288687 1_554
O5 Zr14 2.318494 1_655
O5 Zr13 2.889056 1_555
O6 Zr1 1.381910 1_555
O6 Zr0 2.045778 1_555
O6 Zr4 2.401048 1_555
O7 Zr11 2.150295 1_555
O7 Zr0 2.373551 1_555
O7 Zr2 2.754349 1_555
O7 Zr6 2.791347 1_555
