# generated using pymatgen
data_VCr2Fe3(PO4)6
_symmetry_space_group_name_H-M   'P 1'
_cell_length_a   8.49874538
_cell_length_b   8.72988366
_cell_length_c   8.72988349
_cell_angle_alpha   59.99999944
_cell_angle_beta   59.09619436
_cell_angle_gamma   59.09618965
_symmetry_Int_Tables_number   1
_chemical_formula_structural   VCr2Fe3(PO4)6
_chemical_formula_sum   'V1 Cr2 Fe3 P6 O24'
_cell_volume   451.63407706
_cell_formula_units_Z   1
loop_
 _symmetry_equiv_pos_site_id
 _symmetry_equiv_pos_as_xyz
  1  'x, y, z'
loop_
 _atom_site_type_symbol
 _atom_site_label
 _atom_site_symmetry_multiplicity
 _atom_site_fract_x
 _atom_site_fract_y
 _atom_site_fract_z
 _atom_site_occupancy
  V  V0  1  0.56884500  0.14371900  0.14371900  1
  Cr  Cr0  1  0.00018000  0.99994000  0.99994000  1
  Cr  Cr1  1  0.50109600  0.49963400  0.49963400  1
  Fe  Fe0  1  0.06187700  0.64604100  0.64604100  1
  Fe  Fe1  1  0.43704400  0.85431800  0.85431800  1
  Fe  Fe2  1  0.93930300  0.35356600  0.35356600  1
  P  P0  1  0.25044300  0.25052500  0.54671200  1
  P  P1  1  0.25044300  0.95232000  0.25052500  1
  P  P2  1  0.25044300  0.54671200  0.95232000  1
  P  P3  1  0.74808700  0.45339800  0.04883500  1
  P  P4  1  0.74808700  0.04883500  0.74968000  1
  P  P5  1  0.74808700  0.74968000  0.45339800  1
  O  O0  1  0.06602800  0.10440900  0.32663400  1
  O  O1  1  0.06602800  0.50293000  0.10440900  1
  O  O2  1  0.06602800  0.32663400  0.50293000  1
  O  O3  1  0.21844200  0.09539100  0.74763300  1
  O  O4  1  0.43484400  0.17639400  0.39036700  1
  O  O5  1  0.28602800  0.40447800  0.55882100  1
  O  O6  1  0.21844200  0.93853300  0.09539100  1
  O  O7  1  0.28602800  0.75067300  0.40447800  1
  O  O8  1  0.56357000  0.60586200  0.00570000  1
  O  O9  1  0.28602800  0.55882100  0.75067300  1
  O  O10  1  0.77901100  0.25069800  0.06520400  1
  O  O11  1  0.56357000  0.00570000  0.82486800  1
  O  O12  1  0.43484400  0.99839500  0.17639400  1
  O  O13  1  0.21844200  0.74763300  0.93853300  1
  O  O14  1  0.71684800  0.43777400  0.25017800  1
  O  O15  1  0.43484400  0.39036700  0.99839500  1
  O  O16  1  0.71684800  0.25017800  0.59520100  1
  O  O17  1  0.77901100  0.06520400  0.90508700  1
  O  O18  1  0.71684800  0.59520100  0.43777400  1
  O  O19  1  0.56357000  0.82486800  0.60586200  1
  O  O20  1  0.77901100  0.90508700  0.25069800  1
  O  O21  1  0.93391700  0.67949500  0.49294100  1
  O  O22  1  0.93391700  0.49294100  0.89364700  1
  O  O23  1  0.93391700  0.89364700  0.67949500  1
loop_
_geom_bond_atom_site_label_1
_geom_bond_atom_site_label_2
_geom_bond_distance
_geom_bond_site_symmetry_2
Cr0 O6 2.131235 1_556
Cr0 O3 2.131239 1_565
Cr0 O13 2.131242 1_555
Cr0 O17 2.137840 1_465
Cr0 O10 2.137840 1_466
Cr0 O20 2.137840 1_456
Cr1 O14 2.110320 1_555
Cr1 O16 2.110328 1_555
Cr1 O18 2.110339 1_555
Cr1 O5 2.111457 1_555
Cr1 O7 2.111464 1_555
Cr1 O9 2.111470 1_555
Fe0 O21 1.957229 1_455
Fe0 O22 1.957229 1_455
Fe0 O23 1.957229 1_455
Fe0 O9 2.155246 1_555
Fe0 O7 2.155246 1_555
Fe0 O5 2.155246 1_555
Fe1 O19 1.950591 1_555
Fe1 O8 1.950598 1_556
Fe1 O11 1.950607 1_565
Fe1 O13 2.132867 1_555
Fe1 O3 2.132869 1_565
Fe1 O6 2.132873 1_556
Fe2 O2 1.947127 1_655
Fe2 O1 1.947127 1_655
Fe2 O0 1.947127 1_655
Fe2 O14 2.142668 1_555
Fe2 O16 2.142668 1_555
Fe2 O18 2.142669 1_555
O0 P1 1.528296 1_545
O1 P2 1.528293 1_554
O2 P0 1.528291 1_555
O3 P0 1.580361 1_555
O4 P0 1.543391 1_555
O4 V0 1.943268 1_555
O5 P0 1.581575 1_555
O6 P1 1.580366 1_555
O7 P1 1.581575 1_555
O8 P3 1.527700 1_555
O9 P2 1.581575 1_555
O10 P3 1.590216 1_555
O10 V0 2.085211 1_555
O11 P4 1.527700 1_555
O12 P1 1.543391 1_555
O12 V0 1.943284 1_565
O13 P2 1.580358 1_555
O14 P3 1.580098 1_555
O15 P2 1.543391 1_555
O15 V0 1.943275 1_556
O16 P4 1.580094 1_555
O17 P4 1.590216 1_555
O17 V0 2.085224 1_556
O18 P5 1.580089 1_555
O19 P5 1.527700 1_555
O20 P5 1.590216 1_555
O20 V0 2.085217 1_565
O21 P5 1.530805 1_555
O22 P3 1.530805 1_556
O23 P4 1.530805 1_565
