# generated using pymatgen
data_Al(SiO3)2
_symmetry_space_group_name_H-M   'P 1'
_cell_length_a   12.12941741
_cell_length_b   12.12941741
_cell_length_c   12.12941741
_cell_angle_alpha   108.90871087
_cell_angle_beta   108.90871087
_cell_angle_gamma   110.60219435
_symmetry_Int_Tables_number   1
_chemical_formula_structural   Al(SiO3)2
_chemical_formula_sum   'Al8 Si16 O48'
_cell_volume   1373.31674704
_cell_formula_units_Z   8
loop_
 _symmetry_equiv_pos_site_id
 _symmetry_equiv_pos_as_xyz
  1  'x, y, z'
loop_
 _atom_site_type_symbol
 _atom_site_label
 _atom_site_symmetry_multiplicity
 _atom_site_fract_x
 _atom_site_fract_y
 _atom_site_fract_z
 _atom_site_occupancy
  Al  Al0  1  0.58072500  0.91927500  0.00000000  1
  Al  Al1  1  0.41927500  0.41927500  0.33854900  1
  Al  Al2  1  0.66927500  0.83072500  0.50000000  1
  Al  Al3  1  0.83072500  0.33072500  0.16145100  1
  Al  Al4  1  0.08072500  0.08072500  0.66145100  1
  Al  Al5  1  0.91927500  0.58072500  0.00000000  1
  Al  Al6  1  0.16927500  0.66927500  0.83854900  1
  Al  Al7  1  0.33072500  0.16927500  0.50000000  1
  Si  Si0  1  0.40868700  0.62359700  0.96853700  1
  Si  Si1  1  0.15506000  0.12359700  0.21491100  1
  Si  Si2  1  0.37359700  0.65868700  0.46853700  1
  Si  Si3  1  0.69014900  0.15868700  0.28508900  1
  Si  Si4  1  0.84131300  0.12640300  0.53146300  1
  Si  Si5  1  0.09494000  0.62640300  0.28508900  1
  Si  Si6  1  0.87640300  0.09131300  0.03146300  1
  Si  Si7  1  0.55985000  0.59131300  0.21491100  1
  Si  Si8  1  0.90868700  0.94014900  0.78508900  1
  Si  Si9  1  0.65506000  0.44015000  0.03146300  1
  Si  Si10  1  0.87359700  0.40506000  0.71491100  1
  Si  Si11  1  0.19014900  0.90506000  0.53146300  1
  Si  Si12  1  0.34131300  0.80985100  0.71491100  1
  Si  Si13  1  0.59494000  0.30985100  0.46853700  1
  Si  Si14  1  0.37640300  0.34494000  0.78508900  1
  Si  Si15  1  0.05985100  0.84494000  0.96853700  1
  O  O0  1  0.51606100  0.75405900  0.97363400  1
  O  O1  1  0.28042400  0.25405900  0.23799800  1
  O  O2  1  0.50405900  0.76606100  0.47363400  1
  O  O3  1  0.79242600  0.26606100  0.26200200  1
  O  O4  1  0.73393900  0.99594100  0.52636600  1
  O  O5  1  0.96957600  0.49594100  0.26200200  1
  O  O6  1  0.74594100  0.98393900  0.02636600  1
  O  O7  1  0.45757300  0.48393900  0.23799800  1
  O  O8  1  0.01606100  0.04242600  0.76200200  1
  O  O9  1  0.78042400  0.54242600  0.02636600  1
  O  O10  1  0.00405900  0.53042400  0.73799800  1
  O  O11  1  0.29242600  0.03042400  0.52636600  1
  O  O12  1  0.23393900  0.70757400  0.73799800  1
  O  O13  1  0.46957600  0.20757400  0.47363400  1
  O  O14  1  0.24594100  0.21957600  0.76200200  1
  O  O15  1  0.95757300  0.71957600  0.97363400  1
  O  O16  1  0.27215500  0.63075600  0.94030700  1
  O  O17  1  0.19044900  0.13075600  0.35860100  1
  O  O18  1  0.38075600  0.52215500  0.44030700  1
  O  O19  1  0.58184700  0.02215500  0.14139900  1
  O  O20  1  0.97784500  0.11924400  0.55969300  1
  O  O21  1  0.05955100  0.61924400  0.14139900  1
  O  O22  1  0.86924400  0.22784500  0.05969300  1
  O  O23  1  0.66815300  0.72784500  0.35860100  1
  O  O24  1  0.77215500  0.83184700  0.64139900  1
  O  O25  1  0.69044900  0.33184700  0.05969300  1
  O  O26  1  0.88075600  0.44044900  0.85860100  1
  O  O27  1  0.08184700  0.94044900  0.55969300  1
  O  O28  1  0.47784500  0.91815300  0.85860100  1
  O  O29  1  0.55955100  0.41815300  0.44030700  1
  O  O30  1  0.36924400  0.30955100  0.64139900  1
  O  O31  1  0.16815300  0.80955100  0.94030700  1
  O  O32  1  0.47487400  0.62691500  0.11091900  1
  O  O33  1  0.01599600  0.12691500  0.15204200  1
  O  O34  1  0.37691500  0.72487400  0.61091900  1
  O  O35  1  0.61395400  0.22487400  0.34795800  1
  O  O36  1  0.77512600  0.12308500  0.38908100  1
  O  O37  1  0.23400400  0.62308500  0.34795800  1
  O  O38  1  0.87308500  0.02512600  0.88908100  1
  O  O39  1  0.63604600  0.52512600  0.15204200  1
  O  O40  1  0.97487400  0.86395400  0.84795800  1
  O  O41  1  0.51599600  0.36395400  0.88908100  1
  O  O42  1  0.87691500  0.26599600  0.65204200  1
  O  O43  1  0.11395400  0.76599600  0.38908100  1
  O  O44  1  0.27512600  0.88604600  0.65204200  1
  O  O45  1  0.73400400  0.38604600  0.61091900  1
  O  O46  1  0.37308500  0.48400400  0.84795800  1
  O  O47  1  0.13604600  0.98400400  0.11091900  1
loop_
_geom_bond_atom_site_label_1
_geom_bond_atom_site_label_2
_geom_bond_distance
_geom_bond_site_symmetry_2
Al0 O0 1.746217 1_554
Al0 O6 1.746217 1_555
Al0 O19 1.756332 1_565
Al0 O28 1.756332 1_554
Al1 O7 1.746206 1_555
Al1 O1 1.746221 1_555
Al1 O29 1.756323 1_555
Al1 O18 1.756332 1_555
Al2 O2 1.746217 1_555
Al2 O4 1.746217 1_555
Al2 O23 1.756332 1_555
Al2 O24 1.756332 1_555
Al3 O3 1.746210 1_555
Al3 O5 1.746221 1_555
Al3 O25 1.756323 1_555
Al3 O22 1.756332 1_555
Al4 O8 1.746210 1_555
Al4 O14 1.746221 1_555
Al4 O27 1.756323 1_545
Al4 O20 1.756332 1_455
Al5 O9 1.746228 1_555
Al5 O15 1.746229 1_554
Al5 O21 1.756325 1_655
Al5 O26 1.756325 1_554
Al6 O12 1.746210 1_555
Al6 O10 1.746221 1_555
Al6 O31 1.756323 1_555
Al6 O16 1.756332 1_555
Al7 O13 1.746228 1_555
Al7 O11 1.746228 1_555
Al7 O17 1.756325 1_555
Al7 O30 1.756325 1_555
O0 Si0 1.624230 1_555
O1 Si1 1.624229 1_555
O2 Si2 1.624230 1_555
O3 Si3 1.624222 1_555
O4 Si4 1.624230 1_565
O5 Si5 1.624229 1_655
O6 Si6 1.624230 1_565
O7 Si7 1.624222 1_555
O8 Si8 1.624222 1_445
O9 Si9 1.624216 1_555
O10 Si10 1.624229 1_455
O11 Si11 1.624222 1_545
O12 Si12 1.624222 1_555
O13 Si13 1.624222 1_555
O14 Si14 1.624229 1_555
O15 Si15 1.624227 1_655
O16 Si0 1.618719 1_555
O17 Si1 1.618708 1_555
O18 Si2 1.618719 1_555
O19 Si3 1.618713 1_555
O20 Si4 1.618719 1_555
O21 Si5 1.618708 1_555
O22 Si6 1.618719 1_555
O23 Si7 1.618715 1_555
O24 Si8 1.618713 1_555
O25 Si9 1.618731 1_555
O26 Si10 1.618708 1_555
O27 Si11 1.618719 1_555
O28 Si12 1.618713 1_555
O29 Si13 1.618719 1_555
O30 Si14 1.618708 1_555
O31 Si15 1.618719 1_555
O32 Si0 1.631658 1_554
O32 Si7 1.632029 1_555
O33 Si1 1.631658 1_555
O33 Si6 1.632027 1_455
O34 Si2 1.631658 1_555
O34 Si12 1.632035 1_555
O35 Si3 1.631658 1_555
O35 Si13 1.632027 1_555
O36 Si4 1.631658 1_555
O36 Si3 1.632035 1_555
O37 Si5 1.631658 1_555
O37 Si2 1.632027 1_555
O38 Si6 1.631658 1_556
O38 Si8 1.632035 1_545
O39 Si7 1.631669 1_555
O39 Si9 1.632022 1_555
O40 Si8 1.631658 1_555
O40 Si15 1.632027 1_655
O41 Si9 1.631656 1_556
O41 Si14 1.632032 1_555
O42 Si10 1.631658 1_555
O42 Si4 1.632027 1_555
O43 Si11 1.631658 1_555
O43 Si5 1.632032 1_555
O44 Si12 1.631658 1_555
O44 Si11 1.632027 1_555
O45 Si13 1.631658 1_555
O45 Si10 1.632032 1_555
O46 Si14 1.631658 1_555
O46 Si0 1.632027 1_555
O47 Si15 1.631658 1_554
O47 Si1 1.632032 1_565
