# generated using pymatgen
data_Cs2ZrF6
_symmetry_space_group_name_H-M   'P 1'
_cell_length_a   6.38815355
_cell_length_b   6.38815260
_cell_length_c   4.96062357
_cell_angle_alpha   90.00000000
_cell_angle_beta   90.00000000
_cell_angle_gamma   119.99999443
_symmetry_Int_Tables_number   1
_chemical_formula_structural   Cs2ZrF6
_chemical_formula_sum   'Cs2 Zr1 F6'
_cell_volume   175.31438684
_cell_formula_units_Z   1
loop_
 _symmetry_equiv_pos_site_id
 _symmetry_equiv_pos_as_xyz
  1  'x, y, z'
loop_
 _atom_site_type_symbol
 _atom_site_label
 _atom_site_symmetry_multiplicity
 _atom_site_fract_x
 _atom_site_fract_y
 _atom_site_fract_z
 _atom_site_occupancy
  Cs  Cs0  1  0.66666700  0.33333300  0.30315925  1
  Cs  Cs1  1  0.33333300  0.66666700  0.69684075  1
  Zr  Zr0  1  0.00000000  0.00000000  0.00000000  1
  F  F0  1  0.84716701  0.15283299  0.77692040  1
  F  F1  1  0.84716701  0.69433301  0.77692040  1
  F  F2  1  0.30566699  0.15283299  0.77692040  1
  F  F3  1  0.15283299  0.84716701  0.22307960  1
  F  F4  1  0.15283299  0.30566699  0.22307960  1
  F  F5  1  0.69433301  0.84716701  0.22307960  1
loop_
_geom_bond_atom_site_label_1
_geom_bond_atom_site_label_2
_geom_bond_distance
_geom_bond_site_symmetry_2
Cs0 F1 3.084131 1_555
Cs0 F0 3.084131 1_555
Cs0 F2 3.084131 1_555
Cs0 F5 3.222315 1_545
Cs0 F4 3.222315 1_655
Cs0 F3 3.222322 1_655
Cs0 F3 3.222322 1_545
Cs0 F5 3.222327 1_555
Cs0 F4 3.222328 1_555
Cs0 F1 3.286826 1_554
Cs0 F0 3.286826 1_554
Cs0 F2 3.286826 1_554
Cs1 F4 3.084131 1_555
Cs1 F3 3.084131 1_555
Cs1 F5 3.084131 1_555
Cs1 F2 3.222315 1_565
Cs1 F1 3.222315 1_455
Cs1 F0 3.222322 1_455
Cs1 F0 3.222322 1_565
Cs1 F2 3.222327 1_555
Cs1 F1 3.222328 1_555
Cs1 F4 3.286826 1_556
Cs1 F3 3.286826 1_556
Cs1 F5 3.286826 1_556
F0 Zr0 2.020940 1_656
F1 Zr0 2.020945 1_666
F2 Zr0 2.020945 1_556
F3 Zr0 2.020940 1_565
F4 Zr0 2.020945 1_555
F5 Zr0 2.020945 1_665
