# generated using pymatgen
data_Li5VO4F
_symmetry_space_group_name_H-M   'P 1'
_cell_length_a   5.35557931
_cell_length_b   5.35557931
_cell_length_c   8.95309080
_cell_angle_alpha   83.58151211
_cell_angle_beta   83.58151211
_cell_angle_gamma   114.52365040
_symmetry_Int_Tables_number   1
_chemical_formula_structural   Li5VO4F
_chemical_formula_sum   'Li10 V2 O8 F2'
_cell_volume   228.58324915
_cell_formula_units_Z   2
loop_
 _symmetry_equiv_pos_site_id
 _symmetry_equiv_pos_as_xyz
  1  'x, y, z'
loop_
 _atom_site_type_symbol
 _atom_site_label
 _atom_site_symmetry_multiplicity
 _atom_site_fract_x
 _atom_site_fract_y
 _atom_site_fract_z
 _atom_site_occupancy
  Li  Li0  1  0.70919600  0.03414200  0.56189400  1
  Li  Li1  1  0.55633300  0.79210000  0.94530800  1
  Li  Li2  1  0.67713500  0.33863800  0.74724900  1
  Li  Li3  1  0.03414200  0.70919600  0.06189400  1
  Li  Li4  1  0.79210000  0.55633300  0.44530800  1
  Li  Li5  1  0.20211300  0.43805100  0.55668400  1
  Li  Li6  1  0.96894000  0.28167900  0.93396200  1
  Li  Li7  1  0.33863800  0.67713500  0.24724900  1
  Li  Li8  1  0.43805100  0.20211300  0.05668400  1
  Li  Li9  1  0.28167900  0.96894000  0.43396200  1
  V  V0  1  0.13585700  0.95129000  0.72989800  1
  V  V1  1  0.95129000  0.13585700  0.22989800  1
  O  O0  1  0.30602400  0.98564300  0.89343300  1
  O  O1  1  0.43808200  0.21584100  0.58339400  1
  O  O2  1  0.98564300  0.30602400  0.39343300  1
  O  O3  1  0.21584100  0.43808200  0.08339400  1
  O  O4  1  0.87869900  0.09873900  0.75371200  1
  O  O5  1  0.09873900  0.87869900  0.25371200  1
  O  O6  1  0.01109700  0.68471700  0.61321800  1
  O  O7  1  0.68471700  0.01109700  0.11321800  1
  F  F0  1  0.76419300  0.53149300  0.93124800  1
  F  F1  1  0.53149300  0.76419300  0.43124800  1
loop_
_geom_bond_atom_site_label_1
_geom_bond_atom_site_label_2
_geom_bond_distance
_geom_bond_site_symmetry_2
Li0 O2 1.951182 1_555
Li0 O4 2.028248 1_555
Li0 O1 2.060222 1_555
Li1 O7 2.015977 1_566
Li1 O0 2.066942 1_555
Li1 O3 2.133122 1_556
Li1 O4 2.230355 1_565
Li2 O4 1.991995 1_555
Li2 O1 2.039700 1_555
Li2 O6 2.084508 1_655
Li2 O0 2.232309 1_545
Li3 O0 1.951182 1_554
Li3 O5 2.028248 1_555
Li3 O3 2.060222 1_555
Li4 O6 2.015977 1_655
Li4 O2 2.066942 1_555
Li4 O1 2.133122 1_555
Li4 O5 2.230355 1_655
Li5 O2 1.977293 1_455
Li5 O6 2.050235 1_555
Li5 O1 2.079164 1_555
Li5 O4 2.324079 1_455
Li6 O4 1.983084 1_555
Li6 O3 1.991642 1_656
Li6 O7 2.023702 1_556
Li7 O5 1.991995 1_555
Li7 O3 2.039700 1_555
Li7 O7 2.084508 1_565
Li7 O2 2.232309 1_455
Li8 O0 1.977293 1_544
Li8 O7 2.050235 1_555
Li8 O3 2.079164 1_555
Li8 O5 2.324079 1_545
Li9 O5 1.983084 1_555
Li9 O1 1.991642 1_565
Li9 O6 2.023702 1_555
O0 V0 1.796519 1_555
O1 V0 1.885152 1_545
O2 V1 1.796519 1_555
O3 V1 1.885152 1_455
O4 V0 1.854893 1_645
O5 V1 1.854893 1_465
O6 V0 1.809295 1_555
O7 V1 1.809295 1_555
F0 Li3 1.961842 1_656
F0 Li8 1.996141 1_556
F0 Li2 2.037237 1_555
F0 Li6 2.051709 1_555
F0 Li1 2.121511 1_555
F1 Li0 1.961842 1_565
F1 Li5 1.996141 1_555
F1 Li7 2.037237 1_555
F1 Li9 2.051709 1_555
F1 Li4 2.121511 1_555
