# generated using pymatgen
data_LiMn2(PO4)2
_symmetry_space_group_name_H-M   'P 1'
_cell_length_a   4.89882900
_cell_length_b   8.05305585
_cell_length_c   8.74463395
_cell_angle_alpha   103.84925818
_cell_angle_beta   91.56471976
_cell_angle_gamma   90.35873703
_symmetry_Int_Tables_number   1
_chemical_formula_structural   LiMn2(PO4)2
_chemical_formula_sum   'Li2 Mn4 P4 O16'
_cell_volume   334.79757624
_cell_formula_units_Z   2
loop_
 _symmetry_equiv_pos_site_id
 _symmetry_equiv_pos_as_xyz
  1  'x, y, z'
loop_
 _atom_site_type_symbol
 _atom_site_label
 _atom_site_symmetry_multiplicity
 _atom_site_fract_x
 _atom_site_fract_y
 _atom_site_fract_z
 _atom_site_occupancy
  Li  Li0  1  0.51038100  0.37089900  0.06292800  1
  Li  Li1  1  0.49540300  0.86337600  0.43343400  1
  Mn  Mn0  1  0.02090900  0.01410600  0.17966600  1
  Mn  Mn1  1  0.61987300  0.46835400  0.73819200  1
  Mn  Mn2  1  0.08412000  0.52613100  0.27555400  1
  Mn  Mn3  1  0.50317900  0.97174000  0.82781500  1
  P  P0  1  0.97346600  0.24321400  0.92471700  1
  P  P1  1  0.50371300  0.23264600  0.37154100  1
  P  P2  1  0.95107500  0.78001800  0.62175900  1
  P  P3  1  0.49447600  0.74123100  0.07483200  1
  O  O0  1  0.81605300  0.08576400  0.96662100  1
  O  O1  1  0.34440200  0.06173300  0.35124400  1
  O  O2  1  0.27819000  0.19968100  0.90580000  1
  O  O3  1  0.80598000  0.19877200  0.33702900  1
  O  O4  1  0.84519900  0.28040400  0.77522000  1
  O  O5  1  0.46821400  0.34284100  0.54283000  1
  O  O6  1  0.37788100  0.33800600  0.25982300  1
  O  O7  1  0.92113200  0.39470300  0.06518600  1
  O  O8  1  0.47346500  0.56868500  0.94462000  1
  O  O9  1  0.86980800  0.65756300  0.72406100  1
  O  O10  1  0.90500500  0.70033800  0.44448100  1
  O  O11  1  0.35440500  0.70714900  0.22055200  1
  O  O12  1  0.25782200  0.83450300  0.65476400  1
  O  O13  1  0.79059800  0.79487300  0.11635300  1
  O  O14  1  0.76032700  0.93840800  0.65397700  1
  O  O15  1  0.33867100  0.88380600  0.01152400  1
loop_
_geom_bond_atom_site_label_1
_geom_bond_atom_site_label_2
_geom_bond_distance
_geom_bond_site_symmetry_2
Li0 O6 1.932155 1_555
Li0 O2 2.017662 1_554
Li0 O7 2.019225 1_555
Li0 O8 2.102912 1_554
Li1 O1 2.037343 1_565
Li1 O11 2.079197 1_555
Li1 O14 2.250426 1_555
Li1 O12 2.343010 1_555
Li1 O10 2.417153 1_555
Mn0 O13 2.041924 1_445
Mn0 O3 2.081535 1_455
Mn0 O1 2.120542 1_555
Mn0 O15 2.256765 1_545
Mn0 O0 2.287077 1_454
Mn1 O5 1.893875 1_555
Mn1 O8 1.950764 1_555
Mn1 O4 1.962197 1_555
Mn1 O9 1.977658 1_555
Mn2 O10 2.003564 1_455
Mn2 O7 2.029511 1_455
Mn2 O6 2.079278 1_555
Mn2 O11 2.110882 1_555
Mn3 O14 1.970604 1_555
Mn3 O0 2.003224 1_565
Mn3 O12 2.009848 1_555
Mn3 O15 2.083227 1_556
Mn3 O2 2.125199 1_565
O0 P0 1.600705 1_555
O1 P1 1.548230 1_555
O2 P0 1.539794 1_455
O3 P1 1.532377 1_555
O4 P0 1.529211 1_555
O5 P1 1.562412 1_555
O6 P1 1.557167 1_555
O7 P0 1.538364 1_554
O8 P3 1.572343 1_556
O9 P2 1.538873 1_555
O10 P2 1.539076 1_555
O11 P3 1.543621 1_555
O12 P2 1.562486 1_455
O13 P3 1.520240 1_555
O14 P2 1.561019 1_555
O15 P3 1.580989 1_555
