# generated using pymatgen
data_Li4FeCo9O20
_symmetry_space_group_name_H-M   'P 1'
_cell_length_a   7.51605329
_cell_length_b   4.90562573
_cell_length_c   10.03872505
_cell_angle_alpha   85.33695313
_cell_angle_beta   80.81027475
_cell_angle_gamma   71.03582319
_symmetry_Int_Tables_number   1
_chemical_formula_structural   Li4FeCo9O20
_chemical_formula_sum   'Li4 Fe1 Co9 O20'
_cell_volume   345.38272543
_cell_formula_units_Z   1
loop_
 _symmetry_equiv_pos_site_id
 _symmetry_equiv_pos_as_xyz
  1  'x, y, z'
loop_
 _atom_site_type_symbol
 _atom_site_label
 _atom_site_symmetry_multiplicity
 _atom_site_fract_x
 _atom_site_fract_y
 _atom_site_fract_z
 _atom_site_occupancy
  Li  Li0  1  0.07948600  0.69686900  0.50265200  1
  Li  Li1  1  0.51769800  0.49802200  0.49906700  1
  Li  Li2  1  0.58029700  0.20493400  0.00012200  1
  Li  Li3  1  0.01670100  0.98472100  0.99685800  1
  Fe  Fe0  1  0.15618400  0.05424100  0.25277200  1
  Co  Co0  1  0.05023900  0.34914000  0.75016400  1
  Co  Co1  1  0.35200100  0.45190400  0.24817000  1
  Co  Co2  1  0.25005900  0.74860900  0.75162500  1
  Co  Co3  1  0.44872200  0.14897600  0.74855400  1
  Co  Co4  1  0.55276700  0.85010500  0.24983700  1
  Co  Co5  1  0.74912100  0.25026300  0.25117700  1
  Co  Co6  1  0.65010900  0.55053900  0.75148400  1
  Co  Co7  1  0.94835200  0.65122000  0.24850600  1
  Co  Co8  1  0.84962000  0.95072200  0.74813600  1
  O  O0  1  0.07108400  0.01481200  0.65167100  1
  O  O1  1  0.12919600  0.40396400  0.35325000  1
  O  O2  1  0.16420400  0.71254100  0.14745900  1
  O  O3  1  0.02863300  0.68477900  0.84807100  1
  O  O4  1  0.22753100  0.07168200  0.84805000  1
  O  O5  1  0.38199600  0.13236900  0.14739900  1
  O  O6  1  0.26840400  0.43188200  0.64896500  1
  O  O7  1  0.33847300  0.75699100  0.35522200  1
  O  O8  1  0.53019900  0.18488400  0.34758600  1
  O  O9  1  0.43447100  0.47276000  0.84764400  1
  O  O10  1  0.57220600  0.51664600  0.15219000  1
  O  O11  1  0.47051900  0.81170300  0.65311400  1
  O  O12  1  0.66688200  0.23103800  0.65216800  1
  O  O13  1  0.72987700  0.57552900  0.34734700  1
  O  O14  1  0.77031100  0.93100400  0.14854900  1
  O  O15  1  0.63119700  0.88210100  0.84650300  1
  O  O16  1  0.96089400  0.32825300  0.15051200  1
  O  O17  1  0.82932500  0.26883400  0.85057200  1
  O  O18  1  0.86989100  0.62634800  0.65309100  1
  O  O19  1  0.92255200  0.96364800  0.35123300  1
loop_
_geom_bond_atom_site_label_1
_geom_bond_atom_site_label_2
_geom_bond_distance
_geom_bond_site_symmetry_2
Li0 O1 2.067878 1_555
Li0 O18 2.095580 1_455
Li0 O19 2.158821 1_455
Li0 O0 2.227051 1_565
Li0 O6 2.240395 1_555
Li0 O7 2.334200 1_555
Li1 O13 2.128774 1_555
Li1 O12 2.145571 1_555
Li1 O7 2.173584 1_555
Li1 O11 2.177664 1_555
Li1 O8 2.218415 1_555
Li1 O6 2.301216 1_555
Li2 O5 2.022238 1_555
Li2 O9 2.131532 1_554
Li2 O15 2.201707 1_544
Li2 O10 2.227519 1_555
Li2 O14 2.274281 1_545
Li2 O17 2.294063 1_554
Li3 O4 2.122310 1_565
Li3 O2 2.131333 1_556
Li3 O3 2.152391 1_555
Li3 O17 2.265951 1_465
Li3 O16 2.269759 1_466
Li3 O14 2.273537 1_456
Fe0 O5 1.982377 1_555
Fe0 O7 1.992224 1_545
Fe0 O16 1.997426 1_455
Fe0 O1 1.997926 1_555
Fe0 O2 2.033040 1_545
Fe0 O19 2.034551 1_445
Co0 O4 1.901526 1_555
Co0 O18 1.909102 1_455
Co0 O6 1.928481 1_555
Co0 O0 1.933707 1_555
Co0 O3 1.934365 1_555
Co0 O17 1.937561 1_455
Co1 O5 1.867243 1_555
Co1 O7 1.879597 1_555
Co1 O10 1.884419 1_555
Co1 O8 1.892040 1_555
Co1 O1 1.903625 1_555
Co1 O2 1.929219 1_555
Co2 O4 1.870872 1_565
Co2 O6 1.889693 1_555
Co2 O11 1.891973 1_555
Co2 O3 1.892067 1_555
Co2 O0 1.896849 1_565
Co2 O9 1.917558 1_555
Co3 O15 1.901639 1_545
Co3 O9 1.906871 1_555
Co3 O12 1.909411 1_555
Co3 O11 1.927097 1_545
Co3 O4 1.929510 1_555
Co3 O6 1.935727 1_555
Co4 O13 1.892342 1_555
Co4 O5 1.912381 1_565
Co4 O14 1.920926 1_555
Co4 O8 1.927855 1_565
Co4 O10 1.928159 1_555
Co4 O7 1.943553 1_555
Co5 O16 1.876235 1_555
Co5 O8 1.879059 1_555
Co5 O10 1.882752 1_555
Co5 O13 1.885437 1_555
Co5 O14 1.894065 1_545
Co5 O19 1.918935 1_545
Co6 O11 1.880058 1_555
Co6 O9 1.883235 1_555
Co6 O12 1.884678 1_555
Co6 O15 1.906389 1_555
Co6 O18 1.913395 1_555
Co6 O17 1.925673 1_555
Co7 O19 1.857430 1_555
Co7 O2 1.869074 1_655
Co7 O1 1.897886 1_655
Co7 O16 1.900927 1_555
Co7 O13 1.906507 1_555
Co7 O14 1.921615 1_555
Co8 O18 1.873107 1_555
Co8 O15 1.889678 1_555
Co8 O17 1.890001 1_565
Co8 O0 1.892902 1_665
Co8 O3 1.896371 1_655
Co8 O12 1.919686 1_565
