# generated using pymatgen
data_LiV2(CO3)4
_symmetry_space_group_name_H-M   'P 1'
_cell_length_a   8.61533827
_cell_length_b   8.61533827
_cell_length_c   8.61533827
_cell_angle_alpha   113.93476618
_cell_angle_beta   108.20217080
_cell_angle_gamma   106.37559552
_symmetry_Int_Tables_number   1
_chemical_formula_structural   LiV2(CO3)4
_chemical_formula_sum   'Li2 V4 C8 O24'
_cell_volume   489.88696931
_cell_formula_units_Z   2
loop_
 _symmetry_equiv_pos_site_id
 _symmetry_equiv_pos_as_xyz
  1  'x, y, z'
loop_
 _atom_site_type_symbol
 _atom_site_label
 _atom_site_symmetry_multiplicity
 _atom_site_fract_x
 _atom_site_fract_y
 _atom_site_fract_z
 _atom_site_occupancy
  Li  Li0  1  0.06672900  0.31672900  0.75000000  1
  Li  Li1  1  0.43327100  0.18327100  0.25000000  1
  V  V0  1  0.21789200  0.25000000  0.46789200  1
  V  V1  1  0.76867900  0.01867900  0.75000000  1
  V  V2  1  0.28210800  0.75000000  0.03210800  1
  V  V3  1  0.73132100  0.48132100  0.25000000  1
  C  C0  1  0.41704700  0.44435200  0.93034100  1
  C  C1  1  0.51779300  0.57350600  0.48449200  1
  C  C2  1  0.91098600  0.92649400  0.44428700  1
  C  C3  1  0.08295300  0.01329400  0.02730600  1
  C  C4  1  0.98220700  0.46669900  0.05571300  1
  C  C5  1  0.01401200  0.48670600  0.56965900  1
  C  C6  1  0.48598800  0.05564700  0.47269400  1
  C  C7  1  0.58901400  0.03330100  0.01550800  1
  O  O0  1  0.54075900  0.45723600  0.34847800  1
  O  O1  1  0.29878700  0.33631800  0.74435900  1
  O  O2  1  0.02733200  0.98777000  0.39628700  1
  O  O3  1  0.39123800  0.57353800  0.04349600  1
  O  O4  1  0.40851700  0.51223000  0.53956200  1
  O  O5  1  0.80207400  0.74225000  0.34801400  1
  O  O6  1  0.95289100  0.94619000  0.85709500  1
  O  O7  1  0.89124200  0.04276400  0.58352200  1
  O  O8  1  0.10876200  0.15225800  0.18229900  1
  O  O9  1  0.95924100  0.30771900  0.91647800  1
  O  O10  1  0.60576400  0.75775000  0.55982400  1
  O  O11  1  0.03004100  0.34774200  0.45650400  1
  O  O12  1  0.89423600  0.45405900  0.15198600  1
  O  O13  1  0.09195900  0.55442800  0.75564100  1
  O  O14  1  0.69792600  0.04594100  0.94017600  1
  O  O15  1  0.46995900  0.92646200  0.31770100  1
  O  O16  1  0.58909500  0.09579600  0.64290500  1
  O  O17  1  0.91090500  0.55381000  0.50670000  1
  O  O18  1  0.40804100  0.16368200  0.46246900  1
  O  O19  1  0.47266800  0.86895500  0.96043800  1
  O  O20  1  0.60875800  0.19228100  0.15152200  1
  O  O21  1  0.09148300  0.63104500  0.10371300  1
  O  O22  1  0.54710900  0.40420400  0.99330000  1
  O  O23  1  0.20121300  0.94557200  0.03753100  1
loop_
_geom_bond_atom_site_label_1
_geom_bond_atom_site_label_2
_geom_bond_distance
_geom_bond_site_symmetry_2
Li0 O7 1.949423 1_455
Li0 O9 1.949431 1_455
Li0 O13 1.976103 1_555
Li0 O1 1.976103 1_555
Li1 O20 1.949423 1_555
Li1 O0 1.949423 1_555
Li1 O23 1.976103 1_545
Li1 O18 1.976103 1_555
C0 O3 1.277941 1_556
C0 O22 1.288601 1_555
C0 O1 1.306540 1_555
C1 O4 1.261806 1_555
C1 O10 1.301417 1_555
C1 O0 1.311443 1_555
C2 O2 1.261806 1_655
C2 O5 1.301417 1_555
C2 O7 1.311437 1_565
C3 O8 1.277930 1_555
C3 O6 1.288605 1_444
C3 O23 1.306540 1_545
C4 O21 1.261806 1_655
C4 O12 1.301419 1_555
C4 O9 1.311439 1_554
C5 O11 1.277930 1_555
C5 O17 1.288608 1_455
C5 O13 1.306540 1_555
C6 O15 1.277934 1_545
C6 O16 1.288605 1_555
C6 O18 1.306540 1_555
C7 O19 1.261806 1_544
C7 O14 1.301418 1_554
C7 O20 1.311443 1_555
O0 V3 2.068622 1_555
O1 V0 1.986319 1_555
O2 V0 2.079639 1_565
O3 V2 2.018464 1_555
O4 V0 2.079639 1_555
O5 V3 1.871796 1_555
O6 V1 1.967648 1_565
O7 V1 2.068629 1_555
O8 V0 2.018472 1_555
O9 V1 2.068621 1_555
O10 V1 1.871796 1_565
O11 V0 2.018472 1_555
O12 V3 1.871797 1_555
O13 V2 1.986319 1_556
O14 V1 1.871795 1_555
O15 V2 2.018472 1_555
O16 V1 1.967648 1_555
O17 V3 1.967642 1_555
O18 V0 1.986319 1_555
O19 V2 2.079639 1_556
O20 V3 2.068622 1_555
O21 V2 2.079639 1_555
O22 V3 1.967642 1_556
O23 V2 1.986319 1_555
