# generated using pymatgen
data_CaGd2O4
_symmetry_space_group_name_H-M   'P 1'
_cell_length_a   3.43029500
_cell_length_b   10.05990400
_cell_length_c   11.93909000
_cell_angle_alpha   90.00000000
_cell_angle_beta   90.00000000
_cell_angle_gamma   90.00000000
_symmetry_Int_Tables_number   1
_chemical_formula_structural   CaGd2O4
_chemical_formula_sum   'Ca4 Gd8 O16'
_cell_volume   411.99935172
_cell_formula_units_Z   4
loop_
 _symmetry_equiv_pos_site_id
 _symmetry_equiv_pos_as_xyz
  1  'x, y, z'
loop_
 _atom_site_type_symbol
 _atom_site_label
 _atom_site_symmetry_multiplicity
 _atom_site_fract_x
 _atom_site_fract_y
 _atom_site_fract_z
 _atom_site_occupancy
  Ca  Ca0  1  0.75000000  0.74983100  0.64840200  1
  Ca  Ca1  1  0.25000000  0.75016900  0.14840200  1
  Ca  Ca2  1  0.75000000  0.24983100  0.85159800  1
  Ca  Ca3  1  0.25000000  0.25016900  0.35159800  1
  Gd  Gd0  1  0.75000000  0.57923200  0.38790000  1
  Gd  Gd1  1  0.75000000  0.57913900  0.88618000  1
  Gd  Gd2  1  0.25000000  0.92086100  0.38618000  1
  Gd  Gd3  1  0.25000000  0.92076800  0.88790000  1
  Gd  Gd4  1  0.75000000  0.07923200  0.11210000  1
  Gd  Gd5  1  0.75000000  0.07913900  0.61382000  1
  Gd  Gd6  1  0.25000000  0.42086100  0.11382000  1
  Gd  Gd7  1  0.25000000  0.42076800  0.61210000  1
  O  O0  1  0.25000000  0.52284400  0.28116100  1
  O  O1  1  0.75000000  0.57931600  0.07977200  1
  O  O2  1  0.25000000  0.63355700  0.52372100  1
  O  O3  1  0.25000000  0.71073900  0.80836900  1
  O  O4  1  0.75000000  0.78926100  0.30836900  1
  O  O5  1  0.75000000  0.86644300  0.02372100  1
  O  O6  1  0.25000000  0.92068400  0.57977200  1
  O  O7  1  0.75000000  0.97715600  0.78116100  1
  O  O8  1  0.25000000  0.02284400  0.21883900  1
  O  O9  1  0.75000000  0.07931600  0.42022800  1
  O  O10  1  0.25000000  0.13355700  0.97627900  1
  O  O11  1  0.25000000  0.21073900  0.69163100  1
  O  O12  1  0.75000000  0.28926100  0.19163100  1
  O  O13  1  0.75000000  0.36644300  0.47627900  1
  O  O14  1  0.25000000  0.42068400  0.92022800  1
  O  O15  1  0.75000000  0.47715600  0.71883900  1
loop_
_geom_bond_atom_site_label_1
_geom_bond_atom_site_label_2
_geom_bond_distance
_geom_bond_site_symmetry_2
Ca0 O2 2.554565 1_555
Ca0 O2 2.554565 1_655
Ca0 O6 2.562668 1_555
Ca0 O6 2.562668 1_655
Ca0 O3 2.596912 1_555
Ca0 O3 2.596912 1_655
Ca0 O7 2.782455 1_555
Ca0 O15 2.869096 1_555
Ca1 O5 2.554565 1_455
Ca1 O5 2.554565 1_555
Ca1 O1 2.562668 1_455
Ca1 O1 2.562668 1_555
Ca1 O4 2.596912 1_555
Ca1 O4 2.596912 1_455
Ca1 O0 2.782455 1_555
Ca1 O8 2.869096 1_565
Ca2 O10 2.554565 1_555
Ca2 O10 2.554565 1_655
Ca2 O14 2.562668 1_555
Ca2 O14 2.562668 1_655
Ca2 O11 2.596912 1_655
Ca2 O11 2.596912 1_555
Ca2 O15 2.782455 1_555
Ca2 O7 2.869096 1_545
Ca3 O13 2.554565 1_455
Ca3 O13 2.554565 1_555
Ca3 O9 2.562668 1_455
Ca3 O9 2.562668 1_555
Ca3 O12 2.596912 1_455
Ca3 O12 2.596912 1_555
Ca3 O8 2.782455 1_555
Ca3 O0 2.869096 1_555
Gd0 O0 2.210774 1_555
Gd0 O0 2.210774 1_655
Gd0 O4 2.316426 1_555
Gd0 O13 2.386566 1_555
Gd0 O2 2.422791 1_555
Gd0 O2 2.422791 1_655
Gd1 O15 2.245919 1_555
Gd1 O1 2.311313 1_556
Gd1 O3 2.357419 1_555
Gd1 O3 2.357419 1_655
Gd1 O14 2.376541 1_655
Gd1 O14 2.376541 1_555
Gd2 O8 2.245919 1_565
Gd2 O6 2.311313 1_555
Gd2 O4 2.357419 1_555
Gd2 O4 2.357419 1_455
Gd2 O9 2.376541 1_465
Gd2 O9 2.376541 1_565
Gd3 O7 2.210774 1_455
Gd3 O7 2.210774 1_555
Gd3 O3 2.316426 1_555
Gd3 O10 2.386566 1_565
Gd3 O5 2.422791 1_456
Gd3 O5 2.422791 1_556
Gd4 O8 2.210774 1_555
Gd4 O8 2.210774 1_655
Gd4 O12 2.316426 1_555
Gd4 O5 2.386566 1_545
Gd4 O10 2.422791 1_654
Gd4 O10 2.422791 1_554
Gd5 O7 2.245919 1_545
Gd5 O9 2.311313 1_555
Gd5 O11 2.357419 1_655
Gd5 O11 2.357419 1_555
Gd5 O6 2.376541 1_645
Gd5 O6 2.376541 1_545
Gd6 O0 2.245919 1_555
Gd6 O14 2.311313 1_554
Gd6 O12 2.357419 1_455
Gd6 O12 2.357419 1_555
Gd6 O1 2.376541 1_555
Gd6 O1 2.376541 1_455
Gd7 O15 2.210774 1_455
Gd7 O15 2.210774 1_555
Gd7 O11 2.316426 1_555
Gd7 O2 2.386566 1_555
Gd7 O13 2.422791 1_555
Gd7 O13 2.422791 1_455
