# generated using pymatgen
data_U3O10
_symmetry_space_group_name_H-M   'P 1'
_cell_length_a   5.59596000
_cell_length_b   5.85535409
_cell_length_c   7.29113097
_cell_angle_alpha   74.67564870
_cell_angle_beta   70.94468098
_cell_angle_gamma   73.07909801
_symmetry_Int_Tables_number   1
_chemical_formula_structural   U3O10
_chemical_formula_sum   'U3 O10'
_cell_volume   212.21842603
_cell_formula_units_Z   1
loop_
 _symmetry_equiv_pos_site_id
 _symmetry_equiv_pos_as_xyz
  1  'x, y, z'
loop_
 _atom_site_type_symbol
 _atom_site_label
 _atom_site_symmetry_multiplicity
 _atom_site_fract_x
 _atom_site_fract_y
 _atom_site_fract_z
 _atom_site_occupancy
  U  U0  1  0.00000000  0.00000000  0.00000000  1
  U  U1  1  0.55417000  0.43989100  0.73221700  1
  U  U2  1  0.44583000  0.56010900  0.26778300  1
  O  O0  1  0.90976500  0.07440000  0.76121100  1
  O  O1  1  0.09023500  0.92560000  0.23878900  1
  O  O2  1  0.67265600  0.31943100  0.45746400  1
  O  O3  1  0.32734400  0.68056900  0.54253600  1
  O  O4  1  0.30084200  0.69037400  0.95630700  1
  O  O5  1  0.69915800  0.30962600  0.04369300  1
  O  O6  1  0.68684000  0.76501800  0.14791900  1
  O  O7  1  0.31316000  0.23498200  0.85208100  1
  O  O8  1  0.78930400  0.63096000  0.65142300  1
  O  O9  1  0.21069600  0.36904000  0.34857700  1
loop_
_geom_bond_atom_site_label_1
_geom_bond_atom_site_label_2
_geom_bond_distance
_geom_bond_site_symmetry_2
O0 U0 1.876455 1_656
O0 U1 2.478095 1_555
O1 U0 1.876455 1_565
O1 U2 2.478095 1_555
O2 U1 2.134830 1_555
O2 U2 2.141172 1_555
O3 U2 2.134830 1_555
O3 U1 2.141172 1_555
O4 U0 2.097844 1_566
O4 U1 2.318236 1_555
O4 U2 2.514931 1_556
O5 U0 2.097844 1_655
O5 U2 2.318236 1_555
O5 U1 2.514931 1_554
O6 U2 1.907970 1_555
O6 U0 2.347849 1_665
O7 U1 1.907970 1_555
O7 U0 2.347849 1_556
O8 U1 1.825498 1_555
O9 U2 1.825498 1_555
