# generated using pymatgen
data_Li4Fe3Co5O16
_symmetry_space_group_name_H-M   'P 1'
_cell_length_a   5.75567176
_cell_length_b   5.74922923
_cell_length_c   9.17767324
_cell_angle_alpha   90.03470156
_cell_angle_beta   90.70537431
_cell_angle_gamma   119.86959704
_symmetry_Int_Tables_number   1
_chemical_formula_structural   Li4Fe3Co5O16
_chemical_formula_sum   'Li4 Fe3 Co5 O16'
_cell_volume   263.32495752
_cell_formula_units_Z   1
loop_
 _symmetry_equiv_pos_site_id
 _symmetry_equiv_pos_as_xyz
  1  'x, y, z'
loop_
 _atom_site_type_symbol
 _atom_site_label
 _atom_site_symmetry_multiplicity
 _atom_site_fract_x
 _atom_site_fract_y
 _atom_site_fract_z
 _atom_site_occupancy
  Li  Li0  1  0.32932800  0.66475900  0.89769700  1
  Li  Li1  1  0.00933700  0.00263200  0.99699800  1
  Li  Li2  1  0.01068900  0.00561500  0.49497600  1
  Li  Li3  1  0.66251500  0.32917900  0.39189600  1
  Fe  Fe0  1  0.66392200  0.83208100  0.21131100  1
  Fe  Fe1  1  0.83009100  0.66085900  0.71243800  1
  Fe  Fe2  1  0.83052000  0.16944400  0.71215500  1
  Co  Co0  1  0.17180800  0.82833200  0.21298300  1
  Co  Co1  1  0.32986700  0.66692100  0.48365500  1
  Co  Co2  1  0.17295100  0.34420700  0.21324000  1
  Co  Co3  1  0.34849800  0.17439900  0.71333400  1
  Co  Co4  1  0.66262800  0.33390400  0.98771100  1
  O  O0  1  0.17724000  0.83442600  0.59460500  1
  O  O1  1  0.03903800  0.52035600  0.33718400  1
  O  O2  1  0.31512700  0.65307100  0.10815000  1
  O  O3  1  0.01910900  0.01375300  0.30419300  1
  O  O4  1  0.01685800  0.00837700  0.80477200  1
  O  O5  1  0.17722500  0.34289800  0.59453500  1
  O  O6  1  0.46762900  0.95167900  0.34586000  1
  O  O7  1  0.46284900  0.50915000  0.34554900  1
  O  O8  1  0.33823500  0.17023100  0.10249100  1
  O  O9  1  0.66068800  0.83061100  0.59510700  1
  O  O10  1  0.50939300  0.46932000  0.84796800  1
  O  O11  1  0.51068300  0.04185200  0.84919400  1
  O  O12  1  0.65895100  0.32968500  0.60227300  1
  O  O13  1  0.83514100  0.66441900  0.09658900  1
  O  O14  1  0.94946300  0.47447200  0.85299100  1
  O  O15  1  0.84021700  0.17366900  0.09798900  1
loop_
_geom_bond_atom_site_label_1
_geom_bond_atom_site_label_2
_geom_bond_distance
_geom_bond_site_symmetry_2
Li0 O10 1.927665 1_555
Li0 O14 1.933995 1_455
Li0 O2 1.933996 1_556
Li0 O11 1.935576 1_565
Li1 O4 1.765177 1_555
Li1 O8 1.893745 1_556
Li1 O13 1.924696 1_446
Li1 O15 1.935982 1_456
Li2 O3 1.752219 1_555
Li2 O5 1.907553 1_555
Li2 O0 1.908642 1_545
Li2 O9 1.985657 1_445
Li3 O6 1.925988 1_545
Li3 O12 1.931149 1_555
Li3 O7 1.935226 1_555
Li3 O1 1.952335 1_655
Fe0 O3 1.956038 1_665
Fe0 O2 1.969745 1_555
Fe0 O13 1.994840 1_555
Fe0 O15 2.002908 1_565
Fe0 O6 2.020193 1_555
Fe0 O7 2.049838 1_555
Fe1 O4 1.923995 1_665
Fe1 O12 1.929449 1_555
Fe1 O9 1.996481 1_555
Fe1 O14 1.999378 1_555
Fe1 O10 2.049507 1_555
Fe1 O0 2.055749 1_655
Fe2 O4 1.923020 1_655
Fe2 O12 1.929669 1_555
Fe2 O9 1.994796 1_545
Fe2 O14 1.998592 1_555
Fe2 O5 2.052813 1_655
Fe2 O11 2.054703 1_555
Co0 O2 1.862174 1_555
Co0 O3 1.886753 1_565
Co0 O6 1.906371 1_555
Co0 O1 1.922122 1_555
Co0 O13 1.978123 1_455
Co0 O8 1.990113 1_565
Co1 O0 1.897228 1_555
Co1 O6 1.908521 1_555
Co1 O5 1.916210 1_555
Co1 O9 1.929643 1_555
Co1 O7 1.931102 1_555
Co1 O1 1.964016 1_555
Co2 O2 1.824065 1_555
Co2 O3 1.853318 1_555
Co2 O7 1.878968 1_555
Co2 O1 1.926473 1_555
Co2 O15 1.956102 1_455
Co2 O8 1.977102 1_555
Co3 O4 1.866683 1_555
Co3 O12 1.867041 1_555
Co3 O10 1.914314 1_555
Co3 O11 1.920377 1_555
Co3 O5 2.006244 1_555
Co3 O0 2.007807 1_545
Co4 O14 1.905237 1_555
Co4 O10 1.919931 1_555
Co4 O13 1.920711 1_556
Co4 O11 1.925523 1_555
Co4 O8 1.944438 1_556
Co4 O15 1.957383 1_556
