# generated using pymatgen
data_Fe3CoNi2(PO4)6
_symmetry_space_group_name_H-M   'P 1'
_cell_length_a   8.43322428
_cell_length_b   8.43322428
_cell_length_c   8.43322435
_cell_angle_alpha   61.02737787
_cell_angle_beta   61.02737787
_cell_angle_gamma   61.02738154
_symmetry_Int_Tables_number   1
_chemical_formula_structural   Fe3CoNi2(PO4)6
_chemical_formula_sum   'Fe3 Co1 Ni2 P6 O24'
_cell_volume   433.91021241
_cell_formula_units_Z   1
loop_
 _symmetry_equiv_pos_site_id
 _symmetry_equiv_pos_as_xyz
  1  'x, y, z'
loop_
 _atom_site_type_symbol
 _atom_site_label
 _atom_site_symmetry_multiplicity
 _atom_site_fract_x
 _atom_site_fract_y
 _atom_site_fract_z
 _atom_site_occupancy
  Fe  Fe0  1  0.14287100  0.14287100  0.14287100  1
  Fe  Fe1  1  0.35600100  0.35600100  0.35600100  1
  Fe  Fe2  1  0.64305100  0.64305100  0.64305100  1
  Co  Co0  1  0.85830800  0.85830800  0.85830800  1
  Ni  Ni0  1  0.00023400  0.00023400  0.00023400  1
  Ni  Ni1  1  0.50044300  0.50044300  0.50044300  1
  P  P0  1  0.75055600  0.04215000  0.45878000  1
  P  P1  1  0.04215000  0.45878000  0.75055600  1
  P  P2  1  0.45878000  0.75055600  0.04215000  1
  P  P3  1  0.54596900  0.24735800  0.95117900  1
  P  P4  1  0.95117900  0.54596900  0.24735800  1
  P  P5  1  0.24735800  0.95117900  0.54596900  1
  O  O0  1  0.31148400  0.10929800  0.51163300  1
  O  O1  1  0.51163300  0.31148400  0.10929800  1
  O  O2  1  0.90915500  0.05714100  0.25969700  1
  O  O3  1  0.10929800  0.51163300  0.31148400  1
  O  O4  1  0.81987800  0.00469800  0.61900000  1
  O  O5  1  0.59262900  0.24240000  0.44676700  1
  O  O6  1  0.05714100  0.25969700  0.90915500  1
  O  O7  1  0.24240000  0.44676700  0.59262900  1
  O  O8  1  0.39007600  0.17774900  0.99354300  1
  O  O9  1  0.44676700  0.59262900  0.24240000  1
  O  O10  1  0.74776700  0.08191000  0.93898000  1
  O  O11  1  0.99354300  0.39007600  0.17774900  1
  O  O12  1  0.00469800  0.61900000  0.81987800  1
  O  O13  1  0.25969700  0.90915500  0.05714100  1
  O  O14  1  0.56361200  0.40508800  0.75250600  1
  O  O15  1  0.61900000  0.81987800  0.00469800  1
  O  O16  1  0.75250600  0.56361200  0.40508800  1
  O  O17  1  0.93898000  0.74776700  0.08191000  1
  O  O18  1  0.40508800  0.75250600  0.56361200  1
  O  O19  1  0.17774900  0.99354300  0.39007600  1
  O  O20  1  0.88820000  0.50015400  0.67973400  1
  O  O21  1  0.08191000  0.93898000  0.74776700  1
  O  O22  1  0.50015400  0.67973400  0.88820000  1
  O  O23  1  0.67973400  0.88820000  0.50015400  1
loop_
_geom_bond_atom_site_label_1
_geom_bond_atom_site_label_2
_geom_bond_distance
_geom_bond_site_symmetry_2
Fe0 O8 1.926222 1_554
Fe0 O19 1.926222 1_545
Fe0 O11 1.926222 1_455
Fe0 O2 2.046296 1_455
Fe0 O6 2.046296 1_554
Fe0 O13 2.046296 1_545
Fe1 O0 1.956013 1_555
Fe1 O1 1.956013 1_555
Fe1 O3 1.956013 1_555
Fe1 O9 2.098374 1_555
Fe1 O7 2.098374 1_555
Fe1 O5 2.098374 1_555
Fe2 O23 1.914909 1_555
Fe2 O22 1.914909 1_555
Fe2 O20 1.914909 1_555
Fe2 O14 2.058364 1_555
Fe2 O16 2.058364 1_555
Fe2 O18 2.058364 1_555
Co0 O15 1.879983 1_556
Co0 O4 1.879983 1_565
Co0 O12 1.879983 1_655
Co0 O21 1.952718 1_655
Co0 O17 1.952718 1_556
Co0 O10 1.952718 1_565
Ni0 O17 2.138797 1_445
Ni0 O21 2.138797 1_544
Ni0 O10 2.138797 1_454
Ni0 O6 2.154091 1_554
Ni0 O2 2.154091 1_455
Ni0 O13 2.154091 1_545
Ni1 O16 2.115438 1_555
Ni1 O14 2.115438 1_555
Ni1 O18 2.115438 1_555
Ni1 O7 2.125855 1_555
Ni1 O9 2.125856 1_555
Ni1 O5 2.125856 1_555
O0 P5 1.525527 1_545
O1 P3 1.525527 1_554
O2 P0 1.551249 1_555
O3 P4 1.525527 1_455
O4 P0 1.562088 1_555
O5 P0 1.556269 1_555
O6 P1 1.551249 1_555
O7 P1 1.556269 1_555
O8 P3 1.513302 1_555
O9 P2 1.556269 1_555
O10 P3 1.588267 1_555
O11 P4 1.513302 1_555
O12 P1 1.562088 1_555
O13 P2 1.551249 1_555
O14 P3 1.545898 1_555
O15 P2 1.562088 1_555
O16 P4 1.545898 1_555
O17 P4 1.588266 1_555
O18 P5 1.545898 1_555
O19 P5 1.513302 1_555
O20 P1 1.508144 1_655
O21 P5 1.588266 1_555
O22 P2 1.508144 1_556
O23 P0 1.508144 1_565
