# generated using pymatgen
data_Li2Fe3SnO8
_symmetry_space_group_name_H-M   'P 1'
_cell_length_a   5.98900124
_cell_length_b   5.98900124
_cell_length_c   9.84830300
_cell_angle_alpha   90.00000000
_cell_angle_beta   90.00000000
_cell_angle_gamma   119.99999163
_symmetry_Int_Tables_number   1
_chemical_formula_structural   Li2Fe3SnO8
_chemical_formula_sum   'Li4 Fe6 Sn2 O16'
_cell_volume   305.91507341
_cell_formula_units_Z   2
loop_
 _symmetry_equiv_pos_site_id
 _symmetry_equiv_pos_as_xyz
  1  'x, y, z'
loop_
 _atom_site_type_symbol
 _atom_site_label
 _atom_site_symmetry_multiplicity
 _atom_site_fract_x
 _atom_site_fract_y
 _atom_site_fract_z
 _atom_site_occupancy
  Li  Li0  1  0.33333300  0.66044800  0.89762900  1
  Li  Li1  1  0.00000000  0.00000000  0.99340400  1
  Li  Li2  1  0.00000000  0.00000000  0.49340400  1
  Li  Li3  1  0.67288500  0.33333300  0.39762900  1
  Fe  Fe0  1  0.17132000  0.82868000  0.21337300  1
  Fe  Fe1  1  0.17132000  0.34263900  0.21337300  1
  Fe  Fe2  1  0.65736100  0.82868000  0.21337300  1
  Fe  Fe3  1  0.34263900  0.17132000  0.71337300  1
  Fe  Fe4  1  0.82868000  0.65736100  0.71337300  1
  Fe  Fe5  1  0.82868000  0.17132000  0.71337300  1
  Sn  Sn0  1  0.33333300  0.66666700  0.48956000  1
  Sn  Sn1  1  0.66666700  0.33333300  0.98956000  1
  O  O0  1  0.16216200  0.83783800  0.59840700  1
  O  O1  1  0.03137500  0.51568700  0.33863800  1
  O  O2  1  0.33333300  0.66666700  0.10711600  1
  O  O3  1  0.00000000  0.00000000  0.30771200  1
  O  O4  1  0.00000000  0.00000000  0.80771200  1
  O  O5  1  0.16216200  0.32432300  0.59840700  1
  O  O6  1  0.48431300  0.96862500  0.33863800  1
  O  O7  1  0.48431300  0.51568700  0.33863800  1
  O  O8  1  0.32432300  0.16216200  0.09840700  1
  O  O9  1  0.67567700  0.83783800  0.59840700  1
  O  O10  1  0.51568700  0.48431300  0.83863800  1
  O  O11  1  0.51568700  0.03137500  0.83863800  1
  O  O12  1  0.66666700  0.33333300  0.60711600  1
  O  O13  1  0.83783800  0.67567700  0.09840700  1
  O  O14  1  0.96862500  0.48431300  0.83863800  1
  O  O15  1  0.83783800  0.16216200  0.09840700  1
loop_
_geom_bond_atom_site_label_1
_geom_bond_atom_site_label_2
_geom_bond_distance
_geom_bond_site_symmetry_2
Li0 O10 1.948086 1_555
Li0 O14 1.979159 1_455
Li0 O11 2.009751 1_565
Li0 O2 2.063428 1_556
Li1 O4 1.828751 1_555
Li1 O8 1.974581 1_556
Li1 O13 1.974581 1_446
Li1 O15 1.974585 1_456
Li2 O3 1.828751 1_555
Li2 O5 1.974581 1_555
Li2 O9 1.974581 1_445
Li2 O0 1.974585 1_545
Li3 O1 1.948092 1_655
Li3 O6 1.979159 1_545
Li3 O7 2.009746 1_555
Li3 O12 2.063428 1_555
Fe0 O2 1.979768 1_555
Fe0 O3 2.005352 1_565
Fe0 O1 2.041340 1_555
Fe0 O6 2.041340 1_555
Fe0 O8 2.068906 1_565
Fe0 O13 2.068906 1_455
Fe1 O2 1.979777 1_555
Fe1 O3 2.005347 1_555
Fe1 O1 2.041340 1_555
Fe1 O7 2.041340 1_555
Fe1 O8 2.068896 1_555
Fe1 O15 2.068905 1_455
Fe2 O2 1.979777 1_555
Fe2 O3 2.005347 1_665
Fe2 O6 2.041340 1_555
Fe2 O7 2.041340 1_555
Fe2 O13 2.068896 1_555
Fe2 O15 2.068905 1_565
Fe3 O12 1.979777 1_555
Fe3 O4 2.005347 1_555
Fe3 O11 2.041340 1_555
Fe3 O10 2.041340 1_555
Fe3 O5 2.068896 1_555
Fe3 O0 2.068905 1_545
Fe4 O12 1.979777 1_555
Fe4 O4 2.005347 1_665
Fe4 O14 2.041340 1_555
Fe4 O10 2.041340 1_555
Fe4 O9 2.068896 1_555
Fe4 O0 2.068905 1_655
Fe5 O12 1.979768 1_555
Fe5 O4 2.005352 1_655
Fe5 O11 2.041340 1_555
Fe5 O14 2.041340 1_555
Fe5 O5 2.068906 1_655
Fe5 O9 2.068906 1_545
O0 Sn0 2.074090 1_555
O1 Sn0 2.159160 1_555
O5 Sn0 2.074099 1_555
O6 Sn0 2.159160 1_555
O7 Sn0 2.159167 1_555
O8 Sn1 2.074099 1_554
O9 Sn0 2.074099 1_555
O10 Sn1 2.159167 1_555
O11 Sn1 2.159160 1_555
O13 Sn1 2.074099 1_554
O14 Sn1 2.159160 1_555
O15 Sn1 2.074090 1_554
