# generated using pymatgen
data_LiMn2O3F
_symmetry_space_group_name_H-M   'P 1'
_cell_length_a   5.96438200
_cell_length_b   5.36059000
_cell_length_c   10.58719491
_cell_angle_alpha   88.75013771
_cell_angle_beta   90.00000000
_cell_angle_gamma   90.00000000
_symmetry_Int_Tables_number   1
_chemical_formula_structural   LiMn2O3F
_chemical_formula_sum   'Li4 Mn8 O12 F4'
_cell_volume   338.41968073
_cell_formula_units_Z   4
loop_
 _symmetry_equiv_pos_site_id
 _symmetry_equiv_pos_as_xyz
  1  'x, y, z'
loop_
 _atom_site_type_symbol
 _atom_site_label
 _atom_site_symmetry_multiplicity
 _atom_site_fract_x
 _atom_site_fract_y
 _atom_site_fract_z
 _atom_site_occupancy
  Li  Li0  1  0.05680500  0.57201700  0.76710200  1
  Li  Li1  1  0.55059500  0.12237700  0.73585300  1
  Li  Li2  1  0.05059500  0.87762300  0.26414700  1
  Li  Li3  1  0.55680500  0.42798300  0.23289800  1
  Mn  Mn0  1  0.49761400  0.51432600  0.50762700  1
  Mn  Mn1  1  0.24769800  0.00151800  0.50581700  1
  Mn  Mn2  1  0.74769800  0.99848200  0.49418300  1
  Mn  Mn3  1  0.99761400  0.48567400  0.49237300  1
  Mn  Mn4  1  0.98917300  0.49490400  0.01845400  1
  Mn  Mn5  1  0.23527700  0.01080900  0.99517500  1
  Mn  Mn6  1  0.73527700  0.98919100  0.00482500  1
  Mn  Mn7  1  0.48917300  0.50509600  0.98154600  1
  O  O0  1  0.74342300  0.31728600  0.58314600  1
  O  O1  1  0.25111300  0.32676900  0.58957300  1
  O  O2  1  0.50336600  0.88245400  0.59789500  1
  O  O3  1  0.00336600  0.11754600  0.40210500  1
  O  O4  1  0.24342300  0.68271400  0.41685400  1
  O  O5  1  0.75111300  0.67323100  0.41042700  1
  O  O6  1  0.72160100  0.61348000  0.09751400  1
  O  O7  1  0.98304300  0.15518000  0.09179000  1
  O  O8  1  0.48931400  0.18717600  0.07747600  1
  O  O9  1  0.98931400  0.81282400  0.92252400  1
  O  O10  1  0.48304300  0.84482000  0.90821000  1
  O  O11  1  0.22160100  0.38652000  0.90248600  1
  F  F0  1  0.99985900  0.80039900  0.63270600  1
  F  F1  1  0.49985900  0.19960100  0.36729400  1
  F  F2  1  0.23112000  0.68043500  0.14079600  1
  F  F3  1  0.73112000  0.31956500  0.85920400  1
loop_
_geom_bond_atom_site_label_1
_geom_bond_atom_site_label_2
_geom_bond_distance
_geom_bond_site_symmetry_2
Li0 O11 1.986746 1_555
Li0 O9 2.151431 1_455
Li0 O1 2.590738 1_555
Li1 O2 1.987145 1_545
Li1 O0 2.225881 1_555
Li1 O10 2.363780 1_545
Li1 O1 2.591429 1_555
Li2 O3 1.987145 1_565
Li2 O4 2.225881 1_555
Li2 O7 2.363780 1_465
Li2 O5 2.591429 1_455
Li3 O6 1.986746 1_555
Li3 O8 2.151431 1_555
Li3 O5 2.590738 1_555
Mn0 O0 1.966602 1_555
Mn0 O1 1.971564 1_555
Mn0 O4 1.999767 1_555
Mn0 O5 2.008083 1_555
Mn0 O2 2.211566 1_555
Mn1 O2 1.912035 1_545
Mn1 O3 1.920001 1_555
Mn1 O4 1.969414 1_545
Mn1 O1 1.973346 1_555
Mn2 O3 1.912035 1_665
Mn2 O2 1.920001 1_555
Mn2 O0 1.969414 1_565
Mn2 O5 1.973346 1_555
Mn3 O4 1.966602 1_655
Mn3 O5 1.971564 1_555
Mn3 O0 1.999767 1_555
Mn3 O1 2.008083 1_655
Mn3 O3 2.211566 1_655
Mn4 O6 1.916965 1_555
Mn4 O11 1.948824 1_654
Mn4 O7 1.964425 1_555
Mn4 O9 1.964796 1_554
Mn5 O10 1.964435 1_545
Mn5 O9 1.976302 1_445
Mn5 O7 1.985710 1_456
Mn5 O8 1.996186 1_556
Mn5 O11 2.222553 1_555
Mn6 O7 1.964435 1_565
Mn6 O8 1.976302 1_565
Mn6 O10 1.985710 1_554
Mn6 O9 1.996186 1_554
Mn6 O6 2.222553 1_555
Mn7 O11 1.916965 1_555
Mn7 O6 1.948824 1_556
Mn7 O10 1.964425 1_555
Mn7 O8 1.964796 1_556
F0 Li0 1.887528 1_655
F0 Mn1 2.255874 1_665
F0 Mn3 2.272285 1_555
F0 Mn2 2.339310 1_555
F1 Li3 1.887528 1_555
F1 Mn2 2.255874 1_545
F1 Mn0 2.272285 1_555
F1 Mn1 2.339310 1_555
F2 Li2 2.010565 1_555
F2 Mn4 2.192138 1_455
F2 Mn5 2.322679 1_564
F2 Mn7 2.482766 1_554
F2 Li3 2.549117 1_555
F3 Li1 2.010565 1_555
F3 Mn7 2.192138 1_555
F3 Mn6 2.322679 1_546
F3 Mn4 2.482766 1_556
F3 Li0 2.549117 1_655
