# generated using pymatgen
data_Fe12O13
_symmetry_space_group_name_H-M   'P 1'
_cell_length_a   6.87511317
_cell_length_b   6.87511317
_cell_length_c   6.87511322
_cell_angle_alpha   107.39373767
_cell_angle_beta   107.39373767
_cell_angle_gamma   107.39374590
_symmetry_Int_Tables_number   1
_chemical_formula_structural   Fe12O13
_chemical_formula_sum   'Fe12 O13'
_cell_volume   267.67577297
_cell_formula_units_Z   1
loop_
 _symmetry_equiv_pos_site_id
 _symmetry_equiv_pos_as_xyz
  1  'x, y, z'
loop_
 _atom_site_type_symbol
 _atom_site_label
 _atom_site_symmetry_multiplicity
 _atom_site_fract_x
 _atom_site_fract_y
 _atom_site_fract_z
 _atom_site_occupancy
  Fe  Fe0  1  0.07326800  0.23113600  0.70936500  1
  Fe  Fe1  1  0.23113600  0.70936500  0.07326800  1
  Fe  Fe2  1  0.62347700  0.84795300  0.54175500  1
  Fe  Fe3  1  0.54175500  0.62347700  0.84795300  1
  Fe  Fe4  1  0.15204700  0.45824500  0.37652300  1
  Fe  Fe5  1  0.29063500  0.92673200  0.76886400  1
  Fe  Fe6  1  0.70936500  0.07326800  0.23113600  1
  Fe  Fe7  1  0.45824500  0.37652300  0.15204700  1
  Fe  Fe8  1  0.84795300  0.54175500  0.62347700  1
  Fe  Fe9  1  0.76886400  0.29063500  0.92673200  1
  Fe  Fe10  1  0.37652300  0.15204700  0.45824500  1
  Fe  Fe11  1  0.92673200  0.76886400  0.29063500  1
  O  O0  1  0.12929700  0.37449000  0.04702300  1
  O  O1  1  0.04702300  0.12929700  0.37449000  1
  O  O2  1  0.57521100  0.71969000  0.19001400  1
  O  O3  1  0.19001400  0.57521100  0.71969000  1
  O  O4  1  0.37449000  0.04702300  0.12929700  1
  O  O5  1  0.62551000  0.95297700  0.87070300  1
  O  O6  1  0.71969000  0.19001400  0.57521100  1
  O  O7  1  0.28031000  0.80998600  0.42478900  1
  O  O8  1  0.42478900  0.28031000  0.80998600  1
  O  O9  1  0.80998600  0.42478900  0.28031000  1
  O  O10  1  0.95297700  0.87070300  0.62551000  1
  O  O11  1  0.87070300  0.62551000  0.95297700  1
  O  O12  1  0.50000000  0.50000000  0.50000000  1
loop_
_geom_bond_atom_site_label_1
_geom_bond_atom_site_label_2
_geom_bond_distance
_geom_bond_site_symmetry_2
Fe0 O0 2.092675 1_556
Fe0 O1 2.129724 1_555
Fe0 O10 2.189167 1_445
Fe0 O8 2.192178 1_555
Fe0 O6 2.220938 1_455
Fe0 O3 2.230579 1_555
Fe1 O4 2.092675 1_565
Fe1 O0 2.129723 1_555
Fe1 O11 2.189167 1_454
Fe1 O7 2.192178 1_555
Fe1 O3 2.220938 1_554
Fe1 O2 2.230579 1_555
Fe2 O10 2.107669 1_555
Fe2 O5 2.152893 1_555
Fe2 O7 2.157114 1_555
Fe2 O6 2.162537 1_565
Fe2 O12 2.180672 1_555
Fe2 O2 2.192267 1_555
Fe3 O5 2.107669 1_555
Fe3 O11 2.152893 1_555
Fe3 O8 2.157114 1_555
Fe3 O2 2.162537 1_556
Fe3 O12 2.180672 1_555
Fe3 O3 2.192267 1_555
Fe4 O0 2.107669 1_555
Fe4 O1 2.152893 1_555
Fe4 O3 2.157114 1_555
Fe4 O9 2.162537 1_455
Fe4 O12 2.180672 1_555
Fe4 O7 2.192267 1_555
Fe5 O10 2.092675 1_455
Fe5 O5 2.129723 1_555
Fe5 O4 2.189167 1_566
Fe5 O3 2.192178 1_555
Fe5 O8 2.220938 1_565
Fe5 O7 2.230579 1_555
Fe6 O1 2.092675 1_655
Fe6 O4 2.129723 1_555
Fe6 O5 2.189167 1_544
Fe6 O9 2.192178 1_555
Fe6 O2 2.220938 1_545
Fe6 O6 2.230579 1_555
Fe7 O4 2.107669 1_555
Fe7 O0 2.152893 1_555
Fe7 O2 2.157114 1_555
Fe7 O8 2.162537 1_554
Fe7 O12 2.180672 1_555
Fe7 O9 2.192267 1_555
Fe8 O11 2.107669 1_555
Fe8 O10 2.152893 1_555
Fe8 O9 2.157114 1_555
Fe8 O3 2.162537 1_655
Fe8 O12 2.180672 1_555
Fe8 O6 2.192267 1_555
Fe9 O5 2.092675 1_545
Fe9 O11 2.129723 1_555
Fe9 O0 2.189167 1_656
Fe9 O6 2.192178 1_555
Fe9 O9 2.220938 1_556
Fe9 O8 2.230579 1_555
Fe10 O1 2.107669 1_555
Fe10 O4 2.152893 1_555
Fe10 O6 2.157114 1_555
Fe10 O7 2.162537 1_545
Fe10 O12 2.180672 1_555
Fe10 O8 2.192267 1_555
Fe11 O11 2.092675 1_554
Fe11 O10 2.129724 1_555
Fe11 O1 2.189167 1_665
Fe11 O2 2.192178 1_555
Fe11 O7 2.220938 1_655
Fe11 O9 2.230579 1_555
