# generated using pymatgen
data_Li3MnV(PO4)3
_symmetry_space_group_name_H-M   'P 1'
_cell_length_a   9.87538100
_cell_length_b   9.88595402
_cell_length_c   9.91613985
_cell_angle_alpha   87.06682919
_cell_angle_beta   86.51305867
_cell_angle_gamma   88.32602299
_symmetry_Int_Tables_number   1
_chemical_formula_structural   Li3MnV(PO4)3
_chemical_formula_sum   'Li12 Mn4 V4 P12 O48'
_cell_volume   964.69954529
_cell_formula_units_Z   4
loop_
 _symmetry_equiv_pos_site_id
 _symmetry_equiv_pos_as_xyz
  1  'x, y, z'
loop_
 _atom_site_type_symbol
 _atom_site_label
 _atom_site_symmetry_multiplicity
 _atom_site_fract_x
 _atom_site_fract_y
 _atom_site_fract_z
 _atom_site_occupancy
  Li  Li0  1  0.04907300  0.97495200  0.01086200  1
  Li  Li1  1  0.73990600  0.14060100  0.06482900  1
  Li  Li2  1  0.07115400  0.72426900  0.13730600  1
  Li  Li3  1  0.56262300  0.64252100  0.23399500  1
  Li  Li4  1  0.85560600  0.94287100  0.27202500  1
  Li  Li5  1  0.77107500  0.41718200  0.36416800  1
  Li  Li6  1  0.36055900  0.76518200  0.43654900  1
  Li  Li7  1  0.52572200  0.45025600  0.49312900  1
  Li  Li8  1  0.23169500  0.55994100  0.64085800  1
  Li  Li9  1  0.45678300  0.36576300  0.76474400  1
  Li  Li10  1  0.13096700  0.05168500  0.73807300  1
  Li  Li11  1  0.93581900  0.27272900  0.84632000  1
  Mn  Mn0  1  0.01926900  0.24105000  0.47594400  1
  Mn  Mn1  1  0.96665400  0.74003500  0.52719000  1
  Mn  Mn2  1  0.74508200  0.75251300  0.75307400  1
  Mn  Mn3  1  0.76130700  0.53168100  0.97283200  1
  V  V0  1  0.25634900  0.47267300  0.03130400  1
  V  V1  1  0.24667000  0.25026900  0.25238300  1
  V  V2  1  0.46472700  0.03614000  0.25058700  1
  V  V3  1  0.52944300  0.97000700  0.74881300  1
  P  P0  1  0.66959200  0.85746100  0.05206500  1
  P  P1  1  0.95300600  0.33290900  0.14126000  1
  P  P2  1  0.55120000  0.35668700  0.17280200  1
  P  P3  1  0.14498600  0.94653400  0.32604900  1
  P  P4  1  0.17021400  0.54629200  0.35254500  1
  P  P5  1  0.64252000  0.83295000  0.44843900  1
  P  P6  1  0.35229900  0.17676700  0.54943900  1
  P  P7  1  0.82426000  0.45369400  0.64621700  1
  P  P8  1  0.84326200  0.04182200  0.67072200  1
  P  P9  1  0.45362300  0.65477300  0.82749200  1
  P  P10  1  0.05030400  0.67404400  0.85719400  1
  P  P11  1  0.32073600  0.15185700  0.95325200  1
  O  O0  1  0.61931800  0.41012400  0.03562900  1
  O  O1  1  0.90610800  0.23125700  0.04305100  1
  O  O2  1  0.32902100  0.12254000  0.11230300  1
  O  O3  1  0.11502100  0.33381100  0.12057000  1
  O  O4  1  0.69062900  0.70497500  0.08944500  1
  O  O5  1  0.89554700  0.47823200  0.10622000  1
  O  O6  1  0.78358500  0.94695300  0.09299800  1
  O  O7  1  0.53120000  0.90432300  0.11772300  1
  O  O8  1  0.39206000  0.37979400  0.16779900  1
  O  O9  1  0.58727100  0.20295200  0.18595300  1
  O  O10  1  0.20232400  0.58222400  0.19825600  1
  O  O11  1  0.06052600  0.89989100  0.21199800  1
  O  O12  1  0.12140800  0.10399500  0.32714800  1
  O  O13  1  0.59407000  0.44019000  0.28921800  1
  O  O14  1  0.91106200  0.29867900  0.29042000  1
  O  O15  1  0.29956000  0.91065600  0.31220500  1
  O  O16  1  0.17098100  0.38789500  0.37796800  1
  O  O17  1  0.37929600  0.17152700  0.38834600  1
  O  O18  1  0.02669900  0.60904900  0.38643900  1
  O  O19  1  0.60058500  0.97009200  0.37759900  1
  O  O20  1  0.55297400  0.71924200  0.40723700  1
  O  O21  1  0.27432100  0.59857400  0.44421100  1
  O  O22  1  0.79567000  0.80937800  0.41240400  1
  O  O23  1  0.09222000  0.87951500  0.46484200  1
  O  O24  1  0.87347200  0.09649500  0.52699400  1
  O  O25  1  0.19990700  0.16780900  0.58777400  1
  O  O26  1  0.41743800  0.30441300  0.59201400  1
  O  O27  1  0.71241900  0.41652200  0.55604600  1
  O  O28  1  0.42160400  0.04454900  0.61002600  1
  O  O29  1  0.96462100  0.39191400  0.60792600  1
  O  O30  1  0.61847100  0.84192500  0.60749500  1
  O  O31  1  0.83399000  0.61705900  0.62388700  1
  O  O32  1  0.08746400  0.69194600  0.70358200  1
  O  O33  1  0.68743200  0.07053200  0.71116500  1
  O  O34  1  0.40489500  0.56680100  0.71855800  1
  O  O35  1  0.87242400  0.88162400  0.67684300  1
  O  O36  1  0.93303000  0.09699700  0.77445800  1
  O  O37  1  0.42644400  0.81106300  0.79657900  1
  O  O38  1  0.79392400  0.41561300  0.79894100  1
  O  O39  1  0.61349300  0.62785000  0.82899700  1
  O  O40  1  0.45161700  0.08931900  0.88358700  1
  O  O41  1  0.19194100  0.08984900  0.91123700  1
  O  O42  1  0.11945600  0.53842000  0.90672400  1
  O  O43  1  0.32753100  0.30846100  0.92122100  1
  O  O44  1  0.88929700  0.65721500  0.88075300  1
  O  O45  1  0.08384900  0.79106600  0.94245700  1
  O  O46  1  0.66211100  0.87771000  0.89179500  1
  O  O47  1  0.39196900  0.61413000  0.96850000  1
loop_
_geom_bond_atom_site_label_1
_geom_bond_atom_site_label_2
_geom_bond_distance
_geom_bond_site_symmetry_2
Li0 O45 1.985990 1_554
Li0 O41 2.016419 1_564
Li0 O11 2.100595 1_555
Li1 O1 1.888586 1_555
Li1 O6 1.959765 1_545
Li1 O9 1.973790 1_555
Li2 O11 1.919752 1_555
Li2 O10 1.979203 1_555
Li2 O45 2.007431 1_554
Li3 O20 1.909112 1_555
Li3 O4 1.941228 1_555
Li3 O13 2.066287 1_555
Li4 O22 1.946041 1_555
Li4 O6 1.950282 1_555
Li4 O11 2.111677 1_655
Li5 O14 1.920527 1_555
Li5 O13 1.943471 1_555
Li5 O27 1.954657 1_555
Li6 O21 1.872217 1_555
Li6 O20 1.948667 1_555
Li6 O15 1.951851 1_555
Li7 O27 1.995598 1_555
Li7 O26 2.000403 1_555
Li7 O13 2.098727 1_555
Li8 O34 1.922550 1_555
Li8 O21 1.989675 1_555
Li8 O32 1.996325 1_555
Li9 O26 1.911436 1_555
Li9 O43 2.017205 1_555
Li9 O34 2.073205 1_555
Li10 O41 1.912789 1_555
Li10 O25 1.936435 1_555
Li10 O36 2.007809 1_455
Li11 O36 1.912738 1_555
Li11 O1 1.978736 1_556
Li11 O38 2.018931 1_555
Mn0 O29 2.072505 1_455
Mn0 O24 2.080631 1_455
Mn0 O14 2.224226 1_455
Mn0 O12 2.230240 1_555
Mn0 O25 2.240346 1_555
Mn0 O16 2.258684 1_555
Mn1 O23 1.934064 1_655
Mn1 O31 1.983621 1_555
Mn1 O18 2.003962 1_655
Mn1 O22 2.168632 1_555
Mn1 O32 2.201003 1_655
Mn1 O35 2.235155 1_555
Mn2 O39 1.911524 1_555
Mn2 O35 1.913480 1_555
Mn2 O46 2.018254 1_555
Mn2 O31 2.043321 1_555
Mn2 O30 2.110207 1_555
Mn2 O44 2.130187 1_555
Mn3 O0 1.927087 1_556
Mn3 O44 1.951075 1_555
Mn3 O5 1.971539 1_556
Mn3 O38 2.122974 1_555
Mn3 O4 2.189518 1_556
Mn3 O39 2.258838 1_555
O0 P2 1.554903 1_555
O1 P1 1.534594 1_555
O2 P11 1.595523 1_554
O2 V1 2.041423 1_555
O2 V2 2.107763 1_555
O3 P1 1.600862 1_455
O3 V1 2.028364 1_555
O3 V0 2.110274 1_555
O4 P0 1.544960 1_555
O5 P1 1.559473 1_555
O6 P0 1.537936 1_555
O7 P0 1.546596 1_555
O7 V2 1.971146 1_565
O8 P2 1.584872 1_555
O8 V1 2.062910 1_555
O8 V0 2.119613 1_555
O9 P2 1.551604 1_555
O9 V2 2.123413 1_555
O10 P4 1.568258 1_555
O10 V0 2.059273 1_555
O11 P3 1.542053 1_555
O12 P3 1.567722 1_545
O12 V1 2.013493 1_555
O13 P2 1.539715 1_555
O14 P1 1.535003 1_555
O15 P3 1.556484 1_555
O15 V2 2.119459 1_565
O16 P4 1.573153 1_555
O16 V1 1.990328 1_555
O17 P6 1.606665 1_555
O17 V1 2.046193 1_555
O17 V2 2.085708 1_555
O18 P4 1.555166 1_555
O19 P5 1.551838 1_555
O19 V2 1.970489 1_565
O20 P5 1.536740 1_555
O21 P4 1.530738 1_555
O22 P5 1.546472 1_555
O23 P3 1.563421 1_555
O24 P8 1.513695 1_555
O25 P6 1.533594 1_555
O26 P6 1.522963 1_555
O27 P7 1.527047 1_555
O28 P6 1.566929 1_555
O28 V3 1.897319 1_545
O29 P7 1.532569 1_555
O30 P5 1.587271 1_555
O30 V3 2.075252 1_555
O31 P7 1.623708 1_555
O32 P10 1.547401 1_555
O33 P8 1.587640 1_555
O33 V3 1.882279 1_545
O34 P9 1.529243 1_555
O35 P8 1.600125 1_565
O36 P8 1.529097 1_555
O37 P9 1.578155 1_555
O37 V3 1.920047 1_555
O38 P7 1.555003 1_555
O39 P9 1.594211 1_555
O40 P11 1.555125 1_555
O40 V3 1.936859 1_545
O41 P11 1.517641 1_555
O42 P10 1.557293 1_555
O42 V0 1.961058 1_556
O43 P11 1.566972 1_555
O43 V0 2.083861 1_556
O44 P10 1.605200 1_655
O45 P10 1.522989 1_555
O46 P0 1.597541 1_556
O46 V3 2.140793 1_555
O47 P9 1.529869 1_555
O47 V0 2.013959 1_556
