# generated using pymatgen
data_CeHfO4
_symmetry_space_group_name_H-M   'P 1'
_cell_length_a   6.57698744
_cell_length_b   6.57698744
_cell_length_c   5.24155039
_cell_angle_alpha   69.16979257
_cell_angle_beta   69.16979257
_cell_angle_gamma   114.09373310
_symmetry_Int_Tables_number   1
_chemical_formula_structural   CeHfO4
_chemical_formula_sum   'Ce2 Hf2 O8'
_cell_volume   156.62652553
_cell_formula_units_Z   2
loop_
 _symmetry_equiv_pos_site_id
 _symmetry_equiv_pos_as_xyz
  1  'x, y, z'
loop_
 _atom_site_type_symbol
 _atom_site_label
 _atom_site_symmetry_multiplicity
 _atom_site_fract_x
 _atom_site_fract_y
 _atom_site_fract_z
 _atom_site_occupancy
  Ce  Ce0  1  0.86405400  0.13594600  0.25000000  1
  Ce  Ce1  1  0.13594600  0.86405400  0.75000000  1
  Hf  Hf0  1  0.59638100  0.40361900  0.75000000  1
  Hf  Hf1  1  0.40361900  0.59638100  0.25000000  1
  O  O0  1  0.88477800  0.45083800  0.83659100  1
  O  O1  1  0.54916200  0.11522200  0.66340900  1
  O  O2  1  0.28326100  0.23330400  0.23329300  1
  O  O3  1  0.76669600  0.71673900  0.26670700  1
  O  O4  1  0.23330400  0.28326100  0.73329300  1
  O  O5  1  0.71673900  0.76669600  0.76670700  1
  O  O6  1  0.45083800  0.88477800  0.33659100  1
  O  O7  1  0.11522200  0.54916200  0.16340900  1
loop_
_geom_bond_atom_site_label_1
_geom_bond_atom_site_label_2
_geom_bond_distance
_geom_bond_site_symmetry_2
Ce0 O7 2.290170 1_655
Ce0 O6 2.290170 1_545
Ce0 O0 2.317552 1_554
Ce0 O1 2.317552 1_555
Ce0 O4 2.388840 1_654
Ce0 O5 2.388840 1_545
Ce0 O3 2.523168 1_545
Ce0 O2 2.523168 1_655
Ce1 O1 2.290170 1_565
Ce1 O0 2.290170 1_455
Ce1 O6 2.317552 1_555
Ce1 O7 2.317552 1_556
Ce1 O2 2.388840 1_565
Ce1 O3 2.388840 1_456
Ce1 O5 2.523168 1_455
Ce1 O4 2.523168 1_565
Hf0 O0 2.032683 1_555
Hf0 O1 2.032683 1_555
Hf0 O2 2.073932 1_556
Hf0 O3 2.073932 1_555
Hf0 O5 2.234118 1_555
Hf0 O4 2.234118 1_555
Hf1 O6 2.032683 1_555
Hf1 O7 2.032683 1_555
Hf1 O4 2.073932 1_555
Hf1 O5 2.073932 1_554
Hf1 O3 2.234118 1_555
Hf1 O2 2.234118 1_555
