# generated using pymatgen
data_Li3CrBO5
_symmetry_space_group_name_H-M   'P 1'
_cell_length_a   4.72810400
_cell_length_b   4.86598500
_cell_length_c   16.26852400
_cell_angle_alpha   90.00000000
_cell_angle_beta   90.00000000
_cell_angle_gamma   90.00000000
_symmetry_Int_Tables_number   1
_chemical_formula_structural   Li3CrBO5
_chemical_formula_sum   'Li12 Cr4 B4 O20'
_cell_volume   374.28803057
_cell_formula_units_Z   4
loop_
 _symmetry_equiv_pos_site_id
 _symmetry_equiv_pos_as_xyz
  1  'x, y, z'
loop_
 _atom_site_type_symbol
 _atom_site_label
 _atom_site_symmetry_multiplicity
 _atom_site_fract_x
 _atom_site_fract_y
 _atom_site_fract_z
 _atom_site_occupancy
  Li  Li0  1  0.00911100  0.69926600  0.61228600  1
  Li  Li1  1  0.00911100  0.19926600  0.88771400  1
  Li  Li2  1  0.50937300  0.32088100  0.00566900  1
  Li  Li3  1  0.50937300  0.82088100  0.49433100  1
  Li  Li4  1  0.49838700  0.34210900  0.79189400  1
  Li  Li5  1  0.49838700  0.84210900  0.70810600  1
  Li  Li6  1  0.50911100  0.30073400  0.38771400  1
  Li  Li7  1  0.50911100  0.80073400  0.11228600  1
  Li  Li8  1  0.00937300  0.67911900  0.99433100  1
  Li  Li9  1  0.00937300  0.17911900  0.50566900  1
  Li  Li10  1  0.99838700  0.15789100  0.29189400  1
  Li  Li11  1  0.99838700  0.65789100  0.20810600  1
  Cr  Cr0  1  0.01101500  0.17010900  0.10317700  1
  Cr  Cr1  1  0.01101500  0.67010900  0.39682300  1
  Cr  Cr2  1  0.51101500  0.32989100  0.60317700  1
  Cr  Cr3  1  0.51101500  0.82989100  0.89682300  1
  B  B0  1  0.99629500  0.18909000  0.70750600  1
  B  B1  1  0.99629500  0.68909000  0.79249400  1
  B  B2  1  0.49629500  0.31091000  0.20750600  1
  B  B3  1  0.49629500  0.81091000  0.29249400  1
  O  O0  1  0.08939800  0.39068500  0.77405700  1
  O  O1  1  0.08939800  0.89068500  0.72594300  1
  O  O2  1  0.08192400  0.31922200  0.39453600  1
  O  O3  1  0.08192400  0.81922200  0.10546400  1
  O  O4  1  0.09011000  0.29247500  0.00535400  1
  O  O5  1  0.09011000  0.79247500  0.49464600  1
  O  O6  1  0.18516900  0.31055700  0.19733200  1
  O  O7  1  0.18516900  0.81055700  0.30266800  1
  O  O8  1  0.12421700  0.27314400  0.62686200  1
  O  O9  1  0.12421700  0.77314400  0.87313800  1
  O  O10  1  0.58939800  0.60931500  0.22594300  1
  O  O11  1  0.58939800  0.10931500  0.27405700  1
  O  O12  1  0.58192400  0.68077800  0.60546400  1
  O  O13  1  0.58192400  0.18077800  0.89453600  1
  O  O14  1  0.59011000  0.20752500  0.50535400  1
  O  O15  1  0.59011000  0.70752500  0.99464600  1
  O  O16  1  0.68516900  0.18944300  0.69733200  1
  O  O17  1  0.68516900  0.68944300  0.80266800  1
  O  O18  1  0.62421700  0.22685600  0.12686200  1
  O  O19  1  0.62421700  0.72685600  0.37313800  1
loop_
_geom_bond_atom_site_label_1
_geom_bond_atom_site_label_2
_geom_bond_distance
_geom_bond_site_symmetry_2
Li0 O5 2.003776 1_555
Li0 O12 2.024831 1_455
Li0 O1 2.104900 1_555
Li0 O8 2.156812 1_555
Li1 O4 2.003776 1_556
Li1 O13 2.024831 1_455
Li1 O0 2.104900 1_555
Li1 O9 2.156812 1_545
Li2 O15 1.928097 1_554
Li2 O13 1.962445 1_554
Li2 O4 1.987139 1_555
Li2 O18 2.095591 1_555
Li3 O14 1.928097 1_565
Li3 O12 1.962445 1_555
Li3 O5 1.987139 1_555
Li3 O19 2.095591 1_555
Li4 O13 1.886962 1_555
Li4 O17 1.914979 1_555
Li4 O16 1.923120 1_555
Li4 O0 1.969628 1_555
Li5 O12 1.886962 1_555
Li5 O16 1.914979 1_565
Li5 O17 1.923120 1_555
Li5 O1 1.969628 1_555
Li6 O14 2.003776 1_555
Li6 O2 2.024831 1_555
Li6 O11 2.104900 1_555
Li6 O19 2.156812 1_555
Li7 O15 2.003776 1_554
Li7 O3 2.024831 1_555
Li7 O10 2.104900 1_555
Li7 O18 2.156812 1_565
Li8 O4 1.928097 1_556
Li8 O3 1.962445 1_556
Li8 O15 1.987139 1_455
Li8 O9 2.095591 1_555
Li9 O5 1.928097 1_545
Li9 O2 1.962445 1_555
Li9 O14 1.987139 1_455
Li9 O8 2.095591 1_555
Li10 O2 1.886962 1_655
Li10 O7 1.914979 1_645
Li10 O6 1.923120 1_655
Li10 O11 1.969628 1_555
Li11 O3 1.886962 1_655
Li11 O6 1.914979 1_655
Li11 O7 1.923120 1_655
Li11 O10 1.969628 1_555
Cr0 O4 1.739845 1_555
Cr0 O3 1.740413 1_545
Cr0 O6 1.868522 1_555
Cr0 O18 1.889261 1_455
Cr1 O5 1.739845 1_555
Cr1 O2 1.740413 1_555
Cr1 O7 1.868522 1_555
Cr1 O19 1.889261 1_455
Cr2 O14 1.739845 1_555
Cr2 O12 1.740413 1_555
Cr2 O16 1.868522 1_555
Cr2 O8 1.889261 1_555
Cr3 O15 1.739845 1_555
Cr3 O13 1.740413 1_565
Cr3 O17 1.868522 1_555
Cr3 O9 1.889261 1_555
B0 O16 1.480319 1_555
B0 O8 1.501446 1_655
B0 O0 1.525866 1_655
B0 O1 1.546656 1_645
B1 O17 1.480319 1_555
B1 O9 1.501446 1_655
B1 O1 1.525866 1_655
B1 O0 1.546656 1_655
B2 O6 1.480319 1_555
B2 O18 1.501446 1_555
B2 O11 1.525866 1_555
B2 O10 1.546656 1_555
B3 O7 1.480319 1_555
B3 O19 1.501446 1_555
B3 O10 1.525866 1_555
B3 O11 1.546656 1_565
