# generated using pymatgen
data_Na5CaAl5Fe(SiO3)12
_symmetry_space_group_name_H-M   'P 1'
_cell_length_a   6.48692750
_cell_length_b   6.48692750
_cell_length_c   15.89259555
_cell_angle_alpha   77.32129925
_cell_angle_beta   77.32129925
_cell_angle_gamma   84.46287849
_symmetry_Int_Tables_number   1
_chemical_formula_structural   Na5CaAl5Fe(SiO3)12
_chemical_formula_sum   'Na5 Ca1 Al5 Fe1 Si12 O36'
_cell_volume   635.72697970
_cell_formula_units_Z   1
loop_
 _symmetry_equiv_pos_site_id
 _symmetry_equiv_pos_as_xyz
  1  'x, y, z'
loop_
 _atom_site_type_symbol
 _atom_site_label
 _atom_site_symmetry_multiplicity
 _atom_site_fract_x
 _atom_site_fract_y
 _atom_site_fract_z
 _atom_site_occupancy
  Na  Na0  1  0.30127200  0.70000900  0.66664700  1
  Na  Na1  1  0.69614700  0.30161300  0.83462600  1
  Na  Na2  1  0.30275800  0.69724200  0.00000000  1
  Na  Na3  1  0.69838700  0.30385300  0.16537400  1
  Na  Na4  1  0.29999100  0.69872800  0.33335300  1
  Ca  Ca0  1  0.69849000  0.30151000  0.50000000  1
  Al  Al0  1  0.90524900  0.09001000  0.67063300  1
  Al  Al1  1  0.09601900  0.90273000  0.83487600  1
  Al  Al2  1  0.90329000  0.09671000  0.00000000  1
  Al  Al3  1  0.09727000  0.90398100  0.16512400  1
  Al  Al4  1  0.90999000  0.09475100  0.32936700  1
  Fe  Fe0  1  0.10412500  0.89587500  0.50000000  1
  Si  Si0  1  0.37856200  0.19739300  0.67647400  1
  Si  Si1  1  0.80409700  0.61398000  0.66313500  1
  Si  Si2  1  0.19445700  0.38292100  0.84261600  1
  Si  Si3  1  0.61461300  0.80236300  0.82602000  1
  Si  Si4  1  0.38241300  0.19547600  0.00847400  1
  Si  Si5  1  0.80452400  0.61758700  0.99152600  1
  Si  Si6  1  0.19763700  0.38538700  0.17398000  1
  Si  Si7  1  0.61707900  0.80554300  0.15738400  1
  Si  Si8  1  0.38602000  0.19590300  0.33686500  1
  Si  Si9  1  0.80260700  0.62143800  0.32352600  1
  Si  Si10  1  0.19396500  0.37403300  0.50730900  1
  Si  Si11  1  0.62596700  0.80603500  0.49269100  1
  O  O0  1  0.67591000  0.63026800  0.58118800  1
  O  O1  1  0.62199600  0.11044500  0.65017000  1
  O  O2  1  0.18429300  0.03396800  0.70973200  1
  O  O3  1  0.95956700  0.80990200  0.63894500  1
  O  O4  1  0.89558600  0.37271200  0.68789800  1
  O  O5  1  0.35786400  0.34449200  0.74983300  1
  O  O6  1  0.62622000  0.65624800  0.75184500  1
  O  O7  1  0.10119700  0.62325500  0.82014700  1
  O  O8  1  0.03347500  0.18455000  0.87515800  1
  O  O9  1  0.81150100  0.96526100  0.79402800  1
  O  O10  1  0.37585000  0.89996100  0.84926800  1
  O  O11  1  0.34235400  0.35955200  0.91651000  1
  O  O12  1  0.65711200  0.63856200  0.91736000  1
  O  O13  1  0.62292800  0.10174000  0.98533900  1
  O  O14  1  0.18455900  0.03406900  0.04095900  1
  O  O15  1  0.96593100  0.81544100  0.95904100  1
  O  O16  1  0.89826000  0.37707200  0.01466100  1
  O  O17  1  0.36143800  0.34288800  0.08264000  1
  O  O18  1  0.64044800  0.65764600  0.08349000  1
  O  O19  1  0.10003900  0.62415000  0.15073200  1
  O  O20  1  0.03473900  0.18849900  0.20597200  1
  O  O21  1  0.81545000  0.96652500  0.12484200  1
  O  O22  1  0.37674500  0.89880300  0.17985300  1
  O  O23  1  0.34375200  0.37378000  0.24815500  1
  O  O24  1  0.65550800  0.64213600  0.25016700  1
  O  O25  1  0.62728800  0.10441400  0.31210200  1
  O  O26  1  0.19009800  0.04043300  0.36105500  1
  O  O27  1  0.96603200  0.81570700  0.29026800  1
  O  O28  1  0.88955500  0.37800400  0.34983000  1
  O  O29  1  0.36973200  0.32409000  0.41881200  1
  O  O30  1  0.64033300  0.65677500  0.41795900  1
  O  O31  1  0.09222400  0.60331900  0.47686500  1
  O  O32  1  0.01987100  0.19268900  0.54738100  1
  O  O33  1  0.80731100  0.98012900  0.45261900  1
  O  O34  1  0.39668100  0.90777600  0.52313500  1
  O  O35  1  0.34322500  0.35966700  0.58204100  1
loop_
_geom_bond_atom_site_label_1
_geom_bond_atom_site_label_2
_geom_bond_distance
_geom_bond_site_symmetry_2
Na0 O34 2.365046 1_555
Na0 O3 2.366656 1_455
Na0 O2 2.417367 1_565
Na0 O5 2.431557 1_555
Na0 O7 2.466835 1_555
Na0 O0 2.562040 1_555
Na0 O6 2.706645 1_555
Na0 O35 2.789773 1_555
Na1 O4 2.375487 1_555
Na1 O9 2.414091 1_545
Na1 O11 2.416431 1_555
Na1 O8 2.421418 1_655
Na1 O13 2.428984 1_555
Na1 O6 2.441490 1_555
Na1 O12 2.753026 1_555
Na1 O5 2.779311 1_555
Na2 O14 2.422329 1_565
Na2 O15 2.422329 1_454
Na2 O12 2.424677 1_554
Na2 O17 2.424677 1_555
Na2 O19 2.435476 1_555
Na2 O10 2.435476 1_554
Na2 O11 2.764576 1_554
Na2 O18 2.764576 1_555
Na3 O25 2.375487 1_555
Na3 O20 2.414091 1_655
Na3 O18 2.416431 1_555
Na3 O21 2.421418 1_545
Na3 O16 2.428984 1_555
Na3 O23 2.441490 1_555
Na3 O17 2.753026 1_555
Na3 O24 2.779311 1_555
Na4 O31 2.365046 1_555
Na4 O26 2.366656 1_565
Na4 O27 2.417367 1_455
Na4 O24 2.431557 1_555
Na4 O22 2.466835 1_555
Na4 O29 2.562040 1_555
Na4 O23 2.706645 1_555
Na4 O30 2.789773 1_555
Ca0 O32 2.362920 1_655
Ca0 O33 2.362920 1_545
Ca0 O28 2.403870 1_555
Ca0 O1 2.403870 1_555
Ca0 O35 2.425396 1_555
Ca0 O30 2.425396 1_555
Ca0 O0 2.701679 1_555
Ca0 O29 2.701679 1_555
Al0 O4 1.906157 1_555
Al0 O1 1.922473 1_555
Al0 O32 1.927928 1_655
Al0 O9 1.935281 1_545
Al0 O3 1.969681 1_545
Al0 O2 2.015558 1_655
Al1 O7 1.874496 1_555
Al1 O10 1.876675 1_555
Al1 O15 1.948699 1_455
Al1 O2 1.964469 1_565
Al1 O8 2.042831 1_565
Al1 O9 2.063558 1_455
Al2 O16 1.879948 1_555
Al2 O13 1.879948 1_554
Al2 O21 1.958433 1_545
Al2 O8 1.958433 1_654
Al2 O14 2.044524 1_655
Al2 O15 2.044524 1_544
Al3 O22 1.874496 1_555
Al3 O19 1.876675 1_555
Al3 O14 1.948699 1_565
Al3 O27 1.964469 1_455
Al3 O21 2.042831 1_455
Al3 O20 2.063558 1_565
Al4 O25 1.906157 1_555
Al4 O28 1.922473 1_555
Al4 O33 1.927928 1_545
Al4 O20 1.935281 1_655
Al4 O26 1.969681 1_655
Al4 O27 2.015558 1_545
Fe0 O34 2.022321 1_555
Fe0 O31 2.022321 1_555
Fe0 O3 2.172066 1_455
Fe0 O26 2.172066 1_565
Fe0 O33 2.196734 1_455
Fe0 O32 2.196734 1_565
O0 Si1 1.672352 1_555
O0 Si11 1.675673 1_555
O1 Si0 1.621233 1_555
O2 Si0 1.646458 1_555
O3 Si1 1.625688 1_555
O4 Si1 1.615395 1_555
O5 Si0 1.637899 1_555
O5 Si2 1.668633 1_555
O6 Si3 1.652711 1_555
O6 Si1 1.669960 1_555
O7 Si2 1.610128 1_555
O8 Si2 1.656504 1_555
O9 Si3 1.657084 1_555
O10 Si3 1.611982 1_555
O11 Si2 1.646489 1_555
O11 Si4 1.663422 1_556
O12 Si5 1.649697 1_555
O12 Si3 1.659619 1_555
O13 Si4 1.613196 1_556
O14 Si4 1.655682 1_555
O15 Si5 1.655682 1_555
O16 Si5 1.613196 1_554
O17 Si4 1.649697 1_555
O17 Si6 1.659619 1_555
O18 Si7 1.646489 1_555
O18 Si5 1.663422 1_554
O19 Si6 1.611982 1_555
O20 Si6 1.657084 1_555
O21 Si7 1.656504 1_555
O22 Si7 1.610128 1_555
O23 Si6 1.652711 1_555
O23 Si8 1.669960 1_555
O24 Si9 1.637899 1_555
O24 Si7 1.668633 1_555
O25 Si8 1.615395 1_555
O26 Si8 1.625688 1_555
O27 Si9 1.646458 1_555
O28 Si9 1.621233 1_555
O29 Si8 1.672352 1_555
O29 Si10 1.675673 1_555
O30 Si11 1.671994 1_555
O30 Si9 1.680463 1_555
O31 Si10 1.586430 1_555
O32 Si10 1.636037 1_555
O33 Si11 1.636037 1_555
O34 Si11 1.586430 1_555
O35 Si10 1.671994 1_555
O35 Si0 1.680463 1_555
