# generated using pymatgen
data_Al10ZnO16
_symmetry_space_group_name_H-M   'P 1'
_cell_length_a   9.70320911
_cell_length_b   9.70320911
_cell_length_c   9.70320884
_cell_angle_alpha   34.25733123
_cell_angle_beta   34.25733123
_cell_angle_gamma   34.25732624
_symmetry_Int_Tables_number   1
_chemical_formula_structural   Al10ZnO16
_chemical_formula_sum   'Al10 Zn1 O16'
_cell_volume   258.15036743
_cell_formula_units_Z   1
loop_
 _symmetry_equiv_pos_site_id
 _symmetry_equiv_pos_as_xyz
  1  'x, y, z'
loop_
 _atom_site_type_symbol
 _atom_site_label
 _atom_site_symmetry_multiplicity
 _atom_site_fract_x
 _atom_site_fract_y
 _atom_site_fract_z
 _atom_site_occupancy
  Al  Al0  1  0.50164600  0.50164600  0.50164600  1
  Al  Al1  1  0.30774600  0.30774600  0.30774600  1
  Al  Al2  1  0.24973800  0.75534200  0.75534200  1
  Al  Al3  1  0.75534200  0.24973800  0.75534200  1
  Al  Al4  1  0.24056900  0.75588400  0.24056900  1
  Al  Al5  1  0.81110800  0.81110800  0.81110800  1
  Al  Al6  1  0.24056900  0.24056900  0.75588400  1
  Al  Al7  1  0.75534200  0.75534200  0.24973800  1
  Al  Al8  1  0.75588400  0.24056900  0.24056900  1
  Al  Al9  1  0.69028900  0.69028900  0.69028900  1
  Zn  Zn0  1  0.18980400  0.18980400  0.18980400  1
  O  O0  1  0.39964400  0.39964400  0.83602700  1
  O  O1  1  0.39964400  0.83602700  0.39964400  1
  O  O2  1  0.37675700  0.37675700  0.37675700  1
  O  O3  1  0.11759500  0.62299800  0.11759500  1
  O  O4  1  0.87771400  0.87771400  0.87771400  1
  O  O5  1  0.11759500  0.11759500  0.62299800  1
  O  O6  1  0.14923700  0.61150600  0.61150600  1
  O  O7  1  0.62299800  0.11759500  0.11759500  1
  O  O8  1  0.83602700  0.39964400  0.39964400  1
  O  O9  1  0.87948500  0.87948500  0.38142700  1
  O  O10  1  0.38142700  0.87948500  0.87948500  1
  O  O11  1  0.87948500  0.38142700  0.87948500  1
  O  O12  1  0.62459400  0.62459400  0.62459400  1
  O  O13  1  0.11674100  0.11674100  0.11674100  1
  O  O14  1  0.61150600  0.14923700  0.61150600  1
  O  O15  1  0.61150600  0.61150600  0.14923700  1
loop_
_geom_bond_atom_site_label_1
_geom_bond_atom_site_label_2
_geom_bond_distance
_geom_bond_site_symmetry_2
Al0 O8 1.867872 1_555
Al0 O1 1.867872 1_555
Al0 O0 1.867872 1_555
Al0 O14 1.947536 1_555
Al0 O6 1.947536 1_555
Al0 O15 1.947536 1_555
Al1 O7 1.770246 1_555
Al1 O3 1.770246 1_555
Al1 O5 1.770246 1_555
Al1 O2 1.889147 1_555
Al2 O5 1.859714 1_565
Al2 O3 1.859714 1_556
Al2 O0 1.938541 1_555
Al2 O1 1.938541 1_555
Al2 O12 1.963066 1_555
Al2 O4 2.002621 1_455
Al3 O5 1.859714 1_655
Al3 O7 1.859714 1_556
Al3 O0 1.938541 1_555
Al3 O8 1.938541 1_555
Al3 O12 1.963066 1_555
Al3 O4 2.002621 1_545
Al4 O9 1.851966 1_455
Al4 O10 1.851966 1_554
Al4 O13 1.903956 1_565
Al4 O2 1.959709 1_555
Al4 O15 2.036460 1_555
Al4 O6 2.036461 1_555
Al5 O4 1.823312 1_555
Al5 O14 1.859902 1_565
Al5 O6 1.859902 1_655
Al5 O15 1.859903 1_556
Al6 O11 1.851966 1_455
Al6 O10 1.851966 1_545
Al6 O13 1.903956 1_556
Al6 O2 1.959709 1_555
Al6 O14 2.036461 1_555
Al6 O6 2.036461 1_555
Al7 O3 1.859714 1_655
Al7 O7 1.859714 1_565
Al7 O1 1.938541 1_555
Al7 O8 1.938541 1_555
Al7 O12 1.963066 1_555
Al7 O4 2.002621 1_554
Al8 O9 1.851966 1_545
Al8 O11 1.851966 1_554
Al8 O13 1.903956 1_655
Al8 O2 1.959709 1_555
Al8 O15 2.036460 1_555
Al8 O14 2.036461 1_555
Al9 O10 1.761736 1_555
Al9 O11 1.761736 1_555
Al9 O9 1.761736 1_555
Al9 O12 1.798373 1_555
O0 Zn0 1.954668 1_556
O1 Zn0 1.954668 1_565
O8 Zn0 1.954668 1_655
O13 Zn0 2.000069 1_555
