# generated using pymatgen
data_CoH4SeO5
_symmetry_space_group_name_H-M   'P 1'
_cell_length_a   11.40509300
_cell_length_b   5.94085900
_cell_length_c   10.00075508
_cell_angle_alpha   55.87597656
_cell_angle_beta   90.00000000
_cell_angle_gamma   90.00000000
_symmetry_Int_Tables_number   1
_chemical_formula_structural   CoH4SeO5
_chemical_formula_sum   'Co4 H16 Se4 O20'
_cell_volume   560.94399895
_cell_formula_units_Z   4
loop_
 _symmetry_equiv_pos_site_id
 _symmetry_equiv_pos_as_xyz
  1  'x, y, z'
loop_
 _atom_site_type_symbol
 _atom_site_label
 _atom_site_symmetry_multiplicity
 _atom_site_fract_x
 _atom_site_fract_y
 _atom_site_fract_z
 _atom_site_occupancy
  Co  Co0  1  0.07468200  0.27125200  0.90581300  1
  Co  Co1  1  0.42531800  0.27125200  0.40581300  1
  Co  Co2  1  0.92531800  0.72874800  0.09418700  1
  Co  Co3  1  0.57468200  0.72874800  0.59418700  1
  H  H0  1  0.92703800  0.25044100  0.66085900  1
  H  H1  1  0.57296200  0.25044100  0.16085900  1
  H  H2  1  0.07296200  0.74955900  0.33914100  1
  H  H3  1  0.42703800  0.74955900  0.83914100  1
  H  H4  1  0.20266700  0.37569700  0.63691900  1
  H  H5  1  0.29733300  0.37569700  0.13691900  1
  H  H6  1  0.79733300  0.62430300  0.36308100  1
  H  H7  1  0.70266700  0.62430300  0.86308100  1
  H  H8  1  0.10846000  0.60327900  0.57998600  1
  H  H9  1  0.39154000  0.60327900  0.07998600  1
  H  H10  1  0.89154000  0.39672100  0.42001400  1
  H  H11  1  0.60846000  0.39672100  0.92001400  1
  H  H12  1  0.43988000  0.02701800  0.82300100  1
  H  H13  1  0.06012000  0.02701800  0.32300100  1
  H  H14  1  0.56012000  0.97298200  0.17699900  1
  H  H15  1  0.93988000  0.97298200  0.67699900  1
  Se  Se0  1  0.64579600  0.22596300  0.64704200  1
  Se  Se1  1  0.85420400  0.22596300  0.14704200  1
  Se  Se2  1  0.35420400  0.77403700  0.35295800  1
  Se  Se3  1  0.14579600  0.77403700  0.85295800  1
  O  O0  1  0.89644500  0.15077600  0.61715600  1
  O  O1  1  0.60355500  0.15077600  0.11715600  1
  O  O2  1  0.10355500  0.84922400  0.38284400  1
  O  O3  1  0.39644500  0.84922400  0.88284400  1
  O  O4  1  0.08375900  0.86915700  0.97916900  1
  O  O5  1  0.41624100  0.86915700  0.47916900  1
  O  O6  1  0.91624100  0.13084300  0.02083100  1
  O  O7  1  0.58375900  0.13084300  0.52083100  1
  O  O8  1  0.69005100  0.56252400  0.51635400  1
  O  O9  1  0.80994900  0.56252400  0.01635400  1
  O  O10  1  0.30994900  0.43747600  0.48364600  1
  O  O11  1  0.19005100  0.43747600  0.98364600  1
  O  O12  1  0.13023100  0.41667100  0.67549500  1
  O  O13  1  0.36976900  0.41667100  0.17549500  1
  O  O14  1  0.86976900  0.58332900  0.32450500  1
  O  O15  1  0.63023100  0.58332900  0.82450500  1
  O  O16  1  0.47768700  0.69901200  0.28689500  1
  O  O17  1  0.02231300  0.69901200  0.78689500  1
  O  O18  1  0.52231300  0.30098800  0.71310500  1
  O  O19  1  0.97768700  0.30098800  0.21310500  1
loop_
_geom_bond_atom_site_label_1
_geom_bond_atom_site_label_2
_geom_bond_distance
_geom_bond_site_symmetry_2
Co0 O11 2.043236 1_555
Co0 O6 2.051284 1_456
Co0 O12 2.054398 1_555
Co0 O4 2.070995 1_545
Co0 O17 2.199599 1_555
Co1 O10 2.043236 1_555
Co1 O7 2.051284 1_555
Co1 O13 2.054398 1_555
Co1 O5 2.070995 1_545
Co1 O16 2.199599 1_555
Co2 O9 2.043236 1_555
Co2 O4 2.051284 1_654
Co2 O14 2.054398 1_555
Co2 O6 2.070995 1_565
Co2 O19 2.199599 1_555
Co3 O8 2.043236 1_555
Co3 O5 2.051284 1_555
Co3 O15 2.054398 1_555
Co3 O7 2.070995 1_565
Co3 O18 2.199599 1_555
H0 O0 0.976571 1_555
H1 O1 0.976571 1_555
H2 O2 0.976571 1_555
H3 O3 0.976571 1_555
H4 O12 0.997976 1_555
H5 O13 0.997976 1_555
H6 O14 0.997976 1_555
H7 O15 0.997976 1_555
H8 O12 1.007446 1_555
H9 O13 1.007446 1_555
H10 O14 1.007446 1_555
H11 O15 1.007446 1_555
H12 O3 1.004985 1_545
H12 O18 1.653457 1_555
H13 O2 1.004985 1_545
H13 O19 1.653457 1_455
H14 O1 1.004985 1_565
H14 O16 1.653457 1_555
H15 O0 1.004985 1_565
H15 O17 1.653457 1_655
O4 Se3 1.792587 1_555
O5 Se2 1.792587 1_555
O6 Se1 1.792587 1_555
O7 Se0 1.792587 1_555
O8 Se0 1.740344 1_555
O9 Se1 1.740344 1_555
O10 Se2 1.740344 1_555
O11 Se3 1.740344 1_555
O16 Se2 1.717253 1_555
O17 Se3 1.717253 1_555
O18 Se0 1.717253 1_555
O19 Se1 1.717253 1_555
