# generated using pymatgen
data_Li4Mn(TeO4)3
_symmetry_space_group_name_H-M   'P 1'
_cell_length_a   5.16729209
_cell_length_b   5.02628065
_cell_length_c   8.81741701
_cell_angle_alpha   90.00074044
_cell_angle_beta   90.00568241
_cell_angle_gamma   93.15165933
_symmetry_Int_Tables_number   1
_chemical_formula_structural   Li4Mn(TeO4)3
_chemical_formula_sum   'Li4 Mn1 Te3 O12'
_cell_volume   228.66187439
_cell_formula_units_Z   1
loop_
 _symmetry_equiv_pos_site_id
 _symmetry_equiv_pos_as_xyz
  1  'x, y, z'
loop_
 _atom_site_type_symbol
 _atom_site_label
 _atom_site_symmetry_multiplicity
 _atom_site_fract_x
 _atom_site_fract_y
 _atom_site_fract_z
 _atom_site_occupancy
  Li  Li0  1  0.99990700  0.99999100  0.69186600  1
  Li  Li1  1  0.99990700  0.49995700  0.86623000  1
  Li  Li2  1  0.49998500  0.99997000  0.29647600  1
  Li  Li3  1  0.49994700  0.49994200  0.18038200  1
  Mn  Mn0  1  0.00020100  0.00008700  0.10215000  1
  Te  Te0  1  0.49992800  0.50001100  0.59891400  1
  Te  Te1  1  0.99991900  0.50001300  0.39449700  1
  Te  Te2  1  0.50012700  0.99997100  0.92567600  1
  O  O0  1  0.15269700  0.25914100  0.24982600  1
  O  O1  1  0.14748700  0.28455800  0.55774500  1
  O  O2  1  0.19236100  0.21171500  0.94678100  1
  O  O3  1  0.33294300  0.70295000  0.41768200  1
  O  O4  1  0.31213800  0.80574800  0.09305200  1
  O  O5  1  0.31602500  0.78150100  0.77742000  1
  O  O6  1  0.68393100  0.21851200  0.77738500  1
  O  O7  1  0.68808700  0.19421300  0.09305100  1
  O  O8  1  0.66687700  0.29707800  0.41764900  1
  O  O9  1  0.80783200  0.78832700  0.94675600  1
  O  O10  1  0.85231600  0.71542600  0.55774500  1
  O  O11  1  0.84738500  0.74089000  0.24979700  1
loop_
_geom_bond_atom_site_label_1
_geom_bond_atom_site_label_2
_geom_bond_distance
_geom_bond_site_symmetry_2
Li0 O10 1.976303 1_555
Li0 O1 1.976403 1_665
Li0 O6 2.153653 1_565
Li0 O5 2.154149 1_655
Li1 O9 1.936067 1_555
Li1 O2 1.936675 1_655
Li1 O6 2.241970 1_555
Li1 O5 2.242791 1_655
Li2 O8 1.993365 1_565
Li2 O3 1.993616 1_555
Li2 O4 2.237825 1_555
Li2 O7 2.238590 1_565
Li2 O0 2.311583 1_565
Li2 O11 2.311876 1_555
Li3 O4 2.015246 1_555
Li3 O7 2.015898 1_555
Li3 O0 2.195663 1_555
Li3 O11 2.196623 1_555
Li3 O8 2.501388 1_555
Li3 O3 2.502202 1_555
Mn0 O4 1.931800 1_545
Mn0 O7 1.931987 1_455
Mn0 O2 1.969352 1_554
Mn0 O9 1.970202 1_444
Mn0 O0 1.974535 1_555
Mn0 O11 1.975551 1_445
O0 Te1 1.954859 1_455
O1 Te1 1.979083 1_455
O1 Te0 2.098606 1_555
O2 Te2 1.970432 1_545
O3 Te1 1.962246 1_455
O3 Te0 2.105975 1_555
O4 Te2 1.992666 1_554
O5 Te2 1.924710 1_555
O5 Te0 2.351651 1_555
O6 Te2 1.924549 1_545
O6 Te0 2.351597 1_555
O7 Te2 1.992473 1_544
O8 Te1 1.962329 1_555
O8 Te0 2.106209 1_555
O9 Te2 1.969827 1_555
O10 Te1 1.979128 1_555
O10 Te0 2.098354 1_555
O11 Te1 1.954408 1_555
