# generated using pymatgen
data_FeOF
_symmetry_space_group_name_H-M   'P 1'
_cell_length_a   14.32644425
_cell_length_b   4.76804100
_cell_length_c   3.02463800
_cell_angle_alpha   90.00000000
_cell_angle_beta   90.00000000
_cell_angle_gamma   89.54951372
_symmetry_Int_Tables_number   1
_chemical_formula_structural   FeOF
_chemical_formula_sum   'Fe6 O6 F6'
_cell_volume   206.60383335
_cell_formula_units_Z   6
loop_
 _symmetry_equiv_pos_site_id
 _symmetry_equiv_pos_as_xyz
  1  'x, y, z'
loop_
 _atom_site_type_symbol
 _atom_site_label
 _atom_site_symmetry_multiplicity
 _atom_site_fract_x
 _atom_site_fract_y
 _atom_site_fract_z
 _atom_site_occupancy
  Fe  Fe0  1  0.00628400  0.00942200  0.00000000  1
  Fe  Fe1  1  0.17149600  0.43657900  0.50000000  1
  Fe  Fe2  1  0.34096600  0.01431400  0.00000000  1
  Fe  Fe3  1  0.48474900  0.50896500  0.50000000  1
  Fe  Fe4  1  0.67689400  0.00455700  0.00000000  1
  Fe  Fe5  1  0.81810800  0.50403100  0.50000000  1
  O  O0  1  0.10368400  0.28342100  0.00000000  1
  O  O1  1  0.27393400  0.17579000  0.50000000  1
  O  O2  1  0.39694000  0.81573200  0.50000000  1
  O  O3  1  0.43563500  0.32926200  0.00000000  1
  O  O4  1  0.73061600  0.81623500  0.50000000  1
  O  O5  1  0.76744200  0.31384600  0.00000000  1
  F  F0  1  0.06611400  0.77952000  0.50000000  1
  F  F1  1  0.22986500  0.67789400  0.00000000  1
  F  F2  1  0.56375400  0.71429600  0.00000000  1
  F  F3  1  0.59874100  0.21117200  0.50000000  1
  F  F4  1  0.90327100  0.70428200  0.00000000  1
  F  F5  1  0.93150700  0.20068000  0.50000000  1
loop_
_geom_bond_atom_site_label_1
_geom_bond_atom_site_label_2
_geom_bond_distance
_geom_bond_site_symmetry_2
Fe0 O0 1.919004 1_555
Fe1 O1 1.916050 1_555
Fe1 O0 1.943031 1_556
Fe1 O0 1.943031 1_555
Fe2 O1 1.946921 1_555
Fe2 O1 1.946921 1_554
Fe2 O2 1.953137 1_544
Fe2 O2 1.953137 1_545
Fe2 O3 2.031392 1_555
Fe3 O3 1.877723 1_555
Fe3 O3 1.877723 1_556
Fe3 O2 1.921726 1_555
Fe4 O4 1.916995 1_544
Fe4 O4 1.916995 1_545
Fe4 O5 1.971709 1_555
Fe5 O5 1.909618 1_555
Fe5 O5 1.909618 1_556
Fe5 O4 1.938486 1_555
F0 Fe0 2.051501 1_565
F0 Fe0 2.051501 1_566
F0 Fe1 2.216813 1_555
F1 Fe1 2.079755 1_555
F1 Fe1 2.079755 1_554
F1 Fe2 2.268617 1_565
F2 Fe3 2.131698 1_554
F2 Fe3 2.131698 1_555
F2 Fe4 2.139617 1_565
F3 Fe4 2.119884 1_555
F3 Fe4 2.119884 1_556
F3 Fe3 2.155606 1_555
F4 Fe0 2.080522 1_665
F4 Fe5 2.169258 1_554
F4 Fe5 2.169258 1_555
F5 Fe0 2.061799 1_656
F5 Fe0 2.061799 1_655
F5 Fe5 2.166664 1_555
