# generated using pymatgen
data_Li4Cr3Co3(SnO8)2
_symmetry_space_group_name_H-M   'P 1'
_cell_length_a   5.85325646
_cell_length_b   5.85952778
_cell_length_c   9.63616943
_cell_angle_alpha   89.91295546
_cell_angle_beta   89.24799455
_cell_angle_gamma   119.68701223
_symmetry_Int_Tables_number   1
_chemical_formula_structural   Li4Cr3Co3(SnO8)2
_chemical_formula_sum   'Li4 Cr3 Co3 Sn2 O16'
_cell_volume   287.07832405
_cell_formula_units_Z   1
loop_
 _symmetry_equiv_pos_site_id
 _symmetry_equiv_pos_as_xyz
  1  'x, y, z'
loop_
 _atom_site_type_symbol
 _atom_site_label
 _atom_site_symmetry_multiplicity
 _atom_site_fract_x
 _atom_site_fract_y
 _atom_site_fract_z
 _atom_site_occupancy
  Li  Li0  1  0.33964800  0.66726300  0.89100200  1
  Li  Li1  1  0.98969500  0.99641900  0.99449500  1
  Li  Li2  1  0.99429900  0.99530500  0.49511500  1
  Li  Li3  1  0.66751100  0.33438900  0.39333800  1
  Cr  Cr0  1  0.16767800  0.82393100  0.21748800  1
  Cr  Cr1  1  0.16813400  0.33967800  0.21455300  1
  Cr  Cr2  1  0.33876600  0.16817800  0.71524700  1
  Co  Co0  1  0.65947500  0.83093600  0.21481300  1
  Co  Co1  1  0.83100300  0.66039400  0.71522700  1
  Co  Co2  1  0.82902100  0.16863500  0.71503800  1
  Sn  Sn0  1  0.33606600  0.66990300  0.49493900  1
  Sn  Sn1  1  0.66827500  0.33580200  0.99127600  1
  O  O0  1  0.15488600  0.83995700  0.60017600  1
  O  O1  1  0.03193000  0.52571200  0.33843300  1
  O  O2  1  0.33937800  0.68025000  0.10796200  1
  O  O3  1  0.99335900  0.98829000  0.30624500  1
  O  O4  1  0.98379800  0.99504500  0.80735400  1
  O  O5  1  0.14969600  0.31458100  0.60196000  1
  O  O6  1  0.48633700  0.96782700  0.33460500  1
  O  O7  1  0.48883200  0.52353700  0.33668700  1
  O  O8  1  0.31551300  0.15135900  0.09977000  1
  O  O9  1  0.68406200  0.84480300  0.60698400  1
  O  O10  1  0.52386600  0.48807500  0.83665400  1
  O  O11  1  0.52904300  0.03229400  0.83433900  1
  O  O12  1  0.68353300  0.33827600  0.61240600  1
  O  O13  1  0.84127500  0.68075400  0.10277300  1
  O  O14  1  0.96779100  0.48115100  0.82756700  1
  O  O15  1  0.83712800  0.15755300  0.10139300  1
loop_
_geom_bond_atom_site_label_1
_geom_bond_atom_site_label_2
_geom_bond_distance
_geom_bond_site_symmetry_2
Li0 O10 1.909874 1_555
Li0 O11 1.932329 1_565
Li0 O14 1.996549 1_455
Li0 O2 2.092172 1_556
Li1 O4 1.804059 1_555
Li1 O15 1.887852 1_566
Li1 O13 1.908734 1_556
Li1 O8 1.956768 1_666
Li2 O3 1.820529 1_555
Li2 O9 1.896511 1_555
Li2 O0 1.899134 1_655
Li2 O5 1.931888 1_665
Li3 O1 1.920031 1_655
Li3 O7 1.944605 1_555
Li3 O6 1.954883 1_545
Li3 O12 2.113945 1_555
Cr0 O1 1.907172 1_555
Cr0 O2 1.909367 1_555
Cr0 O3 1.911285 1_455
Cr0 O6 1.990955 1_555
Cr0 O8 2.009883 1_565
Cr0 O13 2.011585 1_455
Cr1 O3 1.987697 1_445
Cr1 O2 2.006865 1_555
Cr1 O1 2.022032 1_555
Cr1 O15 2.023025 1_455
Cr1 O8 2.026502 1_555
Cr1 O7 2.031765 1_555
Cr2 O4 1.998718 1_445
Cr2 O12 2.000014 1_555
Cr2 O0 2.018463 1_545
Cr2 O10 2.020985 1_555
Cr2 O11 2.024966 1_555
Cr2 O5 2.030168 1_555
Co0 O3 1.925754 1_555
Co0 O2 1.940344 1_555
Co0 O6 1.944271 1_555
Co0 O7 1.949863 1_555
Co0 O15 1.982698 1_565
Co0 O13 1.993149 1_555
Co1 O12 1.924480 1_555
Co1 O4 1.929275 1_555
Co1 O10 1.940033 1_555
Co1 O14 1.941196 1_555
Co1 O0 1.973734 1_655
Co1 O9 1.983925 1_555
Co2 O12 1.883857 1_555
Co2 O4 1.891521 1_545
Co2 O11 1.896736 1_555
Co2 O14 1.935122 1_555
Co2 O5 1.948147 1_655
Co2 O9 1.959348 1_545
O0 Sn0 2.041429 1_555
O1 Sn0 2.177581 1_555
O5 Sn0 2.074266 1_555
O6 Sn0 2.154845 1_555
O7 Sn0 2.142041 1_555
O8 Sn1 2.062512 1_554
O9 Sn0 2.087674 1_555
O10 Sn1 2.122881 1_555
O11 Sn1 2.172280 1_555
O13 Sn1 2.067125 1_554
O14 Sn1 2.175275 1_555
O15 Sn1 2.059200 1_554
