# generated using pymatgen
data_Gd(BiO2)4
_symmetry_space_group_name_H-M   'P 1'
_cell_length_a   6.99965633
_cell_length_b   6.99965633
_cell_length_c   9.87679744
_cell_angle_alpha   60.60634101
_cell_angle_beta   60.60634101
_cell_angle_gamma   31.16387710
_symmetry_Int_Tables_number   1
_chemical_formula_structural   Gd(BiO2)4
_chemical_formula_sum   'Gd1 Bi4 O8'
_cell_volume   215.47427682
_cell_formula_units_Z   1
loop_
 _symmetry_equiv_pos_site_id
 _symmetry_equiv_pos_as_xyz
  1  'x, y, z'
loop_
 _atom_site_type_symbol
 _atom_site_label
 _atom_site_symmetry_multiplicity
 _atom_site_fract_x
 _atom_site_fract_y
 _atom_site_fract_z
 _atom_site_occupancy
  Gd  Gd0  1  0.02079300  0.02079300  0.98711100  1
  Bi  Bi0  1  0.79620300  0.79620300  0.79913100  1
  Bi  Bi1  1  0.57337700  0.57337700  0.61883900  1
  Bi  Bi2  1  0.40663500  0.40663500  0.36076800  1
  Bi  Bi3  1  0.19054200  0.19054200  0.23182400  1
  O  O0  1  0.62413600  0.62413600  0.81426900  1
  O  O1  1  0.21362500  0.21362500  0.95850500  1
  O  O2  1  0.37260500  0.37260500  0.63992700  1
  O  O3  1  0.96036900  0.96036900  0.80272000  1
  O  O4  1  0.00043200  0.00043200  0.24373600  1
  O  O5  1  0.59686900  0.59686900  0.34780800  1
  O  O6  1  0.19341000  0.19341000  0.47292100  1
  O  O7  1  0.40572800  0.40572800  0.12312600  1
loop_
_geom_bond_atom_site_label_1
_geom_bond_atom_site_label_2
_geom_bond_distance
_geom_bond_site_symmetry_2
Gd0 O3 2.343686 1_445
Gd0 O7 2.371348 1_456
Gd0 O7 2.371348 1_546
Gd0 O4 2.406359 1_556
Gd0 O0 2.442780 1_545
Gd0 O0 2.442780 1_455
Gd0 O1 2.468340 1_555
Bi0 O3 2.232016 1_555
Bi0 O0 2.247791 1_555
Bi0 O2 2.327723 1_655
Bi0 O2 2.327723 1_565
Bi0 O1 2.338111 1_655
Bi0 O1 2.338111 1_565
Bi1 O0 2.353858 1_555
Bi1 O6 2.419708 1_565
Bi1 O6 2.419708 1_655
Bi1 O3 2.517042 1_455
Bi1 O3 2.517042 1_545
Bi1 O5 2.530231 1_555
Bi1 O2 2.607410 1_555
Bi2 O4 2.231870 1_655
Bi2 O4 2.231870 1_565
Bi2 O7 2.353397 1_555
Bi2 O6 2.499725 1_555
Bi2 O5 2.502470 1_555
Bi2 O2 2.554084 1_555
Bi3 O5 2.229010 1_545
Bi3 O5 2.229010 1_455
Bi3 O6 2.401203 1_555
Bi3 O4 2.505693 1_555
Bi3 O7 2.529429 1_555
Bi3 O1 2.554991 1_554
