# generated using pymatgen
data_GdAsO4
_symmetry_space_group_name_H-M   'P 1'
_cell_length_a   5.98262015
_cell_length_b   5.98260704
_cell_length_c   5.98262523
_cell_angle_alpha   106.48307009
_cell_angle_beta   106.48503898
_cell_angle_gamma   115.62660128
_symmetry_Int_Tables_number   1
_chemical_formula_structural   GdAsO4
_chemical_formula_sum   'Gd2 As2 O8'
_cell_volume   163.39377185
_cell_formula_units_Z   2
loop_
 _symmetry_equiv_pos_site_id
 _symmetry_equiv_pos_as_xyz
  1  'x, y, z'
loop_
 _atom_site_type_symbol
 _atom_site_label
 _atom_site_symmetry_multiplicity
 _atom_site_fract_x
 _atom_site_fract_y
 _atom_site_fract_z
 _atom_site_occupancy
  Gd  Gd0  1  0.87499921  0.12499799  0.74999970  1
  Gd  Gd1  1  0.12500067  0.87500213  0.25000035  1
  As  As0  1  0.62498909  0.37499045  0.25000107  1
  As  As1  1  0.37501038  0.62500924  0.74999885  1
  O  O0  1  0.79723669  0.36666272  0.06942765  1
  O  O1  1  0.63333572  0.20276914  0.43056583  1
  O  O2  1  0.27220640  0.20277038  0.06943537  1
  O  O3  1  0.79723411  0.72780344  0.43056968  1
  O  O4  1  0.20276592  0.27219682  0.56943049  1
  O  O5  1  0.72779353  0.79722960  0.93056457  1
  O  O6  1  0.36666409  0.79723083  0.56943401  1
  O  O7  1  0.20276318  0.63333725  0.93057241  1
loop_
_geom_bond_atom_site_label_1
_geom_bond_atom_site_label_2
_geom_bond_distance
_geom_bond_site_symmetry_2
Gd0 O0 2.340350 1_556
Gd0 O1 2.340356 1_555
Gd0 O3 2.340364 1_545
Gd0 O2 2.340365 1_656
Gd0 O5 2.456799 1_545
Gd0 O6 2.456803 1_545
Gd0 O4 2.456824 1_655
Gd0 O7 2.456825 1_655
Gd1 O7 2.340350 1_554
Gd1 O6 2.340356 1_555
Gd1 O4 2.340364 1_565
Gd1 O5 2.340364 1_454
Gd1 O2 2.456799 1_565
Gd1 O1 2.456803 1_565
Gd1 O3 2.456824 1_455
Gd1 O0 2.456826 1_455
As0 O2 1.696010 1_555
As0 O1 1.696028 1_555
As0 O3 1.696159 1_555
As0 O0 1.696207 1_555
As1 O5 1.696012 1_555
As1 O6 1.696029 1_555
As1 O4 1.696157 1_555
As1 O7 1.696206 1_555
