# generated using pymatgen
data_Li3Mn4(BO3)4
_symmetry_space_group_name_H-M   'P 1'
_cell_length_a   7.85392700
_cell_length_b   8.28848524
_cell_length_c   9.19671102
_cell_angle_alpha   66.85232346
_cell_angle_beta   66.12750719
_cell_angle_gamma   80.25711117
_symmetry_Int_Tables_number   1
_chemical_formula_structural   Li3Mn4(BO3)4
_chemical_formula_sum   'Li6 Mn8 B8 O24'
_cell_volume   503.35156089
_cell_formula_units_Z   2
loop_
 _symmetry_equiv_pos_site_id
 _symmetry_equiv_pos_as_xyz
  1  'x, y, z'
loop_
 _atom_site_type_symbol
 _atom_site_label
 _atom_site_symmetry_multiplicity
 _atom_site_fract_x
 _atom_site_fract_y
 _atom_site_fract_z
 _atom_site_occupancy
  Li  Li0  1  0.11335500  0.19768300  0.15354900  1
  Li  Li1  1  0.38882900  0.29425300  0.84924900  1
  Li  Li2  1  0.11812000  0.53899600  0.36233600  1
  Li  Li3  1  0.36448700  0.95247700  0.65195000  1
  Li  Li4  1  0.63469100  0.04755900  0.35473200  1
  Li  Li5  1  0.86391300  0.79206500  0.86328800  1
  Mn  Mn0  1  0.06238600  0.17168200  0.51078300  1
  Mn  Mn1  1  0.17004700  0.57811100  0.99952600  1
  Mn  Mn2  1  0.67984500  0.07064000  0.01375100  1
  Mn  Mn3  1  0.42578100  0.33354300  0.49605400  1
  Mn  Mn4  1  0.58605200  0.66449100  0.48632000  1
  Mn  Mn5  1  0.33238400  0.90816100  0.00885800  1
  Mn  Mn6  1  0.81683600  0.42705900  0.98892300  1
  Mn  Mn7  1  0.92916900  0.81862400  0.50765500  1
  B  B0  1  0.07892300  0.16379900  0.84240300  1
  B  B1  1  0.17764800  0.57674700  0.66409500  1
  B  B2  1  0.66962200  0.06927700  0.67287800  1
  B  B3  1  0.41183600  0.31707700  0.17096900  1
  B  B4  1  0.57621700  0.69286000  0.81869400  1
  B  B5  1  0.33391900  0.94054200  0.33134200  1
  B  B6  1  0.82966800  0.42452300  0.32338500  1
  B  B7  1  0.92460800  0.82182700  0.16823500  1
  O  O0  1  0.16159200  0.13505100  0.95669200  1
  O  O1  1  0.06543200  0.60813900  0.81255800  1
  O  O2  1  0.17921400  0.14433800  0.68652100  1
  O  O3  1  0.14946200  0.00372700  0.35728800  1
  O  O4  1  0.12093300  0.62140100  0.53039000  1
  O  O5  1  0.35158100  0.49141500  0.65247000  1
  O  O6  1  0.09403900  0.73277500  0.15657900  1
  O  O7  1  0.57518900  0.10214600  0.82384400  1
  O  O8  1  0.31179100  0.34737100  0.32193300  1
  O  O9  1  0.39582600  0.76513100  0.84806800  1
  O  O10  1  0.59311800  0.10737000  0.55257000  1
  O  O11  1  0.34087000  0.35569100  0.04767600  1
  O  O12  1  0.65078400  0.64404200  0.93903100  1
  O  O13  1  0.40756200  0.89555400  0.45300900  1
  O  O14  1  0.58812300  0.23376100  0.15136900  1
  O  O15  1  0.67738700  0.68683000  0.65594700  1
  O  O16  1  0.44315400  0.93784000  0.16746100  1
  O  O17  1  0.89356600  0.22869400  0.87757300  1
  O  O18  1  0.65471400  0.50484900  0.34803100  1
  O  O19  1  0.90646200  0.38832500  0.44185100  1
  O  O20  1  0.84350400  0.98300600  0.65232600  1
  O  O21  1  0.81820200  0.85561600  0.31664300  1
  O  O22  1  0.92726400  0.39016700  0.17300700  1
  O  O23  1  0.86293900  0.87075900  0.03566800  1
loop_
_geom_bond_atom_site_label_1
_geom_bond_atom_site_label_2
_geom_bond_distance
_geom_bond_site_symmetry_2
Li0 O0 1.951380 1_554
Li0 O22 1.984191 1_455
Li0 O3 2.020701 1_555
Li0 O11 2.058504 1_555
Li1 O11 1.959767 1_556
Li1 O7 1.989757 1_555
Li1 O5 1.993185 1_555
Li1 O0 2.060899 1_555
Li2 O4 1.928311 1_555
Li2 O19 1.964291 1_455
Li2 O6 1.998392 1_555
Li2 O8 2.040400 1_555
Li3 O9 1.937257 1_555
Li3 O13 1.951447 1_555
Li3 O2 1.996792 1_565
Li3 O10 2.058463 1_565
Li4 O10 1.958651 1_555
Li4 O21 1.996109 1_545
Li4 O14 2.026532 1_555
Li4 O13 2.036360 1_545
Li5 O23 1.933965 1_556
Li5 O12 1.967691 1_555
Li5 O20 2.011558 1_555
Li5 O1 2.047325 1_655
Mn0 O19 2.028560 1_455
Mn0 O2 2.085035 1_555
Mn0 O20 2.143241 1_445
Mn0 O3 2.199945 1_555
Mn0 O8 2.279752 1_555
Mn1 O11 2.096805 1_556
Mn1 O1 2.105121 1_555
Mn1 O6 2.141200 1_556
Mn1 O9 2.172793 1_555
Mn1 O22 2.279685 1_456
Mn2 O17 1.963414 1_554
Mn2 O16 2.001952 1_545
Mn2 O23 2.004726 1_545
Mn2 O14 2.055838 1_555
Mn2 O7 2.127177 1_554
Mn3 O8 2.088133 1_555
Mn3 O10 2.112971 1_555
Mn3 O18 2.113136 1_555
Mn3 O5 2.159727 1_555
Mn3 O2 2.323854 1_555
Mn4 O15 2.039683 1_555
Mn4 O18 2.045863 1_555
Mn4 O5 2.162664 1_555
Mn4 O13 2.168993 1_555
Mn4 O21 2.236091 1_555
Mn5 O16 2.080052 1_555
Mn5 O9 2.102929 1_554
Mn5 O0 2.126929 1_564
Mn5 O6 2.184705 1_555
Mn5 O7 2.318924 1_564
Mn6 O12 2.046353 1_555
Mn6 O22 2.098459 1_556
Mn6 O17 2.145680 1_555
Mn6 O14 2.223868 1_556
Mn6 O1 2.282575 1_655
Mn7 O4 2.033994 1_655
Mn7 O15 2.083414 1_555
Mn7 O20 2.114152 1_555
Mn7 O3 2.133880 1_665
Mn7 O21 2.159814 1_555
B0 O0 1.373397 1_555
B0 O2 1.387976 1_555
B0 O17 1.415580 1_455
B1 O4 1.370093 1_555
B1 O1 1.391541 1_555
B1 O5 1.411385 1_555
B2 O10 1.372648 1_555
B2 O7 1.395510 1_555
B2 O20 1.406724 1_545
B3 O11 1.365516 1_555
B3 O8 1.390085 1_555
B3 O14 1.413716 1_555
B4 O12 1.350494 1_555
B4 O15 1.398872 1_555
B4 O9 1.403303 1_555
B5 O13 1.359557 1_555
B5 O16 1.407669 1_555
B5 O3 1.411253 1_565
B6 O19 1.361773 1_555
B6 O18 1.392713 1_555
B6 O22 1.399638 1_555
B7 O23 1.381376 1_555
B7 O21 1.392039 1_555
B7 O6 1.393330 1_655
