# generated using pymatgen
data_Sr4Li4Nb5FeO20
_symmetry_space_group_name_H-M   'P 1'
_cell_length_a   13.50346256
_cell_length_b   13.50346256
_cell_length_c   5.67369200
_cell_angle_alpha   89.99992150
_cell_angle_beta   89.99992150
_cell_angle_gamma   155.74482898
_symmetry_Int_Tables_number   1
_chemical_formula_structural   Sr4Li4Nb5FeO20
_chemical_formula_sum   'Sr4 Li4 Nb5 Fe1 O20'
_cell_volume   424.99878111
_cell_formula_units_Z   1
loop_
 _symmetry_equiv_pos_site_id
 _symmetry_equiv_pos_as_xyz
  1  'x, y, z'
loop_
 _atom_site_type_symbol
 _atom_site_label
 _atom_site_symmetry_multiplicity
 _atom_site_fract_x
 _atom_site_fract_y
 _atom_site_fract_z
 _atom_site_occupancy
  Sr  Sr0  1  0.57621300  0.42378700  0.00000000  1
  Sr  Sr1  1  0.42378700  0.57621300  0.00000000  1
  Sr  Sr2  1  0.07620900  0.92379100  0.50000000  1
  Sr  Sr3  1  0.92379100  0.07620900  0.50000000  1
  Li  Li0  1  0.00003300  0.50003400  0.74581800  1
  Li  Li1  1  0.49996600  0.99996700  0.25418200  1
  Li  Li2  1  0.50003400  0.00003300  0.74581800  1
  Li  Li3  1  0.99996700  0.49996600  0.25418200  1
  Nb  Nb0  1  0.00000000  0.00000000  0.00000000  1
  Nb  Nb1  1  0.84099600  0.15900400  0.00000000  1
  Nb  Nb2  1  0.15900400  0.84099600  0.00000000  1
  Nb  Nb3  1  0.34428300  0.65571700  0.50000000  1
  Nb  Nb4  1  0.65571700  0.34428300  0.50000000  1
  Fe  Fe0  1  0.50000000  0.50000000  0.50000000  1
  O  O0  1  0.71764500  0.71764500  0.78624800  1
  O  O1  1  0.92379700  0.07620300  0.00000000  1
  O  O2  1  0.09911000  0.39923500  0.75220700  1
  O  O3  1  0.76957100  0.23042900  0.00000000  1
  O  O4  1  0.90239600  0.60226800  0.75070200  1
  O  O5  1  0.07620300  0.92379700  0.00000000  1
  O  O6  1  0.23042900  0.76957100  0.00000000  1
  O  O7  1  0.21375900  0.21375900  0.71764800  1
  O  O8  1  0.27172700  0.72827300  0.50000000  1
  O  O9  1  0.60076500  0.90089000  0.24779300  1
  O  O10  1  0.60226800  0.90239600  0.75070200  1
  O  O11  1  0.57705200  0.42294800  0.50000000  1
  O  O12  1  0.39923500  0.09911000  0.75220700  1
  O  O13  1  0.42294800  0.57705200  0.50000000  1
  O  O14  1  0.39773200  0.09760400  0.24929800  1
  O  O15  1  0.72827300  0.27172700  0.50000000  1
  O  O16  1  0.78624100  0.78624100  0.28235200  1
  O  O17  1  0.28235500  0.28235500  0.21375200  1
  O  O18  1  0.09760400  0.39773200  0.24929800  1
  O  O19  1  0.90089000  0.60076500  0.24779300  1
loop_
_geom_bond_atom_site_label_1
_geom_bond_atom_site_label_2
_geom_bond_distance
_geom_bond_site_symmetry_2
Li0 O8 2.070214 1_555
Li0 O15 2.070480 1_455
Li0 O6 2.087668 1_556
Li0 O3 2.087920 1_456
Li1 O8 2.070214 1_555
Li1 O15 2.070480 1_565
Li1 O6 2.087668 1_555
Li1 O3 2.087920 1_565
Li2 O15 2.070214 1_555
Li2 O8 2.070480 1_545
Li2 O3 2.087668 1_556
Li2 O6 2.087920 1_546
Li3 O15 2.070214 1_555
Li3 O8 2.070480 1_655
Li3 O3 2.087668 1_555
Li3 O6 2.087920 1_655
Nb0 O7 2.009301 1_554
Nb0 O16 2.009301 1_445
Nb0 O17 2.009320 1_555
Nb0 O0 2.009320 1_444
Nb0 O5 2.012078 1_545
Nb0 O1 2.012078 1_455
Nb1 O3 1.885919 1_555
Nb1 O9 2.007740 1_545
Nb1 O2 2.007740 1_654
Nb1 O18 2.007753 1_655
Nb1 O10 2.007753 1_544
Nb1 O1 2.186293 1_555
Nb2 O6 1.885919 1_555
Nb2 O19 2.007740 1_455
Nb2 O12 2.007740 1_564
Nb2 O4 2.007753 1_454
Nb2 O14 2.007753 1_565
Nb2 O5 2.186293 1_555
Nb3 O8 1.915782 1_555
Nb3 O2 2.023674 1_555
Nb3 O9 2.023674 1_555
Nb3 O18 2.023686 1_555
Nb3 O10 2.023686 1_555
Nb3 O13 2.077086 1_555
Nb4 O15 1.915782 1_555
Nb4 O12 2.023674 1_555
Nb4 O19 2.023674 1_555
Nb4 O14 2.023686 1_555
Nb4 O4 2.023686 1_555
Nb4 O11 2.077086 1_555
Fe0 O11 2.034496 1_555
Fe0 O13 2.034496 1_555
Fe0 O16 2.040233 1_555
Fe0 O7 2.040233 1_555
Fe0 O0 2.040250 1_555
Fe0 O17 2.040250 1_555
O0 Sr0 2.654288 1_556
O0 Sr1 2.654288 1_556
O0 Sr3 3.041916 1_565
O0 Sr2 3.041916 1_655
O1 Sr3 2.836846 1_555
O1 Sr3 2.836846 1_554
O1 Sr1 2.836933 1_545
O1 Sr1 2.836933 1_655
O2 Sr1 2.793604 1_556
O2 Sr3 2.801614 1_455
O4 Sr2 2.792976 1_655
O4 Sr0 2.802281 1_556
O5 Sr2 2.836846 1_555
O5 Sr2 2.836846 1_554
O5 Sr0 2.836933 1_565
O5 Sr0 2.836933 1_455
O7 Sr2 2.654241 1_545
O7 Sr3 2.654241 1_455
O7 Sr1 3.041968 1_556
O7 Sr0 3.041968 1_556
O9 Sr1 2.793604 1_555
O9 Sr3 2.801614 1_565
O10 Sr3 2.792976 1_565
O10 Sr1 2.802281 1_556
O11 Sr0 2.836932 1_555
O11 Sr0 2.836932 1_556
O11 Sr2 2.837020 1_655
O11 Sr2 2.837020 1_545
O12 Sr0 2.793604 1_556
O12 Sr2 2.801614 1_545
O13 Sr1 2.836932 1_555
O13 Sr1 2.836932 1_556
O13 Sr3 2.837020 1_565
O13 Sr3 2.837020 1_455
O14 Sr2 2.792976 1_545
O14 Sr0 2.802281 1_555
O16 Sr2 2.654241 1_655
O16 Sr3 2.654241 1_565
O16 Sr0 3.041968 1_555
O16 Sr1 3.041968 1_555
O17 Sr1 2.654288 1_555
O17 Sr0 2.654288 1_555
O17 Sr2 3.041916 1_545
O17 Sr3 3.041916 1_455
O18 Sr3 2.792976 1_455
O18 Sr1 2.802281 1_555
O19 Sr0 2.793604 1_555
O19 Sr2 2.801614 1_655
