# generated using pymatgen
data_Li4Fe5Co3O16
_symmetry_space_group_name_H-M   'P 1'
_cell_length_a   5.86722940
_cell_length_b   5.86722940
_cell_length_c   9.56054289
_cell_angle_alpha   89.39739883
_cell_angle_beta   89.39739883
_cell_angle_gamma   59.98104123
_symmetry_Int_Tables_number   1
_chemical_formula_structural   Li4Fe5Co3O16
_chemical_formula_sum   'Li4 Fe5 Co3 O16'
_cell_volume   284.94714035
_cell_formula_units_Z   1
loop_
 _symmetry_equiv_pos_site_id
 _symmetry_equiv_pos_as_xyz
  1  'x, y, z'
loop_
 _atom_site_type_symbol
 _atom_site_label
 _atom_site_symmetry_multiplicity
 _atom_site_fract_x
 _atom_site_fract_y
 _atom_site_fract_z
 _atom_site_occupancy
  Li  Li0  1  0.66196100  0.66196100  0.10194900  1
  Li  Li1  1  0.00501900  0.00501900  0.00240700  1
  Li  Li2  1  0.00595200  0.00595200  0.50462500  1
  Li  Li3  1  0.32905700  0.32905700  0.60962100  1
  Fe  Fe0  1  0.66932900  0.66932900  0.51032600  1
  Fe  Fe1  1  0.82917500  0.82917500  0.78559200  1
  Fe  Fe2  1  0.33461000  0.33461000  0.01163900  1
  Fe  Fe3  1  0.16951400  0.65884300  0.28328000  1
  Fe  Fe4  1  0.65884300  0.16951400  0.28328000  1
  Co  Co0  1  0.33853900  0.82892900  0.78774700  1
  Co  Co1  1  0.82892900  0.33853900  0.78774700  1
  Co  Co2  1  0.17021100  0.17021100  0.28576600  1
  O  O0  1  0.33107400  0.83948500  0.39961500  1
  O  O1  1  0.52005200  0.52005200  0.67620600  1
  O  O2  1  0.65691700  0.65691700  0.89284500  1
  O  O3  1  0.00908400  0.00908400  0.69290800  1
  O  O4  1  0.00610200  0.00610200  0.19190200  1
  O  O5  1  0.83948500  0.33107400  0.39961500  1
  O  O6  1  0.50689400  0.95903100  0.66834200  1
  O  O7  1  0.95903100  0.50689400  0.66834200  1
  O  O8  1  0.15906500  0.15906500  0.88805300  1
  O  O9  1  0.83925000  0.83925000  0.40374800  1
  O  O10  1  0.03559800  0.47585800  0.15629800  1
  O  O11  1  0.47585800  0.03559800  0.15629800  1
  O  O12  1  0.32827900  0.32827900  0.39396400  1
  O  O13  1  0.17023900  0.67848700  0.89568500  1
  O  O14  1  0.47971600  0.47971600  0.15693300  1
  O  O15  1  0.67848700  0.17023900  0.89568500  1
loop_
_geom_bond_atom_site_label_1
_geom_bond_atom_site_label_2
_geom_bond_distance
_geom_bond_site_symmetry_2
Li0 O14 1.919214 1_555
Li0 O10 1.971044 1_655
Li0 O11 1.971044 1_565
Li0 O2 2.000427 1_554
Li1 O4 1.811842 1_555
Li1 O8 1.898648 1_554
Li1 O13 1.952757 1_544
Li1 O15 1.952757 1_454
Li2 O3 1.800756 1_555
Li2 O0 1.927907 1_545
Li2 O5 1.927907 1_455
Li2 O9 1.959665 1_445
Li3 O6 1.958917 1_545
Li3 O7 1.958917 1_455
Li3 O1 2.050192 1_555
Li3 O12 2.061909 1_555
Fe0 O9 1.994467 1_555
Fe0 O0 2.023667 1_555
Fe0 O5 2.023667 1_555
Fe0 O6 2.117209 1_555
Fe0 O7 2.117209 1_555
Fe0 O1 2.181374 1_555
Fe1 O6 1.999421 1_555
Fe1 O7 1.999421 1_555
Fe1 O2 2.018126 1_555
Fe1 O3 2.022164 1_665
Fe1 O15 2.036770 1_565
Fe1 O13 2.036770 1_655
Fe2 O14 2.038193 1_555
Fe2 O10 2.048339 1_555
Fe2 O11 2.048339 1_555
Fe2 O15 2.063565 1_554
Fe2 O13 2.063565 1_554
Fe2 O8 2.151821 1_554
Fe3 O4 1.964502 1_565
Fe3 O12 1.979648 1_555
Fe3 O14 1.985633 1_555
Fe3 O9 2.031790 1_455
Fe3 O10 2.033557 1_555
Fe3 O0 2.076320 1_555
Fe4 O4 1.964502 1_655
Fe4 O12 1.979648 1_555
Fe4 O14 1.985633 1_555
Fe4 O9 2.031790 1_545
Fe4 O11 2.033557 1_555
Fe4 O5 2.076320 1_555
Co0 O6 1.890497 1_555
Co0 O1 1.908213 1_555
Co0 O3 1.910023 1_565
Co0 O2 1.910340 1_555
Co0 O13 1.910657 1_555
Co0 O8 1.938396 1_565
Co1 O7 1.890497 1_555
Co1 O1 1.908213 1_555
Co1 O3 1.910023 1_655
Co1 O2 1.910340 1_555
Co1 O15 1.910657 1_555
Co1 O8 1.938396 1_655
Co2 O4 1.903554 1_555
Co2 O12 1.921258 1_555
Co2 O10 1.982053 1_555
Co2 O11 1.982053 1_555
Co2 O5 1.996389 1_455
Co2 O0 1.996389 1_545
