# generated using pymatgen
data_CaTb2O4
_symmetry_space_group_name_H-M   'P 1'
_cell_length_a   3.40273300
_cell_length_b   9.99029000
_cell_length_c   11.86285200
_cell_angle_alpha   90.00000000
_cell_angle_beta   90.00000000
_cell_angle_gamma   90.00000000
_symmetry_Int_Tables_number   1
_chemical_formula_structural   CaTb2O4
_chemical_formula_sum   'Ca4 Tb8 O16'
_cell_volume   403.26922474
_cell_formula_units_Z   4
loop_
 _symmetry_equiv_pos_site_id
 _symmetry_equiv_pos_as_xyz
  1  'x, y, z'
loop_
 _atom_site_type_symbol
 _atom_site_label
 _atom_site_symmetry_multiplicity
 _atom_site_fract_x
 _atom_site_fract_y
 _atom_site_fract_z
 _atom_site_occupancy
  Ca  Ca0  1  0.75000000  0.24974200  0.64879500  1
  Ca  Ca1  1  0.25000000  0.25025800  0.14879500  1
  Ca  Ca2  1  0.75000000  0.74974200  0.85120500  1
  Ca  Ca3  1  0.25000000  0.75025800  0.35120500  1
  Tb  Tb0  1  0.75000000  0.07837700  0.38849700  1
  Tb  Tb1  1  0.75000000  0.07859400  0.88626800  1
  Tb  Tb2  1  0.25000000  0.42140600  0.38626800  1
  Tb  Tb3  1  0.25000000  0.42162300  0.88849700  1
  Tb  Tb4  1  0.75000000  0.57837700  0.11150300  1
  Tb  Tb5  1  0.75000000  0.57859400  0.61373200  1
  Tb  Tb6  1  0.25000000  0.92140600  0.11373200  1
  Tb  Tb7  1  0.25000000  0.92162300  0.61150300  1
  O  O0  1  0.25000000  0.02045500  0.28227900  1
  O  O1  1  0.75000000  0.07821600  0.07940500  1
  O  O2  1  0.25000000  0.13280200  0.52371000  1
  O  O3  1  0.25000000  0.21105100  0.81266000  1
  O  O4  1  0.75000000  0.28894900  0.31266000  1
  O  O5  1  0.75000000  0.36719800  0.02371000  1
  O  O6  1  0.25000000  0.42178400  0.57940500  1
  O  O7  1  0.75000000  0.47954500  0.78227900  1
  O  O8  1  0.25000000  0.52045500  0.21772100  1
  O  O9  1  0.75000000  0.57821600  0.42059500  1
  O  O10  1  0.25000000  0.63280200  0.97629000  1
  O  O11  1  0.25000000  0.71105100  0.68734000  1
  O  O12  1  0.75000000  0.78894900  0.18734000  1
  O  O13  1  0.75000000  0.86719800  0.47629000  1
  O  O14  1  0.25000000  0.92178400  0.92059500  1
  O  O15  1  0.75000000  0.97954500  0.71772100  1
loop_
_geom_bond_atom_site_label_1
_geom_bond_atom_site_label_2
_geom_bond_distance
_geom_bond_site_symmetry_2
Ca0 O2 2.541918 1_655
Ca0 O2 2.541918 1_555
Ca0 O6 2.554671 1_555
Ca0 O6 2.554671 1_655
Ca0 O3 2.612054 1_555
Ca0 O3 2.612054 1_655
Ca0 O7 2.788936 1_555
Ca0 O15 2.820468 1_545
Ca1 O5 2.541918 1_555
Ca1 O5 2.541918 1_455
Ca1 O1 2.554671 1_455
Ca1 O1 2.554671 1_555
Ca1 O4 2.612054 1_555
Ca1 O4 2.612054 1_455
Ca1 O0 2.788936 1_555
Ca1 O8 2.820468 1_555
Ca2 O10 2.541918 1_555
Ca2 O10 2.541918 1_655
Ca2 O14 2.554671 1_555
Ca2 O14 2.554671 1_655
Ca2 O11 2.612054 1_655
Ca2 O11 2.612054 1_555
Ca2 O15 2.788936 1_555
Ca2 O7 2.820468 1_555
Ca3 O13 2.541918 1_455
Ca3 O13 2.541918 1_555
Ca3 O9 2.554671 1_455
Ca3 O9 2.554671 1_555
Ca3 O12 2.612054 1_455
Ca3 O12 2.612054 1_555
Ca3 O8 2.788936 1_555
Ca3 O0 2.820468 1_565
O0 Tb0 2.194815 1_455
O0 Tb0 2.194815 1_555
O0 Tb6 2.230910 1_545
O1 Tb1 2.291159 1_554
O1 Tb6 2.348327 1_545
O1 Tb6 2.348327 1_645
O2 Tb7 2.352801 1_545
O2 Tb0 2.400653 1_455
O2 Tb0 2.400653 1_555
O3 Tb3 2.287970 1_555
O3 Tb1 2.325555 1_455
O3 Tb1 2.325555 1_555
O4 Tb0 2.287970 1_555
O4 Tb2 2.325555 1_655
O4 Tb2 2.325555 1_555
O5 Tb4 2.352801 1_555
O5 Tb3 2.400653 1_554
O5 Tb3 2.400653 1_654
O6 Tb2 2.291159 1_555
O6 Tb5 2.348327 1_455
O6 Tb5 2.348327 1_555
O7 Tb3 2.194815 1_655
O7 Tb3 2.194815 1_555
O7 Tb5 2.230910 1_555
O8 Tb4 2.194815 1_555
O8 Tb4 2.194815 1_455
O8 Tb2 2.230910 1_555
O9 Tb5 2.291159 1_555
O9 Tb2 2.348327 1_655
O9 Tb2 2.348327 1_555
O10 Tb3 2.352801 1_555
O10 Tb4 2.400653 1_556
O10 Tb4 2.400653 1_456
O11 Tb7 2.287970 1_555
O11 Tb5 2.325555 1_455
O11 Tb5 2.325555 1_555
O12 Tb4 2.287970 1_555
O12 Tb6 2.325555 1_655
O12 Tb6 2.325555 1_555
O13 Tb0 2.352801 1_565
O13 Tb7 2.400653 1_555
O13 Tb7 2.400653 1_655
O14 Tb6 2.291159 1_556
O14 Tb1 2.348327 1_565
O14 Tb1 2.348327 1_465
O15 Tb7 2.194815 1_555
O15 Tb7 2.194815 1_655
O15 Tb1 2.230910 1_565
