# generated using pymatgen
data_Hf5Ge4
_symmetry_space_group_name_H-M   'P 1'
_cell_length_a   7.01370133
_cell_length_b   7.09269166
_cell_length_c   13.38472024
_cell_angle_alpha   90.00000000
_cell_angle_beta   90.00000000
_cell_angle_gamma   90.00000000
_symmetry_Int_Tables_number   1
_chemical_formula_structural   Hf5Ge4
_chemical_formula_sum   'Hf20 Ge16'
_cell_volume   665.83657319
_cell_formula_units_Z   4
loop_
 _symmetry_equiv_pos_site_id
 _symmetry_equiv_pos_as_xyz
  1  'x, y, z'
loop_
 _atom_site_type_symbol
 _atom_site_label
 _atom_site_symmetry_multiplicity
 _atom_site_fract_x
 _atom_site_fract_y
 _atom_site_fract_z
 _atom_site_occupancy
  Hf  Hf0  1  0.01583723  0.32293611  0.09530653  1
  Hf  Hf1  1  0.51583723  0.17706389  0.40469347  1
  Hf  Hf2  1  0.48416277  0.82293611  0.90469347  1
  Hf  Hf3  1  0.98416277  0.67706389  0.59530653  1
  Hf  Hf4  1  0.01583723  0.32293611  0.40469347  1
  Hf  Hf5  1  0.51583723  0.17706389  0.09530653  1
  Hf  Hf6  1  0.48416277  0.82293611  0.59530653  1
  Hf  Hf7  1  0.98416277  0.67706389  0.90469347  1
  Hf  Hf8  1  0.85549009  0.83440439  0.12366015  1
  Hf  Hf9  1  0.35549009  0.66559561  0.37633985  1
  Hf  Hf10  1  0.64450991  0.33440439  0.87633985  1
  Hf  Hf11  1  0.14450991  0.16559561  0.62366015  1
  Hf  Hf12  1  0.14450991  0.16559561  0.87633985  1
  Hf  Hf13  1  0.64450991  0.33440439  0.62366015  1
  Hf  Hf14  1  0.35549009  0.66559561  0.12366015  1
  Hf  Hf15  1  0.85549009  0.83440439  0.37633985  1
  Hf  Hf16  1  0.18263610  0.00258212  0.25000000  1
  Hf  Hf17  1  0.68263610  0.49741788  0.25000000  1
  Hf  Hf18  1  0.31736390  0.50258212  0.75000000  1
  Hf  Hf19  1  0.81736390  0.99741788  0.75000000  1
  Ge  Ge0  1  0.69918164  0.53512376  0.04088479  1
  Ge  Ge1  1  0.19918164  0.96487624  0.45911521  1
  Ge  Ge2  1  0.80081836  0.03512376  0.95911521  1
  Ge  Ge3  1  0.30081836  0.46487624  0.54088479  1
  Ge  Ge4  1  0.30081836  0.46487624  0.95911521  1
  Ge  Ge5  1  0.80081836  0.03512376  0.54088479  1
  Ge  Ge6  1  0.19918164  0.96487624  0.04088479  1
  Ge  Ge7  1  0.69918164  0.53512376  0.45911521  1
  Ge  Ge8  1  0.32160936  0.35390415  0.25000000  1
  Ge  Ge9  1  0.82160936  0.14609585  0.25000000  1
  Ge  Ge10  1  0.17839064  0.85390415  0.75000000  1
  Ge  Ge11  1  0.67839064  0.64609585  0.75000000  1
  Ge  Ge12  1  0.05427048  0.61262923  0.25000000  1
  Ge  Ge13  1  0.55427048  0.88737077  0.25000000  1
  Ge  Ge14  1  0.44572952  0.11262923  0.75000000  1
  Ge  Ge15  1  0.94572952  0.38737077  0.75000000  1
loop_
_geom_bond_atom_site_label_1
_geom_bond_atom_site_label_2
_geom_bond_distance
_geom_bond_site_symmetry_2
Ge0 Hf8 2.633486 1_555
Ge0 Hf10 2.650340 1_554
Ge0 Hf0 2.779943 1_655
Ge0 Hf14 2.809734 1_555
Ge0 Hf17 2.814090 1_555
Ge0 Hf7 2.886436 1_554
Ge0 Hf5 2.938333 1_555
Ge0 Hf2 3.124799 1_554
Ge1 Hf9 2.633486 1_555
Ge1 Hf11 2.650340 1_565
Ge1 Hf1 2.779943 1_565
Ge1 Hf15 2.809734 1_455
Ge1 Hf16 2.814090 1_565
Ge1 Hf6 2.886436 1_555
Ge1 Hf4 2.938333 1_565
Ge1 Hf3 3.124799 1_455
Ge2 Hf10 2.633486 1_555
Ge2 Hf8 2.650340 1_546
Ge2 Hf2 2.779943 1_545
Ge2 Hf12 2.809734 1_655
Ge2 Hf19 2.814090 1_545
Ge2 Hf5 2.886436 1_556
Ge2 Hf7 2.938333 1_545
Ge2 Hf0 3.124799 1_656
Ge3 Hf11 2.633486 1_555
Ge3 Hf9 2.650340 1_555
Ge3 Hf3 2.779943 1_455
Ge3 Hf13 2.809734 1_555
Ge3 Hf18 2.814090 1_555
Ge3 Hf4 2.886436 1_555
Ge3 Hf6 2.938333 1_555
Ge3 Hf1 3.124799 1_555
Ge4 Hf12 2.633486 1_555
Ge4 Hf14 2.650340 1_556
Ge4 Hf7 2.779943 1_455
Ge4 Hf10 2.809734 1_555
Ge4 Hf18 2.814090 1_555
Ge4 Hf0 2.886436 1_556
Ge4 Hf2 2.938333 1_555
Ge4 Hf5 3.124799 1_556
Ge5 Hf13 2.633486 1_555
Ge5 Hf15 2.650340 1_545
Ge5 Hf6 2.779943 1_545
Ge5 Hf11 2.809734 1_655
Ge5 Hf19 2.814090 1_545
Ge5 Hf1 2.886436 1_555
Ge5 Hf3 2.938333 1_545
Ge5 Hf4 3.124799 1_655
Ge6 Hf14 2.633486 1_555
Ge6 Hf12 2.650340 1_564
Ge6 Hf5 2.779943 1_565
Ge6 Hf8 2.809734 1_455
Ge6 Hf16 2.814090 1_565
Ge6 Hf2 2.886436 1_554
Ge6 Hf0 2.938333 1_565
Ge6 Hf7 3.124799 1_454
Ge7 Hf15 2.633486 1_555
Ge7 Hf13 2.650340 1_555
Ge7 Hf4 2.779943 1_655
Ge7 Hf9 2.809734 1_555
Ge7 Hf17 2.814090 1_555
Ge7 Hf3 2.886436 1_555
Ge7 Hf1 2.938333 1_555
Ge7 Hf6 3.124799 1_555
Ge8 Hf16 2.675675 1_555
Ge8 Hf17 2.729069 1_555
Ge8 Hf1 2.777775 1_555
Ge8 Hf5 2.777775 1_555
Ge8 Hf14 2.793450 1_555
Ge8 Hf9 2.793450 1_555
Ge8 Hf0 2.989083 1_555
Ge8 Hf4 2.989083 1_555
Ge9 Hf17 2.675675 1_555
Ge9 Hf16 2.729069 1_655
Ge9 Hf0 2.777775 1_655
Ge9 Hf4 2.777775 1_655
Ge9 Hf8 2.793450 1_545
Ge9 Hf15 2.793450 1_545
Ge9 Hf1 2.989083 1_555
Ge9 Hf5 2.989083 1_555
Ge10 Ge14 2.623584 1_565
Ge10 Hf18 2.675675 1_555
Ge10 Hf19 2.729069 1_455
Ge10 Hf7 2.777775 1_455
Ge10 Hf3 2.777775 1_455
Ge10 Hf11 2.793450 1_565
Ge10 Hf12 2.793450 1_565
Ge10 Hf2 2.989083 1_555
Ge10 Hf6 2.989083 1_555
Ge11 Ge15 2.623584 1_555
Ge11 Hf19 2.675675 1_555
Ge11 Hf18 2.729069 1_555
Ge11 Hf2 2.777775 1_555
Ge11 Hf6 2.777775 1_555
Ge11 Hf10 2.793450 1_555
Ge11 Hf13 2.793450 1_555
Ge11 Hf3 2.989083 1_555
Ge11 Hf7 2.989083 1_555
Ge12 Ge8 2.623584 1_555
Ge12 Hf8 2.697701 1_455
Ge12 Hf15 2.697701 1_455
Ge12 Hf17 2.731622 1_455
Ge12 Hf14 2.732040 1_555
Ge12 Hf9 2.732040 1_555
Ge12 Hf16 2.908661 1_565
Ge12 Hf0 2.929430 1_555
Ge12 Hf4 2.929430 1_555
Ge13 Ge9 2.623584 1_565
Ge13 Hf14 2.697701 1_555
Ge13 Hf9 2.697701 1_555
Ge13 Hf16 2.731622 1_565
Ge13 Hf8 2.732040 1_555
Ge13 Hf15 2.732040 1_555
Ge13 Hf17 2.908661 1_555
Ge13 Hf1 2.929430 1_565
Ge13 Hf5 2.929430 1_565
Ge14 Hf13 2.697701 1_555
Ge14 Hf10 2.697701 1_555
Ge14 Hf19 2.731622 1_545
Ge14 Hf12 2.732040 1_555
Ge14 Hf11 2.732040 1_555
Ge14 Hf18 2.908661 1_555
Ge14 Hf6 2.929430 1_545
Ge14 Hf2 2.929430 1_545
Ge15 Hf11 2.697701 1_655
Ge15 Hf12 2.697701 1_655
Ge15 Hf18 2.731622 1_655
Ge15 Hf10 2.732040 1_555
Ge15 Hf13 2.732040 1_555
Ge15 Hf19 2.908661 1_545
Ge15 Hf3 2.929430 1_555
Ge15 Hf7 2.929430 1_555
