# generated using pymatgen
data_La2HfO5
_symmetry_space_group_name_H-M   'P 1'
_cell_length_a   3.97080600
_cell_length_b   11.33048900
_cell_length_c   11.85587000
_cell_angle_alpha   90.00000000
_cell_angle_beta   90.00000000
_cell_angle_gamma   90.00000000
_symmetry_Int_Tables_number   1
_chemical_formula_structural   La2HfO5
_chemical_formula_sum   'La8 Hf4 O20'
_cell_volume   533.40950658
_cell_formula_units_Z   4
loop_
 _symmetry_equiv_pos_site_id
 _symmetry_equiv_pos_as_xyz
  1  'x, y, z'
loop_
 _atom_site_type_symbol
 _atom_site_label
 _atom_site_symmetry_multiplicity
 _atom_site_fract_x
 _atom_site_fract_y
 _atom_site_fract_z
 _atom_site_occupancy
  La  La0  1  0.25000000  0.10184700  0.28232800  1
  La  La1  1  0.25000000  0.13166600  0.93653500  1
  La  La2  1  0.75000000  0.36833400  0.43653500  1
  La  La3  1  0.75000000  0.39815300  0.78232800  1
  La  La4  1  0.25000000  0.60184700  0.21767200  1
  La  La5  1  0.25000000  0.63166600  0.56346500  1
  La  La6  1  0.75000000  0.86833400  0.06346500  1
  La  La7  1  0.75000000  0.89815300  0.71767200  1
  Hf  Hf0  1  0.25000000  0.19055700  0.62403300  1
  Hf  Hf1  1  0.75000000  0.30944300  0.12403300  1
  Hf  Hf2  1  0.25000000  0.69055700  0.87596700  1
  Hf  Hf3  1  0.75000000  0.80944300  0.37596700  1
  O  O0  1  0.75000000  0.00595600  0.89864500  1
  O  O1  1  0.25000000  0.02620600  0.67082700  1
  O  O2  1  0.75000000  0.22295900  0.27320300  1
  O  O3  1  0.25000000  0.23113300  0.45692500  1
  O  O4  1  0.75000000  0.24571800  0.62009700  1
  O  O5  1  0.25000000  0.25428200  0.12009700  1
  O  O6  1  0.75000000  0.26886700  0.95692500  1
  O  O7  1  0.25000000  0.27704100  0.77320300  1
  O  O8  1  0.75000000  0.47379400  0.17082700  1
  O  O9  1  0.25000000  0.49404400  0.39864500  1
  O  O10  1  0.75000000  0.50595600  0.60135500  1
  O  O11  1  0.25000000  0.52620600  0.82917300  1
  O  O12  1  0.75000000  0.72295900  0.22679700  1
  O  O13  1  0.25000000  0.73113300  0.04307500  1
  O  O14  1  0.75000000  0.74571800  0.87990300  1
  O  O15  1  0.25000000  0.75428200  0.37990300  1
  O  O16  1  0.75000000  0.76886700  0.54307500  1
  O  O17  1  0.25000000  0.77704100  0.72679700  1
  O  O18  1  0.75000000  0.97379400  0.32917300  1
  O  O19  1  0.25000000  0.99404400  0.10135500  1
loop_
_geom_bond_atom_site_label_1
_geom_bond_atom_site_label_2
_geom_bond_distance
_geom_bond_site_symmetry_2
La0 O2 2.415910 1_455
La0 O2 2.415910 1_555
La0 O19 2.468913 1_545
La0 O18 2.520992 1_545
La0 O18 2.520992 1_445
La0 O3 2.535893 1_555
La0 O5 2.585057 1_555
La1 O0 2.484434 1_455
La1 O0 2.484434 1_555
La1 O19 2.499988 1_546
La1 O6 2.533161 1_555
La1 O6 2.533161 1_455
La1 O7 2.542239 1_555
La1 O5 2.581933 1_556
La2 O9 2.484434 1_555
La2 O9 2.484434 1_655
La2 O10 2.499988 1_555
La2 O3 2.533161 1_655
La2 O3 2.533161 1_555
La2 O2 2.542239 1_555
La2 O4 2.581933 1_555
La3 O7 2.415910 1_655
La3 O7 2.415910 1_555
La3 O10 2.468913 1_555
La3 O11 2.520992 1_655
La3 O11 2.520992 1_555
La3 O6 2.535893 1_555
La3 O4 2.585057 1_555
La4 O12 2.415910 1_455
La4 O12 2.415910 1_555
La4 O9 2.468913 1_555
La4 O8 2.520992 1_455
La4 O8 2.520992 1_555
La4 O13 2.535893 1_555
La4 O15 2.585057 1_555
La5 O10 2.484434 1_555
La5 O10 2.484434 1_455
La5 O9 2.499988 1_555
La5 O16 2.533161 1_455
La5 O16 2.533161 1_555
La5 O17 2.542239 1_555
La5 O15 2.581933 1_555
La6 O19 2.484434 1_555
La6 O19 2.484434 1_655
La6 O0 2.499988 1_564
La6 O13 2.533161 1_555
La6 O13 2.533161 1_655
La6 O12 2.542239 1_555
La6 O14 2.581933 1_554
La7 O17 2.415910 1_555
La7 O17 2.415910 1_655
La7 O0 2.468913 1_565
La7 O1 2.520992 1_565
La7 O1 2.520992 1_665
La7 O16 2.535893 1_555
La7 O14 2.585057 1_555
Hf0 O1 1.943062 1_555
Hf0 O7 2.021868 1_555
Hf0 O3 2.033854 1_555
Hf0 O4 2.081977 1_455
Hf0 O4 2.081977 1_555
Hf1 O8 1.943062 1_555
Hf1 O2 2.021868 1_555
Hf1 O6 2.033854 1_554
Hf1 O5 2.081977 1_655
Hf1 O5 2.081977 1_555
Hf2 O11 1.943062 1_555
Hf2 O17 2.021868 1_555
Hf2 O13 2.033854 1_556
Hf2 O14 2.081977 1_555
Hf2 O14 2.081977 1_455
Hf3 O18 1.943062 1_555
Hf3 O12 2.021868 1_555
Hf3 O16 2.033854 1_555
Hf3 O15 2.081977 1_555
Hf3 O15 2.081977 1_655
