# generated using pymatgen
data_Sr20Fe9Co(MoO6)10
_symmetry_space_group_name_H-M   'P 1'
_cell_length_a   5.64195397
_cell_length_b   56.31137429
_cell_length_c   11.33611485
_cell_angle_alpha   119.92377545
_cell_angle_beta   119.78062686
_cell_angle_gamma   90.05235885
_symmetry_Int_Tables_number   1
_chemical_formula_structural   Sr20Fe9Co(MoO6)10
_chemical_formula_sum   'Sr40 Fe18 Co2 Mo20 O120'
_cell_volume   2556.86484069
_cell_formula_units_Z   2
loop_
 _symmetry_equiv_pos_site_id
 _symmetry_equiv_pos_as_xyz
  1  'x, y, z'
loop_
 _atom_site_type_symbol
 _atom_site_label
 _atom_site_symmetry_multiplicity
 _atom_site_fract_x
 _atom_site_fract_y
 _atom_site_fract_z
 _atom_site_occupancy
  Sr  Sr0  1  0.25073241  0.07507347  0.75038757  1
  Sr  Sr1  1  0.25076815  0.27500857  0.75071585  1
  Sr  Sr2  1  0.24976694  0.17483535  0.74940507  1
  Sr  Sr3  1  0.24993667  0.37501929  0.74946873  1
  Sr  Sr4  1  0.25156986  0.47510870  0.75049329  1
  Sr  Sr5  1  0.25194289  0.57479981  0.75115468  1
  Sr  Sr6  1  0.24945522  0.67463384  0.74887915  1
  Sr  Sr7  1  0.25705166  0.77544076  0.75631391  1
  Sr  Sr8  1  0.25684086  0.87604015  0.75644895  1
  Sr  Sr9  1  0.25055456  0.97501666  0.75035068  1
  Sr  Sr10  1  0.25035711  0.07480587  0.24883995  1
  Sr  Sr11  1  0.25078735  0.17474540  0.25055949  1
  Sr  Sr12  1  0.25071890  0.27496079  0.24924065  1
  Sr  Sr13  1  0.25071911  0.37497141  0.24875015  1
  Sr  Sr14  1  0.25045386  0.47497087  0.25028561  1
  Sr  Sr15  1  0.25020659  0.57510217  0.24921502  1
  Sr  Sr16  1  0.24456724  0.67356041  0.24543763  1
  Sr  Sr17  1  0.24481861  0.77439620  0.24352155  1
  Sr  Sr18  1  0.24685269  0.87558547  0.24736729  1
  Sr  Sr19  1  0.24874029  0.97477810  0.24805026  1
  Sr  Sr20  1  0.74979341  0.02489783  0.75078498  1
  Sr  Sr21  1  0.74954614  0.12502913  0.74971439  1
  Sr  Sr22  1  0.74928089  0.22502859  0.75124985  1
  Sr  Sr23  1  0.74928110  0.32503921  0.75075935  1
  Sr  Sr24  1  0.74921265  0.42525460  0.74944051  1
  Sr  Sr25  1  0.74964289  0.52519413  0.75116005  1
  Sr  Sr26  1  0.75125971  0.62522190  0.75194974  1
  Sr  Sr27  1  0.75314731  0.72441453  0.75263271  1
  Sr  Sr28  1  0.75518139  0.82560380  0.75647845  1
  Sr  Sr29  1  0.75543276  0.92643959  0.75456237  1
  Sr  Sr30  1  0.74805711  0.02520019  0.24884532  1
  Sr  Sr31  1  0.74843014  0.12489130  0.24950671  1
  Sr  Sr32  1  0.75006333  0.22498071  0.25053127  1
  Sr  Sr33  1  0.74923185  0.32499143  0.24928415  1
  Sr  Sr34  1  0.75023306  0.42516465  0.25059493  1
  Sr  Sr35  1  0.74926759  0.52492653  0.24961243  1
  Sr  Sr36  1  0.74944544  0.62498334  0.24964932  1
  Sr  Sr37  1  0.74315914  0.72395985  0.24355105  1
  Sr  Sr38  1  0.74294834  0.82455924  0.24368609  1
  Sr  Sr39  1  0.75054478  0.92536616  0.25112085  1
  Fe  Fe0  1  0.00053937  0.00020268  0.50264805  1
  Fe  Fe1  1  0.00186942  0.10007805  0.50113020  1
  Fe  Fe2  1  0.99954409  0.20010823  0.49873868  1
  Fe  Fe3  1  0.00000000  0.30000000  0.50000000  1
  Fe  Fe4  1  0.00045591  0.39989177  0.50126132  1
  Fe  Fe5  1  0.99813058  0.49992195  0.49886980  1
  Fe  Fe6  1  -0.00053937  0.59979732  0.49735195  1
  Fe  Fe7  1  0.00000000  0.80000000  0.50000000  1
  Fe  Fe8  1  0.00423914  0.99990960  0.00138514  1
  Fe  Fe9  1  0.99892029  0.09967100  0.99947446  1
  Fe  Fe10  1  0.99854696  0.20012502  0.99989810  1
  Fe  Fe11  1  0.00000000  0.30000000  0.00000000  1
  Fe  Fe12  1  0.00145304  0.39987498  0.00010190  1
  Fe  Fe13  1  0.99576086  0.60009040  -0.00138514  1
  Fe  Fe14  1  0.00000000  0.80000000  0.00000000  1
  Fe  Fe15  1  0.00526200  0.90077499  0.00518697  1
  Fe  Fe16  1  0.00107971  0.50032900  0.00052554  1
  Fe  Fe17  1  0.99473800  0.69922501  0.99481303  1
  Co  Co0  1  -0.00127444  0.69947675  0.49862256  1
  Co  Co1  1  0.00127444  0.90052325  0.50137744  1
  Mo  Mo0  1  0.50004971  0.04989029  0.49980164  1
  Mo  Mo1  1  0.49886683  0.14987111  0.49885529  1
  Mo  Mo2  1  0.49987981  0.25000781  0.49986330  1
  Mo  Mo3  1  0.50012019  0.34999219  0.50013670  1
  Mo  Mo4  1  0.50113317  0.45012889  0.50114471  1
  Mo  Mo5  1  0.49995029  0.55010971  0.50019836  1
  Mo  Mo6  1  0.49861668  0.64990599  0.49864543  1
  Mo  Mo7  1  0.49964480  0.74943150  0.49875851  1
  Mo  Mo8  1  0.50138332  0.95009401  0.50135457  1
  Mo  Mo9  1  0.50035520  0.85056850  0.50124149  1
  Mo  Mo10  1  0.50076932  0.04999473  0.00007129  1
  Mo  Mo11  1  0.50002397  0.14998235  -0.00012211  1
  Mo  Mo12  1  0.49919150  0.24988746  0.99952785  1
  Mo  Mo13  1  0.50080850  0.35011254  0.00047215  1
  Mo  Mo14  1  0.49997603  0.45001765  0.00012211  1
  Mo  Mo15  1  0.49923068  0.55000527  -0.00007129  1
  Mo  Mo16  1  0.49892468  0.64977298  -0.00055888  1
  Mo  Mo17  1  0.49854067  0.74950835  0.99818325  1
  Mo  Mo18  1  0.50107532  0.95022702  0.00055888  1
  Mo  Mo19  1  0.50145933  0.85049165  0.00181675  1
  O  O0  1  0.24774988  0.12487937  0.74918575  1
  O  O1  1  0.25005197  0.02530365  0.75048063  1
  O  O2  1  0.24893279  0.22550727  0.75309336  1
  O  O3  1  0.24973747  0.32544650  0.75322775  1
  O  O4  1  0.24909889  0.42498588  0.74931894  1
  O  O5  1  0.24744354  0.52527604  0.75009452  1
  O  O6  1  0.25578496  0.62607487  0.75778690  1
  O  O7  1  0.26016872  0.72648866  0.76132443  1
  O  O8  1  0.25376864  0.82512460  0.75337133  1
  O  O9  1  0.25894801  0.92569398  0.75958731  1
  O  O10  1  0.21422516  0.07148821  0.49999528  1
  O  O11  1  0.21306552  0.17142954  0.50090526  1
  O  O12  1  0.21360537  0.27134969  0.49945389  1
  O  O13  1  0.21361658  0.37138097  0.49804050  1
  O  O14  1  0.21408693  0.47171079  0.50091795  1
  O  O15  1  0.21461296  0.57174717  0.50139104  1
  O  O16  1  0.21798931  0.67068700  0.50076701  1
  O  O17  1  0.22135002  0.77114669  0.50100759  1
  O  O18  1  0.22428621  0.87026532  0.49953398  1
  O  O19  1  0.21549274  0.97157113  0.49937221  1
  O  O20  1  0.28953249  0.02232431  0.49957574  1
  O  O21  1  0.29138096  0.12234675  0.50002326  1
  O  O22  1  0.29367299  0.22232452  0.50412562  1
  O  O23  1  0.29138039  0.32232718  0.50321621  1
  O  O24  1  0.29042060  0.42259085  0.50016320  1
  O  O25  1  0.29317165  0.52279173  0.50244043  1
  O  O26  1  0.28890370  0.62221159  0.50206720  1
  O  O27  1  0.29547299  0.72266858  0.50066368  1
  O  O28  1  0.29068653  0.82188373  0.49988519  1
  O  O29  1  0.28789656  0.92246790  0.49948330  1
  O  O30  1  0.24896190  0.02512747  0.25026920  1
  O  O31  1  0.24830185  0.12497313  0.24862742  1
  O  O32  1  0.25484426  0.22543695  0.25350240  1
  O  O33  1  0.25316304  0.32527434  0.25279713  1
  O  O34  1  0.24849033  0.42507298  0.24956602  1
  O  O35  1  0.25079300  0.52514018  0.25044252  1
  O  O36  1  0.25094933  0.62483940  0.24940733  1
  O  O37  1  0.25830458  0.72612771  0.25934124  1
  O  O38  1  0.25752300  0.82557687  0.25783071  1
  O  O39  1  0.24896960  0.92478665  0.24985613  1
  O  O40  1  0.74920700  0.07485982  0.74955748  1
  O  O41  1  0.75150967  0.17492702  0.75043398  1
  O  O42  1  0.74683696  0.27472566  0.74720287  1
  O  O43  1  0.74515574  0.37456305  0.74649760  1
  O  O44  1  0.75169815  0.47502687  0.75137258  1
  O  O45  1  0.75103810  0.57487253  0.74973080  1
  O  O46  1  0.75103040  0.67521335  0.75014387  1
  O  O47  1  0.74247700  0.77442313  0.74216929  1
  O  O48  1  0.74169542  0.87387229  0.74065876  1
  O  O49  1  0.74905067  0.97516060  0.75059267  1
  O  O50  1  0.70682835  0.07720827  0.49755957  1
  O  O51  1  0.70957940  0.17740915  0.49983680  1
  O  O52  1  0.70861961  0.27767282  0.49678379  1
  O  O53  1  0.70632701  0.37767548  0.49587438  1
  O  O54  1  0.70861904  0.47765325  0.49997674  1
  O  O55  1  0.71046751  0.57767569  0.50042426  1
  O  O56  1  0.71210344  0.67753210  0.50051670  1
  O  O57  1  0.70452701  0.87733142  0.49933632  1
  O  O58  1  0.70931347  0.77811627  0.50011481  1
  O  O59  1  0.71109630  0.97778841  0.49793280  1
  O  O60  1  0.22138375  0.07061799  0.99800743  1
  O  O61  1  0.22515559  0.17080850  0.00135309  1
  O  O62  1  0.21829614  0.27084684  0.99825203  1
  O  O63  1  0.21777338  0.37082172  0.99766777  1
  O  O64  1  0.22497509  0.47064211  0.00098763  1
  O  O65  1  0.22124510  0.57050593  0.99852889  1
  O  O66  1  0.21666554  0.67174999  0.00384339  1
  O  O67  1  0.21311072  0.77161042  0.00059548  1
  O  O68  1  0.20863767  0.87072324  0.99574077  1
  O  O69  1  0.21621518  0.97126508  0.00102685  1
  O  O70  1  0.78538704  0.02825283  0.49860896  1
  O  O71  1  0.78591307  0.12828921  0.49908205  1
  O  O72  1  0.78638342  0.22861903  0.50195950  1
  O  O73  1  0.78639463  0.32865031  0.50054611  1
  O  O74  1  0.78577484  0.52851179  0.50000472  1
  O  O75  1  0.78693448  0.42857046  0.49909474  1
  O  O76  1  0.78450726  0.62842887  0.50062779  1
  O  O77  1  0.77571379  0.72973468  0.50046602  1
  O  O78  1  0.77864998  0.82885331  0.49899241  1
  O  O79  1  0.78201069  0.92931300  0.49923299  1
  O  O80  1  0.28387192  0.02163888  -0.00032261  1
  O  O81  1  0.28206681  0.12156736  -0.00002543  1
  O  O82  1  0.28615648  0.22151739  0.00178721  1
  O  O83  1  0.28444505  0.32170476  0.00137412  1
  O  O84  1  0.28107905  0.42153292  -0.00049076  1
  O  O85  1  0.28502161  0.52132943  0.00038376  1
  O  O86  1  0.28638749  0.62125720  0.99974619  1
  O  O87  1  0.29080378  0.72177854  0.00432659  1
  O  O88  1  0.28358841  0.82108148  -0.00088438  1
  O  O89  1  0.28548855  0.92105968  0.99875177  1
  O  O90  1  0.75255646  0.07472396  0.24990548  1
  O  O91  1  0.75090111  0.17501412  0.25068106  1
  O  O92  1  0.75026253  0.27455350  0.24677225  1
  O  O93  1  0.75106721  0.37449273  0.24690664  1
  O  O94  1  0.75225012  0.47512063  0.25081425  1
  O  O95  1  0.74994803  0.57469635  0.24951937  1
  O  O96  1  0.74105199  0.67430602  0.24041269  1
  O  O97  1  0.73983128  0.87351134  0.23867557  1
  O  O98  1  0.74623136  0.77487540  0.24662867  1
  O  O99  1  0.74421504  0.97392513  0.24221310  1
  O  O100  1  0.71497839  0.07867057  0.99961624  1
  O  O101  1  0.71555495  0.27829524  0.99862588  1
  O  O102  1  0.71892095  0.17846708  0.00049076  1
  O  O103  1  0.71384352  0.37848261  0.99821279  1
  O  O104  1  0.71793319  0.47843264  0.00002543  1
  O  O105  1  0.71612808  0.57836112  0.00032261  1
  O  O106  1  0.71641159  0.77891852  0.00088438  1
  O  O107  1  0.71451145  0.67894032  0.00124823  1
  O  O108  1  0.70919622  0.87822146  0.99567341  1
  O  O109  1  0.71361251  0.97874280  0.00025381  1
  O  O110  1  0.77875490  0.02949407  0.00147111  1
  O  O111  1  0.77502491  0.12935789  0.99901237  1
  O  O112  1  0.78222662  0.22917828  0.00233223  1
  O  O113  1  0.78170386  0.32915316  0.00174797  1
  O  O114  1  0.77484441  0.42919150  0.99864691  1
  O  O115  1  0.77861625  0.52938201  0.00199257  1
  O  O116  1  0.78378482  0.62873492  0.99897315  1
  O  O117  1  0.79136233  0.72927676  0.00425923  1
  O  O118  1  0.78688928  0.82838958  -0.00059548  1
  O  O119  1  0.78333446  0.92825001  0.99615661  1
loop_
_geom_bond_atom_site_label_1
_geom_bond_atom_site_label_2
_geom_bond_distance
_geom_bond_site_symmetry_2
Fe0 O1 1.994590 1_555
Fe0 O70 1.997750 1_455
Fe0 O19 2.014991 1_545
Fe0 O59 2.026063 1_445
Fe0 O20 2.075439 1_555
Fe0 O99 2.096071 1_445
Fe1 O0 1.996367 1_555
Fe1 O71 2.005241 1_455
Fe1 O10 2.006407 1_555
Fe1 O90 2.021859 1_455
Fe1 O21 2.067117 1_555
Fe1 O50 2.075622 1_455
Fe2 O91 1.996368 1_555
Fe2 O72 2.003477 1_555
Fe2 O11 2.018318 1_655
Fe2 O22 2.035175 1_655
Fe2 O2 2.047212 1_655
Fe2 O51 2.083906 1_555
Fe3 O73 2.014023 1_455
Fe3 O12 2.014023 1_555
Fe3 O92 2.038031 1_455
Fe3 O3 2.038031 1_555
Fe3 O23 2.043429 1_555
Fe3 O52 2.043429 1_455
Fe4 O4 1.996368 1_555
Fe4 O13 2.003477 1_555
Fe4 O75 2.018318 1_455
Fe4 O53 2.035175 1_455
Fe4 O93 2.047212 1_455
Fe4 O24 2.083906 1_555
Fe5 O94 1.996367 1_555
Fe5 O14 2.005241 1_655
Fe5 O74 2.006407 1_555
Fe5 O5 2.021859 1_655
Fe5 O54 2.067117 1_555
Fe5 O25 2.075622 1_655
Fe6 O95 1.994590 1_455
Fe6 O15 1.997750 1_555
Fe6 O76 2.014991 1_455
Fe6 O26 2.026063 1_555
Fe6 O55 2.075439 1_455
Fe6 O6 2.096071 1_555
Fe7 O98 2.039201 1_455
Fe7 O8 2.039201 1_555
Fe7 O17 2.051263 1_555
Fe7 O78 2.051263 1_455
Fe7 O28 2.051421 1_555
Fe7 O58 2.051421 1_455
Fe8 O30 2.003145 1_565
Fe8 O69 2.008472 1_555
Fe8 O80 2.009251 1_565
Fe8 O109 2.017369 1_455
Fe8 O49 2.018690 1_454
Fe8 O110 2.096967 1_465
Fe9 O100 1.991435 1_555
Fe9 O31 2.005212 1_656
Fe9 O40 2.011381 1_555
Fe9 O81 2.013154 1_656
Fe9 O60 2.061434 1_655
Fe9 O111 2.096749 1_555
Fe10 O102 1.997891 1_556
Fe10 O82 2.005208 1_656
Fe10 O41 2.007709 1_555
Fe10 O112 2.039353 1_556
Fe10 O32 2.041075 1_656
Fe10 O61 2.090518 1_656
Fe11 O83 2.005525 1_555
Fe11 O101 2.005525 1_454
Fe11 O33 2.034502 1_555
Fe11 O42 2.034502 1_454
Fe11 O113 2.051289 1_455
Fe11 O62 2.051289 1_554
Fe12 O84 1.997891 1_555
Fe12 O103 2.005208 1_454
Fe12 O34 2.007709 1_555
Fe12 O63 2.039353 1_554
Fe12 O43 2.041075 1_454
Fe12 O114 2.090518 1_454
Fe13 O45 2.003145 1_554
Fe13 O116 2.008472 1_554
Fe13 O105 2.009251 1_555
Fe13 O86 2.017369 1_654
Fe13 O36 2.018690 1_655
Fe13 O65 2.096967 1_654
Fe14 O106 1.998421 1_455
Fe14 O88 1.998421 1_555
Fe14 O67 2.001908 1_555
Fe14 O118 2.001908 1_455
Fe14 O47 2.075082 1_454
Fe14 O38 2.075082 1_555
Fe15 O39 1.969347 1_555
Fe15 O89 2.001031 1_554
Fe15 O119 2.001542 1_454
Fe15 O108 2.023686 1_454
Fe15 O68 2.033867 1_554
Fe15 O48 2.128972 1_454
Fe16 O85 1.991435 1_555
Fe16 O44 2.005212 1_454
Fe16 O35 2.011381 1_555
Fe16 O104 2.013154 1_455
Fe16 O115 2.061434 1_455
Fe16 O64 2.096749 1_555
Fe17 O46 1.969347 1_555
Fe17 O107 2.001031 1_556
Fe17 O66 2.001542 1_656
Fe17 O87 2.023686 1_656
Fe17 O117 2.033867 1_556
Fe17 O37 2.128972 1_656
Co0 O16 2.042625 1_555
Co0 O56 2.049354 1_455
Co0 O96 2.078514 1_455
Co0 O27 2.106304 1_555
Co0 O7 2.114480 1_555
Co0 O77 2.116892 1_455
Co1 O79 2.042625 1_455
Co1 O29 2.049354 1_555
Co1 O9 2.078514 1_555
Co1 O57 2.106304 1_455
Co1 O97 2.114480 1_455
Co1 O18 2.116892 1_555
Mo0 O50 1.947633 1_555
Mo0 O20 1.951901 1_555
Mo0 O30 2.008318 1_555
Mo0 O40 2.010024 1_555
Mo0 O10 2.020919 1_555
Mo0 O70 2.021185 1_555
Mo1 O51 1.945355 1_555
Mo1 O21 1.950741 1_555
Mo1 O31 2.013861 1_555
Mo1 O11 2.021642 1_555
Mo1 O41 2.024735 1_555
Mo1 O71 2.025424 1_555
Mo2 O52 1.976576 1_555
Mo2 O22 1.978295 1_555
Mo2 O32 1.982725 1_555
Mo2 O42 1.990579 1_555
Mo2 O12 2.013626 1_555
Mo2 O72 2.014462 1_555
Mo3 O23 1.976576 1_555
Mo3 O53 1.978295 1_555
Mo3 O43 1.982725 1_555
Mo3 O33 1.990579 1_555
Mo3 O73 2.013626 1_555
Mo3 O13 2.014462 1_555
Mo4 O24 1.945355 1_555
Mo4 O54 1.950741 1_555
Mo4 O44 2.013861 1_555
Mo4 O75 2.021642 1_555
Mo4 O34 2.024735 1_555
Mo4 O14 2.025424 1_555
Mo5 O25 1.947633 1_555
Mo5 O55 1.951901 1_555
Mo5 O45 2.008318 1_555
Mo5 O35 2.010024 1_555
Mo5 O74 2.020919 1_555
Mo5 O15 2.021185 1_555
Mo6 O56 1.951817 1_555
Mo6 O16 1.972281 1_555
Mo6 O26 1.983958 1_555
Mo6 O36 2.005855 1_555
Mo6 O76 2.014833 1_555
Mo6 O46 2.024045 1_555
Mo7 O77 1.910824 1_555
Mo7 O27 1.911188 1_555
Mo7 O37 1.927322 1_555
Mo7 O47 1.959168 1_555
Mo7 O58 1.990571 1_555
Mo7 O17 1.993336 1_555
Mo8 O29 1.951817 1_555
Mo8 O79 1.972281 1_555
Mo8 O59 1.983958 1_555
Mo8 O49 2.005855 1_555
Mo8 O19 2.014833 1_555
Mo8 O39 2.024045 1_555
Mo9 O18 1.910824 1_555
Mo9 O57 1.911188 1_555
Mo9 O48 1.927322 1_555
Mo9 O38 1.959168 1_555
Mo9 O28 1.990571 1_555
Mo9 O78 1.993336 1_555
Mo10 O110 1.946695 1_555
Mo10 O60 1.956451 1_554
Mo10 O80 2.007746 1_555
Mo10 O1 2.008819 1_554
Mo10 O90 2.010794 1_555
Mo10 O100 2.019672 1_554
Mo11 O111 1.939912 1_554
Mo11 O61 1.946819 1_555
Mo11 O0 2.017579 1_554
Mo11 O81 2.017906 1_555
Mo11 O91 2.018463 1_555
Mo11 O102 2.018636 1_555
Mo12 O112 1.975071 1_556
Mo12 O62 1.975467 1_555
Mo12 O2 1.983536 1_555
Mo12 O92 1.989959 1_556
Mo12 O82 2.016280 1_556
Mo12 O101 2.018507 1_555
Mo13 O63 1.975071 1_554
Mo13 O113 1.975467 1_555
Mo13 O93 1.983536 1_555
Mo13 O3 1.989959 1_554
Mo13 O103 2.016280 1_554
Mo13 O83 2.018507 1_555
Mo14 O64 1.939912 1_555
Mo14 O114 1.946819 1_554
Mo14 O94 2.017579 1_555
Mo14 O104 2.017906 1_555
Mo14 O4 2.018463 1_554
Mo14 O84 2.018636 1_555
Mo15 O65 1.946695 1_554
Mo15 O115 1.956451 1_555
Mo15 O105 2.007746 1_555
Mo15 O95 2.008819 1_555
Mo15 O5 2.010794 1_554
Mo15 O85 2.019672 1_555
Mo16 O96 1.939410 1_555
Mo16 O6 1.945119 1_554
Mo16 O116 1.998041 1_554
Mo16 O86 2.005624 1_554
Mo16 O66 2.022622 1_555
Mo16 O107 2.028684 1_555
Mo17 O7 1.906758 1_555
Mo17 O98 1.999588 1_556
Mo17 O117 2.000190 1_556
Mo17 O87 2.000764 1_556
Mo17 O67 2.038763 1_556
Mo17 O106 2.040335 1_556
Mo18 O9 1.939410 1_554
Mo18 O99 1.945119 1_555
Mo18 O69 1.998041 1_555
Mo18 O109 2.005624 1_555
Mo18 O119 2.022622 1_554
Mo18 O89 2.028684 1_554
Mo19 O97 1.906758 1_555
Mo19 O8 1.999588 1_554
Mo19 O68 2.000190 1_554
Mo19 O108 2.000764 1_554
Mo19 O118 2.038763 1_555
Mo19 O88 2.040335 1_555
O0 Sr0 2.811485 1_555
O0 Sr2 2.811858 1_555
O0 Sr21 2.813835 1_455
O0 Sr21 2.828136 1_555
O1 Sr0 2.803133 1_555
O1 Sr20 2.817934 1_555
O1 Sr20 2.824236 1_455
O1 Sr9 2.831000 1_545
O2 Sr1 2.801088 1_555
O2 Sr22 2.808696 1_455
O2 Sr2 2.832823 1_555
O2 Sr22 2.833432 1_555
O3 Sr23 2.809717 1_455
O3 Sr3 2.813019 1_555
O3 Sr1 2.826173 1_555
O3 Sr23 2.832405 1_555
O4 Sr3 2.814542 1_555
O4 Sr4 2.815857 1_555
O4 Sr24 2.820958 1_555
O4 Sr24 2.821071 1_455
O5 Sr5 2.782814 1_555
O5 Sr25 2.814597 1_455
O5 Sr4 2.827348 1_555
O5 Sr25 2.827423 1_555
O6 Sr6 2.785788 1_555
O6 Sr26 2.814031 1_455
O6 Sr26 2.828785 1_555
O6 Sr5 2.850387 1_555
O7 Sr7 2.785223 1_555
O7 Sr27 2.813229 1_455
O7 Sr27 2.832078 1_555
O7 Sr6 2.851359 1_555
O8 Sr28 2.811555 1_555
O8 Sr7 2.814523 1_555
O8 Sr28 2.830651 1_455
O8 Sr8 2.849812 1_555
O9 Sr8 2.778438 1_555
O9 Sr29 2.813728 1_455
O9 Sr29 2.830564 1_555
O9 Sr9 2.830684 1_555
O10 Sr30 2.638654 1_455
O10 Sr0 2.643397 1_555
O10 Sr21 3.033258 1_555
O10 Sr10 3.047908 1_555
O11 Sr2 2.626164 1_555
O11 Sr31 2.641304 1_455
O11 Sr22 3.037263 1_555
O11 Sr11 3.043468 1_555
O12 Sr32 2.631692 1_455
O12 Sr1 2.649639 1_555
O12 Sr23 3.037740 1_555
O12 Sr12 3.048931 1_555
O13 Sr33 2.634257 1_455
O13 Sr3 2.654215 1_555
O13 Sr13 3.037843 1_555
O13 Sr24 3.042917 1_555
O14 Sr4 2.636528 1_555
O14 Sr34 2.638407 1_455
O14 Sr25 3.031923 1_555
O14 Sr14 3.040987 1_555
O15 Sr5 2.648100 1_555
O15 Sr35 2.650747 1_455
O15 Sr26 3.034743 1_555
O15 Sr15 3.058953 1_555
O16 Sr6 2.621457 1_555
O16 Sr36 2.630246 1_455
O16 Sr27 3.036998 1_555
O16 Sr16 3.053658 1_555
O17 Sr7 2.682896 1_555
O17 Sr37 2.699112 1_455
O17 Sr28 3.052908 1_555
O17 Sr17 3.080211 1_555
O18 Sr38 2.669590 1_455
O18 Sr8 2.673064 1_555
O18 Sr18 3.081134 1_555
O18 Sr29 3.097919 1_555
O19 Sr39 2.630528 1_455
O19 Sr9 2.657366 1_555
O19 Sr20 3.022869 1_565
O19 Sr19 3.037895 1_555
O20 Sr19 2.661190 1_545
O20 Sr20 2.667503 1_555
O20 Sr0 3.024647 1_555
O20 Sr30 3.045068 1_455
O21 Sr21 2.649753 1_555
O21 Sr10 2.658424 1_555
O21 Sr2 3.017845 1_555
O21 Sr31 3.038818 1_455
O22 Sr22 2.626620 1_555
O22 Sr11 2.669027 1_555
O22 Sr1 3.012246 1_555
O22 Sr32 3.060179 1_455
O23 Sr23 2.634844 1_555
O23 Sr12 2.671571 1_555
O23 Sr3 3.006202 1_555
O23 Sr33 3.057801 1_455
O24 Sr24 2.649230 1_555
O24 Sr13 2.665218 1_555
O24 Sr4 3.015470 1_555
O24 Sr34 3.026271 1_455
O25 Sr25 2.646935 1_555
O25 Sr14 2.667421 1_555
O25 Sr5 2.999162 1_555
O25 Sr35 3.041943 1_455
O26 Sr26 2.652825 1_555
O26 Sr15 2.663075 1_555
O26 Sr6 2.995226 1_555
O26 Sr36 3.044813 1_455
O27 Sr27 2.688636 1_555
O27 Sr16 2.700240 1_555
O27 Sr7 3.051170 1_555
O27 Sr37 3.066021 1_455
O28 Sr17 2.676145 1_555
O28 Sr28 2.681690 1_555
O28 Sr8 3.082083 1_555
O28 Sr38 3.086989 1_455
O29 Sr18 2.646733 1_555
O29 Sr29 2.673256 1_555
O29 Sr9 3.014735 1_555
O29 Sr39 3.020777 1_455
O30 Sr10 2.805603 1_555
O30 Sr30 2.818118 1_455
O30 Sr19 2.822772 1_545
O30 Sr30 2.823935 1_555
O31 Sr11 2.791851 1_555
O31 Sr31 2.816779 1_555
O31 Sr31 2.825225 1_455
O31 Sr10 2.826219 1_555
O32 Sr32 2.810871 1_555
O32 Sr12 2.813086 1_555
O32 Sr32 2.831313 1_455
O32 Sr11 2.837954 1_555
O33 Sr12 2.813253 1_555
O33 Sr33 2.818736 1_555
O33 Sr13 2.821611 1_555
O33 Sr33 2.823507 1_455
O34 Sr14 2.805754 1_555
O34 Sr13 2.816746 1_555
O34 Sr34 2.816955 1_455
O34 Sr34 2.825024 1_555
O35 Sr35 2.817073 1_555
O35 Sr15 2.820392 1_555
O35 Sr14 2.824214 1_555
O35 Sr35 2.824916 1_455
O36 Sr16 2.766247 1_555
O36 Sr15 2.799683 1_555
O36 Sr36 2.811131 1_555
O36 Sr36 2.830840 1_455
O37 Sr17 2.810510 1_555
O37 Sr37 2.820464 1_455
O37 Sr37 2.827590 1_555
O37 Sr16 2.883613 1_555
O38 Sr17 2.803451 1_555
O38 Sr38 2.820830 1_555
O38 Sr38 2.825899 1_455
O38 Sr18 2.876512 1_555
O39 Sr18 2.756574 1_555
O39 Sr39 2.819374 1_455
O39 Sr39 2.822847 1_555
O39 Sr19 2.825352 1_555
O40 Sr0 2.817073 1_555
O40 Sr20 2.820392 1_555
O40 Sr21 2.824214 1_555
O40 Sr0 2.824916 1_655
O41 Sr21 2.805754 1_555
O41 Sr22 2.816746 1_555
O41 Sr2 2.816955 1_655
O41 Sr2 2.825024 1_555
O42 Sr23 2.813253 1_555
O42 Sr1 2.818736 1_555
O42 Sr22 2.821611 1_555
O42 Sr1 2.823507 1_655
O43 Sr3 2.810871 1_555
O43 Sr23 2.813086 1_555
O43 Sr3 2.831313 1_655
O43 Sr24 2.837954 1_555
O44 Sr24 2.791851 1_555
O44 Sr4 2.816779 1_555
O44 Sr4 2.825225 1_655
O44 Sr25 2.826219 1_555
O45 Sr25 2.805603 1_555
O45 Sr5 2.818118 1_655
O45 Sr26 2.822772 1_555
O45 Sr5 2.823935 1_555
O46 Sr27 2.756574 1_555
O46 Sr6 2.819374 1_655
O46 Sr6 2.822847 1_555
O46 Sr26 2.825352 1_555
O47 Sr28 2.803451 1_555
O47 Sr7 2.820830 1_555
O47 Sr7 2.825899 1_655
O47 Sr27 2.876512 1_555
O48 Sr28 2.810510 1_555
O48 Sr8 2.820464 1_655
O48 Sr8 2.827590 1_555
O48 Sr29 2.883613 1_555
O49 Sr29 2.766247 1_555
O49 Sr20 2.799683 1_565
O49 Sr9 2.811131 1_555
O49 Sr9 2.830840 1_655
O50 Sr10 2.646935 1_555
O50 Sr21 2.667421 1_555
O50 Sr30 2.999162 1_555
O50 Sr0 3.041943 1_655
O51 Sr11 2.649230 1_555
O51 Sr22 2.665218 1_555
O51 Sr31 3.015470 1_555
O51 Sr2 3.026271 1_655
O52 Sr12 2.634844 1_555
O52 Sr23 2.671571 1_555
O52 Sr32 3.006202 1_555
O52 Sr1 3.057801 1_655
O53 Sr13 2.626620 1_555
O53 Sr24 2.669027 1_555
O53 Sr33 3.012246 1_555
O53 Sr3 3.060179 1_655
O54 Sr14 2.649753 1_555
O54 Sr25 2.658424 1_555
O54 Sr34 3.017845 1_555
O54 Sr4 3.038818 1_655
O55 Sr26 2.661190 1_555
O55 Sr15 2.667503 1_555
O55 Sr35 3.024647 1_555
O55 Sr5 3.045068 1_655
O56 Sr27 2.646733 1_555
O56 Sr16 2.673256 1_555
O56 Sr36 3.014735 1_555
O56 Sr6 3.020777 1_655
O57 Sr18 2.688636 1_555
O57 Sr29 2.700240 1_555
O57 Sr38 3.051170 1_555
O57 Sr8 3.066021 1_655
O58 Sr28 2.676145 1_555
O58 Sr17 2.681690 1_555
O58 Sr37 3.082083 1_555
O58 Sr7 3.086989 1_655
O59 Sr19 2.652825 1_555
O59 Sr20 2.663075 1_565
O59 Sr39 2.995226 1_555
O59 Sr9 3.044813 1_655
O60 Sr20 2.635051 1_455
O60 Sr10 2.652701 1_556
O60 Sr0 3.022279 1_555
O60 Sr31 3.029781 1_556
O61 Sr11 2.649555 1_555
O61 Sr21 2.651451 1_454
O61 Sr32 3.021888 1_555
O61 Sr2 3.044359 1_554
O62 Sr22 2.630383 1_455
O62 Sr12 2.647223 1_556
O62 Sr1 3.021486 1_555
O62 Sr33 3.037498 1_556
O63 Sr23 2.627994 1_455
O63 Sr13 2.646009 1_556
O63 Sr3 3.029165 1_555
O63 Sr34 3.046821 1_556
O64 Sr14 2.641184 1_555
O64 Sr24 2.642252 1_454
O64 Sr35 3.023893 1_555
O64 Sr4 3.047137 1_554
O65 Sr25 2.625051 1_455
O65 Sr15 2.640906 1_556
O65 Sr5 3.018481 1_555
O65 Sr36 3.039552 1_556
O66 Sr16 2.613237 1_555
O66 Sr26 2.643542 1_454
O66 Sr37 2.974303 1_555
O66 Sr6 3.068197 1_554
O67 Sr17 2.592259 1_555
O67 Sr27 2.643280 1_454
O67 Sr38 3.003863 1_555
O67 Sr7 3.009029 1_554
O68 Sr28 2.564559 1_455
O68 Sr18 2.620645 1_556
O68 Sr8 3.010814 1_555
O68 Sr39 3.082169 1_556
O69 Sr29 2.583166 1_454
O69 Sr19 2.617480 1_555
O69 Sr30 3.036000 1_565
O69 Sr9 3.050107 1_554
O70 Sr30 2.648100 1_555
O70 Sr0 2.650747 1_655
O70 Sr19 3.034743 1_545
O70 Sr20 3.058953 1_555
O71 Sr31 2.636528 1_555
O71 Sr2 2.638407 1_655
O71 Sr10 3.031923 1_555
O71 Sr21 3.040987 1_555
O72 Sr1 2.634257 1_655
O72 Sr32 2.654215 1_555
O72 Sr22 3.037843 1_555
O72 Sr11 3.042917 1_555
O73 Sr3 2.631692 1_655
O73 Sr33 2.649639 1_555
O73 Sr12 3.037740 1_555
O73 Sr23 3.048931 1_555
O74 Sr5 2.638654 1_655
O74 Sr35 2.643397 1_555
O74 Sr14 3.033258 1_555
O74 Sr25 3.047908 1_555
O75 Sr34 2.626164 1_555
O75 Sr4 2.641304 1_655
O75 Sr13 3.037263 1_555
O75 Sr24 3.043468 1_555
O76 Sr6 2.630528 1_655
O76 Sr36 2.657366 1_555
O76 Sr15 3.022869 1_555
O76 Sr26 3.037895 1_555
O77 Sr7 2.669590 1_655
O77 Sr37 2.673064 1_555
O77 Sr27 3.081134 1_555
O77 Sr16 3.097919 1_555
O78 Sr38 2.682896 1_555
O78 Sr8 2.699112 1_655
O78 Sr17 3.052908 1_555
O78 Sr28 3.080211 1_555
O79 Sr39 2.621457 1_555
O79 Sr9 2.630246 1_655
O79 Sr18 3.036998 1_555
O79 Sr29 3.053658 1_555
O80 Sr30 2.638730 1_555
O80 Sr9 2.642820 1_544
O80 Sr10 3.011961 1_555
O80 Sr20 3.024284 1_454
O81 Sr0 2.646287 1_554
O81 Sr31 2.652783 1_555
O81 Sr11 3.013273 1_555
O81 Sr21 3.032993 1_454
O82 Sr32 2.637950 1_555
O82 Sr2 2.655156 1_554
O82 Sr12 3.016863 1_555
O82 Sr22 3.048942 1_454
O83 Sr33 2.639750 1_555
O83 Sr1 2.651944 1_554
O83 Sr13 3.006046 1_555
O83 Sr23 3.038964 1_454
O84 Sr3 2.650089 1_554
O84 Sr34 2.661569 1_555
O84 Sr14 3.020045 1_555
O84 Sr24 3.037830 1_454
O85 Sr4 2.635638 1_554
O85 Sr35 2.638335 1_555
O85 Sr15 3.032172 1_555
O85 Sr25 3.048056 1_454
O86 Sr5 2.631139 1_555
O86 Sr36 2.636069 1_556
O86 Sr16 2.992889 1_556
O86 Sr26 3.042731 1_455
O87 Sr37 2.583563 1_555
O87 Sr6 2.673144 1_554
O87 Sr17 2.980521 1_555
O87 Sr27 3.031571 1_454
O88 Sr7 2.595362 1_554
O88 Sr38 2.600290 1_555
O88 Sr28 3.012116 1_454
O88 Sr18 3.057091 1_555
O89 Sr8 2.570718 1_555
O89 Sr39 2.641584 1_556
O89 Sr19 3.038783 1_556
O89 Sr29 3.051697 1_455
O90 Sr30 2.782814 1_555
O90 Sr10 2.814597 1_655
O90 Sr31 2.827348 1_555
O90 Sr10 2.827423 1_555
O91 Sr32 2.814542 1_555
O91 Sr31 2.815857 1_555
O91 Sr11 2.820958 1_555
O91 Sr11 2.821071 1_655
O92 Sr12 2.809717 1_655
O92 Sr32 2.813019 1_555
O92 Sr33 2.826173 1_555
O92 Sr12 2.832405 1_555
O93 Sr33 2.801088 1_555
O93 Sr13 2.808696 1_655
O93 Sr34 2.832823 1_555
O93 Sr13 2.833432 1_555
O94 Sr35 2.811485 1_555
O94 Sr34 2.811858 1_555
O94 Sr14 2.813835 1_655
O94 Sr14 2.828136 1_555
O95 Sr35 2.803133 1_555
O95 Sr15 2.817934 1_555
O95 Sr15 2.824236 1_655
O95 Sr36 2.831000 1_555
O96 Sr37 2.778438 1_555
O96 Sr16 2.813728 1_655
O96 Sr16 2.830564 1_555
O96 Sr36 2.830684 1_555
O97 Sr38 2.785223 1_555
O97 Sr18 2.813229 1_655
O97 Sr18 2.832078 1_555
O97 Sr39 2.851359 1_555
O98 Sr17 2.811555 1_555
O98 Sr38 2.814523 1_555
O98 Sr17 2.830651 1_655
O98 Sr37 2.849812 1_555
O99 Sr39 2.785788 1_555
O99 Sr19 2.814031 1_655
O99 Sr19 2.828785 1_555
O99 Sr30 2.850387 1_565
O100 Sr31 2.635638 1_556
O100 Sr0 2.638335 1_555
O100 Sr20 3.032172 1_555
O100 Sr10 3.048056 1_656
O101 Sr1 2.639750 1_555
O101 Sr33 2.651944 1_556
O101 Sr22 3.006046 1_555
O101 Sr12 3.038964 1_656
O102 Sr32 2.650089 1_555
O102 Sr2 2.661569 1_554
O102 Sr21 3.020045 1_554
O102 Sr11 3.037830 1_655
O103 Sr3 2.637950 1_555
O103 Sr34 2.655156 1_556
O103 Sr23 3.016863 1_555
O103 Sr13 3.048942 1_656
O104 Sr35 2.646287 1_555
O104 Sr4 2.652783 1_554
O104 Sr24 3.013273 1_554
O104 Sr14 3.032993 1_655
O105 Sr5 2.638730 1_554
O105 Sr36 2.642820 1_555
O105 Sr25 3.011961 1_554
O105 Sr15 3.024284 1_655
O106 Sr38 2.595362 1_555
O106 Sr7 2.600290 1_554
O106 Sr17 3.012116 1_655
O106 Sr27 3.057091 1_554
O107 Sr37 2.570718 1_555
O107 Sr6 2.641584 1_554
O107 Sr26 3.038783 1_554
O107 Sr16 3.051697 1_655
O108 Sr8 2.583563 1_555
O108 Sr39 2.673144 1_556
O108 Sr28 2.980521 1_555
O108 Sr18 3.031571 1_656
O109 Sr30 2.631139 1_565
O109 Sr9 2.636069 1_554
O109 Sr29 2.992889 1_554
O109 Sr19 3.042731 1_655
O110 Sr10 2.625051 1_655
O110 Sr20 2.640906 1_554
O110 Sr30 3.018481 1_555
O110 Sr9 3.039552 1_544
O111 Sr21 2.641184 1_555
O111 Sr11 2.642252 1_656
O111 Sr0 3.023893 1_555
O111 Sr31 3.047137 1_556
O112 Sr12 2.627994 1_655
O112 Sr22 2.646009 1_554
O112 Sr32 3.029165 1_555
O112 Sr2 3.046821 1_554
O113 Sr13 2.630383 1_655
O113 Sr23 2.647223 1_554
O113 Sr33 3.021486 1_555
O113 Sr1 3.037498 1_554
O114 Sr24 2.649555 1_555
O114 Sr14 2.651451 1_656
O114 Sr3 3.021888 1_555
O114 Sr34 3.044359 1_556
O115 Sr15 2.635051 1_655
O115 Sr25 2.652701 1_554
O115 Sr35 3.022279 1_555
O115 Sr4 3.029781 1_554
O116 Sr16 2.583166 1_656
O116 Sr26 2.617480 1_555
O116 Sr5 3.036000 1_555
O116 Sr36 3.050107 1_556
O117 Sr17 2.564559 1_655
O117 Sr27 2.620645 1_554
O117 Sr37 3.010814 1_555
O117 Sr6 3.082169 1_554
O118 Sr28 2.592259 1_554
O118 Sr18 2.643280 1_655
O118 Sr7 3.003863 1_554
O118 Sr38 3.009029 1_555
O119 Sr29 2.613237 1_555
O119 Sr19 2.643542 1_656
O119 Sr8 2.974303 1_555
O119 Sr39 3.068197 1_556
