# generated using pymatgen
data_Li3V5O10
_symmetry_space_group_name_H-M   'P 1'
_cell_length_a   5.13973816
_cell_length_b   7.87419457
_cell_length_c   10.36900386
_cell_angle_alpha   105.71459752
_cell_angle_beta   103.11988082
_cell_angle_gamma   73.67608653
_symmetry_Int_Tables_number   1
_chemical_formula_structural   Li3V5O10
_chemical_formula_sum   'Li6 V10 O20'
_cell_volume   382.47304590
_cell_formula_units_Z   2
loop_
 _symmetry_equiv_pos_site_id
 _symmetry_equiv_pos_as_xyz
  1  'x, y, z'
loop_
 _atom_site_type_symbol
 _atom_site_label
 _atom_site_symmetry_multiplicity
 _atom_site_fract_x
 _atom_site_fract_y
 _atom_site_fract_z
 _atom_site_occupancy
  Li  Li0  1  0.00230800  0.49830400  0.24927100  1
  Li  Li1  1  0.99758200  0.50179800  0.75079200  1
  Li  Li2  1  0.52079100  0.39370300  0.10023100  1
  Li  Li3  1  0.52153900  0.39265000  0.59913300  1
  Li  Li4  1  0.47844700  0.60735600  0.40091800  1
  Li  Li5  1  0.47915500  0.60634100  0.89982700  1
  V  V0  1  0.49999000  0.99998300  0.00000200  1
  V  V1  1  0.01969700  0.68812300  0.55948900  1
  V  V2  1  0.98035900  0.31184500  0.44050700  1
  V  V3  1  0.96057100  0.90096700  0.34609100  1
  V  V4  1  0.03948900  0.09904200  0.65389100  1
  V  V5  1  0.50001400  0.99998700  0.49999200  1
  V  V6  1  0.02035100  0.68802200  0.05956900  1
  V  V7  1  0.97969800  0.31196300  0.94044800  1
  V  V8  1  0.96056300  0.90108500  0.84602400  1
  V  V9  1  0.03941100  0.09894900  0.15395400  1
  O  O0  1  0.22648700  0.85908200  0.02181500  1
  O  O1  1  0.22549400  0.85885200  0.52188100  1
  O  O2  1  0.77453800  0.14112300  0.47808800  1
  O  O3  1  0.77346700  0.14090600  0.97815500  1
  O  O4  1  0.78907800  0.51888400  0.05360700  1
  O  O5  1  0.78906100  0.51870200  0.55359500  1
  O  O6  1  0.21095000  0.48131900  0.44643200  1
  O  O7  1  0.21088700  0.48114900  0.94640100  1
  O  O8  1  0.78612600  0.93982200  0.16042900  1
  O  O9  1  0.78534700  0.94043500  0.66071700  1
  O  O10  1  0.21467800  0.05954300  0.33925500  1
  O  O11  1  0.21385700  0.06015800  0.83956500  1
  O  O12  1  0.25628200  0.23092700  0.09825600  1
  O  O13  1  0.25763200  0.23018200  0.59796000  1
  O  O14  1  0.74242400  0.76974800  0.40199700  1
  O  O15  1  0.74370900  0.76903800  0.90171500  1
  O  O16  1  0.19204500  0.67023600  0.22867600  1
  O  O17  1  0.19155800  0.67051200  0.72855000  1
  O  O18  1  0.80843600  0.32950700  0.27146000  1
  O  O19  1  0.80797700  0.32975500  0.77130700  1
loop_
_geom_bond_atom_site_label_1
_geom_bond_atom_site_label_2
_geom_bond_distance
_geom_bond_site_symmetry_2
Li0 O16 1.955190 1_555
Li0 O18 1.956196 1_455
Li0 O4 2.100570 1_455
Li0 O6 2.102261 1_555
Li0 O12 2.487120 1_555
Li0 O14 2.526339 1_455
Li1 O19 1.955117 1_555
Li1 O17 1.956255 1_655
Li1 O7 2.100287 1_655
Li1 O5 2.102302 1_555
Li1 O15 2.485831 1_555
Li1 O13 2.527993 1_655
Li2 O7 2.092954 1_554
Li2 O4 2.105132 1_555
Li2 O12 2.108123 1_555
Li2 O18 2.113758 1_555
Li2 O3 2.275840 1_554
Li2 O16 2.598589 1_555
Li3 O6 2.089893 1_555
Li3 O5 2.101079 1_555
Li3 O13 2.106219 1_555
Li3 O19 2.115602 1_555
Li3 O2 2.266169 1_555
Li3 O17 2.611732 1_555
Li4 O5 2.089751 1_555
Li4 O6 2.100762 1_555
Li4 O14 2.106338 1_555
Li4 O16 2.116018 1_555
Li4 O1 2.265544 1_555
Li4 O18 2.611885 1_555
Li5 O4 2.092678 1_556
Li5 O7 2.104851 1_555
Li5 O15 2.108094 1_555
Li5 O17 2.113967 1_555
Li5 O0 2.275163 1_556
Li5 O19 2.599349 1_555
O0 V8 2.059475 1_454
O0 V6 2.089544 1_555
O0 V0 2.101236 1_555
O0 V9 2.131810 1_565
O1 V3 2.057513 1_455
O1 V1 2.085365 1_555
O1 V5 2.107328 1_555
O1 V4 2.130719 1_565
O2 V4 2.057620 1_655
O2 V2 2.085276 1_555
O2 V5 2.107413 1_545
O2 V3 2.130544 1_545
O3 V9 2.059505 1_656
O3 V7 2.089649 1_555
O3 V0 2.101395 1_546
O3 V8 2.131592 1_545
O4 V7 1.892169 1_554
O4 V6 2.000628 1_655
O5 V2 1.892976 1_555
O5 V1 2.000134 1_655
O6 V1 1.892489 1_555
O6 V2 2.000208 1_455
O7 V6 1.891829 1_556
O7 V7 2.000632 1_455
O8 V3 1.996216 1_555
O8 V0 2.019655 1_555
O8 V9 2.066744 1_665
O8 V6 2.140270 1_655
O9 V8 1.994762 1_555
O9 V5 2.018720 1_555
O9 V4 2.068303 1_665
O9 V1 2.144495 1_655
O10 V9 1.994883 1_555
O10 V5 2.018825 1_545
O10 V3 2.068000 1_445
O10 V2 2.144470 1_455
O11 V4 1.996320 1_555
O11 V0 2.019751 1_546
O11 V8 2.066388 1_445
O11 V7 2.140242 1_455
O12 V9 1.981040 1_555
O12 V7 2.026131 1_454
O12 V0 2.051629 1_545
O13 V4 1.982461 1_555
O13 V2 2.026623 1_455
O13 V5 2.043805 1_545
O14 V3 1.982804 1_555
O14 V1 2.026818 1_655
O14 V5 2.044185 1_555
O15 V8 1.981345 1_555
O15 V6 2.026556 1_656
O15 V0 2.051796 1_556
O16 V6 1.798358 1_555
O16 V3 2.107803 1_455
O17 V1 1.797869 1_555
O17 V8 2.106297 1_455
O18 V2 1.797901 1_555
O18 V9 2.106343 1_655
O19 V7 1.798714 1_555
O19 V4 2.107819 1_655
