# generated using pymatgen
data_Li3Sb11S18
_symmetry_space_group_name_H-M   'P 1'
_cell_length_a   6.89637700
_cell_length_b   7.86266640
_cell_length_c   15.44025126
_cell_angle_alpha   75.60147633
_cell_angle_beta   80.57679905
_cell_angle_gamma   73.29688759
_symmetry_Int_Tables_number   1
_chemical_formula_structural   Li3Sb11S18
_chemical_formula_sum   'Li3 Sb11 S18'
_cell_volume   772.86721340
_cell_formula_units_Z   1
loop_
 _symmetry_equiv_pos_site_id
 _symmetry_equiv_pos_as_xyz
  1  'x, y, z'
loop_
 _atom_site_type_symbol
 _atom_site_label
 _atom_site_symmetry_multiplicity
 _atom_site_fract_x
 _atom_site_fract_y
 _atom_site_fract_z
 _atom_site_occupancy
  Li  Li0  1  0.99745400  0.73917600  0.50731000  1
  Li  Li1  1  0.88861800  0.62377900  0.80618800  1
  Li  Li2  1  0.00953900  0.25471100  0.50156000  1
  Sb  Sb0  1  0.29156400  0.20991700  0.92584400  1
  Sb  Sb1  1  0.14325000  0.87216900  0.18626200  1
  Sb  Sb2  1  0.52701600  0.57089300  0.61755000  1
  Sb  Sb3  1  0.47713000  0.93549800  0.38337200  1
  Sb  Sb4  1  0.28956800  0.71385800  0.92399600  1
  Sb  Sb5  1  0.71473500  0.29070000  0.06624800  1
  Sb  Sb6  1  0.14346600  0.36809700  0.18500100  1
  Sb  Sb7  1  0.52278100  0.05411600  0.61649600  1
  Sb  Sb8  1  0.48275800  0.43173200  0.39027700  1
  Sb  Sb9  1  0.88533400  0.12355300  0.80866400  1
  Sb  Sb10  1  0.71630100  0.78264200  0.06794500  1
  S  S0  1  0.99071300  0.00469900  0.00296900  1
  S  S1  1  0.13400500  0.32069600  0.77803300  1
  S  S2  1  0.53930400  0.43042400  0.87363000  1
  S  S3  1  0.20710300  0.77513700  0.35320900  1
  S  S4  1  0.71336500  0.58495000  0.46375300  1
  S  S5  1  0.97264200  0.50812700  0.99890300  1
  S  S6  1  0.13366400  0.83018500  0.77604700  1
  S  S7  1  0.28520400  0.91136500  0.53596800  1
  S  S8  1  0.77458600  0.73119700  0.65247500  1
  S  S9  1  0.43932900  0.08079300  0.12945200  1
  S  S10  1  0.54604600  0.91702100  0.88095500  1
  S  S11  1  0.21056200  0.26492800  0.35037900  1
  S  S12  1  0.71345900  0.09248600  0.46366400  1
  S  S13  1  0.86673400  0.17841700  0.22075000  1
  S  S14  1  0.27313500  0.41331600  0.53546900  1
  S  S15  1  0.79412700  0.22898400  0.64683000  1
  S  S16  1  0.44788000  0.57905600  0.12823700  1
  S  S17  1  0.86862600  0.67737600  0.22256500  1
loop_
_geom_bond_atom_site_label_1
_geom_bond_atom_site_label_2
_geom_bond_distance
_geom_bond_site_symmetry_2
Li0 S8 2.499498 1_555
Li0 S3 2.570140 1_655
Li0 S14 2.699022 1_655
Li0 S4 2.822031 1_555
Li0 S7 2.845441 1_655
Li0 S12 2.894952 1_565
Li1 S8 2.489398 1_555
Li1 S6 2.578685 1_655
Li1 S1 2.586089 1_655
Li1 S5 2.988764 1_555
Li1 S10 3.087027 1_555
Li2 S15 2.476866 1_455
Li2 S11 2.507648 1_555
Li2 S14 2.659579 1_555
Li2 S4 2.800499 1_455
Li2 S7 2.802076 1_545
Li2 S12 2.897948 1_455
S0 Sb5 2.767190 1_555
S0 Sb10 2.835967 1_545
S0 Sb0 2.913095 1_654
S0 Sb4 2.969622 1_644
S0 Sb1 3.013296 1_645
S0 Sb9 3.054730 1_554
S1 Sb0 2.535217 1_555
S1 Sb9 2.542682 1_455
S2 Sb4 2.598935 1_555
S2 Sb0 2.670482 1_555
S2 Sb9 3.103657 1_555
S3 Sb1 2.573140 1_555
S3 Sb3 2.683321 1_555
S3 Sb8 2.805188 1_555
S4 Sb2 2.500926 1_555
S4 Sb8 2.763948 1_555
S4 Sb3 2.858504 1_555
S5 Sb10 2.693372 1_556
S5 Sb5 2.724975 1_556
S5 Sb4 3.000901 1_655
S5 Sb0 3.024277 1_655
S5 Sb6 3.105797 1_656
S6 Sb4 2.531949 1_555
S6 Sb9 2.555733 1_465
S7 Sb3 2.498012 1_555
S7 Sb7 2.812188 1_565
S7 Sb2 2.824667 1_555
S8 Sb2 2.582816 1_555
S8 Sb7 2.617382 1_565
S9 Sb5 2.770841 1_555
S9 Sb6 2.782594 1_555
S9 Sb10 2.825815 1_545
S9 Sb1 2.872736 1_545
S10 Sb4 2.614031 1_555
S10 Sb0 2.633672 1_565
S10 Sb10 3.116175 1_556
S10 Sb9 3.128152 1_565
S11 Sb6 2.556047 1_555
S11 Sb3 2.694710 1_545
S11 Sb8 2.796251 1_555
S12 Sb7 2.499317 1_555
S12 Sb8 2.752792 1_555
S12 Sb3 2.880259 1_545
S13 Sb5 2.609317 1_555
S13 Sb6 2.655718 1_655
S13 Sb1 2.717323 1_645
S14 Sb8 2.456458 1_555
S14 Sb7 2.942583 1_555
S14 Sb2 2.993528 1_555
S15 Sb9 2.551742 1_555
S15 Sb2 2.765213 1_555
S15 Sb7 2.774492 1_555
S16 Sb10 2.693243 1_555
S16 Sb5 2.747238 1_555
S16 Sb1 2.855704 1_555
S16 Sb6 2.933068 1_555
S17 Sb10 2.612822 1_555
S17 Sb1 2.672018 1_655
S17 Sb6 2.744885 1_655
