# generated using pymatgen
data_Li2FeCu(PO4)2
_symmetry_space_group_name_H-M   'P 1'
_cell_length_a   6.04845300
_cell_length_b   4.71349200
_cell_length_c   10.08066001
_cell_angle_alpha   88.72342458
_cell_angle_beta   90.00000000
_cell_angle_gamma   90.00000000
_symmetry_Int_Tables_number   1
_chemical_formula_structural   Li2FeCu(PO4)2
_chemical_formula_sum   'Li4 Fe2 Cu2 P4 O16'
_cell_volume   287.32158087
_cell_formula_units_Z   2
loop_
 _symmetry_equiv_pos_site_id
 _symmetry_equiv_pos_as_xyz
  1  'x, y, z'
loop_
 _atom_site_type_symbol
 _atom_site_label
 _atom_site_symmetry_multiplicity
 _atom_site_fract_x
 _atom_site_fract_y
 _atom_site_fract_z
 _atom_site_occupancy
  Li  Li0  1  0.00000000  0.00000000  0.00000000  1
  Li  Li1  1  0.50000000  0.00000000  0.00000000  1
  Li  Li2  1  0.00000000  0.50000000  0.50000000  1
  Li  Li3  1  0.50000000  0.50000000  0.50000000  1
  Fe  Fe0  1  0.75000000  0.47869800  0.78109200  1
  Fe  Fe1  1  0.25000000  0.52130200  0.21890800  1
  Cu  Cu0  1  0.25000000  0.94854100  0.71540800  1
  Cu  Cu1  1  0.75000000  0.05145900  0.28459200  1
  P  P0  1  0.25000000  0.41933600  0.90307300  1
  P  P1  1  0.75000000  0.92074400  0.59306000  1
  P  P2  1  0.25000000  0.07925600  0.40694000  1
  P  P3  1  0.75000000  0.58066400  0.09692700  1
  O  O0  1  0.75000000  0.70780300  0.95356600  1
  O  O1  1  0.25000000  0.74960200  0.89842100  1
  O  O2  1  0.04146200  0.29397400  0.83496500  1
  O  O3  1  0.45853800  0.29397400  0.83496500  1
  O  O4  1  0.54843000  0.77556800  0.66564500  1
  O  O5  1  0.95157000  0.77556800  0.66564500  1
  O  O6  1  0.75000000  0.24415500  0.59631600  1
  O  O7  1  0.25000000  0.19380100  0.55153700  1
  O  O8  1  0.75000000  0.80619900  0.44846300  1
  O  O9  1  0.25000000  0.75584500  0.40368400  1
  O  O10  1  0.04843000  0.22443200  0.33435500  1
  O  O11  1  0.45157000  0.22443200  0.33435500  1
  O  O12  1  0.54146200  0.70602600  0.16503500  1
  O  O13  1  0.95853800  0.70602600  0.16503500  1
  O  O14  1  0.75000000  0.25039800  0.10157900  1
  O  O15  1  0.25000000  0.29219700  0.04643400  1
loop_
_geom_bond_atom_site_label_1
_geom_bond_atom_site_label_2
_geom_bond_distance
_geom_bond_site_symmetry_2
Li0 O15 2.105038 1_555
Li0 O0 2.105038 1_444
Li0 O2 2.155912 1_554
Li0 O13 2.155912 1_445
Li0 O14 2.186748 1_455
Li0 O1 2.186748 1_544
Li1 O15 2.105038 1_555
Li1 O0 2.105038 1_544
Li1 O3 2.155912 1_554
Li1 O12 2.155912 1_545
Li1 O14 2.186748 1_555
Li1 O1 2.186748 1_544
Li2 O7 2.146160 1_555
Li2 O8 2.146160 1_455
Li2 O9 2.152039 1_555
Li2 O6 2.152039 1_455
Li2 O5 2.158199 1_455
Li2 O10 2.158199 1_555
Li3 O7 2.146160 1_555
Li3 O8 2.146160 1_555
Li3 O9 2.152039 1_555
Li3 O6 2.152039 1_555
Li3 O4 2.158199 1_555
Li3 O11 2.158199 1_555
Fe0 O3 2.034642 1_555
Fe0 O2 2.034642 1_655
Fe0 O0 2.067056 1_555
Fe0 O4 2.173998 1_555
Fe0 O5 2.173998 1_555
Fe0 O6 2.187107 1_555
Fe1 O12 2.034642 1_555
Fe1 O13 2.034642 1_455
Fe1 O15 2.067056 1_555
Fe1 O10 2.173998 1_555
Fe1 O11 2.173998 1_555
Fe1 O9 2.187107 1_555
Cu0 O7 1.995040 1_565
Cu0 O5 2.047624 1_455
Cu0 O4 2.047624 1_555
Cu0 O1 2.050810 1_555
Cu0 O3 2.404570 1_565
Cu0 O2 2.404570 1_565
Cu1 O8 1.995040 1_545
Cu1 O10 2.047624 1_655
Cu1 O11 2.047624 1_555
Cu1 O14 2.050810 1_555
Cu1 O13 2.404570 1_545
Cu1 O12 2.404570 1_545
O0 P3 1.552115 1_556
O1 P0 1.556368 1_555
O2 P0 1.558709 1_555
O3 P0 1.558709 1_555
O4 P1 1.570906 1_555
O5 P1 1.570906 1_555
O6 P1 1.525479 1_545
O7 P2 1.565650 1_555
O8 P1 1.565650 1_555
O9 P2 1.525479 1_565
O10 P2 1.570906 1_555
O11 P2 1.570906 1_555
O12 P3 1.558709 1_555
O13 P3 1.558709 1_555
O14 P3 1.556368 1_555
O15 P0 1.552115 1_554
