# generated using pymatgen
data_K2Li2NiO4
_symmetry_space_group_name_H-M   'P 1'
_cell_length_a   5.57038400
_cell_length_b   8.93794141
_cell_length_c   10.38329613
_cell_angle_alpha   86.78386322
_cell_angle_beta   81.73858281
_cell_angle_gamma   89.33037360
_symmetry_Int_Tables_number   1
_chemical_formula_structural   K2Li2NiO4
_chemical_formula_sum   'K8 Li8 Ni4 O16'
_cell_volume   510.78729240
_cell_formula_units_Z   4
loop_
 _symmetry_equiv_pos_site_id
 _symmetry_equiv_pos_as_xyz
  1  'x, y, z'
loop_
 _atom_site_type_symbol
 _atom_site_label
 _atom_site_symmetry_multiplicity
 _atom_site_fract_x
 _atom_site_fract_y
 _atom_site_fract_z
 _atom_site_occupancy
  K  K0  1  0.37980700  0.78115000  0.87641000  1
  K  K1  1  0.65047000  0.46320000  0.68273000  1
  K  K2  1  0.87237700  0.70249800  0.38254200  1
  K  K3  1  0.79591400  0.03902700  0.85305900  1
  K  K4  1  0.14464300  0.99699000  0.13760900  1
  K  K5  1  0.16119200  0.22163800  0.62585400  1
  K  K6  1  0.35274400  0.49172400  0.37475200  1
  K  K7  1  0.67383300  0.29927000  0.09706500  1
  Li  Li0  1  0.77372200  0.97294900  0.55951000  1
  Li  Li1  1  0.91538000  0.75675800  0.69544700  1
  Li  Li2  1  0.09166900  0.24265900  0.29611700  1
  Li  Li3  1  0.18999500  0.99946000  0.42651300  1
  Li  Li4  1  0.27584400  0.51690800  0.07885700  1
  Li  Li5  1  0.06373600  0.53371300  0.81388300  1
  Li  Li6  1  0.41516100  0.75333300  0.19823500  1
  Li  Li7  1  0.60214900  0.97711500  0.29285600  1
  Ni  Ni0  1  0.19987600  0.29058500  0.93748700  1
  Ni  Ni1  1  0.67603900  0.20841900  0.43070600  1
  Ni  Ni2  1  0.33130200  0.77809000  0.56053900  1
  Ni  Ni3  1  0.82595900  0.71503300  0.06115800  1
  O  O0  1  0.28534600  0.10685300  0.90273300  1
  O  O1  1  0.34142800  0.47109900  0.89725300  1
  O  O2  1  0.64864400  0.17789000  0.60143200  1
  O  O3  1  0.61802900  0.78265800  0.62137500  1
  O  O4  1  0.84422100  0.37837900  0.39851200  1
  O  O5  1  0.88085900  0.05105100  0.36608000  1
  O  O6  1  0.95011000  0.32533500  0.84750300  1
  O  O7  1  0.89213800  0.71851900  0.88474700  1
  O  O8  1  0.17595300  0.30126400  0.11404300  1
  O  O9  1  0.11087700  0.70075800  0.13016600  1
  O  O10  1  0.10022600  0.92604100  0.60937400  1
  O  O11  1  0.16316700  0.60451400  0.62102700  1
  O  O12  1  0.40038700  0.17466600  0.35916900  1
  O  O13  1  0.37497800  0.81230200  0.37725400  1
  O  O14  1  0.60072000  0.58223800  0.13767800  1
  O  O15  1  0.67234700  0.89443800  0.11166900  1
loop_
_geom_bond_atom_site_label_1
_geom_bond_atom_site_label_2
_geom_bond_distance
_geom_bond_site_symmetry_2
K0 O7 2.768173 1_455
K0 O1 2.775868 1_555
K0 O3 2.785694 1_555
K0 O9 2.895021 1_556
K0 O7 2.914397 1_555
K0 O0 2.972929 1_565
K1 O1 2.615891 1_555
K1 O2 2.731340 1_555
K1 O6 2.787020 1_555
K1 O3 2.899681 1_555
K1 O11 3.103183 1_655
K1 O11 3.114956 1_555
K1 O4 3.124944 1_555
K2 O9 2.763303 1_655
K2 O3 2.799354 1_555
K2 O4 2.897188 1_555
K2 O13 2.935492 1_555
K2 O13 2.969582 1_655
K2 O5 3.110981 1_565
K2 O11 3.224725 1_655
K3 O6 2.703731 1_555
K3 O0 2.880180 1_555
K3 O15 2.907676 1_546
K3 O7 2.917361 1_545
K3 O0 2.923047 1_655
K3 O2 3.044342 1_555
K3 O10 3.051160 1_645
K4 O0 2.593487 1_564
K4 O9 2.662793 1_555
K4 O5 2.670309 1_465
K4 O8 2.722238 1_565
K4 O15 2.849893 1_455
K5 O6 2.640912 1_455
K5 O10 2.685764 1_545
K5 O2 2.716332 1_555
K5 O2 2.934964 1_455
K5 O12 2.945571 1_555
K5 O0 3.165413 1_555
K6 O14 2.729022 1_555
K6 O12 2.854614 1_555
K6 O11 2.856359 1_555
K6 O13 2.871162 1_555
K6 O4 2.946777 1_555
K6 O4 2.991553 1_455
K7 O14 2.605099 1_555
K7 O8 2.753496 1_555
K7 O6 2.816383 1_554
K7 O8 2.828043 1_655
K7 O12 3.078200 1_555
Li0 O3 1.951751 1_555
Li0 O10 1.995030 1_655
Li0 O2 2.000675 1_565
Li0 O5 2.094102 1_565
Li1 O3 1.930235 1_555
Li1 O10 1.941255 1_655
Li1 O7 1.962019 1_555
Li1 O11 2.030136 1_655
Li2 O8 1.925735 1_555
Li2 O12 2.002425 1_555
Li2 O4 2.046047 1_455
Li2 O5 2.121764 1_455
Li3 O5 1.957341 1_465
Li3 O10 1.969960 1_555
Li3 O12 1.999819 1_565
Li3 O13 2.006469 1_555
Li4 O1 1.934408 1_554
Li4 O9 1.936684 1_555
Li4 O8 2.011380 1_555
Li4 O14 2.090762 1_555
Li5 O1 1.940496 1_555
Li5 O6 1.970375 1_455
Li5 O7 2.020105 1_455
Li5 O11 2.065049 1_555
Li6 O14 1.920026 1_555
Li6 O13 1.941819 1_555
Li6 O9 1.998366 1_555
Li6 O15 1.998975 1_555
Li7 O5 1.960783 1_565
Li7 O13 2.029605 1_555
Li7 O15 2.043564 1_555
Li7 O12 2.173147 1_565
Ni0 O0 1.747144 1_555
Ni0 O6 1.798902 1_455
Ni0 O1 1.805224 1_555
Ni0 O8 1.826675 1_556
Ni1 O2 1.763281 1_555
Ni1 O4 1.784192 1_555
Ni1 O12 1.834179 1_555
Ni1 O5 1.891757 1_555
Ni2 O3 1.801672 1_555
Ni2 O11 1.853134 1_555
Ni2 O10 1.873638 1_555
Ni2 O13 1.891528 1_555
Ni3 O14 1.804646 1_555
Ni3 O7 1.814361 1_554
Ni3 O9 1.833142 1_655
Ni3 O15 1.873987 1_555
