# generated using pymatgen
data_Li2MnFe(BO3)2
_symmetry_space_group_name_H-M   'P 1'
_cell_length_a   5.23406300
_cell_length_b   5.24810984
_cell_length_c   20.80806795
_cell_angle_alpha   91.75532737
_cell_angle_beta   89.31154418
_cell_angle_gamma   119.81103503
_symmetry_Int_Tables_number   1
_chemical_formula_structural   Li2MnFe(BO3)2
_chemical_formula_sum   'Li8 Mn4 Fe4 B8 O24'
_cell_volume   495.70264888
_cell_formula_units_Z   4
loop_
 _symmetry_equiv_pos_site_id
 _symmetry_equiv_pos_as_xyz
  1  'x, y, z'
loop_
 _atom_site_type_symbol
 _atom_site_label
 _atom_site_symmetry_multiplicity
 _atom_site_fract_x
 _atom_site_fract_y
 _atom_site_fract_z
 _atom_site_occupancy
  Li  Li0  1  0.02066600  0.67405800  0.33379000  1
  Li  Li1  1  0.97765500  0.65426500  0.08312000  1
  Li  Li2  1  0.02391100  0.67681800  0.83393200  1
  Li  Li3  1  0.97422300  0.65160600  0.58349700  1
  Li  Li4  1  0.01668800  0.34885400  0.20724200  1
  Li  Li5  1  0.98773800  0.33682000  0.45825200  1
  Li  Li6  1  0.01458100  0.34866800  0.70858100  1
  Li  Li7  1  0.98810600  0.33940000  0.95865300  1
  Mn  Mn0  1  0.66550700  0.67343600  0.44061300  1
  Mn  Mn1  1  0.32455600  0.32423600  0.06807000  1
  Mn  Mn2  1  0.32165200  0.32242000  0.56747300  1
  Mn  Mn3  1  0.67572500  0.00140800  0.81625200  1
  Fe  Fe0  1  0.65155100  0.66312400  0.94132000  1
  Fe  Fe1  1  0.68415400  0.00726600  0.31521200  1
  Fe  Fe2  1  0.32902200  0.99799000  0.19262400  1
  Fe  Fe3  1  0.32751000  0.99560400  0.69252400  1
  B  B0  1  0.65857800  0.99642900  0.06327000  1
  B  B1  1  0.65491800  0.99552200  0.56364700  1
  B  B2  1  0.66852000  0.67168100  0.18895300  1
  B  B3  1  0.66309600  0.66980700  0.68832400  1
  B  B4  1  0.33799600  0.33655400  0.31192200  1
  B  B5  1  0.34293400  0.33977400  0.81266800  1
  B  B6  1  0.33801300  0.00646300  0.43679100  1
  B  B7  1  0.33848100  0.00410200  0.93808900  1
  O  O0  1  0.68349700  0.93637000  0.20757500  1
  O  O1  1  0.68149300  0.93512100  0.70783400  1
  O  O2  1  0.67981700  0.74585400  0.04809100  1
  O  O3  1  0.39047800  0.96690900  0.08372100  1
  O  O4  1  0.67650600  0.74524500  0.54798300  1
  O  O5  1  0.38666300  0.96436300  0.58433900  1
  O  O6  1  0.39765900  0.42124500  0.17487500  1
  O  O7  1  0.08870800  0.73182300  0.42995400  1
  O  O8  1  0.39168600  0.42080300  0.67406700  1
  O  O9  1  0.08267000  0.73484200  0.93133100  1
  O  O10  1  0.92316500  0.65318700  0.18199500  1
  O  O11  1  0.91894500  0.65267700  0.68190800  1
  O  O12  1  0.08595100  0.35975900  0.30553700  1
  O  O13  1  0.09575300  0.36894600  0.80623900  1
  O  O14  1  0.90459400  0.27216400  0.05644100  1
  O  O15  1  0.60304400  0.58220700  0.33070300  1
  O  O16  1  0.90028400  0.27088400  0.55644600  1
  O  O17  1  0.61159800  0.57651200  0.83309300  1
  O  O18  1  0.61396700  0.03938300  0.42095800  1
  O  O19  1  0.61434000  0.03098300  0.92378600  1
  O  O20  1  0.31679000  0.24928200  0.45854800  1
  O  O21  1  0.32407700  0.25324600  0.95795300  1
  O  O22  1  0.32209000  0.06596100  0.29828900  1
  O  O23  1  0.32043800  0.06712900  0.79731100  1
loop_
_geom_bond_atom_site_label_1
_geom_bond_atom_site_label_2
_geom_bond_distance
_geom_bond_site_symmetry_2
Li0 O12 1.918157 1_555
Li0 O15 1.992058 1_455
Li0 O7 2.023685 1_555
Li0 O22 2.025761 1_565
Li1 O14 1.910528 1_555
Li1 O3 1.958442 1_655
Li1 O2 1.996571 1_555
Li1 O10 2.073467 1_555
Li2 O13 1.904185 1_555
Li2 O17 1.950766 1_455
Li2 O23 2.022772 1_565
Li2 O9 2.044216 1_555
Li3 O16 1.904308 1_555
Li3 O5 1.957213 1_655
Li3 O4 2.006767 1_555
Li3 O11 2.064865 1_555
Li4 O6 1.950447 1_555
Li4 O10 1.975221 1_455
Li4 O0 1.993633 1_445
Li4 O12 2.075594 1_555
Li5 O18 1.947320 1_555
Li5 O7 1.975204 1_655
Li5 O20 1.991099 1_655
Li5 O16 2.089832 1_555
Li6 O8 1.947968 1_555
Li6 O11 1.989757 1_455
Li6 O1 1.996626 1_445
Li6 O13 2.069710 1_555
Li7 O19 1.946071 1_555
Li7 O9 1.979738 1_655
Li7 O21 2.021504 1_655
Li7 O14 2.079701 1_556
Mn0 O7 2.089755 1_655
Mn0 O20 2.102520 1_555
Mn0 O18 2.119994 1_565
Mn0 O4 2.250946 1_555
Mn0 O15 2.315557 1_555
Mn1 O14 2.091980 1_455
Mn1 O3 2.103638 1_545
Mn1 O2 2.115024 1_555
Mn1 O6 2.258787 1_555
Mn1 O21 2.309952 1_554
Mn2 O16 2.098844 1_455
Mn2 O5 2.109284 1_545
Mn2 O4 2.115979 1_555
Mn2 O8 2.254273 1_555
Mn2 O20 2.285490 1_555
Mn3 O13 2.096304 1_655
Mn3 O23 2.096678 1_555
Mn3 O17 2.123390 1_545
Mn3 O19 2.268279 1_555
Mn3 O1 2.274215 1_545
Fe0 O21 2.012523 1_555
Fe0 O19 2.077701 1_565
Fe0 O9 2.103745 1_655
Fe0 O2 2.243051 1_556
Fe0 O17 2.275065 1_555
Fe1 O12 2.007467 1_655
Fe1 O15 2.087953 1_545
Fe1 O22 2.100775 1_555
Fe1 O18 2.241520 1_555
Fe1 O0 2.258904 1_545
Fe2 O10 2.000184 1_455
Fe2 O0 2.064042 1_555
Fe2 O6 2.110265 1_565
Fe2 O22 2.219388 1_565
Fe2 O3 2.297197 1_555
Fe3 O11 2.005282 1_455
Fe3 O1 2.059156 1_555
Fe3 O8 2.131668 1_565
Fe3 O23 2.204136 1_565
Fe3 O5 2.280657 1_555
B0 O14 1.388461 1_565
B0 O3 1.395615 1_555
B0 O2 1.400187 1_555
B1 O16 1.386906 1_565
B1 O5 1.394638 1_555
B1 O4 1.401673 1_555
B2 O10 1.389222 1_555
B2 O0 1.394783 1_555
B2 O6 1.398877 1_555
B3 O11 1.390627 1_555
B3 O1 1.394937 1_555
B3 O8 1.397983 1_555
B4 O12 1.392036 1_555
B4 O15 1.393996 1_555
B4 O22 1.400867 1_555
B5 O13 1.384740 1_555
B5 O17 1.395192 1_555
B5 O23 1.403120 1_555
B6 O7 1.386466 1_545
B6 O20 1.394789 1_555
B6 O18 1.403035 1_555
B7 O9 1.385820 1_545
B7 O21 1.396542 1_555
B7 O19 1.408168 1_555
