# generated using pymatgen
data_DyY7O12
_symmetry_space_group_name_H-M   'P 1'
_cell_length_a   9.18460908
_cell_length_b   9.18460708
_cell_length_c   9.18460511
_cell_angle_alpha   109.48285872
_cell_angle_beta   109.47395980
_cell_angle_gamma   109.45684729
_symmetry_Int_Tables_number   1
_chemical_formula_structural   DyY7O12
_chemical_formula_sum   'Dy2 Y14 O24'
_cell_volume   596.43046427
_cell_formula_units_Z   2
loop_
 _symmetry_equiv_pos_site_id
 _symmetry_equiv_pos_as_xyz
  1  'x, y, z'
loop_
 _atom_site_type_symbol
 _atom_site_label
 _atom_site_symmetry_multiplicity
 _atom_site_fract_x
 _atom_site_fract_y
 _atom_site_fract_z
 _atom_site_occupancy
  Dy  Dy0  1  0.28258459  0.03258426  0.24999966  1
  Dy  Dy1  1  0.21741518  0.46741525  0.74999986  1
  Y  Y0  1  0.78251635  0.53251591  0.24999958  1
  Y  Y1  1  0.00000130  0.50005125  -0.00001006  1
  Y  Y2  1  0.24999992  0.78254068  0.53254098  1
  Y  Y3  1  0.75000021  0.71745894  0.96745871  1
  Y  Y4  1  0.96754046  0.24999993  0.21754091  1
  Y  Y5  1  0.46742726  0.25000036  0.71742789  1
  Y  Y6  1  0.49999927  0.49998915  0.50005028  1
  Y  Y7  1  0.49993849  0.99994903  0.99994993  1
  Y  Y8  1  0.00006162  0.00001109  0.50001006  1
  Y  Y9  1  0.71748375  0.96748427  0.75000010  1
  Y  Y10  1  0.53245932  0.74999987  0.28245879  1
  Y  Y11  1  0.03257222  0.74999981  0.78257259  1
  Y  Y12  1  0.75000044  0.21757325  0.46757353  1
  Y  Y13  1  0.24999999  0.28242715  0.03242645  1
  O  O0  1  0.51092985  0.04255288  0.77184934  1
  O  O1  1  0.72929622  0.45744763  0.96837747  1
  O  O2  1  0.95746132  0.46846511  0.72927214  1
  O  O3  1  0.76083403  0.77183568  0.22927953  1
  O  O4  1  0.54253915  0.27181129  0.51100415  1
  O  O5  1  0.73916651  0.96844612  0.01100236  1
  O  O6  1  0.77070363  0.73908103  0.72815082  1
  O  O7  1  0.98907012  0.76091885  0.53162261  1
  O  O8  1  0.22809201  0.98898553  0.45726960  1
  O  O9  1  0.96843658  0.22928915  0.95751231  1
  O  O10  1  0.72822305  0.27071091  0.23914805  1
  O  O11  1  0.46828403  0.51101471  0.73910657  1
  O  O12  1  0.53156340  0.48907535  0.26085199  1
  O  O13  1  0.77177730  0.01092477  0.54248812  1
  O  O14  1  0.27190806  0.72917759  0.76089344  1
  O  O15  1  0.03171576  0.77082205  0.04273002  1
  O  O16  1  0.01122913  0.23951174  0.46889544  1
  O  O17  1  0.22938349  0.26048801  0.27171710  1
  O  O18  1  0.45744397  0.72816437  0.48899785  1
  O  O19  1  0.26080648  0.03153466  0.98899630  1
  O  O20  1  0.04255577  0.53155341  0.27072028  1
  O  O21  1  0.23919374  0.22818943  0.77072799  1
  O  O22  1  0.48877091  0.95766654  0.22828299  1
  O  O23  1  0.27061613  0.54233298  0.03110429  1
loop_
_geom_bond_atom_site_label_1
_geom_bond_atom_site_label_2
_geom_bond_distance
_geom_bond_site_symmetry_2
Dy0 O15 2.246140 1_545
Dy0 O8 2.246140 1_545
Dy0 O22 2.264486 1_545
Dy0 O17 2.264492 1_555
Dy0 O19 2.334593 1_554
Dy0 O4 2.334604 1_555
Dy1 O11 2.246140 1_555
Dy1 O14 2.246140 1_555
Dy1 O16 2.264488 1_555
Dy1 O23 2.264489 1_556
Dy1 O2 2.334597 1_455
Dy1 O21 2.334599 1_555
O0 Y5 2.247000 1_555
O0 Y9 2.268840 1_545
O0 Y7 2.283401 1_545
O0 Y2 2.334795 1_545
O1 Y5 2.246998 1_555
O1 Y0 2.268834 1_556
O1 Y1 2.283409 1_656
O1 Y3 2.334790 1_555
O2 Y12 2.246016 1_555
O2 Y11 2.268018 1_655
O2 Y1 2.283586 1_656
O3 Y3 2.246830 1_554
O3 Y10 2.268615 1_555
O3 Y8 2.283893 1_665
O3 Y0 2.335103 1_555
O4 Y12 2.246020 1_555
O4 Y5 2.268023 1_555
O4 Y6 2.283586 1_555
O5 Y3 2.246831 1_554
O5 Y4 2.268612 1_565
O5 Y7 2.283897 1_554
O5 Y9 2.335104 1_554
O6 Y11 2.246998 1_655
O6 Y9 2.268844 1_555
O6 Y6 2.283401 1_555
O6 Y3 2.334790 1_555
O7 Y11 2.247000 1_655
O7 Y0 2.268842 1_555
O7 Y8 2.283404 1_665
O7 Y2 2.334791 1_655
O8 Y2 2.269254 1_555
O8 Y8 2.283351 1_565
O8 Y5 2.335556 1_565
O9 Y9 2.246944 1_545
O9 Y13 2.268933 1_656
O9 Y1 2.284240 1_656
O9 Y4 2.334770 1_556
O10 Y0 2.246947 1_555
O10 Y12 2.268929 1_555
O10 Y7 2.284241 1_544
O10 Y4 2.334768 1_555
O11 Y3 2.269252 1_555
O11 Y6 2.283354 1_555
O11 Y5 2.335553 1_555
O12 Y0 2.246948 1_555
O12 Y13 2.268931 1_555
O12 Y6 2.284243 1_555
O12 Y10 2.334769 1_555
O13 Y9 2.246945 1_545
O13 Y12 2.268929 1_555
O13 Y8 2.284243 1_655
O13 Y10 2.334773 1_545
O14 Y2 2.269249 1_555
O14 Y7 2.283354 1_555
O14 Y11 2.335558 1_555
O15 Y3 2.269250 1_454
O15 Y1 2.283352 1_555
O15 Y11 2.335549 1_554
O16 Y4 2.248629 1_455
O16 Y8 2.284625 1_555
O16 Y12 2.335420 1_455
O17 Y4 2.248634 1_455
O17 Y6 2.284629 1_555
O17 Y13 2.335425 1_555
O18 Y2 2.246830 1_555
O18 Y10 2.268617 1_555
O18 Y6 2.283893 1_555
O18 Y9 2.335104 1_555
O19 Y13 2.246022 1_556
O19 Y11 2.268019 1_545
O19 Y7 2.283588 1_545
O20 Y2 2.246831 1_555
O20 Y4 2.268610 1_455
O20 Y1 2.283895 1_555
O20 Y0 2.335099 1_455
O21 Y13 2.246016 1_556
O21 Y5 2.268009 1_555
O21 Y8 2.283589 1_555
O22 Y10 2.248631 1_555
O22 Y7 2.284626 1_554
O22 Y12 2.335423 1_565
O23 Y10 2.248632 1_555
O23 Y1 2.284624 1_555
O23 Y13 2.335412 1_555
