# generated using pymatgen
data_Li5Mn5(PO4)6
_symmetry_space_group_name_H-M   'P 1'
_cell_length_a   8.53115000
_cell_length_b   8.58756613
_cell_length_c   8.70091729
_cell_angle_alpha   61.96627372
_cell_angle_beta   62.45604574
_cell_angle_gamma   61.51699255
_symmetry_Int_Tables_number   1
_chemical_formula_structural   Li5Mn5(PO4)6
_chemical_formula_sum   'Li5 Mn5 P6 O24'
_cell_volume   470.64495973
_cell_formula_units_Z   1
loop_
 _symmetry_equiv_pos_site_id
 _symmetry_equiv_pos_as_xyz
  1  'x, y, z'
loop_
 _atom_site_type_symbol
 _atom_site_label
 _atom_site_symmetry_multiplicity
 _atom_site_fract_x
 _atom_site_fract_y
 _atom_site_fract_z
 _atom_site_occupancy
  Li  Li0  1  0.16721700  0.15363200  0.16045900  1
  Li  Li1  1  0.65323600  0.84968800  0.24497100  1
  Li  Li2  1  0.32593400  0.15535000  0.80858300  1
  Li  Li3  1  0.14904200  0.80330600  0.33663900  1
  Li  Li4  1  0.81636100  0.33928900  0.13247700  1
  Mn  Mn0  1  0.01030100  0.99860900  0.99524500  1
  Mn  Mn1  1  0.63997100  0.64856100  0.64508100  1
  Mn  Mn2  1  0.50349500  0.48798600  0.50954500  1
  Mn  Mn3  1  0.84908300  0.85956500  0.85538800  1
  Mn  Mn4  1  0.34951800  0.34550200  0.35083700  1
  P  P0  1  0.55230800  0.25145000  0.94079300  1
  P  P1  1  0.24113700  0.94428900  0.55782700  1
  P  P2  1  0.95086200  0.54213600  0.24591900  1
  P  P3  1  0.03321600  0.46808700  0.74513100  1
  P  P4  1  0.74075000  0.03967800  0.44505400  1
  P  P5  1  0.45999700  0.74821100  0.05306500  1
  O  O0  1  0.29770200  0.10588500  0.52463800  1
  O  O1  1  0.11071200  0.49800400  0.31524800  1
  O  O2  1  0.52036300  0.30444100  0.10078100  1
  O  O3  1  0.74564900  0.08135600  0.93611000  1
  O  O4  1  0.39907100  0.19446000  0.96164300  1
  O  O5  1  0.58350400  0.40760800  0.75109100  1
  O  O6  1  0.08742500  0.92467200  0.74862800  1
  O  O7  1  0.41138800  0.75255000  0.57469300  1
  O  O8  1  0.98818700  0.61912700  0.82024100  1
  O  O9  1  0.75142100  0.56998100  0.39288500  1
  O  O10  1  0.03644900  0.27590000  0.89918500  1
  O  O11  1  0.78559400  0.99969100  0.61178000  1
  O  O12  1  0.18601100  0.96590000  0.40456500  1
  O  O13  1  0.93324600  0.74521700  0.10626500  1
  O  O14  1  0.23701400  0.43737700  0.60636400  1
  O  O15  1  0.98512500  0.39443200  0.17593100  1
  O  O16  1  0.58109400  0.24103400  0.42308300  1
  O  O17  1  0.90220700  0.05822300  0.26121500  1
  O  O18  1  0.42190100  0.59806100  0.24998300  1
  O  O19  1  0.61107200  0.80776700  0.04334400  1
  O  O20  1  0.26832700  0.91147900  0.05380700  1
  O  O21  1  0.52414900  0.67873100  0.89686000  1
  O  O22  1  0.89218500  0.52459700  0.65103600  1
  O  O23  1  0.67478200  0.89117100  0.46360900  1
loop_
_geom_bond_atom_site_label_1
_geom_bond_atom_site_label_2
_geom_bond_distance
_geom_bond_site_symmetry_2
Li0 O15 1.926606 1_455
Li0 O4 1.988621 1_554
Li0 O12 1.996420 1_545
Li0 O20 2.300488 1_545
Li0 O17 2.410351 1_455
Li0 O10 2.549441 1_554
Li1 O13 2.067639 1_555
Li1 O9 2.073584 1_555
Li1 O19 2.153485 1_555
Li1 O23 2.191462 1_555
Li1 O3 2.512461 1_564
Li2 O4 1.914293 1_555
Li2 O10 2.078531 1_555
Li2 O20 2.234189 1_546
Li2 O14 2.239077 1_555
Li3 O12 1.940750 1_555
Li3 O20 2.095527 1_555
Li3 O18 2.192346 1_555
Li3 O17 2.277744 1_465
Li4 O15 1.939616 1_555
Li4 O17 2.036712 1_555
Li4 O10 2.116823 1_654
Li4 O16 2.459684 1_555
Mn0 O20 2.184731 1_556
Mn0 O10 2.209548 1_565
Mn0 O13 2.213944 1_456
Mn0 O6 2.239856 1_555
Mn0 O3 2.251170 1_465
Mn0 O17 2.271024 1_466
Mn1 O22 1.905830 1_555
Mn1 O7 1.976067 1_555
Mn1 O23 1.996559 1_555
Mn1 O5 2.027358 1_555
Mn1 O21 2.032248 1_555
Mn1 O9 2.241613 1_555
Mn2 O9 2.182390 1_555
Mn2 O5 2.207515 1_555
Mn2 O14 2.212206 1_555
Mn2 O7 2.279564 1_555
Mn2 O16 2.280710 1_555
Mn2 O18 2.301786 1_555
Mn3 O8 1.919876 1_555
Mn3 O3 1.995208 1_565
Mn3 O19 2.025305 1_556
Mn3 O6 2.039411 1_655
Mn3 O11 2.068031 1_555
Mn3 O13 2.237605 1_556
Mn4 O1 1.902368 1_555
Mn4 O16 2.007736 1_555
Mn4 O0 2.010182 1_555
Mn4 O2 2.068942 1_555
Mn4 O18 2.200591 1_555
Mn4 O14 2.332355 1_555
O0 P1 1.541159 1_545
O1 P2 1.555690 1_455
O2 P0 1.531481 1_554
O3 P0 1.597399 1_555
O4 P0 1.512900 1_555
O5 P0 1.564320 1_555
O6 P1 1.561557 1_555
O7 P1 1.590993 1_555
O8 P3 1.531798 1_655
O9 P2 1.573039 1_555
O10 P3 1.559696 1_555
O11 P4 1.512762 1_565
O12 P1 1.515925 1_555
O13 P2 1.570827 1_555
O14 P3 1.571845 1_555
O15 P2 1.507633 1_555
O16 P4 1.601695 1_555
O17 P4 1.553485 1_555
O18 P5 1.584898 1_555
O19 P5 1.554693 1_555
O20 P5 1.565781 1_555
O21 P5 1.505200 1_556
O22 P3 1.527757 1_655
O23 P4 1.541496 1_565
