# generated using pymatgen
data_SrCrO3
_symmetry_space_group_name_H-M   'P 1'
_cell_length_a   5.51227099
_cell_length_b   5.51227099
_cell_length_c   9.15729700
_cell_angle_alpha   90.00000000
_cell_angle_beta   90.00000000
_cell_angle_gamma   120.00001193
_symmetry_Int_Tables_number   1
_chemical_formula_structural   SrCrO3
_chemical_formula_sum   'Sr4 Cr4 O12'
_cell_volume   240.96779288
_cell_formula_units_Z   4
loop_
 _symmetry_equiv_pos_site_id
 _symmetry_equiv_pos_as_xyz
  1  'x, y, z'
loop_
 _atom_site_type_symbol
 _atom_site_label
 _atom_site_symmetry_multiplicity
 _atom_site_fract_x
 _atom_site_fract_y
 _atom_site_fract_z
 _atom_site_occupancy
  Sr  Sr0  1  0.66666700  0.33333300  0.25000000  1
  Sr  Sr1  1  0.00000000  0.00000000  0.00000000  1
  Sr  Sr2  1  0.00000000  0.00000000  0.50000000  1
  Sr  Sr3  1  0.33333300  0.66666700  0.75000000  1
  Cr  Cr0  1  0.66666700  0.33333300  0.61479800  1
  Cr  Cr1  1  0.66666700  0.33333300  0.88520200  1
  Cr  Cr2  1  0.33333300  0.66666700  0.11479800  1
  Cr  Cr3  1  0.33333300  0.66666700  0.38520200  1
  O  O0  1  0.50000000  0.00000000  0.00000000  1
  O  O1  1  0.50000000  0.00000000  0.50000000  1
  O  O2  1  0.36142400  0.18071200  0.75000000  1
  O  O3  1  0.81928800  0.18071200  0.75000000  1
  O  O4  1  0.81928800  0.63857600  0.75000000  1
  O  O5  1  0.00000000  0.50000000  0.00000000  1
  O  O6  1  0.00000000  0.50000000  0.50000000  1
  O  O7  1  0.18071200  0.36142400  0.25000000  1
  O  O8  1  0.50000000  0.50000000  0.00000000  1
  O  O9  1  0.50000000  0.50000000  0.50000000  1
  O  O10  1  0.18071200  0.81928800  0.25000000  1
  O  O11  1  0.63857600  0.81928800  0.25000000  1
loop_
_geom_bond_atom_site_label_1
_geom_bond_atom_site_label_2
_geom_bond_distance
_geom_bond_site_symmetry_2
Cr0 O6 1.907143 1_655
Cr0 O1 1.907143 1_555
Cr0 O9 1.907147 1_555
Cr0 O3 1.912107 1_555
Cr0 O4 1.912110 1_555
Cr0 O2 1.912110 1_555
Cr1 O5 1.907143 1_656
Cr1 O0 1.907143 1_556
Cr1 O8 1.907147 1_556
Cr1 O3 1.912107 1_555
Cr1 O4 1.912110 1_555
Cr1 O2 1.912110 1_555
Cr2 O0 1.907143 1_565
Cr2 O5 1.907143 1_555
Cr2 O8 1.907147 1_555
Cr2 O10 1.912107 1_555
Cr2 O11 1.912110 1_555
Cr2 O7 1.912110 1_555
Cr3 O6 1.907143 1_555
Cr3 O1 1.907143 1_565
Cr3 O9 1.907147 1_555
Cr3 O10 1.912107 1_555
Cr3 O11 1.912110 1_555
Cr3 O7 1.912110 1_555
O0 Sr1 2.756135 1_655
O0 Sr1 2.756135 1_555
O0 Sr0 2.788027 1_555
O0 Sr3 2.788027 1_544
O1 Sr2 2.756135 1_655
O1 Sr2 2.756135 1_555
O1 Sr0 2.788027 1_555
O1 Sr3 2.788027 1_545
O2 Sr3 2.759393 1_545
O2 Sr3 2.759399 1_555
O2 Sr1 2.866679 1_556
O2 Sr2 2.866679 1_555
O3 Sr3 2.759395 1_545
O3 Sr3 2.759395 1_655
O3 Sr1 2.866680 1_656
O3 Sr2 2.866680 1_655
O4 Sr3 2.759393 1_655
O4 Sr3 2.759399 1_555
O4 Sr1 2.866679 1_666
O4 Sr2 2.866679 1_665
O5 Sr1 2.756135 1_565
O5 Sr1 2.756135 1_555
O5 Sr3 2.788027 1_554
O5 Sr0 2.788027 1_455
O6 Sr2 2.756135 1_565
O6 Sr2 2.756135 1_555
O6 Sr0 2.788027 1_455
O6 Sr3 2.788027 1_555
O7 Sr0 2.759393 1_455
O7 Sr0 2.759399 1_555
O7 Sr1 2.866679 1_555
O7 Sr2 2.866679 1_555
O8 Sr1 2.756135 1_555
O8 Sr1 2.756135 1_665
O8 Sr3 2.788030 1_554
O8 Sr0 2.788030 1_555
O9 Sr2 2.756135 1_555
O9 Sr2 2.756135 1_665
O9 Sr3 2.788030 1_555
O9 Sr0 2.788030 1_555
O10 Sr0 2.759395 1_455
O10 Sr0 2.759395 1_565
O10 Sr1 2.866680 1_565
O10 Sr2 2.866680 1_565
O11 Sr0 2.759393 1_565
O11 Sr0 2.759399 1_555
O11 Sr1 2.866679 1_665
O11 Sr2 2.866679 1_665
