# generated using pymatgen
data_Li3Nb6O11
_symmetry_space_group_name_H-M   'P 1'
_cell_length_a   6.05805120
_cell_length_b   6.05805120
_cell_length_c   7.56240600
_cell_angle_alpha   90.00000000
_cell_angle_beta   90.00000000
_cell_angle_gamma   119.99999121
_symmetry_Int_Tables_number   1
_chemical_formula_structural   Li3Nb6O11
_chemical_formula_sum   'Li3 Nb6 O11'
_cell_volume   240.35686890
_cell_formula_units_Z   1
loop_
 _symmetry_equiv_pos_site_id
 _symmetry_equiv_pos_as_xyz
  1  'x, y, z'
loop_
 _atom_site_type_symbol
 _atom_site_label
 _atom_site_symmetry_multiplicity
 _atom_site_fract_x
 _atom_site_fract_y
 _atom_site_fract_z
 _atom_site_occupancy
  Li  Li0  1  0.00000000  0.00000000  0.50000000  1
  Li  Li1  1  0.33333300  0.66666700  0.57836700  1
  Li  Li2  1  0.66666700  0.33333300  0.42163300  1
  Nb  Nb0  1  0.15911500  0.84088500  0.16411900  1
  Nb  Nb1  1  0.15911500  0.31823000  0.16411900  1
  Nb  Nb2  1  0.31823000  0.15911500  0.83588100  1
  Nb  Nb3  1  0.68177000  0.84088500  0.16411900  1
  Nb  Nb4  1  0.84088500  0.68177000  0.83588100  1
  Nb  Nb5  1  0.84088500  0.15911500  0.83588100  1
  O  O0  1  0.15932900  0.84067100  0.68506500  1
  O  O1  1  0.00000000  0.50000000  0.00000000  1
  O  O2  1  0.33333300  0.66666700  0.31637300  1
  O  O3  1  0.15932900  0.31865900  0.68506500  1
  O  O4  1  0.31865900  0.15932900  0.31493500  1
  O  O5  1  0.50000000  0.50000000  0.00000000  1
  O  O6  1  0.68134100  0.84067100  0.68506500  1
  O  O7  1  0.66666700  0.33333300  0.68362700  1
  O  O8  1  0.50000000  0.00000000  0.00000000  1
  O  O9  1  0.84067100  0.68134100  0.31493500  1
  O  O10  1  0.84067100  0.15932900  0.31493500  1
loop_
_geom_bond_atom_site_label_1
_geom_bond_atom_site_label_2
_geom_bond_distance
_geom_bond_site_symmetry_2
Li0 O10 2.180291 1_455
Li0 O0 2.180291 1_545
Li0 O9 2.180296 1_445
Li0 O4 2.180296 1_555
Li0 O3 2.180296 1_555
Li0 O6 2.180296 1_445
Li1 O2 1.981305 1_555
Li1 O0 1.996150 1_555
Li1 O3 1.996151 1_555
Li1 O6 1.996151 1_555
Li2 O7 1.981305 1_555
Li2 O10 1.996150 1_555
Li2 O4 1.996151 1_555
Li2 O9 1.996151 1_555
Nb0 O4 2.022877 1_565
Nb0 O9 2.022877 1_455
Nb0 O2 2.160435 1_555
Nb0 O8 2.177981 1_565
Nb0 O1 2.177981 1_555
Nb1 O10 2.022877 1_455
Nb1 O4 2.022881 1_555
Nb1 O2 2.160440 1_555
Nb1 O1 2.177980 1_555
Nb1 O5 2.177981 1_555
Nb2 O0 2.022877 1_545
Nb2 O3 2.022881 1_555
Nb2 O7 2.160440 1_555
Nb2 O8 2.177980 1_556
Nb2 O5 2.177981 1_556
Nb3 O10 2.022877 1_565
Nb3 O9 2.022881 1_555
Nb3 O2 2.160440 1_555
Nb3 O8 2.177980 1_565
Nb3 O5 2.177981 1_555
Nb4 O0 2.022877 1_655
Nb4 O6 2.022881 1_555
Nb4 O7 2.160440 1_555
Nb4 O1 2.177980 1_656
Nb4 O5 2.177981 1_556
Nb5 O6 2.022877 1_545
Nb5 O3 2.022877 1_655
Nb5 O7 2.160435 1_555
Nb5 O8 2.177981 1_556
Nb5 O1 2.177981 1_656
