# generated using pymatgen
data_Ru3C10I2O9
_symmetry_space_group_name_H-M   'P 1'
_cell_length_a   8.42598900
_cell_length_b   9.37480500
_cell_length_c   24.18160200
_cell_angle_alpha   90.00000000
_cell_angle_beta   90.00000000
_cell_angle_gamma   90.00000000
_symmetry_Int_Tables_number   1
_chemical_formula_structural   Ru3C10I2O9
_chemical_formula_sum   'Ru12 C40 I8 O36'
_cell_volume   1910.15319725
_cell_formula_units_Z   4
loop_
 _symmetry_equiv_pos_site_id
 _symmetry_equiv_pos_as_xyz
  1  'x, y, z'
loop_
 _atom_site_type_symbol
 _atom_site_label
 _atom_site_symmetry_multiplicity
 _atom_site_fract_x
 _atom_site_fract_y
 _atom_site_fract_z
 _atom_site_occupancy
  Ru  Ru0  1  0.78793700  0.05677100  0.58131900  1
  Ru  Ru1  1  0.21206300  0.55677100  0.41868100  1
  Ru  Ru2  1  0.28793700  0.55677100  0.91868100  1
  Ru  Ru3  1  0.71206300  0.05677100  0.08131900  1
  Ru  Ru4  1  0.64212300  0.34328700  0.59496900  1
  Ru  Ru5  1  0.35787700  0.84328700  0.40503100  1
  Ru  Ru6  1  0.14212300  0.84328700  0.90503100  1
  Ru  Ru7  1  0.85787700  0.34328700  0.09496900  1
  Ru  Ru8  1  0.75475700  0.12489200  0.70108800  1
  Ru  Ru9  1  0.24524300  0.62489200  0.29891200  1
  Ru  Ru10  1  0.25475700  0.62489200  0.79891200  1
  Ru  Ru11  1  0.74524300  0.12489200  0.20108800  1
  C  C0  1  0.77600400  0.05379400  0.50140300  1
  C  C1  1  0.22399600  0.55379400  0.49859700  1
  C  C2  1  0.27600400  0.55379400  0.99859700  1
  C  C3  1  0.72399600  0.05379400  0.00140300  1
  C  C4  1  0.85866600  0.86158100  0.59153700  1
  C  C5  1  0.14133400  0.36158100  0.40846300  1
  C  C6  1  0.35866600  0.36158100  0.90846300  1
  C  C7  1  0.64133400  0.86158100  0.09153700  1
  C  C8  1  0.54125700  0.98714100  0.58732700  1
  C  C9  1  0.45874300  0.48714100  0.41267300  1
  C  C10  1  0.04125700  0.48714100  0.91267300  1
  C  C11  1  0.95874300  0.98714100  0.08732700  1
  C  C12  1  0.97461500  0.14224900  0.58584400  1
  C  C13  1  0.02538500  0.64224900  0.41415600  1
  C  C14  1  0.47461500  0.64224900  0.91415600  1
  C  C15  1  0.52538500  0.14224900  0.08584400  1
  C  C16  1  0.49216600  0.27813200  0.54277000  1
  C  C17  1  0.50783400  0.77813200  0.45723000  1
  C  C18  1  0.99216600  0.77813200  0.95723000  1
  C  C19  1  0.00783400  0.27813200  0.04277000  1
  C  C20  1  0.56267500  0.53371500  0.60601100  1
  C  C21  1  0.43732500  0.03371500  0.39398900  1
  C  C22  1  0.06267500  0.03371500  0.89398900  1
  C  C23  1  0.93732500  0.53371500  0.10601100  1
  C  C24  1  0.79081100  0.38661800  0.53911600  1
  C  C25  1  0.20918900  0.88661800  0.46088400  1
  C  C26  1  0.29081100  0.88661800  0.96088400  1
  C  C27  1  0.70918900  0.38661800  0.03911600  1
  C  C28  1  0.67094000  0.93853400  0.70494400  1
  C  C29  1  0.32906000  0.43853400  0.29505600  1
  C  C30  1  0.17094000  0.43853400  0.79505600  1
  C  C31  1  0.82906000  0.93853400  0.20494400  1
  C  C32  1  0.73307700  0.17460700  0.77836800  1
  C  C33  1  0.26692300  0.67460700  0.22163200  1
  C  C34  1  0.23307700  0.67460700  0.72163200  1
  C  C35  1  0.76692300  0.17460700  0.27836800  1
  C  C36  1  0.96506200  0.05557200  0.70313400  1
  C  C37  1  0.03493800  0.55557200  0.29686600  1
  C  C38  1  0.46506200  0.55557200  0.79686600  1
  C  C39  1  0.53493800  0.05557200  0.20313400  1
  I  I0  1  0.45019500  0.24110500  0.68211000  1
  I  I1  1  0.54980500  0.74110500  0.31789000  1
  I  I2  1  0.95019500  0.74110500  0.81789000  1
  I  I3  1  0.04980500  0.24110500  0.18211000  1
  I  I4  1  0.87181800  0.39789200  0.67598700  1
  I  I5  1  0.12818200  0.89789200  0.32401300  1
  I  I6  1  0.37181800  0.89789200  0.82401300  1
  I  I7  1  0.62818200  0.39789200  0.17598700  1
  O  O0  1  0.77936300  0.04933600  0.45359500  1
  O  O1  1  0.22063700  0.54933600  0.54640500  1
  O  O2  1  0.27936300  0.54933600  0.04640500  1
  O  O3  1  0.72063700  0.04933600  0.95359500  1
  O  O4  1  0.90583700  0.74591900  0.59493700  1
  O  O5  1  0.09416300  0.24591900  0.40506300  1
  O  O6  1  0.40583700  0.24591900  0.90506300  1
  O  O7  1  0.59416300  0.74591900  0.09493700  1
  O  O8  1  0.41210900  0.94765600  0.58660200  1
  O  O9  1  0.58789100  0.44765600  0.41339800  1
  O  O10  1  0.91210900  0.44765600  0.91339800  1
  O  O11  1  0.08789100  0.94765600  0.08660200  1
  O  O12  1  0.40091100  0.24110800  0.50978700  1
  O  O13  1  0.59908900  0.74110800  0.49021300  1
  O  O14  1  0.90091100  0.74110800  0.99021300  1
  O  O15  1  0.09908900  0.24110800  0.00978700  1
  O  O16  1  0.52075600  0.65073000  0.61059600  1
  O  O17  1  0.47924400  0.15073000  0.38940400  1
  O  O18  1  0.02075600  0.15073000  0.88940400  1
  O  O19  1  0.97924400  0.65073000  0.11059600  1
  O  O20  1  0.87755800  0.41800000  0.50397200  1
  O  O21  1  0.12244200  0.91800000  0.49602800  1
  O  O22  1  0.37755800  0.91800000  0.99602800  1
  O  O23  1  0.62244200  0.41800000  0.00397200  1
  O  O24  1  0.62298000  0.82269200  0.70892300  1
  O  O25  1  0.37702000  0.32269200  0.29107700  1
  O  O26  1  0.12298000  0.32269200  0.79107700  1
  O  O27  1  0.87702000  0.82269200  0.20892300  1
  O  O28  1  0.72026600  0.19899600  0.82501400  1
  O  O29  1  0.27973400  0.69899600  0.17498600  1
  O  O30  1  0.22026600  0.69899600  0.67498600  1
  O  O31  1  0.77973400  0.19899600  0.32501400  1
  O  O32  1  0.09353700  0.01222100  0.70646800  1
  O  O33  1  0.90646300  0.51222100  0.29353200  1
  O  O34  1  0.59353700  0.51222100  0.79353200  1
  O  O35  1  0.40646300  0.01222100  0.20646800  1
loop_
_geom_bond_atom_site_label_1
_geom_bond_atom_site_label_2
_geom_bond_distance
_geom_bond_site_symmetry_2
C0 O0 1.157175 1_555
C0 Ru0 1.935312 1_555
C1 O1 1.157175 1_555
C1 Ru1 1.935312 1_555
C2 O2 1.157175 1_556
C2 Ru2 1.935312 1_555
C3 O3 1.157175 1_554
C3 Ru3 1.935312 1_555
C4 O4 1.157783 1_555
C4 Ru0 1.940268 1_565
C5 O5 1.157783 1_555
C5 Ru1 1.940268 1_555
C6 O6 1.157783 1_555
C6 Ru2 1.940268 1_555
C7 O7 1.157783 1_555
C7 Ru3 1.940268 1_565
C8 O8 1.149568 1_555
C8 Ru0 2.183454 1_565
C9 O9 1.149568 1_555
C9 Ru1 2.183454 1_555
C10 O10 1.149568 1_455
C10 Ru2 2.183454 1_555
C11 O11 1.149568 1_655
C11 Ru3 2.183454 1_565
C12 Ru0 1.768694 1_555
C13 Ru1 1.768694 1_555
C14 Ru2 1.768694 1_555
C15 Ru3 1.768694 1_555
C16 O12 1.160964 1_555
C16 Ru4 1.887567 1_555
C17 O13 1.160964 1_555
C17 Ru5 1.887567 1_555
C18 O14 1.160964 1_555
C18 Ru6 1.887567 1_655
C19 O15 1.160964 1_555
C19 Ru7 1.887567 1_455
C20 O16 1.157775 1_555
C20 Ru4 1.925217 1_555
C21 O17 1.157775 1_555
C21 Ru5 1.925217 1_545
C22 O18 1.157775 1_555
C22 Ru6 1.925217 1_545
C23 O19 1.157775 1_555
C23 Ru7 1.925217 1_555
C24 O20 1.158894 1_555
C24 Ru4 1.886476 1_555
C25 O21 1.158894 1_555
C25 Ru5 1.886476 1_555
C26 O22 1.158894 1_555
C26 Ru6 1.886476 1_555
C27 O23 1.158894 1_555
C27 Ru7 1.886476 1_555
C28 O24 1.162734 1_555
C28 Ru8 1.886723 1_565
C29 O25 1.162734 1_555
C29 Ru9 1.886723 1_555
C30 O26 1.162734 1_555
C30 Ru10 1.886723 1_555
C31 O27 1.162734 1_555
C31 Ru11 1.886723 1_565
C32 O28 1.155966 1_555
C32 Ru8 1.934640 1_555
C33 O29 1.155966 1_555
C33 Ru9 1.934640 1_555
C34 O30 1.155966 1_555
C34 Ru10 1.934640 1_555
C35 O31 1.155966 1_555
C35 Ru11 1.934640 1_555
C36 O32 1.159110 1_655
C36 Ru8 1.888081 1_555
C37 O33 1.159110 1_455
C37 Ru9 1.888081 1_555
C38 O34 1.159110 1_555
C38 Ru10 1.888081 1_555
C39 O35 1.159110 1_555
C39 Ru11 1.888081 1_555
I0 Ru4 2.823695 1_555
I0 Ru8 2.825443 1_555
I1 Ru5 2.823695 1_555
I1 Ru9 2.825443 1_555
I2 Ru6 2.823695 1_655
I2 Ru10 2.825443 1_655
I3 Ru7 2.823695 1_455
I3 Ru11 2.825443 1_455
I4 Ru4 2.801090 1_555
I4 Ru8 2.809173 1_555
I5 Ru5 2.801090 1_555
I5 Ru9 2.809173 1_555
I6 Ru6 2.801090 1_555
I6 Ru10 2.809173 1_555
I7 Ru7 2.801090 1_555
I7 Ru11 2.809173 1_555
