# generated using pymatgen
data_SrLa9MgGa9O29
_symmetry_space_group_name_H-M   'P 1'
_cell_length_a   5.55738500
_cell_length_b   5.58375844
_cell_length_c   23.04752378
_cell_angle_alpha   96.58194415
_cell_angle_beta   90.17295764
_cell_angle_gamma   119.83340414
_symmetry_Int_Tables_number   1
_chemical_formula_structural   SrLa9MgGa9O29
_chemical_formula_sum   'Sr1 La9 Mg1 Ga9 O29'
_cell_volume   614.82284957
_cell_formula_units_Z   1
loop_
 _symmetry_equiv_pos_site_id
 _symmetry_equiv_pos_as_xyz
  1  'x, y, z'
loop_
 _atom_site_type_symbol
 _atom_site_label
 _atom_site_symmetry_multiplicity
 _atom_site_fract_x
 _atom_site_fract_y
 _atom_site_fract_z
 _atom_site_occupancy
  Sr  Sr0  1  0.76395100  0.21385600  0.84591600  1
  La  La0  1  0.24639600  0.39316300  0.95451600  1
  La  La1  1  0.74997300  0.79663600  0.65143800  1
  La  La2  1  0.29231800  0.03124700  0.74399300  1
  La  La3  1  0.74963100  0.39482200  0.44843000  1
  La  La4  1  0.24878300  0.60281900  0.55304700  1
  La  La5  1  0.74745800  0.99365500  0.24920200  1
  La  La6  1  0.24842100  0.20221900  0.35256500  1
  La  La7  1  0.73592200  0.58739100  0.05102400  1
  La  La8  1  0.24785000  0.80139900  0.15217400  1
  Mg  Mg0  1  0.46992700  0.58359900  0.79717500  1
  Ga  Ga0  1  0.02948200  0.81153700  0.90514700  1
  Ga  Ga1  1  0.00067900  0.39896700  0.70142000  1
  Ga  Ga2  1  0.99995300  0.99986700  0.50047800  1
  Ga  Ga3  1  0.50161400  0.20238100  0.59814600  1
  Ga  Ga4  1  0.99936300  0.59895800  0.30031300  1
  Ga  Ga5  1  0.49863500  0.79878400  0.40062300  1
  Ga  Ga6  1  0.99890900  0.19873000  0.10091400  1
  Ga  Ga7  1  0.49790400  0.39844100  0.20084000  1
  Ga  Ga8  1  0.50463100  0.00529700  0.99901600  1
  O  O0  1  0.73101900  0.38467500  0.93378300  1
  O  O1  1  0.69792700  0.83080100  0.95375400  1
  O  O2  1  0.75696800  0.97210100  0.73713700  1
  O  O3  1  0.72898000  0.45255900  0.75826200  1
  O  O4  1  0.18909000  0.81591900  0.96596900  1
  O  O5  1  0.78019900  0.36293300  0.64439100  1
  O  O6  1  0.26252200  0.76565400  0.84093000  1
  O  O7  1  0.75442800  0.56672300  0.53265700  1
  O  O8  1  0.23821500  0.22628400  0.86891000  1
  O  O9  1  0.70809600  0.02905600  0.55876900  1
  O  O10  1  0.22864500  0.42367000  0.75024500  1
  O  O11  1  0.79772200  0.97476400  0.44052900  1
  O  O12  1  0.29398000  0.37103900  0.63782600  1
  O  O13  1  0.75071700  0.16708100  0.33306500  1
  O  O14  1  0.25819200  0.83702500  0.66358700  1
  O  O15  1  0.70447500  0.62791500  0.35847200  1
  O  O16  1  0.20411800  0.02230400  0.55827900  1
  O  O17  1  0.79798100  0.57410300  0.24020100  1
  O  O18  1  0.29724700  0.97583800  0.43996800  1
  O  O19  1  0.74744600  0.76650200  0.13387800  1
  O  O20  1  0.25210400  0.43499500  0.46653000  1
  O  O21  1  0.70355500  0.22907900  0.15773500  1
  O  O22  1  0.20464600  0.62624700  0.35886600  1
  O  O23  1  0.79779200  0.16819200  0.03975200  1
  O  O24  1  0.29687300  0.57478000  0.24064200  1
  O  O25  1  0.25171800  0.03345100  0.26637300  1
  O  O26  1  0.20253600  0.22501200  0.15981200  1
  O  O27  1  0.29508900  0.16987400  0.04303400  1
  O  O28  1  0.25932100  0.63149800  0.06679000  1
loop_
_geom_bond_atom_site_label_1
_geom_bond_atom_site_label_2
_geom_bond_distance
_geom_bond_site_symmetry_2
La0 O8 2.073387 1_555
La0 O1 2.485477 1_555
La0 O27 2.589456 1_556
La0 O28 2.754340 1_556
La0 O0 2.759291 1_555
La0 O0 2.878439 1_455
La1 O2 2.093001 1_555
La1 O12 2.449513 1_555
La1 O9 2.689409 1_565
La2 O14 1.994692 1_545
La2 O10 2.376278 1_555
La2 O3 2.380982 1_555
La2 O2 2.764236 1_545
La2 O6 2.781305 1_545
La2 O2 2.827211 1_445
La3 O7 2.058507 1_555
La3 O18 2.423279 1_545
La3 O15 2.645002 1_555
La3 O20 2.714834 1_655
La3 O13 2.814137 1_555
La3 O20 2.910652 1_555
La4 O20 2.107982 1_555
La4 O9 2.465554 1_565
La4 O12 2.540896 1_555
La5 O13 2.056008 1_565
La5 O24 2.417381 1_555
La5 O21 2.680095 1_565
La5 O25 2.722650 1_665
La5 O25 2.896835 1_565
La6 O25 2.103058 1_555
La6 O15 2.453940 1_555
La6 O18 2.578968 1_545
La6 O13 2.706141 1_455
La6 O20 2.789167 1_555
La6 O13 2.926598 1_555
La7 O19 2.036796 1_555
La7 O27 2.384754 1_555
La7 O28 2.800427 1_555
La7 O0 2.801981 1_554
La7 O28 2.813138 1_655
La8 O28 2.099906 1_555
La8 O21 2.458351 1_565
La8 O24 2.600759 1_555
La8 O25 2.792299 1_565
Mg0 O10 1.530943 1_555
Mg0 O6 2.077667 1_555
Mg0 O3 2.077924 1_555
Mg0 O2 2.534496 1_555
Mg0 O8 2.566151 1_555
Ga0 O4 1.647860 1_555
Ga0 O6 2.046511 1_555
Ga0 O1 2.200843 1_455
Ga0 O8 2.276547 1_565
Ga0 O0 2.302510 1_455
Ga1 O10 1.634711 1_555
Ga1 O5 1.718653 1_455
Ga1 O3 2.111247 1_455
Ga1 O12 2.245960 1_555
Ga1 O2 2.331901 1_445
Ga1 O14 2.409348 1_555
Ga2 O16 1.699684 1_665
Ga2 O11 1.726633 1_555
Ga2 O9 2.165225 1_565
Ga2 O18 2.210020 1_655
Ga2 O7 2.322755 1_555
Ga2 O20 2.352430 1_665
Ga3 O16 1.647333 1_555
Ga3 O5 1.651262 1_555
Ga3 O12 1.986169 1_555
Ga3 O9 1.996729 1_555
Ga4 O22 1.707773 1_655
Ga4 O17 1.727200 1_555
Ga4 O15 2.176184 1_555
Ga4 O24 2.199204 1_655
Ga4 O13 2.324369 1_555
Ga4 O25 2.349697 1_665
Ga5 O11 1.653099 1_555
Ga5 O22 1.653952 1_555
Ga5 O18 1.988406 1_555
Ga5 O15 2.010665 1_555
Ga5 O20 2.502311 1_555
Ga5 O13 2.548895 1_565
Ga6 O26 1.710156 1_655
Ga6 O23 1.735258 1_555
Ga6 O21 2.162582 1_555
Ga6 O27 2.177755 1_655
Ga6 O19 2.329362 1_545
Ga6 O28 2.348475 1_655
Ga7 O17 1.650904 1_555
Ga7 O26 1.650907 1_555
Ga7 O24 1.988160 1_555
Ga7 O21 2.013524 1_555
Ga7 O25 2.500091 1_555
Ga8 O23 1.638197 1_556
Ga8 O4 1.653990 1_545
Ga8 O1 2.001662 1_545
Ga8 O27 2.021862 1_556
Ga8 O0 2.533874 1_555
Ga8 O28 2.565937 1_546
O0 Sr0 2.185740 1_555
O2 Sr0 2.698271 1_565
O3 Sr0 2.601571 1_555
O6 Sr0 2.652379 1_565
O6 Sr0 2.961862 1_455
O8 Sr0 2.652087 1_455
