# generated using pymatgen
data_Fe3P2H6O11
_symmetry_space_group_name_H-M   'P 1'
_cell_length_a   7.06776500
_cell_length_b   10.17133000
_cell_length_c   11.59842200
_cell_angle_alpha   90.00000000
_cell_angle_beta   90.00000000
_cell_angle_gamma   90.00000000
_symmetry_Int_Tables_number   1
_chemical_formula_structural   Fe3P2H6O11
_chemical_formula_sum   'Fe12 P8 H24 O44'
_cell_volume   833.79397389
_cell_formula_units_Z   4
loop_
 _symmetry_equiv_pos_site_id
 _symmetry_equiv_pos_as_xyz
  1  'x, y, z'
loop_
 _atom_site_type_symbol
 _atom_site_label
 _atom_site_symmetry_multiplicity
 _atom_site_fract_x
 _atom_site_fract_y
 _atom_site_fract_z
 _atom_site_occupancy
  Fe  Fe0  1  0.50000000  0.00000000  0.00000000  1
  Fe  Fe1  1  0.00000000  0.50000000  0.50000000  1
  Fe  Fe2  1  0.50000000  0.50000000  0.50000000  1
  Fe  Fe3  1  0.00000000  0.00000000  0.00000000  1
  Fe  Fe4  1  0.45357300  0.02754700  0.63394000  1
  Fe  Fe5  1  0.95357300  0.47245300  0.86606000  1
  Fe  Fe6  1  0.54642700  0.47245300  0.13394000  1
  Fe  Fe7  1  0.04642700  0.02754700  0.36606000  1
  Fe  Fe8  1  0.54642700  0.97245300  0.36606000  1
  Fe  Fe9  1  0.04642700  0.52754700  0.13394000  1
  Fe  Fe10  1  0.45357300  0.52754700  0.86606000  1
  Fe  Fe11  1  0.95357300  0.97245300  0.63394000  1
  P  P0  1  0.38724400  0.24000500  0.39439200  1
  P  P1  1  0.88724400  0.25999500  0.10560800  1
  P  P2  1  0.61275600  0.25999500  0.89439200  1
  P  P3  1  0.11275600  0.24000500  0.60560800  1
  P  P4  1  0.61275600  0.75999500  0.60560800  1
  P  P5  1  0.11275600  0.74000500  0.89439200  1
  P  P6  1  0.38724400  0.74000500  0.10560800  1
  P  P7  1  0.88724400  0.75999500  0.39439200  1
  H  H0  1  0.50342800  0.67954600  0.19782000  1
  H  H1  1  0.00342800  0.82045400  0.30218000  1
  H  H2  1  0.49657200  0.82045400  0.69782000  1
  H  H3  1  0.99657200  0.67954600  0.80218000  1
  H  H4  1  0.49657200  0.32045400  0.80218000  1
  H  H5  1  0.99657200  0.17954600  0.69782000  1
  H  H6  1  0.50342800  0.17954600  0.30218000  1
  H  H7  1  0.00342800  0.32045400  0.19782000  1
  H  H8  1  0.24944400  0.17583300  0.23575900  1
  H  H9  1  0.74944400  0.32416700  0.26424100  1
  H  H10  1  0.75055600  0.32416700  0.73575900  1
  H  H11  1  0.25055600  0.17583300  0.76424100  1
  H  H12  1  0.75055600  0.82416700  0.76424100  1
  H  H13  1  0.25055600  0.67583300  0.73575900  1
  H  H14  1  0.24944400  0.67583300  0.26424100  1
  H  H15  1  0.74944400  0.82416700  0.23575900  1
  H  H16  1  0.37502000  0.20802200  0.07079100  1
  H  H17  1  0.87502000  0.29197800  0.42920900  1
  H  H18  1  0.62498000  0.29197800  0.57079100  1
  H  H19  1  0.12498000  0.20802200  0.92920900  1
  H  H20  1  0.62498000  0.79197800  0.92920900  1
  H  H21  1  0.12498000  0.70802200  0.57079100  1
  H  H22  1  0.37502000  0.70802200  0.42920900  1
  H  H23  1  0.87502000  0.79197800  0.07079100  1
  O  O0  1  0.19998300  0.20611700  0.31341300  1
  O  O1  1  0.69998300  0.29388300  0.18658700  1
  O  O2  1  0.80001700  0.29388300  0.81341300  1
  O  O3  1  0.30001700  0.20611700  0.68658700  1
  O  O4  1  0.80001700  0.79388300  0.68658700  1
  O  O5  1  0.30001700  0.70611700  0.81341300  1
  O  O6  1  0.19998300  0.70611700  0.18658700  1
  O  O7  1  0.69998300  0.79388300  0.31341300  1
  O  O8  1  0.46123900  0.12780500  0.47964800  1
  O  O9  1  0.96123900  0.37219500  0.02035200  1
  O  O10  1  0.53876100  0.37219500  0.97964800  1
  O  O11  1  0.03876100  0.12780500  0.52035200  1
  O  O12  1  0.53876100  0.87219500  0.52035200  1
  O  O13  1  0.03876100  0.62780500  0.97964800  1
  O  O14  1  0.46123900  0.62780500  0.02035200  1
  O  O15  1  0.96123900  0.87219500  0.47964800  1
  O  O16  1  0.49531800  0.37209800  0.37361100  1
  O  O17  1  0.99531800  0.12790200  0.12638900  1
  O  O18  1  0.50468200  0.12790200  0.87361100  1
  O  O19  1  0.00468200  0.37209800  0.62638900  1
  O  O20  1  0.50468200  0.62790200  0.62638900  1
  O  O21  1  0.00468200  0.87209800  0.87361100  1
  O  O22  1  0.49531800  0.87209800  0.12638900  1
  O  O23  1  0.99531800  0.62790200  0.37361100  1
  O  O24  1  0.37930000  0.11862900  0.10357600  1
  O  O25  1  0.87930000  0.38137100  0.39642400  1
  O  O26  1  0.62070000  0.38137100  0.60357600  1
  O  O27  1  0.12070000  0.11862900  0.89642400  1
  O  O28  1  0.62070000  0.88137100  0.89642400  1
  O  O29  1  0.12070000  0.61862900  0.60357600  1
  O  O30  1  0.37930000  0.61862900  0.39642400  1
  O  O31  1  0.87930000  0.88137100  0.10357600  1
  O  O32  1  0.25000000  0.31543500  0.50000000  1
  O  O33  1  0.75000000  0.18456500  0.00000000  1
  O  O34  1  0.75000000  0.68456500  0.50000000  1
  O  O35  1  0.25000000  0.81543500  0.00000000  1
  O  O36  1  0.78677100  0.55015600  0.16476600  1
  O  O37  1  0.28677100  0.94984400  0.33523400  1
  O  O38  1  0.21322900  0.94984400  0.66476600  1
  O  O39  1  0.71322900  0.55015600  0.83523400  1
  O  O40  1  0.21322900  0.44984400  0.83523400  1
  O  O41  1  0.71322900  0.05015600  0.66476600  1
  O  O42  1  0.78677100  0.05015600  0.33523400  1
  O  O43  1  0.28677100  0.44984400  0.16476600  1
loop_
_geom_bond_atom_site_label_1
_geom_bond_atom_site_label_2
_geom_bond_distance
_geom_bond_site_symmetry_2
Fe0 O24 1.904423 1_555
Fe0 O28 1.904423 1_544
Fe0 O22 1.960210 1_545
Fe0 O18 1.960210 1_554
Fe1 O29 1.904423 1_555
Fe1 O25 1.904423 1_455
Fe1 O19 1.960210 1_555
Fe1 O23 1.960210 1_455
Fe2 O30 1.904423 1_555
Fe2 O26 1.904423 1_555
Fe2 O20 1.960210 1_555
Fe2 O16 1.960210 1_555
Fe3 O31 1.904423 1_445
Fe3 O27 1.904423 1_554
Fe3 O17 1.960210 1_455
Fe3 O21 1.960210 1_544
Fe4 O41 1.883780 1_555
Fe4 O38 1.907364 1_545
Fe4 O8 2.060414 1_555
Fe4 O12 2.143594 1_545
Fe4 O3 2.202193 1_555
Fe4 H2 2.253502 1_545
Fe5 O40 1.883780 1_655
Fe5 O39 1.907364 1_555
Fe5 O9 2.060414 1_556
Fe5 O13 2.143594 1_655
Fe5 O2 2.202193 1_555
Fe5 H3 2.253502 1_555
Fe6 O43 1.883780 1_555
Fe6 O36 1.907364 1_555
Fe6 O10 2.060414 1_554
Fe6 O14 2.143594 1_555
Fe6 O1 2.202193 1_555
Fe6 H0 2.253502 1_555
Fe7 O42 1.883780 1_455
Fe7 O37 1.907364 1_545
Fe7 O11 2.060414 1_555
Fe7 O15 2.143594 1_445
Fe7 O0 2.202193 1_555
Fe7 H1 2.253502 1_545
Fe8 O37 1.883780 1_555
Fe8 O42 1.907364 1_565
Fe8 O12 2.060414 1_555
Fe8 O8 2.143594 1_565
Fe8 O7 2.202193 1_555
Fe8 H6 2.253502 1_565
Fe9 O36 1.883780 1_455
Fe9 O43 1.907364 1_555
Fe9 O13 2.060414 1_554
Fe9 O9 2.143594 1_455
Fe9 O6 2.202193 1_555
Fe9 H7 2.253502 1_555
Fe10 O39 1.883780 1_555
Fe10 O40 1.907364 1_555
Fe10 O14 2.060414 1_556
Fe10 O10 2.143594 1_555
Fe10 O5 2.202193 1_555
Fe10 H4 2.253502 1_555
Fe11 O38 1.883780 1_655
Fe11 O41 1.907364 1_565
Fe11 O15 2.060414 1_555
Fe11 O11 2.143594 1_665
Fe11 O4 2.202193 1_555
Fe11 H5 2.253502 1_565
H0 P6 1.482001 1_555
H1 P7 1.482001 1_455
H2 P4 1.482001 1_555
H3 P5 1.482001 1_655
H4 P2 1.482001 1_555
H5 P3 1.482001 1_655
H6 P0 1.482001 1_555
H7 P1 1.482001 1_455
H8 O0 1.014043 1_555
H9 O1 1.014043 1_555
H10 O2 1.014043 1_555
H11 O3 1.014043 1_555
H12 O4 1.014043 1_555
H13 O5 1.014043 1_555
H14 O6 1.014043 1_555
H15 O7 1.014043 1_555
H16 O24 0.986020 1_555
H17 O25 0.986020 1_555
H18 O26 0.986020 1_555
H19 O27 0.986020 1_555
H20 O28 0.986020 1_555
H21 O29 0.986020 1_555
H22 O30 0.986020 1_555
H23 O31 0.986020 1_555
O0 P0 1.659113 1_555
O1 P1 1.659113 1_555
O2 P2 1.659113 1_555
O3 P3 1.659113 1_555
O4 P4 1.659113 1_555
O5 P5 1.659113 1_555
O6 P6 1.659113 1_555
O7 P7 1.659113 1_555
O8 P0 1.598028 1_555
O9 P1 1.598028 1_555
O10 P2 1.598028 1_555
O11 P3 1.598028 1_555
O12 P4 1.598028 1_555
O13 P5 1.598028 1_555
O14 P6 1.598028 1_555
O15 P7 1.598028 1_555
O16 P0 1.564195 1_555
O17 P1 1.564195 1_555
O18 P2 1.564195 1_555
O19 P3 1.564195 1_555
O20 P4 1.564195 1_555
O21 P5 1.564195 1_555
O22 P6 1.564195 1_555
O23 P7 1.564195 1_555
O32 P3 1.740659 1_555
O32 P0 1.740659 1_555
O33 P1 1.740659 1_555
O33 P2 1.740659 1_554
O34 P4 1.740659 1_555
O34 P7 1.740659 1_555
O35 P6 1.740659 1_555
O35 P5 1.740659 1_554
