# generated using pymatgen
data_Tm2TeO2
_symmetry_space_group_name_H-M   'P 1'
_cell_length_a   3.83107652
_cell_length_b   3.83110073
_cell_length_c   7.08639758
_cell_angle_alpha   90.00006170
_cell_angle_beta   90.00000000
_cell_angle_gamma   119.99980870
_symmetry_Int_Tables_number   1
_chemical_formula_structural   Tm2TeO2
_chemical_formula_sum   'Tm2 Te1 O2'
_cell_volume   90.07440069
_cell_formula_units_Z   1
loop_
 _symmetry_equiv_pos_site_id
 _symmetry_equiv_pos_as_xyz
  1  'x, y, z'
loop_
 _atom_site_type_symbol
 _atom_site_label
 _atom_site_symmetry_multiplicity
 _atom_site_fract_x
 _atom_site_fract_y
 _atom_site_fract_z
 _atom_site_occupancy
  Tm  Tm0  1  0.33329346  0.66666432  0.30688514  1
  Tm  Tm1  1  0.66662914  0.33333568  0.69311486  1
  Te  Te0  1  -0.00001409  0.00000000  -0.00000000  1
  O  O0  1  0.33327955  0.66666561  0.61869916  1
  O  O1  1  0.66661294  0.33333439  0.38130084  1
loop_
_geom_bond_atom_site_label_1
_geom_bond_atom_site_label_2
_geom_bond_distance
_geom_bond_site_symmetry_2
Te0 Tm1 3.101843 1_554
Te0 Tm0 3.101843 1_545
Te0 Tm1 3.101900 1_444
Te0 Tm0 3.101900 1_555
Te0 Tm0 3.101959 1_445
Te0 Tm1 3.101959 1_454
O0 Tm0 2.209638 1_555
O0 Tm1 2.273819 1_455
O0 Tm1 2.273895 1_565
O0 Tm1 2.273913 1_555
O1 Tm1 2.209638 1_555
O1 Tm0 2.273816 1_555
O1 Tm0 2.273895 1_545
O1 Tm0 2.273916 1_655
