# generated using pymatgen
data_Bi3Ir3O11
_symmetry_space_group_name_H-M   'P 1'
_cell_length_a   9.49239600
_cell_length_b   9.49239600
_cell_length_c   9.49239600
_cell_angle_alpha   90.00000000
_cell_angle_beta   90.00000000
_cell_angle_gamma   90.00000000
_symmetry_Int_Tables_number   1
_chemical_formula_structural   Bi3Ir3O11
_chemical_formula_sum   'Bi12 Ir12 O44'
_cell_volume   855.31786445
_cell_formula_units_Z   4
loop_
 _symmetry_equiv_pos_site_id
 _symmetry_equiv_pos_as_xyz
  1  'x, y, z'
loop_
 _atom_site_type_symbol
 _atom_site_label
 _atom_site_symmetry_multiplicity
 _atom_site_fract_x
 _atom_site_fract_y
 _atom_site_fract_z
 _atom_site_occupancy
  Bi  Bi0  1  0.75000000  0.75000000  0.25000000  1
  Bi  Bi1  1  0.75000000  0.25000000  0.75000000  1
  Bi  Bi2  1  0.86747100  0.86747100  0.86747100  1
  Bi  Bi3  1  0.86747100  0.13252900  0.13252900  1
  Bi  Bi4  1  0.13252900  0.86747100  0.13252900  1
  Bi  Bi5  1  0.13252900  0.13252900  0.86747100  1
  Bi  Bi6  1  0.25000000  0.25000000  0.25000000  1
  Bi  Bi7  1  0.25000000  0.75000000  0.75000000  1
  Bi  Bi8  1  0.36747100  0.36747100  0.63252900  1
  Bi  Bi9  1  0.36747100  0.63252900  0.36747100  1
  Bi  Bi10  1  0.63252900  0.36747100  0.36747100  1
  Bi  Bi11  1  0.63252900  0.63252900  0.63252900  1
  Ir  Ir0  1  0.84141200  0.50000000  0.00000000  1
  Ir  Ir1  1  0.00000000  0.84141200  0.50000000  1
  Ir  Ir2  1  0.00000000  0.50000000  0.34141200  1
  Ir  Ir3  1  0.00000000  0.50000000  0.65858800  1
  Ir  Ir4  1  0.00000000  0.15858800  0.50000000  1
  Ir  Ir5  1  0.15858800  0.50000000  0.00000000  1
  Ir  Ir6  1  0.34141200  0.00000000  0.50000000  1
  Ir  Ir7  1  0.50000000  0.00000000  0.84141200  1
  Ir  Ir8  1  0.50000000  0.00000000  0.15858800  1
  Ir  Ir9  1  0.50000000  0.34141200  0.00000000  1
  Ir  Ir10  1  0.50000000  0.65858800  0.00000000  1
  Ir  Ir11  1  0.65858800  0.00000000  0.50000000  1
  O  O0  1  0.78994900  0.83317500  0.49402800  1
  O  O1  1  0.78994900  0.16682500  0.50597200  1
  O  O2  1  0.83317500  0.49402800  0.78994900  1
  O  O3  1  0.83317500  0.50597200  0.21005100  1
  O  O4  1  0.86002000  0.50000000  0.50000000  1
  O  O5  1  0.89708400  0.89708400  0.10291600  1
  O  O6  1  0.89708400  0.10291600  0.89708400  1
  O  O7  1  0.00597200  0.71005100  0.66682500  1
  O  O8  1  0.00597200  0.28994900  0.33317500  1
  O  O9  1  0.00000000  0.36002000  0.00000000  1
  O  O10  1  0.00000000  0.63998000  0.00000000  1
  O  O11  1  0.00000000  0.00000000  0.36002000  1
  O  O12  1  0.00000000  0.00000000  0.63998000  1
  O  O13  1  0.99402800  0.28994900  0.66682500  1
  O  O14  1  0.99402800  0.71005100  0.33317500  1
  O  O15  1  0.10291600  0.89708400  0.89708400  1
  O  O16  1  0.10291600  0.10291600  0.10291600  1
  O  O17  1  0.13998000  0.50000000  0.50000000  1
  O  O18  1  0.16682500  0.50597200  0.78994900  1
  O  O19  1  0.16682500  0.49402800  0.21005100  1
  O  O20  1  0.21005100  0.83317500  0.50597200  1
  O  O21  1  0.21005100  0.16682500  0.49402800  1
  O  O22  1  0.28994900  0.33317500  0.00597200  1
  O  O23  1  0.28994900  0.66682500  0.99402800  1
  O  O24  1  0.33317500  0.00597200  0.28994900  1
  O  O25  1  0.33317500  0.99402800  0.71005100  1
  O  O26  1  0.36002000  0.00000000  0.00000000  1
  O  O27  1  0.39708400  0.39708400  0.39708400  1
  O  O28  1  0.39708400  0.60291600  0.60291600  1
  O  O29  1  0.50597200  0.78994900  0.16682500  1
  O  O30  1  0.50597200  0.21005100  0.83317500  1
  O  O31  1  0.50000000  0.86002000  0.50000000  1
  O  O32  1  0.50000000  0.13998000  0.50000000  1
  O  O33  1  0.50000000  0.50000000  0.86002000  1
  O  O34  1  0.50000000  0.50000000  0.13998000  1
  O  O35  1  0.49402800  0.78994900  0.83317500  1
  O  O36  1  0.49402800  0.21005100  0.16682500  1
  O  O37  1  0.60291600  0.39708400  0.60291600  1
  O  O38  1  0.60291600  0.60291600  0.39708400  1
  O  O39  1  0.63998000  0.00000000  0.00000000  1
  O  O40  1  0.66682500  0.00597200  0.71005100  1
  O  O41  1  0.66682500  0.99402800  0.28994900  1
  O  O42  1  0.71005100  0.66682500  0.00597200  1
  O  O43  1  0.71005100  0.33317500  0.99402800  1
loop_
_geom_bond_atom_site_label_1
_geom_bond_atom_site_label_2
_geom_bond_distance
_geom_bond_site_symmetry_2
Bi0 O5 2.418254 1_555
Bi0 O38 2.418254 1_555
Bi0 O14 2.476473 1_555
Bi0 O29 2.476473 1_555
Bi0 O3 2.476473 1_555
Bi0 O41 2.476473 1_555
Bi0 O0 2.476473 1_555
Bi0 O42 2.476473 1_555
Bi1 O6 2.418254 1_555
Bi1 O37 2.418254 1_555
Bi1 O1 2.476473 1_555
Bi1 O2 2.476473 1_555
Bi1 O40 2.476473 1_555
Bi1 O30 2.476473 1_555
Bi1 O43 2.476473 1_555
Bi1 O13 2.476473 1_555
Bi2 O6 2.270017 1_565
Bi2 O5 2.270017 1_556
Bi2 O15 2.270017 1_655
Bi2 O7 2.754797 1_655
Bi2 O42 2.754797 1_556
Bi2 O40 2.754797 1_565
Bi2 O10 2.797923 1_656
Bi2 O12 2.797923 1_665
Bi2 O39 2.797923 1_566
Bi3 O5 2.270017 1_545
Bi3 O16 2.270017 1_655
Bi3 O6 2.270017 1_554
Bi3 O43 2.754797 1_554
Bi3 O41 2.754797 1_545
Bi3 O8 2.754797 1_655
Bi3 O39 2.797923 1_555
Bi3 O9 2.797923 1_655
Bi3 O11 2.797923 1_655
Bi4 O16 2.270017 1_565
Bi4 O5 2.270017 1_455
Bi4 O15 2.270017 1_554
Bi4 O23 2.754797 1_554
Bi4 O14 2.754797 1_455
Bi4 O24 2.754797 1_565
Bi4 O26 2.797923 1_565
Bi4 O11 2.797923 1_565
Bi4 O10 2.797923 1_555
Bi5 O16 2.270017 1_556
Bi5 O15 2.270017 1_545
Bi5 O6 2.270017 1_455
Bi5 O13 2.754797 1_455
Bi5 O25 2.754797 1_545
Bi5 O22 2.754797 1_556
Bi5 O12 2.797923 1_555
Bi5 O9 2.797923 1_556
Bi5 O26 2.797923 1_556
Bi6 O27 2.418254 1_555
Bi6 O16 2.418254 1_555
Bi6 O8 2.476473 1_555
Bi6 O24 2.476473 1_555
Bi6 O36 2.476473 1_555
Bi6 O21 2.476473 1_555
Bi6 O22 2.476473 1_555
Bi6 O19 2.476473 1_555
Bi7 O15 2.418254 1_555
Bi7 O28 2.418254 1_555
Bi7 O23 2.476473 1_555
Bi7 O18 2.476473 1_555
Bi7 O20 2.476473 1_555
Bi7 O35 2.476473 1_555
Bi7 O25 2.476473 1_555
Bi7 O7 2.476473 1_555
Bi8 O28 2.270017 1_555
Bi8 O27 2.270017 1_555
Bi8 O37 2.270017 1_555
Bi8 O18 2.754797 1_555
Bi8 O30 2.754797 1_555
Bi8 O21 2.754797 1_555
Bi8 O33 2.797923 1_555
Bi8 O32 2.797923 1_555
Bi8 O17 2.797923 1_555
Bi9 O28 2.270017 1_555
Bi9 O27 2.270017 1_555
Bi9 O38 2.270017 1_555
Bi9 O20 2.754797 1_555
Bi9 O29 2.754797 1_555
Bi9 O19 2.754797 1_555
Bi9 O17 2.797923 1_555
Bi9 O34 2.797923 1_555
Bi9 O31 2.797923 1_555
Bi10 O27 2.270017 1_555
Bi10 O37 2.270017 1_555
Bi10 O38 2.270017 1_555
Bi10 O3 2.754797 1_555
Bi10 O1 2.754797 1_555
Bi10 O36 2.754797 1_555
Bi10 O32 2.797923 1_555
Bi10 O4 2.797923 1_555
Bi10 O34 2.797923 1_555
Bi11 O28 2.270017 1_555
Bi11 O37 2.270017 1_555
Bi11 O38 2.270017 1_555
Bi11 O35 2.754797 1_555
Bi11 O0 2.754797 1_555
Bi11 O2 2.754797 1_555
Bi11 O33 2.797923 1_555
Bi11 O4 2.797923 1_555
Bi11 O31 2.797923 1_555
Ir0 O3 1.996225 1_555
Ir0 O2 1.996225 1_554
Ir0 O9 2.007918 1_655
Ir0 O10 2.007918 1_655
Ir0 O42 2.016368 1_555
Ir0 O43 2.016368 1_554
Ir1 O0 1.996225 1_455
Ir1 O20 1.996225 1_555
Ir1 O11 2.007918 1_565
Ir1 O12 2.007918 1_565
Ir1 O7 2.016368 1_555
Ir1 O14 2.016368 1_455
Ir2 O14 1.996225 1_455
Ir2 O8 1.996225 1_555
Ir2 O4 2.007918 1_455
Ir2 O17 2.007918 1_555
Ir2 O3 2.016368 1_455
Ir2 O19 2.016368 1_555
Ir3 O7 1.996225 1_555
Ir3 O13 1.996225 1_455
Ir3 O4 2.007918 1_455
Ir3 O17 2.007918 1_555
Ir3 O18 2.016368 1_555
Ir3 O2 2.016368 1_455
Ir4 O1 1.996225 1_455
Ir4 O21 1.996225 1_555
Ir4 O12 2.007918 1_555
Ir4 O11 2.007918 1_555
Ir4 O8 2.016368 1_555
Ir4 O13 2.016368 1_455
Ir5 O18 1.996225 1_554
Ir5 O19 1.996225 1_555
Ir5 O9 2.007918 1_555
Ir5 O10 2.007918 1_555
Ir5 O23 2.016368 1_554
Ir5 O22 2.016368 1_555
Ir6 O24 1.996225 1_555
Ir6 O25 1.996225 1_545
Ir6 O32 2.007918 1_555
Ir6 O31 2.007918 1_545
Ir6 O21 2.016368 1_555
Ir6 O20 2.016368 1_545
Ir7 O35 1.996225 1_545
Ir7 O30 1.996225 1_555
Ir7 O26 2.007918 1_556
Ir7 O39 2.007918 1_556
Ir7 O25 2.016368 1_545
Ir7 O40 2.016368 1_555
Ir8 O36 1.996225 1_555
Ir8 O29 1.996225 1_545
Ir8 O39 2.007918 1_555
Ir8 O26 2.007918 1_555
Ir8 O41 2.016368 1_545
Ir8 O24 2.016368 1_555
Ir9 O43 1.996225 1_554
Ir9 O22 1.996225 1_555
Ir9 O33 2.007918 1_554
Ir9 O34 2.007918 1_555
Ir9 O36 2.016368 1_555
Ir9 O30 2.016368 1_554
Ir10 O42 1.996225 1_555
Ir10 O23 1.996225 1_554
Ir10 O34 2.007918 1_555
Ir10 O33 2.007918 1_554
Ir10 O29 2.016368 1_555
Ir10 O35 2.016368 1_554
Ir11 O41 1.996225 1_545
Ir11 O40 1.996225 1_555
Ir11 O31 2.007918 1_545
Ir11 O32 2.007918 1_555
Ir11 O1 2.016368 1_555
Ir11 O0 2.016368 1_545
