# generated using pymatgen
data_NaMnO2
_symmetry_space_group_name_H-M   'P 1'
_cell_length_a   3.19499408
_cell_length_b   5.18409684
_cell_length_c   6.11502308
_cell_angle_alpha   68.24375749
_cell_angle_beta   100.15625123
_cell_angle_gamma   96.32406489
_symmetry_Int_Tables_number   1
_chemical_formula_structural   NaMnO2
_chemical_formula_sum   'Na2 Mn2 O4'
_cell_volume   92.48432171
_cell_formula_units_Z   2
loop_
 _symmetry_equiv_pos_site_id
 _symmetry_equiv_pos_as_xyz
  1  'x, y, z'
loop_
 _atom_site_type_symbol
 _atom_site_label
 _atom_site_symmetry_multiplicity
 _atom_site_fract_x
 _atom_site_fract_y
 _atom_site_fract_z
 _atom_site_occupancy
  Na  Na0  1  0.25003600  0.75003000  0.50000100  1
  Na  Na1  1  0.75003300  0.25003500  0.49999900  1
  Mn  Mn0  1  0.50000300  0.50000400  0.00000000  1
  Mn  Mn1  1  0.00000300  0.00000300  0.00000000  1
  O  O0  1  0.13102300  0.22123900  0.20462900  1
  O  O1  1  0.63102200  0.72123900  0.20462900  1
  O  O2  1  0.86899000  0.77877500  0.79537100  1
  O  O3  1  0.36899000  0.27877400  0.79537100  1
loop_
_geom_bond_atom_site_label_1
_geom_bond_atom_site_label_2
_geom_bond_distance
_geom_bond_site_symmetry_2
Na0 O1 2.404496 1_555
Na0 O2 2.404514 1_455
Na0 O0 2.462883 1_565
Na0 O3 2.463034 1_555
Na0 O2 2.463778 1_555
Na0 O1 2.463971 1_455
Na1 O0 2.404503 1_655
Na1 O3 2.404506 1_555
Na1 O1 2.462859 1_555
Na1 O2 2.463054 1_545
Na1 O3 2.463784 1_655
Na1 O0 2.463962 1_555
Mn0 O3 1.956964 1_554
Mn0 O1 1.956985 1_555
Mn0 O0 1.961727 1_555
Mn0 O2 1.961755 1_554
Mn0 O2 2.475988 1_454
Mn0 O0 2.475991 1_655
Mn1 O2 1.956955 1_444
Mn1 O0 1.956989 1_555
Mn1 O1 1.961727 1_445
Mn1 O3 1.961755 1_554
Mn1 O1 2.475986 1_545
Mn1 O3 2.475988 1_454
