# generated using pymatgen
data_Li6MgNi7O16
_symmetry_space_group_name_H-M   'P 1'
_cell_length_a   4.91354800
_cell_length_b   5.08087421
_cell_length_c   11.22529532
_cell_angle_alpha   80.27955512
_cell_angle_beta   85.51839841
_cell_angle_gamma   79.64758885
_symmetry_Int_Tables_number   1
_chemical_formula_structural   Li6MgNi7O16
_chemical_formula_sum   'Li6 Mg1 Ni7 O16'
_cell_volume   271.39061035
_cell_formula_units_Z   1
loop_
 _symmetry_equiv_pos_site_id
 _symmetry_equiv_pos_as_xyz
  1  'x, y, z'
loop_
 _atom_site_type_symbol
 _atom_site_label
 _atom_site_symmetry_multiplicity
 _atom_site_fract_x
 _atom_site_fract_y
 _atom_site_fract_z
 _atom_site_occupancy
  Li  Li0  1  0.25201900  0.07695000  0.92948000  1
  Li  Li1  1  0.74798100  0.92305000  0.07052000  1
  Li  Li2  1  0.26063300  0.81742400  0.19470800  1
  Li  Li3  1  0.25346300  0.55986700  0.44012400  1
  Li  Li4  1  0.74653700  0.44013300  0.55987600  1
  Li  Li5  1  0.73936700  0.18257600  0.80529200  1
  Mg  Mg0  1  0.50000000  0.50000000  0.00000000  1
  Ni  Ni0  1  0.99345000  0.62249000  0.87603200  1
  Ni  Ni1  1  0.00655000  0.37751000  0.12396800  1
  Ni  Ni2  1  0.50910000  0.25631300  0.24858700  1
  Ni  Ni3  1  0.00083000  0.13313000  0.37537700  1
  Ni  Ni4  1  0.50000000  0.00000000  0.50000000  1
  Ni  Ni5  1  0.99917000  0.86687000  0.62462300  1
  Ni  Ni6  1  0.49090000  0.74368700  0.75141300  1
  O  O0  1  0.89296600  0.30713600  0.97484700  1
  O  O1  1  0.64279800  0.83524800  0.90418800  1
  O  O2  1  0.64393800  0.56096400  0.15656400  1
  O  O3  1  0.35720200  0.16475200  0.09581200  1
  O  O4  1  0.10703400  0.69286400  0.02515300  1
  O  O5  1  0.88265200  0.07680900  0.22153500  1
  O  O6  1  0.15042500  0.45702100  0.26315400  1
  O  O7  1  0.63528500  0.30394300  0.41533900  1
  O  O8  1  0.37029000  0.95103600  0.35041500  1
  O  O9  1  0.86188700  0.79813900  0.48318100  1
  O  O10  1  0.13811300  0.20186100  0.51681900  1
  O  O11  1  0.84957500  0.54297900  0.73684600  1
  O  O12  1  0.62971000  0.04896400  0.64958500  1
  O  O13  1  0.36471500  0.69605700  0.58466100  1
  O  O14  1  0.35606200  0.43903600  0.84343600  1
  O  O15  1  0.11734800  0.92319100  0.77846500  1
loop_
_geom_bond_atom_site_label_1
_geom_bond_atom_site_label_2
_geom_bond_distance
_geom_bond_site_symmetry_2
Li0 O0 2.014649 1_455
Li0 O14 2.059032 1_555
Li0 O1 2.112019 1_545
Li0 O3 2.113579 1_556
Li0 O15 2.174890 1_545
Li0 O4 2.267504 1_546
Li1 O4 2.014649 1_655
Li1 O2 2.059032 1_555
Li1 O3 2.112019 1_565
Li1 O1 2.113579 1_554
Li1 O5 2.174890 1_565
Li1 O0 2.267504 1_564
Li2 O6 2.013203 1_555
Li2 O3 2.031970 1_565
Li2 O5 2.108024 1_465
Li2 O8 2.117898 1_555
Li2 O2 2.146801 1_555
Li2 O4 2.322844 1_555
Li3 O13 2.015864 1_555
Li3 O10 2.033861 1_555
Li3 O7 2.109929 1_555
Li3 O9 2.148538 1_455
Li3 O8 2.222054 1_555
Li3 O6 2.253556 1_555
Li4 O7 2.015864 1_555
Li4 O9 2.033861 1_555
Li4 O13 2.109929 1_555
Li4 O10 2.148538 1_655
Li4 O12 2.222054 1_555
Li4 O11 2.253556 1_555
Li5 O11 2.013203 1_555
Li5 O1 2.031970 1_545
Li5 O15 2.108024 1_645
Li5 O12 2.117898 1_555
Li5 O14 2.146801 1_555
Li5 O0 2.322844 1_555
Mg0 O4 2.023951 1_555
Mg0 O0 2.023951 1_554
Mg0 O14 2.035112 1_554
Mg0 O2 2.035112 1_555
Mg0 O3 2.059960 1_555
Mg0 O1 2.059960 1_554
Ni0 O15 1.889287 1_655
Ni0 O11 1.895380 1_555
Ni0 O14 1.895682 1_655
Ni0 O1 1.896805 1_555
Ni0 O0 1.907883 1_555
Ni0 O4 1.913424 1_656
Ni1 O5 1.889287 1_455
Ni1 O6 1.895380 1_555
Ni1 O2 1.895682 1_455
Ni1 O3 1.896805 1_555
Ni1 O4 1.907883 1_555
Ni1 O0 1.913424 1_454
Ni2 O6 1.880946 1_555
Ni2 O2 1.903594 1_555
Ni2 O5 1.922948 1_555
Ni2 O8 1.958895 1_545
Ni2 O3 2.075748 1_555
Ni2 O7 2.082075 1_555
Ni3 O10 1.880720 1_555
Ni3 O7 1.904155 1_455
Ni3 O8 1.906421 1_545
Ni3 O5 1.945414 1_455
Ni3 O9 2.102488 1_445
Ni3 O6 2.103658 1_555
Ni4 O13 1.872032 1_545
Ni4 O7 1.872032 1_555
Ni4 O10 1.899170 1_555
Ni4 O9 1.899170 1_545
Ni4 O12 1.911250 1_555
Ni4 O8 1.911250 1_545
Ni5 O9 1.880720 1_555
Ni5 O13 1.904155 1_655
Ni5 O12 1.906421 1_565
Ni5 O15 1.945414 1_655
Ni5 O10 2.102488 1_665
Ni5 O11 2.103658 1_555
Ni6 O11 1.880946 1_555
Ni6 O14 1.903594 1_555
Ni6 O15 1.922948 1_555
Ni6 O12 1.958895 1_565
Ni6 O1 2.075748 1_555
Ni6 O13 2.082075 1_555
