# generated using pymatgen
data_Li2Fe3BiO8
_symmetry_space_group_name_H-M   'P 1'
_cell_length_a   8.69862170
_cell_length_b   8.72909456
_cell_length_c   8.71965581
_cell_angle_alpha   90.47034969
_cell_angle_beta   89.59006986
_cell_angle_gamma   89.82211380
_symmetry_Int_Tables_number   1
_chemical_formula_structural   Li2Fe3BiO8
_chemical_formula_sum   'Li8 Fe12 Bi4 O32'
_cell_volume   662.05041360
_cell_formula_units_Z   4
loop_
 _symmetry_equiv_pos_site_id
 _symmetry_equiv_pos_as_xyz
  1  'x, y, z'
loop_
 _atom_site_type_symbol
 _atom_site_label
 _atom_site_symmetry_multiplicity
 _atom_site_fract_x
 _atom_site_fract_y
 _atom_site_fract_z
 _atom_site_occupancy
  Li  Li0  1  0.99784000  0.00561500  0.00017300  1
  Li  Li1  1  0.25295200  0.24447000  0.24811800  1
  Li  Li2  1  0.25526600  0.74707500  0.75010000  1
  Li  Li3  1  0.49827000  0.00092800  0.50126900  1
  Li  Li4  1  0.49790900  0.49909400  0.99907800  1
  Li  Li5  1  0.74762400  0.24592900  0.75078400  1
  Li  Li6  1  0.75118500  0.74855300  0.25435300  1
  Li  Li7  1  0.99758000  0.50341100  0.49857400  1
  Fe  Fe0  1  0.10991200  0.14314500  0.62827700  1
  Fe  Fe1  1  0.12689000  0.39035800  0.86553500  1
  Fe  Fe2  1  0.13606400  0.62606200  0.11273800  1
  Fe  Fe3  1  0.35749000  0.37562300  0.60952700  1
  Fe  Fe4  1  0.37584500  0.60839700  0.36172100  1
  Fe  Fe5  1  0.39223200  0.86020100  0.12115400  1
  Fe  Fe6  1  0.60698400  0.35838500  0.37617100  1
  Fe  Fe7  1  0.62310500  0.10882100  0.14084300  1
  Fe  Fe8  1  0.64374000  0.87696400  0.88893400  1
  Fe  Fe9  1  0.85805100  0.12589000  0.38824800  1
  Fe  Fe10  1  0.87802300  0.88481300  0.63440000  1
  Fe  Fe11  1  0.89368900  0.64389600  0.87322200  1
  Bi  Bi0  1  0.12606400  0.87590700  0.37454100  1
  Bi  Bi1  1  0.37657700  0.12376500  0.87528300  1
  Bi  Bi2  1  0.62305900  0.62372700  0.62490300  1
  Bi  Bi3  1  0.87040800  0.37325100  0.12671900  1
  O  O0  1  0.10153400  0.12124000  0.38692500  1
  O  O1  1  0.10359800  0.89522100  0.62404200  1
  O  O2  1  0.12641200  0.61478000  0.88910400  1
  O  O3  1  0.11653300  0.16519500  0.86268800  1
  O  O4  1  0.13366700  0.40270700  0.09022200  1
  O  O5  1  0.12551100  0.37293300  0.63971800  1
  O  O6  1  0.13292800  0.62592100  0.33964500  1
  O  O7  1  0.14386000  0.85248200  0.12491500  1
  O  O8  1  0.34217900  0.13798500  0.62085000  1
  O  O9  1  0.34507900  0.38489700  0.85033000  1
  O  O10  1  0.35409500  0.63005400  0.12794600  1
  O  O11  1  0.36878200  0.61204400  0.59696900  1
  O  O12  1  0.36989800  0.85106700  0.36364000  1
  O  O13  1  0.37553600  0.37991600  0.38014400  1
  O  O14  1  0.38537800  0.09302800  0.13028100  1
  O  O15  1  0.40383400  0.86869000  0.88675300  1
  O  O16  1  0.59433700  0.36938600  0.61410700  1
  O  O17  1  0.60753600  0.59892900  0.36776000  1
  O  O18  1  0.62033200  0.87673800  0.12016100  1
  O  O19  1  0.61886300  0.34866800  0.13921200  1
  O  O20  1  0.63016600  0.11124600  0.90306300  1
  O  O21  1  0.63043100  0.12865300  0.37079900  1
  O  O22  1  0.65471200  0.88203100  0.64987900  1
  O  O23  1  0.66118500  0.63820700  0.88146100  1
  O  O24  1  0.85091700  0.35862100  0.38256400  1
  O  O25  1  0.86178000  0.11933100  0.15298400  1
  O  O26  1  0.87638900  0.87408000  0.85722900  1
  O  O27  1  0.87753500  0.88304100  0.40776400  1
  O  O28  1  0.88630600  0.66496000  0.63734100  1
  O  O29  1  0.88080400  0.10383200  0.62133300  1
  O  O30  1  0.90677800  0.40499000  0.86599800  1
  O  O31  1  0.91634200  0.63498600  0.10964700  1
loop_
_geom_bond_atom_site_label_1
_geom_bond_atom_site_label_2
_geom_bond_distance
_geom_bond_site_symmetry_2
Li0 O26 1.997716 1_544
Li0 O25 2.027302 1_555
Li0 O3 2.112395 1_654
Li0 O7 2.148568 1_645
Li1 O13 1.965518 1_555
Li1 O14 2.020283 1_555
Li1 O0 2.089075 1_555
Li1 O4 2.218756 1_555
Li2 O2 2.017571 1_555
Li2 O11 2.023688 1_555
Li2 O15 2.055900 1_555
Li2 O1 2.157445 1_555
Li3 O21 1.966978 1_555
Li3 O8 2.076367 1_555
Li3 O12 2.097819 1_545
Li3 O22 2.155628 1_545
Li4 O10 2.020981 1_556
Li4 O19 2.088162 1_556
Li4 O9 2.110682 1_555
Li4 O23 2.133989 1_555
Li5 O29 2.025862 1_555
Li5 O20 2.050092 1_555
Li5 O16 2.096311 1_555
Li5 O30 2.205141 1_555
Li6 O18 1.987313 1_555
Li6 O17 2.063672 1_555
Li6 O27 2.092563 1_555
Li6 O31 2.140903 1_555
Li7 O5 2.021144 1_655
Li7 O24 2.062945 1_555
Li7 O28 2.082388 1_555
Li7 O6 2.111638 1_655
Fe0 O5 2.012551 1_555
Fe0 O8 2.021328 1_555
Fe0 O29 2.024551 1_455
Fe0 O3 2.052687 1_555
Fe0 O0 2.113408 1_555
Fe0 O1 2.165038 1_545
Fe1 O9 1.902045 1_555
Fe1 O30 1.918504 1_455
Fe1 O4 1.962590 1_556
Fe1 O3 1.967773 1_555
Fe1 O2 1.968061 1_555
Fe1 O5 1.973792 1_555
Fe2 O10 1.902553 1_555
Fe2 O31 1.913015 1_455
Fe2 O2 1.954107 1_554
Fe2 O4 1.958133 1_555
Fe2 O6 1.978554 1_555
Fe2 O7 1.979819 1_555
Fe3 O13 2.005837 1_555
Fe3 O5 2.033362 1_555
Fe3 O16 2.061474 1_555
Fe3 O11 2.070141 1_555
Fe3 O8 2.082154 1_555
Fe3 O9 2.102603 1_555
Fe4 O13 2.002214 1_555
Fe4 O17 2.017911 1_555
Fe4 O11 2.051745 1_555
Fe4 O10 2.058734 1_555
Fe4 O12 2.118686 1_555
Fe4 O6 2.128310 1_555
Fe5 O18 1.989809 1_555
Fe5 O14 2.033946 1_565
Fe5 O10 2.038467 1_555
Fe5 O15 2.047625 1_554
Fe5 O12 2.124088 1_555
Fe5 O7 2.161776 1_555
Fe6 O21 2.015195 1_555
Fe6 O13 2.021475 1_555
Fe6 O19 2.069075 1_555
Fe6 O16 2.078265 1_555
Fe6 O17 2.101633 1_555
Fe6 O24 2.123019 1_555
Fe7 O21 2.012661 1_555
Fe7 O18 2.032643 1_545
Fe7 O20 2.074114 1_554
Fe7 O14 2.075566 1_555
Fe7 O25 2.081866 1_555
Fe7 O19 2.094025 1_555
Fe8 O18 2.025043 1_556
Fe8 O26 2.040611 1_555
Fe8 O20 2.050753 1_565
Fe8 O22 2.086817 1_555
Fe8 O15 2.088542 1_555
Fe8 O23 2.089628 1_555
Fe9 O21 1.986990 1_555
Fe9 O24 2.033308 1_555
Fe9 O25 2.051772 1_555
Fe9 O29 2.054002 1_555
Fe9 O0 2.118176 1_655
Fe9 O27 2.134376 1_545
Fe10 O29 1.916381 1_565
Fe10 O28 1.920635 1_555
Fe10 O26 1.945970 1_555
Fe10 O22 1.946458 1_555
Fe10 O1 1.966040 1_655
Fe10 O27 1.976157 1_555
Fe11 O26 2.020494 1_555
Fe11 O23 2.024004 1_555
Fe11 O2 2.045297 1_655
Fe11 O28 2.067943 1_555
Fe11 O31 2.074414 1_556
Fe11 O30 2.088595 1_555
Bi0 O12 2.132767 1_555
Bi0 O0 2.153230 1_565
Bi0 O27 2.179758 1_455
Bi0 O1 2.188008 1_555
Bi0 O7 2.188896 1_555
Bi0 O6 2.201356 1_555
Bi1 O20 2.223305 1_555
Bi1 O15 2.241555 1_545
Bi1 O14 2.243631 1_556
Bi1 O8 2.245166 1_555
Bi1 O3 2.293192 1_555
Bi1 O9 2.307250 1_555
Bi2 O11 2.229519 1_555
Bi2 O16 2.236241 1_555
Bi2 O17 2.255901 1_555
Bi2 O23 2.266452 1_555
Bi2 O22 2.281191 1_555
Bi2 O28 2.322266 1_555
Bi3 O19 2.201264 1_555
Bi3 O25 2.231600 1_555
Bi3 O24 2.240822 1_555
Bi3 O30 2.312094 1_554
Bi3 O4 2.325085 1_655
Bi3 O31 2.326394 1_555
