# generated using pymatgen
data_Li4Co2Ni3Sn(PO4)6
_symmetry_space_group_name_H-M   'P 1'
_cell_length_a   8.40767800
_cell_length_b   8.51447846
_cell_length_c   8.51473330
_cell_angle_alpha   62.70720911
_cell_angle_beta   63.07883216
_cell_angle_gamma   63.10660669
_symmetry_Int_Tables_number   1
_chemical_formula_structural   Li4Co2Ni3Sn(PO4)6
_chemical_formula_sum   'Li4 Co2 Ni3 Sn1 P6 O24'
_cell_volume   459.37165335
_cell_formula_units_Z   1
loop_
 _symmetry_equiv_pos_site_id
 _symmetry_equiv_pos_as_xyz
  1  'x, y, z'
loop_
 _atom_site_type_symbol
 _atom_site_label
 _atom_site_symmetry_multiplicity
 _atom_site_fract_x
 _atom_site_fract_y
 _atom_site_fract_z
 _atom_site_occupancy
  Li  Li0  1  0.25333300  0.64791700  0.85209600  1
  Li  Li1  1  0.70505100  0.35982600  0.15561200  1
  Li  Li2  1  0.36382100  0.15179000  0.70533600  1
  Li  Li3  1  0.15105200  0.70213700  0.36306000  1
  Co  Co0  1  0.98341900  0.00118600  0.99883800  1
  Co  Co1  1  0.51225100  0.50116000  0.49653700  1
  Ni  Ni0  1  0.85706100  0.85491900  0.85243700  1
  Ni  Ni1  1  0.64436100  0.64746700  0.64413300  1
  Ni  Ni2  1  0.35391100  0.34982000  0.35315200  1
  Sn  Sn0  1  0.14724400  0.14808700  0.15207600  1
  P  P0  1  0.74956300  0.04649200  0.45717600  1
  P  P1  1  0.44843200  0.74833200  0.04571000  1
  P  P2  1  0.05512400  0.45709000  0.75169100  1
  P  P3  1  0.94295900  0.55911700  0.25531700  1
  P  P4  1  0.56078300  0.25256200  0.94463500  1
  P  P5  1  0.25371300  0.94556700  0.55919700  1
  O  O0  1  0.89010500  0.50144800  0.69633500  1
  O  O1  1  0.68589300  0.89435700  0.48482500  1
  O  O2  1  0.94360600  0.74216800  0.08953700  1
  O  O3  1  0.45469100  0.69013900  0.89808900  1
  O  O4  1  0.97884200  0.39677800  0.19030200  1
  O  O5  1  0.74871700  0.57271100  0.40413800  1
  O  O6  1  0.75137800  0.09821500  0.92448600  1
  O  O7  1  0.55364900  0.41360400  0.75940400  1
  O  O8  1  0.82697800  0.01237100  0.60164900  1
  O  O9  1  0.40050300  0.74927300  0.57541600  1
  O  O10  1  0.89954700  0.08048200  0.24792500  1
  O  O11  1  0.60654100  0.81627300  0.99542500  1
  O  O12  1  0.39954200  0.18049200  0.98434400  1
  O  O13  1  0.10178600  0.92303300  0.75317800  1
  O  O14  1  0.59509400  0.24507900  0.43466800  1
  O  O15  1  0.18733300  0.97936200  0.39895800  1
  O  O16  1  0.43481600  0.59250800  0.24292700  1
  O  O17  1  0.24241300  0.90124900  0.08467900  1
  O  O18  1  0.25121800  0.43002200  0.59385800  1
  O  O19  1  0.04370500  0.59814500  0.82179100  1
  O  O20  1  0.52420000  0.31397100  0.10407300  1
  O  O21  1  0.07857600  0.25011100  0.90339900  1
  O  O22  1  0.31738200  0.10341900  0.52281400  1
  O  O23  1  0.10141500  0.51832200  0.32378200  1
loop_
_geom_bond_atom_site_label_1
_geom_bond_atom_site_label_2
_geom_bond_distance
_geom_bond_site_symmetry_2
Li0 O13 2.069382 1_555
Li0 O9 2.070690 1_555
Li0 O3 2.104461 1_555
Li0 O19 2.130807 1_555
Li0 O7 2.461881 1_555
Li0 O2 2.518464 1_456
Li1 O20 1.988840 1_555
Li1 O14 2.038147 1_555
Li1 O10 2.209033 1_555
Li1 O16 2.321416 1_555
Li1 O4 2.615594 1_555
Li2 O22 2.004825 1_555
Li2 O18 2.032736 1_555
Li2 O21 2.261096 1_555
Li2 O14 2.320307 1_555
Li3 O23 1.983135 1_555
Li3 O16 2.064154 1_555
Li3 O17 2.219635 1_555
Li3 O18 2.344599 1_555
Co0 O6 2.017451 1_555
Co0 O2 2.108097 1_546
Co0 O13 2.144973 1_645
Co0 O10 2.231493 1_556
Co0 O21 2.271201 1_655
Co0 O17 2.279161 1_646
Co1 O5 2.045133 1_555
Co1 O7 2.151073 1_555
Co1 O9 2.175062 1_555
Co1 O14 2.205448 1_555
Co1 O18 2.228371 1_555
Co1 O16 2.228588 1_555
Ni0 O11 1.991106 1_555
Ni0 O8 1.994518 1_565
Ni0 O13 2.083162 1_655
Ni0 O19 2.087858 1_655
Ni0 O2 2.108953 1_556
Ni0 O6 2.112775 1_565
Ni1 O1 2.000262 1_555
Ni1 O0 2.003287 1_555
Ni1 O9 2.076236 1_555
Ni1 O7 2.100878 1_555
Ni1 O5 2.101161 1_555
Ni1 O3 2.103492 1_555
Ni2 O22 1.996110 1_555
Ni2 O23 2.005984 1_555
Ni2 O20 2.022301 1_555
Ni2 O14 2.111834 1_555
Ni2 O16 2.127992 1_555
Ni2 O18 2.135453 1_555
O0 P2 1.498207 1_655
O1 P0 1.501148 1_565
O2 P3 1.550758 1_555
O3 P1 1.521799 1_556
O4 P3 1.575209 1_555
O4 Sn0 2.024062 1_655
O5 P3 1.541354 1_555
O6 P4 1.541771 1_555
O7 P4 1.548954 1_555
O8 P0 1.499178 1_555
O9 P5 1.553132 1_555
O10 P0 1.634377 1_555
O10 Sn0 2.109274 1_655
O11 P1 1.496067 1_556
O12 P4 1.573510 1_555
O12 Sn0 2.010047 1_556
O13 P5 1.554719 1_555
O14 P0 1.588720 1_555
O15 P5 1.562066 1_555
O15 Sn0 2.007597 1_565
O16 P1 1.585370 1_555
O17 P1 1.625156 1_555
O17 Sn0 2.134391 1_565
O18 P2 1.584715 1_555
O19 P2 1.519580 1_555
O20 P4 1.529169 1_554
O21 P2 1.625376 1_555
O21 Sn0 2.130217 1_556
O22 P5 1.519146 1_545
O23 P3 1.527848 1_455
