# generated using pymatgen
data_Li4Mn5NiO12
_symmetry_space_group_name_H-M   'P 1'
_cell_length_a   5.13095255
_cell_length_b   5.13095255
_cell_length_c   10.25207850
_cell_angle_alpha   89.73096921
_cell_angle_beta   89.73096921
_cell_angle_gamma   120.10401013
_symmetry_Int_Tables_number   1
_chemical_formula_structural   Li4Mn5NiO12
_chemical_formula_sum   'Li4 Mn5 Ni1 O12'
_cell_volume   233.48727229
_cell_formula_units_Z   1
loop_
 _symmetry_equiv_pos_site_id
 _symmetry_equiv_pos_as_xyz
  1  'x, y, z'
loop_
 _atom_site_type_symbol
 _atom_site_label
 _atom_site_symmetry_multiplicity
 _atom_site_fract_x
 _atom_site_fract_y
 _atom_site_fract_z
 _atom_site_occupancy
  Li  Li0  1  0.33398600  0.83868900  0.75147800  1
  Li  Li1  1  0.16131100  0.66601400  0.24852200  1
  Li  Li2  1  0.83868900  0.33398600  0.75147800  1
  Li  Li3  1  0.66601400  0.16131100  0.24852200  1
  Mn  Mn0  1  0.16359000  0.83641000  0.50000000  1
  Mn  Mn1  1  0.33704300  0.66295700  0.00000000  1
  Mn  Mn2  1  0.50000000  0.50000000  0.50000000  1
  Mn  Mn3  1  0.66295700  0.33704300  0.00000000  1
  Mn  Mn4  1  0.83641000  0.16359000  0.50000000  1
  Ni  Ni0  1  0.00000000  0.00000000  0.00000000  1
  O  O0  1  0.00476300  0.64266300  0.89555400  1
  O  O1  1  0.35733700  0.99523700  0.10444600  1
  O  O2  1  0.15641600  0.51920500  0.60839600  1
  O  O3  1  0.48079500  0.84358400  0.39160400  1
  O  O4  1  0.35156900  0.35156900  0.90187500  1
  O  O5  1  0.17422900  0.17422900  0.40591700  1
  O  O6  1  0.64843100  0.64843100  0.09812500  1
  O  O7  1  0.82577100  0.82577100  0.59408300  1
  O  O8  1  0.51920500  0.15641600  0.60839600  1
  O  O9  1  0.84358400  0.48079500  0.39160400  1
  O  O10  1  0.99523700  0.35733700  0.10444600  1
  O  O11  1  0.64266300  0.00476300  0.89555400  1
loop_
_geom_bond_atom_site_label_1
_geom_bond_atom_site_label_2
_geom_bond_distance
_geom_bond_site_symmetry_2
Li0 O11 2.023924 1_565
Li0 O8 2.030492 1_565
Li0 O2 2.050839 1_555
Li0 O0 2.074882 1_555
Li1 O10 2.023924 1_455
Li1 O9 2.030492 1_455
Li1 O3 2.050839 1_555
Li1 O1 2.074882 1_555
Li2 O0 2.023924 1_655
Li2 O2 2.030492 1_655
Li2 O8 2.050839 1_555
Li2 O11 2.074882 1_555
Li3 O1 2.023924 1_545
Li3 O3 2.030492 1_545
Li3 O9 2.050839 1_555
Li3 O10 2.074882 1_555
Mn0 O3 1.951360 1_555
Mn0 O2 1.951360 1_555
Mn0 O5 1.956186 1_565
Mn0 O7 1.956186 1_455
Mn0 O9 2.071484 1_455
Mn0 O8 2.071484 1_565
Mn1 O6 1.924606 1_555
Mn1 O4 1.924606 1_554
Mn1 O10 1.972098 1_455
Mn1 O11 1.972098 1_564
Mn1 O0 1.975921 1_554
Mn1 O1 1.975921 1_555
Mn2 O7 1.935411 1_555
Mn2 O5 1.935411 1_555
Mn2 O9 2.123539 1_555
Mn2 O3 2.123539 1_555
Mn2 O2 2.123539 1_555
Mn2 O8 2.123539 1_555
Mn3 O4 1.924606 1_554
Mn3 O6 1.924606 1_555
Mn3 O1 1.972098 1_545
Mn3 O0 1.972098 1_654
Mn3 O10 1.975921 1_555
Mn3 O11 1.975921 1_554
Mn4 O9 1.951360 1_555
Mn4 O8 1.951360 1_555
Mn4 O5 1.956186 1_655
Mn4 O7 1.956186 1_545
Mn4 O3 2.071484 1_545
Mn4 O2 2.071484 1_655
Ni0 O6 2.054676 1_445
Ni0 O4 2.054676 1_554
Ni0 O11 2.138217 1_454
Ni0 O10 2.138217 1_455
Ni0 O1 2.138217 1_545
Ni0 O0 2.138217 1_544
