# generated using pymatgen
data_Y5U2O12
_symmetry_space_group_name_H-M   'P 1'
_cell_length_a   6.54512180
_cell_length_b   6.57039439
_cell_length_c   19.45357565
_cell_angle_alpha   96.92418042
_cell_angle_beta   97.06592665
_cell_angle_gamma   99.21053347
_symmetry_Int_Tables_number   1
_chemical_formula_structural   Y5U2O12
_chemical_formula_sum   'Y15 U6 O36'
_cell_volume   811.08231691
_cell_formula_units_Z   3
loop_
 _symmetry_equiv_pos_site_id
 _symmetry_equiv_pos_as_xyz
  1  'x, y, z'
loop_
 _atom_site_type_symbol
 _atom_site_label
 _atom_site_symmetry_multiplicity
 _atom_site_fract_x
 _atom_site_fract_y
 _atom_site_fract_z
 _atom_site_occupancy
  Y  Y0  1  0.29293232  0.82506013  0.43638188  1
  Y  Y1  1  0.96115595  0.49379867  0.10304588  1
  Y  Y2  1  0.62854279  0.16451543  0.76968449  1
  Y  Y3  1  0.89157459  0.59361221  0.28661916  1
  Y  Y4  1  0.22458776  0.92737465  0.62040745  1
  Y  Y5  1  0.56015640  0.26932885  0.95496590  1
  Y  Y6  1  0.44760089  0.27425633  0.12990515  1
  Y  Y7  1  0.78082195  0.60740213  0.46286726  1
  Y  Y8  1  0.10398125  0.94023010  0.79677406  1
  Y  Y9  1  0.89014940  0.06755888  0.20137510  1
  Y  Y10  1  0.22279993  0.40033575  0.53531335  1
  Y  Y11  1  0.43913844  0.73293273  0.04784779  1
  Y  Y12  1  0.77554917  0.06699131  0.38075392  1
  Y  Y13  1  0.10770928  0.39779067  0.71555905  1
  Y  Y14  1  0.03743965  0.50214237  0.89620391  1
  U  U0  1  0.33311757  0.33042328  0.33432086  1
  U  U1  1  0.66624071  0.66381281  0.66649275  1
  U  U2  1  0.00297140  0.00091147  0.00017881  1
  U  U3  1  0.55730217  0.73074783  0.86850415  1
  U  U4  1  0.36964350  0.83378786  0.23005644  1
  U  U5  1  0.70247321  0.16590464  0.56283296  1
  O  O0  1  0.02955843  0.15990142  0.10463606  1
  O  O1  1  0.35996851  0.49084939  0.43839730  1
  O  O2  1  0.69961996  0.83007309  0.77150514  1
  O  O3  1  0.58390938  0.95688706  0.64211632  1
  O  O4  1  0.25080320  0.62367166  0.30938908  1
  O  O5  1  0.91844054  0.28931786  0.97416838  1
  O  O6  1  0.77876698  0.37152218  0.18986343  1
  O  O7  1  0.11100808  0.70443816  0.52350715  1
  O  O8  1  0.44594653  0.02752879  0.85811023  1
  O  O9  1  0.02825361  0.77221973  0.19613948  1
  O  O10  1  0.67504952  0.43753991  0.86098175  1
  O  O11  1  0.36054777  0.10477902  0.52928583  1
  O  O12  1  0.33485196  0.09648700  0.01768718  1
  O  O13  1  0.66433570  0.42846937  0.35128843  1
  O  O14  1  0.99588955  0.76125657  0.68430235  1
  O  O15  1  0.62998549  0.47540870  0.05916301  1
  O  O16  1  0.96175904  0.80781334  0.39172660  1
  O  O17  1  0.29400925  0.13862676  0.72619741  1
  O  O18  1  0.69723466  0.85622560  0.27187626  1
  O  O19  1  0.03026357  0.18985947  0.60569007  1
  O  O20  1  0.36784988  0.52606294  0.94054622  1
  O  O21  1  0.99965521  0.23717507  0.31480512  1
  O  O22  1  0.33439474  0.57067312  0.64879908  1
  O  O23  1  0.66657576  0.90260311  0.98162928  1
  O  O24  1  0.65014223  0.90052714  0.47270188  1
  O  O25  1  0.31756144  0.56805784  0.13954540  1
  O  O26  1  0.98038076  0.23602721  0.80584049  1
  O  O27  1  0.55751522  0.96582836  0.14306141  1
  O  O28  1  0.89130014  0.29799573  0.47607968  1
  O  O29  1  0.22703004  0.63291350  0.80912510  1
  O  O30  1  0.08065305  0.71342664  0.02650396  1
  O  O31  1  0.41612779  0.04017465  0.35883690  1
  O  O32  1  0.74767812  0.37442584  0.69166345  1
  O  O33  1  0.30734664  0.17605891  0.22878949  1
  O  O34  1  0.63947663  0.50843589  0.56136390  1
  O  O35  1  0.97022128  0.83782388  0.89457984  1
loop_
_geom_bond_atom_site_label_1
_geom_bond_atom_site_label_2
_geom_bond_distance
_geom_bond_site_symmetry_2
O0 U2 2.143318 1_555
O0 Y9 2.294089 1_455
O0 Y1 2.311210 1_455
O0 Y6 2.685993 1_555
O1 U0 2.140041 1_555
O1 Y10 2.286952 1_555
O1 Y0 2.311053 1_555
O1 Y7 2.704581 1_555
O2 U1 2.165662 1_555
O2 Y2 2.321267 1_565
O2 U3 2.321421 1_555
O2 Y8 2.598246 1_655
O3 U1 2.170880 1_555
O3 U5 2.308909 1_565
O3 Y4 2.310162 1_555
O3 Y2 2.642497 1_565
O4 U0 2.175139 1_555
O4 Y3 2.310273 1_455
O4 U4 2.314733 1_555
O4 Y0 2.618687 1_555
O5 U2 2.156590 1_656
O5 Y14 2.305571 1_655
O5 Y5 2.308667 1_555
O5 Y1 2.657829 1_556
O6 Y3 2.206414 1_555
O6 Y9 2.259206 1_555
O6 Y6 2.285148 1_555
O6 Y1 2.332187 1_555
O7 Y4 2.211911 1_555
O7 Y10 2.262241 1_555
O7 Y7 2.284481 1_455
O7 Y0 2.331713 1_555
O8 U3 2.210935 1_545
O8 Y5 2.276958 1_555
O8 Y8 2.351440 1_545
O8 Y2 2.394205 1_555
O9 U4 2.208003 1_555
O9 Y9 2.264829 1_465
O9 Y1 2.359541 1_455
O9 Y3 2.413487 1_455
O10 U3 2.182150 1_555
O10 Y2 2.321431 1_555
O10 Y14 2.341635 1_655
O10 Y5 2.385199 1_555
O11 U5 2.210283 1_555
O11 Y10 2.264782 1_555
O11 Y0 2.362616 1_545
O11 Y4 2.418061 1_545
O12 U2 2.135073 1_555
O12 Y5 2.278967 1_554
O12 Y6 2.321086 1_555
O12 Y11 2.697658 1_545
O13 U0 2.132884 1_555
O13 Y3 2.290186 1_555
O13 Y7 2.316379 1_555
O13 Y12 2.697838 1_555
O14 U1 2.122626 1_555
O14 Y4 2.288826 1_655
O14 Y8 2.324448 1_655
O14 Y13 2.721876 1_655
O15 Y1 2.208550 1_555
O15 Y5 2.250164 1_554
O15 Y11 2.273870 1_555
O15 Y6 2.324498 1_555
O16 Y0 2.213645 1_655
O16 Y12 2.262492 1_565
O16 Y3 2.289262 1_555
O16 Y7 2.322727 1_555
O17 Y2 2.220172 1_555
O17 Y13 2.262032 1_555
O17 Y4 2.290780 1_545
O17 Y8 2.337482 1_545
O18 U4 2.172925 1_555
O18 Y3 2.325857 1_555
O18 Y12 2.337751 1_565
O18 Y9 2.393179 1_565
O19 U5 2.177827 1_455
O19 Y4 2.325005 1_545
O19 Y13 2.345074 1_555
O19 Y10 2.387034 1_555
O20 Y14 2.201158 1_555
O20 Y5 2.283701 1_555
O20 Y11 2.301235 1_556
O20 U3 2.378760 1_555
O21 U0 2.143602 1_655
O21 Y12 2.309017 1_555
O21 Y9 2.321019 1_555
O21 Y3 2.651462 1_555
O22 U1 2.133126 1_555
O22 Y10 2.325052 1_555
O22 Y13 2.338485 1_555
O22 Y4 2.658579 1_555
O23 U2 2.165225 1_666
O23 U3 2.320485 1_555
O23 Y11 2.324851 1_556
O23 Y5 2.703660 1_565
O24 Y7 2.226251 1_555
O24 U5 2.270643 1_565
O24 Y0 2.312845 1_555
O24 Y12 2.369600 1_565
O25 Y6 2.227991 1_555
O25 U4 2.277150 1_555
O25 Y1 2.308335 1_455
O25 Y11 2.351176 1_555
O26 Y8 2.217777 1_645
O26 Y14 2.274907 1_655
O26 Y2 2.279020 1_555
O26 Y13 2.331388 1_655
O27 Y11 2.226359 1_555
O27 Y9 2.284134 1_565
O27 Y6 2.288269 1_565
O27 U4 2.377657 1_555
O28 Y12 2.219045 1_555
O28 Y10 2.284429 1_655
O28 Y7 2.296202 1_555
O28 U5 2.377352 1_555
O29 Y13 2.212610 1_555
O29 U3 2.276440 1_555
O29 Y8 2.318068 1_555
O29 Y14 2.382113 1_555
O30 U2 2.136654 1_565
O30 Y11 2.311994 1_555
O30 Y1 2.313988 1_455
O30 Y14 2.698492 1_554
O31 U0 2.155623 1_555
O31 Y12 2.312860 1_555
O31 Y0 2.317755 1_545
O31 U4 2.658749 1_545
O32 U1 2.150315 1_555
O32 Y2 2.294667 1_555
O32 Y13 2.321637 1_655
O32 U5 2.665639 1_555
O33 U0 2.151692 1_555
O33 Y6 2.345955 1_555
O33 U4 2.351307 1_545
O33 Y9 2.678757 1_455
O34 U1 2.146315 1_555
O34 Y7 2.343951 1_555
O34 U5 2.354897 1_555
O34 Y10 2.674324 1_555
O35 U2 2.168319 1_666
O35 Y8 2.317165 1_655
O35 Y14 2.320143 1_655
O35 U3 2.650349 1_555
