# generated using pymatgen
data_Li2MnF5
_symmetry_space_group_name_H-M   'P 1'
_cell_length_a   6.35248300
_cell_length_b   6.91665500
_cell_length_c   9.87884400
_cell_angle_alpha   90.00000000
_cell_angle_beta   90.00000000
_cell_angle_gamma   90.00000000
_symmetry_Int_Tables_number   1
_chemical_formula_structural   Li2MnF5
_chemical_formula_sum   'Li8 Mn4 F20'
_cell_volume   434.05598880
_cell_formula_units_Z   4
loop_
 _symmetry_equiv_pos_site_id
 _symmetry_equiv_pos_as_xyz
  1  'x, y, z'
loop_
 _atom_site_type_symbol
 _atom_site_label
 _atom_site_symmetry_multiplicity
 _atom_site_fract_x
 _atom_site_fract_y
 _atom_site_fract_z
 _atom_site_occupancy
  Li  Li0  1  0.76201800  0.25390900  0.04623400  1
  Li  Li1  1  0.23920300  0.54864300  0.17526500  1
  Li  Li2  1  0.73920300  0.04864300  0.32473500  1
  Li  Li3  1  0.26201800  0.75390900  0.45376600  1
  Li  Li4  1  0.73798200  0.25390900  0.54623400  1
  Li  Li5  1  0.26079700  0.54864300  0.67526500  1
  Li  Li6  1  0.76079700  0.04864300  0.82473500  1
  Li  Li7  1  0.23798200  0.75390900  0.95376600  1
  Mn  Mn0  1  0.74056500  0.73727300  0.09208500  1
  Mn  Mn1  1  0.24056500  0.23727300  0.40791500  1
  Mn  Mn2  1  0.75943500  0.73727300  0.59208500  1
  Mn  Mn3  1  0.25943500  0.23727300  0.90791500  1
  F  F0  1  0.03597500  0.72911900  0.09857700  1
  F  F1  1  0.44547400  0.73099800  0.09714000  1
  F  F2  1  0.24619400  0.29954900  0.10645500  1
  F  F3  1  0.74006200  0.47711000  0.14188300  1
  F  F4  1  0.74182200  0.01401700  0.13788000  1
  F  F5  1  0.24006200  0.97711000  0.35811700  1
  F  F6  1  0.24182200  0.51401700  0.36212000  1
  F  F7  1  0.74619400  0.79954900  0.39354500  1
  F  F8  1  0.94547400  0.23099800  0.40286000  1
  F  F9  1  0.53597500  0.22911900  0.40142300  1
  F  F10  1  0.46402500  0.72911900  0.59857700  1
  F  F11  1  0.05452600  0.73099800  0.59714000  1
  F  F12  1  0.25380600  0.29954900  0.60645500  1
  F  F13  1  0.75993800  0.47711000  0.64188300  1
  F  F14  1  0.75817800  0.01401700  0.63788000  1
  F  F15  1  0.25993800  0.97711000  0.85811700  1
  F  F16  1  0.25817800  0.51401700  0.86212000  1
  F  F17  1  0.75380600  0.79954900  0.89354500  1
  F  F18  1  0.55452600  0.23099800  0.90286000  1
  F  F19  1  0.96402500  0.22911900  0.90142300  1
loop_
_geom_bond_atom_site_label_1
_geom_bond_atom_site_label_2
_geom_bond_distance
_geom_bond_site_symmetry_2
F0 Mn0 1.878529 1_455
F0 Li7 1.929414 1_554
F0 Li1 1.949066 1_555
F1 Mn0 1.875728 1_555
F1 Li7 1.941281 1_554
F1 Li1 1.975720 1_555
F2 Li1 1.852681 1_555
F2 Mn3 2.009848 1_554
F3 Li0 1.815385 1_555
F3 Mn0 1.865495 1_555
F4 Li2 1.861458 1_555
F4 Li0 1.894529 1_555
F4 Mn0 1.966894 1_545
F5 Li3 1.815385 1_555
F5 Mn1 1.865495 1_565
F6 Li1 1.861458 1_555
F6 Li3 1.894529 1_555
F6 Mn1 1.966894 1_555
F7 Li2 1.852681 1_565
F7 Mn2 2.009848 1_555
F8 Mn1 1.875728 1_655
F8 Li4 1.941281 1_555
F8 Li2 1.975720 1_555
F9 Mn1 1.878529 1_555
F9 Li4 1.929414 1_555
F9 Li2 1.949066 1_555
F10 Mn2 1.878529 1_555
F10 Li3 1.929414 1_555
F10 Li5 1.949066 1_555
F11 Mn2 1.875728 1_455
F11 Li3 1.941281 1_555
F11 Li5 1.975720 1_555
F12 Li5 1.852681 1_555
F12 Mn1 2.009848 1_555
F13 Li4 1.815385 1_555
F13 Mn2 1.865495 1_555
F14 Li6 1.861458 1_555
F14 Li4 1.894529 1_555
F14 Mn2 1.966894 1_545
F15 Li7 1.815385 1_555
F15 Mn3 1.865495 1_565
F16 Li5 1.861458 1_555
F16 Li7 1.894529 1_555
F16 Mn3 1.966894 1_555
F17 Li6 1.852681 1_565
F17 Mn0 2.009848 1_556
F18 Mn3 1.875728 1_555
F18 Li0 1.941281 1_556
F18 Li6 1.975720 1_555
F19 Mn3 1.878529 1_655
F19 Li0 1.929414 1_556
F19 Li6 1.949066 1_555
