# generated using pymatgen
data_YNb2NO5
_symmetry_space_group_name_H-M   'P 1'
_cell_length_a   15.02591600
_cell_length_b   5.29526500
_cell_length_c   5.93865852
_cell_angle_alpha   89.67164045
_cell_angle_beta   90.00000000
_cell_angle_gamma   90.00000000
_symmetry_Int_Tables_number   1
_chemical_formula_structural   YNb2NO5
_chemical_formula_sum   'Y4 Nb8 N4 O20'
_cell_volume   472.50877433
_cell_formula_units_Z   4
loop_
 _symmetry_equiv_pos_site_id
 _symmetry_equiv_pos_as_xyz
  1  'x, y, z'
loop_
 _atom_site_type_symbol
 _atom_site_label
 _atom_site_symmetry_multiplicity
 _atom_site_fract_x
 _atom_site_fract_y
 _atom_site_fract_z
 _atom_site_occupancy
  Y  Y0  1  0.24968900  0.25743500  0.69967800  1
  Y  Y1  1  0.24807700  0.75752700  0.29254200  1
  Y  Y2  1  0.75192300  0.75752700  0.79254200  1
  Y  Y3  1  0.75031100  0.25743500  0.19967800  1
  Nb  Nb0  1  0.08769600  0.74331800  0.82667000  1
  Nb  Nb1  1  0.08196700  0.22434700  0.17599200  1
  Nb  Nb2  1  0.91803300  0.22434700  0.67599200  1
  Nb  Nb3  1  0.91230400  0.74331800  0.32667000  1
  Nb  Nb4  1  0.58695400  0.27584800  0.68512500  1
  Nb  Nb5  1  0.58138300  0.77506500  0.31481100  1
  Nb  Nb6  1  0.41861700  0.77506500  0.81481100  1
  Nb  Nb7  1  0.41304600  0.27584800  0.18512500  1
  N  N0  1  0.15160100  0.03235000  0.92367200  1
  N  N1  1  0.84839900  0.03235000  0.42367200  1
  N  N2  1  0.66848900  0.39539600  0.88380800  1
  N  N3  1  0.33151100  0.39539600  0.38380800  1
  O  O0  1  0.16362300  0.10417800  0.39355300  1
  O  O1  1  0.16831100  0.60628300  0.61397500  1
  O  O2  1  0.14973400  0.53435200  0.09086800  1
  O  O3  1  0.00627100  0.39633400  0.87297300  1
  O  O4  1  0.00433000  0.90212000  0.13360200  1
  O  O5  1  0.99372900  0.39633400  0.37297200  1
  O  O6  1  0.99567000  0.90212000  0.63360200  1
  O  O7  1  0.85026600  0.53435200  0.59086800  1
  O  O8  1  0.83637700  0.10417800  0.89355300  1
  O  O9  1  0.83168900  0.60628300  0.11397500  1
  O  O10  1  0.66711300  0.89641800  0.11378400  1
  O  O11  1  0.64923400  0.95743700  0.58165700  1
  O  O12  1  0.64784800  0.46334800  0.40779500  1
  O  O13  1  0.50584500  0.59825800  0.62873200  1
  O  O14  1  0.50446100  0.07998500  0.36076300  1
  O  O15  1  0.49553900  0.07998500  0.86076300  1
  O  O16  1  0.49415500  0.59825800  0.12873200  1
  O  O17  1  0.35215200  0.46334800  0.90779500  1
  O  O18  1  0.35076600  0.95743700  0.08165700  1
  O  O19  1  0.33288700  0.89641800  0.61378400  1
loop_
_geom_bond_atom_site_label_1
_geom_bond_atom_site_label_2
_geom_bond_distance
_geom_bond_site_symmetry_2
Nb0 O1 1.897318 1_555
Nb0 O6 1.980590 1_455
Nb0 O2 2.129594 1_556
Nb0 O3 2.223213 1_555
Nb0 O4 2.369870 1_556
Nb1 O0 1.889504 1_555
Nb1 O5 1.991968 1_455
Nb1 O2 1.994395 1_555
Nb1 O4 2.083400 1_545
Nb1 O3 2.311406 1_554
Nb2 O8 1.889504 1_555
Nb2 O3 1.991972 1_655
Nb2 O7 1.994395 1_555
Nb2 O6 2.083400 1_545
Nb2 O5 2.311411 1_555
Nb3 O9 1.897318 1_555
Nb3 O4 1.980590 1_655
Nb3 O7 2.129594 1_555
Nb3 O5 2.223212 1_555
Nb3 O6 2.369870 1_555
Nb4 O15 2.009477 1_555
Nb4 O11 2.026825 1_545
Nb4 O13 2.122643 1_555
Nb4 O12 2.125262 1_555
Nb4 O14 2.519037 1_555
Nb5 O10 1.867821 1_555
Nb5 O16 1.956385 1_555
Nb5 O12 2.004104 1_555
Nb5 O14 2.005614 1_565
Nb5 O11 2.121523 1_555
Nb5 O13 2.370723 1_555
Nb6 O19 1.867821 1_555
Nb6 O13 1.956385 1_555
Nb6 O17 2.004104 1_555
Nb6 O15 2.005614 1_565
Nb6 O18 2.121523 1_556
Nb6 O16 2.370723 1_556
Nb7 O14 2.009477 1_555
Nb7 O18 2.026825 1_545
Nb7 O16 2.122643 1_555
Nb7 O17 2.125262 1_554
Nb7 O15 2.519037 1_554
N0 Nb0 1.899060 1_545
N0 Nb1 2.095517 1_556
N0 Y0 2.311749 1_555
N1 Nb3 1.899060 1_545
N1 Nb2 2.095517 1_555
N1 Y3 2.311749 1_555
N2 Nb4 1.817265 1_555
N2 Y2 2.351734 1_555
N2 Y3 2.355487 1_556
N3 Nb7 1.817265 1_555
N3 Y1 2.351734 1_555
N3 Y0 2.355487 1_555
O0 Y1 2.313500 1_545
O0 Y0 2.377592 1_555
O1 Y0 2.270630 1_555
O1 Y1 2.388357 1_555
O2 Y1 2.242945 1_555
O7 Y2 2.242945 1_555
O8 Y2 2.313500 1_545
O8 Y3 2.377592 1_556
O9 Y3 2.270630 1_555
O9 Y2 2.388357 1_554
O10 Y3 2.342800 1_565
O10 Y2 2.412561 1_554
O11 Y2 2.248259 1_555
O12 Y3 2.258815 1_555
O17 Y0 2.258815 1_555
O18 Y1 2.248259 1_555
O19 Y0 2.342800 1_565
O19 Y1 2.412561 1_555
