# generated using pymatgen
data_RbBrO4
_symmetry_space_group_name_H-M   'P 1'
_cell_length_a   8.06547754
_cell_length_b   8.06547754
_cell_length_c   8.06547754
_cell_angle_alpha   137.73973655
_cell_angle_beta   137.73973655
_cell_angle_gamma   61.30183874
_symmetry_Int_Tables_number   1
_chemical_formula_structural   RbBrO4
_chemical_formula_sum   'Rb2 Br2 O8'
_cell_volume   234.62535359
_cell_formula_units_Z   2
loop_
 _symmetry_equiv_pos_site_id
 _symmetry_equiv_pos_as_xyz
  1  'x, y, z'
loop_
 _atom_site_type_symbol
 _atom_site_label
 _atom_site_symmetry_multiplicity
 _atom_site_fract_x
 _atom_site_fract_y
 _atom_site_fract_z
 _atom_site_occupancy
  Rb  Rb0  1  0.00000000  0.00000000  0.00000000  1
  Rb  Rb1  1  0.75000000  0.25000000  0.50000000  1
  Br  Br0  1  0.50000000  0.50000000  0.00000000  1
  Br  Br1  1  0.25000000  0.75000000  0.50000000  1
  O  O0  1  0.53794900  0.89455100  0.79718100  1
  O  O1  1  0.65263000  0.50923100  0.29718100  1
  O  O2  1  0.49076900  0.78794900  0.14339900  1
  O  O3  1  0.10544900  0.90263000  0.64339900  1
  O  O4  1  0.25923100  0.46205100  0.35660100  1
  O  O5  1  0.64455100  0.34737000  0.85660100  1
  O  O6  1  0.21205100  0.35544900  0.70281900  1
  O  O7  1  0.09737000  0.74076900  0.20281900  1
loop_
_geom_bond_atom_site_label_1
_geom_bond_atom_site_label_2
_geom_bond_distance
_geom_bond_site_symmetry_2
Br0 O2 1.649978 1_555
Br0 O6 1.649980 1_554
Br0 O1 1.649985 1_555
Br0 O5 1.649985 1_554
Br1 O4 1.649978 1_555
Br1 O0 1.649980 1_555
Br1 O7 1.649985 1_555
Br1 O3 1.649985 1_555
O0 Rb0 3.041112 1_666
O0 Rb1 3.095257 1_566
O1 Rb1 3.041104 1_555
O1 Rb0 3.095260 1_666
O2 Rb1 3.041111 1_565
O2 Rb0 3.095261 1_565
O3 Rb0 3.041104 1_566
O3 Rb1 3.095260 1_465
O4 Rb0 3.041111 1_555
O4 Rb1 3.095261 1_555
O5 Rb1 3.041104 1_555
O5 Rb0 3.095260 1_656
O6 Rb1 3.041112 1_455
O6 Rb0 3.095257 1_555
O7 Rb0 3.041104 1_565
O7 Rb1 3.095260 1_454
