# generated using pymatgen
data_Li2Si2Ni2O7
_symmetry_space_group_name_H-M   'P 1'
_cell_length_a   5.07372400
_cell_length_b   4.87318005
_cell_length_c   13.02650300
_cell_angle_alpha   90.00000000
_cell_angle_beta   90.00000000
_cell_angle_gamma   121.37091593
_symmetry_Int_Tables_number   1
_chemical_formula_structural   Li2Si2Ni2O7
_chemical_formula_sum   'Li4 Si4 Ni4 O14'
_cell_volume   274.99892841
_cell_formula_units_Z   2
loop_
 _symmetry_equiv_pos_site_id
 _symmetry_equiv_pos_as_xyz
  1  'x, y, z'
loop_
 _atom_site_type_symbol
 _atom_site_label
 _atom_site_symmetry_multiplicity
 _atom_site_fract_x
 _atom_site_fract_y
 _atom_site_fract_z
 _atom_site_occupancy
  Li  Li0  1  0.34214000  0.59553400  0.58563100  1
  Li  Li1  1  0.34214000  0.59553400  0.91436900  1
  Li  Li2  1  0.74660600  0.40446600  0.41436900  1
  Li  Li3  1  0.74660600  0.40446600  0.08563100  1
  Si  Si0  1  0.39902800  0.70425400  0.36375500  1
  Si  Si1  1  0.39902800  0.70425400  0.13624500  1
  Si  Si2  1  0.69477400  0.29574600  0.63624500  1
  Si  Si3  1  0.69477400  0.29574600  0.86375500  1
  Ni  Ni0  1  0.03552800  0.00000000  0.00000000  1
  Ni  Ni1  1  0.03552800  0.00000000  0.50000000  1
  Ni  Ni2  1  0.02236900  0.01046700  0.25000000  1
  Ni  Ni3  1  0.01190200  0.98953300  0.75000000  1
  O  O0  1  0.14327400  0.81264500  0.13517600  1
  O  O1  1  0.14327400  0.81264500  0.36482400  1
  O  O2  1  0.36260100  0.51482600  0.25000000  1
  O  O3  1  0.73091100  0.97965000  0.86963500  1
  O  O4  1  0.73091100  0.97965000  0.63036500  1
  O  O5  1  0.36278200  0.44793500  0.05096200  1
  O  O6  1  0.36278200  0.44793500  0.44903800  1
  O  O7  1  0.33062900  0.18735500  0.86482400  1
  O  O8  1  0.33062900  0.18735500  0.63517600  1
  O  O9  1  0.84777400  0.48517400  0.75000000  1
  O  O10  1  0.75126100  0.02035000  0.36963500  1
  O  O11  1  0.75126100  0.02035000  0.13036500  1
  O  O12  1  0.91484700  0.55206500  0.94903800  1
  O  O13  1  0.91484700  0.55206500  0.55096200  1
loop_
_geom_bond_atom_site_label_1
_geom_bond_atom_site_label_2
_geom_bond_distance
_geom_bond_site_symmetry_2
Li0 O6 1.942362 1_555
Li0 O4 1.972319 1_555
Li0 O8 2.062919 1_555
Li0 O13 2.114418 1_455
Li1 O5 1.942362 1_556
Li1 O3 1.972319 1_555
Li1 O7 2.062919 1_555
Li1 O12 2.114418 1_455
Li2 O13 1.942362 1_555
Li2 O10 1.972319 1_555
Li2 O1 2.062919 1_655
Li2 O6 2.114418 1_555
Li3 O12 1.942362 1_554
Li3 O11 1.972319 1_555
Li3 O0 2.062919 1_655
Li3 O5 2.114418 1_555
Ni0 O12 2.046693 1_444
Ni0 O5 2.046693 1_555
Ni0 O7 2.180086 1_554
Ni0 O0 2.180086 1_545
Ni0 O3 2.263370 1_444
Ni0 O11 2.263370 1_455
Ni1 O13 2.046693 1_445
Ni1 O6 2.046693 1_555
Ni1 O8 2.180086 1_555
Ni1 O1 2.180086 1_545
Ni1 O4 2.263370 1_445
Ni1 O10 2.263370 1_455
Ni2 O1 2.039273 1_545
Ni2 O0 2.039273 1_545
Ni2 O11 2.095724 1_455
Ni2 O10 2.095724 1_455
Ni2 O2 2.145562 1_555
Ni3 O8 2.039273 1_565
Ni3 O7 2.039273 1_565
Ni3 O3 2.095724 1_455
Ni3 O4 2.095724 1_455
Ni3 O9 2.145561 1_455
O0 Si1 1.636048 1_555
O1 Si0 1.636048 1_555
O2 Si1 1.704257 1_555
O2 Si0 1.704257 1_555
O3 Si3 1.645098 1_565
O4 Si2 1.645098 1_565
O5 Si1 1.609057 1_555
O6 Si0 1.609057 1_555
O7 Si3 1.636048 1_555
O8 Si2 1.636048 1_555
O9 Si3 1.704256 1_555
O9 Si2 1.704256 1_555
O10 Si0 1.645098 1_545
O11 Si1 1.645098 1_545
O12 Si3 1.609057 1_555
O13 Si2 1.609057 1_555
