# generated using pymatgen
data_LiCoPO4
_symmetry_space_group_name_H-M   'P 1'
_cell_length_a   5.05277700
_cell_length_b   10.08316400
_cell_length_c   13.66016100
_cell_angle_alpha   90.00000000
_cell_angle_beta   90.00000000
_cell_angle_gamma   90.00000000
_symmetry_Int_Tables_number   1
_chemical_formula_structural   LiCoPO4
_chemical_formula_sum   'Li8 Co8 P8 O32'
_cell_volume   695.95759776
_cell_formula_units_Z   8
loop_
 _symmetry_equiv_pos_site_id
 _symmetry_equiv_pos_as_xyz
  1  'x, y, z'
loop_
 _atom_site_type_symbol
 _atom_site_label
 _atom_site_symmetry_multiplicity
 _atom_site_fract_x
 _atom_site_fract_y
 _atom_site_fract_z
 _atom_site_occupancy
  Li  Li0  1  0.05862100  0.03206200  0.24860900  1
  Li  Li1  1  0.55038500  0.21758400  0.99730300  1
  Li  Li2  1  0.55038500  0.28241600  0.49730300  1
  Li  Li3  1  0.05862100  0.46793800  0.74860900  1
  Li  Li4  1  0.94137900  0.53206200  0.24860900  1
  Li  Li5  1  0.44961500  0.71758400  0.99730300  1
  Li  Li6  1  0.44961500  0.78241600  0.49730300  1
  Li  Li7  1  0.94137900  0.96793800  0.74860900  1
  Co  Co0  1  0.93132700  0.03030200  0.49920900  1
  Co  Co1  1  0.55248500  0.21924700  0.24808800  1
  Co  Co2  1  0.55248500  0.28075300  0.74808800  1
  Co  Co3  1  0.93132700  0.46969800  0.99920900  1
  Co  Co4  1  0.06867300  0.53030200  0.49920900  1
  Co  Co5  1  0.44751500  0.71924700  0.24808800  1
  Co  Co6  1  0.44751500  0.78075300  0.74808800  1
  Co  Co7  1  0.06867300  0.96969800  0.99920900  1
  P  P0  1  0.43778700  0.03046400  0.62390200  1
  P  P1  1  0.05460200  0.21713100  0.87249000  1
  P  P2  1  0.05460200  0.28286900  0.37249000  1
  P  P3  1  0.43778700  0.46953600  0.12390200  1
  P  P4  1  0.56221300  0.53046400  0.62390200  1
  P  P5  1  0.94539800  0.71713100  0.87249000  1
  P  P6  1  0.94539800  0.78286900  0.37249000  1
  P  P7  1  0.56221300  0.96953600  0.12390200  1
  O  O0  1  0.86503500  0.99948100  0.12165300  1
  O  O1  1  0.56297200  0.96981600  0.53013300  1
  O  O2  1  0.44329300  0.03295600  0.21771800  1
  O  O3  1  0.99639800  0.06559600  0.87399900  1
  O  O4  1  0.49456000  0.18176300  0.62495100  1
  O  O5  1  0.92642500  0.22229200  0.46588000  1
  O  O6  1  0.93633700  0.28033600  0.77844600  1
  O  O7  1  0.35715600  0.24497400  0.87201800  1
  O  O8  1  0.35715600  0.25502600  0.37201800  1
  O  O9  1  0.93633700  0.21966400  0.27844600  1
  O  O10  1  0.92642500  0.27770800  0.96588000  1
  O  O11  1  0.49456000  0.31823700  0.12495100  1
  O  O12  1  0.99639800  0.43440400  0.37399900  1
  O  O13  1  0.44329300  0.46704400  0.71771800  1
  O  O14  1  0.56297200  0.53018400  0.03013300  1
  O  O15  1  0.86503500  0.50051900  0.62165300  1
  O  O16  1  0.13496500  0.49948100  0.12165300  1
  O  O17  1  0.43702800  0.46981600  0.53013300  1
  O  O18  1  0.55670700  0.53295600  0.21771800  1
  O  O19  1  0.00360200  0.56559600  0.87399900  1
  O  O20  1  0.50544000  0.68176300  0.62495100  1
  O  O21  1  0.07357500  0.72229200  0.46588000  1
  O  O22  1  0.06366300  0.78033600  0.77844600  1
  O  O23  1  0.64284400  0.74497400  0.87201800  1
  O  O24  1  0.64284400  0.75502600  0.37201800  1
  O  O25  1  0.06366300  0.71966400  0.27844600  1
  O  O26  1  0.07357500  0.77770800  0.96588000  1
  O  O27  1  0.50544000  0.81823700  0.12495100  1
  O  O28  1  0.00360200  0.93440400  0.37399900  1
  O  O29  1  0.55670700  0.96704400  0.71771800  1
  O  O30  1  0.43702800  0.03018400  0.03013300  1
  O  O31  1  0.13496500  0.00051900  0.62165300  1
loop_
_geom_bond_atom_site_label_1
_geom_bond_atom_site_label_2
_geom_bond_distance
_geom_bond_site_symmetry_2
Li0 O2 1.988961 1_555
Li0 O28 1.995186 1_545
Li0 O0 2.017990 1_445
Li0 O9 2.031286 1_455
Li1 O7 1.989587 1_555
Li1 O30 2.024775 1_556
Li1 O11 2.037167 1_556
Li1 O10 2.040086 1_555
Li2 O8 1.989587 1_555
Li2 O17 2.024775 1_555
Li2 O4 2.037167 1_555
Li2 O5 2.040086 1_555
Li3 O13 1.988961 1_555
Li3 O19 1.995186 1_555
Li3 O15 2.017990 1_455
Li3 O6 2.031286 1_455
Li4 O18 1.988961 1_555
Li4 O12 1.995186 1_555
Li4 O16 2.017990 1_655
Li4 O25 2.031286 1_655
Li5 O23 1.989587 1_555
Li5 O14 2.024775 1_556
Li5 O27 2.037167 1_556
Li5 O26 2.040086 1_555
Li6 O24 1.989587 1_555
Li6 O1 2.024775 1_555
Li6 O20 2.037167 1_555
Li6 O21 2.040086 1_555
Li7 O29 1.988961 1_555
Li7 O3 1.995186 1_565
Li7 O31 2.017990 1_665
Li7 O22 2.031286 1_655
Co0 O31 1.986581 1_655
Co0 O5 1.988837 1_555
Co0 O28 1.998448 1_645
Co0 O1 2.003630 1_545
Co1 O11 1.977699 1_555
Co1 O9 1.983361 1_555
Co1 O8 1.992524 1_555
Co1 O2 2.001225 1_555
Co2 O4 1.977699 1_555
Co2 O6 1.983361 1_555
Co2 O7 1.992524 1_555
Co2 O13 2.001225 1_555
Co3 O16 1.986581 1_656
Co3 O10 1.988837 1_555
Co3 O19 1.998448 1_655
Co3 O14 2.003630 1_556
Co4 O15 1.986581 1_455
Co4 O21 1.988837 1_555
Co4 O12 1.998448 1_455
Co4 O17 2.003630 1_555
Co5 O27 1.977699 1_555
Co5 O25 1.983361 1_555
Co5 O24 1.992524 1_555
Co5 O18 2.001225 1_555
Co6 O20 1.977699 1_555
Co6 O22 1.983361 1_555
Co6 O23 1.992524 1_555
Co6 O29 2.001225 1_555
Co7 O0 1.986581 1_456
Co7 O26 1.988837 1_555
Co7 O3 1.998448 1_465
Co7 O30 2.003630 1_566
O0 P7 1.559902 1_555
O1 P0 1.553950 1_565
O2 P7 1.553167 1_545
O3 P1 1.556134 1_655
O4 P0 1.552375 1_555
O5 P2 1.555636 1_655
O6 P1 1.553572 1_655
O7 P1 1.554316 1_555
O8 P2 1.554316 1_555
O9 P2 1.553572 1_655
O10 P1 1.555636 1_655
O11 P3 1.552375 1_555
O12 P2 1.556134 1_655
O13 P4 1.553167 1_555
O14 P3 1.553950 1_555
O15 P4 1.559902 1_555
O16 P3 1.559902 1_555
O17 P4 1.553950 1_555
O18 P3 1.553167 1_555
O19 P5 1.556134 1_455
O20 P4 1.552375 1_555
O21 P6 1.555636 1_455
O22 P5 1.553572 1_455
O23 P5 1.554316 1_555
O24 P6 1.554316 1_555
O25 P6 1.553572 1_455
O26 P5 1.555636 1_455
O27 P7 1.552375 1_555
O28 P6 1.556134 1_455
O29 P0 1.553167 1_565
O30 P7 1.553950 1_545
O31 P0 1.559902 1_555
