# generated using pymatgen
data_LiCr2O3
_symmetry_space_group_name_H-M   'P 1'
_cell_length_a   5.22596716
_cell_length_b   10.09978518
_cell_length_c   5.22596747
_cell_angle_alpha   93.29931588
_cell_angle_beta   60.91569352
_cell_angle_gamma   86.69812437
_symmetry_Int_Tables_number   1
_chemical_formula_structural   LiCr2O3
_chemical_formula_sum   'Li4 Cr8 O12'
_cell_volume   239.49166334
_cell_formula_units_Z   4
loop_
 _symmetry_equiv_pos_site_id
 _symmetry_equiv_pos_as_xyz
  1  'x, y, z'
loop_
 _atom_site_type_symbol
 _atom_site_label
 _atom_site_symmetry_multiplicity
 _atom_site_fract_x
 _atom_site_fract_y
 _atom_site_fract_z
 _atom_site_occupancy
  Li  Li0  1  0.24089700  0.75003100  0.24104900  1
  Li  Li1  1  0.75889700  0.25001100  0.75899100  1
  Li  Li2  1  0.43109500  0.24999700  0.43113600  1
  Li  Li3  1  0.56878000  0.75001800  0.56887200  1
  Cr  Cr0  1  0.50042300  0.99975400  0.99995400  1
  Cr  Cr1  1  0.00016700  0.50010100  0.49991400  1
  Cr  Cr2  1  0.09578100  0.25007100  0.09594200  1
  Cr  Cr3  1  0.90395800  0.74997100  0.90420100  1
  Cr  Cr4  1  0.66701400  0.49841600  0.16783500  1
  Cr  Cr5  1  0.16782000  0.00159800  0.66706900  1
  Cr  Cr6  1  0.83215500  0.99840600  0.33289900  1
  Cr  Cr7  1  0.33291300  0.50164000  0.83215200  1
  O  O0  1  0.83913400  0.11867100  0.03147500  1
  O  O1  1  0.96849800  0.61865500  0.16087000  1
  O  O2  1  0.03143300  0.38139900  0.83911700  1
  O  O3  1  0.16077500  0.88134800  0.96855400  1
  O  O4  1  0.51509600  0.89246700  0.32285700  1
  O  O5  1  0.32276800  0.60751700  0.51506700  1
  O  O6  1  0.67728900  0.39259800  0.48492800  1
  O  O7  1  0.48495600  0.10738900  0.67736100  1
  O  O8  1  0.37713600  0.38408100  0.12421300  1
  O  O9  1  0.87585100  0.88398700  0.62276500  1
  O  O10  1  0.12437400  0.11589300  0.37699000  1
  O  O11  1  0.62278600  0.61598000  0.87578800  1
loop_
_geom_bond_atom_site_label_1
_geom_bond_atom_site_label_2
_geom_bond_distance
_geom_bond_site_symmetry_2
Li0 O3 2.166877 1_554
Li0 O1 2.167056 1_455
Li0 O5 2.251096 1_555
Li0 O4 2.251197 1_555
Li0 O9 2.267475 1_455
Li0 O11 2.268771 1_554
Li1 O0 2.167267 1_556
Li1 O2 2.167564 1_655
Li1 O7 2.250985 1_555
Li1 O6 2.251131 1_555
Li1 O8 2.268498 1_556
Li1 O10 2.269794 1_655
Li2 O6 2.080177 1_555
Li2 O7 2.080440 1_555
Li2 O10 2.265125 1_555
Li2 O8 2.265370 1_555
Li2 O0 2.386230 1_555
Li2 O2 2.386450 1_555
Li3 O4 2.078123 1_555
Li3 O5 2.078788 1_555
Li3 O11 2.265154 1_555
Li3 O9 2.265158 1_555
Li3 O3 2.386216 1_555
Li3 O1 2.386438 1_555
Cr0 O4 2.086697 1_556
Cr0 O7 2.088955 1_565
Cr0 O9 2.193757 1_555
Cr0 O10 2.196415 1_566
Cr0 O0 2.260188 1_566
Cr0 O3 2.261134 1_555
Cr1 O5 2.087125 1_555
Cr1 O6 2.088511 1_455
Cr1 O8 2.194969 1_555
Cr1 O11 2.195673 1_455
Cr1 O1 2.259853 1_455
Cr1 O2 2.260521 1_555
Cr2 O2 2.065452 1_554
Cr2 O0 2.065550 1_455
Cr2 O8 2.105486 1_555
Cr2 O10 2.105985 1_555
Cr2 O6 2.442522 1_455
Cr2 O7 2.443865 1_554
Cr3 O1 2.065190 1_556
Cr3 O3 2.065812 1_655
Cr3 O11 2.104896 1_555
Cr3 O9 2.105487 1_555
Cr3 O4 2.442530 1_556
Cr3 O5 2.443202 1_655
Cr4 O5 2.027618 1_555
Cr4 O1 2.031783 1_555
Cr4 O6 2.043251 1_555
Cr4 O8 2.046287 1_555
Cr4 O2 2.073925 1_654
Cr4 O11 2.076675 1_554
Cr5 O4 2.027776 1_545
Cr5 O3 2.031682 1_545
Cr5 O7 2.043363 1_555
Cr5 O10 2.046466 1_555
Cr5 O0 2.074104 1_456
Cr5 O9 2.076846 1_445
Cr6 O7 2.027494 1_565
Cr6 O0 2.031636 1_565
Cr6 O4 2.043359 1_555
Cr6 O9 2.046871 1_555
Cr6 O3 2.073759 1_654
Cr6 O10 2.076674 1_665
Cr7 O6 2.027623 1_555
Cr7 O2 2.031780 1_555
Cr7 O5 2.043289 1_555
Cr7 O11 2.046328 1_555
Cr7 O1 2.073905 1_456
Cr7 O8 2.076693 1_556
