# generated using pymatgen
data_LiSi6Bi9O26
_symmetry_space_group_name_H-M   'P 1'
_cell_length_a   9.71819547
_cell_length_b   9.71819547
_cell_length_c   14.14931900
_cell_angle_alpha   90.00000000
_cell_angle_beta   90.00000000
_cell_angle_gamma   119.99999637
_symmetry_Int_Tables_number   1
_chemical_formula_structural   LiSi6Bi9O26
_chemical_formula_sum   'Li2 Si12 Bi18 O52'
_cell_volume   1157.27732947
_cell_formula_units_Z   2
loop_
 _symmetry_equiv_pos_site_id
 _symmetry_equiv_pos_as_xyz
  1  'x, y, z'
loop_
 _atom_site_type_symbol
 _atom_site_label
 _atom_site_symmetry_multiplicity
 _atom_site_fract_x
 _atom_site_fract_y
 _atom_site_fract_z
 _atom_site_occupancy
  Li  Li0  1  0.33333300  0.66666700  0.24215600  1
  Li  Li1  1  0.66666700  0.33333300  0.75784400  1
  Si  Si0  1  0.02954500  0.62782700  0.37237400  1
  Si  Si1  1  0.02455000  0.62416500  0.87443900  1
  Si  Si2  1  0.59961500  0.97545000  0.87443900  1
  Si  Si3  1  0.59828200  0.97045500  0.37237400  1
  Si  Si4  1  0.37583500  0.40038500  0.87443900  1
  Si  Si5  1  0.37217300  0.40171800  0.37237400  1
  Si  Si6  1  0.62782700  0.59828200  0.62762600  1
  Si  Si7  1  0.62416500  0.59961500  0.12556100  1
  Si  Si8  1  0.40171800  0.02954500  0.62762600  1
  Si  Si9  1  0.40038500  0.02455000  0.12556100  1
  Si  Si10  1  0.97045500  0.37217300  0.62762600  1
  Si  Si11  1  0.97545000  0.37583500  0.12556100  1
  Bi  Bi0  1  0.98793800  0.75902400  0.62675600  1
  Bi  Bi1  1  0.98909000  0.75872300  0.12603000  1
  Bi  Bi2  1  0.33333300  0.66666700  0.74473100  1
  Bi  Bi3  1  0.33333300  0.66666700  0.01969800  1
  Bi  Bi4  1  0.33333300  0.66666700  0.48647600  1
  Bi  Bi5  1  0.24097600  0.22891400  0.62675600  1
  Bi  Bi6  1  0.24127700  0.23036800  0.12603000  1
  Bi  Bi7  1  0.22891400  0.98793800  0.37324400  1
  Bi  Bi8  1  0.23036800  0.98909000  0.87397000  1
  Bi  Bi9  1  0.77108600  0.01206200  0.62675600  1
  Bi  Bi10  1  0.76963200  0.01091000  0.12603000  1
  Bi  Bi11  1  0.75872300  0.76963200  0.87397000  1
  Bi  Bi12  1  0.75902400  0.77108600  0.37324400  1
  Bi  Bi13  1  0.66666700  0.33333300  0.98030200  1
  Bi  Bi14  1  0.66666700  0.33333300  0.51352400  1
  Bi  Bi15  1  0.66666700  0.33333300  0.25526900  1
  Bi  Bi16  1  0.01091000  0.24127700  0.87397000  1
  Bi  Bi17  1  0.01206200  0.24097600  0.37324400  1
  O  O0  1  0.07946600  0.75929400  0.28601500  1
  O  O1  1  0.09004100  0.75053100  0.78407200  1
  O  O2  1  0.08979600  0.74838500  0.96545900  1
  O  O3  1  0.09592400  0.74913400  0.46538600  1
  O  O4  1  0.13227300  0.53469700  0.37088800  1
  O  O5  1  0.12154500  0.52567300  0.87186500  1
  O  O6  1  0.33579600  0.83822500  0.62631600  1
  O  O7  1  0.32454100  0.83151000  0.12785500  1
  O  O8  1  0.16849000  0.49303100  0.12785500  1
  O  O9  1  0.16177500  0.49757000  0.62631600  1
  O  O10  1  0.40242400  0.86772700  0.37088800  1
  O  O11  1  0.40412700  0.87845500  0.87186500  1
  O  O12  1  0.00000000  0.00000000  0.87314500  1
  O  O13  1  0.00000000  0.00000000  0.62224900  1
  O  O14  1  0.00000000  0.00000000  0.37775100  1
  O  O15  1  0.00000000  0.00000000  0.12685500  1
  O  O16  1  0.25086600  0.34679000  0.46538600  1
  O  O17  1  0.24946900  0.33951000  0.78407200  1
  O  O18  1  0.25161500  0.34141100  0.96545900  1
  O  O19  1  0.24070600  0.32017300  0.28601500  1
  O  O20  1  0.50243000  0.66420400  0.62631600  1
  O  O21  1  0.50696900  0.67545900  0.12785500  1
  O  O22  1  0.46530300  0.59757600  0.37088800  1
  O  O23  1  0.47432700  0.59587300  0.87186500  1
  O  O24  1  0.65321000  0.90407600  0.46538600  1
  O  O25  1  0.65858900  0.91020400  0.96545900  1
  O  O26  1  0.66049000  0.90995900  0.78407200  1
  O  O27  1  0.67982700  0.92053400  0.28601500  1
  O  O28  1  0.34679000  0.09592400  0.53461400  1
  O  O29  1  0.32017300  0.07946600  0.71398500  1
  O  O30  1  0.34141100  0.08979600  0.03454100  1
  O  O31  1  0.33951000  0.09004100  0.21592800  1
  O  O32  1  0.53469700  0.40242400  0.62911200  1
  O  O33  1  0.52567300  0.40412700  0.12813500  1
  O  O34  1  0.49303100  0.32454100  0.87214500  1
  O  O35  1  0.49757000  0.33579600  0.37368400  1
  O  O36  1  0.74838500  0.65858900  0.03454100  1
  O  O37  1  0.75053100  0.66049000  0.21592800  1
  O  O38  1  0.74913400  0.65321000  0.53461400  1
  O  O39  1  0.75929400  0.67982700  0.71398500  1
  O  O40  1  0.59757600  0.13227300  0.62911200  1
  O  O41  1  0.59587300  0.12154500  0.12813500  1
  O  O42  1  0.83151000  0.50696900  0.87214500  1
  O  O43  1  0.83822500  0.50243000  0.37368400  1
  O  O44  1  0.67545900  0.16849000  0.87214500  1
  O  O45  1  0.66420400  0.16177500  0.37368400  1
  O  O46  1  0.86772700  0.46530300  0.62911200  1
  O  O47  1  0.87845500  0.47432700  0.12813500  1
  O  O48  1  0.91020400  0.25161500  0.03454100  1
  O  O49  1  0.90407600  0.25086600  0.53461400  1
  O  O50  1  0.92053400  0.24070600  0.71398500  1
  O  O51  1  0.90995900  0.24946900  0.21592800  1
loop_
_geom_bond_atom_site_label_1
_geom_bond_atom_site_label_2
_geom_bond_distance
_geom_bond_site_symmetry_2
Li0 O7 2.307835 1_555
Li0 O8 2.307839 1_555
Li0 O21 2.307842 1_555
Li0 O10 2.504898 1_555
Li0 O4 2.504899 1_555
Li0 O22 2.504904 1_555
Li1 O44 2.307835 1_555
Li1 O42 2.307839 1_555
Li1 O34 2.307842 1_555
Li1 O40 2.504898 1_555
Li1 O46 2.504899 1_555
Li1 O32 2.504904 1_555
Bi0 O13 2.286387 1_665
Bi0 O39 2.311457 1_555
Bi0 O38 2.399288 1_555
Bi0 O1 2.455194 1_655
Bi0 O46 2.485769 1_555
Bi0 O3 2.534709 1_655
Bi1 O15 2.293633 1_665
Bi1 O37 2.385563 1_555
Bi1 O36 2.412118 1_555
Bi1 O47 2.413293 1_555
Bi1 O0 2.427096 1_655
Bi1 O2 2.495613 1_654
Bi2 O6 2.355336 1_555
Bi2 O9 2.355343 1_555
Bi2 O20 2.355350 1_555
Bi2 O23 2.555266 1_555
Bi2 O11 2.555266 1_555
Bi2 O5 2.555266 1_555
Bi3 O7 2.247770 1_555
Bi3 O8 2.247774 1_555
Bi3 O21 2.247777 1_555
Bi4 O10 2.373098 1_555
Bi4 O4 2.373099 1_555
Bi4 O22 2.373104 1_555
Bi4 O6 2.579798 1_555
Bi4 O9 2.579804 1_555
Bi4 O20 2.579810 1_555
Bi4 O3 2.811317 1_555
Bi4 O24 2.811323 1_555
Bi4 O16 2.811326 1_555
Bi5 O13 2.286387 1_555
Bi5 O29 2.311465 1_555
Bi5 O28 2.399288 1_555
Bi5 O17 2.455194 1_555
Bi5 O32 2.485769 1_555
Bi5 O16 2.534709 1_555
Bi6 O15 2.293637 1_555
Bi6 O31 2.385571 1_555
Bi6 O30 2.412125 1_555
Bi6 O33 2.413291 1_555
Bi6 O19 2.427096 1_555
Bi6 O18 2.495609 1_554
Bi7 O14 2.286387 1_565
Bi7 O0 2.311459 1_555
Bi7 O3 2.399288 1_555
Bi7 O31 2.455194 1_565
Bi7 O10 2.485769 1_555
Bi7 O28 2.534709 1_565
Bi8 O12 2.293642 1_565
Bi8 O1 2.385564 1_555
Bi8 O2 2.412119 1_555
Bi8 O11 2.413275 1_555
Bi8 O29 2.427096 1_565
Bi8 O30 2.495611 1_566
Bi9 O13 2.286387 1_655
Bi9 O50 2.311459 1_555
Bi9 O49 2.399288 1_555
Bi9 O26 2.455194 1_545
Bi9 O40 2.485769 1_555
Bi9 O24 2.534709 1_545
Bi10 O15 2.293642 1_655
Bi10 O51 2.385564 1_555
Bi10 O48 2.412119 1_555
Bi10 O41 2.413275 1_555
Bi10 O27 2.427096 1_545
Bi10 O25 2.495611 1_544
Bi11 O12 2.293637 1_665
Bi11 O26 2.385571 1_555
Bi11 O25 2.412125 1_555
Bi11 O23 2.413291 1_555
Bi11 O39 2.427096 1_555
Bi11 O36 2.495609 1_556
Bi12 O14 2.286387 1_665
Bi12 O27 2.311465 1_555
Bi12 O24 2.399288 1_555
Bi12 O37 2.455194 1_555
Bi12 O22 2.485769 1_555
Bi12 O38 2.534709 1_555
Bi13 O44 2.247770 1_555
Bi13 O42 2.247774 1_555
Bi13 O34 2.247777 1_555
Bi14 O40 2.373098 1_555
Bi14 O46 2.373099 1_555
Bi14 O32 2.373104 1_555
Bi14 O45 2.579798 1_555
Bi14 O43 2.579804 1_555
Bi14 O35 2.579810 1_555
Bi14 O49 2.811317 1_555
Bi14 O28 2.811323 1_555
Bi14 O38 2.811326 1_555
Bi15 O45 2.355336 1_555
Bi15 O43 2.355343 1_555
Bi15 O35 2.355350 1_555
Bi15 O33 2.555266 1_555
Bi15 O41 2.555266 1_555
Bi15 O47 2.555266 1_555
Bi16 O12 2.293633 1_555
Bi16 O17 2.385563 1_555
Bi16 O18 2.412118 1_555
Bi16 O5 2.413293 1_555
Bi16 O50 2.427096 1_455
Bi16 O48 2.495613 1_456
Bi17 O14 2.286387 1_555
Bi17 O19 2.311457 1_555
Bi17 O16 2.399288 1_555
Bi17 O51 2.455194 1_455
Bi17 O4 2.485769 1_555
Bi17 O49 2.534709 1_455
O0 Si0 1.655580 1_555
O1 Si1 1.663274 1_555
O2 Si1 1.659075 1_555
O3 Si0 1.666562 1_555
O4 Si0 1.649175 1_555
O5 Si1 1.645678 1_555
O6 Si8 1.636023 1_565
O7 Si9 1.637364 1_565
O8 Si11 1.637364 1_455
O9 Si10 1.636021 1_455
O10 Si3 1.649175 1_555
O11 Si2 1.645686 1_555
O16 Si5 1.666562 1_555
O17 Si4 1.663274 1_555
O18 Si4 1.659075 1_555
O19 Si5 1.655579 1_555
O20 Si6 1.636014 1_555
O21 Si7 1.637364 1_555
O22 Si5 1.649175 1_555
O23 Si4 1.645686 1_555
O24 Si3 1.666562 1_555
O25 Si2 1.659075 1_555
O26 Si2 1.663274 1_555
O27 Si3 1.655573 1_555
O28 Si8 1.666562 1_555
O29 Si8 1.655573 1_555
O30 Si9 1.659075 1_555
O31 Si9 1.663274 1_555
O32 Si6 1.649175 1_555
O33 Si7 1.645686 1_555
O34 Si4 1.637364 1_555
O35 Si5 1.636014 1_555
O36 Si7 1.659075 1_555
O37 Si7 1.663274 1_555
O38 Si6 1.666562 1_555
O39 Si6 1.655579 1_555
O40 Si8 1.649175 1_555
O41 Si9 1.645686 1_555
O42 Si1 1.637364 1_655
O43 Si0 1.636021 1_655
O44 Si2 1.637364 1_545
O45 Si3 1.636023 1_545
O46 Si10 1.649175 1_555
O47 Si11 1.645678 1_555
O48 Si11 1.659075 1_555
O49 Si10 1.666562 1_555
O50 Si10 1.655580 1_555
O51 Si11 1.663274 1_555
