# generated using pymatgen
data_Li6Mn15O32
_symmetry_space_group_name_H-M   'P 1'
_cell_length_a   5.79953628
_cell_length_b   5.79953628
_cell_length_c   20.08188767
_cell_angle_alpha   73.24370253
_cell_angle_beta   73.24370253
_cell_angle_gamma   59.68710120
_symmetry_Int_Tables_number   1
_chemical_formula_structural   Li6Mn15O32
_chemical_formula_sum   'Li6 Mn15 O32'
_cell_volume   549.94921873
_cell_formula_units_Z   1
loop_
 _symmetry_equiv_pos_site_id
 _symmetry_equiv_pos_as_xyz
  1  'x, y, z'
loop_
 _atom_site_type_symbol
 _atom_site_label
 _atom_site_symmetry_multiplicity
 _atom_site_fract_x
 _atom_site_fract_y
 _atom_site_fract_z
 _atom_site_occupancy
  Li  Li0  1  0.43363800  0.43363800  0.09142800  1
  Li  Li1  1  0.56636200  0.56636200  0.90857200  1
  Li  Li2  1  0.93349200  0.93349200  0.84924200  1
  Li  Li3  1  0.06078300  0.06078300  0.65606500  1
  Li  Li4  1  0.93921700  0.93921700  0.34393500  1
  Li  Li5  1  0.06650800  0.06650800  0.15075800  1
  Mn  Mn0  1  0.75553200  0.75553200  0.12030100  1
  Mn  Mn1  1  0.50000000  0.00000000  0.00000000  1
  Mn  Mn2  1  0.00000000  0.50000000  0.00000000  1
  Mn  Mn3  1  0.49833000  0.49833000  0.74980000  1
  Mn  Mn4  1  0.24446800  0.24446800  0.87969900  1
  Mn  Mn5  1  0.50000000  0.00000000  0.50000000  1
  Mn  Mn6  1  0.00000000  0.50000000  0.50000000  1
  Mn  Mn7  1  0.49946100  0.00173500  0.75000300  1
  Mn  Mn8  1  0.00173500  0.49946100  0.75000300  1
  Mn  Mn9  1  0.24985300  0.24985300  0.37692100  1
  Mn  Mn10  1  0.75014700  0.75014700  0.62307900  1
  Mn  Mn11  1  0.00000000  0.00000000  0.50000000  1
  Mn  Mn12  1  0.50053900  0.99826500  0.24999700  1
  Mn  Mn13  1  0.99826500  0.50053900  0.24999700  1
  Mn  Mn14  1  0.50167000  0.50167000  0.25020000  1
  O  O0  1  0.61477300  0.08298100  0.06582300  1
  O  O1  1  0.08298100  0.61477300  0.06582300  1
  O  O2  1  0.14555500  0.14555500  0.81009800  1
  O  O3  1  0.64075000  0.64075000  0.05954500  1
  O  O4  1  0.85270700  0.85270700  0.94941300  1
  O  O5  1  0.63101700  0.63101700  0.80209800  1
  O  O6  1  0.14729300  0.14729300  0.05058700  1
  O  O7  1  0.35925000  0.35925000  0.94045500  1
  O  O8  1  0.91701900  0.38522700  0.93417700  1
  O  O9  1  0.85553300  0.40745100  0.69123800  1
  O  O10  1  0.38522700  0.91701900  0.93417700  1
  O  O11  1  0.40745100  0.85553300  0.69123800  1
  O  O12  1  0.59631400  0.14560000  0.80690900  1
  O  O13  1  0.14560000  0.59631400  0.80690900  1
  O  O14  1  0.36671200  0.36671200  0.69890900  1
  O  O15  1  0.64749300  0.64749300  0.55855200  1
  O  O16  1  0.13121000  0.13121000  0.55258900  1
  O  O17  1  0.85330400  0.85330400  0.69077200  1
  O  O18  1  0.35262500  0.91388000  0.44125800  1
  O  O19  1  0.91388000  0.35262500  0.44125800  1
  O  O20  1  0.08612000  0.64737500  0.55874200  1
  O  O21  1  0.14446700  0.59254900  0.30876200  1
  O  O22  1  0.64737500  0.08612000  0.55874200  1
  O  O23  1  0.59254900  0.14446700  0.30876200  1
  O  O24  1  0.14669600  0.14669600  0.30922800  1
  O  O25  1  0.86879000  0.86879000  0.44741100  1
  O  O26  1  0.36898300  0.36898300  0.19790200  1
  O  O27  1  0.63328800  0.63328800  0.30109100  1
  O  O28  1  0.35250700  0.35250700  0.44144800  1
  O  O29  1  0.85444500  0.85444500  0.18990200  1
  O  O30  1  0.85440000  0.40368600  0.19309100  1
  O  O31  1  0.40368600  0.85440000  0.19309100  1
loop_
_geom_bond_atom_site_label_1
_geom_bond_atom_site_label_2
_geom_bond_distance
_geom_bond_site_symmetry_2
Li0 O1 1.907522 1_555
Li0 O0 1.907522 1_555
Li0 O3 1.965959 1_555
Li0 O26 2.017532 1_555
Li1 O10 1.907522 1_555
Li1 O8 1.907522 1_555
Li1 O7 1.965959 1_555
Li1 O5 2.017532 1_555
Li2 O4 1.902722 1_555
Li2 O13 1.996790 1_655
Li2 O12 1.996790 1_565
Li2 O2 2.013712 1_665
Li3 O16 1.959932 1_555
Li3 O17 1.968747 1_445
Li3 O9 1.968815 1_455
Li3 O11 1.968815 1_545
Li4 O25 1.959932 1_555
Li4 O24 1.968747 1_665
Li4 O21 1.968815 1_655
Li4 O23 1.968815 1_565
Li5 O6 1.902722 1_555
Li5 O31 1.996790 1_545
Li5 O30 1.996790 1_455
Li5 O29 2.013712 1_445
Mn0 O0 1.794934 1_565
Mn0 O1 1.794934 1_655
Mn0 O3 1.938774 1_555
Mn0 O29 1.966873 1_555
Mn0 O30 2.052234 1_555
Mn0 O31 2.052234 1_555
Mn1 O4 1.866619 1_544
Mn1 O6 1.866619 1_555
Mn1 O0 1.902485 1_555
Mn1 O10 1.902485 1_544
Mn1 O3 1.961277 1_545
Mn1 O7 1.961277 1_554
Mn2 O4 1.866619 1_454
Mn2 O6 1.866619 1_555
Mn2 O1 1.902485 1_555
Mn2 O8 1.902485 1_454
Mn2 O3 1.961277 1_455
Mn2 O7 1.961277 1_554
Mn3 O12 1.916385 1_555
Mn3 O13 1.916385 1_555
Mn3 O14 1.922907 1_555
Mn3 O11 1.950098 1_555
Mn3 O9 1.950098 1_555
Mn3 O5 1.953741 1_555
Mn4 O10 1.794934 1_545
Mn4 O8 1.794934 1_455
Mn4 O7 1.938774 1_555
Mn4 O2 1.966873 1_555
Mn4 O12 2.052234 1_555
Mn4 O13 2.052234 1_555
Mn5 O15 1.929347 1_545
Mn5 O28 1.929347 1_555
Mn5 O22 1.929653 1_555
Mn5 O18 1.929653 1_545
Mn5 O16 1.946006 1_555
Mn5 O25 1.946006 1_545
Mn6 O15 1.929347 1_455
Mn6 O28 1.929347 1_555
Mn6 O20 1.929653 1_555
Mn6 O19 1.929653 1_455
Mn6 O16 1.946006 1_555
Mn6 O25 1.946006 1_455
Mn7 O14 1.919406 1_555
Mn7 O12 1.926287 1_555
Mn7 O17 1.940830 1_545
Mn7 O2 1.946504 1_555
Mn7 O11 1.947599 1_545
Mn7 O5 1.951025 1_545
Mn8 O14 1.919406 1_555
Mn8 O13 1.926287 1_555
Mn8 O17 1.940830 1_455
Mn8 O2 1.946504 1_555
Mn8 O9 1.947599 1_455
Mn8 O5 1.951025 1_455
Mn9 O28 1.906691 1_555
Mn9 O18 1.908211 1_545
Mn9 O19 1.908211 1_455
Mn9 O24 1.965450 1_555
Mn9 O21 1.970969 1_555
Mn9 O23 1.970969 1_555
Mn10 O15 1.906691 1_555
Mn10 O22 1.908211 1_565
Mn10 O20 1.908211 1_655
Mn10 O17 1.965450 1_555
Mn10 O9 1.970969 1_555
Mn10 O11 1.970969 1_555
Mn11 O18 1.934150 1_545
Mn11 O19 1.934150 1_455
Mn11 O22 1.934150 1_455
Mn11 O20 1.934150 1_545
Mn11 O25 1.945434 1_445
Mn11 O16 1.945434 1_555
Mn12 O27 1.919406 1_555
Mn12 O31 1.926287 1_555
Mn12 O24 1.940830 1_565
Mn12 O29 1.946504 1_555
Mn12 O23 1.947599 1_565
Mn12 O26 1.951025 1_565
Mn13 O27 1.919406 1_555
Mn13 O30 1.926287 1_555
Mn13 O24 1.940830 1_655
Mn13 O29 1.946504 1_555
Mn13 O21 1.947599 1_655
Mn13 O26 1.951025 1_655
Mn14 O30 1.916385 1_555
Mn14 O31 1.916385 1_555
Mn14 O27 1.922907 1_555
Mn14 O21 1.950098 1_555
Mn14 O23 1.950098 1_555
Mn14 O26 1.953741 1_555
