# generated using pymatgen
data_Mn5V(PO4)6
_symmetry_space_group_name_H-M   'P 1'
_cell_length_a   8.63716222
_cell_length_b   8.63716222
_cell_length_c   8.63716208
_cell_angle_alpha   59.80949488
_cell_angle_beta   59.80949488
_cell_angle_gamma   59.80949694
_symmetry_Int_Tables_number   1
_chemical_formula_structural   Mn5V(PO4)6
_chemical_formula_sum   'Mn5 V1 P6 O24'
_cell_volume   453.64497758
_cell_formula_units_Z   1
loop_
 _symmetry_equiv_pos_site_id
 _symmetry_equiv_pos_as_xyz
  1  'x, y, z'
loop_
 _atom_site_type_symbol
 _atom_site_label
 _atom_site_symmetry_multiplicity
 _atom_site_fract_x
 _atom_site_fract_y
 _atom_site_fract_z
 _atom_site_occupancy
  Mn  Mn0  1  0.00025800  0.00025800  0.00025800  1
  Mn  Mn1  1  0.35683300  0.35683300  0.35683300  1
  Mn  Mn2  1  0.50090700  0.50090700  0.50090700  1
  Mn  Mn3  1  0.14418100  0.14418100  0.14418100  1
  Mn  Mn4  1  0.64385900  0.64385900  0.64385900  1
  V  V0  1  0.85649200  0.85649200  0.85649200  1
  P  P0  1  0.45762500  0.75019100  0.04126500  1
  P  P1  1  0.75019100  0.04126500  0.45762500  1
  P  P2  1  0.04126500  0.45762500  0.75019100  1
  P  P3  1  0.95902900  0.54058400  0.25112700  1
  P  P4  1  0.25112700  0.95902900  0.54058400  1
  P  P5  1  0.54058400  0.25112700  0.95902900  1
  O  O0  1  0.69540800  0.88405400  0.48621900  1
  O  O1  1  0.88405400  0.48621900  0.69540800  1
  O  O2  1  0.48621900  0.69540800  0.88405400  1
  O  O3  1  0.26276600  0.91542200  0.05776300  1
  O  O4  1  0.61797800  0.81231200  0.00016500  1
  O  O5  1  0.44802800  0.58604400  0.23605600  1
  O  O6  1  0.91542200  0.05776300  0.26276600  1
  O  O7  1  0.58604400  0.23605600  0.44802800  1
  O  O8  1  0.98844600  0.38224300  0.19621800  1
  O  O9  1  0.23605600  0.44802800  0.58604400  1
  O  O10  1  0.93842800  0.73732600  0.08374400  1
  O  O11  1  0.19621800  0.98844600  0.38224300  1
  O  O12  1  0.81231200  0.00016500  0.61797800  1
  O  O13  1  0.05776300  0.26276600  0.91542200  1
  O  O14  1  0.76224000  0.55904400  0.41303200  1
  O  O15  1  0.00016500  0.61797800  0.81231200  1
  O  O16  1  0.41303200  0.76224000  0.55904400  1
  O  O17  1  0.08374400  0.93842800  0.73732600  1
  O  O18  1  0.55904400  0.41303200  0.76224000  1
  O  O19  1  0.38224300  0.19621800  0.98844600  1
  O  O20  1  0.73732600  0.08374400  0.93842800  1
  O  O21  1  0.51371000  0.30424800  0.11677700  1
  O  O22  1  0.11677700  0.51371000  0.30424800  1
  O  O23  1  0.30424800  0.11677700  0.51371000  1
loop_
_geom_bond_atom_site_label_1
_geom_bond_atom_site_label_2
_geom_bond_distance
_geom_bond_site_symmetry_2
Mn0 O6 2.240540 1_455
Mn0 O13 2.240540 1_554
Mn0 O3 2.240540 1_545
Mn0 O17 2.268923 1_544
Mn0 O10 2.268923 1_445
Mn0 O20 2.268923 1_454
Mn1 O21 1.960572 1_555
Mn1 O23 1.960572 1_555
Mn1 O22 1.960572 1_555
Mn1 O5 2.071913 1_555
Mn1 O9 2.071913 1_555
Mn1 O7 2.071913 1_555
Mn2 O18 2.226352 1_555
Mn2 O14 2.226352 1_555
Mn2 O16 2.226352 1_555
Mn2 O5 2.236841 1_555
Mn2 O9 2.236841 1_555
Mn2 O7 2.236841 1_555
Mn3 O11 1.943948 1_545
Mn3 O19 1.943948 1_554
Mn3 O8 1.943948 1_455
Mn3 O6 2.046725 1_455
Mn3 O13 2.046725 1_554
Mn3 O3 2.046725 1_545
Mn4 O2 1.958165 1_555
Mn4 O0 1.958165 1_555
Mn4 O1 1.958165 1_555
Mn4 O18 2.054809 1_555
Mn4 O14 2.054809 1_555
Mn4 O16 2.054809 1_555
O0 P1 1.523168 1_565
O1 P2 1.523168 1_655
O2 P0 1.523168 1_556
O3 P0 1.561151 1_555
O4 P0 1.547080 1_555
O4 V0 1.916433 1_554
O5 P0 1.557704 1_555
O6 P1 1.561151 1_555
O7 P1 1.557704 1_555
O8 P3 1.530200 1_555
O9 P2 1.557704 1_555
O10 P3 1.578968 1_555
O10 V0 2.011329 1_554
O11 P4 1.530200 1_555
O12 P1 1.547080 1_555
O12 V0 1.916433 1_545
O13 P2 1.561151 1_555
O14 P3 1.559189 1_555
O15 P2 1.547080 1_555
O15 V0 1.916433 1_455
O16 P4 1.559189 1_555
O17 P4 1.578968 1_555
O17 V0 2.011329 1_455
O18 P5 1.559189 1_555
O19 P5 1.530200 1_555
O20 P5 1.578968 1_555
O20 V0 2.011329 1_545
O21 P5 1.524574 1_554
O22 P3 1.524574 1_455
O23 P4 1.524574 1_545
