# generated using pymatgen
data_Li2Mn3(BO3)4
_symmetry_space_group_name_H-M   'P 1'
_cell_length_a   9.06315200
_cell_length_b   5.11349300
_cell_length_c   10.88159817
_cell_angle_alpha   72.72790251
_cell_angle_beta   90.00000000
_cell_angle_gamma   90.00000000
_symmetry_Int_Tables_number   1
_chemical_formula_structural   Li2Mn3(BO3)4
_chemical_formula_sum   'Li4 Mn6 B8 O24'
_cell_volume   481.55956242
_cell_formula_units_Z   2
loop_
 _symmetry_equiv_pos_site_id
 _symmetry_equiv_pos_as_xyz
  1  'x, y, z'
loop_
 _atom_site_type_symbol
 _atom_site_label
 _atom_site_symmetry_multiplicity
 _atom_site_fract_x
 _atom_site_fract_y
 _atom_site_fract_z
 _atom_site_occupancy
  Li  Li0  1  0.21501300  0.50820900  0.38917100  1
  Li  Li1  1  0.71548600  0.07138900  0.62350500  1
  Li  Li2  1  0.78498700  0.50820900  0.88917100  1
  Li  Li3  1  0.28451400  0.07138900  0.12350500  1
  Mn  Mn0  1  0.55326300  0.00240100  0.87785000  1
  Mn  Mn1  1  0.21399900  0.92087800  0.87643200  1
  Mn  Mn2  1  0.03935200  0.01383500  0.61418300  1
  Mn  Mn3  1  0.44673700  0.00240100  0.37785000  1
  Mn  Mn4  1  0.78600100  0.92087800  0.37643200  1
  Mn  Mn5  1  0.96064800  0.01383500  0.11418300  1
  B  B0  1  0.54861500  0.43014400  0.39076100  1
  B  B1  1  0.88522600  0.00183200  0.86301300  1
  B  B2  1  0.05732000  0.57279200  0.09193200  1
  B  B3  1  0.39032400  0.99986800  0.64680300  1
  B  B4  1  0.11477400  0.00183200  0.36301300  1
  B  B5  1  0.45138500  0.43014400  0.89076100  1
  B  B6  1  0.60967600  0.99986800  0.14680300  1
  B  B7  1  0.94268000  0.57279200  0.59193200  1
  O  O0  1  0.60262200  0.87985000  0.05043800  1
  O  O1  1  0.90117100  0.31211600  0.60377800  1
  O  O2  1  0.15988500  0.79404000  0.05730800  1
  O  O3  1  0.51655700  0.07625700  0.69675800  1
  O  O4  1  0.25185000  0.03691900  0.69564600  1
  O  O5  1  0.91672600  0.64655600  0.11344900  1
  O  O6  1  0.40518700  0.37669100  0.36247300  1
  O  O7  1  0.63360000  0.19026200  0.41503300  1
  O  O8  1  0.75165100  0.90844100  0.82993000  1
  O  O9  1  0.00927600  0.89535100  0.81487000  1
  O  O10  1  0.09801700  0.17943200  0.43338300  1
  O  O11  1  0.40864800  0.67739300  0.90008800  1
  O  O12  1  0.09882900  0.31211600  0.10377800  1
  O  O13  1  0.39737800  0.87985000  0.55043800  1
  O  O14  1  0.84011500  0.79404000  0.55730800  1
  O  O15  1  0.48344300  0.07625700  0.19675800  1
  O  O16  1  0.74815000  0.03691900  0.19564600  1
  O  O17  1  0.08327400  0.64655600  0.61344900  1
  O  O18  1  0.59481300  0.37669100  0.86247300  1
  O  O19  1  0.24834900  0.90844100  0.32993000  1
  O  O20  1  0.99072400  0.89535100  0.31487000  1
  O  O21  1  0.36640000  0.19026200  0.91503300  1
  O  O22  1  0.59135200  0.67739300  0.40008800  1
  O  O23  1  0.90198300  0.17943200  0.93338300  1
loop_
_geom_bond_atom_site_label_1
_geom_bond_atom_site_label_2
_geom_bond_distance
_geom_bond_site_symmetry_2
Li0 O6 1.903526 1_555
Li0 O10 1.924042 1_555
Li0 O19 1.977856 1_555
Li1 O3 1.974416 1_555
Li1 O1 2.058287 1_555
Li1 O14 2.100645 1_545
Li1 O8 2.176204 1_545
Li1 O7 2.290757 1_555
Li2 O18 1.903526 1_555
Li2 O23 1.924042 1_555
Li2 O8 1.977856 1_555
Li3 O15 1.974416 1_555
Li3 O12 2.058287 1_555
Li3 O2 2.100645 1_545
Li3 O19 2.176204 1_545
Li3 O21 2.290757 1_554
Mn0 O0 1.849587 1_546
Mn0 O18 1.908602 1_555
Mn0 O3 1.922114 1_555
Mn0 O8 1.970889 1_545
Mn0 O21 2.045847 1_555
Mn0 O11 2.073546 1_545
Mn1 O4 1.909618 1_565
Mn1 O2 1.943461 1_556
Mn1 O9 1.990066 1_555
Mn1 O21 2.079739 1_565
Mn1 O11 2.130325 1_555
Mn2 O17 1.922137 1_545
Mn2 O1 1.950660 1_455
Mn2 O10 1.970049 1_555
Mn2 O9 2.103488 1_545
Mn2 O4 2.137979 1_555
Mn2 O14 2.306487 1_445
Mn3 O13 1.849587 1_545
Mn3 O6 1.908602 1_555
Mn3 O15 1.922114 1_555
Mn3 O19 1.970889 1_545
Mn3 O7 2.045847 1_555
Mn3 O22 2.073546 1_545
Mn4 O16 1.909618 1_565
Mn4 O14 1.943461 1_555
Mn4 O20 1.990066 1_555
Mn4 O7 2.079739 1_565
Mn4 O22 2.130325 1_555
Mn5 O5 1.922137 1_545
Mn5 O12 1.950660 1_655
Mn5 O23 1.970049 1_554
Mn5 O20 2.103488 1_545
Mn5 O16 2.137979 1_555
Mn5 O2 2.306487 1_645
B0 O22 1.354620 1_555
B0 O6 1.381734 1_555
B0 O7 1.405441 1_555
B1 O23 1.359086 1_555
B1 O8 1.387559 1_545
B1 O9 1.415736 1_645
B2 O12 1.353849 1_555
B2 O5 1.368644 1_455
B2 O2 1.425789 1_555
B3 O13 1.364716 1_555
B3 O3 1.372243 1_565
B3 O4 1.397578 1_565
B4 O10 1.359086 1_555
B4 O19 1.387559 1_545
B4 O20 1.415736 1_445
B5 O11 1.354620 1_555
B5 O18 1.381734 1_555
B5 O21 1.405441 1_555
B6 O0 1.364716 1_555
B6 O15 1.372243 1_565
B6 O16 1.397578 1_565
B7 O1 1.353849 1_555
B7 O17 1.368644 1_655
B7 O14 1.425789 1_555
