# generated using pymatgen
data_LiFeSiO4
_symmetry_space_group_name_H-M   'P 1'
_cell_length_a   8.62418896
_cell_length_b   8.62418896
_cell_length_c   8.62418923
_cell_angle_alpha   107.78008097
_cell_angle_beta   107.78008097
_cell_angle_gamma   107.78007953
_symmetry_Int_Tables_number   1
_chemical_formula_structural   LiFeSiO4
_chemical_formula_sum   'Li6 Fe6 Si6 O24'
_cell_volume   522.41159707
_cell_formula_units_Z   6
loop_
 _symmetry_equiv_pos_site_id
 _symmetry_equiv_pos_as_xyz
  1  'x, y, z'
loop_
 _atom_site_type_symbol
 _atom_site_label
 _atom_site_symmetry_multiplicity
 _atom_site_fract_x
 _atom_site_fract_y
 _atom_site_fract_z
 _atom_site_occupancy
  Li  Li0  1  0.89312300  0.12655800  0.72437100  1
  Li  Li1  1  0.43359700  0.21094600  0.60732100  1
  Li  Li2  1  0.60732100  0.43359700  0.21094600  1
  Li  Li3  1  0.72437100  0.89312300  0.12655800  1
  Li  Li4  1  0.21094600  0.60732100  0.43359700  1
  Li  Li5  1  0.12655800  0.72437100  0.89312300  1
  Fe  Fe0  1  0.45835300  0.05451000  0.23428800  1
  Fe  Fe1  1  0.76843600  0.53431100  0.94515500  1
  Fe  Fe2  1  0.94515500  0.76843600  0.53431100  1
  Fe  Fe3  1  0.05451000  0.23428800  0.45835300  1
  Fe  Fe4  1  0.23428800  0.45835300  0.05451000  1
  Fe  Fe5  1  0.53431100  0.94515500  0.76843600  1
  Si  Si0  1  0.87316600  0.28058500  0.09689100  1
  Si  Si1  1  0.79575200  0.38759600  0.56766200  1
  Si  Si2  1  0.28058500  0.09689100  0.87316600  1
  Si  Si3  1  0.38759600  0.56766200  0.79575200  1
  Si  Si4  1  0.56766200  0.79575200  0.38759600  1
  Si  Si5  1  0.09689100  0.87316600  0.28058500  1
  O  O0  1  0.98672200  0.30796900  0.97605200  1
  O  O1  1  0.72957300  0.06422100  0.00781600  1
  O  O2  1  0.90898600  0.26487300  0.57955800  1
  O  O3  1  0.76040300  0.40401300  0.08740000  1
  O  O4  1  0.93622600  0.59991200  0.63542600  1
  O  O5  1  0.63530800  0.30085800  0.35953700  1
  O  O6  1  0.40401300  0.08740000  0.76040300  1
  O  O7  1  0.69624600  0.37763500  0.70234300  1
  O  O8  1  0.30636900  0.02053800  0.35197700  1
  O  O9  1  0.06422100  0.00781600  0.72957300  1
  O  O10  1  0.35197700  0.30636900  0.02053800  1
  O  O11  1  0.70234300  0.69624600  0.37763500  1
  O  O12  1  0.97605200  0.98672200  0.30796900  1
  O  O13  1  0.59991200  0.63542600  0.93622600  1
  O  O14  1  0.30085800  0.35953700  0.63530800  1
  O  O15  1  0.35953700  0.63530800  0.30085800  1
  O  O16  1  0.63542600  0.93622600  0.59991200  1
  O  O17  1  0.26487300  0.57955800  0.90898600  1
  O  O18  1  0.37763500  0.70234300  0.69624600  1
  O  O19  1  0.02053800  0.35197700  0.30636900  1
  O  O20  1  0.57955800  0.90898600  0.26487300  1
  O  O21  1  0.30796900  0.97605200  0.98672200  1
  O  O22  1  0.08740000  0.76040300  0.40401300  1
  O  O23  1  0.00781600  0.72957300  0.06422100  1
loop_
_geom_bond_atom_site_label_1
_geom_bond_atom_site_label_2
_geom_bond_distance
_geom_bond_site_symmetry_2
Li0 O0 1.973649 1_555
Li0 O2 1.978856 1_555
Li0 O16 2.006196 1_545
Li0 O9 2.034336 1_655
Li1 O6 1.960122 1_555
Li1 O14 1.971474 1_555
Li1 O8 1.991304 1_555
Li1 O7 2.006772 1_555
Li2 O3 1.960122 1_555
Li2 O5 1.971474 1_555
Li2 O10 1.991304 1_555
Li2 O11 2.006772 1_555
Li3 O12 1.973649 1_555
Li3 O20 1.978856 1_555
Li3 O13 2.006196 1_554
Li3 O1 2.034336 1_565
Li4 O22 1.960122 1_555
Li4 O15 1.971474 1_555
Li4 O19 1.991304 1_555
Li4 O18 2.006772 1_555
Li5 O21 1.973649 1_555
Li5 O17 1.978856 1_555
Li5 O4 2.006196 1_455
Li5 O23 2.034336 1_556
Fe0 O20 1.890051 1_545
Fe0 O21 1.894461 1_544
Fe0 O8 1.895682 1_555
Fe0 O5 1.902895 1_555
Fe1 O7 1.886900 1_555
Fe1 O3 1.902288 1_556
Fe1 O13 1.904047 1_555
Fe1 O23 1.917875 1_656
Fe2 O11 1.886900 1_555
Fe2 O22 1.902288 1_655
Fe2 O4 1.904047 1_555
Fe2 O9 1.917875 1_665
Fe3 O2 1.890051 1_455
Fe3 O12 1.894461 1_445
Fe3 O19 1.895682 1_555
Fe3 O14 1.902895 1_555
Fe4 O17 1.890051 1_554
Fe4 O0 1.894461 1_454
Fe4 O10 1.895682 1_555
Fe4 O15 1.902895 1_555
Fe5 O18 1.886900 1_555
Fe5 O6 1.902288 1_565
Fe5 O16 1.904047 1_555
Fe5 O1 1.917875 1_566
O0 Si0 1.653262 1_556
O1 Si0 1.654641 1_555
O2 Si1 1.649460 1_555
O3 Si0 1.649951 1_555
O4 Si1 1.649628 1_555
O5 Si1 1.651340 1_555
O6 Si2 1.649951 1_555
O7 Si1 1.648514 1_555
O8 Si5 1.642752 1_545
O9 Si2 1.654641 1_555
O10 Si2 1.642752 1_554
O11 Si4 1.648514 1_555
O12 Si5 1.653262 1_655
O13 Si3 1.649628 1_555
O14 Si3 1.651340 1_555
O15 Si4 1.651340 1_555
O16 Si4 1.649628 1_555
O17 Si3 1.649460 1_555
O18 Si3 1.648514 1_555
O19 Si0 1.642752 1_455
O20 Si4 1.649460 1_555
O21 Si2 1.653262 1_565
O22 Si5 1.649951 1_555
O23 Si5 1.654641 1_555
