# generated using pymatgen
data_LiCoP2O7
_symmetry_space_group_name_H-M   'P 1'
_cell_length_a   7.88939400
_cell_length_b   7.20203000
_cell_length_c   9.51543169
_cell_angle_alpha   69.44286877
_cell_angle_beta   90.00000000
_cell_angle_gamma   90.00000000
_symmetry_Int_Tables_number   1
_chemical_formula_structural   LiCoP2O7
_chemical_formula_sum   'Li4 Co4 P8 O28'
_cell_volume   506.23543055
_cell_formula_units_Z   4
loop_
 _symmetry_equiv_pos_site_id
 _symmetry_equiv_pos_as_xyz
  1  'x, y, z'
loop_
 _atom_site_type_symbol
 _atom_site_label
 _atom_site_symmetry_multiplicity
 _atom_site_fract_x
 _atom_site_fract_y
 _atom_site_fract_z
 _atom_site_occupancy
  Li  Li0  1  0.97839600  0.69866100  0.78558200  1
  Li  Li1  1  0.52160400  0.69866100  0.28558200  1
  Li  Li2  1  0.02160400  0.30133900  0.21441800  1
  Li  Li3  1  0.47839600  0.30133900  0.71441800  1
  Co  Co0  1  0.99233200  0.73750100  0.24855500  1
  Co  Co1  1  0.49233200  0.26249900  0.25144500  1
  Co  Co2  1  0.00766800  0.26249900  0.75144500  1
  Co  Co3  1  0.50766800  0.73750100  0.74855500  1
  P  P0  1  0.71043600  0.33035500  0.95286800  1
  P  P1  1  0.28956400  0.66964500  0.04713200  1
  P  P2  1  0.23996300  0.08222900  0.04498000  1
  P  P3  1  0.26003700  0.08222900  0.54498000  1
  P  P4  1  0.21043600  0.66964500  0.54713200  1
  P  P5  1  0.76003700  0.91777100  0.95502000  1
  P  P6  1  0.73996300  0.91777100  0.45502000  1
  P  P7  1  0.78956400  0.33035500  0.45286800  1
  O  O0  1  0.10692100  0.61848700  0.10456700  1
  O  O1  1  0.20068000  0.68847600  0.38217300  1
  O  O2  1  0.21144700  0.18934900  0.87576100  1
  O  O3  1  0.28855300  0.18934900  0.37576100  1
  O  O4  1  0.79932000  0.31152400  0.61782700  1
  O  O5  1  0.86423500  0.79975900  0.40036600  1
  O  O6  1  0.34010000  0.87958100  0.06337200  1
  O  O7  1  0.92348100  0.45743600  0.34548400  1
  O  O8  1  0.84010000  0.12041900  0.43662800  1
  O  O9  1  0.42348100  0.54256400  0.15451600  1
  O  O10  1  0.39307900  0.61848700  0.60456700  1
  O  O11  1  0.71144700  0.81065100  0.62423900  1
  O  O12  1  0.65990000  0.12041900  0.93662800  1
  O  O13  1  0.13576500  0.20024100  0.59963400  1
  O  O14  1  0.70068000  0.31152400  0.11782700  1
  O  O15  1  0.42191500  0.02787600  0.64049400  1
  O  O16  1  0.89307900  0.38151300  0.89543300  1
  O  O17  1  0.92191500  0.97212400  0.85950600  1
  O  O18  1  0.29932000  0.68847600  0.88217300  1
  O  O19  1  0.15990000  0.87958100  0.56337200  1
  O  O20  1  0.36423500  0.20024100  0.09963400  1
  O  O21  1  0.60692100  0.38151300  0.39543300  1
  O  O22  1  0.07651900  0.54256400  0.65451600  1
  O  O23  1  0.57651900  0.45743600  0.84548400  1
  O  O24  1  0.57808500  0.97212400  0.35950600  1
  O  O25  1  0.07808500  0.02787600  0.14049400  1
  O  O26  1  0.78855300  0.81065100  0.12423900  1
  O  O27  1  0.63576500  0.79975900  0.90036600  1
loop_
_geom_bond_atom_site_label_1
_geom_bond_atom_site_label_2
_geom_bond_distance
_geom_bond_site_symmetry_2
Li0 O22 2.098372 1_655
Li0 O16 2.255240 1_555
Li0 O17 2.354818 1_555
Li0 O19 2.506837 1_655
Li0 O11 2.563869 1_555
Li0 O18 2.685756 1_655
Li1 O9 2.098372 1_555
Li1 O21 2.255240 1_555
Li1 O24 2.354818 1_555
Li1 O6 2.506837 1_555
Li1 O26 2.563869 1_555
Li1 O1 2.685756 1_555
Li2 O7 2.098372 1_455
Li2 O0 2.255240 1_555
Li2 O25 2.354818 1_555
Li2 O8 2.506837 1_455
Li2 O3 2.563869 1_555
Li2 O14 2.685756 1_455
Li3 O23 2.098372 1_555
Li3 O10 2.255240 1_555
Li3 O15 2.354818 1_555
Li3 O12 2.506837 1_555
Li3 O2 2.563869 1_555
Li3 O4 2.685756 1_555
Co0 O5 1.940095 1_555
Co0 O26 1.955471 1_555
Co0 O7 1.976784 1_555
Co0 O1 2.031704 1_655
Co0 O0 2.062503 1_655
Co0 O25 2.092445 1_665
Co1 O20 1.940095 1_555
Co1 O3 1.955471 1_555
Co1 O9 1.976784 1_555
Co1 O14 2.031704 1_555
Co1 O21 2.062503 1_555
Co1 O24 2.092445 1_545
Co2 O13 1.940095 1_555
Co2 O2 1.955471 1_555
Co2 O22 1.976784 1_555
Co2 O4 2.031704 1_455
Co2 O16 2.062503 1_455
Co2 O17 2.092445 1_445
Co3 O27 1.940095 1_555
Co3 O11 1.955471 1_555
Co3 O23 1.976784 1_555
Co3 O18 2.031704 1_555
Co3 O10 2.062503 1_555
Co3 O15 2.092445 1_565
O0 P1 1.539265 1_555
O1 P4 1.529260 1_555
O2 P2 1.538219 1_556
O3 P3 1.538219 1_555
O4 P7 1.529260 1_555
O5 P6 1.504823 1_555
O6 P2 1.614142 1_565
O6 P1 1.622641 1_555
O7 P7 1.530105 1_555
O8 P6 1.614142 1_545
O8 P7 1.622641 1_555
O9 P1 1.530105 1_555
O10 P4 1.539265 1_555
O11 P6 1.538219 1_555
O12 P5 1.614142 1_545
O12 P0 1.622641 1_555
O13 P3 1.504823 1_555
O14 P0 1.529260 1_554
O15 P3 1.536371 1_555
O16 P0 1.539265 1_555
O17 P5 1.536371 1_555
O18 P1 1.529260 1_556
O19 P3 1.614142 1_565
O19 P4 1.622641 1_555
O20 P2 1.504823 1_555
O21 P7 1.539265 1_555
O22 P4 1.530105 1_555
O23 P0 1.530105 1_555
O24 P6 1.536371 1_555
O25 P2 1.536371 1_555
O26 P5 1.538219 1_554
O27 P5 1.504823 1_555
