# generated using pymatgen
data_Li8Mg3Cu9(SiO3)16
_symmetry_space_group_name_H-M   'P 1'
_cell_length_a   8.28610400
_cell_length_b   8.42263961
_cell_length_c   14.20866895
_cell_angle_alpha   76.13785407
_cell_angle_beta   74.21205608
_cell_angle_gamma   72.84744393
_symmetry_Int_Tables_number   1
_chemical_formula_structural   Li8Mg3Cu9(SiO3)16
_chemical_formula_sum   'Li8 Mg3 Cu9 Si16 O48'
_cell_volume   897.98860237
_cell_formula_units_Z   1
loop_
 _symmetry_equiv_pos_site_id
 _symmetry_equiv_pos_as_xyz
  1  'x, y, z'
loop_
 _atom_site_type_symbol
 _atom_site_label
 _atom_site_symmetry_multiplicity
 _atom_site_fract_x
 _atom_site_fract_y
 _atom_site_fract_z
 _atom_site_occupancy
  Li  Li0  1  0.95274300  0.51512700  0.39450100  1
  Li  Li1  1  0.45273500  0.26532700  0.64448200  1
  Li  Li2  1  0.54726500  0.73467300  0.35551800  1
  Li  Li3  1  0.04725700  0.48487300  0.60549900  1
  Li  Li4  1  0.95243400  0.01567800  0.89419600  1
  Li  Li5  1  0.45256400  0.76368000  0.14508300  1
  Li  Li6  1  0.54743600  0.23632000  0.85491700  1
  Li  Li7  1  0.04756600  0.98432200  0.10580400  1
  Mg  Mg0  1  0.99991100  0.75007900  0.74942600  1
  Mg  Mg1  1  0.00008900  0.24992100  0.25057400  1
  Mg  Mg2  1  0.50000000  0.00000000  0.50000000  1
  Cu  Cu0  1  0.74404700  0.22357500  0.45958400  1
  Cu  Cu1  1  0.24404800  0.97331000  0.70949300  1
  Cu  Cu2  1  0.75595200  0.02669000  0.29050700  1
  Cu  Cu3  1  0.25595300  0.77642500  0.54041600  1
  Cu  Cu4  1  0.74368000  0.72400000  0.95934200  1
  Cu  Cu5  1  0.24489000  0.47330800  0.20984900  1
  Cu  Cu6  1  0.50000000  0.50000000  0.00000000  1
  Cu  Cu7  1  0.75511000  0.52669200  0.79015100  1
  Cu  Cu8  1  0.25632000  0.27600000  0.04065800  1
  Si  Si0  1  0.85277000  0.16061800  0.71205900  1
  Si  Si1  1  0.59134800  0.93641600  0.74908300  1
  Si  Si2  1  0.90880000  0.81329200  0.50075000  1
  Si  Si3  1  0.64732100  0.58924900  0.53764300  1
  Si  Si4  1  0.85295200  0.66047000  0.21216300  1
  Si  Si5  1  0.35267900  0.41075100  0.46235700  1
  Si  Si6  1  0.59147400  0.43632800  0.25071200  1
  Si  Si7  1  0.90814900  0.31322500  0.00092100  1
  Si  Si8  1  0.09120000  0.18670800  0.49925000  1
  Si  Si9  1  0.40865200  0.06358400  0.25091700  1
  Si  Si10  1  0.64711500  0.09040300  0.03839400  1
  Si  Si11  1  0.14723000  0.83938200  0.28794100  1
  Si  Si12  1  0.35288500  0.90959700  0.96160600  1
  Si  Si13  1  0.09185100  0.68677500  0.99907900  1
  Si  Si14  1  0.40852600  0.56367200  0.74928800  1
  Si  Si15  1  0.14704800  0.33953000  0.78783700  1
  O  O0  1  0.94138000  0.24502300  0.59928000  1
  O  O1  1  0.67644300  0.10548700  0.70612200  1
  O  O2  1  0.82342100  0.64448400  0.54390600  1
  O  O3  1  0.99641100  0.18163100  0.41409500  1
  O  O4  1  0.55833700  0.50379300  0.64973700  1
  O  O5  1  0.49623900  0.93189700  0.66398700  1
  O  O6  1  0.75955300  0.97785600  0.46912000  1
  O  O7  1  0.72023100  0.46301900  0.45766100  1
  O  O8  1  0.99106100  0.49245000  0.25478700  1
  O  O9  1  0.25849000  0.72814900  0.71854100  1
  O  O10  1  0.21970200  0.21272200  0.70815700  1
  O  O11  1  0.50922500  0.75762300  0.49497800  1
  O  O12  1  0.49077500  0.24237700  0.50502200  1
  O  O13  1  0.78029800  0.78727800  0.29184300  1
  O  O14  1  0.74151000  0.27185100  0.28145900  1
  O  O15  1  0.00893900  0.50755000  0.74521300  1
  O  O16  1  0.27976900  0.53698100  0.54233900  1
  O  O17  1  0.94210800  0.74443600  0.09912500  1
  O  O18  1  0.24044700  0.02214400  0.53088000  1
  O  O19  1  0.50376100  0.06810300  0.33601300  1
  O  O20  1  0.67674000  0.60547000  0.20610300  1
  O  O21  1  0.44166300  0.49620700  0.35026300  1
  O  O22  1  0.00358900  0.81836900  0.58590500  1
  O  O23  1  0.82365100  0.14445400  0.04406200  1
  O  O24  1  0.17657900  0.35551600  0.45609400  1
  O  O25  1  0.99612100  0.68108000  0.91450000  1
  O  O26  1  0.55835400  0.00536200  0.15066500  1
  O  O27  1  0.32355700  0.89451300  0.29387800  1
  O  O28  1  0.49481700  0.42803700  0.16826300  1
  O  O29  1  0.75759800  0.47862000  0.96925400  1
  O  O30  1  0.05862000  0.75497700  0.40072000  1
  O  O31  1  0.71843000  0.96411900  0.95831100  1
  O  O32  1  0.99071400  0.99235600  0.75505900  1
  O  O33  1  0.25925300  0.22751000  0.21882100  1
  O  O34  1  0.21959600  0.71340400  0.20780700  1
  O  O35  1  0.50903300  0.25988900  0.99461000  1
  O  O36  1  0.49096700  0.74011100  0.00539000  1
  O  O37  1  0.78040400  0.28659600  0.79219300  1
  O  O38  1  0.74074700  0.77249000  0.78117900  1
  O  O39  1  0.00928600  0.00764400  0.24494100  1
  O  O40  1  0.28157000  0.03588100  0.04168900  1
  O  O41  1  0.24240200  0.52138000  0.03074600  1
  O  O42  1  0.50518300  0.57196300  0.83173700  1
  O  O43  1  0.44164600  0.99463800  0.84933500  1
  O  O44  1  0.00387900  0.31892000  0.08550000  1
  O  O45  1  0.17634900  0.85554600  0.95593800  1
  O  O46  1  0.32326000  0.39453000  0.79389700  1
  O  O47  1  0.05789200  0.25556400  0.90087500  1
loop_
_geom_bond_atom_site_label_1
_geom_bond_atom_site_label_2
_geom_bond_distance
_geom_bond_site_symmetry_2
Li0 O8 1.970037 1_555
Li0 O7 2.019659 1_555
Li0 O24 2.204993 1_655
Li0 O2 2.454307 1_555
Li0 O30 2.455943 1_655
Li1 O12 1.967473 1_555
Li1 O10 2.026151 1_555
Li1 O1 2.205013 1_555
Li1 O4 2.439145 1_555
Li1 O46 2.453840 1_555
Li2 O11 1.967473 1_555
Li2 O13 2.026151 1_555
Li2 O27 2.205013 1_555
Li2 O21 2.439145 1_555
Li2 O20 2.453840 1_555
Li3 O15 1.970037 1_555
Li3 O16 2.019659 1_555
Li3 O2 2.204993 1_455
Li3 O24 2.454307 1_555
Li3 O0 2.455943 1_455
Li4 O32 1.963578 1_545
Li4 O31 2.030772 1_545
Li4 O45 2.207685 1_645
Li4 O47 2.456277 1_655
Li4 O23 2.457034 1_556
Li5 O36 1.971841 1_555
Li5 O34 2.016227 1_555
Li5 O20 2.200145 1_555
Li5 O27 2.453267 1_555
Li5 O26 2.466991 1_565
Li6 O35 1.971841 1_555
Li6 O37 2.016227 1_555
Li6 O46 2.200145 1_555
Li6 O1 2.453267 1_555
Li6 O43 2.466991 1_545
Li7 O39 1.963578 1_565
Li7 O40 2.030772 1_565
Li7 O23 2.207685 1_465
Li7 O17 2.456277 1_455
Li7 O45 2.457034 1_554
Mg0 O9 2.027621 1_655
Mg0 O38 2.031076 1_555
Mg0 O15 2.036656 1_655
Mg0 O32 2.039492 1_555
Mg0 O22 2.249771 1_655
Mg0 O25 2.271022 1_555
Mg1 O14 2.027621 1_455
Mg1 O33 2.031076 1_555
Mg1 O8 2.036656 1_455
Mg1 O39 2.039492 1_555
Mg1 O3 2.249771 1_455
Mg1 O44 2.271022 1_555
Mg2 O6 2.035157 1_545
Mg2 O18 2.035157 1_555
Mg2 O11 2.037955 1_545
Mg2 O12 2.037955 1_555
Mg2 O5 2.256030 1_545
Mg2 O19 2.256030 1_555
Cu0 O7 1.961824 1_555
Cu0 O3 1.963041 1_555
Cu0 O12 1.990442 1_555
Cu0 O6 2.009075 1_545
Cu0 O14 2.470247 1_555
Cu1 O5 1.961990 1_555
Cu1 O10 1.962410 1_565
Cu1 O32 1.990715 1_455
Cu1 O9 2.007508 1_555
Cu1 O18 2.478820 1_565
Cu2 O19 1.961990 1_555
Cu2 O13 1.962410 1_545
Cu2 O39 1.990715 1_655
Cu2 O14 2.007508 1_555
Cu2 O6 2.478820 1_545
Cu3 O16 1.961824 1_555
Cu3 O22 1.963041 1_555
Cu3 O11 1.990442 1_555
Cu3 O18 2.009075 1_565
Cu3 O9 2.470247 1_555
Cu4 O25 1.962446 1_555
Cu4 O31 1.967771 1_555
Cu4 O36 1.990168 1_556
Cu4 O29 2.008322 1_555
Cu4 O38 2.471415 1_555
Cu5 O28 1.938964 1_555
Cu5 O34 1.964544 1_555
Cu5 O8 1.993968 1_455
Cu5 O33 2.013179 1_555
Cu5 O41 2.484018 1_555
Cu6 O29 2.020611 1_554
Cu6 O41 2.020611 1_555
Cu6 O36 2.020706 1_555
Cu6 O35 2.020706 1_554
Cu6 O28 2.313056 1_555
Cu6 O42 2.313056 1_554
Cu7 O42 1.938964 1_555
Cu7 O37 1.964544 1_555
Cu7 O15 1.993968 1_655
Cu7 O38 2.013179 1_555
Cu7 O29 2.484018 1_555
Cu8 O44 1.962446 1_555
Cu8 O40 1.967771 1_555
Cu8 O35 1.990168 1_554
Cu8 O41 2.008322 1_555
Cu8 O33 2.471415 1_555
O0 Si0 1.653505 1_555
O0 Si8 1.678448 1_655
O1 Si1 1.684976 1_545
O1 Si0 1.686253 1_555
O2 Si2 1.684493 1_555
O2 Si3 1.686556 1_555
O3 Si8 1.626164 1_655
O4 Si3 1.650187 1_555
O4 Si14 1.677252 1_555
O5 Si1 1.625639 1_555
O6 Si2 1.626476 1_555
O7 Si3 1.616586 1_555
O8 Si4 1.640224 1_555
O9 Si14 1.626430 1_555
O10 Si15 1.616851 1_555
O11 Si3 1.642068 1_555
O12 Si5 1.642068 1_555
O13 Si4 1.616851 1_555
O14 Si6 1.626430 1_555
O15 Si15 1.640224 1_555
O16 Si5 1.616586 1_555
O17 Si4 1.656430 1_555
O17 Si13 1.676820 1_654
O18 Si8 1.626476 1_555
O19 Si9 1.625639 1_555
O20 Si4 1.685354 1_555
O20 Si6 1.687539 1_555
O21 Si5 1.650187 1_555
O21 Si6 1.677252 1_555
O22 Si2 1.626164 1_455
O23 Si7 1.680059 1_555
O23 Si10 1.681660 1_555
O24 Si8 1.684493 1_555
O24 Si5 1.686556 1_555
O25 Si13 1.626197 1_655
O26 Si10 1.650301 1_555
O26 Si9 1.680077 1_555
O27 Si9 1.684976 1_565
O27 Si11 1.686253 1_555
O28 Si6 1.612908 1_555
O29 Si7 1.636871 1_556
O30 Si11 1.653505 1_555
O30 Si2 1.678448 1_455
O31 Si10 1.618211 1_566
O32 Si0 1.642529 1_565
O33 Si9 1.626071 1_555
O34 Si11 1.616766 1_555
O35 Si10 1.652980 1_556
O36 Si12 1.652980 1_554
O37 Si0 1.616766 1_555
O38 Si1 1.626071 1_555
O39 Si11 1.642529 1_545
O40 Si12 1.618211 1_544
O41 Si13 1.636871 1_554
O42 Si14 1.612908 1_555
O43 Si12 1.650301 1_555
O43 Si1 1.680077 1_555
O44 Si7 1.626197 1_455
O45 Si13 1.680059 1_555
O45 Si12 1.681660 1_555
O46 Si15 1.685354 1_555
O46 Si14 1.687539 1_555
O47 Si15 1.656430 1_555
O47 Si7 1.676820 1_456
