# generated using pymatgen
data_Mn5Cr3O16
_symmetry_space_group_name_H-M   'P 1'
_cell_length_a   5.83421936
_cell_length_b   5.84465808
_cell_length_c   19.35827489
_cell_angle_alpha   98.67147496
_cell_angle_beta   89.92465965
_cell_angle_gamma   119.98733869
_symmetry_Int_Tables_number   1
_chemical_formula_structural   Mn5Cr3O16
_chemical_formula_sum   'Mn10 Cr6 O32'
_cell_volume   563.08214182
_cell_formula_units_Z   2
loop_
 _symmetry_equiv_pos_site_id
 _symmetry_equiv_pos_as_xyz
  1  'x, y, z'
loop_
 _atom_site_type_symbol
 _atom_site_label
 _atom_site_symmetry_multiplicity
 _atom_site_fract_x
 _atom_site_fract_y
 _atom_site_fract_z
 _atom_site_occupancy
  Mn  Mn0  1  0.12496700  0.74994800  0.37501100  1
  Mn  Mn1  1  0.37490700  0.24990700  0.12495200  1
  Mn  Mn2  1  0.50008500  0.00019300  0.00001300  1
  Mn  Mn3  1  0.24993400  0.50017400  0.24974800  1
  Mn  Mn4  1  0.87506500  0.25002700  0.12497300  1
  Mn  Mn5  1  0.99994300  0.99959600  0.50025600  1
  Mn  Mn6  1  0.37420600  0.24895300  0.62491800  1
  Mn  Mn7  1  0.12580300  0.75113100  0.87508100  1
  Mn  Mn8  1  0.87481700  0.24904500  0.62494300  1
  Mn  Mn9  1  0.62525400  0.75111400  0.87508100  1
  Cr  Cr0  1  0.37492700  0.75017700  0.12493100  1
  Cr  Cr1  1  0.62500300  0.74989800  0.37501300  1
  Cr  Cr2  1  0.12501300  0.25002000  0.37505400  1
  Cr  Cr3  1  0.87496000  0.74960300  0.62481800  1
  Cr  Cr4  1  0.74994700  0.49992500  0.75000700  1
  Cr  Cr5  1  0.62520200  0.25029300  0.87524300  1
  O  O0  1  0.22950700  0.89912300  0.06618600  1
  O  O1  1  0.66950300  0.89928000  0.06608000  1
  O  O2  1  0.19113900  0.38180500  0.07390900  1
  O  O3  1  0.08006900  0.60068400  0.18366900  1
  O  O4  1  0.52038600  0.60091500  0.18367200  1
  O  O5  1  0.08085300  0.16255800  0.18362000  1
  O  O6  1  0.66867900  0.33700300  0.06620200  1
  O  O7  1  0.41627100  0.83548000  0.31570700  1
  O  O8  1  0.16921800  0.89847000  0.56629800  1
  O  O9  1  0.41716800  0.39809100  0.31585600  1
  O  O10  1  0.55889400  0.11823100  0.17604100  1
  O  O11  1  0.30847800  0.61843700  0.42583600  1
  O  O12  1  0.94150100  0.88155800  0.32423200  1
  O  O13  1  0.83366400  0.66431200  0.43428400  1
  O  O14  1  0.01945100  0.59922000  0.68343900  1
  O  O15  1  0.27034300  0.10037600  0.43379200  1
  O  O16  1  0.97964400  0.39946100  0.31627500  1
  O  O17  1  0.72949100  0.89834700  0.56628300  1
  O  O18  1  0.16895800  0.33705200  0.56616600  1
  O  O19  1  0.05900300  0.11853200  0.67620200  1
  O  O20  1  0.57994400  0.59920600  0.68352700  1
  O  O21  1  0.69098600  0.38148400  0.57406700  1
  O  O22  1  0.44116100  0.88183700  0.82383300  1
  O  O23  1  0.83271300  0.10173800  0.43420900  1
  O  O24  1  0.33143000  0.66338300  0.93394900  1
  O  O25  1  0.58027100  0.16094300  0.68283200  1
  O  O26  1  0.48054600  0.40079800  0.81654900  1
  O  O27  1  0.91983600  0.83923100  0.81721000  1
  O  O28  1  0.80887000  0.61821700  0.92586800  1
  O  O29  1  0.92030800  0.40098400  0.81645600  1
  O  O30  1  0.33120500  0.10152000  0.93390000  1
  O  O31  1  0.77047500  0.10172000  0.93380400  1
loop_
_geom_bond_atom_site_label_1
_geom_bond_atom_site_label_2
_geom_bond_distance
_geom_bond_site_symmetry_2
Mn0 O12 1.938425 1_455
Mn0 O11 1.938695 1_555
Mn0 O16 1.942165 1_455
Mn0 O15 1.942252 1_565
Mn0 O13 1.942477 1_455
Mn0 O7 1.942913 1_555
Mn1 O0 1.943672 1_545
Mn1 O2 1.943913 1_555
Mn1 O4 1.944231 1_555
Mn1 O10 1.944407 1_555
Mn1 O6 1.946135 1_555
Mn1 O5 1.946247 1_555
Mn2 O31 1.942084 1_554
Mn2 O0 1.942321 1_545
Mn2 O1 1.942697 1_545
Mn2 O30 1.942841 1_554
Mn2 O24 1.945977 1_544
Mn2 O6 1.947201 1_555
Mn3 O7 1.939162 1_555
Mn3 O9 1.939352 1_555
Mn3 O4 1.940519 1_555
Mn3 O3 1.943039 1_555
Mn3 O16 1.946052 1_455
Mn3 O5 1.949714 1_555
Mn4 O3 1.942416 1_655
Mn4 O2 1.943169 1_655
Mn4 O10 1.943637 1_555
Mn4 O1 1.944685 1_545
Mn4 O5 1.945221 1_655
Mn4 O6 1.947436 1_555
Mn5 O23 1.938729 1_565
Mn5 O13 1.939206 1_555
Mn5 O17 1.939843 1_555
Mn5 O8 1.942622 1_655
Mn5 O15 1.945613 1_665
Mn5 O18 1.946969 1_665
Mn6 O25 1.939706 1_555
Mn6 O20 1.940531 1_555
Mn6 O8 1.941110 1_545
Mn6 O19 1.941796 1_555
Mn6 O21 1.943922 1_555
Mn6 O18 1.946561 1_555
Mn7 O27 1.939109 1_455
Mn7 O29 1.940125 1_455
Mn7 O22 1.942073 1_555
Mn7 O30 1.942611 1_565
Mn7 O28 1.943893 1_455
Mn7 O24 1.948266 1_555
Mn8 O25 1.938665 1_555
Mn8 O14 1.939184 1_655
Mn8 O19 1.942074 1_655
Mn8 O17 1.942459 1_545
Mn8 O21 1.944723 1_555
Mn8 O18 1.947597 1_655
Mn9 O27 1.938600 1_555
Mn9 O26 1.940059 1_555
Mn9 O22 1.942462 1_555
Mn9 O31 1.942632 1_565
Mn9 O28 1.944813 1_555
Mn9 O24 1.947454 1_555
Cr0 O3 1.951307 1_555
Cr0 O1 1.951431 1_555
Cr0 O0 1.951977 1_555
Cr0 O10 1.952282 1_565
Cr0 O2 1.953098 1_555
Cr0 O4 1.953464 1_555
Cr1 O12 1.941928 1_555
Cr1 O11 1.942509 1_555
Cr1 O9 1.952172 1_555
Cr1 O23 1.952552 1_565
Cr1 O13 1.958105 1_555
Cr1 O7 1.958824 1_555
Cr2 O9 1.945991 1_555
Cr2 O23 1.946117 1_455
Cr2 O11 1.951724 1_555
Cr2 O12 1.952183 1_445
Cr2 O16 1.954383 1_455
Cr2 O15 1.954609 1_555
Cr3 O8 1.945922 1_655
Cr3 O17 1.948636 1_555
Cr3 O21 1.950206 1_555
Cr3 O20 1.952056 1_555
Cr3 O14 1.953169 1_655
Cr3 O19 1.957934 1_665
Cr4 O26 1.942883 1_555
Cr4 O14 1.943629 1_655
Cr4 O29 1.944006 1_555
Cr4 O20 1.944348 1_555
Cr4 O25 1.965260 1_555
Cr4 O27 1.966781 1_555
Cr5 O30 1.946590 1_555
Cr5 O31 1.947459 1_555
Cr5 O28 1.948526 1_555
Cr5 O29 1.953548 1_555
Cr5 O26 1.955257 1_555
Cr5 O22 1.956033 1_545
