# generated using pymatgen
data_Li5Mn2P2(CO7)2
_symmetry_space_group_name_H-M   'P 1'
_cell_length_a   6.44665100
_cell_length_b   9.55307300
_cell_length_c   10.16620787
_cell_angle_alpha   62.25224801
_cell_angle_beta   90.00000000
_cell_angle_gamma   90.00000000
_symmetry_Int_Tables_number   1
_chemical_formula_structural   Li5Mn2P2(CO7)2
_chemical_formula_sum   'Li10 Mn4 P4 C4 O28'
_cell_volume   554.09267663
_cell_formula_units_Z   2
loop_
 _symmetry_equiv_pos_site_id
 _symmetry_equiv_pos_as_xyz
  1  'x, y, z'
loop_
 _atom_site_type_symbol
 _atom_site_label
 _atom_site_symmetry_multiplicity
 _atom_site_fract_x
 _atom_site_fract_y
 _atom_site_fract_z
 _atom_site_occupancy
  Li  Li0  1  0.25000000  0.08968100  0.07819900  1
  Li  Li1  1  0.01877200  0.26127900  0.73623300  1
  Li  Li2  1  0.48122800  0.26127900  0.73623300  1
  Li  Li3  1  0.48034500  0.25524800  0.25413500  1
  Li  Li4  1  0.01965500  0.25524800  0.25413500  1
  Li  Li5  1  0.98034500  0.74475200  0.74586500  1
  Li  Li6  1  0.51965500  0.74475200  0.74586500  1
  Li  Li7  1  0.98122800  0.73872100  0.26376700  1
  Li  Li8  1  0.51877200  0.73872100  0.26376700  1
  Li  Li9  1  0.75000000  0.91031900  0.92180100  1
  Mn  Mn0  1  0.75000000  0.33584300  0.93819000  1
  Mn  Mn1  1  0.75000000  0.34044800  0.43828700  1
  Mn  Mn2  1  0.25000000  0.65955200  0.56171300  1
  Mn  Mn3  1  0.25000000  0.66415700  0.06181000  1
  P  P0  1  0.25000000  0.41498700  0.93443300  1
  P  P1  1  0.25000000  0.41972200  0.42630000  1
  P  P2  1  0.75000000  0.58027800  0.57370000  1
  P  P3  1  0.75000000  0.58501300  0.06556700  1
  C  C0  1  0.75000000  0.04588100  0.63071000  1
  C  C1  1  0.75000000  0.03364200  0.12643000  1
  C  C2  1  0.25000000  0.96635800  0.87357000  1
  C  C3  1  0.25000000  0.95411900  0.36929000  1
  O  O0  1  0.75000000  0.07226700  0.98547200  1
  O  O1  1  0.75000000  0.09777000  0.48857100  1
  O  O2  1  0.25000000  0.10974500  0.77265400  1
  O  O3  1  0.75000000  0.15013200  0.68026700  1
  O  O4  1  0.25000000  0.10345600  0.27473200  1
  O  O5  1  0.75000000  0.15238600  0.15910800  1
  O  O6  1  0.06394300  0.31220700  0.93118800  1
  O  O7  1  0.43605700  0.31220700  0.93118800  1
  O  O8  1  0.05903300  0.32539800  0.42094700  1
  O  O9  1  0.44096700  0.32539800  0.42094700  1
  O  O10  1  0.75000000  0.41050400  0.70680900  1
  O  O11  1  0.25000000  0.43650500  0.57288500  1
  O  O12  1  0.75000000  0.41654900  0.19784600  1
  O  O13  1  0.25000000  0.42772100  0.08182000  1
  O  O14  1  0.75000000  0.57227900  0.91818000  1
  O  O15  1  0.25000000  0.58345100  0.80215400  1
  O  O16  1  0.75000000  0.56349500  0.42711500  1
  O  O17  1  0.25000000  0.58949600  0.29319100  1
  O  O18  1  0.94096700  0.67460200  0.57905300  1
  O  O19  1  0.55903300  0.67460200  0.57905300  1
  O  O20  1  0.56394300  0.68779300  0.06881200  1
  O  O21  1  0.93605700  0.68779300  0.06881200  1
  O  O22  1  0.25000000  0.84761400  0.84089200  1
  O  O23  1  0.75000000  0.89654400  0.72526800  1
  O  O24  1  0.25000000  0.84986800  0.31973300  1
  O  O25  1  0.75000000  0.89025500  0.22734600  1
  O  O26  1  0.25000000  0.90223000  0.51142900  1
  O  O27  1  0.25000000  0.92773300  0.01452800  1
loop_
_geom_bond_atom_site_label_1
_geom_bond_atom_site_label_2
_geom_bond_distance
_geom_bond_site_symmetry_2
Li0 O27 1.935200 1_545
Li0 O4 2.062553 1_555
Li0 O6 2.287572 1_554
Li0 O7 2.287572 1_554
Li0 O24 2.457585 1_545
Li1 O2 1.988872 1_555
Li1 O10 2.174120 1_455
Li1 O3 2.239607 1_455
Li1 O6 2.268814 1_555
Li1 O11 2.278897 1_555
Li2 O2 1.988872 1_555
Li2 O10 2.174120 1_555
Li2 O3 2.239607 1_555
Li2 O7 2.268814 1_555
Li2 O11 2.278897 1_555
Li3 O4 2.017159 1_555
Li3 O9 2.108949 1_555
Li3 O12 2.214216 1_555
Li3 O13 2.302382 1_555
Li3 O5 2.409308 1_555
Li4 O4 2.017159 1_555
Li4 O8 2.108949 1_555
Li4 O12 2.214216 1_455
Li4 O13 2.302382 1_555
Li4 O5 2.409308 1_455
Li5 O23 2.017159 1_555
Li5 O18 2.108949 1_555
Li5 O15 2.214216 1_655
Li5 O14 2.302382 1_555
Li5 O22 2.409308 1_655
Li6 O23 2.017159 1_555
Li6 O19 2.108949 1_555
Li6 O15 2.214216 1_555
Li6 O14 2.302382 1_555
Li6 O22 2.409308 1_555
Li7 O25 1.988872 1_555
Li7 O17 2.174120 1_655
Li7 O24 2.239607 1_655
Li7 O21 2.268814 1_555
Li7 O16 2.278897 1_555
Li8 O25 1.988872 1_555
Li8 O17 2.174120 1_555
Li8 O24 2.239607 1_555
Li8 O20 2.268814 1_555
Li8 O16 2.278897 1_555
Li9 O0 1.935200 1_565
Li9 O23 2.062553 1_555
Li9 O21 2.287572 1_556
Li9 O20 2.287572 1_556
Li9 O3 2.457585 1_565
Mn0 O7 2.041350 1_555
Mn0 O6 2.041350 1_655
Mn0 O5 2.109607 1_556
Mn0 O10 2.116515 1_555
Mn0 O14 2.171455 1_555
Mn0 O0 2.333274 1_555
Mn1 O8 2.011049 1_655
Mn1 O9 2.011049 1_555
Mn1 O16 2.080335 1_555
Mn1 O1 2.128943 1_555
Mn1 O12 2.201991 1_555
Mn1 O3 2.278709 1_555
Mn2 O18 2.011049 1_455
Mn2 O19 2.011049 1_555
Mn2 O11 2.080335 1_555
Mn2 O26 2.128943 1_555
Mn2 O15 2.201991 1_555
Mn2 O24 2.278709 1_555
Mn3 O20 2.041350 1_555
Mn3 O21 2.041350 1_455
Mn3 O22 2.109607 1_554
Mn3 O17 2.116515 1_555
Mn3 O13 2.171455 1_555
Mn3 O27 2.333274 1_555
C0 O1 1.291047 1_555
C0 O23 1.297055 1_545
C0 O3 1.308771 1_555
C1 O25 1.272905 1_545
C1 O0 1.302806 1_554
C1 O5 1.322145 1_555
C2 O2 1.272905 1_565
C2 O27 1.302806 1_556
C2 O22 1.322145 1_555
C3 O26 1.291047 1_555
C3 O4 1.297055 1_565
C3 O24 1.308771 1_555
O6 P0 1.560120 1_555
O7 P0 1.560120 1_555
O8 P1 1.541485 1_555
O9 P1 1.541485 1_555
O10 P2 1.554988 1_555
O11 P1 1.571279 1_555
O12 P3 1.543761 1_555
O13 P0 1.558727 1_554
O14 P3 1.558727 1_556
O15 P0 1.543761 1_555
O16 P2 1.571279 1_555
O17 P1 1.554988 1_555
O18 P2 1.541485 1_555
O19 P2 1.541485 1_555
O20 P3 1.560120 1_555
O21 P3 1.560120 1_555
