# generated using pymatgen
data_Li3Nb2Fe3O10
_symmetry_space_group_name_H-M   'P 1'
_cell_length_a   5.26056700
_cell_length_b   5.35971506
_cell_length_c   8.06622695
_cell_angle_alpha   100.47189481
_cell_angle_beta   108.19569063
_cell_angle_gamma   101.73601588
_symmetry_Int_Tables_number   1
_chemical_formula_structural   Li3Nb2Fe3O10
_chemical_formula_sum   'Li3 Nb2 Fe3 O10'
_cell_volume   204.05238089
_cell_formula_units_Z   1
loop_
 _symmetry_equiv_pos_site_id
 _symmetry_equiv_pos_as_xyz
  1  'x, y, z'
loop_
 _atom_site_type_symbol
 _atom_site_label
 _atom_site_symmetry_multiplicity
 _atom_site_fract_x
 _atom_site_fract_y
 _atom_site_fract_z
 _atom_site_occupancy
  Li  Li0  1  0.87568300  0.31823300  0.41679900  1
  Li  Li1  1  0.33050700  0.39884900  0.76318300  1
  Li  Li2  1  0.67158100  0.61281800  0.21654500  1
  Nb  Nb0  1  0.73536100  0.05448000  0.68823900  1
  Nb  Nb1  1  0.25671700  0.91433000  0.31129500  1
  Fe  Fe0  1  0.50074800  0.00202300  0.00038500  1
  Fe  Fe1  1  0.90495600  0.66356800  0.88179900  1
  Fe  Fe2  1  0.10771700  0.31657400  0.10441100  1
  O  O0  1  0.92674500  0.39627300  0.67563900  1
  O  O1  1  0.48070000  0.21227700  0.22653700  1
  O  O2  1  0.34128000  0.12197700  0.54990800  1
  O  O3  1  0.68708500  0.30492000  0.92170900  1
  O  O4  1  0.90486300  0.96197200  0.15807800  1
  O  O5  1  0.10195000  0.04159000  0.86088200  1
  O  O6  1  0.31062600  0.68922300  0.07377400  1
  O  O7  1  0.66077300  0.86491300  0.44738500  1
  O  O8  1  0.54383000  0.78161900  0.78798400  1
  O  O9  1  0.06770600  0.57034400  0.31369000  1
loop_
_geom_bond_atom_site_label_1
_geom_bond_atom_site_label_2
_geom_bond_distance
_geom_bond_site_symmetry_2
Li0 O0 1.973035 1_555
Li0 O9 1.978870 1_655
Li0 O1 2.051057 1_555
Li0 O7 2.552830 1_545
Li0 O4 2.625935 1_545
Li1 O0 2.014473 1_455
Li1 O8 2.069350 1_555
Li1 O2 2.081336 1_555
Li1 O3 2.127756 1_555
Li1 O5 2.436566 1_555
Li2 O6 2.054644 1_555
Li2 O9 2.060652 1_655
Li2 O7 2.116310 1_555
Li2 O1 2.204537 1_555
Li2 O4 2.231245 1_555
Nb0 O7 1.898653 1_545
Nb0 O0 1.939369 1_555
Nb0 O5 2.018665 1_655
Nb0 O8 2.033677 1_545
Nb0 O2 2.163514 1_555
Nb0 O3 2.220639 1_555
Nb1 O2 1.904263 1_565
Nb1 O9 1.915026 1_555
Nb1 O4 1.974076 1_455
Nb1 O1 2.130819 1_565
Nb1 O7 2.161178 1_555
Nb1 O6 2.201138 1_555
Fe0 O8 1.999465 1_544
Fe0 O1 2.007475 1_555
Fe0 O3 2.028499 1_554
Fe0 O6 2.051791 1_545
Fe0 O5 2.122688 1_554
Fe0 O4 2.186206 1_545
Fe1 O0 2.037336 1_555
Fe1 O8 2.084984 1_555
Fe1 O5 2.141668 1_665
Fe1 O3 2.161344 1_555
Fe1 O6 2.170345 1_656
Fe1 O4 2.495932 1_556
Fe2 O9 2.060986 1_555
Fe2 O1 2.138220 1_555
Fe2 O6 2.160208 1_555
Fe2 O4 2.168136 1_445
Fe2 O5 2.219012 1_554
Fe2 O3 2.223915 1_454
