# generated using pymatgen
data_K3V14O28
_symmetry_space_group_name_H-M   'P 1'
_cell_length_a   12.51593380
_cell_length_b   12.51593380
_cell_length_c   12.51593380
_cell_angle_alpha   131.62396459
_cell_angle_beta   131.62396459
_cell_angle_gamma   70.82358627
_symmetry_Int_Tables_number   1
_chemical_formula_structural   K3V14O28
_chemical_formula_sum   'K6 V28 O56'
_cell_volume   1073.03100496
_cell_formula_units_Z   2
loop_
 _symmetry_equiv_pos_site_id
 _symmetry_equiv_pos_as_xyz
  1  'x, y, z'
loop_
 _atom_site_type_symbol
 _atom_site_label
 _atom_site_symmetry_multiplicity
 _atom_site_fract_x
 _atom_site_fract_y
 _atom_site_fract_z
 _atom_site_occupancy
  K  K0  1  0.76949800  0.76949800  0.00000000  1
  K  K1  1  0.07599200  0.07599200  0.00000000  1
  K  K2  1  0.60297200  0.60297200  0.00000000  1
  K  K3  1  0.92400800  0.92400800  0.00000000  1
  K  K4  1  0.23050200  0.23050200  0.00000000  1
  K  K5  1  0.39702800  0.39702800  0.00000000  1
  V  V0  1  0.16884700  0.64773100  0.81657800  1
  V  V1  1  0.78075300  0.59617900  0.52155200  1
  V  V2  1  0.92537400  0.74080000  0.52155200  1
  V  V3  1  0.64773100  0.83115300  0.47888400  1
  V  V4  1  0.50476700  0.68665700  0.48082700  1
  V  V5  1  0.11963200  0.63795800  0.18433700  1
  V  V6  1  0.25920000  0.78075300  0.18457400  1
  V  V7  1  0.40382100  0.92537400  0.18457400  1
  V  V8  1  0.31334300  0.79417000  0.81811000  1
  V  V9  1  0.74080000  0.21924700  0.81542600  1
  V  V10  1  0.45362200  0.93529500  0.81566300  1
  V  V11  1  0.59617900  0.07462600  0.81542600  1
  V  V12  1  0.20583000  0.02394000  0.51917300  1
  V  V13  1  0.06470500  0.88036800  0.51832600  1
  V  V14  1  0.35226900  0.16884700  0.52111600  1
  V  V15  1  0.79417000  0.97606000  0.48082700  1
  V  V16  1  0.21924700  0.40382100  0.47844800  1
  V  V17  1  0.07462600  0.25920000  0.47844800  1
  V  V18  1  0.93529500  0.11963200  0.48167400  1
  V  V19  1  0.68665700  0.20583000  0.18189000  1
  V  V20  1  0.54637800  0.06470500  0.18433700  1
  V  V21  1  0.83115300  0.35226900  0.18342200  1
  V  V22  1  0.88036800  0.36204200  0.81566300  1
  V  V23  1  0.02394000  0.50476700  0.81811000  1
  V  V24  1  0.63795800  0.45362200  0.51832600  1
  V  V25  1  0.49523300  0.31334300  0.51917300  1
  V  V26  1  0.36204200  0.54637800  0.48167400  1
  V  V27  1  0.97606000  0.49523300  0.18189000  1
  O  O0  1  0.22404300  0.58701000  0.95282200  1
  O  O1  1  0.36581100  0.72877800  0.95282200  1
  O  O2  1  0.97004800  0.59473800  0.70657500  1
  O  O3  1  0.11183700  0.73652700  0.70657500  1
  O  O4  1  0.58701000  0.63418900  0.36296700  1
  O  O5  1  0.72877800  0.77595700  0.36296700  1
  O  O6  1  0.84552200  0.79718900  0.64271200  1
  O  O7  1  0.70364700  0.65905400  0.64702700  1
  O  O8  1  0.45994800  0.83692700  0.29687500  1
  O  O9  1  0.32035200  0.69428500  0.29691700  1
  O  O10  1  0.20281100  0.84552200  0.04833300  1
  O  O11  1  0.05662100  0.70364700  0.04459300  1
  O  O12  1  0.45272200  0.74759700  0.62508500  1
  O  O13  1  0.30571500  0.60263200  0.62606700  1
  O  O14  1  0.73652700  0.02995200  0.62469000  1
  O  O15  1  0.59473800  0.88816300  0.62469000  1
  O  O16  1  0.97656500  0.67964800  0.37393300  1
  O  O17  1  0.12251200  0.82763700  0.37491500  1
  O  O18  1  0.40526200  0.11183700  0.37531000  1
  O  O19  1  0.26347300  0.97004800  0.37531000  1
  O  O20  1  0.65905400  0.01202700  0.95540700  1
  O  O21  1  0.51132900  0.86692400  0.95468200  1
  O  O22  1  0.79718900  0.15447800  0.95166700  1
  O  O23  1  0.39736800  0.02343500  0.70308300  1
  O  O24  1  0.25240300  0.87748800  0.70512500  1
  O  O25  1  0.54005200  0.16307300  0.70312500  1
  O  O26  1  0.01202700  0.05662100  0.35297300  1
  O  O27  1  0.86692400  0.91224200  0.35559400  1
  O  O28  1  0.15447800  0.20281100  0.35728800  1
  O  O29  1  0.98797300  0.94337900  0.64702700  1
  O  O30  1  0.41299000  0.36581100  0.63703300  1
  O  O31  1  0.13307600  0.08775800  0.64440600  1
  O  O32  1  0.27122200  0.22404300  0.63703300  1
  O  O33  1  0.60263200  0.97656500  0.29691700  1
  O  O34  1  0.02995200  0.40526200  0.29342500  1
  O  O35  1  0.88816300  0.26347300  0.29342500  1
  O  O36  1  0.74759700  0.12251200  0.29487500  1
  O  O37  1  0.34094600  0.98797300  0.04459300  1
  O  O38  1  0.77595700  0.41299000  0.04717800  1
  O  O39  1  0.63418900  0.27122200  0.04717800  1
  O  O40  1  0.48867100  0.13307600  0.04531800  1
  O  O41  1  0.87748800  0.17236300  0.62508500  1
  O  O42  1  0.16307300  0.45994800  0.62302100  1
  O  O43  1  0.02343500  0.32035200  0.62606700  1
  O  O44  1  0.54727800  0.25240300  0.37491500  1
  O  O45  1  0.83692700  0.54005200  0.37697900  1
  O  O46  1  0.69428500  0.39736800  0.37393300  1
  O  O47  1  0.94337900  0.29635300  0.95540700  1
  O  O48  1  0.08775800  0.44335200  0.95468200  1
  O  O49  1  0.82763700  0.45272200  0.70512500  1
  O  O50  1  0.67964800  0.30571500  0.70308300  1
  O  O51  1  0.29635300  0.34094600  0.35297300  1
  O  O52  1  0.44335200  0.48867100  0.35559400  1
  O  O53  1  0.55664800  0.51132900  0.64440600  1
  O  O54  1  0.17236300  0.54727800  0.29487500  1
  O  O55  1  0.91224200  0.55664800  0.04531800  1
loop_
_geom_bond_atom_site_label_1
_geom_bond_atom_site_label_2
_geom_bond_distance
_geom_bond_site_symmetry_2
K0 O27 2.853936 1_555
K0 O55 2.853936 1_555
K0 O53 2.853941 1_554
K0 O21 2.853946 1_554
K0 O7 3.147314 1_554
K0 O20 3.147314 1_564
K0 O26 3.147320 1_665
K0 O11 3.147325 1_655
K1 O29 2.912039 1_444
K1 O37 2.912043 1_545
K1 O51 2.912043 1_555
K1 O47 2.912045 1_454
K1 O28 3.039826 1_555
K1 O6 3.039837 1_444
K1 O10 3.039838 1_545
K1 O22 3.039838 1_454
K2 O38 2.734031 1_555
K2 O30 2.734035 1_554
K2 O5 2.734035 1_555
K2 O1 2.734036 1_554
K3 O26 2.912039 1_665
K3 O7 2.912043 1_554
K3 O20 2.912043 1_564
K3 O11 2.912045 1_655
K3 O6 3.039826 1_554
K3 O28 3.039837 1_665
K3 O10 3.039838 1_655
K3 O22 3.039838 1_564
K4 O48 2.853936 1_554
K4 O31 2.853936 1_554
K4 O52 2.853941 1_555
K4 O40 2.853946 1_555
K4 O37 3.147314 1_545
K4 O51 3.147314 1_555
K4 O29 3.147320 1_444
K4 O47 3.147325 1_454
K5 O0 2.734031 1_554
K5 O32 2.734035 1_554
K5 O4 2.734035 1_555
K5 O39 2.734036 1_555
O0 V0 1.942764 1_555
O0 V23 1.988216 1_555
O0 V6 2.036794 1_556
O1 V0 1.942748 1_555
O1 V8 1.988231 1_555
O1 V7 2.036794 1_556
O2 V1 1.927400 1_555
O2 V0 1.961249 1_655
O2 V23 2.002537 1_655
O3 V2 1.927400 1_455
O3 V0 1.961249 1_555
O3 V8 2.002537 1_555
O4 V3 1.942752 1_555
O4 V4 1.988220 1_555
O4 V1 2.036795 1_555
O5 V3 1.942752 1_555
O5 V15 1.988220 1_555
O5 V2 2.036796 1_555
O6 V1 1.981058 1_555
O6 V2 1.981089 1_555
O6 V3 2.058312 1_555
O7 V1 1.972195 1_555
O7 V24 2.002212 1_555
O7 V4 2.037999 1_555
O8 V3 1.926881 1_555
O8 V6 1.984678 1_555
O8 V7 1.984678 1_555
O9 V4 1.929775 1_555
O9 V6 1.944677 1_555
O9 V5 1.983650 1_555
O10 V7 1.981067 1_555
O10 V6 1.981067 1_555
O10 V0 2.058308 1_554
O11 V6 1.972174 1_555
O11 V5 2.002227 1_555
O11 V23 2.037995 1_554
O12 V4 1.916387 1_555
O12 V10 1.935455 1_555
O12 V26 2.004649 1_555
O13 V8 1.929775 1_555
O13 V16 1.944681 1_555
O13 V26 1.983645 1_555
O14 V9 1.927395 1_555
O14 V3 1.961249 1_545
O14 V15 2.002537 1_545
O15 V11 1.927395 1_565
O15 V3 1.961249 1_555
O15 V4 2.002537 1_555
O16 V27 1.929775 1_555
O16 V2 1.944666 1_555
O16 V13 1.983650 1_655
O17 V12 1.916387 1_565
O17 V5 1.935460 1_555
O17 V13 2.004639 1_555
O18 V7 1.927395 1_545
O18 V14 1.961249 1_555
O18 V25 2.002537 1_555
O19 V6 1.927395 1_555
O19 V14 1.961249 1_565
O19 V12 2.002537 1_565
O20 V11 1.972185 1_555
O20 V10 2.002212 1_545
O20 V19 2.037999 1_556
O21 V8 1.918058 1_555
O21 V20 2.041545 1_566
O21 V10 2.045443 1_555
O22 V11 1.981067 1_555
O22 V9 1.981067 1_555
O22 V21 2.058308 1_556
O23 V12 1.929775 1_555
O23 V11 1.944677 1_555
O23 V10 1.983646 1_545
O24 V8 1.916387 1_555
O24 V13 1.935460 1_555
O24 V10 2.004650 1_555
O25 V14 1.926881 1_555
O25 V11 1.984678 1_555
O25 V9 1.984678 1_555
O26 V17 1.972169 1_555
O26 V18 2.002227 1_455
O26 V12 2.038005 1_555
O27 V15 1.918069 1_555
O27 V13 2.041545 1_655
O27 V18 2.045435 1_565
O28 V16 1.981058 1_555
O28 V17 1.981089 1_555
O28 V14 2.058312 1_555
O29 V2 1.972169 1_555
O29 V13 2.002227 1_655
O29 V15 2.038005 1_555
O30 V14 1.942752 1_555
O30 V25 1.988220 1_555
O30 V16 2.036795 1_555
O31 V12 1.918069 1_555
O31 V18 2.041545 1_455
O31 V13 2.045435 1_545
O32 V14 1.942752 1_555
O32 V12 1.988220 1_555
O32 V17 2.036796 1_555
O33 V15 1.929775 1_555
O33 V7 1.944677 1_555
O33 V20 1.983646 1_565
O34 V16 1.927400 1_555
O34 V21 1.961249 1_455
O34 V27 2.002537 1_455
O35 V17 1.927400 1_655
O35 V21 1.961249 1_555
O35 V19 2.002537 1_555
O36 V19 1.916387 1_555
O36 V18 1.935460 1_555
O36 V20 2.004650 1_555
O37 V7 1.972185 1_555
O37 V20 2.002212 1_565
O37 V8 2.037999 1_554
O38 V21 1.942764 1_555
O38 V27 1.988216 1_555
O38 V9 2.036794 1_554
O39 V21 1.942748 1_555
O39 V19 1.988231 1_555
O39 V11 2.036794 1_554
O40 V19 1.918058 1_555
O40 V10 2.041545 1_544
O40 V20 2.045443 1_555
O41 V15 1.916387 1_545
O41 V22 1.935460 1_555
O41 V18 2.004639 1_555
O42 V0 1.926881 1_555
O42 V16 1.984667 1_555
O42 V17 1.984682 1_555
O43 V23 1.929775 1_555
O43 V17 1.944666 1_555
O43 V18 1.983650 1_455
O44 V25 1.916387 1_555
O44 V20 1.935455 1_555
O44 V24 2.004649 1_555
O45 V21 1.926881 1_555
O45 V1 1.984667 1_555
O45 V2 1.984682 1_555
O46 V19 1.929775 1_555
O46 V1 1.944681 1_555
O46 V24 1.983645 1_555
O47 V9 1.972174 1_555
O47 V22 2.002227 1_555
O47 V27 2.037995 1_556
O48 V23 1.918069 1_555
O48 V5 2.041545 1_556
O48 V22 2.045435 1_455
O49 V23 1.916387 1_655
O49 V24 1.935466 1_555
O49 V22 2.004639 1_555
O50 V25 1.929775 1_555
O50 V9 1.944677 1_555
O50 V22 1.983650 1_555
O51 V16 1.972195 1_555
O51 V26 2.002212 1_555
O51 V25 2.037999 1_555
O52 V4 1.918058 1_555
O52 V24 2.041545 1_555
O52 V26 2.045443 1_555
O53 V25 1.918058 1_555
O53 V26 2.041545 1_555
O53 V24 2.045443 1_555
O54 V27 1.916387 1_455
O54 V26 1.935466 1_555
O54 V5 2.004639 1_555
O55 V27 1.918069 1_555
O55 V22 2.041545 1_554
O55 V5 2.045435 1_655
