# generated using pymatgen
data_Li2FeP2O7
_symmetry_space_group_name_H-M   'P 1'
_cell_length_a   7.22920396
_cell_length_b   9.58114055
_cell_length_c   8.94792382
_cell_angle_alpha   97.17648205
_cell_angle_beta   113.74323918
_cell_angle_gamma   78.93193685
_symmetry_Int_Tables_number   1
_chemical_formula_structural   Li2FeP2O7
_chemical_formula_sum   'Li8 Fe4 P8 O28'
_cell_volume   555.97608948
_cell_formula_units_Z   4
loop_
 _symmetry_equiv_pos_site_id
 _symmetry_equiv_pos_as_xyz
  1  'x, y, z'
loop_
 _atom_site_type_symbol
 _atom_site_label
 _atom_site_symmetry_multiplicity
 _atom_site_fract_x
 _atom_site_fract_y
 _atom_site_fract_z
 _atom_site_occupancy
  Li  Li0  1  0.49637000  0.29685200  0.96236400  1
  Li  Li1  1  0.99371200  0.79705900  0.96075100  1
  Li  Li2  1  0.50610400  0.70261700  0.03939900  1
  Li  Li3  1  0.00413800  0.20302000  0.03776900  1
  Li  Li4  1  0.26640000  0.95162700  0.75973200  1
  Li  Li5  1  0.76885700  0.45178300  0.76027300  1
  Li  Li6  1  0.73100200  0.04812500  0.23960000  1
  Li  Li7  1  0.23351500  0.54838500  0.24035900  1
  Fe  Fe0  1  0.85561500  0.74881600  0.36562300  1
  Fe  Fe1  1  0.64429100  0.75127200  0.63469800  1
  Fe  Fe2  1  0.35472900  0.24924700  0.36511800  1
  Fe  Fe3  1  0.14521200  0.25100100  0.63450600  1
  P  P0  1  0.19200700  0.95738900  0.39794500  1
  P  P1  1  0.69333500  0.45707300  0.39779300  1
  P  P2  1  0.80644800  0.04297900  0.60187500  1
  P  P3  1  0.30813000  0.54276500  0.60235300  1
  P  P4  1  0.65852900  0.04495800  0.87459800  1
  P  P5  1  0.16120500  0.54444100  0.87560900  1
  P  P6  1  0.33910500  0.95514700  0.12468300  1
  P  P7  1  0.84124700  0.45529500  0.12510200  1
  O  O0  1  0.48017200  0.41697800  0.34523700  1
  O  O1  1  0.97853700  0.91742700  0.34497800  1
  O  O2  1  0.52159200  0.58275800  0.65515800  1
  O  O3  1  0.01969200  0.08295700  0.65463400  1
  O  O4  1  0.18326500  0.12109000  0.41419000  1
  O  O5  1  0.68435200  0.62080200  0.41424200  1
  O  O6  1  0.81503200  0.87924600  0.58550800  1
  O  O7  1  0.31702100  0.37908800  0.58579400  1
  O  O8  1  0.43266900  0.11238100  0.81763700  1
  O  O9  1  0.93539200  0.61215900  0.81951500  1
  O  O10  1  0.56492600  0.88743300  0.18081100  1
  O  O11  1  0.06703900  0.38767100  0.18199600  1
  O  O12  1  0.30114500  0.11840100  0.13974400  1
  O  O13  1  0.80306600  0.61857700  0.14009000  1
  O  O14  1  0.69717600  0.88166000  0.85998600  1
  O  O15  1  0.19909700  0.38121800  0.86023000  1
  O  O16  1  0.21679400  0.89514600  0.95316900  1
  O  O17  1  0.72013200  0.39497900  0.95345700  1
  O  O18  1  0.77939400  0.10555500  0.04618700  1
  O  O19  1  0.28358400  0.60423700  0.04720100  1
  O  O20  1  0.64806700  0.11688900  0.45130500  1
  O  O21  1  0.14978700  0.61694100  0.45187100  1
  O  O22  1  0.35016500  0.88340800  0.54860300  1
  O  O23  1  0.85194700  0.38312200  0.54826100  1
  O  O24  1  0.74938000  0.10385500  0.75864800  1
  O  O25  1  0.25110900  0.60364300  0.75908400  1
  O  O26  1  0.24935900  0.89618300  0.24141800  1
  O  O27  1  0.75015700  0.39634200  0.24089500  1
loop_
_geom_bond_atom_site_label_1
_geom_bond_atom_site_label_2
_geom_bond_distance
_geom_bond_site_symmetry_2
Li0 O15 2.010728 1_555
Li0 O17 2.052665 1_555
Li0 O8 2.067210 1_555
Li0 O18 2.403330 1_556
Li0 O27 2.623332 1_556
Li1 O14 2.006106 1_555
Li1 O16 2.043176 1_655
Li1 O9 2.052217 1_555
Li1 O19 2.442958 1_656
Li2 O13 2.007195 1_555
Li2 O19 2.042093 1_555
Li2 O10 2.052672 1_555
Li2 O16 2.438679 1_554
Li3 O12 2.009684 1_555
Li3 O18 2.053308 1_455
Li3 O11 2.065929 1_555
Li3 O17 2.411773 1_454
Li3 O24 2.628161 1_454
Li4 O3 1.931819 1_565
Li4 O8 2.023707 1_565
Li4 O16 2.055651 1_555
Li4 O22 2.196271 1_555
Li5 O2 1.932462 1_555
Li5 O9 2.020978 1_555
Li5 O17 2.051172 1_555
Li5 O23 2.201486 1_555
Li6 O1 1.932691 1_545
Li6 O10 2.021716 1_545
Li6 O18 2.054184 1_555
Li6 O20 2.198427 1_555
Li7 O0 1.931605 1_555
Li7 O11 2.024020 1_555
Li7 O19 2.052766 1_555
Li7 O21 2.199766 1_555
Fe0 O1 2.047320 1_555
Fe0 O5 2.092031 1_555
Fe0 O21 2.145909 1_655
Fe0 O13 2.170121 1_555
Fe0 O6 2.286613 1_555
Fe0 O10 2.365025 1_555
Fe1 O2 2.044895 1_555
Fe1 O6 2.091439 1_555
Fe1 O22 2.146729 1_555
Fe1 O14 2.168885 1_555
Fe1 O5 2.289691 1_555
Fe1 O9 2.368806 1_555
Fe2 O0 2.048791 1_555
Fe2 O4 2.096278 1_555
Fe2 O20 2.143536 1_555
Fe2 O12 2.171226 1_555
Fe2 O7 2.282636 1_555
Fe2 O11 2.347116 1_555
Fe3 O3 2.052584 1_555
Fe3 O7 2.096082 1_555
Fe3 O23 2.142155 1_455
Fe3 O15 2.170523 1_555
Fe3 O4 2.281099 1_555
Fe3 O8 2.347220 1_555
O0 P1 1.530356 1_555
O1 P0 1.531434 1_655
O2 P3 1.531686 1_555
O3 P2 1.530213 1_455
O4 P0 1.548390 1_545
O5 P1 1.548428 1_555
O6 P2 1.548809 1_565
O7 P3 1.547995 1_555
O8 P4 1.533039 1_555
O9 P5 1.533839 1_655
O10 P6 1.533864 1_555
O11 P7 1.533146 1_455
O12 P6 1.533744 1_545
O13 P7 1.534015 1_555
O14 P4 1.534124 1_565
O15 P5 1.533541 1_555
O16 P6 1.532833 1_556
O17 P7 1.532670 1_556
O18 P4 1.532849 1_554
O19 P5 1.532750 1_554
O20 P2 1.520675 1_555
O21 P3 1.521188 1_555
O22 P0 1.520980 1_555
O23 P1 1.520773 1_555
O24 P2 1.627098 1_555
O24 P4 1.632035 1_555
O25 P3 1.626575 1_555
O25 P5 1.632883 1_555
O26 P0 1.626809 1_555
O26 P6 1.632495 1_555
O27 P1 1.626901 1_555
O27 P7 1.632376 1_555
