# generated using pymatgen
data_Li4Fe(SiO4)2
_symmetry_space_group_name_H-M   'P 1'
_cell_length_a   7.70824452
_cell_length_b   11.25476346
_cell_length_c   7.96949309
_cell_angle_alpha   106.21493628
_cell_angle_beta   76.50606739
_cell_angle_gamma   85.60227662
_symmetry_Int_Tables_number   1
_chemical_formula_structural   Li4Fe(SiO4)2
_chemical_formula_sum   'Li16 Fe4 Si8 O32'
_cell_volume   638.06757416
_cell_formula_units_Z   4
loop_
 _symmetry_equiv_pos_site_id
 _symmetry_equiv_pos_as_xyz
  1  'x, y, z'
loop_
 _atom_site_type_symbol
 _atom_site_label
 _atom_site_symmetry_multiplicity
 _atom_site_fract_x
 _atom_site_fract_y
 _atom_site_fract_z
 _atom_site_occupancy
  Li  Li0  1  0.27242100  0.14826700  0.25425500  1
  Li  Li1  1  0.77242300  0.14826600  0.75425500  1
  Li  Li2  1  0.52242100  0.64826400  0.00425400  1
  Li  Li3  1  0.02242200  0.64826400  0.50425400  1
  Li  Li4  1  0.47757700  0.35173400  0.99574600  1
  Li  Li5  1  0.97757800  0.35173400  0.49574600  1
  Li  Li6  1  0.72757900  0.85173600  0.74574700  1
  Li  Li7  1  0.22757800  0.85173500  0.24574700  1
  Li  Li8  1  0.07239800  0.26558100  0.11384400  1
  Li  Li9  1  0.57239700  0.26558200  0.61384400  1
  Li  Li10  1  0.32239800  0.76558200  0.86384500  1
  Li  Li11  1  0.82239900  0.76558200  0.36384400  1
  Li  Li12  1  0.67760300  0.23441900  0.13615700  1
  Li  Li13  1  0.17760200  0.23442000  0.63615700  1
  Li  Li14  1  0.92760200  0.73441800  0.88615600  1
  Li  Li15  1  0.42760100  0.73441800  0.38615600  1
  Fe  Fe0  1  0.50002200  0.99999600  0.49998700  1
  Fe  Fe1  1  0.74999000  0.50001300  0.24999900  1
  Fe  Fe2  1  0.00000800  0.00000900  0.99999300  1
  Fe  Fe3  1  0.24998800  0.49997800  0.74999800  1
  Si  Si0  1  0.33588200  0.41204300  0.39014400  1
  Si  Si1  1  0.83588200  0.41204300  0.89014300  1
  Si  Si2  1  0.58587800  0.91204600  0.14014400  1
  Si  Si3  1  0.08587900  0.91204600  0.64014400  1
  Si  Si4  1  0.41411800  0.08795700  0.85985800  1
  Si  Si5  1  0.91411800  0.08795700  0.35985700  1
  Si  Si6  1  0.66412100  0.58795500  0.60985700  1
  Si  Si7  1  0.16412000  0.58795400  0.10985700  1
  O  O0  1  0.37635100  0.35215400  0.55274100  1
  O  O1  1  0.87635500  0.35215100  0.05273800  1
  O  O2  1  0.62636100  0.85214400  0.30273700  1
  O  O3  1  0.12635900  0.85214700  0.80274000  1
  O  O4  1  0.37364100  0.14785100  0.69726900  1
  O  O5  1  0.87364500  0.14784800  0.19726700  1
  O  O6  1  0.62364200  0.64785300  0.44725800  1
  O  O7  1  0.12364400  0.64785100  0.94725500  1
  O  O8  1  0.20004500  0.33536000  0.29211400  1
  O  O9  1  0.70004500  0.33536000  0.79211200  1
  O  O10  1  0.45004600  0.83535500  0.04211700  1
  O  O11  1  0.95004900  0.83535700  0.54211500  1
  O  O12  1  0.54995700  0.16463700  0.95788900  1
  O  O13  1  0.04995600  0.16463700  0.45788700  1
  O  O14  1  0.79995200  0.66464800  0.70788400  1
  O  O15  1  0.29994900  0.66464700  0.20788500  1
  O  O16  1  0.22670000  0.08991600  0.00662200  1
  O  O17  1  0.72670600  0.08991700  0.50662400  1
  O  O18  1  0.47670200  0.58991300  0.75662000  1
  O  O19  1  0.97670600  0.58991500  0.25662300  1
  O  O20  1  0.52329600  0.41008300  0.24337800  1
  O  O21  1  0.02330100  0.41008400  0.74338000  1
  O  O22  1  0.77329600  0.91008700  0.99337900  1
  O  O23  1  0.27329200  0.91008400  0.49337700  1
  O  O24  1  0.48147300  0.05096800  0.28845700  1
  O  O25  1  0.98147400  0.05096700  0.78846100  1
  O  O26  1  0.73146900  0.55097300  0.03847100  1
  O  O27  1  0.23147000  0.55097300  0.53847200  1
  O  O28  1  0.26852500  0.44903400  0.96153200  1
  O  O29  1  0.76852600  0.44903400  0.46153500  1
  O  O30  1  0.51853100  0.94902500  0.71153800  1
  O  O31  1  0.01853000  0.94902600  0.21153500  1
loop_
_geom_bond_atom_site_label_1
_geom_bond_atom_site_label_2
_geom_bond_distance
_geom_bond_site_symmetry_2
Li0 O24 1.992796 1_555
Li0 O16 2.021508 1_555
Li0 O13 2.023362 1_555
Li0 O8 2.054913 1_555
Li1 O25 1.992805 1_555
Li1 O17 2.021479 1_555
Li1 O12 2.023374 1_555
Li1 O9 2.054929 1_555
Li2 O26 1.992782 1_555
Li2 O18 2.021509 1_554
Li2 O15 2.023364 1_555
Li2 O10 2.054884 1_555
Li3 O27 1.992785 1_555
Li3 O19 2.021475 1_455
Li3 O14 2.023347 1_455
Li3 O11 2.054906 1_455
Li4 O28 1.992848 1_555
Li4 O20 2.021492 1_556
Li4 O9 2.023378 1_555
Li4 O12 2.054964 1_555
Li5 O29 1.992837 1_555
Li5 O21 2.021521 1_655
Li5 O8 2.023363 1_655
Li5 O13 2.054959 1_655
Li6 O30 1.992739 1_555
Li6 O22 2.021487 1_555
Li6 O11 2.023367 1_555
Li6 O14 2.054849 1_555
Li7 O31 1.992763 1_555
Li7 O23 2.021461 1_555
Li7 O10 2.023346 1_555
Li7 O15 2.054848 1_555
Li8 O8 1.936774 1_555
Li8 O1 1.962818 1_455
Li8 O16 2.067654 1_555
Li8 O5 2.207464 1_455
Li9 O9 1.936765 1_555
Li9 O0 1.962834 1_555
Li9 O17 2.067676 1_555
Li9 O4 2.207468 1_555
Li10 O10 1.936775 1_556
Li10 O3 1.962761 1_555
Li10 O18 2.067697 1_555
Li10 O7 2.207421 1_555
Li11 O11 1.936786 1_555
Li11 O2 1.962747 1_555
Li11 O19 2.067688 1_555
Li11 O6 2.207429 1_555
Li12 O12 1.936765 1_554
Li12 O5 1.962836 1_555
Li12 O20 2.067661 1_555
Li12 O1 2.207441 1_555
Li13 O13 1.936780 1_555
Li13 O4 1.962815 1_555
Li13 O21 2.067642 1_555
Li13 O0 2.207435 1_555
Li14 O14 1.936778 1_555
Li14 O7 1.962763 1_655
Li14 O22 2.067703 1_555
Li14 O3 2.207434 1_655
Li15 O15 1.936786 1_555
Li15 O6 1.962760 1_555
Li15 O23 2.067685 1_555
Li15 O2 2.207432 1_555
Fe0 O2 1.940279 1_555
Fe0 O4 1.940494 1_565
Fe0 O24 1.957407 1_565
Fe0 O30 1.957484 1_555
Fe0 O17 2.089171 1_565
Fe0 O23 2.089410 1_555
Fe1 O6 1.940248 1_555
Fe1 O1 1.940435 1_555
Fe1 O26 1.957266 1_555
Fe1 O29 1.957469 1_555
Fe1 O19 2.089263 1_555
Fe1 O20 2.089283 1_555
Fe2 O5 1.940324 1_456
Fe2 O3 1.940379 1_545
Fe2 O25 1.957310 1_455
Fe2 O31 1.957512 1_546
Fe2 O16 2.089135 1_556
Fe2 O22 2.089351 1_445
Fe3 O0 1.940163 1_555
Fe3 O7 1.940454 1_555
Fe3 O28 1.957248 1_555
Fe3 O27 1.957453 1_555
Fe3 O21 2.089014 1_555
Fe3 O18 2.089450 1_555
O0 Si0 1.695573 1_555
O1 Si1 1.695588 1_554
O2 Si2 1.695666 1_555
O3 Si3 1.695661 1_555
O4 Si4 1.695568 1_555
O5 Si5 1.695545 1_555
O6 Si6 1.695673 1_555
O7 Si7 1.695681 1_556
O8 Si0 1.611003 1_555
O9 Si1 1.611007 1_555
O10 Si2 1.611001 1_555
O11 Si3 1.610986 1_655
O12 Si4 1.611004 1_555
O13 Si5 1.610994 1_455
O14 Si6 1.611005 1_555
O15 Si7 1.610996 1_555
O16 Si4 1.627184 1_554
O17 Si5 1.627160 1_555
O18 Si6 1.627188 1_555
O19 Si7 1.627164 1_655
O20 Si0 1.627167 1_555
O21 Si1 1.627185 1_455
O22 Si2 1.627188 1_556
O23 Si3 1.627160 1_555
O24 Si2 1.679397 1_545
O25 Si3 1.679400 1_645
O26 Si1 1.679515 1_554
O27 Si0 1.679513 1_555
O28 Si7 1.679413 1_556
O29 Si6 1.679413 1_555
O30 Si4 1.679509 1_565
O31 Si5 1.679505 1_465
