# generated using pymatgen
data_LiFe8(BO3)8
_symmetry_space_group_name_H-M   'P 1'
_cell_length_a   5.33296700
_cell_length_b   9.01100343
_cell_length_c   10.13165869
_cell_angle_alpha   89.36548559
_cell_angle_beta   89.97949452
_cell_angle_gamma   89.62361039
_symmetry_Int_Tables_number   1
_chemical_formula_structural   LiFe8(BO3)8
_chemical_formula_sum   'Li1 Fe8 B8 O24'
_cell_volume   486.84036788
_cell_formula_units_Z   1
loop_
 _symmetry_equiv_pos_site_id
 _symmetry_equiv_pos_as_xyz
  1  'x, y, z'
loop_
 _atom_site_type_symbol
 _atom_site_label
 _atom_site_symmetry_multiplicity
 _atom_site_fract_x
 _atom_site_fract_y
 _atom_site_fract_z
 _atom_site_occupancy
  Li  Li0  1  0.64534900  0.99611500  0.84420600  1
  Fe  Fe0  1  0.84287900  0.83414000  0.12063300  1
  Fe  Fe1  1  0.16041600  0.83415100  0.37030700  1
  Fe  Fe2  1  0.66104600  0.65868000  0.87277900  1
  Fe  Fe3  1  0.34051000  0.66638400  0.62336800  1
  Fe  Fe4  1  0.65921600  0.33348200  0.37239100  1
  Fe  Fe5  1  0.85357100  0.17060400  0.62343500  1
  Fe  Fe6  1  0.33789100  0.33331700  0.12382400  1
  Fe  Fe7  1  0.15446500  0.17071900  0.87731800  1
  B  B0  1  0.83753100  0.82863300  0.62887200  1
  B  B1  1  0.66824000  0.67177500  0.37153800  1
  B  B2  1  0.17398400  0.82836500  0.87055600  1
  B  B3  1  0.33803800  0.67111300  0.12185400  1
  B  B4  1  0.66282900  0.32839700  0.87385500  1
  B  B5  1  0.33884300  0.32982400  0.62043400  1
  B  B6  1  0.83191300  0.16904400  0.12366300  1
  B  B7  1  0.16785700  0.16996000  0.37307800  1
  O  O0  1  0.75714700  0.96908900  0.65209100  1
  O  O1  1  0.92044800  0.81355700  0.91559700  1
  O  O2  1  0.29329300  0.95865300  0.87247600  1
  O  O3  1  0.80421300  0.79266000  0.31962600  1
  O  O4  1  0.69588400  0.70813500  0.67406400  1
  O  O5  1  0.20049300  0.79336400  0.16906400  1
  O  O6  1  0.06472400  0.80016100  0.56548200  1
  O  O7  1  0.57588400  0.69887400  0.06633300  1
  O  O8  1  0.75620800  0.53232000  0.36587300  1
  O  O9  1  0.43484000  0.70396300  0.42887000  1
  O  O10  1  0.29717300  0.69964800  0.82403500  1
  O  O11  1  0.77221400  0.46384000  0.86524900  1
  O  O12  1  0.24541200  0.53366100  0.12965100  1
  O  O13  1  0.69214500  0.28580600  0.17746900  1
  O  O14  1  0.57785700  0.30229700  0.56718300  1
  O  O15  1  0.24759000  0.46970800  0.62377400  1
  O  O16  1  0.43523700  0.30861500  0.93496100  1
  O  O17  1  0.92824100  0.19438300  0.42648700  1
  O  O18  1  0.77623100  0.20069000  0.82053100  1
  O  O19  1  0.30101900  0.29301400  0.32714600  1
  O  O20  1  0.20174200  0.21058100  0.66806300  1
  O  O21  1  0.73272200  0.03081200  0.11054900  1
  O  O22  1  0.07063900  0.19749200  0.07900200  1
  O  O23  1  0.26244300  0.03082200  0.36747100  1
loop_
_geom_bond_atom_site_label_1
_geom_bond_atom_site_label_2
_geom_bond_distance
_geom_bond_site_symmetry_2
Li0 O2 1.930495 1_555
Li0 O18 1.987445 1_565
Li0 O0 2.052117 1_555
Li0 O1 2.307458 1_555
Fe0 O21 1.865112 1_565
Fe0 O7 1.963154 1_555
Fe0 O5 2.000112 1_655
Fe0 O3 2.056947 1_555
Fe0 O1 2.127872 1_554
Fe1 O23 1.857178 1_565
Fe1 O9 1.957738 1_555
Fe1 O3 2.006559 1_455
Fe1 O6 2.062147 1_555
Fe1 O5 2.086440 1_555
Fe2 O11 1.851770 1_555
Fe2 O1 2.022088 1_555
Fe2 O10 2.032988 1_555
Fe2 O7 2.048412 1_556
Fe2 O4 2.065790 1_555
Fe3 O15 1.843316 1_555
Fe3 O6 1.980379 1_555
Fe3 O4 2.002868 1_555
Fe3 O9 2.058567 1_555
Fe3 O10 2.070981 1_555
Fe4 O8 1.868620 1_555
Fe4 O17 1.972701 1_555
Fe4 O19 2.001414 1_555
Fe4 O13 2.033007 1_555
Fe4 O14 2.037373 1_555
Fe5 O0 1.909588 1_545
Fe5 O20 1.948039 1_655
Fe5 O14 1.964111 1_555
Fe5 O17 2.043827 1_555
Fe5 O18 2.059416 1_555
Fe6 O12 1.869885 1_555
Fe6 O22 1.941964 1_555
Fe6 O16 1.996929 1_554
Fe6 O13 2.008188 1_555
Fe6 O19 2.097187 1_555
Fe7 O16 2.041637 1_555
Fe7 O2 2.045887 1_545
Fe7 O22 2.107689 1_556
Fe7 O18 2.112563 1_455
Fe7 O20 2.161332 1_555
B0 O0 1.356604 1_555
B0 O6 1.394746 1_655
B0 O4 1.399560 1_555
B1 O8 1.340272 1_555
B1 O9 1.403324 1_555
B1 O3 1.409410 1_555
B2 O2 1.339360 1_555
B2 O10 1.414542 1_555
B2 O1 1.433458 1_455
B3 O12 1.337973 1_555
B3 O5 1.407543 1_555
B3 O7 1.410124 1_555
B4 O11 1.358095 1_555
B4 O16 1.374079 1_555
B4 O18 1.409357 1_555
B5 O15 1.348960 1_555
B5 O20 1.385852 1_555
B5 O14 1.405585 1_555
B6 O21 1.364328 1_555
B6 O22 1.375716 1_655
B6 O13 1.400673 1_555
B7 O23 1.350135 1_555
B7 O19 1.396096 1_555
B7 O17 1.404504 1_455
