# generated using pymatgen
data_Eu6WO12
_symmetry_space_group_name_H-M   'P 1'
_cell_length_a   6.62593311
_cell_length_b   6.63195127
_cell_length_c   6.63085183
_cell_angle_alpha   98.36270211
_cell_angle_beta   98.35554557
_cell_angle_gamma   98.26539848
_symmetry_Int_Tables_number   1
_chemical_formula_structural   Eu6WO12
_chemical_formula_sum   'Eu6 W1 O12'
_cell_volume   281.14457176
_cell_formula_units_Z   1
loop_
 _symmetry_equiv_pos_site_id
 _symmetry_equiv_pos_as_xyz
  1  'x, y, z'
loop_
 _atom_site_type_symbol
 _atom_site_label
 _atom_site_symmetry_multiplicity
 _atom_site_fract_x
 _atom_site_fract_y
 _atom_site_fract_z
 _atom_site_occupancy
  Eu  Eu0  1  0.39441900  0.86068100  0.69669900  1
  Eu  Eu1  1  0.30347800  0.60572900  0.13937300  1
  Eu  Eu2  1  0.13940900  0.30345100  0.60561900  1
  Eu  Eu3  1  0.86063200  0.69653000  0.39444100  1
  Eu  Eu4  1  0.69648400  0.39433600  0.86061200  1
  Eu  Eu5  1  0.60556700  0.13937200  0.30343600  1
  W  W0  1  0.00001300  0.99997500  0.99994200  1
  O  O0  1  0.03300500  0.92683100  0.70982400  1
  O  O1  1  0.29032800  0.96705800  0.07302700  1
  O  O2  1  0.17636100  0.59351900  0.43359700  1
  O  O3  1  0.56646500  0.82373700  0.40661700  1
  O  O4  1  0.07317900  0.29013200  0.96697000  1
  O  O5  1  0.40671600  0.56654500  0.82374300  1
  O  O6  1  0.59308700  0.43356600  0.17631200  1
  O  O7  1  0.92679400  0.70980300  0.03295500  1
  O  O8  1  0.43353600  0.17612700  0.59362100  1
  O  O9  1  0.82362600  0.40651600  0.56633500  1
  O  O10  1  0.70983700  0.03292300  0.92681800  1
  O  O11  1  0.96706300  0.07317000  0.29005900  1
loop_
_geom_bond_atom_site_label_1
_geom_bond_atom_site_label_2
_geom_bond_distance
_geom_bond_site_symmetry_2
Eu0 O5 2.241707 1_555
Eu0 O8 2.285260 1_565
Eu0 O3 2.374839 1_555
Eu0 O10 2.425034 1_565
Eu0 O2 2.429548 1_555
Eu0 O0 2.507223 1_555
Eu0 O1 2.707085 1_556
Eu1 O2 2.241901 1_555
Eu1 O5 2.285750 1_554
Eu1 O6 2.370788 1_555
Eu1 O4 2.427934 1_554
Eu1 O3 2.428981 1_555
Eu1 O1 2.509781 1_555
Eu1 O7 2.707189 1_455
Eu2 O8 2.239665 1_555
Eu2 O9 2.284207 1_455
Eu2 O2 2.376076 1_555
Eu2 O11 2.426787 1_455
Eu2 O5 2.430274 1_555
Eu2 O4 2.509485 1_555
Eu2 O0 2.711165 1_545
Eu3 O3 2.239653 1_555
Eu3 O2 2.283689 1_655
Eu3 O9 2.375267 1_555
Eu3 O0 2.426067 1_655
Eu3 O6 2.430683 1_555
Eu3 O7 2.510183 1_555
Eu3 O11 2.711818 1_565
Eu4 O9 2.242288 1_555
Eu4 O6 2.286667 1_556
Eu4 O5 2.371859 1_555
Eu4 O7 2.427259 1_556
Eu4 O8 2.428457 1_555
Eu4 O10 2.510241 1_555
Eu4 O4 2.707558 1_655
Eu5 O6 2.242459 1_555
Eu5 O3 2.286745 1_545
Eu5 O8 2.375301 1_555
Eu5 O1 2.425161 1_545
Eu5 O9 2.428779 1_555
Eu5 O11 2.508112 1_555
Eu5 O10 2.709439 1_554
O0 W0 1.965986 1_555
O1 W0 1.965542 1_554
O4 W0 1.967420 1_545
O7 W0 1.967637 1_654
O10 W0 1.964750 1_645
O11 W0 1.965940 1_644
