# generated using pymatgen
data_Fe4O7F
_symmetry_space_group_name_H-M   'P 1'
_cell_length_a   5.51303778
_cell_length_b   5.51303778
_cell_length_c   8.82261098
_cell_angle_alpha   86.93329334
_cell_angle_beta   86.93329334
_cell_angle_gamma   73.96848645
_symmetry_Int_Tables_number   1
_chemical_formula_structural   Fe4O7F
_chemical_formula_sum   'Fe8 O14 F2'
_cell_volume   257.14373162
_cell_formula_units_Z   2
loop_
 _symmetry_equiv_pos_site_id
 _symmetry_equiv_pos_as_xyz
  1  'x, y, z'
loop_
 _atom_site_type_symbol
 _atom_site_label
 _atom_site_symmetry_multiplicity
 _atom_site_fract_x
 _atom_site_fract_y
 _atom_site_fract_z
 _atom_site_occupancy
  Fe  Fe0  1  0.87418300  0.38390500  0.62087500  1
  Fe  Fe1  1  0.61609500  0.12581700  0.87912500  1
  Fe  Fe2  1  0.50000000  0.00000000  0.50000000  1
  Fe  Fe3  1  0.72670700  0.27329300  0.25000000  1
  Fe  Fe4  1  0.27329300  0.72670700  0.75000000  1
  Fe  Fe5  1  0.38390500  0.87418300  0.12087500  1
  Fe  Fe6  1  0.12581700  0.61609500  0.37912500  1
  Fe  Fe7  1  0.00000000  0.50000000  0.00000000  1
  O  O0  1  0.80873000  0.70007400  0.49694400  1
  O  O1  1  0.57096400  0.42903600  0.75000000  1
  O  O2  1  0.96574400  0.47599800  0.22172800  1
  O  O3  1  0.71797600  0.22576500  0.47078600  1
  O  O4  1  0.47599800  0.96574400  0.72172800  1
  O  O5  1  0.22576500  0.71797600  0.97078600  1
  O  O6  1  0.52400200  0.03425600  0.27827200  1
  O  O7  1  0.77423500  0.28202400  0.02921400  1
  O  O8  1  0.28202400  0.77423500  0.52921400  1
  O  O9  1  0.03425600  0.52400200  0.77827200  1
  O  O10  1  0.42903600  0.57096400  0.25000000  1
  O  O11  1  0.19127000  0.29992600  0.50305600  1
  O  O12  1  0.70007400  0.80873000  0.99694400  1
  O  O13  1  0.29992600  0.19127000  0.00305600  1
  F  F0  1  0.95309000  0.04691000  0.75000000  1
  F  F1  1  0.04691000  0.95309000  0.25000000  1
loop_
_geom_bond_atom_site_label_1
_geom_bond_atom_site_label_2
_geom_bond_distance
_geom_bond_site_symmetry_2
Fe0 O1 1.936751 1_555
Fe0 O11 1.939276 1_655
Fe0 O0 1.963376 1_555
Fe0 O3 1.978733 1_555
Fe0 O9 1.981421 1_655
Fe1 O1 1.936751 1_555
Fe1 O12 1.939276 1_545
Fe1 O13 1.963376 1_556
Fe1 O7 1.978733 1_556
Fe1 O4 1.981421 1_545
Fe2 O3 1.954062 1_555
Fe2 O8 1.954062 1_545
Fe2 O4 1.956157 1_545
Fe2 O6 1.956157 1_555
Fe2 O11 2.019197 1_555
Fe2 O0 2.019197 1_545
Fe3 O2 1.948368 1_555
Fe3 O6 1.948368 1_555
Fe3 O3 1.951319 1_555
Fe3 O7 1.951319 1_555
Fe3 O10 1.974522 1_555
Fe4 O4 1.948368 1_555
Fe4 O9 1.948368 1_555
Fe4 O5 1.951319 1_555
Fe4 O8 1.951319 1_555
Fe4 O1 1.974522 1_555
Fe5 O10 1.936751 1_555
Fe5 O13 1.939276 1_565
Fe5 O12 1.963376 1_554
Fe5 O5 1.978733 1_554
Fe5 O6 1.981421 1_565
Fe6 O10 1.936751 1_555
Fe6 O0 1.939276 1_455
Fe6 O11 1.963376 1_555
Fe6 O8 1.978733 1_555
Fe6 O2 1.981421 1_455
Fe7 O7 1.954062 1_455
Fe7 O5 1.954062 1_554
Fe7 O2 1.956157 1_455
Fe7 O9 1.956157 1_554
Fe7 O13 2.019197 1_555
Fe7 O12 2.019197 1_454
F0 Fe1 2.078195 1_555
F0 Fe0 2.078195 1_555
F0 Fe4 2.123982 1_645
F1 Fe5 2.078195 1_555
F1 Fe6 2.078195 1_555
F1 Fe3 2.123982 1_465
