# generated using pymatgen
data_NiH18(IN)6
_symmetry_space_group_name_H-M   'P 1'
_cell_length_a   11.03128540
_cell_length_b   11.03128540
_cell_length_c   8.95050136
_cell_angle_alpha   81.80919746
_cell_angle_beta   81.80919746
_cell_angle_gamma   89.21781876
_symmetry_Int_Tables_number   1
_chemical_formula_structural   NiH18(IN)6
_chemical_formula_sum   'Ni2 H36 I12 N12'
_cell_volume   1067.04744802
_cell_formula_units_Z   2
loop_
 _symmetry_equiv_pos_site_id
 _symmetry_equiv_pos_as_xyz
  1  'x, y, z'
loop_
 _atom_site_type_symbol
 _atom_site_label
 _atom_site_symmetry_multiplicity
 _atom_site_fract_x
 _atom_site_fract_y
 _atom_site_fract_z
 _atom_site_occupancy
  Ni  Ni0  1  0.00000000  0.50000000  0.00000000  1
  Ni  Ni1  1  0.50000000  0.00000000  0.50000000  1
  H  H0  1  0.89810200  0.72441700  0.96954600  1
  H  H1  1  0.61906100  0.94333100  0.74336600  1
  H  H2  1  0.72441700  0.89810200  0.46954600  1
  H  H3  1  0.87428300  0.65834600  0.82319500  1
  H  H4  1  0.94333100  0.61906100  0.24336600  1
  H  H5  1  0.65834600  0.87428300  0.32319500  1
  H  H6  1  0.94532700  0.47526400  0.72198400  1
  H  H7  1  0.47526400  0.94532700  0.22198400  1
  H  H8  1  0.91539500  0.34424300  0.83246400  1
  H  H9  1  0.27917800  0.99244800  0.67499100  1
  H  H10  1  0.45048000  0.80302000  0.71512500  1
  H  H11  1  0.51712900  0.75400500  0.55879700  1
  H  H12  1  0.34424300  0.91539500  0.33246400  1
  H  H13  1  0.99244800  0.27917800  0.17499100  1
  H  H14  1  0.80302000  0.45048000  0.21512500  1
  H  H15  1  0.37037000  0.78953700  0.57665600  1
  H  H16  1  0.75400500  0.51712900  0.05879700  1
  H  H17  1  0.78953700  0.37037000  0.07665600  1
  H  H18  1  0.21046300  0.62963000  0.92334400  1
  H  H19  1  0.24599500  0.48287100  0.94120300  1
  H  H20  1  0.62963000  0.21046300  0.42334400  1
  H  H21  1  0.19698000  0.54952000  0.78487500  1
  H  H22  1  0.00755200  0.72082200  0.82500900  1
  H  H23  1  0.65575700  0.08460500  0.66753600  1
  H  H24  1  0.48287100  0.24599500  0.44120300  1
  H  H25  1  0.54952000  0.19698000  0.28487500  1
  H  H26  1  0.72082200  0.00755200  0.32500900  1
  H  H27  1  0.08460500  0.65575700  0.16753600  1
  H  H28  1  0.52473600  0.05467300  0.77801600  1
  H  H29  1  0.05467300  0.52473600  0.27801600  1
  H  H30  1  0.34165400  0.12571700  0.67680500  1
  H  H31  1  0.05666900  0.38093900  0.75663400  1
  H  H32  1  0.12571700  0.34165400  0.17680500  1
  H  H33  1  0.27558300  0.10189800  0.53045400  1
  H  H34  1  0.38093900  0.05666900  0.25663400  1
  H  H35  1  0.10189800  0.27558300  0.03045400  1
  I  I0  1  0.74768600  0.60196500  0.54945700  1
  I  I1  1  0.60196500  0.74768600  0.04945700  1
  I  I2  1  0.23790200  0.87151000  0.99766600  1
  I  I3  1  0.87151000  0.23790200  0.49766600  1
  I  I4  1  0.56927300  0.43072700  0.75000000  1
  I  I5  1  0.00000000  0.00000000  0.50000000  1
  I  I6  1  0.43072700  0.56927300  0.25000000  1
  I  I7  1  0.12849000  0.76209800  0.50233400  1
  I  I8  1  0.00000000  0.00000000  0.00000000  1
  I  I9  1  0.76209800  0.12849000  0.00233400  1
  I  I10  1  0.39803500  0.25231400  0.95054300  1
  I  I11  1  0.25231400  0.39803500  0.45054300  1
  N  N0  1  0.93806700  0.67019200  0.89299500  1
  N  N1  1  0.67019200  0.93806700  0.39299500  1
  N  N2  1  0.97700500  0.41586100  0.80630800  1
  N  N3  1  0.41586100  0.97700500  0.30630800  1
  N  N4  1  0.45433700  0.81524000  0.59871600  1
  N  N5  1  0.81524000  0.45433700  0.09871600  1
  N  N6  1  0.18476000  0.54566300  0.90128400  1
  N  N7  1  0.54566300  0.18476000  0.40128400  1
  N  N8  1  0.58413900  0.02299500  0.69369200  1
  N  N9  1  0.02299500  0.58413900  0.19369200  1
  N  N10  1  0.32980800  0.06193300  0.60700500  1
  N  N11  1  0.06193300  0.32980800  0.10700500  1
loop_
_geom_bond_atom_site_label_1
_geom_bond_atom_site_label_2
_geom_bond_distance
_geom_bond_site_symmetry_2
H0 N0 1.022321 1_555
H1 N8 1.023032 1_565
H2 N1 1.022321 1_555
H3 N0 1.026397 1_555
H4 N9 1.023032 1_655
H5 N1 1.026397 1_555
H6 N2 1.024271 1_555
H7 N3 1.024271 1_555
H8 N2 1.028347 1_555
H9 N10 1.025525 1_565
H10 N4 1.026197 1_555
H11 N4 1.024323 1_555
H12 N3 1.028347 1_555
H13 N11 1.025525 1_655
H14 N5 1.026197 1_555
H15 N4 1.025953 1_555
H16 N5 1.024323 1_555
H17 N5 1.025953 1_555
H18 N6 1.025953 1_555
H19 N6 1.024323 1_555
H20 N7 1.025953 1_555
H21 N6 1.026197 1_555
H22 N0 1.025525 1_455
H23 N8 1.028347 1_555
H24 N7 1.024323 1_555
H25 N7 1.026197 1_555
H26 N1 1.025525 1_545
H27 N9 1.028347 1_555
H28 N8 1.024271 1_555
H29 N9 1.024271 1_555
H30 N10 1.026397 1_555
H31 N2 1.023032 1_455
H32 N11 1.026397 1_555
H33 N10 1.022321 1_555
H34 N3 1.023032 1_545
H35 N11 1.022321 1_555
I0 I4 2.965197 1_555
I1 I6 2.965197 1_555
I2 I8 2.964462 1_566
I3 I5 2.964462 1_655
I5 I7 2.964462 1_545
I8 I9 2.964462 1_455
I10 I4 2.965197 1_555
I11 I6 2.965197 1_555
N0 Ni0 2.132577 1_656
N1 Ni1 2.132577 1_565
N2 Ni0 2.126398 1_656
N3 Ni1 2.126398 1_565
N4 Ni1 2.139279 1_565
N5 Ni0 2.139279 1_655
N6 Ni0 2.139279 1_556
N7 Ni1 2.139279 1_555
N8 Ni1 2.126398 1_555
N9 Ni0 2.126398 1_555
N10 Ni1 2.132577 1_555
N11 Ni0 2.132577 1_555
