# generated using pymatgen
data_Li8Fe3Ni7O20
_symmetry_space_group_name_H-M   'P 1'
_cell_length_a   2.87956500
_cell_length_b   5.17260800
_cell_length_c   23.86792375
_cell_angle_alpha   86.45400979
_cell_angle_beta   90.00000000
_cell_angle_gamma   90.00000000
_symmetry_Int_Tables_number   1
_chemical_formula_structural   Li8Fe3Ni7O20
_chemical_formula_sum   'Li8 Fe3 Ni7 O20'
_cell_volume   354.82877371
_cell_formula_units_Z   1
loop_
 _symmetry_equiv_pos_site_id
 _symmetry_equiv_pos_as_xyz
  1  'x, y, z'
loop_
 _atom_site_type_symbol
 _atom_site_label
 _atom_site_symmetry_multiplicity
 _atom_site_fract_x
 _atom_site_fract_y
 _atom_site_fract_z
 _atom_site_occupancy
  Li  Li0  1  0.50000000  0.00000000  0.50000000  1
  Li  Li1  1  0.00000000  0.00000000  0.00000000  1
  Li  Li2  1  0.00000000  0.80275500  0.60118000  1
  Li  Li3  1  0.50000000  0.60133400  0.70000500  1
  Li  Li4  1  0.00000000  0.61781400  0.19141300  1
  Li  Li5  1  0.50000000  0.39866600  0.29999500  1
  Li  Li6  1  0.00000000  0.19724500  0.39882000  1
  Li  Li7  1  0.00000000  0.38218600  0.80858700  1
  Fe  Fe0  1  0.50000000  0.69340600  0.39707800  1
  Fe  Fe1  1  0.00000000  0.50000000  0.50000000  1
  Fe  Fe2  1  0.50000000  0.30659400  0.60292200  1
  Ni  Ni0  1  0.00000000  0.90218600  0.29786300  1
  Ni  Ni1  1  0.00000000  0.09781400  0.70213700  1
  Ni  Ni2  1  0.50000000  0.89261000  0.80076100  1
  Ni  Ni3  1  0.00000000  0.69820300  0.90140700  1
  Ni  Ni4  1  0.50000000  0.50000000  0.00000000  1
  Ni  Ni5  1  0.00000000  0.30179700  0.09859300  1
  Ni  Ni6  1  0.50000000  0.10739000  0.19923900  1
  O  O0  1  0.50000000  0.97326000  0.65328800  1
  O  O1  1  0.50000000  0.02674000  0.34671200  1
  O  O2  1  0.00000000  0.98334700  0.15728100  1
  O  O3  1  0.00000000  0.83004300  0.44817800  1
  O  O4  1  0.00000000  0.01665300  0.84271900  1
  O  O5  1  0.50000000  0.79723600  0.24673500  1
  O  O6  1  0.50000000  0.80076600  0.95204700  1
  O  O7  1  0.50000000  0.63907300  0.54991400  1
  O  O8  1  0.00000000  0.76129500  0.75734900  1
  O  O9  1  0.00000000  0.55236400  0.34802300  1
  O  O10  1  0.00000000  0.44763600  0.65197700  1
  O  O11  1  0.00000000  0.62545600  0.04234700  1
  O  O12  1  0.50000000  0.59519600  0.84980900  1
  O  O13  1  0.50000000  0.36092700  0.45008600  1
  O  O14  1  0.50000000  0.40480400  0.15019100  1
  O  O15  1  0.00000000  0.37454400  0.95765300  1
  O  O16  1  0.00000000  0.16995700  0.55182200  1
  O  O17  1  0.00000000  0.23870500  0.24265100  1
  O  O18  1  0.50000000  0.19923400  0.04795300  1
  O  O19  1  0.50000000  0.20276400  0.75326500  1
loop_
_geom_bond_atom_site_label_1
_geom_bond_atom_site_label_2
_geom_bond_distance
_geom_bond_site_symmetry_2
Li0 O3 2.123727 1_545
Li0 O3 2.123727 1_645
Li0 O16 2.123727 1_655
Li0 O16 2.123727 1_555
Li0 O13 2.151654 1_555
Li0 O7 2.151654 1_545
Li1 O15 2.129028 1_554
Li1 O11 2.129028 1_545
Li1 O18 2.142639 1_455
Li1 O18 2.142639 1_555
Li1 O6 2.142639 1_444
Li1 O6 2.142639 1_544
Li2 O7 2.101236 1_455
Li2 O7 2.101236 1_555
Li2 O0 2.129159 1_555
Li2 O0 2.129159 1_455
Li2 O10 2.137438 1_555
Li2 O16 2.172269 1_565
Li3 O10 2.032691 1_655
Li3 O10 2.032691 1_555
Li3 O0 2.163115 1_555
Li3 O8 2.184254 1_655
Li3 O8 2.184254 1_555
Li3 O19 2.354179 1_555
Li4 O2 2.011990 1_555
Li4 O14 2.095018 1_455
Li4 O14 2.095018 1_555
Li4 O5 2.197591 1_555
Li4 O5 2.197591 1_455
Li4 O17 2.245973 1_555
Li5 O9 2.032691 1_555
Li5 O9 2.032691 1_655
Li5 O1 2.163115 1_555
Li5 O17 2.184254 1_555
Li5 O17 2.184254 1_655
Li5 O5 2.354179 1_555
Li6 O13 2.101236 1_455
Li6 O13 2.101236 1_555
Li6 O1 2.129159 1_455
Li6 O1 2.129159 1_555
Li6 O9 2.137438 1_555
Li6 O3 2.172269 1_545
Li7 O4 2.011990 1_555
Li7 O12 2.095018 1_555
Li7 O12 2.095018 1_455
Li7 O19 2.197591 1_455
Li7 O19 2.197591 1_555
Li7 O8 2.245973 1_555
Fe0 O9 2.020336 1_555
Fe0 O9 2.020336 1_655
Fe0 O1 2.040003 1_565
Fe0 O3 2.041244 1_555
Fe0 O3 2.041244 1_655
Fe0 O13 2.071041 1_555
Fe1 O7 2.028738 1_455
Fe1 O13 2.028738 1_555
Fe1 O7 2.028738 1_555
Fe1 O13 2.028738 1_455
Fe1 O3 2.045276 1_555
Fe1 O16 2.045276 1_555
Fe2 O10 2.020336 1_655
Fe2 O10 2.020336 1_555
Fe2 O0 2.040003 1_545
Fe2 O16 2.041244 1_655
Fe2 O16 2.041244 1_555
Fe2 O7 2.071041 1_555
Ni0 O5 1.984642 1_555
Ni0 O5 1.984642 1_455
Ni0 O1 1.985033 1_565
Ni0 O1 1.985033 1_465
Ni0 O9 2.107038 1_555
Ni0 O17 2.117264 1_565
Ni1 O19 1.984642 1_555
Ni1 O19 1.984642 1_455
Ni1 O0 1.985033 1_445
Ni1 O0 1.985033 1_545
Ni1 O10 2.107038 1_555
Ni1 O8 2.117264 1_545
Ni2 O12 1.874671 1_555
Ni2 O4 1.888662 1_565
Ni2 O4 1.888662 1_665
Ni2 O19 1.906290 1_565
Ni2 O8 1.922243 1_655
Ni2 O8 1.922243 1_555
Ni3 O6 1.973481 1_555
Ni3 O6 1.973481 1_455
Ni3 O12 1.988647 1_555
Ni3 O12 1.988647 1_455
Ni3 O15 2.080153 1_555
Ni3 O4 2.095241 1_565
Ni4 O18 1.873513 1_555
Ni4 O6 1.873513 1_554
Ni4 O11 1.896526 1_655
Ni4 O11 1.896526 1_555
Ni4 O15 1.896526 1_654
Ni4 O15 1.896526 1_554
Ni5 O18 1.973481 1_555
Ni5 O18 1.973481 1_455
Ni5 O14 1.988647 1_455
Ni5 O14 1.988647 1_555
Ni5 O11 2.080153 1_555
Ni5 O2 2.095241 1_545
Ni6 O14 1.874671 1_555
Ni6 O2 1.888662 1_545
Ni6 O2 1.888662 1_645
Ni6 O5 1.906290 1_545
Ni6 O17 1.922243 1_555
Ni6 O17 1.922243 1_655
