# generated using pymatgen
data_Ba2HfO4
_symmetry_space_group_name_H-M   'P 1'
_cell_length_a   4.16058973
_cell_length_b   4.16058973
_cell_length_c   7.38884990
_cell_angle_alpha   73.64756235
_cell_angle_beta   73.64756235
_cell_angle_gamma   90.00000000
_symmetry_Int_Tables_number   1
_chemical_formula_structural   Ba2HfO4
_chemical_formula_sum   'Ba2 Hf1 O4'
_cell_volume   117.32879454
_cell_formula_units_Z   1
loop_
 _symmetry_equiv_pos_site_id
 _symmetry_equiv_pos_as_xyz
  1  'x, y, z'
loop_
 _atom_site_type_symbol
 _atom_site_label
 _atom_site_symmetry_multiplicity
 _atom_site_fract_x
 _atom_site_fract_y
 _atom_site_fract_z
 _atom_site_occupancy
  Ba  Ba0  1  0.35256068  0.35256068  0.29487665  1
  Ba  Ba1  1  0.64743932  0.64743932  0.70512335  1
  Hf  Hf0  1  0.00000000  0.00000000  -0.00000000  1
  O  O0  1  0.50000000  0.00000000  -0.00000000  1
  O  O1  1  0.00000000  0.50000000  -0.00000000  1
  O  O2  1  0.15461220  0.15461220  0.69077561  1
  O  O3  1  0.84538780  0.84538780  0.30922439  1
loop_
_geom_bond_atom_site_label_1
_geom_bond_atom_site_label_2
_geom_bond_distance
_geom_bond_site_symmetry_2
Ba0 O2 2.683361 1_555
Ba0 O0 2.884819 1_555
Ba0 O1 2.884819 1_555
Ba0 O0 2.884826 1_565
Ba0 O1 2.884826 1_655
Ba0 O3 2.943582 1_445
Ba0 O3 2.943588 1_545
Ba0 O3 2.943588 1_455
Ba0 O3 2.943594 1_555
Ba1 O3 2.683361 1_555
Ba1 O1 2.884819 1_656
Ba1 O0 2.884819 1_566
Ba1 O0 2.884826 1_556
Ba1 O1 2.884826 1_556
Ba1 O2 2.943582 1_665
Ba1 O2 2.943588 1_655
Ba1 O2 2.943588 1_565
Ba1 O2 2.943594 1_555
Hf0 O1 2.080295 1_555
Hf0 O1 2.080295 1_545
Hf0 O0 2.080295 1_455
Hf0 O0 2.080295 1_555
Hf0 O2 2.095890 1_554
Hf0 O3 2.095890 1_445
