# generated using pymatgen
data_LiVP2O7
_symmetry_space_group_name_H-M   'P 1'
_cell_length_a   10.23910300
_cell_length_b   7.09458000
_cell_length_c   8.09718565
_cell_angle_alpha   68.30917008
_cell_angle_beta   90.00000000
_cell_angle_gamma   90.00000000
_symmetry_Int_Tables_number   1
_chemical_formula_structural   LiVP2O7
_chemical_formula_sum   'Li4 V4 P8 O28'
_cell_volume   546.54765844
_cell_formula_units_Z   4
loop_
 _symmetry_equiv_pos_site_id
 _symmetry_equiv_pos_as_xyz
  1  'x, y, z'
loop_
 _atom_site_type_symbol
 _atom_site_label
 _atom_site_symmetry_multiplicity
 _atom_site_fract_x
 _atom_site_fract_y
 _atom_site_fract_z
 _atom_site_occupancy
  Li  Li0  1  0.15013600  0.62951900  0.93934800  1
  Li  Li1  1  0.34986400  0.62951900  0.43934800  1
  Li  Li2  1  0.65013600  0.37048100  0.56065200  1
  Li  Li3  1  0.84986400  0.37048100  0.06065200  1
  V  V0  1  0.60640400  0.73068100  0.74330000  1
  V  V1  1  0.89359600  0.73068100  0.24330000  1
  V  V2  1  0.10640400  0.26931900  0.75670000  1
  V  V3  1  0.39359600  0.26931900  0.25670000  1
  P  P0  1  0.85101400  0.97142700  0.79388700  1
  P  P1  1  0.64898600  0.97142700  0.29388700  1
  P  P2  1  0.90576800  0.63832700  0.68619300  1
  P  P3  1  0.59423200  0.63832700  0.18619300  1
  P  P4  1  0.40576800  0.36167300  0.81380700  1
  P  P5  1  0.09423200  0.36167300  0.31380700  1
  P  P6  1  0.35101400  0.02857300  0.70611300  1
  P  P7  1  0.14898600  0.02857300  0.20611300  1
  O  O0  1  0.70743500  0.00141700  0.73556400  1
  O  O1  1  0.87224000  0.81962500  0.98334800  1
  O  O2  1  0.42168500  0.82873900  0.73989100  1
  O  O3  1  0.92371700  0.87214700  0.66566800  1
  O  O4  1  0.79256500  0.00141700  0.23556400  1
  O  O5  1  0.62776000  0.81962500  0.48334800  1
  O  O6  1  0.60165900  0.62759000  0.00464400  1
  O  O7  1  0.07831500  0.82873900  0.23989100  1
  O  O8  1  0.57628300  0.87214700  0.16566800  1
  O  O9  1  0.77927900  0.55919300  0.79407500  1
  O  O10  1  0.89834100  0.62759000  0.50464400  1
  O  O11  1  0.02525900  0.52646100  0.79366000  1
  O  O12  1  0.52525900  0.47353900  0.70634000  1
  O  O13  1  0.72072100  0.55919300  0.29407500  1
  O  O14  1  0.27927900  0.44080700  0.70592500  1
  O  O15  1  0.47474100  0.52646100  0.29366000  1
  O  O16  1  0.97474100  0.47353900  0.20634000  1
  O  O17  1  0.10165900  0.37241000  0.49535600  1
  O  O18  1  0.22072100  0.44080700  0.20592500  1
  O  O19  1  0.42371700  0.12785300  0.83433200  1
  O  O20  1  0.92168500  0.17126100  0.76010900  1
  O  O21  1  0.39834100  0.37241000  0.99535600  1
  O  O22  1  0.37224000  0.18037500  0.51665200  1
  O  O23  1  0.20743500  0.99858300  0.76443600  1
  O  O24  1  0.07628300  0.12785300  0.33433200  1
  O  O25  1  0.57831500  0.17126100  0.26010900  1
  O  O26  1  0.12776000  0.18037500  0.01665200  1
  O  O27  1  0.29256500  0.99858300  0.26443600  1
loop_
_geom_bond_atom_site_label_1
_geom_bond_atom_site_label_2
_geom_bond_distance
_geom_bond_site_symmetry_2
Li0 O11 2.049060 1_555
Li0 O18 2.199506 1_556
Li0 O23 2.542571 1_555
Li1 O15 2.049060 1_555
Li1 O14 2.199506 1_555
Li1 O27 2.542571 1_555
Li2 O12 2.049060 1_555
Li2 O13 2.199506 1_555
Li2 O0 2.542571 1_555
Li3 O16 2.049060 1_555
Li3 O9 2.199506 1_554
Li3 O4 2.542571 1_555
O0 P0 1.534689 1_545
O0 V0 2.162041 1_545
O1 P0 1.529471 1_555
O1 V1 1.973500 1_556
O2 P6 1.523734 1_565
O2 V0 2.011907 1_555
O3 P2 1.615365 1_555
O3 P0 1.633614 1_555
O4 P1 1.534689 1_545
O4 V1 2.162041 1_545
O5 P1 1.529471 1_555
O5 V0 1.973500 1_555
O6 P3 1.501788 1_555
O6 V0 1.967564 1_554
O7 P7 1.523734 1_565
O7 V1 2.011907 1_455
O8 P3 1.615365 1_555
O8 P1 1.633614 1_555
O9 P2 1.546971 1_555
O9 V0 2.100640 1_555
O10 P2 1.501788 1_555
O10 V1 1.967564 1_555
O11 P2 1.540613 1_455
O11 V2 2.124048 1_555
O12 P4 1.540613 1_555
O12 V0 2.124048 1_555
O13 P3 1.546971 1_555
O13 V1 2.100640 1_555
O14 P4 1.546971 1_555
O14 V2 2.100640 1_555
O15 P3 1.540613 1_555
O15 V3 2.124048 1_555
O16 P5 1.540613 1_655
O16 V1 2.124048 1_555
O17 P5 1.501788 1_555
O17 V2 1.967564 1_555
O18 P5 1.546971 1_555
O18 V3 2.100640 1_555
O19 P4 1.615365 1_555
O19 P6 1.633614 1_555
O20 P0 1.523734 1_545
O20 V2 2.011907 1_655
O21 P4 1.501788 1_555
O21 V3 1.967564 1_556
O22 P6 1.529471 1_555
O22 V3 1.973500 1_555
O23 P6 1.534689 1_565
O23 V2 2.162041 1_565
O24 P5 1.615365 1_555
O24 P7 1.633614 1_555
O25 P1 1.523734 1_545
O25 V3 2.011907 1_555
O26 P7 1.529471 1_555
O26 V2 1.973500 1_554
O27 P7 1.534689 1_565
O27 V3 2.162041 1_565
