# generated using pymatgen
data_CaY2O4
_symmetry_space_group_name_H-M   'P 1'
_cell_length_a   5.78553526
_cell_length_b   5.78553526
_cell_length_c   10.99972300
_cell_angle_alpha   90.00000000
_cell_angle_beta   90.00000000
_cell_angle_gamma   146.54113175
_symmetry_Int_Tables_number   1
_chemical_formula_structural   CaY2O4
_chemical_formula_sum   'Ca2 Y4 O8'
_cell_volume   202.99574232
_cell_formula_units_Z   2
loop_
 _symmetry_equiv_pos_site_id
 _symmetry_equiv_pos_as_xyz
  1  'x, y, z'
loop_
 _atom_site_type_symbol
 _atom_site_label
 _atom_site_symmetry_multiplicity
 _atom_site_fract_x
 _atom_site_fract_y
 _atom_site_fract_z
 _atom_site_occupancy
  Ca  Ca0  1  0.88939800  0.11060200  0.25000000  1
  Ca  Ca1  1  0.11060200  0.88939800  0.75000000  1
  Y  Y0  1  0.63259700  0.36740300  0.42555900  1
  Y  Y1  1  0.36740300  0.63259700  0.57444100  1
  Y  Y2  1  0.63259700  0.36740300  0.07444100  1
  Y  Y3  1  0.36740300  0.63259700  0.92555900  1
  O  O0  1  0.00000000  0.00000000  0.00000000  1
  O  O1  1  0.00000000  0.00000000  0.50000000  1
  O  O2  1  0.73300400  0.26699600  0.61331200  1
  O  O3  1  0.53288100  0.46711900  0.25000000  1
  O  O4  1  0.46711900  0.53288100  0.75000000  1
  O  O5  1  0.26699600  0.73300400  0.38668800  1
  O  O6  1  0.73300400  0.26699600  0.88668800  1
  O  O7  1  0.26699600  0.73300400  0.11331200  1
loop_
_geom_bond_atom_site_label_1
_geom_bond_atom_site_label_2
_geom_bond_distance
_geom_bond_site_symmetry_2
Ca0 O3 2.302506 1_545
Ca0 O3 2.302506 1_655
Ca0 O7 2.621803 1_545
Ca0 O5 2.621803 1_545
Ca0 O7 2.621803 1_655
Ca0 O5 2.621803 1_655
Ca0 O0 3.010690 1_655
Ca0 O1 3.010690 1_655
Ca1 O4 2.302506 1_455
Ca1 O4 2.302506 1_565
Ca1 O6 2.621803 1_455
Ca1 O6 2.621803 1_565
Ca1 O2 2.621803 1_455
Ca1 O2 2.621803 1_565
Ca1 O0 3.010690 1_566
Ca1 O1 3.010690 1_565
O0 Y2 2.367059 1_555
O0 Y2 2.367059 1_445
O0 Y3 2.367059 1_554
O0 Y3 2.367059 1_444
O1 Y1 2.367059 1_555
O1 Y1 2.367059 1_445
O1 Y0 2.367059 1_555
O1 Y0 2.367059 1_445
O2 Y1 2.274726 1_655
O2 Y1 2.274726 1_545
O2 Y0 2.345880 1_555
O3 Y0 2.224891 1_555
O3 Y2 2.224891 1_555
O4 Y3 2.224891 1_555
O4 Y1 2.224891 1_555
O5 Y0 2.274726 1_565
O5 Y0 2.274726 1_455
O5 Y1 2.345880 1_555
O6 Y3 2.274726 1_655
O6 Y3 2.274726 1_545
O6 Y2 2.345880 1_556
O7 Y2 2.274726 1_565
O7 Y2 2.274726 1_455
O7 Y3 2.345880 1_554
