# generated using pymatgen
data_LiCoSiO4
_symmetry_space_group_name_H-M   'P 1'
_cell_length_a   9.88455052
_cell_length_b   9.88455052
_cell_length_c   24.16783800
_cell_angle_alpha   90.00000000
_cell_angle_beta   90.00000000
_cell_angle_gamma   120.00000345
_symmetry_Int_Tables_number   1
_chemical_formula_structural   LiCoSiO4
_chemical_formula_sum   'Li24 Co24 Si24 O96'
_cell_volume   2044.94799615
_cell_formula_units_Z   24
loop_
 _symmetry_equiv_pos_site_id
 _symmetry_equiv_pos_as_xyz
  1  'x, y, z'
loop_
 _atom_site_type_symbol
 _atom_site_label
 _atom_site_symmetry_multiplicity
 _atom_site_fract_x
 _atom_site_fract_y
 _atom_site_fract_z
 _atom_site_occupancy
  Li  Li0  1  0.02280800  0.97422700  0.69549400  1
  Li  Li1  1  0.03514000  0.58438800  0.03537600  1
  Li  Li2  1  0.05937000  0.45641100  0.19190200  1
  Li  Li3  1  0.05160800  0.47452300  0.84757200  1
  Li  Li4  1  0.39704100  0.94063000  0.85856900  1
  Li  Li5  1  0.42291500  0.94839200  0.51423900  1
  Li  Li6  1  0.02577300  0.04858200  0.02882700  1
  Li  Li7  1  0.04858200  0.02280800  0.86216100  1
  Li  Li8  1  0.54924700  0.96486000  0.70204200  1
  Li  Li9  1  0.41561200  0.45075300  0.36870900  1
  Li  Li10  1  0.52547700  0.57708500  0.18090600  1
  Li  Li11  1  0.54358900  0.60295900  0.52523500  1
  Li  Li12  1  0.45641100  0.39704100  0.02523500  1
  Li  Li13  1  0.47452300  0.42291500  0.68090600  1
  Li  Li14  1  0.58438800  0.54924700  0.86870900  1
  Li  Li15  1  0.45075300  0.03514000  0.20204200  1
  Li  Li16  1  0.95141800  0.97719200  0.36216100  1
  Li  Li17  1  0.97422700  0.95141800  0.52882700  1
  Li  Li18  1  0.57708500  0.05160800  0.01423900  1
  Li  Li19  1  0.60295900  0.05937000  0.35856900  1
  Li  Li20  1  0.94839200  0.52547700  0.34757200  1
  Li  Li21  1  0.94063000  0.54358900  0.69190200  1
  Li  Li22  1  0.96486000  0.41561200  0.53537600  1
  Li  Li23  1  0.97719200  0.02577300  0.19549400  1
  Co  Co0  1  0.09814900  0.82034600  0.27090800  1
  Co  Co1  1  0.08094200  0.75204200  0.91657000  1
  Co  Co2  1  0.11623700  0.74250100  0.59290500  1
  Co  Co3  1  0.30504600  0.66558900  0.75477400  1
  Co  Co4  1  0.33441100  0.63945600  0.08810700  1
  Co  Co5  1  0.36054400  0.69495400  0.42144100  1
  Co  Co6  1  0.17965400  0.27780300  0.60424100  1
  Co  Co7  1  0.25749900  0.37373600  0.92623900  1
  Co  Co8  1  0.24795800  0.32890000  0.24990400  1
  Co  Co9  1  0.62626400  0.88376300  0.25957200  1
  Co  Co10  1  0.67110000  0.91905800  0.58323700  1
  Co  Co11  1  0.27780300  0.09814900  0.43757400  1
  Co  Co12  1  0.72219700  0.90185100  0.93757400  1
  Co  Co13  1  0.32890000  0.08094200  0.08323700  1
  Co  Co14  1  0.37373600  0.11623700  0.75957200  1
  Co  Co15  1  0.75204200  0.67110000  0.74990400  1
  Co  Co16  1  0.74250100  0.62626400  0.42623900  1
  Co  Co17  1  0.82034600  0.72219700  0.10424100  1
  Co  Co18  1  0.63945600  0.30504600  0.92144100  1
  Co  Co19  1  0.66558900  0.36054400  0.58810700  1
  Co  Co20  1  0.69495400  0.33441100  0.25477400  1
  Co  Co21  1  0.88376300  0.25749900  0.09290500  1
  Co  Co22  1  0.91905800  0.24795800  0.41657000  1
  Co  Co23  1  0.90185100  0.17965400  0.77090800  1
  Si  Si0  1  0.08639300  0.78389500  0.78820500  1
  Si  Si1  1  0.07486800  0.75025800  0.46659600  1
  Si  Si2  1  0.13566500  0.77063500  0.14157500  1
  Si  Si3  1  0.27839200  0.64463800  0.29666300  1
  Si  Si4  1  0.36624500  0.72160800  0.96332900  1
  Si  Si5  1  0.35536200  0.63375500  0.62999600  1
  Si  Si6  1  0.22936500  0.36502900  0.47490800  1
  Si  Si7  1  0.21610500  0.30249700  0.12153800  1
  Si  Si8  1  0.24974200  0.32461000  0.79993000  1
  Si  Si9  1  0.63497100  0.86433500  0.80824200  1
  Si  Si10  1  0.67539000  0.92513200  0.13326300  1
  Si  Si11  1  0.69750300  0.91360700  0.45487200  1
  Si  Si12  1  0.30249700  0.08639300  0.95487200  1
  Si  Si13  1  0.32461000  0.07486800  0.63326300  1
  Si  Si14  1  0.36502900  0.13566500  0.30824200  1
  Si  Si15  1  0.75025800  0.67539000  0.29993000  1
  Si  Si16  1  0.78389500  0.69750300  0.62153800  1
  Si  Si17  1  0.77063500  0.63497100  0.97490800  1
  Si  Si18  1  0.64463800  0.36624500  0.12999600  1
  Si  Si19  1  0.63375500  0.27839200  0.46332900  1
  Si  Si20  1  0.72160800  0.35536200  0.79666300  1
  Si  Si21  1  0.86433500  0.22936500  0.64157500  1
  Si  Si22  1  0.92513200  0.24974200  0.96659600  1
  Si  Si23  1  0.91360700  0.21610500  0.28820500  1
  O  O0  1  0.02261000  0.76183400  0.08981200  1
  O  O1  1  0.09903100  0.92839700  0.47146900  1
  O  O2  1  0.02027700  0.67662100  0.84499600  1
  O  O3  1  0.13359300  0.96261000  0.92611600  1
  O  O4  1  0.03945900  0.75017300  0.19870900  1
  O  O5  1  0.00961400  0.66133600  0.52641100  1
  O  O6  1  0.23741700  0.95326000  0.80670800  1
  O  O7  1  0.12898000  0.67192900  0.30639500  1
  O  O8  1  0.12482100  0.68033700  0.74461700  1
  O  O9  1  0.29600200  0.94482800  0.58498400  1
  O  O10  1  0.30162600  0.94005000  0.13837400  1
  O  O11  1  0.17492100  0.62823600  0.13510500  1
  O  O12  1  0.24908900  0.77103100  0.45714500  1
  O  O13  1  0.18767100  0.60910700  0.60830100  1
  O  O14  1  0.05995000  0.36157600  0.47170700  1
  O  O15  1  0.27686300  0.76764300  0.91596600  1
  O  O16  1  0.05517200  0.35117300  0.91831800  1
  O  O17  1  0.04674000  0.28415800  0.14004100  1
  O  O18  1  0.03739000  0.17098300  0.25945000  1
  O  O19  1  0.07160300  0.17063400  0.80480300  1
  O  O20  1  0.26593900  0.67619200  0.02129600  1
  O  O21  1  0.23235700  0.50922100  0.24930000  1
  O  O22  1  0.32380800  0.58974600  0.35462900  1
  O  O23  1  0.22896900  0.47805800  0.79047800  1
  O  O24  1  0.41025400  0.73406100  0.68796200  1
  O  O25  1  0.42143600  0.81232900  0.27496800  1
  O  O26  1  0.45331500  0.82507900  0.80177200  1
  O  O27  1  0.31966300  0.44448400  0.07795100  1
  O  O28  1  0.32807100  0.45705200  0.63972800  1
  O  O29  1  0.37176400  0.54668500  0.46843800  1
  O  O30  1  0.24982700  0.28928500  0.53204300  1
  O  O31  1  0.39089300  0.57856400  0.94163500  1
  O  O32  1  0.49077900  0.72313700  0.58263300  1
  O  O33  1  0.54294800  0.87102000  0.97306200  1
  O  O34  1  0.55551600  0.87517900  0.41128400  1
  O  O35  1  0.17098300  0.13359300  0.09278300  1
  O  O36  1  0.23816600  0.26077600  0.42314500  1
  O  O37  1  0.32337900  0.34365600  0.17832900  1
  O  O38  1  0.17063400  0.09903100  0.63813600  1
  O  O39  1  0.33866400  0.34827800  0.85974400  1
  O  O40  1  0.52194200  0.75091100  0.12381200  1
  O  O41  1  0.28415800  0.23741700  0.97337400  1
  O  O42  1  0.65172200  0.99038600  0.19307800  1
  O  O43  1  0.35117300  0.29600200  0.75165100  1
  O  O44  1  0.36157600  0.30162600  0.30504000  1
  O  O45  1  0.65634400  0.97972300  0.51166300  1
  O  O46  1  0.71071500  0.96054100  0.86537600  1
  O  O47  1  0.26077600  0.02261000  0.25647800  1
  O  O48  1  0.73922400  0.97739000  0.75647800  1
  O  O49  1  0.28928500  0.03945900  0.36537600  1
  O  O50  1  0.34365600  0.02027700  0.01166300  1
  O  O51  1  0.63842400  0.69837400  0.80504000  1
  O  O52  1  0.64882700  0.70399800  0.25165100  1
  O  O53  1  0.34827800  0.00961400  0.69307800  1
  O  O54  1  0.71584200  0.76258300  0.47337400  1
  O  O55  1  0.47805800  0.24908900  0.62381200  1
  O  O56  1  0.66133600  0.65172200  0.35974400  1
  O  O57  1  0.82936600  0.90096900  0.13813600  1
  O  O58  1  0.67662100  0.65634400  0.67832900  1
  O  O59  1  0.76183400  0.73922400  0.92314500  1
  O  O60  1  0.82901700  0.86640700  0.59278300  1
  O  O61  1  0.44448400  0.12482100  0.91128400  1
  O  O62  1  0.45705200  0.12898000  0.47306200  1
  O  O63  1  0.50922100  0.27686300  0.08263300  1
  O  O64  1  0.60910700  0.42143600  0.44163500  1
  O  O65  1  0.75017300  0.71071500  0.03204300  1
  O  O66  1  0.62823600  0.45331500  0.96843800  1
  O  O67  1  0.67192900  0.54294800  0.13972800  1
  O  O68  1  0.68033700  0.55551600  0.57795100  1
  O  O69  1  0.54668500  0.17492100  0.30177200  1
  O  O70  1  0.57856400  0.18767100  0.77496800  1
  O  O71  1  0.58974600  0.26593900  0.18796200  1
  O  O72  1  0.77103100  0.52194200  0.29047800  1
  O  O73  1  0.67619200  0.41025400  0.85462900  1
  O  O74  1  0.76764300  0.49077900  0.74930000  1
  O  O75  1  0.73406100  0.32380800  0.52129600  1
  O  O76  1  0.92839700  0.82936600  0.30480300  1
  O  O77  1  0.96261000  0.82901700  0.75945000  1
  O  O78  1  0.95326000  0.71584200  0.64004100  1
  O  O79  1  0.94482800  0.64882700  0.41831800  1
  O  O80  1  0.72313700  0.23235700  0.41596600  1
  O  O81  1  0.94005000  0.63842400  0.97170700  1
  O  O82  1  0.81232900  0.39089300  0.10830100  1
  O  O83  1  0.75091100  0.22896900  0.95714500  1
  O  O84  1  0.82507900  0.37176400  0.63510500  1
  O  O85  1  0.69837400  0.05995000  0.63837400  1
  O  O86  1  0.70399800  0.05517200  0.08498400  1
  O  O87  1  0.87517900  0.31966300  0.24461700  1
  O  O88  1  0.87102000  0.32807100  0.80639500  1
  O  O89  1  0.76258300  0.04674000  0.30670800  1
  O  O90  1  0.99038600  0.33866400  0.02641100  1
  O  O91  1  0.96054100  0.24982700  0.69870900  1
  O  O92  1  0.86640700  0.03739000  0.42611600  1
  O  O93  1  0.97972300  0.32337900  0.34499600  1
  O  O94  1  0.90096900  0.07160300  0.97146900  1
  O  O95  1  0.97739000  0.23816600  0.58981200  1
loop_
_geom_bond_atom_site_label_1
_geom_bond_atom_site_label_2
_geom_bond_distance
_geom_bond_site_symmetry_2
Li0 O38 1.943183 1_565
Li0 O77 1.987285 1_455
Li1 O81 2.009602 1_454
Li1 O20 2.018313 1_555
Li1 O0 2.244951 1_555
Li1 O90 2.251130 1_455
Li2 O11 2.033096 1_555
Li2 O21 2.056198 1_555
Li2 O17 2.067112 1_555
Li2 O87 2.074600 1_455
Li3 O88 1.920475 1_455
Li3 O16 2.110480 1_555
Li3 O2 2.170032 1_555
Li3 O23 2.217520 1_555
Li4 O26 2.033096 1_555
Li4 O15 2.056184 1_555
Li4 O6 2.067120 1_555
Li4 O61 2.074600 1_565
Li5 O62 1.920473 1_565
Li5 O9 2.110455 1_555
Li5 O45 2.170032 1_555
Li5 O12 2.217520 1_555
Li6 O94 1.943179 1_454
Li6 O35 1.987285 1_555
Li7 O19 1.943186 1_555
Li7 O3 1.987261 1_545
Li8 O85 2.009588 1_565
Li8 O24 2.018311 1_555
Li8 O48 2.244959 1_555
Li8 O53 2.251118 1_565
Li9 O44 2.009608 1_555
Li9 O22 2.018295 1_555
Li9 O36 2.244955 1_555
Li9 O56 2.251126 1_555
Li10 O67 1.920493 1_555
Li10 O52 2.110458 1_555
Li10 O37 2.170033 1_555
Li10 O40 2.217520 1_555
Li11 O29 2.033096 1_555
Li11 O32 2.056205 1_555
Li11 O54 2.067115 1_555
Li11 O68 2.074615 1_555
Li12 O66 2.033096 1_554
Li12 O63 2.056205 1_555
Li12 O41 2.067115 1_554
Li12 O27 2.074615 1_555
Li13 O28 1.920493 1_555
Li13 O43 2.110458 1_555
Li13 O58 2.170033 1_555
Li13 O55 2.217520 1_555
Li14 O51 2.009608 1_555
Li14 O73 2.018295 1_555
Li14 O59 2.244955 1_555
Li14 O39 2.251126 1_555
Li15 O10 2.009588 1_545
Li15 O71 2.018311 1_555
Li15 O47 2.244959 1_555
Li15 O42 2.251118 1_545
Li16 O76 1.943186 1_555
Li16 O92 1.987261 1_565
Li17 O1 1.943179 1_655
Li17 O60 1.987285 1_555
Li18 O33 1.920473 1_544
Li18 O86 2.110455 1_555
Li18 O50 2.170032 1_555
Li18 O83 2.217520 1_554
Li19 O69 2.033096 1_555
Li19 O80 2.056184 1_555
Li19 O89 2.067120 1_555
Li19 O34 2.074600 1_545
Li20 O7 1.920475 1_655
Li20 O79 2.110480 1_555
Li20 O93 2.170032 1_555
Li20 O72 2.217520 1_555
Li21 O84 2.033096 1_555
Li21 O74 2.056198 1_555
Li21 O78 2.067112 1_555
Li21 O8 2.074600 1_655
Li22 O14 2.009602 1_655
Li22 O75 2.018313 1_555
Li22 O95 2.244951 1_555
Li22 O5 2.251130 1_655
Li23 O57 1.943183 1_545
Li23 O18 1.987285 1_655
Co0 O7 1.851405 1_555
Co0 O4 1.860088 1_555
Co0 O47 1.867878 1_565
Co0 O76 1.908929 1_455
Co1 O81 1.847264 1_455
Co1 O2 1.860237 1_555
Co1 O15 1.864333 1_555
Co1 O3 1.890229 1_555
Co2 O13 1.818399 1_555
Co2 O5 1.868519 1_555
Co2 O78 1.880911 1_455
Co2 O9 1.907883 1_555
Co3 O23 1.830898 1_555
Co3 O24 1.855521 1_555
Co3 O8 1.874764 1_555
Co3 O26 1.900760 1_555
Co4 O40 1.830910 1_555
Co4 O20 1.855500 1_555
Co4 O27 1.874751 1_555
Co4 O11 1.900764 1_555
Co5 O12 1.830906 1_555
Co5 O22 1.855521 1_555
Co5 O34 1.874759 1_555
Co5 O29 1.900742 1_555
Co6 O28 1.851410 1_555
Co6 O30 1.860067 1_555
Co6 O95 1.867874 1_455
Co6 O38 1.908929 1_555
Co7 O31 1.818399 1_555
Co7 O39 1.868540 1_555
Co7 O41 1.880904 1_555
Co7 O16 1.907879 1_555
Co8 O44 1.847247 1_555
Co8 O37 1.860259 1_555
Co8 O21 1.864343 1_555
Co8 O18 1.890229 1_555
Co9 O25 1.818399 1_555
Co9 O42 1.868519 1_555
Co9 O89 1.880914 1_565
Co9 O52 1.907889 1_555
Co10 O85 1.847264 1_565
Co10 O45 1.860237 1_555
Co10 O32 1.864338 1_555
Co10 O60 1.890229 1_555
Co11 O62 1.851424 1_555
Co11 O49 1.860063 1_555
Co11 O36 1.867874 1_555
Co11 O1 1.908929 1_545
Co12 O33 1.851424 1_555
Co12 O46 1.860063 1_555
Co12 O59 1.867874 1_555
Co12 O94 1.908929 1_565
Co13 O10 1.847264 1_545
Co13 O50 1.860237 1_555
Co13 O63 1.864338 1_555
Co13 O35 1.890229 1_555
Co14 O70 1.818399 1_555
Co14 O53 1.868519 1_555
Co14 O6 1.880914 1_545
Co14 O43 1.907889 1_555
Co15 O51 1.847247 1_555
Co15 O58 1.860259 1_555
Co15 O74 1.864343 1_555
Co15 O77 1.890229 1_555
Co16 O64 1.818399 1_555
Co16 O56 1.868540 1_555
Co16 O54 1.880904 1_555
Co16 O79 1.907879 1_555
Co17 O67 1.851410 1_555
Co17 O65 1.860067 1_555
Co17 O0 1.867874 1_655
Co17 O57 1.908929 1_555
Co18 O83 1.830906 1_555
Co18 O73 1.855521 1_555
Co18 O61 1.874759 1_555
Co18 O66 1.900742 1_555
Co19 O55 1.830910 1_555
Co19 O75 1.855500 1_555
Co19 O68 1.874751 1_555
Co19 O84 1.900764 1_555
Co20 O72 1.830898 1_555
Co20 O71 1.855521 1_555
Co20 O87 1.874764 1_555
Co20 O69 1.900760 1_555
Co21 O82 1.818399 1_555
Co21 O90 1.868519 1_555
Co21 O17 1.880911 1_655
Co21 O86 1.907883 1_555
Co22 O14 1.847264 1_655
Co22 O93 1.860237 1_555
Co22 O80 1.864333 1_555
Co22 O92 1.890229 1_555
Co23 O88 1.851405 1_555
Co23 O91 1.860088 1_555
Co23 O48 1.867878 1_545
Co23 O19 1.908929 1_655
O0 Si2 1.650501 1_555
O1 Si1 1.658572 1_555
O2 Si0 1.655983 1_555
O3 Si12 1.650651 1_565
O4 Si2 1.630799 1_555
O5 Si1 1.646639 1_555
O6 Si0 1.652856 1_555
O7 Si3 1.645489 1_555
O8 Si0 1.640309 1_555
O9 Si13 1.652309 1_565
O10 Si2 1.659588 1_555
O11 Si2 1.643892 1_555
O12 Si1 1.645098 1_555
O13 Si5 1.636431 1_555
O14 Si6 1.659593 1_555
O15 Si4 1.643139 1_555
O16 Si22 1.652290 1_455
O17 Si7 1.652864 1_555
O18 Si23 1.650647 1_455
O19 Si8 1.658571 1_555
O20 Si4 1.643804 1_554
O21 Si3 1.643139 1_555
O22 Si3 1.643792 1_555
O23 Si8 1.645101 1_555
O24 Si5 1.643784 1_555
O25 Si3 1.636435 1_555
O26 Si9 1.643902 1_555
O27 Si7 1.640299 1_555
O28 Si5 1.645489 1_555
O29 Si6 1.643899 1_555
O30 Si6 1.630820 1_555
O31 Si4 1.636433 1_555
O32 Si5 1.643139 1_555
O33 Si4 1.645493 1_555
O34 Si11 1.640317 1_555
O35 Si7 1.650638 1_555
O36 Si6 1.650495 1_555
O37 Si7 1.655982 1_555
O38 Si13 1.658572 1_555
O39 Si8 1.646618 1_555
O40 Si10 1.645098 1_555
O41 Si12 1.652839 1_555
O42 Si10 1.646639 1_555
O43 Si8 1.652302 1_555
O44 Si14 1.659584 1_555
O45 Si11 1.655987 1_555
O46 Si9 1.630799 1_555
O47 Si14 1.650517 1_555
O48 Si9 1.650517 1_555
O49 Si14 1.630799 1_555
O50 Si12 1.655987 1_554
O51 Si9 1.659584 1_555
O52 Si15 1.652302 1_555
O53 Si13 1.646639 1_555
O54 Si11 1.652839 1_555
O55 Si13 1.645098 1_555
O56 Si15 1.646618 1_555
O57 Si10 1.658572 1_555
O58 Si16 1.655982 1_555
O59 Si17 1.650495 1_555
O60 Si16 1.650638 1_555
O61 Si12 1.640317 1_555
O62 Si19 1.645493 1_555
O63 Si18 1.643139 1_555
O64 Si19 1.636433 1_555
O65 Si17 1.630820 1_554
O66 Si17 1.643899 1_555
O67 Si18 1.645489 1_555
O68 Si16 1.640299 1_555
O69 Si14 1.643902 1_555
O70 Si20 1.636435 1_555
O71 Si18 1.643784 1_555
O72 Si15 1.645101 1_555
O73 Si20 1.643792 1_555
O74 Si20 1.643139 1_555
O75 Si19 1.643804 1_555
O76 Si15 1.658571 1_555
O77 Si0 1.650647 1_655
O78 Si16 1.652864 1_555
O79 Si1 1.652290 1_655
O80 Si19 1.643139 1_555
O81 Si17 1.659593 1_555
O82 Si18 1.636431 1_555
O83 Si22 1.645098 1_555
O84 Si21 1.643892 1_555
O85 Si21 1.659588 1_555
O86 Si10 1.652309 1_545
O87 Si23 1.640309 1_555
O88 Si20 1.645489 1_555
O89 Si23 1.652856 1_555
O90 Si22 1.646639 1_554
O91 Si21 1.630799 1_555
O92 Si11 1.650651 1_545
O93 Si23 1.655983 1_555
O94 Si22 1.658572 1_555
O95 Si21 1.650501 1_555
