# generated using pymatgen
data_Na6V2P(CO4)4
_symmetry_space_group_name_H-M   'P 1'
_cell_length_a   9.96705050
_cell_length_b   9.96705050
_cell_length_c   9.96705050
_cell_angle_alpha   60.00000000
_cell_angle_beta   60.00000000
_cell_angle_gamma   60.00000000
_symmetry_Int_Tables_number   1
_chemical_formula_structural   Na6V2P(CO4)4
_chemical_formula_sum   'Na12 V4 P2 C8 O32'
_cell_volume   700.14014286
_cell_formula_units_Z   2
loop_
 _symmetry_equiv_pos_site_id
 _symmetry_equiv_pos_as_xyz
  1  'x, y, z'
loop_
 _atom_site_type_symbol
 _atom_site_label
 _atom_site_symmetry_multiplicity
 _atom_site_fract_x
 _atom_site_fract_y
 _atom_site_fract_z
 _atom_site_occupancy
  Na  Na0  1  0.54425200  0.95574800  0.54425200  1
  Na  Na1  1  0.54425200  0.54425200  0.95574800  1
  Na  Na2  1  0.95574800  0.54425200  0.54425200  1
  Na  Na3  1  0.29425200  0.70574800  0.29425200  1
  Na  Na4  1  0.95574800  0.95574800  0.54425200  1
  Na  Na5  1  0.54425200  0.95574800  0.95574800  1
  Na  Na6  1  0.70574800  0.29425200  0.29425200  1
  Na  Na7  1  0.29425200  0.29425200  0.70574800  1
  Na  Na8  1  0.95574800  0.54425200  0.95574800  1
  Na  Na9  1  0.70574800  0.70574800  0.29425200  1
  Na  Na10  1  0.29425200  0.70574800  0.70574800  1
  Na  Na11  1  0.70574800  0.29425200  0.70574800  1
  V  V0  1  0.12500000  0.12500000  0.62500000  1
  V  V1  1  0.62500000  0.12500000  0.12500000  1
  V  V2  1  0.12500000  0.62500000  0.12500000  1
  V  V3  1  0.12500000  0.12500000  0.12500000  1
  P  P0  1  0.50000000  0.50000000  0.50000000  1
  P  P1  1  0.75000000  0.75000000  0.75000000  1
  C  C0  1  0.34061100  0.34061100  0.34061100  1
  C  C1  1  0.90938900  0.90938900  0.27183200  1
  C  C2  1  0.27183200  0.90938900  0.90938900  1
  C  C3  1  0.90938900  0.27183200  0.90938900  1
  C  C4  1  0.34061100  0.97816800  0.34061100  1
  C  C5  1  0.34061100  0.34061100  0.97816800  1
  C  C6  1  0.97816800  0.34061100  0.34061100  1
  C  C7  1  0.90938900  0.90938900  0.90938900  1
  O  O0  1  0.48145800  0.22429900  0.31714300  1
  O  O1  1  0.22429900  0.31714300  0.48145800  1
  O  O2  1  0.31714300  0.48145800  0.22429900  1
  O  O3  1  0.27290100  0.76854200  0.93285700  1
  O  O4  1  0.56400800  0.30797500  0.56400800  1
  O  O5  1  0.02570100  0.76854200  0.27290100  1
  O  O6  1  0.76854200  0.93285700  0.27290100  1
  O  O7  1  0.56400800  0.56400800  0.30797500  1
  O  O8  1  0.30797500  0.56400800  0.56400800  1
  O  O9  1  0.27290100  0.02570100  0.76854200  1
  O  O10  1  0.27290100  0.93285700  0.02570100  1
  O  O11  1  0.56400800  0.56400800  0.56400800  1
  O  O12  1  0.93285700  0.27290100  0.76854200  1
  O  O13  1  0.93285700  0.02570100  0.27290100  1
  O  O14  1  0.76854200  0.27290100  0.02570100  1
  O  O15  1  0.22429900  0.97709900  0.31714300  1
  O  O16  1  0.02570100  0.27290100  0.93285700  1
  O  O17  1  0.48145800  0.97709900  0.22429900  1
  O  O18  1  0.31714300  0.22429900  0.97709900  1
  O  O19  1  0.31714300  0.97709900  0.48145800  1
  O  O20  1  0.68599200  0.68599200  0.68599200  1
  O  O21  1  0.97709900  0.31714300  0.22429900  1
  O  O22  1  0.97709900  0.22429900  0.48145800  1
  O  O23  1  0.94202500  0.68599200  0.68599200  1
  O  O24  1  0.68599200  0.68599200  0.94202500  1
  O  O25  1  0.48145800  0.31714300  0.97709900  1
  O  O26  1  0.22429900  0.48145800  0.97709900  1
  O  O27  1  0.68599200  0.94202500  0.68599200  1
  O  O28  1  0.97709900  0.48145800  0.31714300  1
  O  O29  1  0.93285700  0.76854200  0.02570100  1
  O  O30  1  0.02570100  0.93285700  0.76854200  1
  O  O31  1  0.76854200  0.02570100  0.93285700  1
loop_
_geom_bond_atom_site_label_1
_geom_bond_atom_site_label_2
_geom_bond_distance
_geom_bond_site_symmetry_2
Na0 O20 2.370578 1_555
Na0 O27 2.370583 1_555
Na0 O0 2.522443 1_565
Na0 O19 2.522448 1_555
Na0 O6 2.534794 1_555
Na0 O9 2.534796 1_565
Na1 O20 2.370578 1_555
Na1 O24 2.370583 1_555
Na1 O2 2.522443 1_556
Na1 O25 2.522448 1_555
Na1 O3 2.534794 1_555
Na1 O14 2.534796 1_556
Na2 O20 2.370578 1_555
Na2 O23 2.370583 1_555
Na2 O1 2.522443 1_655
Na2 O28 2.522448 1_555
Na2 O12 2.534794 1_555
Na2 O5 2.534796 1_655
Na3 O8 2.370574 1_555
Na3 O7 2.370574 1_555
Na3 O5 2.522438 1_555
Na3 O10 2.522441 1_555
Na3 O15 2.534791 1_555
Na3 O2 2.534801 1_555
Na4 O27 2.370574 1_555
Na4 O23 2.370574 1_555
Na4 O22 2.522438 1_565
Na4 O15 2.522441 1_655
Na4 O13 2.534791 1_565
Na4 O30 2.534801 1_655
Na5 O24 2.370574 1_555
Na5 O27 2.370574 1_555
Na5 O17 2.522438 1_556
Na5 O18 2.522441 1_565
Na5 O10 2.534791 1_556
Na5 O31 2.534801 1_565
Na6 O4 2.370574 1_555
Na6 O7 2.370574 1_555
Na6 O14 2.522438 1_555
Na6 O13 2.522441 1_555
Na6 O21 2.534791 1_555
Na6 O0 2.534801 1_555
Na7 O8 2.370574 1_555
Na7 O4 2.370574 1_555
Na7 O9 2.522438 1_555
Na7 O16 2.522441 1_555
Na7 O18 2.534791 1_555
Na7 O1 2.534801 1_555
Na8 O24 2.370574 1_555
Na8 O23 2.370574 1_555
Na8 O26 2.522438 1_655
Na8 O21 2.522441 1_556
Na8 O16 2.534791 1_655
Na8 O29 2.534801 1_556
Na9 O11 2.370578 1_555
Na9 O7 2.370583 1_555
Na9 O29 2.522443 1_555
Na9 O6 2.522448 1_555
Na9 O28 2.534794 1_555
Na9 O17 2.534796 1_555
Na10 O11 2.370578 1_555
Na10 O8 2.370583 1_555
Na10 O30 2.522443 1_555
Na10 O3 2.522448 1_555
Na10 O19 2.534794 1_555
Na10 O26 2.534796 1_555
Na11 O11 2.370578 1_555
Na11 O4 2.370583 1_555
Na11 O31 2.522443 1_555
Na11 O12 2.522448 1_555
Na11 O25 2.534794 1_555
Na11 O22 2.534796 1_555
C0 O0 1.297981 1_555
C0 O2 1.297981 1_555
C0 O1 1.297981 1_555
C1 O6 1.297972 1_555
C1 O5 1.297979 1_655
C1 O13 1.297992 1_565
C2 O3 1.297972 1_555
C2 O9 1.297979 1_565
C2 O10 1.297992 1_556
C3 O12 1.297972 1_555
C3 O14 1.297979 1_556
C3 O16 1.297992 1_655
C4 O19 1.297972 1_555
C4 O17 1.297979 1_555
C4 O15 1.297992 1_555
C5 O25 1.297972 1_555
C5 O26 1.297979 1_555
C5 O18 1.297992 1_555
C6 O28 1.297972 1_555
C6 O22 1.297979 1_555
C6 O21 1.297992 1_555
C7 O30 1.297981 1_655
C7 O31 1.297981 1_565
C7 O29 1.297981 1_556
O0 V1 2.105596 1_555
O1 V0 2.105596 1_555
O2 V2 2.105596 1_555
O3 V2 2.105602 1_556
O4 P0 1.562711 1_555
O5 V2 2.105604 1_555
O6 V1 2.105602 1_565
O7 P0 1.562711 1_555
O8 P0 1.562711 1_555
O9 V0 2.105604 1_555
O10 V3 2.105596 1_565
O11 P0 1.562703 1_555
O12 V0 2.105602 1_655
O13 V3 2.105596 1_655
O14 V1 2.105604 1_555
O15 V3 2.105596 1_565
O16 V3 2.105596 1_556
O17 V1 2.105604 1_565
O18 V3 2.105596 1_556
O19 V0 2.105602 1_565
O20 P1 1.562703 1_555
O21 V3 2.105596 1_655
O22 V0 2.105604 1_655
O23 P1 1.562711 1_555
O24 P1 1.562711 1_555
O25 V1 2.105602 1_556
O26 V2 2.105604 1_556
O27 P1 1.562711 1_555
O28 V2 2.105602 1_655
O29 V2 2.105596 1_655
O30 V0 2.105596 1_565
O31 V1 2.105596 1_556
