# generated using pymatgen
data_Ba13Bi11O36
_symmetry_space_group_name_H-M   'P 1'
_cell_length_a   10.76159300
_cell_length_b   10.91033520
_cell_length_c   10.91090912
_cell_angle_alpha   60.01061550
_cell_angle_beta   70.23491024
_cell_angle_gamma   80.26362386
_symmetry_Int_Tables_number   1
_chemical_formula_structural   Ba13Bi11O36
_chemical_formula_sum   'Ba13 Bi11 O36'
_cell_volume   1044.19699433
_cell_formula_units_Z   1
loop_
 _symmetry_equiv_pos_site_id
 _symmetry_equiv_pos_as_xyz
  1  'x, y, z'
loop_
 _atom_site_type_symbol
 _atom_site_label
 _atom_site_symmetry_multiplicity
 _atom_site_fract_x
 _atom_site_fract_y
 _atom_site_fract_z
 _atom_site_occupancy
  Ba  Ba0  1  0.00000000  0.50000000  0.50000000  1
  Ba  Ba1  1  0.87836500  0.16119900  0.54647700  1
  Ba  Ba2  1  0.12163500  0.83880100  0.45352300  1
  Ba  Ba3  1  0.12264100  0.49503200  0.12676800  1
  Ba  Ba4  1  0.38143600  0.50040500  0.37213400  1
  Ba  Ba5  1  0.87855100  0.83373200  0.20225400  1
  Ba  Ba6  1  0.87735900  0.50496800  0.87323200  1
  Ba  Ba7  1  0.62242300  0.16637300  0.29262400  1
  Ba  Ba8  1  0.12144900  0.16626800  0.79774600  1
  Ba  Ba9  1  0.37474600  0.16593300  0.04236900  1
  Ba  Ba10  1  0.61856400  0.49959500  0.62786600  1
  Ba  Ba11  1  0.62525400  0.83406700  0.95763100  1
  Ba  Ba12  1  0.37757700  0.83362700  0.70737600  1
  Bi  Bi0  1  0.25266700  0.16126600  0.41838600  1
  Bi  Bi1  1  0.99727000  0.16660100  0.16768500  1
  Bi  Bi2  1  0.74761600  0.49762700  0.24767000  1
  Bi  Bi3  1  0.50012000  0.83080200  0.33570000  1
  Bi  Bi4  1  0.50000000  0.50000000  0.00000000  1
  Bi  Bi5  1  0.25238400  0.50237300  0.75233000  1
  Bi  Bi6  1  0.25332800  0.83644900  0.07665400  1
  Bi  Bi7  1  0.00273000  0.83339900  0.83231500  1
  Bi  Bi8  1  0.74667200  0.16355100  0.92334600  1
  Bi  Bi9  1  0.49988000  0.16919800  0.66430000  1
  Bi  Bi10  1  0.74733300  0.83873400  0.58161400  1
  O  O0  1  0.86723700  0.71445200  0.49262000  1
  O  O1  1  0.86582200  0.44819800  0.38250500  1
  O  O2  1  0.38497000  0.67604100  0.57375100  1
  O  O3  1  0.87110500  0.67897500  0.06476500  1
  O  O4  1  0.86864600  0.02446200  0.40138400  1
  O  O5  1  0.13276300  0.28554800  0.50738000  1
  O  O6  1  0.86710200  0.35784200  0.16169900  1
  O  O7  1  0.13349900  0.66310400  0.24147700  1
  O  O8  1  0.38080800  0.12111900  0.55281700  1
  O  O9  1  0.37290800  0.79575700  0.22137900  1
  O  O10  1  0.86848000  0.11822000  0.06779800  1
  O  O11  1  0.87209500  0.79918900  0.72153300  1
  O  O12  1  0.12790500  0.20081100  0.27846700  1
  O  O13  1  0.37072700  0.34741800  0.23540100  1
  O  O14  1  0.86650100  0.33689600  0.75852300  1
  O  O15  1  0.62482300  0.63876000  0.33053200  1
  O  O16  1  0.12803600  0.97868600  0.15752100  1
  O  O17  1  0.13289800  0.64215800  0.83830100  1
  O  O18  1  0.37049700  0.02118200  0.33531600  1
  O  O19  1  0.38276000  0.69980000  0.99440800  1
  O  O20  1  0.87196400  0.02131400  0.84247900  1
  O  O21  1  0.61503000  0.32395900  0.42624900  1
  O  O22  1  0.12889500  0.32102500  0.93523500  1
  O  O23  1  0.37460000  0.45850600  0.89229800  1
  O  O24  1  0.61919200  0.87888100  0.44718300  1
  O  O25  1  0.62540000  0.54149400  0.10770200  1
  O  O26  1  0.13417800  0.55180200  0.61749500  1
  O  O27  1  0.13152000  0.88178000  0.93220200  1
  O  O28  1  0.37222800  0.01955700  0.89726900  1
  O  O29  1  0.61724000  0.30020000  0.00559200  1
  O  O30  1  0.37517700  0.36124000  0.66946800  1
  O  O31  1  0.62927300  0.65258200  0.76459900  1
  O  O32  1  0.62777200  0.98044300  0.10273100  1
  O  O33  1  0.13135400  0.97553800  0.59861600  1
  O  O34  1  0.62709200  0.20424300  0.77862100  1
  O  O35  1  0.62950300  0.97881800  0.66468400  1
loop_
_geom_bond_atom_site_label_1
_geom_bond_atom_site_label_2
_geom_bond_distance
_geom_bond_site_symmetry_2
Ba0 O0 2.506189 1_455
Ba0 O5 2.506189 1_555
Ba0 O7 2.508620 1_555
Ba0 O14 2.508620 1_455
Ba0 O26 2.510031 1_555
Ba0 O1 2.510031 1_455
Ba1 O4 2.696012 1_555
Ba1 O1 2.728350 1_555
Ba1 O20 2.778895 1_555
Ba1 O5 3.066852 1_655
Ba1 O35 3.113866 1_545
Ba1 O12 3.125313 1_655
Ba1 O33 3.141556 1_645
Ba1 O34 3.174204 1_555
Ba1 O21 3.374705 1_555
Ba1 O11 3.422565 1_545
Ba2 O33 2.696012 1_555
Ba2 O26 2.728350 1_555
Ba2 O16 2.778895 1_555
Ba2 O0 3.066852 1_455
Ba2 O18 3.113866 1_565
Ba2 O11 3.125313 1_455
Ba2 O4 3.141556 1_465
Ba2 O9 3.174204 1_555
Ba2 O2 3.374705 1_555
Ba2 O12 3.422565 1_565
Ba3 O17 2.696206 1_554
Ba3 O7 2.721826 1_555
Ba3 O12 2.781664 1_555
Ba3 O1 3.085785 1_455
Ba3 O13 3.147080 1_555
Ba3 O23 3.165111 1_554
Ba3 O6 3.171945 1_455
Ba3 O19 3.326942 1_554
Ba4 O13 2.774117 1_555
Ba4 O30 2.792352 1_555
Ba4 O9 2.793058 1_555
Ba4 O21 2.933384 1_555
Ba4 O15 3.032031 1_555
Ba4 O25 3.065976 1_555
Ba4 O26 3.277184 1_555
Ba4 O7 3.277717 1_555
Ba4 O5 3.290464 1_555
Ba5 O10 2.690656 1_565
Ba5 O0 2.723358 1_555
Ba5 O3 2.786902 1_555
Ba5 O7 3.073512 1_655
Ba5 O16 3.118660 1_655
Ba5 O32 3.131780 1_555
Ba5 O27 3.143464 1_654
Ba5 O15 3.216084 1_555
Ba5 O24 3.313746 1_555
Ba5 O20 3.422099 1_564
Ba6 O6 2.696206 1_556
Ba6 O14 2.721826 1_555
Ba6 O11 2.781664 1_555
Ba6 O26 3.085785 1_655
Ba6 O31 3.147080 1_555
Ba6 O25 3.165111 1_556
Ba6 O17 3.171945 1_655
Ba6 O29 3.326942 1_556
Ba7 O24 2.718994 1_545
Ba7 O29 2.731740 1_555
Ba7 O21 2.732992 1_555
Ba7 O8 3.017404 1_555
Ba7 O6 3.109859 1_555
Ba7 O4 3.119115 1_555
Ba7 O13 3.119221 1_555
Ba7 O10 3.119271 1_555
Ba7 O18 3.152351 1_555
Ba8 O27 2.690656 1_545
Ba8 O5 2.723358 1_555
Ba8 O22 2.786902 1_555
Ba8 O14 3.073512 1_455
Ba8 O20 3.118660 1_455
Ba8 O28 3.131780 1_555
Ba8 O10 3.143464 1_456
Ba8 O30 3.216084 1_555
Ba8 O8 3.313746 1_555
Ba8 O16 3.422099 1_546
Ba9 O18 2.755355 1_555
Ba9 O28 2.762028 1_554
Ba9 O23 2.765035 1_554
Ba9 O29 3.018975 1_555
Ba9 O34 3.118783 1_554
Ba9 O16 3.132674 1_545
Ba9 O22 3.135242 1_554
Ba9 O12 3.138025 1_555
Ba9 O32 3.156025 1_545
Ba10 O31 2.774117 1_555
Ba10 O15 2.792352 1_555
Ba10 O34 2.793058 1_555
Ba10 O2 2.933384 1_555
Ba10 O30 3.032031 1_555
Ba10 O23 3.065976 1_555
Ba10 O1 3.277184 1_555
Ba10 O14 3.277717 1_555
Ba10 O0 3.290464 1_555
Ba11 O35 2.755355 1_555
Ba11 O32 2.762028 1_556
Ba11 O25 2.765035 1_556
Ba11 O19 3.018975 1_555
Ba11 O9 3.118783 1_556
Ba11 O20 3.132674 1_565
Ba11 O3 3.135242 1_556
Ba11 O11 3.138025 1_555
Ba11 O28 3.156025 1_565
Ba12 O8 2.718994 1_565
Ba12 O19 2.731740 1_555
Ba12 O2 2.732992 1_555
Ba12 O24 3.017404 1_555
Ba12 O17 3.109859 1_555
Ba12 O33 3.119115 1_555
Ba12 O31 3.119221 1_555
Ba12 O27 3.119271 1_555
Ba12 O35 3.152351 1_555
Bi0 O5 2.079308 1_555
Bi0 O18 2.171941 1_555
Bi0 O8 2.183193 1_555
Bi0 O13 2.197450 1_555
Bi0 O12 2.202582 1_555
Bi0 O33 2.202833 1_545
Bi1 O4 2.282250 1_555
Bi1 O10 2.287255 1_555
Bi1 O6 2.292839 1_555
Bi1 O16 2.311261 1_645
Bi1 O12 2.313977 1_655
Bi1 O22 2.320192 1_654
Bi2 O1 2.077002 1_555
Bi2 O25 2.169350 1_555
Bi2 O21 2.183107 1_555
Bi2 O6 2.193243 1_555
Bi2 O3 2.193588 1_555
Bi2 O15 2.197744 1_555
Bi3 O32 2.293941 1_555
Bi3 O18 2.296852 1_565
Bi3 O2 2.297718 1_555
Bi3 O15 2.304361 1_555
Bi3 O24 2.305672 1_555
Bi3 O9 2.320553 1_555
Bi4 O25 2.284304 1_555
Bi4 O23 2.284304 1_554
Bi4 O29 2.310051 1_555
Bi4 O19 2.310051 1_554
Bi4 O13 2.322904 1_555
Bi4 O31 2.322904 1_554
Bi5 O26 2.077002 1_555
Bi5 O23 2.169350 1_555
Bi5 O2 2.183107 1_555
Bi5 O17 2.193243 1_555
Bi5 O22 2.193588 1_555
Bi5 O30 2.197744 1_555
Bi6 O7 2.080928 1_555
Bi6 O28 2.172807 1_564
Bi6 O19 2.181257 1_554
Bi6 O9 2.197026 1_555
Bi6 O27 2.201321 1_554
Bi6 O16 2.204825 1_555
Bi7 O33 2.282250 1_555
Bi7 O27 2.287255 1_555
Bi7 O17 2.292839 1_555
Bi7 O20 2.311261 1_465
Bi7 O11 2.313977 1_455
Bi7 O3 2.320192 1_456
Bi8 O14 2.080928 1_555
Bi8 O32 2.172807 1_546
Bi8 O29 2.181257 1_556
Bi8 O34 2.197026 1_555
Bi8 O10 2.201321 1_556
Bi8 O20 2.204825 1_555
Bi9 O28 2.293941 1_555
Bi9 O35 2.296852 1_545
Bi9 O21 2.297718 1_555
Bi9 O30 2.304361 1_555
Bi9 O8 2.305672 1_555
Bi9 O34 2.320553 1_555
Bi10 O0 2.079308 1_555
Bi10 O35 2.171941 1_555
Bi10 O24 2.183193 1_555
Bi10 O31 2.197450 1_555
Bi10 O11 2.202582 1_555
Bi10 O4 2.202833 1_565
