# generated using pymatgen
data_Dy11Y5O24
_symmetry_space_group_name_H-M   'P 1'
_cell_length_a   9.17848172
_cell_length_b   9.17852781
_cell_length_c   9.17706380
_cell_angle_alpha   109.45367319
_cell_angle_beta   109.47087161
_cell_angle_gamma   109.48592452
_symmetry_Int_Tables_number   1
_chemical_formula_structural   Dy11Y5O24
_chemical_formula_sum   'Dy11 Y5 O24'
_cell_volume   595.17245029
_cell_formula_units_Z   1
loop_
 _symmetry_equiv_pos_site_id
 _symmetry_equiv_pos_as_xyz
  1  'x, y, z'
loop_
 _atom_site_type_symbol
 _atom_site_label
 _atom_site_symmetry_multiplicity
 _atom_site_fract_x
 _atom_site_fract_y
 _atom_site_fract_z
 _atom_site_occupancy
  Dy  Dy0  1  0.74997035  0.03227180  0.78237676  1
  Dy  Dy1  1  0.49994213  0.99983864  -0.00000860  1
  Dy  Dy2  1  0.50015062  0.50015952  0.50010183  1
  Dy  Dy3  1  0.75003680  0.53254642  0.28251581  1
  Dy  Dy4  1  0.00004505  0.99994823  0.49992956  1
  Dy  Dy5  1  0.25005135  0.46766742  0.71763755  1
  Dy  Dy6  1  0.28236568  0.75000896  0.53236343  1
  Dy  Dy7  1  0.78246731  0.74999464  0.03252526  1
  Dy  Dy8  1  0.03241177  0.78242164  0.75001331  1
  Dy  Dy9  1  0.46765930  0.71764690  0.25006177  1
  Dy  Dy10  1  0.24996603  0.96750712  0.21749023  1
  Y  Y0  1  -0.00001310  0.50006294  0.00011063  1
  Y  Y1  1  0.53231069  0.28228986  0.74993969  1
  Y  Y2  1  0.96764878  0.21764168  0.25002006  1
  Y  Y3  1  0.71750648  0.24999292  0.46750571  1
  Y  Y4  1  0.21775813  0.25000266  0.96769163  1
  O  O0  1  0.96891650  0.23947750  0.51128122  1
  O  O1  1  0.77162654  0.26034119  0.72935749  1
  O  O2  1  0.98858117  0.72825201  0.95749403  1
  O  O3  1  0.48865715  0.03091673  0.76044343  1
  O  O4  1  0.77085197  0.53179522  0.54291315  1
  O  O5  1  0.27067000  0.22806538  0.73906735  1
  O  O6  1  0.72807962  0.95741422  0.98870527  1
  O  O7  1  0.53122373  0.54257269  0.77065941  1
  O  O8  1  0.73892626  0.27076630  0.22797089  1
  O  O9  1  0.45721116  0.22927860  0.46813711  1
  O  O10  1  0.95748778  0.98867935  0.72810853  1
  O  O11  1  0.23961578  0.51130498  0.96886164  1
  O  O12  1  0.04278594  0.01105518  0.27199005  1
  O  O13  1  0.76074407  0.48895989  0.03168064  1
  O  O14  1  0.54255785  0.77072114  0.53119580  1
  O  O15  1  0.26041266  0.72924032  0.77180547  1
  O  O16  1  0.46899238  0.45767198  0.22953641  1
  O  O17  1  0.27186991  0.04234316  0.01125568  1
  O  O18  1  0.22946692  0.46903558  0.45771059  1
  O  O19  1  0.72936540  0.77194923  0.26056978  1
  O  O20  1  0.01103465  0.27171893  0.04251907  1
  O  O21  1  0.51114094  0.96825002  0.23904902  1
  O  O22  1  0.03124094  0.76057439  0.48865921  1
  O  O23  1  0.22827132  0.73961765  0.27075612  1
loop_
_geom_bond_atom_site_label_1
_geom_bond_atom_site_label_2
_geom_bond_distance
_geom_bond_site_symmetry_2
Dy0 O14 2.245075 1_545
Dy0 O10 2.245899 1_545
Dy0 O1 2.263547 1_555
Dy0 O6 2.264035 1_545
Dy0 O20 2.334401 1_656
Dy0 O3 2.334494 1_555
Dy1 O21 2.280533 1_555
Dy1 O17 2.281946 1_565
Dy1 O8 2.282223 1_565
Dy1 O6 2.282258 1_554
Dy1 O3 2.282637 1_564
Dy1 O15 2.282736 1_554
Dy2 O4 2.281221 1_555
Dy2 O16 2.281746 1_555
Dy2 O9 2.281753 1_555
Dy2 O7 2.282064 1_555
Dy2 O14 2.282338 1_555
Dy2 O18 2.283342 1_555
Dy3 O13 2.243262 1_555
Dy3 O8 2.244008 1_555
Dy3 O16 2.263062 1_555
Dy3 O22 2.263771 1_655
Dy3 O19 2.335042 1_555
Dy3 O4 2.335514 1_555
Dy4 O12 2.280879 1_565
Dy4 O5 2.281570 1_565
Dy4 O22 2.282107 1_555
Dy4 O19 2.282147 1_455
Dy4 O10 2.282710 1_455
Dy4 O0 2.283059 1_465
Dy5 O15 2.245319 1_555
Dy5 O11 2.245586 1_555
Dy5 O7 2.264052 1_555
Dy5 O0 2.264104 1_455
Dy5 O18 2.333863 1_555
Dy5 O5 2.334926 1_555
Dy6 O23 2.245133 1_555
Dy6 O22 2.245388 1_555
Dy6 O3 2.262793 1_565
Dy6 O18 2.263175 1_555
Dy6 O15 2.335369 1_555
Dy6 O14 2.335622 1_555
Dy7 O6 2.246232 1_554
Dy7 O7 2.246465 1_554
Dy7 O2 2.263109 1_554
Dy7 O19 2.263295 1_555
Dy7 O13 2.334120 1_555
Dy7 O12 2.335027 1_665
Dy8 O4 2.242556 1_455
Dy8 O2 2.245508 1_455
Dy8 O15 2.263886 1_555
Dy8 O10 2.264332 1_455
Dy8 O17 2.334351 1_566
Dy8 O22 2.335374 1_555
Dy9 O21 2.242668 1_555
Dy9 O19 2.245543 1_555
Dy9 O14 2.263460 1_555
Dy9 O11 2.264152 1_554
Dy9 O16 2.334769 1_555
Dy9 O23 2.335119 1_555
Dy10 O12 2.243650 1_565
Dy10 O9 2.243852 1_565
Dy10 O17 2.263124 1_565
Dy10 O23 2.263148 1_555
Dy10 O2 2.334550 1_454
Dy10 O21 2.336177 1_555
O0 Y3 2.247656 1_555
O0 Y2 2.334226 1_555
O1 Y3 2.247453 1_555
O1 Y0 2.284307 1_656
O1 Y1 2.334007 1_555
O2 Y0 2.283679 1_656
O3 Y1 2.247289 1_555
O4 Y3 2.268418 1_555
O5 Y1 2.243768 1_555
O5 Y4 2.267499 1_555
O6 Y2 2.335890 1_566
O7 Y1 2.336285 1_555
O8 Y2 2.269653 1_555
O8 Y3 2.334414 1_555
O9 Y1 2.269274 1_555
O9 Y3 2.334732 1_555
O10 Y4 2.336041 1_665
O11 Y0 2.284549 1_556
O11 Y4 2.335155 1_555
O12 Y2 2.268491 1_455
O13 Y1 2.268294 1_554
O13 Y0 2.282702 1_655
O16 Y4 2.246685 1_554
O17 Y4 2.246357 1_554
O18 Y2 2.247147 1_455
O20 Y2 2.243733 1_455
O20 Y4 2.267420 1_554
O20 Y0 2.283238 1_555
O21 Y3 2.268053 1_565
O23 Y0 2.283236 1_555
