# generated using pymatgen
data_Li3Sb2(PO4)3
_symmetry_space_group_name_H-M   'P 1'
_cell_length_a   8.83753260
_cell_length_b   8.83753260
_cell_length_c   9.07987956
_cell_angle_alpha   63.49713761
_cell_angle_beta   63.49713761
_cell_angle_gamma   63.30265872
_symmetry_Int_Tables_number   1
_chemical_formula_structural   Li3Sb2(PO4)3
_chemical_formula_sum   'Li6 Sb4 P6 O24'
_cell_volume   539.52619409
_cell_formula_units_Z   2
loop_
 _symmetry_equiv_pos_site_id
 _symmetry_equiv_pos_as_xyz
  1  'x, y, z'
loop_
 _atom_site_type_symbol
 _atom_site_label
 _atom_site_symmetry_multiplicity
 _atom_site_fract_x
 _atom_site_fract_y
 _atom_site_fract_z
 _atom_site_occupancy
  Li  Li0  1  0.17969700  0.46177300  0.28567700  1
  Li  Li1  1  0.88256700  0.11743300  0.75000000  1
  Li  Li2  1  0.53822700  0.82030300  0.21432300  1
  Li  Li3  1  0.46177300  0.17969700  0.78567700  1
  Li  Li4  1  0.11743300  0.88256700  0.25000000  1
  Li  Li5  1  0.82030300  0.53822700  0.71432300  1
  Sb  Sb0  1  0.65768500  0.14562200  0.14436100  1
  Sb  Sb1  1  0.85437800  0.34231500  0.35563900  1
  Sb  Sb2  1  0.14562200  0.65768500  0.64436100  1
  Sb  Sb3  1  0.34231500  0.85437800  0.85563900  1
  P  P0  1  0.95227300  0.75389300  0.07327100  1
  P  P1  1  0.58331500  0.41668500  0.75000000  1
  P  P2  1  0.75389300  0.95227300  0.57327100  1
  P  P3  1  0.24610700  0.04772700  0.42672900  1
  P  P4  1  0.41668500  0.58331500  0.25000000  1
  P  P5  1  0.04772700  0.24610700  0.92672900  1
  O  O0  1  0.75536900  0.88151400  0.11680800  1
  O  O1  1  0.24472900  0.98800000  0.61368800  1
  O  O2  1  0.56090000  0.56415800  0.81097700  1
  O  O3  1  0.96165100  0.56327100  0.20684800  1
  O  O4  1  0.07524200  0.81617200  0.09774000  1
  O  O5  1  0.77201700  0.40056300  0.60358800  1
  O  O6  1  0.59943700  0.22798300  0.89641200  1
  O  O7  1  0.18382800  0.92475800  0.40226000  1
  O  O8  1  0.88151400  0.75536900  0.61680800  1
  O  O9  1  0.43672900  0.03834900  0.29315200  1
  O  O10  1  0.43584200  0.43910000  0.68902300  1
  O  O11  1  0.01200000  0.75527100  0.88631200  1
  O  O12  1  0.98800000  0.24472900  0.11368800  1
  O  O13  1  0.56415800  0.56090000  0.31097700  1
  O  O14  1  0.56327100  0.96165100  0.70684800  1
  O  O15  1  0.11848600  0.24463100  0.38319200  1
  O  O16  1  0.81617200  0.07524200  0.59774000  1
  O  O17  1  0.40056300  0.77201700  0.10358800  1
  O  O18  1  0.22798300  0.59943700  0.39641200  1
  O  O19  1  0.92475800  0.18382800  0.90226000  1
  O  O20  1  0.03834900  0.43672900  0.79315200  1
  O  O21  1  0.43910000  0.43584200  0.18902300  1
  O  O22  1  0.75527100  0.01200000  0.38631200  1
  O  O23  1  0.24463100  0.11848600  0.88319200  1
loop_
_geom_bond_atom_site_label_1
_geom_bond_atom_site_label_2
_geom_bond_distance
_geom_bond_site_symmetry_2
Li0 O15 1.935981 1_555
Li0 O21 1.997505 1_555
Li0 O3 2.033472 1_455
Li0 O18 2.148104 1_555
Li1 O19 1.943009 1_555
Li1 O16 1.943009 1_555
Li1 O6 2.230805 1_555
Li1 O5 2.230805 1_555
Li2 O0 1.935981 1_555
Li2 O13 1.997505 1_555
Li2 O9 2.033472 1_565
Li2 O17 2.148104 1_555
Li3 O23 1.935981 1_555
Li3 O10 1.997505 1_555
Li3 O14 2.033472 1_545
Li3 O6 2.148104 1_555
Li4 O7 1.943009 1_555
Li4 O4 1.943009 1_555
Li4 O18 2.230805 1_555
Li4 O17 2.230805 1_555
Li5 O8 1.935981 1_555
Li5 O2 1.997505 1_555
Li5 O20 2.033472 1_655
Li5 O5 2.148104 1_555
O0 P0 1.573810 1_555
O0 Sb0 2.184844 1_565
O1 P3 1.532355 1_565
O1 Sb3 2.329173 1_555
O2 P1 1.535743 1_555
O2 Sb3 2.500319 1_555
O3 P0 1.567351 1_555
O3 Sb1 2.168615 1_555
O4 P0 1.547703 1_455
O4 Sb3 2.437253 1_554
O5 P1 1.595499 1_555
O5 Sb1 2.257983 1_555
O6 P1 1.595499 1_555
O6 Sb0 2.257983 1_556
O7 P3 1.547703 1_565
O7 Sb2 2.437253 1_555
O8 P2 1.573810 1_555
O8 Sb2 2.184844 1_655
O9 P3 1.567351 1_555
O9 Sb0 2.168615 1_555
O10 P1 1.535743 1_555
O10 Sb2 2.500319 1_555
O11 P0 1.532355 1_456
O11 Sb2 2.329173 1_555
O12 P5 1.532355 1_654
O12 Sb1 2.329173 1_555
O13 P4 1.535743 1_555
O13 Sb1 2.500319 1_555
O14 P2 1.567351 1_555
O14 Sb3 2.168615 1_555
O15 P3 1.573810 1_555
O15 Sb1 2.184844 1_455
O16 P2 1.547703 1_545
O16 Sb1 2.437253 1_555
O17 P4 1.595499 1_555
O17 Sb3 2.257983 1_554
O18 P4 1.595499 1_555
O18 Sb2 2.257983 1_555
O19 P5 1.547703 1_655
O19 Sb0 2.437253 1_556
O20 P5 1.567351 1_555
O20 Sb2 2.168615 1_555
O21 P4 1.535743 1_555
O21 Sb0 2.500319 1_555
O22 P2 1.532355 1_545
O22 Sb0 2.329173 1_555
O23 P5 1.573810 1_555
O23 Sb3 2.184844 1_545
