# generated using pymatgen
data_LiTiP2O7
_symmetry_space_group_name_H-M   'P 1'
_cell_length_a   8.01056700
_cell_length_b   7.29385900
_cell_length_c   9.68414640
_cell_angle_alpha   69.44121122
_cell_angle_beta   90.00000000
_cell_angle_gamma   90.00000000
_symmetry_Int_Tables_number   1
_chemical_formula_structural   LiTiP2O7
_chemical_formula_sum   'Li4 Ti4 P8 O28'
_cell_volume   529.78874146
_cell_formula_units_Z   4
loop_
 _symmetry_equiv_pos_site_id
 _symmetry_equiv_pos_as_xyz
  1  'x, y, z'
loop_
 _atom_site_type_symbol
 _atom_site_label
 _atom_site_symmetry_multiplicity
 _atom_site_fract_x
 _atom_site_fract_y
 _atom_site_fract_z
 _atom_site_occupancy
  Li  Li0  1  0.97805400  0.70324500  0.78502100  1
  Li  Li1  1  0.52194600  0.70324500  0.28502100  1
  Li  Li2  1  0.47805400  0.29675500  0.71497900  1
  Li  Li3  1  0.02194600  0.29675500  0.21497900  1
  Ti  Ti0  1  0.50641400  0.73879000  0.74759100  1
  Ti  Ti1  1  0.99358600  0.73879000  0.24759100  1
  Ti  Ti2  1  0.00641400  0.26121000  0.75240900  1
  Ti  Ti3  1  0.49358600  0.26121000  0.25240900  1
  P  P0  1  0.75863000  0.91843700  0.95595000  1
  P  P1  1  0.74137000  0.91843700  0.45595000  1
  P  P2  1  0.21188000  0.66952600  0.54844600  1
  P  P3  1  0.71188000  0.33047400  0.95155400  1
  P  P4  1  0.28812000  0.66952600  0.04844600  1
  P  P5  1  0.78812000  0.33047400  0.45155400  1
  P  P6  1  0.25863000  0.08156300  0.54405000  1
  P  P7  1  0.24137000  0.08156300  0.04405000  1
  O  O0  1  0.91967100  0.96766100  0.86334300  1
  O  O1  1  0.63290400  0.80814700  0.89867400  1
  O  O2  1  0.58032900  0.96766100  0.36334300  1
  O  O3  1  0.16478400  0.87715900  0.56499800  1
  O  O4  1  0.29997700  0.68858000  0.88636000  1
  O  O5  1  0.71439300  0.81344700  0.62204900  1
  O  O6  1  0.86709600  0.80814700  0.39867400  1
  O  O7  1  0.39105900  0.61471900  0.60576600  1
  O  O8  1  0.33521600  0.87715900  0.06499800  1
  O  O9  1  0.57925400  0.45617300  0.84612900  1
  O  O10  1  0.20002300  0.68858000  0.38636000  1
  O  O11  1  0.78560700  0.81344700  0.12204900  1
  O  O12  1  0.07925400  0.54382700  0.65387100  1
  O  O13  1  0.89105900  0.38528100  0.89423400  1
  O  O14  1  0.10894100  0.61471900  0.10576600  1
  O  O15  1  0.92074600  0.45617300  0.34612900  1
  O  O16  1  0.21439300  0.18655300  0.87795100  1
  O  O17  1  0.79997700  0.31142000  0.61364000  1
  O  O18  1  0.42074600  0.54382700  0.15387100  1
  O  O19  1  0.66478400  0.12284100  0.93500200  1
  O  O20  1  0.60894100  0.38528100  0.39423400  1
  O  O21  1  0.13290400  0.19185300  0.60132600  1
  O  O22  1  0.28560700  0.18655300  0.37795100  1
  O  O23  1  0.70002300  0.31142000  0.11364000  1
  O  O24  1  0.83521600  0.12284100  0.43500200  1
  O  O25  1  0.41967100  0.03233900  0.63665700  1
  O  O26  1  0.36709600  0.19185300  0.10132600  1
  O  O27  1  0.08032900  0.03233900  0.13665700  1
loop_
_geom_bond_atom_site_label_1
_geom_bond_atom_site_label_2
_geom_bond_distance
_geom_bond_site_symmetry_2
Li0 O12 2.158595 1_655
Li0 O13 2.293496 1_555
Li0 O0 2.353924 1_555
Li0 O3 2.547211 1_655
Li0 O5 2.589754 1_555
Li1 O18 2.158595 1_555
Li1 O20 2.293496 1_555
Li1 O2 2.353924 1_555
Li1 O8 2.547211 1_555
Li1 O11 2.589754 1_555
Li2 O9 2.158595 1_555
Li2 O7 2.293496 1_555
Li2 O25 2.353924 1_555
Li2 O19 2.547211 1_555
Li2 O16 2.589754 1_555
Li3 O15 2.158595 1_455
Li3 O14 2.293496 1_555
Li3 O27 2.353924 1_555
Li3 O24 2.547211 1_455
Li3 O22 2.589754 1_555
O0 P0 1.539878 1_555
O0 Ti2 2.146107 1_665
O1 P0 1.510790 1_555
O1 Ti0 1.985733 1_555
O2 P1 1.539878 1_555
O2 Ti3 2.146107 1_565
O3 P6 1.617603 1_565
O3 P2 1.622364 1_555
O4 P4 1.529369 1_556
O4 Ti0 2.080642 1_555
O5 P1 1.534717 1_555
O5 Ti0 2.021212 1_555
O6 P1 1.510790 1_555
O6 Ti1 1.985733 1_555
O7 P2 1.540209 1_555
O7 Ti0 2.105268 1_555
O8 P7 1.617603 1_565
O8 P4 1.622364 1_555
O9 P3 1.534346 1_555
O9 Ti0 2.029472 1_555
O10 P2 1.529369 1_555
O10 Ti1 2.080642 1_455
O11 P0 1.534717 1_554
O11 Ti1 2.021212 1_555
O12 P2 1.534346 1_555
O12 Ti2 2.029472 1_555
O13 P3 1.540209 1_555
O13 Ti2 2.105268 1_655
O14 P4 1.540209 1_555
O14 Ti1 2.105268 1_455
O15 P5 1.534346 1_555
O15 Ti1 2.029472 1_555
O16 P7 1.534717 1_556
O16 Ti2 2.021212 1_555
O17 P5 1.529369 1_555
O17 Ti2 2.080642 1_655
O18 P4 1.534346 1_555
O18 Ti3 2.029472 1_555
O19 P0 1.617603 1_545
O19 P3 1.622364 1_555
O20 P5 1.540209 1_555
O20 Ti3 2.105268 1_555
O21 P6 1.510790 1_555
O21 Ti2 1.985733 1_555
O22 P6 1.534717 1_555
O22 Ti3 2.021212 1_555
O23 P3 1.529369 1_554
O23 Ti3 2.080642 1_555
O24 P1 1.617603 1_545
O24 P5 1.622364 1_555
O25 P6 1.539878 1_555
O25 Ti0 2.146107 1_545
O26 P7 1.510790 1_555
O26 Ti3 1.985733 1_555
O27 P7 1.539878 1_555
O27 Ti1 2.146107 1_445
