# generated using pymatgen
data_ZnCr3(SO4)6
_symmetry_space_group_name_H-M   'P 1'
_cell_length_a   8.88010251
_cell_length_b   8.88010251
_cell_length_c   8.88010361
_cell_angle_alpha   55.85042966
_cell_angle_beta   55.85042966
_cell_angle_gamma   55.85042897
_symmetry_Int_Tables_number   1
_chemical_formula_structural   ZnCr3(SO4)6
_chemical_formula_sum   'Zn1 Cr3 S6 O24'
_cell_volume   447.51990100
_cell_formula_units_Z   1
loop_
 _symmetry_equiv_pos_site_id
 _symmetry_equiv_pos_as_xyz
  1  'x, y, z'
loop_
 _atom_site_type_symbol
 _atom_site_label
 _atom_site_symmetry_multiplicity
 _atom_site_fract_x
 _atom_site_fract_y
 _atom_site_fract_z
 _atom_site_occupancy
  Zn  Zn0  1  0.85125400  0.85125400  0.85125400  1
  Cr  Cr0  1  0.64469900  0.64469900  0.64469900  1
  Cr  Cr1  1  0.35551000  0.35551000  0.35551000  1
  Cr  Cr2  1  0.15053000  0.15053000  0.15053000  1
  S  S0  1  0.25418000  0.53416000  0.96114100  1
  S  S1  1  0.04305000  0.74622700  0.46138900  1
  S  S2  1  0.46138900  0.04305000  0.74622700  1
  S  S3  1  0.53416000  0.96114100  0.25418000  1
  S  S4  1  0.96114100  0.25418000  0.53416000  1
  S  S5  1  0.74622700  0.46138900  0.04305000  1
  O  O0  1  0.48424400  0.89152900  0.70202900  1
  O  O1  1  0.70202900  0.48424400  0.89152900  1
  O  O2  1  0.05131300  0.66718600  0.99160100  1
  O  O3  1  0.28608500  0.34246300  0.97633200  1
  O  O4  1  0.03215600  0.71153500  0.64915300  1
  O  O5  1  0.32474300  0.01834300  0.95133700  1
  O  O6  1  0.89152900  0.70202900  0.48424400  1
  O  O7  1  0.38625700  0.61721900  0.76432300  1
  O  O8  1  0.01834300  0.95133700  0.32474300  1
  O  O9  1  0.37029700  0.23955100  0.61724000  1
  O  O10  1  0.23955100  0.61724000  0.37029700  1
  O  O11  1  0.64915300  0.03215600  0.71153500  1
  O  O12  1  0.34246300  0.97633200  0.28608500  1
  O  O13  1  0.76432300  0.38625700  0.61721900  1
  O  O14  1  0.61721900  0.76432300  0.38625700  1
  O  O15  1  0.99160100  0.05131300  0.66718600  1
  O  O16  1  0.61724000  0.37029700  0.23955100  1
  O  O17  1  0.10735100  0.31028600  0.50528200  1
  O  O18  1  0.66718600  0.99160100  0.05131300  1
  O  O19  1  0.97633200  0.28608500  0.34246300  1
  O  O20  1  0.71153500  0.64915300  0.03215600  1
  O  O21  1  0.95133700  0.32474300  0.01834300  1
  O  O22  1  0.31028600  0.50528200  0.10735100  1
  O  O23  1  0.50528200  0.10735100  0.31028600  1
loop_
_geom_bond_atom_site_label_1
_geom_bond_atom_site_label_2
_geom_bond_distance
_geom_bond_site_symmetry_2
Cr0 O6 2.006432 1_555
Cr0 O0 2.006432 1_555
Cr0 O1 2.006433 1_555
Cr0 O7 2.013857 1_555
Cr0 O13 2.013857 1_555
Cr0 O14 2.013858 1_555
Cr1 O17 1.972245 1_555
Cr1 O23 1.972245 1_555
Cr1 O22 1.972245 1_555
Cr1 O16 1.995823 1_555
Cr1 O10 1.995823 1_555
Cr1 O9 1.995823 1_555
Cr2 O3 1.999904 1_554
Cr2 O12 1.999904 1_545
Cr2 O19 1.999904 1_455
Cr2 O8 2.029805 1_545
Cr2 O21 2.029805 1_455
Cr2 O5 2.029805 1_554
O0 S2 1.484095 1_565
O1 S5 1.484095 1_556
O2 S0 1.461640 1_555
O2 Zn0 2.078369 1_455
O3 S0 1.496622 1_555
O4 S1 1.469707 1_555
O4 Zn0 2.089567 1_455
O5 S2 1.485576 1_555
O6 S1 1.484095 1_655
O7 S0 1.482160 1_555
O8 S1 1.485576 1_555
O9 S2 1.490881 1_555
O10 S1 1.490881 1_555
O11 S2 1.469707 1_555
O11 Zn0 2.089567 1_545
O12 S3 1.496622 1_555
O13 S4 1.482160 1_555
O14 S3 1.482160 1_555
O15 S4 1.461640 1_555
O15 Zn0 2.078369 1_545
O16 S5 1.490881 1_555
O17 S4 1.486182 1_455
O18 S3 1.461640 1_555
O18 Zn0 2.078369 1_554
O19 S4 1.496622 1_555
O20 S5 1.469707 1_555
O20 Zn0 2.089567 1_554
O21 S5 1.485576 1_555
O22 S0 1.486182 1_554
O23 S3 1.486182 1_545
