# generated using pymatgen
data_LiSn2(PO4)3
_symmetry_space_group_name_H-M   'P 1'
_cell_length_a   8.76623200
_cell_length_b   8.87448000
_cell_length_c   12.22419500
_cell_angle_alpha   90.00000000
_cell_angle_beta   90.00000000
_cell_angle_gamma   90.00000000
_symmetry_Int_Tables_number   1
_chemical_formula_structural   LiSn2(PO4)3
_chemical_formula_sum   'Li4 Sn8 P12 O48'
_cell_volume   950.99042501
_cell_formula_units_Z   4
loop_
 _symmetry_equiv_pos_site_id
 _symmetry_equiv_pos_as_xyz
  1  'x, y, z'
loop_
 _atom_site_type_symbol
 _atom_site_label
 _atom_site_symmetry_multiplicity
 _atom_site_fract_x
 _atom_site_fract_y
 _atom_site_fract_z
 _atom_site_occupancy
  Li  Li0  1  0.53387600  0.27132800  0.82267100  1
  Li  Li1  1  0.46612400  0.72867200  0.32267100  1
  Li  Li2  1  0.03387600  0.22867200  0.32267100  1
  Li  Li3  1  0.96612400  0.77132800  0.82267100  1
  Sn  Sn0  1  0.50219900  0.53501500  0.11766900  1
  Sn  Sn1  1  0.49558800  0.94792400  0.87957300  1
  Sn  Sn2  1  0.50441200  0.05207600  0.37957300  1
  Sn  Sn3  1  0.49780100  0.46498500  0.61766900  1
  Sn  Sn4  1  0.99558800  0.55207600  0.37957300  1
  Sn  Sn5  1  0.00219900  0.96498500  0.61766900  1
  Sn  Sn6  1  0.00441200  0.44792400  0.87957300  1
  Sn  Sn7  1  0.99780100  0.03501500  0.11766900  1
  P  P0  1  0.70601200  0.75403100  0.50109700  1
  P  P1  1  0.64203900  0.89694600  0.14720300  1
  P  P2  1  0.64904700  0.60315500  0.85293600  1
  P  P3  1  0.35095300  0.39684500  0.35293600  1
  P  P4  1  0.35796100  0.10305400  0.64720300  1
  P  P5  1  0.29398800  0.24596900  0.00109700  1
  P  P6  1  0.20601200  0.74596900  0.00109700  1
  P  P7  1  0.14904700  0.89684500  0.35293600  1
  P  P8  1  0.14203900  0.60305400  0.64720300  1
  P  P9  1  0.85095300  0.10315500  0.85293600  1
  P  P10  1  0.85796100  0.39694600  0.14720300  1
  P  P11  1  0.79398800  0.25403100  0.50109700  1
  O  O0  1  0.70071600  0.15574100  0.42096000  1
  O  O1  1  0.69626400  0.35542500  0.57403000  1
  O  O2  1  0.68321700  0.40105700  0.16271100  1
  O  O3  1  0.67480500  0.09738400  0.83950700  1
  O  O4  1  0.60054300  0.92225300  0.02712000  1
  O  O5  1  0.60359500  0.56735100  0.97037400  1
  O  O6  1  0.58259000  0.73803700  0.18492900  1
  O  O7  1  0.60033300  0.76155900  0.81670800  1
  O  O8  1  0.56541100  0.01785100  0.21944600  1
  O  O9  1  0.57490000  0.47904500  0.77956600  1
  O  O10  1  0.60559600  0.65783100  0.57609500  1
  O  O11  1  0.59748100  0.84487900  0.42413600  1
  O  O12  1  0.39440400  0.34216900  0.07609500  1
  O  O13  1  0.40251900  0.15512100  0.92413600  1
  O  O14  1  0.43458900  0.98214900  0.71944600  1
  O  O15  1  0.42510000  0.52095500  0.27956600  1
  O  O16  1  0.41741000  0.26196300  0.68492900  1
  O  O17  1  0.39966700  0.23844100  0.31670800  1
  O  O18  1  0.39640500  0.43264900  0.47037400  1
  O  O19  1  0.39945700  0.07774700  0.52712000  1
  O  O20  1  0.32519500  0.90261600  0.33950700  1
  O  O21  1  0.31678300  0.59894300  0.66271100  1
  O  O22  1  0.30373600  0.64457500  0.07403000  1
  O  O23  1  0.29928400  0.84425900  0.92096000  1
  O  O24  1  0.20071600  0.34425900  0.92096000  1
  O  O25  1  0.19626400  0.14457500  0.07403000  1
  O  O26  1  0.17480500  0.40261600  0.33950700  1
  O  O27  1  0.18321700  0.09894300  0.66271100  1
  O  O28  1  0.10359500  0.93264900  0.47037400  1
  O  O29  1  0.10054300  0.57774700  0.52712000  1
  O  O30  1  0.10033300  0.73844100  0.31670800  1
  O  O31  1  0.08259000  0.76196300  0.68492900  1
  O  O32  1  0.06541100  0.48214900  0.71944600  1
  O  O33  1  0.07490000  0.02095500  0.27956600  1
  O  O34  1  0.10559600  0.84216900  0.07609500  1
  O  O35  1  0.09748100  0.65512100  0.92413600  1
  O  O36  1  0.90251900  0.34487900  0.42413600  1
  O  O37  1  0.89440400  0.15783100  0.57609500  1
  O  O38  1  0.93458900  0.51785100  0.21944600  1
  O  O39  1  0.92510000  0.97904500  0.77956600  1
  O  O40  1  0.91741000  0.23803700  0.18492900  1
  O  O41  1  0.89966700  0.26155900  0.81670800  1
  O  O42  1  0.89945700  0.42225300  0.02712000  1
  O  O43  1  0.89640500  0.06735100  0.97037400  1
  O  O44  1  0.81678300  0.90105700  0.16271100  1
  O  O45  1  0.82519500  0.59738400  0.83950700  1
  O  O46  1  0.79928400  0.65574100  0.42096000  1
  O  O47  1  0.80373600  0.85542500  0.57403000  1
loop_
_geom_bond_atom_site_label_1
_geom_bond_atom_site_label_2
_geom_bond_distance
_geom_bond_site_symmetry_2
Li0 O9 1.950649 1_555
Li0 O16 1.970892 1_555
Li0 O13 1.981896 1_555
Li0 O3 1.987839 1_555
Li1 O15 1.950649 1_555
Li1 O6 1.970892 1_555
Li1 O11 1.981896 1_555
Li1 O20 1.987839 1_555
Li2 O33 1.950649 1_555
Li2 O40 1.970892 1_455
Li2 O36 1.981896 1_455
Li2 O26 1.987839 1_555
Li3 O39 1.950649 1_555
Li3 O31 1.970892 1_655
Li3 O35 1.981896 1_655
Li3 O45 1.987839 1_555
O0 P11 1.545651 1_555
O0 Sn2 2.015842 1_555
O1 P11 1.529188 1_555
O1 Sn3 2.063183 1_555
O2 P10 1.543963 1_555
O2 Sn0 2.057791 1_555
O3 P9 1.553700 1_555
O3 Sn1 2.113619 1_545
O4 P1 1.528904 1_555
O4 Sn1 2.037533 1_554
O5 P2 1.523358 1_555
O5 Sn0 2.028410 1_556
O6 P1 1.572587 1_555
O6 Sn0 2.102101 1_555
O7 P2 1.534479 1_555
O7 Sn1 2.041822 1_555
O8 P1 1.543497 1_545
O8 Sn2 2.051754 1_555
O9 P2 1.562051 1_555
O9 Sn3 2.095005 1_555
O10 P0 1.531086 1_555
O10 Sn3 2.019934 1_555
O11 P0 1.562133 1_555
O11 Sn2 2.084093 1_565
O12 P5 1.531086 1_555
O12 Sn0 2.019934 1_555
O13 P5 1.562133 1_556
O13 Sn1 2.084093 1_545
O14 P4 1.543497 1_565
O14 Sn1 2.051754 1_555
O15 P3 1.562051 1_555
O15 Sn0 2.095005 1_555
O16 P4 1.572587 1_555
O16 Sn3 2.102101 1_555
O17 P3 1.534479 1_555
O17 Sn2 2.041822 1_555
O18 P3 1.523358 1_555
O18 Sn3 2.028410 1_555
O19 P4 1.528904 1_555
O19 Sn2 2.037533 1_555
O20 P7 1.553700 1_555
O20 Sn2 2.113619 1_565
O21 P8 1.543963 1_555
O21 Sn3 2.057791 1_555
O22 P6 1.529188 1_555
O22 Sn0 2.063183 1_555
O23 P6 1.545651 1_556
O23 Sn1 2.015842 1_555
O24 P5 1.545651 1_556
O24 Sn6 2.015842 1_555
O25 P5 1.529188 1_555
O25 Sn7 2.063183 1_455
O26 P3 1.553700 1_555
O26 Sn4 2.113619 1_455
O27 P4 1.543963 1_555
O27 Sn5 2.057791 1_545
O28 P7 1.523358 1_555
O28 Sn5 2.028410 1_555
O29 P8 1.528904 1_555
O29 Sn4 2.037533 1_455
O30 P7 1.534479 1_555
O30 Sn4 2.041822 1_455
O31 P8 1.572587 1_555
O31 Sn5 2.102101 1_555
O32 P8 1.543497 1_555
O32 Sn6 2.051754 1_555
O33 P7 1.562051 1_545
O33 Sn7 2.095005 1_455
O34 P6 1.531086 1_555
O34 Sn7 2.019934 1_465
O35 P6 1.562133 1_556
O35 Sn6 2.084093 1_555
O36 P11 1.562133 1_555
O36 Sn4 2.084093 1_555
O37 P11 1.531086 1_555
O37 Sn5 2.019934 1_645
O38 P10 1.543497 1_555
O38 Sn4 2.051754 1_555
O39 P9 1.562051 1_565
O39 Sn5 2.095005 1_655
O40 P10 1.572587 1_555
O40 Sn7 2.102101 1_555
O41 P9 1.534479 1_555
O41 Sn6 2.041822 1_655
O42 P10 1.528904 1_555
O42 Sn6 2.037533 1_654
O43 P9 1.523358 1_555
O43 Sn7 2.028410 1_556
O44 P1 1.543963 1_555
O44 Sn7 2.057791 1_565
O45 P2 1.553700 1_555
O45 Sn6 2.113619 1_655
O46 P0 1.545651 1_555
O46 Sn4 2.015842 1_555
O47 P0 1.529188 1_555
O47 Sn5 2.063183 1_655
