# generated using pymatgen
data_Mn3Cu2Ni(PO4)6
_symmetry_space_group_name_H-M   'P 1'
_cell_length_a   8.50962203
_cell_length_b   8.50962203
_cell_length_c   8.50962166
_cell_angle_alpha   60.15069772
_cell_angle_beta   60.15069772
_cell_angle_gamma   60.15069892
_symmetry_Int_Tables_number   1
_chemical_formula_structural   Mn3Cu2Ni(PO4)6
_chemical_formula_sum   'Mn3 Cu2 Ni1 P6 O24'
_cell_volume   437.21566152
_cell_formula_units_Z   1
loop_
 _symmetry_equiv_pos_site_id
 _symmetry_equiv_pos_as_xyz
  1  'x, y, z'
loop_
 _atom_site_type_symbol
 _atom_site_label
 _atom_site_symmetry_multiplicity
 _atom_site_fract_x
 _atom_site_fract_y
 _atom_site_fract_z
 _atom_site_occupancy
  Mn  Mn0  1  0.85806600  0.85806600  0.85806600  1
  Mn  Mn1  1  0.64215900  0.64215900  0.64215900  1
  Mn  Mn2  1  0.35780800  0.35780800  0.35780800  1
  Cu  Cu0  1  0.00233200  0.00233200  0.00233200  1
  Cu  Cu1  1  0.50081500  0.50081500  0.50081500  1
  Ni  Ni0  1  0.14193000  0.14193000  0.14193000  1
  P  P0  1  0.96005400  0.24892600  0.54126200  1
  P  P1  1  0.54126200  0.96005400  0.24892600  1
  P  P2  1  0.24892600  0.54126200  0.96005400  1
  P  P3  1  0.74936600  0.45938300  0.03754800  1
  P  P4  1  0.45938300  0.03754800  0.74936600  1
  P  P5  1  0.03754800  0.74936600  0.45938300  1
  O  O0  1  0.87628700  0.68888600  0.49738700  1
  O  O1  1  0.68888600  0.49738700  0.87628700  1
  O  O2  1  0.94517800  0.08306400  0.74245000  1
  O  O3  1  0.49738700  0.87628700  0.68888600  1
  O  O4  1  0.98438000  0.19295900  0.38736900  1
  O  O5  1  0.76033700  0.41821900  0.56206200  1
  O  O6  1  0.74245000  0.94517800  0.08306400  1
  O  O7  1  0.56206200  0.76033700  0.41821900  1
  O  O8  1  0.80468000  0.62120600  0.00804300  1
  O  O9  1  0.41821900  0.56206200  0.76033700  1
  O  O10  1  0.90996500  0.26285600  0.05377200  1
  O  O11  1  0.62120600  0.00804300  0.80468000  1
  O  O12  1  0.38736900  0.98438000  0.19295900  1
  O  O13  1  0.08306400  0.74245000  0.94517800  1
  O  O14  1  0.57855100  0.45035900  0.23541600  1
  O  O15  1  0.19295900  0.38736900  0.98438000  1
  O  O16  1  0.45035900  0.23541600  0.57855100  1
  O  O17  1  0.26285600  0.05377200  0.90996500  1
  O  O18  1  0.23541600  0.57855100  0.45035900  1
  O  O19  1  0.00804300  0.80468000  0.62120600  1
  O  O20  1  0.51065200  0.12210000  0.30417200  1
  O  O21  1  0.05377200  0.90996500  0.26285600  1
  O  O22  1  0.30417200  0.51065200  0.12210000  1
  O  O23  1  0.12210000  0.30417200  0.51065200  1
loop_
_geom_bond_atom_site_label_1
_geom_bond_atom_site_label_2
_geom_bond_distance
_geom_bond_site_symmetry_2
Mn0 O19 1.916109 1_655
Mn0 O8 1.916109 1_556
Mn0 O11 1.916109 1_565
Mn0 O6 1.998764 1_556
Mn0 O2 1.998764 1_565
Mn0 O13 1.998764 1_655
Mn1 O1 1.871612 1_555
Mn1 O0 1.871612 1_555
Mn1 O3 1.871612 1_555
Mn1 O7 1.952011 1_555
Mn1 O9 1.952011 1_555
Mn1 O5 1.952011 1_555
Mn2 O22 1.909615 1_555
Mn2 O23 1.909615 1_555
Mn2 O20 1.909615 1_555
Mn2 O16 1.985496 1_555
Mn2 O14 1.985496 1_555
Mn2 O18 1.985496 1_555
Cu0 O21 2.147848 1_545
Cu0 O17 2.147848 1_554
Cu0 O10 2.147848 1_455
Cu0 O2 2.196574 1_454
Cu0 O6 2.196574 1_445
Cu0 O13 2.196574 1_544
Cu1 O9 2.208800 1_555
Cu1 O7 2.208800 1_555
Cu1 O5 2.208800 1_555
Cu1 O14 2.217632 1_555
Cu1 O16 2.217632 1_555
Cu1 O18 2.217632 1_555
Ni0 O4 1.970820 1_455
Ni0 O15 1.970820 1_554
Ni0 O12 1.970820 1_545
Ni0 O17 2.049818 1_554
Ni0 O21 2.049818 1_545
Ni0 O10 2.049818 1_455
O0 P5 1.532375 1_655
O1 P3 1.532375 1_556
O2 P0 1.579852 1_555
O3 P4 1.532375 1_565
O4 P0 1.495831 1_555
O5 P0 1.585011 1_555
O6 P1 1.579852 1_555
O7 P1 1.585011 1_555
O8 P3 1.537623 1_555
O9 P2 1.585011 1_555
O10 P3 1.538330 1_555
O11 P4 1.537623 1_555
O12 P1 1.495831 1_555
O13 P2 1.579852 1_555
O14 P3 1.581123 1_555
O15 P2 1.495831 1_555
O16 P4 1.581123 1_555
O17 P4 1.538330 1_555
O18 P5 1.581123 1_555
O19 P5 1.537623 1_555
O20 P1 1.535005 1_545
O21 P5 1.538330 1_555
O22 P2 1.535004 1_554
O23 P0 1.535005 1_455
