# generated using pymatgen
data_LiV2OF5
_symmetry_space_group_name_H-M   'P 1'
_cell_length_a   8.73840636
_cell_length_b   8.73840636
_cell_length_c   4.57571300
_cell_angle_alpha   90.00000000
_cell_angle_beta   90.00000000
_cell_angle_gamma   120.00000272
_symmetry_Int_Tables_number   1
_chemical_formula_structural   LiV2OF5
_chemical_formula_sum   'Li3 V6 O3 F15'
_cell_volume   302.58951123
_cell_formula_units_Z   3
loop_
 _symmetry_equiv_pos_site_id
 _symmetry_equiv_pos_as_xyz
  1  'x, y, z'
loop_
 _atom_site_type_symbol
 _atom_site_label
 _atom_site_symmetry_multiplicity
 _atom_site_fract_x
 _atom_site_fract_y
 _atom_site_fract_z
 _atom_site_occupancy
  Li  Li0  1  0.33333300  0.66666700  0.49806100  1
  Li  Li1  1  0.00000000  0.00000000  0.97112300  1
  Li  Li2  1  0.66666700  0.33333300  0.48008000  1
  V  V0  1  0.00666300  0.66489200  0.98818700  1
  V  V1  1  0.00738400  0.31358900  0.51784700  1
  V  V2  1  0.33510800  0.34177100  0.98818700  1
  V  V3  1  0.30620500  0.99261600  0.51784700  1
  V  V4  1  0.68641100  0.69379500  0.51784700  1
  V  V5  1  0.65822900  0.99333700  0.98818700  1
  O  O0  1  0.11221100  0.87108400  0.76445700  1
  O  O1  1  0.12891600  0.24112700  0.76445700  1
  O  O2  1  0.75887300  0.88778900  0.76445700  1
  F  F0  1  0.21457500  0.76937200  0.26458900  1
  F  F1  1  0.10844000  0.54327600  0.73828600  1
  F  F2  1  0.43483500  0.89156000  0.73828600  1
  F  F3  1  0.23062800  0.44520300  0.26458900  1
  F  F4  1  0.55479700  0.78542500  0.26458900  1
  F  F5  1  0.22724200  0.11462800  0.23989800  1
  F  F6  1  0.45672400  0.56516500  0.73828600  1
  F  F7  1  0.44319100  0.22702600  0.74079600  1
  F  F8  1  0.55698100  0.45980400  0.26282800  1
  F  F9  1  0.54019600  0.09717700  0.26282800  1
  F  F10  1  0.78383500  0.55680900  0.74079600  1
  F  F11  1  0.88738600  0.77275800  0.23989800  1
  F  F12  1  0.77297400  0.21616500  0.74079600  1
  F  F13  1  0.90282300  0.44301900  0.26282800  1
  F  F14  1  0.88537200  0.11261400  0.23989800  1
loop_
_geom_bond_atom_site_label_1
_geom_bond_atom_site_label_2
_geom_bond_distance
_geom_bond_site_symmetry_2
Li1 O1 2.056542 1_555
Li1 O2 2.056542 1_445
Li1 O0 2.056542 1_545
O0 V3 1.864018 1_555
O0 V0 1.866361 1_555
O1 V1 1.864018 1_555
O1 V2 1.866361 1_555
O2 V4 1.864018 1_555
O2 V5 1.866361 1_555
F0 Li0 1.988727 1_555
F0 V0 2.018713 1_554
F0 V3 2.056119 1_555
F1 V1 2.013270 1_555
F1 Li0 2.028279 1_555
F1 V0 2.042809 1_555
F2 V3 2.013263 1_555
F2 Li0 2.028279 1_555
F2 V5 2.042815 1_555
F3 Li0 1.988733 1_555
F3 V2 2.018713 1_554
F3 V1 2.056119 1_555
F4 Li0 1.988733 1_555
F4 V5 2.018713 1_554
F4 V4 2.056119 1_555
F5 V3 1.991500 1_545
F5 V2 2.069736 1_554
F5 Li1 2.114221 1_554
F6 V4 2.013269 1_555
F6 Li0 2.028279 1_555
F6 V2 2.042815 1_555
F7 V2 2.031213 1_555
F7 V3 2.053643 1_545
F7 Li2 2.070157 1_555
F8 Li2 2.046344 1_555
F8 V2 2.098176 1_554
F8 V4 2.123458 1_555
F9 Li2 2.046337 1_555
F9 V5 2.098176 1_544
F9 V3 2.123458 1_545
F10 V0 2.031213 1_655
F10 V4 2.053643 1_555
F10 Li2 2.070157 1_555
F11 V4 1.991500 1_555
F11 V0 2.069736 1_654
F11 Li1 2.114221 1_664
F12 V5 2.031213 1_545
F12 V1 2.053643 1_655
F12 Li2 2.070151 1_555
F13 Li2 2.046337 1_555
F13 V0 2.098176 1_654
F13 V1 2.123458 1_655
F14 V1 1.991500 1_655
F14 V5 2.069736 1_544
F14 Li1 2.114221 1_654
