# generated using pymatgen
data_Li3V5O10
_symmetry_space_group_name_H-M   'P 1'
_cell_length_a   7.94438175
_cell_length_b   7.94438175
_cell_length_c   10.05100582
_cell_angle_alpha   86.60288690
_cell_angle_beta   86.60288690
_cell_angle_gamma   142.62614555
_symmetry_Int_Tables_number   1
_chemical_formula_structural   Li3V5O10
_chemical_formula_sum   'Li6 V10 O20'
_cell_volume   378.41679119
_cell_formula_units_Z   2
loop_
 _symmetry_equiv_pos_site_id
 _symmetry_equiv_pos_as_xyz
  1  'x, y, z'
loop_
 _atom_site_type_symbol
 _atom_site_label
 _atom_site_symmetry_multiplicity
 _atom_site_fract_x
 _atom_site_fract_y
 _atom_site_fract_z
 _atom_site_occupancy
  Li  Li0  1  0.35299300  0.64700700  0.75000000  1
  Li  Li1  1  0.44865800  0.55134200  0.25000000  1
  Li  Li2  1  0.84887100  0.15112900  0.25000000  1
  Li  Li3  1  0.15112900  0.84887100  0.75000000  1
  Li  Li4  1  0.55134200  0.44865800  0.75000000  1
  Li  Li5  1  0.64700700  0.35299300  0.25000000  1
  V  V0  1  0.09680000  0.39853200  0.50742200  1
  V  V1  1  0.19010000  0.28488000  0.00184900  1
  V  V2  1  0.28488000  0.19010000  0.50184900  1
  V  V3  1  0.71512000  0.80990000  0.49815100  1
  V  V4  1  0.60146800  0.90320000  0.99257800  1
  V  V5  1  0.39853200  0.09680000  0.00742200  1
  V  V6  1  0.90320000  0.60146800  0.49257800  1
  V  V7  1  0.80990000  0.71512000  0.99815100  1
  V  V8  1  0.00000000  0.50000000  0.00000000  1
  V  V9  1  0.50000000  0.00000000  0.50000000  1
  O  O0  1  0.48101500  0.77580100  0.39409300  1
  O  O1  1  0.22419900  0.51898500  0.10590700  1
  O  O2  1  0.44196900  0.34473000  0.10860700  1
  O  O3  1  0.98267500  0.28014700  0.89560700  1
  O  O4  1  0.34473000  0.44196900  0.60860700  1
  O  O5  1  0.07233300  0.18225600  0.38954700  1
  O  O6  1  0.81774400  0.92766700  0.11045300  1
  O  O7  1  0.28014700  0.98267500  0.39560700  1
  O  O8  1  0.71985300  0.01732500  0.60439300  1
  O  O9  1  0.18225600  0.07233300  0.88954700  1
  O  O10  1  0.92766700  0.81774400  0.61045300  1
  O  O11  1  0.01732500  0.71985300  0.10439300  1
  O  O12  1  0.55803100  0.65527000  0.89139300  1
  O  O13  1  0.65527000  0.55803100  0.39139300  1
  O  O14  1  0.34816100  0.84871500  0.89171000  1
  O  O15  1  0.15128500  0.65183900  0.60829000  1
  O  O16  1  0.77580100  0.48101500  0.89409300  1
  O  O17  1  0.84871500  0.34816100  0.39171000  1
  O  O18  1  0.51898500  0.22419900  0.60590700  1
  O  O19  1  0.65183900  0.15128500  0.10829000  1
loop_
_geom_bond_atom_site_label_1
_geom_bond_atom_site_label_2
_geom_bond_distance
_geom_bond_site_symmetry_2
Li0 O8 2.155818 1_565
Li0 O3 2.155818 1_455
Li0 O12 2.189228 1_555
Li0 O4 2.189228 1_555
Li0 O14 2.227060 1_555
Li0 O15 2.227060 1_555
Li1 O5 2.141437 1_555
Li1 O6 2.141437 1_555
Li1 O13 2.205322 1_555
Li1 O2 2.205322 1_555
Li1 O1 2.228227 1_555
Li1 O0 2.228227 1_555
Li2 O1 2.160023 1_655
Li2 O0 2.160023 1_545
Li2 O17 2.178523 1_555
Li2 O19 2.178523 1_555
Li2 O5 2.195094 1_655
Li2 O6 2.195094 1_545
Li3 O18 2.160023 1_565
Li3 O16 2.160023 1_455
Li3 O14 2.178523 1_555
Li3 O15 2.178523 1_555
Li3 O9 2.195094 1_565
Li3 O10 2.195094 1_455
Li4 O9 2.141437 1_555
Li4 O10 2.141437 1_555
Li4 O12 2.205322 1_555
Li4 O4 2.205322 1_555
Li4 O16 2.228227 1_555
Li4 O18 2.228227 1_555
Li5 O11 2.155818 1_655
Li5 O7 2.155818 1_545
Li5 O13 2.189228 1_555
Li5 O2 2.189228 1_555
Li5 O19 2.227060 1_555
Li5 O17 2.227060 1_555
O0 V3 2.022261 1_555
O0 V9 2.035927 1_565
O0 V0 2.059216 1_555
O1 V1 2.022261 1_555
O1 V8 2.035927 1_555
O1 V4 2.059216 1_554
O2 V7 1.998216 1_554
O2 V1 2.045488 1_555
O2 V5 2.057091 1_555
O3 V1 1.992979 1_656
O3 V4 1.994814 1_545
O3 V8 2.005667 1_656
O4 V3 1.998216 1_555
O4 V2 2.045488 1_555
O4 V0 2.057091 1_555
O5 V3 1.975659 1_445
O5 V0 2.032563 1_555
O5 V2 2.048450 1_555
O6 V1 1.975659 1_665
O6 V4 2.032563 1_554
O6 V7 2.048450 1_554
O7 V2 1.992979 1_565
O7 V6 1.994814 1_455
O7 V9 2.005667 1_565
O8 V3 1.992979 1_545
O8 V0 1.994814 1_655
O8 V9 2.005667 1_555
O9 V7 1.975659 1_445
O9 V5 2.032563 1_556
O9 V1 2.048450 1_556
O10 V2 1.975659 1_665
O10 V6 2.032563 1_555
O10 V3 2.048450 1_555
O11 V7 1.992979 1_454
O11 V5 1.994814 1_565
O11 V8 2.005667 1_555
O12 V1 1.998216 1_556
O12 V7 2.045488 1_555
O12 V4 2.057091 1_555
O13 V2 1.998216 1_555
O13 V3 2.045488 1_555
O13 V6 2.057091 1_555
O14 V8 1.901817 1_556
O14 V4 2.043081 1_555
O14 V5 2.114337 1_566
O15 V9 1.901817 1_565
O15 V0 2.043081 1_555
O15 V6 2.114337 1_455
O16 V7 2.022261 1_555
O16 V8 2.035927 1_656
O16 V5 2.059216 1_556
O17 V9 1.901817 1_555
O17 V6 2.043081 1_555
O17 V0 2.114337 1_655
O18 V2 2.022261 1_555
O18 V9 2.035927 1_555
O18 V6 2.059216 1_555
O19 V8 1.901817 1_655
O19 V5 2.043081 1_555
O19 V4 2.114337 1_544
