# generated using pymatgen
data_Tm5Ti5O17
_symmetry_space_group_name_H-M   'P 1'
_cell_length_a   3.80225400
_cell_length_b   5.42297000
_cell_length_c   31.87211800
_cell_angle_alpha   90.00000000
_cell_angle_beta   90.00000000
_cell_angle_gamma   90.00000000
_symmetry_Int_Tables_number   1
_chemical_formula_structural   Tm5Ti5O17
_chemical_formula_sum   'Tm10 Ti10 O34'
_cell_volume   657.18743588
_cell_formula_units_Z   2
loop_
 _symmetry_equiv_pos_site_id
 _symmetry_equiv_pos_as_xyz
  1  'x, y, z'
loop_
 _atom_site_type_symbol
 _atom_site_label
 _atom_site_symmetry_multiplicity
 _atom_site_fract_x
 _atom_site_fract_y
 _atom_site_fract_z
 _atom_site_occupancy
  Tm  Tm0  1  0.00000000  0.18215400  0.01918500  1
  Tm  Tm1  1  0.00000000  0.74288500  0.69786200  1
  Tm  Tm2  1  0.00000000  0.26976500  0.79297200  1
  Tm  Tm3  1  0.00000000  0.32061600  0.56827400  1
  Tm  Tm4  1  0.00000000  0.79392100  0.89133800  1
  Tm  Tm5  1  0.50000000  0.25711500  0.19786200  1
  Tm  Tm6  1  0.50000000  0.81784600  0.51918500  1
  Tm  Tm7  1  0.50000000  0.73023500  0.29297200  1
  Tm  Tm8  1  0.50000000  0.67938400  0.06827400  1
  Tm  Tm9  1  0.50000000  0.20607900  0.39133800  1
  Ti  Ti0  1  0.00000000  0.75231800  0.20625900  1
  Ti  Ti1  1  0.00000000  0.25785900  0.29712100  1
  Ti  Ti2  1  0.00000000  0.76055000  0.38176100  1
  Ti  Ti3  1  0.00000000  0.28428400  0.46837100  1
  Ti  Ti4  1  0.50000000  0.77288100  0.61934100  1
  Ti  Ti5  1  0.50000000  0.24768200  0.70625900  1
  Ti  Ti6  1  0.50000000  0.74214100  0.79712100  1
  Ti  Ti7  1  0.50000000  0.23945000  0.88176100  1
  Ti  Ti8  1  0.50000000  0.71571600  0.96837100  1
  Ti  Ti9  1  0.00000000  0.22711900  0.11934100  1
  O  O0  1  0.00000000  0.18629900  0.71801100  1
  O  O1  1  0.00000000  0.68859800  0.79790200  1
  O  O2  1  0.00000000  0.19789900  0.87045300  1
  O  O3  1  0.00000000  0.45769100  0.07030700  1
  O  O4  1  0.00000000  0.96107100  0.08105600  1
  O  O5  1  0.00000000  0.74648100  0.96296900  1
  O  O6  1  0.00000000  0.54226700  0.16260400  1
  O  O7  1  0.00000000  0.07092400  0.17626300  1
  O  O8  1  0.00000000  0.95916300  0.26872400  1
  O  O9  1  0.00000000  0.45172800  0.24189000  1
  O  O10  1  0.50000000  0.87883000  0.85167100  1
  O  O11  1  0.50000000  0.39041800  0.82495500  1
  O  O12  1  0.50000000  0.44755400  0.00830700  1
  O  O13  1  0.50000000  0.94813100  0.01756600  1
  O  O14  1  0.50000000  0.01320000  0.92741100  1
  O  O15  1  0.50000000  0.53267200  0.91221800  1
  O  O16  1  0.50000000  0.27682300  0.12625800  1
  O  O17  1  0.50000000  0.81370100  0.21801100  1
  O  O18  1  0.50000000  0.31140200  0.29790200  1
  O  O19  1  0.50000000  0.80210100  0.37045300  1
  O  O20  1  0.50000000  0.25351900  0.46296900  1
  O  O21  1  0.50000000  0.54230900  0.57030700  1
  O  O22  1  0.50000000  0.03892900  0.58105600  1
  O  O23  1  0.50000000  0.45773300  0.66260400  1
  O  O24  1  0.50000000  0.92907600  0.67626300  1
  O  O25  1  0.50000000  0.54827200  0.74189000  1
  O  O26  1  0.50000000  0.04083700  0.76872400  1
  O  O27  1  0.00000000  0.12117000  0.35167100  1
  O  O28  1  0.00000000  0.60958200  0.32495500  1
  O  O29  1  0.00000000  0.98680000  0.42741100  1
  O  O30  1  0.00000000  0.46732800  0.41221800  1
  O  O31  1  0.00000000  0.55244600  0.50830700  1
  O  O32  1  0.00000000  0.05186900  0.51756600  1
  O  O33  1  0.00000000  0.72317700  0.62625800  1
loop_
_geom_bond_atom_site_label_1
_geom_bond_atom_site_label_2
_geom_bond_distance
_geom_bond_site_symmetry_2
O0 Ti5 1.966059 1_555
O0 Ti5 1.966059 1_455
O0 Tm2 2.431664 1_555
O0 Tm1 2.488898 1_545
O1 Ti6 1.923334 1_455
O1 Ti6 1.923334 1_555
O1 Tm2 2.276747 1_555
O2 Ti7 1.948064 1_455
O2 Ti7 1.948064 1_555
O2 Tm4 2.289655 1_545
O2 Tm2 2.500047 1_555
O3 Ti9 2.001465 1_555
O3 Tm0 2.210782 1_555
O3 Tm8 2.250300 1_455
O3 Tm8 2.250300 1_555
O4 Ti9 1.889585 1_565
O4 Tm0 2.307824 1_565
O4 Tm8 2.472600 1_455
O4 Tm8 2.472600 1_555
O5 Ti8 1.916184 1_455
O5 Ti8 1.916184 1_555
O5 Tm4 2.297481 1_555
O6 Ti0 1.798188 1_555
O6 Ti9 2.195935 1_555
O6 Tm5 2.695988 1_555
O6 Tm5 2.695988 1_455
O7 Ti0 1.974656 1_545
O7 Ti9 2.002221 1_555
O7 Tm5 2.260022 1_555
O7 Tm5 2.260022 1_455
O8 Ti1 1.855525 1_565
O8 Ti0 2.285146 1_555
O8 Tm7 2.398501 1_555
O8 Tm7 2.398501 1_455
O9 Ti0 1.986671 1_555
O9 Ti1 2.050387 1_555
O9 Tm5 2.587908 1_555
O9 Tm5 2.587908 1_455
O10 Ti6 1.890048 1_555
O10 Ti7 2.178127 1_565
O10 Tm4 2.329096 1_555
O10 Tm4 2.329096 1_655
O11 Ti7 1.987026 1_555
O11 Ti6 2.103594 1_555
O11 Tm2 2.254217 1_655
O11 Tm2 2.254217 1_555
O12 Ti8 1.932597 1_554
O12 Tm8 2.287694 1_555
O12 Tm0 2.409553 1_555
O12 Tm0 2.409553 1_655
O13 Ti8 2.011721 1_554
O13 Tm8 2.176246 1_555
O13 Tm0 2.286386 1_565
O13 Tm0 2.286386 1_665
O14 Ti7 1.903238 1_555
O14 Ti8 2.075295 1_545
O14 Tm4 2.519962 1_545
O14 Tm4 2.519962 1_645
O15 Ti7 1.863019 1_555
O15 Ti8 2.046563 1_555
O15 Tm4 2.462586 1_555
O15 Tm4 2.462586 1_655
O16 Ti9 1.932754 1_555
O16 Ti9 1.932754 1_655
O16 Tm5 2.284672 1_555
O16 Tm8 2.860279 1_555
O17 Ti0 1.966059 1_655
O17 Ti0 1.966059 1_555
O17 Tm7 2.431664 1_555
O17 Tm5 2.488898 1_565
O18 Ti1 1.923334 1_555
O18 Ti1 1.923334 1_655
O18 Tm7 2.276747 1_555
O19 Ti2 1.948064 1_555
O19 Ti2 1.948064 1_655
O19 Tm9 2.289655 1_565
O19 Tm7 2.500047 1_555
O20 Ti3 1.916184 1_655
O20 Ti3 1.916184 1_555
O20 Tm9 2.297481 1_555
O21 Ti4 2.001465 1_555
O21 Tm6 2.210782 1_555
O21 Tm3 2.250300 1_555
O21 Tm3 2.250300 1_655
O22 Ti4 1.889585 1_545
O22 Tm6 2.307824 1_545
O22 Tm3 2.472600 1_555
O22 Tm3 2.472600 1_655
O23 Ti5 1.798188 1_555
O23 Ti4 2.195935 1_555
O23 Tm1 2.695988 1_655
O23 Tm1 2.695988 1_555
O24 Ti5 1.974656 1_565
O24 Ti4 2.002221 1_555
O24 Tm1 2.260022 1_655
O24 Tm1 2.260022 1_555
O25 Ti5 1.986671 1_555
O25 Ti6 2.050387 1_555
O25 Tm1 2.587908 1_655
O25 Tm1 2.587908 1_555
O26 Ti6 1.855525 1_545
O26 Ti5 2.285146 1_555
O26 Tm2 2.398501 1_655
O26 Tm2 2.398501 1_555
O27 Ti1 1.890048 1_555
O27 Ti2 2.178127 1_545
O27 Tm9 2.329096 1_555
O27 Tm9 2.329096 1_455
O28 Ti2 1.987026 1_555
O28 Ti1 2.103594 1_555
O28 Tm7 2.254217 1_555
O28 Tm7 2.254217 1_455
O29 Ti2 1.903238 1_555
O29 Ti3 2.075295 1_565
O29 Tm9 2.519962 1_465
O29 Tm9 2.519962 1_565
O30 Ti2 1.863019 1_555
O30 Ti3 2.046563 1_555
O30 Tm9 2.462586 1_455
O30 Tm9 2.462586 1_555
O31 Ti3 1.932597 1_555
O31 Tm3 2.287694 1_555
O31 Tm6 2.409553 1_555
O31 Tm6 2.409553 1_455
O32 Ti3 2.011721 1_555
O32 Tm3 2.176246 1_555
O32 Tm6 2.286386 1_445
O32 Tm6 2.286386 1_545
O33 Ti4 1.932754 1_455
O33 Ti4 1.932754 1_555
O33 Tm1 2.284672 1_555
O33 Tm3 2.860279 1_555
