# generated using pymatgen
data_Na2ZnP2(H5O6)2
_symmetry_space_group_name_H-M   'P 1'
_cell_length_a   13.44996000
_cell_length_b   9.05068900
_cell_length_c   10.20085186
_cell_angle_alpha   63.62703366
_cell_angle_beta   90.00000000
_cell_angle_gamma   90.00000000
_symmetry_Int_Tables_number   1
_chemical_formula_structural   Na2ZnP2(H5O6)2
_chemical_formula_sum   'Na8 Zn4 P8 H40 O48'
_cell_volume   1112.52303099
_cell_formula_units_Z   4
loop_
 _symmetry_equiv_pos_site_id
 _symmetry_equiv_pos_as_xyz
  1  'x, y, z'
loop_
 _atom_site_type_symbol
 _atom_site_label
 _atom_site_symmetry_multiplicity
 _atom_site_fract_x
 _atom_site_fract_y
 _atom_site_fract_z
 _atom_site_occupancy
  Na  Na0  1  0.46473800  0.83546200  0.86344200  1
  Na  Na1  1  0.96473800  0.16453800  0.63655800  1
  Na  Na2  1  0.53526200  0.16453800  0.13655800  1
  Na  Na3  1  0.03526200  0.83546200  0.36344200  1
  Na  Na4  1  0.27620100  0.68020800  0.69806100  1
  Na  Na5  1  0.77620100  0.31979200  0.80193900  1
  Na  Na6  1  0.72379900  0.31979200  0.30193900  1
  Na  Na7  1  0.22379900  0.68020800  0.19806100  1
  Zn  Zn0  1  0.34042500  0.40311400  0.53677100  1
  Zn  Zn1  1  0.84042500  0.59688600  0.96322900  1
  Zn  Zn2  1  0.65957500  0.59688600  0.46322900  1
  Zn  Zn3  1  0.15957500  0.40311400  0.03677100  1
  P  P0  1  0.43915100  0.74288400  0.38975400  1
  P  P1  1  0.93915100  0.25711600  0.11024600  1
  P  P2  1  0.56084900  0.25711600  0.61024600  1
  P  P3  1  0.06084900  0.74288400  0.88975400  1
  P  P4  1  0.18796300  0.26981100  0.79663600  1
  P  P5  1  0.68796300  0.73018900  0.70336400  1
  P  P6  1  0.81203700  0.73018900  0.20336400  1
  P  P7  1  0.31203700  0.26981100  0.29663600  1
  H  H0  1  0.35963200  0.99076000  0.28127900  1
  H  H1  1  0.85963200  0.00924000  0.21872100  1
  H  H2  1  0.64036800  0.00924000  0.71872100  1
  H  H3  1  0.14036800  0.99076000  0.78127900  1
  H  H4  1  0.02328000  0.28215200  0.85296500  1
  H  H5  1  0.52328000  0.71784800  0.64703500  1
  H  H6  1  0.97672000  0.71784800  0.14703500  1
  H  H7  1  0.47672000  0.28215200  0.35296500  1
  H  H8  1  0.64640000  0.74502400  0.05348400  1
  H  H9  1  0.14640000  0.25497600  0.44651600  1
  H  H10  1  0.35360000  0.25497600  0.94651600  1
  H  H11  1  0.85360000  0.74502400  0.55348400  1
  H  H12  1  0.55802200  0.73080300  0.15991700  1
  H  H13  1  0.05802200  0.26919700  0.34008300  1
  H  H14  1  0.44197800  0.26919700  0.84008300  1
  H  H15  1  0.94197800  0.73080300  0.65991700  1
  H  H16  1  0.60796400  0.05688400  0.41756500  1
  H  H17  1  0.10796400  0.94311600  0.08243500  1
  H  H18  1  0.39203600  0.94311600  0.58243500  1
  H  H19  1  0.89203600  0.05688400  0.91756500  1
  H  H20  1  0.68403300  0.95513800  0.37545700  1
  H  H21  1  0.18403300  0.04486200  0.12454300  1
  H  H22  1  0.31596700  0.04486200  0.62454300  1
  H  H23  1  0.81596700  0.95513800  0.87545700  1
  H  H24  1  0.70216000  0.03591200  0.06011800  1
  H  H25  1  0.20216000  0.96408800  0.43988200  1
  H  H26  1  0.29784000  0.96408800  0.93988200  1
  H  H27  1  0.79784000  0.03591200  0.56011800  1
  H  H28  1  0.63177600  0.08704600  0.92190200  1
  H  H29  1  0.13177600  0.91295400  0.57809800  1
  H  H30  1  0.36822400  0.91295400  0.07809800  1
  H  H31  1  0.86822400  0.08704600  0.42190200  1
  H  H32  1  0.64878300  0.46298400  0.99410800  1
  H  H33  1  0.14878300  0.53701600  0.50589200  1
  H  H34  1  0.35121700  0.53701600  0.00589200  1
  H  H35  1  0.85121700  0.46298400  0.49410800  1
  H  H36  1  0.57792800  0.51512200  0.08586400  1
  H  H37  1  0.07792800  0.48487800  0.41413600  1
  H  H38  1  0.42207200  0.48487800  0.91413600  1
  H  H39  1  0.92207200  0.51512200  0.58586400  1
  O  O0  1  0.35634000  0.62878200  0.38098900  1
  O  O1  1  0.85634000  0.37121800  0.11901100  1
  O  O2  1  0.64366000  0.37121800  0.61901100  1
  O  O3  1  0.14366000  0.62878200  0.88098900  1
  O  O4  1  0.45929300  0.30136100  0.65493500  1
  O  O5  1  0.95929300  0.69863900  0.84506500  1
  O  O6  1  0.54070700  0.69863900  0.34506500  1
  O  O7  1  0.04070700  0.30136100  0.15493500  1
  O  O8  1  0.23714700  0.42135300  0.66899500  1
  O  O9  1  0.73714700  0.57864700  0.83100500  1
  O  O10  1  0.76285300  0.57864700  0.33100500  1
  O  O11  1  0.26285300  0.42135300  0.16899500  1
  O  O12  1  0.28485400  0.26734400  0.44609600  1
  O  O13  1  0.78485400  0.73265600  0.05390400  1
  O  O14  1  0.71514600  0.73265600  0.55390400  1
  O  O15  1  0.21514600  0.26734400  0.94609600  1
  O  O16  1  0.44065200  0.74724600  0.53803700  1
  O  O17  1  0.94065200  0.25275400  0.96196300  1
  O  O18  1  0.55934800  0.25275400  0.46196300  1
  O  O19  1  0.05934800  0.74724600  0.03803700  1
  O  O20  1  0.41516000  0.92397500  0.26106400  1
  O  O21  1  0.91516000  0.07602500  0.23893600  1
  O  O22  1  0.58484000  0.07602500  0.73893600  1
  O  O23  1  0.08484000  0.92397500  0.76106400  1
  O  O24  1  0.07164000  0.29502400  0.76933000  1
  O  O25  1  0.57164000  0.70497600  0.73067000  1
  O  O26  1  0.92836000  0.70497600  0.23067000  1
  O  O27  1  0.42836000  0.29502400  0.26933000  1
  O  O28  1  0.21925600  0.10767400  0.79556100  1
  O  O29  1  0.71925600  0.89232600  0.70443900  1
  O  O30  1  0.78074400  0.89232600  0.20443900  1
  O  O31  1  0.28074400  0.10767400  0.29556100  1
  O  O32  1  0.57314200  0.73799400  0.06190300  1
  O  O33  1  0.07314200  0.26200600  0.43809700  1
  O  O34  1  0.42685800  0.26200600  0.93809700  1
  O  O35  1  0.92685800  0.73799400  0.56190300  1
  O  O36  1  0.64650300  0.05907600  0.33590300  1
  O  O37  1  0.14650300  0.94092400  0.16409700  1
  O  O38  1  0.35349700  0.94092400  0.66409700  1
  O  O39  1  0.85349700  0.05907600  0.83590300  1
  O  O40  1  0.66217000  0.12839400  0.98679100  1
  O  O41  1  0.16217000  0.87160600  0.51320900  1
  O  O42  1  0.33783000  0.87160600  0.01320900  1
  O  O43  1  0.83783000  0.12839400  0.48679100  1
  O  O44  1  0.61476900  0.41896700  0.08945400  1
  O  O45  1  0.11476900  0.58103300  0.41054600  1
  O  O46  1  0.38523100  0.58103300  0.91054600  1
  O  O47  1  0.88523100  0.41896700  0.58945400  1
loop_
_geom_bond_atom_site_label_1
_geom_bond_atom_site_label_2
_geom_bond_distance
_geom_bond_site_symmetry_2
Na0 O32 2.327208 1_556
Na0 O38 2.358033 1_555
Na0 O46 2.386230 1_555
Na0 O42 2.408024 1_556
Na0 O22 2.550728 1_565
Na0 O25 2.591813 1_555
Na1 O33 2.327208 1_655
Na1 O39 2.358033 1_555
Na1 O47 2.386230 1_555
Na1 O43 2.408024 1_555
Na1 O23 2.550728 1_645
Na1 O24 2.591813 1_655
Na2 O34 2.327208 1_554
Na2 O36 2.358033 1_555
Na2 O44 2.386230 1_555
Na2 O40 2.408024 1_554
Na2 O20 2.550728 1_545
Na2 O27 2.591813 1_555
Na3 O35 2.327208 1_455
Na3 O37 2.358033 1_555
Na3 O45 2.386230 1_555
Na3 O41 2.408024 1_555
Na3 O21 2.550728 1_465
Na3 O26 2.591813 1_455
Na4 O46 2.434305 1_555
Na4 O41 2.450863 1_555
Na4 O38 2.458158 1_555
Na4 O3 2.470824 1_555
Na4 O8 2.543570 1_555
Na4 O16 2.654280 1_555
Na5 O47 2.434305 1_555
Na5 O40 2.450863 1_555
Na5 O39 2.458158 1_555
Na5 O2 2.470824 1_555
Na5 O9 2.543570 1_555
Na5 O17 2.654280 1_555
Na6 O44 2.434305 1_555
Na6 O43 2.450863 1_555
Na6 O36 2.458158 1_555
Na6 O1 2.470824 1_555
Na6 O10 2.543570 1_555
Na6 O18 2.654280 1_555
Na7 O45 2.434305 1_555
Na7 O42 2.450863 1_555
Na7 O37 2.458158 1_555
Na7 O0 2.470824 1_555
Na7 O11 2.543570 1_555
Na7 O19 2.654280 1_555
H0 O20 1.037499 1_555
H0 O31 1.550380 1_565
H1 O21 1.037499 1_555
H1 O30 1.550380 1_545
H2 O22 1.037499 1_555
H2 O29 1.550380 1_545
H3 O23 1.037499 1_555
H3 O28 1.550380 1_565
H4 O24 1.037403 1_555
H4 O17 1.509738 1_455
H5 O25 1.037403 1_555
H5 O16 1.509738 1_555
H6 O26 1.037403 1_555
H6 O19 1.509738 1_655
H7 O27 1.037403 1_555
H7 O18 1.509738 1_555
H8 O32 0.988645 1_555
H9 O33 0.988645 1_555
H10 O34 0.988645 1_555
H11 O35 0.988645 1_555
H12 O32 0.993697 1_555
H13 O33 0.993697 1_555
H14 O34 0.993697 1_555
H15 O35 0.993697 1_555
H16 O36 0.973818 1_555
H17 O37 0.973818 1_555
H18 O38 0.973818 1_555
H19 O39 0.973818 1_555
H20 O36 0.982509 1_565
H21 O37 0.982509 1_545
H22 O38 0.982509 1_545
H23 O39 0.982509 1_565
H24 O40 0.996581 1_554
H25 O41 0.996581 1_555
H26 O42 0.996581 1_556
H27 O43 0.996581 1_555
H28 O40 0.982536 1_555
H29 O41 0.982536 1_555
H30 O42 0.982536 1_555
H31 O43 0.982536 1_555
H32 O44 0.984751 1_556
H33 O45 0.984751 1_555
H34 O46 0.984751 1_554
H35 O47 0.984751 1_555
H36 O44 0.987889 1_555
H37 O45 0.987889 1_555
H38 O46 0.987889 1_555
H39 O47 0.987889 1_555
O0 P0 1.548244 1_555
O0 Zn0 1.964473 1_555
O1 P1 1.548244 1_555
O1 Zn1 1.964473 1_554
O2 P2 1.548244 1_555
O2 Zn2 1.964473 1_555
O3 P3 1.548244 1_555
O3 Zn3 1.964473 1_556
O4 P2 1.547935 1_555
O4 Zn0 1.967459 1_555
O5 P3 1.547935 1_655
O5 Zn1 1.967459 1_555
O6 P0 1.547935 1_555
O6 Zn2 1.967459 1_555
O7 P1 1.547935 1_455
O7 Zn3 1.967459 1_555
O8 P4 1.558054 1_555
O8 Zn0 1.993457 1_555
O9 P5 1.558054 1_555
O9 Zn1 1.993457 1_555
O10 P6 1.558054 1_555
O10 Zn2 1.993457 1_555
O11 P7 1.558054 1_555
O11 Zn3 1.993457 1_555
O12 P7 1.558329 1_555
O12 Zn0 1.983424 1_555
O13 P6 1.558329 1_555
O13 Zn1 1.983424 1_554
O14 P5 1.558329 1_555
O14 Zn2 1.983424 1_555
O15 P4 1.558329 1_555
O15 Zn3 1.983424 1_556
O16 P0 1.530692 1_555
O17 P1 1.530692 1_556
O18 P2 1.530692 1_555
O19 P3 1.530692 1_554
O20 P0 1.613138 1_555
O21 P1 1.613138 1_555
O22 P2 1.613138 1_555
O23 P3 1.613138 1_555
O24 P4 1.587758 1_555
O25 P5 1.587758 1_555
O26 P6 1.587758 1_555
O27 P7 1.587758 1_555
O28 P4 1.531332 1_555
O29 P5 1.531332 1_555
O30 P6 1.531332 1_555
O31 P7 1.531332 1_555
