# generated using pymatgen
data_Li2SiNiO4
_symmetry_space_group_name_H-M   'P 1'
_cell_length_a   4.93680500
_cell_length_b   6.30068700
_cell_length_c   10.71268300
_cell_angle_alpha   90.00000000
_cell_angle_beta   90.00000000
_cell_angle_gamma   90.00000000
_symmetry_Int_Tables_number   1
_chemical_formula_structural   Li2SiNiO4
_chemical_formula_sum   'Li8 Si4 Ni4 O16'
_cell_volume   333.22082306
_cell_formula_units_Z   4
loop_
 _symmetry_equiv_pos_site_id
 _symmetry_equiv_pos_as_xyz
  1  'x, y, z'
loop_
 _atom_site_type_symbol
 _atom_site_label
 _atom_site_symmetry_multiplicity
 _atom_site_fract_x
 _atom_site_fract_y
 _atom_site_fract_z
 _atom_site_occupancy
  Li  Li0  1  0.18585600  0.49904300  0.91133600  1
  Li  Li1  1  0.68585600  0.50095700  0.58866400  1
  Li  Li2  1  0.81414400  0.50095700  0.08866400  1
  Li  Li3  1  0.68585600  0.99904300  0.58866400  1
  Li  Li4  1  0.31414400  0.00095700  0.41133600  1
  Li  Li5  1  0.81414400  0.99904300  0.08866400  1
  Li  Li6  1  0.18585600  0.00095700  0.91133600  1
  Li  Li7  1  0.31414400  0.49904300  0.41133600  1
  Si  Si0  1  0.82613400  0.25000000  0.33404200  1
  Si  Si1  1  0.67386600  0.25000000  0.83404200  1
  Si  Si2  1  0.17386600  0.75000000  0.66595800  1
  Si  Si3  1  0.32613400  0.75000000  0.16595800  1
  Ni  Ni0  1  0.31366700  0.25000000  0.16060300  1
  Ni  Ni1  1  0.18633300  0.25000000  0.66060300  1
  Ni  Ni2  1  0.81366700  0.75000000  0.33939700  1
  Ni  Ni3  1  0.68633300  0.75000000  0.83939700  1
  O  O0  1  0.71883200  0.46610100  0.40704200  1
  O  O1  1  0.78116800  0.46610100  0.90704200  1
  O  O2  1  0.16091100  0.25000000  0.33291900  1
  O  O3  1  0.78263300  0.25000000  0.68752800  1
  O  O4  1  0.71736700  0.25000000  0.18752800  1
  O  O5  1  0.33908900  0.25000000  0.83291900  1
  O  O6  1  0.71883200  0.03389900  0.40704200  1
  O  O7  1  0.78116800  0.03389900  0.90704200  1
  O  O8  1  0.28116800  0.96610100  0.59295800  1
  O  O9  1  0.21883200  0.96610100  0.09295800  1
  O  O10  1  0.28263300  0.75000000  0.81247200  1
  O  O11  1  0.66091100  0.75000000  0.16708100  1
  O  O12  1  0.83908900  0.75000000  0.66708100  1
  O  O13  1  0.21736700  0.75000000  0.31247200  1
  O  O14  1  0.28116800  0.53389900  0.59295800  1
  O  O15  1  0.21883200  0.53389900  0.09295800  1
loop_
_geom_bond_atom_site_label_1
_geom_bond_atom_site_label_2
_geom_bond_distance
_geom_bond_site_symmetry_2
Li0 O5 1.933951 1_555
Li0 O10 1.962180 1_555
Li0 O15 1.964770 1_556
Li0 O1 2.009145 1_455
Li1 O12 1.933951 1_555
Li1 O3 1.962180 1_555
Li1 O0 1.964770 1_555
Li1 O14 2.009145 1_555
Li2 O11 1.933951 1_555
Li2 O4 1.962180 1_555
Li2 O1 1.964770 1_554
Li2 O15 2.009145 1_655
Li3 O12 1.933951 1_555
Li3 O3 1.962180 1_565
Li3 O6 1.964770 1_565
Li3 O8 2.009145 1_555
Li4 O2 1.933951 1_555
Li4 O13 1.962180 1_545
Li4 O8 1.964770 1_545
Li4 O6 2.009145 1_555
Li5 O11 1.933951 1_555
Li5 O4 1.962180 1_565
Li5 O7 1.964770 1_564
Li5 O9 2.009145 1_655
Li6 O5 1.933951 1_555
Li6 O10 1.962180 1_545
Li6 O9 1.964770 1_546
Li6 O7 2.009145 1_455
Li7 O2 1.933951 1_555
Li7 O13 1.962180 1_555
Li7 O14 1.964770 1_555
Li7 O0 2.009145 1_555
Ni0 O9 1.985946 1_545
Ni0 O15 1.985946 1_555
Ni0 O2 1.994066 1_555
Ni0 O4 2.013752 1_555
Ni1 O14 1.985946 1_555
Ni1 O8 1.985946 1_545
Ni1 O5 1.994066 1_555
Ni1 O3 2.013752 1_455
Ni2 O6 1.985946 1_565
Ni2 O0 1.985946 1_555
Ni2 O11 1.994066 1_555
Ni2 O13 2.013752 1_655
Ni3 O7 1.985946 1_565
Ni3 O1 1.985946 1_555
Ni3 O12 1.994066 1_555
Ni3 O10 2.013752 1_555
O0 Si0 1.657133 1_555
O1 Si1 1.657133 1_555
O2 Si0 1.652773 1_455
O3 Si1 1.658867 1_555
O4 Si0 1.658867 1_555
O5 Si1 1.652773 1_555
O6 Si0 1.657133 1_555
O7 Si1 1.657133 1_555
O8 Si2 1.657133 1_555
O9 Si3 1.657133 1_555
O10 Si2 1.658867 1_555
O11 Si3 1.652773 1_555
O12 Si2 1.652773 1_655
O13 Si3 1.658867 1_555
O14 Si2 1.657133 1_555
O15 Si3 1.657133 1_555
