# generated using pymatgen
data_LaAsO4
_symmetry_space_group_name_H-M   'P 1'
_cell_length_a   6.17772194
_cell_length_b   6.17772194
_cell_length_c   6.17772194
_cell_angle_alpha   106.46033170
_cell_angle_beta   106.46033170
_cell_angle_gamma   115.67698573
_symmetry_Int_Tables_number   1
_chemical_formula_structural   LaAsO4
_chemical_formula_sum   'La2 As2 O8'
_cell_volume   179.88046883
_cell_formula_units_Z   2
loop_
 _symmetry_equiv_pos_site_id
 _symmetry_equiv_pos_as_xyz
  1  'x, y, z'
loop_
 _atom_site_type_symbol
 _atom_site_label
 _atom_site_symmetry_multiplicity
 _atom_site_fract_x
 _atom_site_fract_y
 _atom_site_fract_z
 _atom_site_occupancy
  La  La0  1  -0.00000000  0.00000000  -0.00000000  1
  La  La1  1  0.75000000  0.25000000  0.50000000  1
  As  As0  1  0.50000000  0.50000000  -0.00000000  1
  As  As1  1  0.25000000  0.75000000  0.50000000  1
  O  O0  1  0.51303513  0.33569309  0.17734304  1
  O  O1  1  0.66430691  0.84165096  0.17734304  1
  O  O2  1  0.08569309  0.40834904  0.32265696  1
  O  O3  1  0.66430691  0.48696487  0.82265696  1
  O  O4  1  0.59165096  0.91430691  0.67734304  1
  O  O5  1  0.23696487  0.91430691  0.32265696  1
  O  O6  1  0.15834904  0.33569309  0.82265696  1
  O  O7  1  0.08569309  0.76303513  0.67734304  1
loop_
_geom_bond_atom_site_label_1
_geom_bond_atom_site_label_2
_geom_bond_distance
_geom_bond_site_symmetry_2
La0 O4 2.452014 1_444
La0 O2 2.452014 1_555
La0 O5 2.452021 1_545
La0 O7 2.452021 1_544
La0 O3 2.568036 1_444
La0 O0 2.568036 1_555
La0 O6 2.568040 1_554
La0 O1 2.568040 1_445
La1 O1 2.452014 1_545
La1 O6 2.452014 1_655
La1 O3 2.452021 1_555
La1 O0 2.452021 1_555
La1 O7 2.568036 1_655
La1 O5 2.568036 1_545
La1 O2 2.568040 1_655
La1 O4 2.568040 1_545
As0 O0 1.699449 1_555
As0 O3 1.699449 1_554
As0 O1 1.699454 1_555
As0 O6 1.699454 1_554
As1 O5 1.699449 1_555
As1 O7 1.699449 1_555
As1 O2 1.699454 1_555
As1 O4 1.699454 1_555
