# generated using pymatgen
data_Na5(WO3)14
_symmetry_space_group_name_H-M   'P 1'
_cell_length_a   7.77916589
_cell_length_b   19.83136727
_cell_length_c   5.50293653
_cell_angle_alpha   97.97324052
_cell_angle_beta   90.00003589
_cell_angle_gamma   78.68486662
_symmetry_Int_Tables_number   1
_chemical_formula_structural   Na5(WO3)14
_chemical_formula_sum   'Na5 W14 O42'
_cell_volume   824.07407333
_cell_formula_units_Z   1
loop_
 _symmetry_equiv_pos_site_id
 _symmetry_equiv_pos_as_xyz
  1  'x, y, z'
loop_
 _atom_site_type_symbol
 _atom_site_label
 _atom_site_symmetry_multiplicity
 _atom_site_fract_x
 _atom_site_fract_y
 _atom_site_fract_z
 _atom_site_occupancy
  Na  Na0  1  0.63840715  0.71531265  0.85607756  1
  Na  Na1  1  0.85843246  0.28622745  0.14785354  1
  Na  Na2  1  0.06859008  0.85910961  0.43075144  1
  Na  Na3  1  0.42835044  0.14150647  0.56897347  1
  Na  Na4  1  0.21078527  0.57123996  0.28270322  1
  W  W0  1  0.96534643  0.56984331  0.78431236  1
  W  W1  1  0.89359109  0.71444929  0.35643088  1
  W  W2  1  0.81883575  0.85887317  0.92912787  1
  W  W3  1  0.67972303  0.14185214  0.06956588  1
  W  W4  1  0.60595753  0.28629174  0.64211867  1
  W  W5  1  0.53748169  0.42790201  0.21278703  1
  W  W6  1  0.75080933  0.00029931  0.49958177  1
  W  W7  1  0.39327996  0.71413202  0.35529670  1
  W  W8  1  0.46769176  0.56935824  0.78357130  1
  W  W9  1  0.32107770  0.85876934  0.92700957  1
  W  W10  1  0.25074406  0.00023335  0.49768282  1
  W  W11  1  0.10838282  0.28664268  0.64252060  1
  W  W12  1  0.17710840  0.14200915  0.06930017  1
  W  W13  1  0.03767803  0.42822573  0.21304178  1
  O  O0  1  0.85669907  0.78536979  0.14053584  1
  O  O1  1  0.78934311  0.92849228  0.71368702  1
  O  O2  1  0.92903772  0.64297692  0.57079060  1
  O  O3  1  0.85725714  0.78613014  0.64110818  1
  O  O4  1  0.93069867  0.64288637  0.07116924  1
  O  O5  1  0.78956595  0.92705476  0.21829746  1
  O  O6  1  0.85756028  0.28571831  0.64145024  1
  O  O7  1  0.57169697  0.85620263  0.92609848  1
  O  O8  1  0.92752504  0.14417601  0.06999460  1
  O  O9  1  0.78770594  0.42750065  0.21404265  1
  O  O10  1  0.64349243  0.71445930  0.35528762  1
  O  O11  1  0.71535925  0.57211146  0.78655242  1
  O  O12  1  0.71055076  0.07194197  0.78284148  1
  O  O13  1  0.71201097  0.07193496  0.28689843  1
  O  O14  1  0.64202470  0.21338413  0.85271925  1
  O  O15  1  0.57684599  0.35580752  0.93004638  1
  O  O16  1  0.64313858  0.21455673  0.35394296  1
  O  O17  1  0.49752442  0.50048479  0.49677076  1
  O  O18  1  0.57507211  0.35636198  0.42558197  1
  O  O19  1  0.49794582  0.50035960  0.00157275  1
  O  O20  1  0.43150494  0.64320874  0.57213281  1
  O  O21  1  0.42887993  0.64229717  0.07165161  1
  O  O22  1  0.28314854  0.92783436  0.70905904  1
  O  O23  1  0.28339187  0.92757993  0.21427599  1
  O  O24  1  0.35793748  0.78613941  0.63895639  1
  O  O25  1  0.35786693  0.78486009  0.13757456  1
  O  O26  1  0.35812178  0.28449876  0.64162293  1
  O  O27  1  0.42831779  0.14262639  0.07157378  1
  O  O28  1  0.28685006  0.42920544  0.21157668  1
  O  O29  1  0.21570929  0.57144924  0.78402671  1
  O  O30  1  0.07125548  0.85715224  0.92708934  1
  O  O31  1  0.14340088  0.71460808  0.35781800  1
  O  O32  1  0.50008338  0.00085263  0.49822748  1
  O  O33  1  0.00398375  0.50098164  0.00315802  1
  O  O34  1  0.14279612  0.21398541  0.35685292  1
  O  O35  1  0.00523064  0.50055029  0.49764672  1
  O  O36  1  0.14270881  0.21461280  0.85728888  1
  O  O37  1  0.06951777  0.35676956  0.92836403  1
  O  O38  1  0.21670157  0.07181509  0.28526980  1
  O  O39  1  0.07038275  0.35613778  0.42385730  1
  O  O40  1  0.21699269  0.07238184  0.78101101  1
  O  O41  1  0.00121263  0.99862620  0.49725406  1
loop_
_geom_bond_atom_site_label_1
_geom_bond_atom_site_label_2
_geom_bond_distance
_geom_bond_site_symmetry_2
Na0 O25 2.700134 1_556
Na0 O7 2.712341 1_555
Na0 O20 2.712938 1_555
Na0 O24 2.724660 1_555
Na0 O10 2.749757 1_556
Na0 O21 2.750163 1_556
Na0 O10 2.753755 1_555
Na0 O0 2.754392 1_556
Na0 O11 2.757008 1_555
Na0 O3 2.769351 1_555
Na0 O2 2.781461 1_555
Na0 O4 2.797169 1_556
Na1 O39 2.694508 1_655
Na1 O18 2.708587 1_555
Na1 O6 2.717664 1_555
Na1 O9 2.719668 1_555
Na1 O15 2.722438 1_554
Na1 O8 2.734843 1_555
Na1 O34 2.735358 1_655
Na1 O37 2.735416 1_654
Na1 O16 2.737266 1_555
Na1 O36 2.757116 1_654
Na1 O6 2.785336 1_554
Na1 O14 2.803934 1_554
Na2 O5 2.680145 1_455
Na2 O41 2.685868 1_555
Na2 O1 2.696129 1_455
Na2 O22 2.702309 1_555
Na2 O23 2.719217 1_555
Na2 O30 2.736991 1_555
Na2 O3 2.745138 1_455
Na2 O30 2.766524 1_554
Na2 O24 2.766778 1_555
Na2 O0 2.775613 1_455
Na2 O31 2.781778 1_555
Na2 O25 2.806369 1_555
Na3 O40 2.696708 1_555
Na3 O32 2.707659 1_555
Na3 O38 2.711574 1_555
Na3 O12 2.714691 1_555
Na3 O13 2.719093 1_555
Na3 O27 2.740328 1_555
Na3 O14 2.746847 1_555
Na3 O34 2.752377 1_555
Na3 O26 2.752678 1_555
Na3 O27 2.762784 1_556
Na3 O36 2.766657 1_555
Na3 O16 2.777792 1_555
Na4 O33 2.679698 1_555
Na4 O35 2.694608 1_555
Na4 O4 2.713889 1_455
Na4 O28 2.734494 1_555
Na4 O2 2.737104 1_455
Na4 O19 2.742976 1_555
Na4 O29 2.745043 1_554
Na4 O17 2.749993 1_555
Na4 O21 2.757757 1_555
Na4 O29 2.758456 1_555
Na4 O31 2.760157 1_555
Na4 O20 2.802301 1_555
O0 W1 1.943478 1_555
O0 W2 1.966457 1_554
O1 W2 1.922017 1_555
O1 W6 1.950345 1_565
O2 W1 1.946019 1_555
O2 W0 1.968729 1_555
O3 W1 1.944039 1_555
O3 W2 1.969514 1_555
O4 W1 1.944949 1_555
O4 W0 1.968553 1_554
O5 W2 1.922127 1_554
O5 W6 1.949651 1_565
O6 W11 1.954871 1_655
O6 W4 1.955061 1_555
O7 W2 1.933631 1_555
O7 W9 1.940252 1_555
O8 W12 1.933570 1_655
O8 W3 1.937256 1_555
O9 W5 1.945006 1_555
O9 W13 1.947460 1_655
O10 W1 1.945530 1_555
O10 W7 1.947728 1_555
O11 W0 1.936368 1_555
O11 W8 1.938104 1_555
O12 W3 1.931802 1_556
O12 W6 1.938405 1_555
O13 W3 1.933735 1_555
O13 W6 1.942189 1_555
O14 W4 1.953968 1_555
O14 W3 1.956700 1_556
O15 W4 1.932303 1_555
O15 W5 1.941600 1_556
O16 W3 1.954952 1_555
O16 W4 1.958300 1_555
O17 W8 1.920382 1_555
O17 W5 1.952202 1_555
O18 W4 1.933109 1_555
O18 W5 1.941043 1_555
O19 W8 1.922476 1_554
O19 W5 1.949415 1_555
O20 W7 1.947297 1_555
O20 W8 1.972039 1_555
O21 W7 1.941853 1_555
O21 W8 1.972073 1_554
O22 W9 1.923184 1_555
O22 W10 1.949175 1_565
O23 W9 1.921360 1_554
O23 W10 1.950830 1_565
O24 W7 1.943949 1_555
O24 W9 1.968256 1_555
O25 W7 1.947646 1_555
O25 W9 1.969631 1_554
O26 W11 1.934859 1_555
O26 W4 1.935241 1_555
O27 W3 1.952788 1_555
O27 W12 1.956667 1_555
O28 W13 1.942284 1_555
O28 W5 1.944822 1_555
O29 W8 1.952495 1_555
O29 W0 1.954117 1_455
O30 W9 1.949955 1_555
O30 W2 1.957210 1_455
O31 W7 1.942061 1_555
O31 W1 1.943945 1_455
O32 W10 1.942099 1_555
O32 W6 1.948336 1_555
O33 W0 1.923737 1_454
O33 W13 1.948947 1_555
O34 W12 1.958701 1_555
O34 W11 1.959415 1_555
O35 W0 1.924694 1_455
O35 W13 1.951546 1_555
O36 W12 1.954660 1_556
O36 W11 1.956331 1_555
O37 W11 1.930772 1_555
O37 W13 1.941643 1_556
O38 W12 1.932828 1_555
O38 W10 1.940211 1_555
O39 W11 1.932582 1_555
O39 W13 1.942089 1_555
O40 W12 1.934902 1_556
O40 W10 1.944415 1_555
O41 W6 1.941703 1_465
O41 W10 1.947647 1_565
