# generated using pymatgen
data_Mg3(AsO4)2
_symmetry_space_group_name_H-M   'P 1'
_cell_length_a   10.57309575
_cell_length_b   10.57309175
_cell_length_c   10.57306819
_cell_angle_alpha   142.43698833
_cell_angle_beta   142.43726529
_cell_angle_gamma   54.17073102
_symmetry_Int_Tables_number   1
_chemical_formula_structural   Mg3(AsO4)2
_chemical_formula_sum   'Mg9 As6 O24'
_cell_volume   436.33176973
_cell_formula_units_Z   3
loop_
 _symmetry_equiv_pos_site_id
 _symmetry_equiv_pos_as_xyz
  1  'x, y, z'
loop_
 _atom_site_type_symbol
 _atom_site_label
 _atom_site_symmetry_multiplicity
 _atom_site_fract_x
 _atom_site_fract_y
 _atom_site_fract_z
 _atom_site_occupancy
  Mg  Mg0  1  0.12852982  0.63233030  0.00862772  1
  Mg  Mg1  1  0.74997857  0.24997239  0.49997864  1
  Mg  Mg2  1  0.22732556  0.22732478  0.00000289  1
  Mg  Mg3  1  0.88014608  0.87148934  0.50385521  1
  Mg  Mg4  1  0.62367912  0.11986624  0.99131259  1
  Mg  Mg5  1  0.47885096  0.97884813  0.49999900  1
  Mg  Mg6  1  0.77267585  0.77267614  -0.00000094  1
  Mg  Mg7  1  0.02111537  0.52113150  0.49995298  1
  Mg  Mg8  1  0.36767718  0.37633007  0.49624907  1
  As  As0  1  0.00001468  0.00000375  0.00000629  1
  As  As1  1  0.62708467  0.52990903  0.40561322  1
  As  As2  1  0.12428089  0.22146008  0.59436801  1
  As  As3  1  0.47008947  0.87571229  0.09718086  1
  As  As4  1  0.24999379  0.74999676  0.49999580  1
  As  As5  1  0.77854462  0.37292723  0.90284876  1
  O  O0  1  0.16319311  0.90390831  0.15752939  1
  O  O1  1  0.44074073  0.67557790  0.32823958  1
  O  O2  1  0.80661924  0.61805068  0.72955325  1
  O  O3  1  0.92294115  0.19339284  0.81143794  1
  O  O4  1  0.14433754  0.45155778  0.71439776  1
  O  O5  1  0.08120939  0.31101922  0.78380064  1
  O  O6  1  0.52719450  0.29741726  0.21618102  1
  O  O7  1  0.73714428  0.42991107  0.28556034  1
  O  O8  1  0.38195918  0.11151762  0.18859022  1
  O  O9  1  0.99435756  0.83681022  0.74072914  1
  O  O10  1  0.57008935  0.85565604  0.30723858  1
  O  O11  1  0.88848794  0.07705044  0.27042778  1
  O  O12  1  0.34732479  0.11249337  0.67174838  1
  O  O13  1  0.70258743  0.91877470  0.22978918  1
  O  O14  1  0.14689337  0.91724660  0.65042730  1
  O  O15  1  0.74639070  0.00565554  0.84246708  1
  O  O16  1  0.50351898  0.85310464  0.77033605  1
  O  O17  1  0.32442329  0.65267770  0.76517911  1
  O  O18  1  0.88750295  0.55927019  0.23484621  1
  O  O19  1  0.08276227  0.73317542  0.22965049  1
  O  O20  1  0.26681729  0.49647571  0.34959117  1
  O  O21  1  0.68897746  0.47280573  0.77021630  1
  O  O22  1  0.54844656  0.26284702  0.69279568  1
  O  O23  1  0.09609731  0.25362395  0.25927929  1
loop_
_geom_bond_atom_site_label_1
_geom_bond_atom_site_label_2
_geom_bond_distance
_geom_bond_site_symmetry_2
Mg0 O0 2.002103 1_555
Mg0 O19 2.017566 1_555
Mg0 O1 2.039083 1_555
Mg0 O2 2.070587 1_454
Mg0 O4 2.093480 1_554
Mg0 O5 2.178040 1_554
Mg1 O13 2.144739 1_545
Mg1 O21 2.144984 1_555
Mg1 O5 2.145012 1_655
Mg1 O6 2.145071 1_555
Mg1 O8 2.615551 1_555
Mg1 O3 2.615621 1_555
Mg1 O11 2.615982 1_555
Mg1 O2 2.616099 1_555
Mg2 O14 2.050099 1_544
Mg2 O20 2.050198 1_555
Mg2 O6 2.098183 1_555
Mg2 O5 2.098297 1_554
Mg2 O3 2.122843 1_454
Mg2 O8 2.122904 1_555
Mg3 O9 2.001971 1_555
Mg3 O14 2.017326 1_655
Mg3 O18 2.039115 1_555
Mg3 O3 2.070541 1_565
Mg3 O10 2.093583 1_555
Mg3 O13 2.178213 1_555
Mg4 O15 2.002066 1_555
Mg4 O16 2.017441 1_545
Mg4 O12 2.038947 1_555
Mg4 O11 2.070703 1_556
Mg4 O7 2.093532 1_556
Mg4 O6 2.178247 1_556
Mg5 O22 2.053793 1_565
Mg5 O10 2.053832 1_555
Mg5 O0 2.065515 1_555
Mg5 O15 2.065527 1_565
Mg5 O1 2.205173 1_555
Mg5 O12 2.205241 1_565
Mg6 O19 2.050142 1_655
Mg6 O16 2.050163 1_554
Mg6 O21 2.098209 1_554
Mg6 O13 2.098214 1_555
Mg6 O11 2.122817 1_565
Mg6 O2 2.122906 1_554
Mg7 O7 2.053669 1_455
Mg7 O4 2.053864 1_555
Mg7 O23 2.065519 1_555
Mg7 O9 2.065589 1_455
Mg7 O18 2.205075 1_455
Mg7 O17 2.205406 1_555
Mg8 O23 2.002041 1_555
Mg8 O20 2.017582 1_555
Mg8 O17 2.038937 1_555
Mg8 O8 2.070785 1_555
Mg8 O22 2.093444 1_555
Mg8 O21 2.177985 1_555
As0 O9 1.690488 1_444
As0 O23 1.690501 1_555
As0 O0 1.690504 1_545
As0 O15 1.690518 1_454
As1 O1 1.677139 1_555
As1 O7 1.690225 1_555
As1 O2 1.704724 1_555
As1 O6 1.746422 1_555
As2 O12 1.677134 1_555
As2 O4 1.690214 1_555
As2 O11 1.704716 1_455
As2 O5 1.746430 1_555
As3 O17 1.677096 1_554
As3 O10 1.690221 1_555
As3 O8 1.704736 1_565
As3 O13 1.746453 1_555
As4 O19 1.696461 1_555
As4 O20 1.696462 1_555
As4 O16 1.696469 1_555
As4 O14 1.696485 1_555
As5 O18 1.677083 1_556
As5 O22 1.690232 1_555
As5 O3 1.704737 1_555
As5 O21 1.746453 1_555
