# generated using pymatgen
data_LiCuCO3
_symmetry_space_group_name_H-M   'P 1'
_cell_length_a   3.05134200
_cell_length_b   14.37116448
_cell_length_c   14.37378063
_cell_angle_alpha   60.04097520
_cell_angle_beta   89.55599233
_cell_angle_gamma   89.32054787
_symmetry_Int_Tables_number   1
_chemical_formula_structural   LiCuCO3
_chemical_formula_sum   'Li9 Cu9 C9 O27'
_cell_volume   546.04967913
_cell_formula_units_Z   9
loop_
 _symmetry_equiv_pos_site_id
 _symmetry_equiv_pos_as_xyz
  1  'x, y, z'
loop_
 _atom_site_type_symbol
 _atom_site_label
 _atom_site_symmetry_multiplicity
 _atom_site_fract_x
 _atom_site_fract_y
 _atom_site_fract_z
 _atom_site_occupancy
  Li  Li0  1  0.51196600  0.88135400  0.90552300  1
  Li  Li1  1  0.48244200  0.56424400  0.88262900  1
  Li  Li2  1  0.55613000  0.88170400  0.55353800  1
  Li  Li3  1  0.51091600  0.21302400  0.88205500  1
  Li  Li4  1  0.45497300  0.55367300  0.56518000  1
  Li  Li5  1  0.50331900  0.25417200  0.54385400  1
  Li  Li6  1  0.49083900  0.90569300  0.21304700  1
  Li  Li7  1  0.48834300  0.54369000  0.20246500  1
  Li  Li8  1  0.50372000  0.20189200  0.25491400  1
  Cu  Cu0  1  0.06488300  0.79122100  0.76753900  1
  Cu  Cu1  1  0.01028300  0.44130200  0.79237900  1
  Cu  Cu2  1  0.01922700  0.11567200  0.77042500  1
  Cu  Cu3  1  0.93974100  0.76756600  0.44179800  1
  Cu  Cu4  1  0.96736100  0.46428100  0.43332800  1
  Cu  Cu5  1  0.03851100  0.10280700  0.46469600  1
  Cu  Cu6  1  0.98459200  0.77031300  0.11467300  1
  Cu  Cu7  1  0.98045000  0.43249500  0.10375300  1
  Cu  Cu8  1  0.00522700  0.11394200  0.11600000  1
  C  C0  1  0.00132900  0.66336800  0.99198200  1
  C  C1  1  0.99764700  0.66672800  0.66715700  1
  C  C2  1  0.98992500  0.34487500  0.66415300  1
  C  C3  1  0.00956200  0.99157300  0.34520900  1
  C  C4  1  0.52703100  0.01211000  0.66739900  1
  C  C5  1  0.46759400  0.66705000  0.32123800  1
  C  C6  1  0.99750000  0.33305400  0.33399200  1
  C  C7  1  0.00358500  0.99985800  0.00029500  1
  C  C8  1  0.50520800  0.32027900  0.01315000  1
  O  O0  1  0.00136200  0.91932100  0.98280200  1
  O  O1  1  0.97953000  0.58402900  0.97264000  1
  O  O2  1  0.06057200  0.76185100  0.91328200  1
  O  O3  1  0.55756900  0.92230000  0.66708800  1
  O  O4  1  0.50353900  0.41046800  0.92321200  1
  O  O5  1  0.00751500  0.58850000  0.76642900  1
  O  O6  1  0.05200700  0.76526800  0.64514800  1
  O  O7  1  0.01751100  0.09766200  0.91949600  1
  O  O8  1  0.04396800  0.97203300  0.44363700  1
  O  O9  1  0.04176600  0.32443100  0.76312600  1
  O  O10  1  0.93751900  0.64654200  0.58951300  1
  O  O11  1  0.93655100  0.91324600  0.32544800  1
  O  O12  1  0.96718700  0.26524400  0.64578000  1
  O  O13  1  0.96658600  0.44378600  0.58493900  1
  O  O14  1  0.51087100  0.01191800  0.75860700  1
  O  O15  1  0.45070600  0.66718400  0.41123300  1
  O  O16  1  0.47400300  0.57608900  0.32087400  1
  O  O17  1  0.51558700  0.10325500  0.57641900  1
  O  O18  1  0.99656800  0.98245100  0.09852600  1
  O  O19  1  0.47589000  0.75832500  0.23033600  1
  O  O20  1  0.00235200  0.32579600  0.42795400  1
  O  O21  1  0.00113300  0.24635100  0.32660200  1
  O  O22  1  0.98948100  0.42716600  0.24742100  1
  O  O23  1  0.96635700  0.64501300  0.08992300  1
  O  O24  1  0.04491700  0.08931300  0.26572500  1
  O  O25  1  0.49758100  0.32018900  0.10424800  1
  O  O26  1  0.51488700  0.22923700  0.01274800  1
loop_
_geom_bond_atom_site_label_1
_geom_bond_atom_site_label_2
_geom_bond_distance
_geom_bond_site_symmetry_2
Li0 O14 2.005657 1_565
Li0 O0 2.100457 1_655
Li0 O0 2.125409 1_555
Li0 O2 2.172885 1_555
Li0 O2 2.346812 1_655
Li1 O4 1.984423 1_555
Li1 O1 2.106162 1_455
Li1 O5 2.110759 1_555
Li1 O1 2.112689 1_555
Li1 O5 2.206453 1_655
Li2 O3 1.988839 1_555
Li2 O8 2.087502 1_655
Li2 O8 2.136563 1_555
Li2 O6 2.143250 1_655
Li2 O6 2.174654 1_555
Li3 O26 2.005237 1_556
Li3 O7 2.111968 1_555
Li3 O7 2.118653 1_655
Li3 O9 2.187450 1_555
Li3 O9 2.322591 1_655
Li4 O15 1.988078 1_555
Li4 O13 2.096819 1_455
Li4 O13 2.124158 1_555
Li4 O10 2.142986 1_555
Li4 O10 2.191867 1_455
Li5 O17 1.977076 1_555
Li5 O20 2.106819 1_655
Li5 O12 2.108423 1_555
Li5 O20 2.112105 1_555
Li5 O12 2.244432 1_455
Li6 O19 2.006387 1_555
Li6 O18 2.094414 1_455
Li6 O18 2.120197 1_555
Li6 O11 2.164346 1_555
Li6 O11 2.368766 1_455
Li7 O16 1.976185 1_555
Li7 O22 2.105683 1_555
Li7 O22 2.122107 1_455
Li7 O23 2.127391 1_555
Li7 O23 2.215023 1_455
Li8 O25 1.975671 1_555
Li8 O24 2.097824 1_555
Li8 O21 2.105149 1_555
Li8 O21 2.116235 1_655
Li8 O24 2.249061 1_655
Cu0 O2 1.919227 1_555
Cu0 O6 1.972882 1_555
Cu0 O3 2.282621 1_555
Cu0 O3 2.297502 1_455
Cu1 O9 1.925587 1_555
Cu1 O5 1.955940 1_555
Cu1 O4 2.279024 1_555
Cu1 O4 2.294050 1_455
Cu2 O12 2.001381 1_455
Cu2 O7 2.025882 1_555
Cu2 O14 2.167632 1_555
Cu2 O14 2.229387 1_455
Cu3 O11 1.919092 1_555
Cu3 O10 1.960851 1_555
Cu3 O15 2.279264 1_555
Cu3 O15 2.296530 1_655
Cu4 O20 2.031403 1_655
Cu4 O13 2.048082 1_555
Cu4 O16 2.201619 1_555
Cu4 O16 2.238448 1_655
Cu5 O21 2.028989 1_555
Cu5 O8 2.047269 1_545
Cu5 O17 2.178257 1_555
Cu5 O17 2.257271 1_455
Cu6 O23 2.003670 1_555
Cu6 O0 2.031810 1_654
Cu6 O19 2.188019 1_655
Cu6 O19 2.209822 1_555
Cu7 O22 2.028286 1_555
Cu7 O1 2.048185 1_554
Cu7 O25 2.195590 1_555
Cu7 O25 2.241239 1_655
Cu8 O24 2.003440 1_555
Cu8 O18 2.027312 1_445
Cu8 O26 2.169378 1_455
Cu8 O26 2.221667 1_555
C0 O23 1.300104 1_456
C0 O1 1.304012 1_455
C0 O2 1.311221 1_555
C1 O6 1.300132 1_655
C1 O10 1.300443 1_555
C1 O5 1.303285 1_655
C2 O12 1.299308 1_555
C2 O13 1.305539 1_555
C2 O9 1.311531 1_655
C3 O24 1.299543 1_565
C3 O8 1.302418 1_555
C3 O11 1.312883 1_455
C4 O3 1.295163 1_545
C4 O17 1.309927 1_555
C4 O14 1.310175 1_555
C5 O15 1.295157 1_555
C5 O16 1.309750 1_555
C5 O19 1.310334 1_555
C6 O20 1.301831 1_655
C6 O21 1.302238 1_655
C6 O22 1.302710 1_555
C7 O0 1.301437 1_554
C7 O7 1.302496 1_564
C7 O18 1.305192 1_455
C8 O4 1.295229 1_554
C8 O25 1.308804 1_555
C8 O26 1.311257 1_555
