# generated using pymatgen
data_LiFe(Si2O5)3
_symmetry_space_group_name_H-M   'P 1'
_cell_length_a   11.23808104
_cell_length_b   11.23808104
_cell_length_c   10.01759200
_cell_angle_alpha   90.00000000
_cell_angle_beta   90.00000000
_cell_angle_gamma   99.37228103
_symmetry_Int_Tables_number   1
_chemical_formula_structural   LiFe(Si2O5)3
_chemical_formula_sum   'Li4 Fe4 Si24 O60'
_cell_volume   1248.27779810
_cell_formula_units_Z   4
loop_
 _symmetry_equiv_pos_site_id
 _symmetry_equiv_pos_as_xyz
  1  'x, y, z'
loop_
 _atom_site_type_symbol
 _atom_site_label
 _atom_site_symmetry_multiplicity
 _atom_site_fract_x
 _atom_site_fract_y
 _atom_site_fract_z
 _atom_site_occupancy
  Li  Li0  1  0.24906700  0.24906700  0.50000000  1
  Li  Li1  1  0.25093300  0.25093300  0.00000000  1
  Li  Li2  1  0.74906700  0.74906700  0.00000000  1
  Li  Li3  1  0.75093300  0.75093300  0.50000000  1
  Fe  Fe0  1  0.15993800  0.34006200  0.75000000  1
  Fe  Fe1  1  0.34006200  0.15993800  0.25000000  1
  Fe  Fe2  1  0.65993800  0.84006200  0.75000000  1
  Fe  Fe3  1  0.84006200  0.65993800  0.25000000  1
  Si  Si0  1  0.02444800  0.75905300  0.99203700  1
  Si  Si1  1  0.07593500  0.70687800  0.45477900  1
  Si  Si2  1  0.04433400  0.17361300  0.30331700  1
  Si  Si3  1  0.24094700  0.97555200  0.99203700  1
  Si  Si4  1  0.20687800  0.57593500  0.95477900  1
  Si  Si5  1  0.29312200  0.92406500  0.45477900  1
  Si  Si6  1  0.25905300  0.52444800  0.49203700  1
  Si  Si7  1  0.17361300  0.04433400  0.69668300  1
  Si  Si8  1  0.32638700  0.45566600  0.19668300  1
  Si  Si9  1  0.42406500  0.79312200  0.95477900  1
  Si  Si10  1  0.47555200  0.74094700  0.49203700  1
  Si  Si11  1  0.45566600  0.32638700  0.80331700  1
  Si  Si12  1  0.54433400  0.67361300  0.19668300  1
  Si  Si13  1  0.52444800  0.25905300  0.50796300  1
  Si  Si14  1  0.57593500  0.20687800  0.04522100  1
  Si  Si15  1  0.67361300  0.54433400  0.80331700  1
  Si  Si16  1  0.82638700  0.95566600  0.30331700  1
  Si  Si17  1  0.74094700  0.47555200  0.50796300  1
  Si  Si18  1  0.70687800  0.07593500  0.54522100  1
  Si  Si19  1  0.79312200  0.42406500  0.04522100  1
  Si  Si20  1  0.75905300  0.02444800  0.00796300  1
  Si  Si21  1  0.95566600  0.82638700  0.69668300  1
  Si  Si22  1  0.92406500  0.29312200  0.54522100  1
  Si  Si23  1  0.97555200  0.24094700  0.00796300  1
  O  O0  1  0.04342900  0.95657100  0.69211300  1
  O  O1  1  0.99896400  0.65598100  0.32361900  1
  O  O2  1  0.11678300  0.88321700  0.02460700  1
  O  O3  1  0.00657100  0.26183700  0.42073700  1
  O  O4  1  0.09862700  0.64628200  0.00438600  1
  O  O5  1  0.02838900  0.23724600  0.16007000  1
  O  O6  1  0.17422100  0.82577900  0.41768500  1
  O  O7  1  0.14628200  0.59862700  0.50438600  1
  O  O8  1  0.09370800  0.25553000  0.91333800  1
  O  O9  1  0.15598100  0.49896400  0.82361900  1
  O  O10  1  0.16236500  0.18300600  0.66140500  1
  O  O11  1  0.23816300  0.49342900  0.07926300  1
  O  O12  1  0.18300600  0.16236500  0.33859500  1
  O  O13  1  0.34401900  0.00103600  0.32361900  1
  O  O14  1  0.26275400  0.47161100  0.33993000  1
  O  O15  1  0.24447000  0.40629200  0.58666200  1
  O  O16  1  0.35371800  0.90137300  0.00438600  1
  O  O17  1  0.32577900  0.67422100  0.91768500  1
  O  O18  1  0.25553000  0.09370800  0.08666200  1
  O  O19  1  0.23724600  0.02838900  0.83993000  1
  O  O20  1  0.40137300  0.85371800  0.50438600  1
  O  O21  1  0.31699400  0.33763500  0.83859500  1
  O  O22  1  0.26183700  0.00657100  0.57926300  1
  O  O23  1  0.38321700  0.61678300  0.52460700  1
  O  O24  1  0.33763500  0.31699400  0.16140500  1
  O  O25  1  0.50103600  0.84401900  0.82361900  1
  O  O26  1  0.45657100  0.54342900  0.19211300  1
  O  O27  1  0.40629200  0.24447000  0.41333800  1
  O  O28  1  0.50657100  0.76183700  0.07926300  1
  O  O29  1  0.52838900  0.73724600  0.33993000  1
  O  O30  1  0.47161100  0.26275400  0.66007000  1
  O  O31  1  0.49342900  0.23816300  0.92073700  1
  O  O32  1  0.59370800  0.75553000  0.58666200  1
  O  O33  1  0.54342900  0.45657100  0.80788700  1
  O  O34  1  0.49896400  0.15598100  0.17638100  1
  O  O35  1  0.66236500  0.68300600  0.83859500  1
  O  O36  1  0.61678300  0.38321700  0.47539300  1
  O  O37  1  0.73816300  0.99342900  0.42073700  1
  O  O38  1  0.68300600  0.66236500  0.16140500  1
  O  O39  1  0.59862700  0.14628200  0.49561400  1
  O  O40  1  0.76275400  0.97161100  0.16007000  1
  O  O41  1  0.74447000  0.90629200  0.91333800  1
  O  O42  1  0.67422100  0.32577900  0.08231500  1
  O  O43  1  0.64628200  0.09862700  0.99561400  1
  O  O44  1  0.75553000  0.59370800  0.41333800  1
  O  O45  1  0.73724600  0.52838900  0.66007000  1
  O  O46  1  0.65598100  0.99896400  0.67638100  1
  O  O47  1  0.81699400  0.83763500  0.66140500  1
  O  O48  1  0.76183700  0.50657100  0.92073700  1
  O  O49  1  0.83763500  0.81699400  0.33859500  1
  O  O50  1  0.84401900  0.50103600  0.17638100  1
  O  O51  1  0.90629200  0.74447000  0.08666200  1
  O  O52  1  0.85371800  0.40137300  0.49561400  1
  O  O53  1  0.82577900  0.17422100  0.58231500  1
  O  O54  1  0.97161100  0.76275400  0.83993000  1
  O  O55  1  0.90137300  0.35371800  0.99561400  1
  O  O56  1  0.99342900  0.73816300  0.57926300  1
  O  O57  1  0.88321700  0.11678300  0.97539300  1
  O  O58  1  0.00103600  0.34401900  0.67638100  1
  O  O59  1  0.95657100  0.04342900  0.30788700  1
loop_
_geom_bond_atom_site_label_1
_geom_bond_atom_site_label_2
_geom_bond_distance
_geom_bond_site_symmetry_2
Li0 O10 1.969587 1_555
Li0 O12 1.969587 1_555
Li0 O15 1.976875 1_555
Li0 O27 1.976875 1_555
Li1 O24 1.969587 1_555
Li1 O21 1.969587 1_554
Li1 O18 1.976875 1_555
Li1 O8 1.976875 1_554
Li2 O35 1.969587 1_554
Li2 O38 1.969587 1_555
Li2 O41 1.976875 1_554
Li2 O51 1.976875 1_555
Li3 O49 1.969587 1_555
Li3 O47 1.969587 1_555
Li3 O44 1.976875 1_555
Li3 O32 1.976875 1_555
Fe0 O58 1.939237 1_555
Fe0 O9 1.939237 1_555
Fe0 O8 1.975721 1_555
Fe0 O15 1.975721 1_555
Fe0 O10 1.979734 1_555
Fe0 O21 1.979734 1_555
Fe1 O13 1.939237 1_555
Fe1 O34 1.939237 1_555
Fe1 O27 1.975721 1_555
Fe1 O18 1.975721 1_555
Fe1 O12 1.979734 1_555
Fe1 O24 1.979734 1_555
Fe2 O46 1.939237 1_555
Fe2 O25 1.939237 1_555
Fe2 O32 1.975721 1_555
Fe2 O41 1.975721 1_555
Fe2 O35 1.979734 1_555
Fe2 O47 1.979734 1_555
Fe3 O50 1.939237 1_555
Fe3 O1 1.939237 1_555
Fe3 O44 1.975721 1_555
Fe3 O51 1.975721 1_555
Fe3 O49 1.979734 1_555
Fe3 O38 1.979734 1_555
O0 Si21 1.626442 1_455
O0 Si7 1.626442 1_565
O1 Si1 1.624995 1_655
O2 Si3 1.630542 1_554
O2 Si0 1.630542 1_554
O3 Si22 1.626218 1_455
O3 Si2 1.638217 1_555
O4 Si0 1.631092 1_554
O4 Si4 1.632525 1_554
O5 Si2 1.626170 1_555
O5 Si23 1.638340 1_455
O6 Si5 1.631834 1_555
O6 Si1 1.631834 1_555
O7 Si6 1.631092 1_555
O7 Si1 1.632525 1_555
O8 Si23 1.617931 1_456
O9 Si4 1.624995 1_555
O10 Si7 1.622856 1_555
O11 Si4 1.626218 1_554
O11 Si8 1.638217 1_555
O12 Si2 1.622856 1_555
O13 Si5 1.624995 1_545
O14 Si8 1.626170 1_555
O14 Si6 1.638340 1_555
O15 Si6 1.617931 1_555
O16 Si3 1.631092 1_554
O16 Si9 1.632525 1_554
O17 Si4 1.631834 1_555
O17 Si9 1.631834 1_555
O18 Si3 1.617931 1_544
O19 Si7 1.626170 1_555
O19 Si3 1.638340 1_545
O20 Si10 1.631092 1_555
O20 Si5 1.632525 1_555
O21 Si11 1.622856 1_555
O22 Si5 1.626218 1_545
O22 Si7 1.638217 1_555
O23 Si6 1.630542 1_555
O23 Si10 1.630542 1_555
O24 Si8 1.622856 1_555
O25 Si9 1.624995 1_555
O26 Si12 1.626442 1_555
O26 Si8 1.626442 1_555
O27 Si13 1.617931 1_555
O28 Si9 1.626218 1_554
O28 Si12 1.638217 1_555
O29 Si12 1.626170 1_555
O29 Si10 1.638340 1_555
O30 Si11 1.626170 1_555
O30 Si13 1.638340 1_555
O31 Si14 1.626218 1_556
O31 Si11 1.638217 1_555
O32 Si10 1.617931 1_555
O33 Si15 1.626442 1_555
O33 Si11 1.626442 1_555
O34 Si14 1.624995 1_555
O35 Si15 1.622856 1_555
O36 Si13 1.630542 1_555
O36 Si17 1.630542 1_555
O37 Si18 1.626218 1_565
O37 Si16 1.638217 1_555
O38 Si12 1.622856 1_555
O39 Si13 1.631092 1_555
O39 Si18 1.632525 1_555
O40 Si16 1.626170 1_555
O40 Si20 1.638340 1_565
O41 Si20 1.617931 1_566
O42 Si14 1.631834 1_555
O42 Si19 1.631834 1_555
O43 Si20 1.631092 1_556
O43 Si14 1.632525 1_556
O44 Si17 1.617931 1_555
O45 Si15 1.626170 1_555
O45 Si17 1.638340 1_555
O46 Si18 1.624995 1_565
O47 Si21 1.622856 1_555
O48 Si19 1.626218 1_556
O48 Si15 1.638217 1_555
O49 Si16 1.622856 1_555
O50 Si19 1.624995 1_555
O51 Si0 1.617931 1_654
O52 Si17 1.631092 1_555
O52 Si22 1.632525 1_555
O53 Si22 1.631834 1_555
O53 Si18 1.631834 1_555
O54 Si21 1.626170 1_555
O54 Si0 1.638340 1_655
O55 Si23 1.631092 1_556
O55 Si19 1.632525 1_556
O56 Si1 1.626218 1_655
O56 Si21 1.638217 1_555
O57 Si23 1.630542 1_556
O57 Si20 1.630542 1_556
O58 Si22 1.624995 1_455
O59 Si16 1.626442 1_545
O59 Si2 1.626442 1_655
