# generated using pymatgen
data_Na11Mn13O32
_symmetry_space_group_name_H-M   'P 1'
_cell_length_a   6.06472999
_cell_length_b   6.06472999
_cell_length_c   21.27492355
_cell_angle_alpha   80.08620270
_cell_angle_beta   80.08620270
_cell_angle_gamma   59.23548824
_symmetry_Int_Tables_number   1
_chemical_formula_structural   Na11Mn13O32
_chemical_formula_sum   'Na11 Mn13 O32'
_cell_volume   659.07661262
_cell_formula_units_Z   1
loop_
 _symmetry_equiv_pos_site_id
 _symmetry_equiv_pos_as_xyz
  1  'x, y, z'
loop_
 _atom_site_type_symbol
 _atom_site_label
 _atom_site_symmetry_multiplicity
 _atom_site_fract_x
 _atom_site_fract_y
 _atom_site_fract_z
 _atom_site_occupancy
  Na  Na0  1  0.50000000  0.50000000  0.50000000  1
  Na  Na1  1  0.29102700  0.29102700  0.64775900  1
  Na  Na2  1  0.97629000  0.97629000  0.59004200  1
  Na  Na3  1  0.70897300  0.70897300  0.35224100  1
  Na  Na4  1  0.02371000  0.02371000  0.40995800  1
  Na  Na5  1  0.46311500  0.46311500  0.09594700  1
  Na  Na6  1  0.12309400  0.12309400  0.12991000  1
  Na  Na7  1  0.78516000  0.78516000  0.15909300  1
  Na  Na8  1  0.53688500  0.53688500  0.90405300  1
  Na  Na9  1  0.21484000  0.21484000  0.84090700  1
  Na  Na10  1  0.87690600  0.87690600  0.87009000  1
  Mn  Mn0  1  0.63792400  0.63792400  0.62031400  1
  Mn  Mn1  1  0.50000000  0.00000000  0.50000000  1
  Mn  Mn2  1  0.00000000  0.50000000  0.50000000  1
  Mn  Mn3  1  0.36207600  0.36207600  0.37968600  1
  Mn  Mn4  1  0.24285300  0.74787900  0.25958200  1
  Mn  Mn5  1  0.00000000  0.50000000  0.00000000  1
  Mn  Mn6  1  0.74787900  0.24285300  0.25958200  1
  Mn  Mn7  1  0.24334700  0.24334700  0.25876000  1
  Mn  Mn8  1  0.00000000  0.00000000  0.00000000  1
  Mn  Mn9  1  0.25212100  0.75714700  0.74041800  1
  Mn  Mn10  1  0.50000000  0.00000000  0.00000000  1
  Mn  Mn11  1  0.75665300  0.75665300  0.74124000  1
  Mn  Mn12  1  0.75714700  0.25212100  0.74041800  1
  O  O0  1  0.81690600  0.37719800  0.56613700  1
  O  O1  1  0.70148200  0.70148200  0.45484400  1
  O  O2  1  0.80159700  0.80159700  0.55252600  1
  O  O3  1  0.29851800  0.29851800  0.54515600  1
  O  O4  1  0.62280200  0.18309400  0.43386300  1
  O  O5  1  0.18309400  0.62280200  0.43386300  1
  O  O6  1  0.94170700  0.39854800  0.21376100  1
  O  O7  1  0.10887500  0.52824700  0.31292500  1
  O  O8  1  0.37719800  0.81690600  0.56613700  1
  O  O9  1  0.52692200  0.52692200  0.31592400  1
  O  O10  1  0.43127600  0.43127600  0.21098500  1
  O  O11  1  0.29690100  0.29690100  0.04693500  1
  O  O12  1  0.94509500  0.94509500  0.21403500  1
  O  O13  1  0.19840300  0.19840300  0.44747400  1
  O  O14  1  0.06056300  0.06056300  0.30626400  1
  O  O15  1  0.39854800  0.94170700  0.21376100  1
  O  O16  1  0.14531900  0.70460700  0.95267200  1
  O  O17  1  0.52824700  0.10887500  0.31292500  1
  O  O18  1  0.85468100  0.29539300  0.04732800  1
  O  O19  1  0.29539300  0.85468100  0.04732800  1
  O  O20  1  0.18627700  0.18627700  0.95006500  1
  O  O21  1  0.70309900  0.70309900  0.95306500  1
  O  O22  1  0.56872400  0.56872400  0.78901500  1
  O  O23  1  0.47307800  0.47307800  0.68407600  1
  O  O24  1  0.81372300  0.81372300  0.04993500  1
  O  O25  1  0.89112500  0.47175300  0.68707500  1
  O  O26  1  0.47175300  0.89112500  0.68707500  1
  O  O27  1  0.70460700  0.14531900  0.95267200  1
  O  O28  1  0.05829300  0.60145200  0.78623900  1
  O  O29  1  0.60145200  0.05829300  0.78623900  1
  O  O30  1  0.05490500  0.05490500  0.78596500  1
  O  O31  1  0.93943700  0.93943700  0.69373600  1
loop_
_geom_bond_atom_site_label_1
_geom_bond_atom_site_label_2
_geom_bond_distance
_geom_bond_site_symmetry_2
Na0 O1 2.151335 1_555
Na0 O3 2.151335 1_555
Na0 O0 2.309626 1_555
Na0 O8 2.309626 1_555
Na0 O4 2.309626 1_555
Na0 O5 2.309626 1_555
Na1 O26 2.163503 1_545
Na1 O25 2.163503 1_455
Na1 O3 2.168610 1_555
Na1 O23 2.206708 1_555
Na2 O0 2.108044 1_565
Na2 O8 2.108044 1_655
Na2 O2 2.147704 1_555
Na2 O31 2.162926 1_555
Na3 O17 2.163503 1_565
Na3 O7 2.163503 1_655
Na3 O1 2.168610 1_555
Na3 O9 2.206708 1_555
Na4 O5 2.108044 1_545
Na4 O4 2.108044 1_455
Na4 O13 2.147704 1_555
Na4 O14 2.162926 1_555
Na5 O18 2.188447 1_555
Na5 O19 2.188447 1_555
Na5 O11 2.209749 1_555
Na5 O10 2.403570 1_555
Na6 O11 2.278969 1_555
Na6 O12 2.322834 1_445
Na6 O19 2.332609 1_545
Na6 O18 2.332609 1_455
Na6 O15 2.377747 1_545
Na6 O6 2.377747 1_455
Na7 O15 2.217110 1_555
Na7 O6 2.217110 1_555
Na7 O12 2.234106 1_555
Na7 O24 2.281859 1_555
Na8 O27 2.188447 1_555
Na8 O16 2.188447 1_555
Na8 O21 2.209749 1_555
Na8 O22 2.403570 1_555
Na9 O29 2.217110 1_555
Na9 O28 2.217110 1_555
Na9 O30 2.234106 1_555
Na9 O20 2.281859 1_555
Na10 O21 2.278969 1_555
Na10 O30 2.322834 1_665
Na10 O16 2.332609 1_655
Na10 O27 2.332609 1_565
Na10 O28 2.377747 1_655
Na10 O29 2.377747 1_565
Mn0 O8 1.856858 1_555
Mn0 O0 1.856858 1_555
Mn0 O23 1.981845 1_555
Mn0 O25 2.016431 1_555
Mn0 O26 2.016431 1_555
Mn0 O2 2.018086 1_555
Mn1 O3 1.904003 1_555
Mn1 O1 1.904003 1_545
Mn1 O4 1.927360 1_555
Mn1 O8 1.927360 1_545
Mn1 O2 2.007858 1_545
Mn1 O13 2.007858 1_555
Mn2 O3 1.904003 1_555
Mn2 O1 1.904003 1_455
Mn2 O5 1.927360 1_555
Mn2 O0 1.927360 1_455
Mn2 O2 2.007858 1_455
Mn2 O13 2.007858 1_555
Mn3 O4 1.856858 1_555
Mn3 O5 1.856858 1_555
Mn3 O9 1.981845 1_555
Mn3 O17 2.016431 1_555
Mn3 O7 2.016431 1_555
Mn3 O13 2.018086 1_555
Mn4 O12 1.903783 1_455
Mn4 O15 1.909906 1_555
Mn4 O14 1.982520 1_565
Mn4 O7 1.997897 1_555
Mn4 O9 1.999195 1_555
Mn4 O10 2.023283 1_555
Mn5 O11 1.919153 1_555
Mn5 O21 1.919153 1_454
Mn5 O16 1.927013 1_554
Mn5 O18 1.927013 1_455
Mn5 O24 2.027003 1_455
Mn5 O20 2.027003 1_554
Mn6 O12 1.903783 1_545
Mn6 O6 1.909906 1_555
Mn6 O14 1.982520 1_655
Mn6 O17 1.997897 1_555
Mn6 O9 1.999195 1_555
Mn6 O10 2.023283 1_555
Mn7 O15 1.918406 1_545
Mn7 O6 1.918406 1_455
Mn7 O7 1.974563 1_555
Mn7 O17 1.974563 1_555
Mn7 O14 1.991158 1_555
Mn7 O10 2.040154 1_555
Mn8 O19 1.923620 1_545
Mn8 O18 1.923620 1_455
Mn8 O27 1.923620 1_454
Mn8 O16 1.923620 1_544
Mn8 O24 2.039676 1_445
Mn8 O20 2.039676 1_554
Mn9 O30 1.903783 1_565
Mn9 O28 1.909906 1_555
Mn9 O31 1.982520 1_455
Mn9 O26 1.997897 1_555
Mn9 O23 1.999195 1_555
Mn9 O22 2.023283 1_555
Mn10 O11 1.919153 1_555
Mn10 O21 1.919153 1_544
Mn10 O27 1.927013 1_554
Mn10 O19 1.927013 1_545
Mn10 O24 2.027003 1_545
Mn10 O20 2.027003 1_554
Mn11 O28 1.918406 1_655
Mn11 O29 1.918406 1_565
Mn11 O25 1.974563 1_555
Mn11 O26 1.974563 1_555
Mn11 O31 1.991158 1_555
Mn11 O22 2.040154 1_555
Mn12 O30 1.903783 1_655
Mn12 O29 1.909906 1_555
Mn12 O31 1.982520 1_545
Mn12 O25 1.997897 1_555
Mn12 O23 1.999195 1_555
Mn12 O22 2.023283 1_555
