# generated using pymatgen
data_LiMnB2O5
_symmetry_space_group_name_H-M   'P 1'
_cell_length_a   7.19837535
_cell_length_b   7.19837535
_cell_length_c   9.50672150
_cell_angle_alpha   73.51549534
_cell_angle_beta   73.51549534
_cell_angle_gamma   96.55578935
_symmetry_Int_Tables_number   1
_chemical_formula_structural   LiMnB2O5
_chemical_formula_sum   'Li4 Mn4 B8 O20'
_cell_volume   442.67298540
_cell_formula_units_Z   4
loop_
 _symmetry_equiv_pos_site_id
 _symmetry_equiv_pos_as_xyz
  1  'x, y, z'
loop_
 _atom_site_type_symbol
 _atom_site_label
 _atom_site_symmetry_multiplicity
 _atom_site_fract_x
 _atom_site_fract_y
 _atom_site_fract_z
 _atom_site_occupancy
  Li  Li0  1  0.83238600  0.16761400  0.25000000  1
  Li  Li1  1  0.39182500  0.60817500  0.25000000  1
  Li  Li2  1  0.60817500  0.39182500  0.75000000  1
  Li  Li3  1  0.16761400  0.83238600  0.75000000  1
  Mn  Mn0  1  0.95396600  0.63882900  0.15213400  1
  Mn  Mn1  1  0.63882900  0.95396600  0.65213400  1
  Mn  Mn2  1  0.36117100  0.04603400  0.34786600  1
  Mn  Mn3  1  0.04603400  0.36117100  0.84786600  1
  B  B0  1  0.75656000  0.77251300  0.40295400  1
  B  B1  1  0.73547700  0.40418000  0.47684800  1
  B  B2  1  0.77251300  0.75656000  0.90295400  1
  B  B3  1  0.40418000  0.73547700  0.97684800  1
  B  B4  1  0.59582000  0.26452300  0.02315200  1
  B  B5  1  0.22748700  0.24344000  0.09704600  1
  B  B6  1  0.26452300  0.59582000  0.52315200  1
  B  B7  1  0.24344000  0.22748700  0.59704600  1
  O  O0  1  0.72452800  0.93383600  0.44767800  1
  O  O1  1  0.82753900  0.80605500  0.24634100  1
  O  O2  1  0.93383600  0.72452800  0.94767800  1
  O  O3  1  0.83352800  0.40579800  0.33052000  1
  O  O4  1  0.35153600  0.76107100  0.39676200  1
  O  O5  1  0.80605500  0.82753900  0.74634100  1
  O  O6  1  0.58181400  0.71638400  0.01321200  1
  O  O7  1  0.28361600  0.41818600  0.48678800  1
  O  O8  1  0.40579800  0.83352800  0.83052000  1
  O  O9  1  0.76107100  0.35153600  0.89676200  1
  O  O10  1  0.23892900  0.64846400  0.10323800  1
  O  O11  1  0.59420200  0.16647200  0.16948000  1
  O  O12  1  0.71638400  0.58181400  0.51321200  1
  O  O13  1  0.41818600  0.28361600  0.98678800  1
  O  O14  1  0.19394500  0.17246100  0.25365900  1
  O  O15  1  0.64846400  0.23892900  0.60323800  1
  O  O16  1  0.16647200  0.59420200  0.66948000  1
  O  O17  1  0.06616400  0.27547200  0.05232200  1
  O  O18  1  0.17246100  0.19394500  0.75365900  1
  O  O19  1  0.27547200  0.06616400  0.55232200  1
loop_
_geom_bond_atom_site_label_1
_geom_bond_atom_site_label_2
_geom_bond_distance
_geom_bond_site_symmetry_2
Li0 O0 2.011274 1_545
Li0 O17 2.011274 1_655
Li0 O11 2.066604 1_555
Li0 O3 2.066604 1_555
Li1 O4 1.989171 1_555
Li1 O10 1.989171 1_555
Li1 O6 2.135173 1_555
Li1 O7 2.135173 1_555
Li2 O9 1.989171 1_555
Li2 O15 1.989171 1_555
Li2 O12 2.135173 1_555
Li2 O13 2.135173 1_555
Li3 O2 2.011274 1_455
Li3 O19 2.011274 1_565
Li3 O16 2.066604 1_555
Li3 O8 2.066604 1_555
Mn0 O1 1.865146 1_555
Mn0 O3 1.913252 1_555
Mn0 O2 1.918155 1_554
Mn0 O10 1.958746 1_655
Mn1 O5 1.865146 1_555
Mn1 O8 1.913252 1_555
Mn1 O0 1.918155 1_555
Mn1 O15 1.958746 1_565
Mn2 O14 1.865146 1_555
Mn2 O11 1.913252 1_555
Mn2 O19 1.918155 1_555
Mn2 O4 1.958746 1_545
Mn3 O18 1.865146 1_555
Mn3 O16 1.913252 1_555
Mn3 O17 1.918155 1_556
Mn3 O9 1.958746 1_455
B0 O0 1.366816 1_555
B0 O1 1.368285 1_555
B0 O12 1.409769 1_555
B1 O15 1.357451 1_555
B1 O3 1.365714 1_555
B1 O12 1.427389 1_555
B2 O2 1.366816 1_555
B2 O5 1.368285 1_555
B2 O6 1.409769 1_556
B3 O10 1.357451 1_556
B3 O8 1.365714 1_555
B3 O6 1.427389 1_556
B4 O9 1.357451 1_554
B4 O11 1.365714 1_555
B4 O13 1.427389 1_554
B5 O17 1.366816 1_555
B5 O14 1.368285 1_555
B5 O13 1.409769 1_554
B6 O4 1.357451 1_555
B6 O16 1.365714 1_555
B6 O7 1.427389 1_555
B7 O19 1.366816 1_555
B7 O18 1.368285 1_555
B7 O7 1.409769 1_555
