# generated using pymatgen
data_LiVOF2
_symmetry_space_group_name_H-M   'P 1'
_cell_length_a   6.62309501
_cell_length_b   6.62309501
_cell_length_c   5.33985558
_cell_angle_alpha   83.85118766
_cell_angle_beta   83.85118766
_cell_angle_gamma   84.91793558
_symmetry_Int_Tables_number   1
_chemical_formula_structural   LiVOF2
_chemical_formula_sum   'Li4 V4 O4 F8'
_cell_volume   230.84197963
_cell_formula_units_Z   4
loop_
 _symmetry_equiv_pos_site_id
 _symmetry_equiv_pos_as_xyz
  1  'x, y, z'
loop_
 _atom_site_type_symbol
 _atom_site_label
 _atom_site_symmetry_multiplicity
 _atom_site_fract_x
 _atom_site_fract_y
 _atom_site_fract_z
 _atom_site_occupancy
  Li  Li0  1  0.78096300  0.60327500  0.68034400  1
  Li  Li1  1  0.60327500  0.78096300  0.18034400  1
  Li  Li2  1  0.39672500  0.21903700  0.81965600  1
  Li  Li3  1  0.21903700  0.39672500  0.31965600  1
  V  V0  1  0.92155500  0.07844500  0.75000000  1
  V  V1  1  0.25571100  0.74428900  0.75000000  1
  V  V2  1  0.74428900  0.25571100  0.25000000  1
  V  V3  1  0.07844500  0.92155500  0.25000000  1
  O  O0  1  0.98727300  0.80536400  0.60922000  1
  O  O1  1  0.80536400  0.98727300  0.10922000  1
  O  O2  1  0.19463600  0.01272700  0.89078000  1
  O  O3  1  0.01272700  0.19463600  0.39078000  1
  F  F0  1  0.53538200  0.71034400  0.86244200  1
  F  F1  1  0.86161900  0.36081800  0.88867700  1
  F  F2  1  0.71034400  0.53538200  0.36244200  1
  F  F3  1  0.36081800  0.86161900  0.38867700  1
  F  F4  1  0.63918200  0.13838100  0.61132300  1
  F  F5  1  0.28965600  0.46461800  0.63755800  1
  F  F6  1  0.13838100  0.63918200  0.11132300  1
  F  F7  1  0.46461800  0.28965600  0.13755800  1
loop_
_geom_bond_atom_site_label_1
_geom_bond_atom_site_label_2
_geom_bond_distance
_geom_bond_site_symmetry_2
Li0 O0 1.976544 1_555
Li1 O1 1.976544 1_555
Li2 O2 1.976544 1_555
Li3 O3 1.976544 1_555
O0 V1 1.995845 1_655
O0 V0 2.026686 1_565
O0 V3 2.038192 1_655
O1 V2 1.995845 1_565
O1 V3 2.026686 1_655
O1 V0 2.038192 1_564
O2 V1 1.995845 1_545
O2 V0 2.026686 1_455
O2 V3 2.038192 1_546
O3 V2 1.995845 1_455
O3 V3 2.026686 1_545
O3 V0 2.038192 1_455
F0 Li1 1.916638 1_556
F0 Li0 1.923140 1_555
F0 V1 1.994386 1_555
F1 Li0 1.922038 1_555
F1 V2 2.073167 1_556
F1 V0 2.075019 1_555
F2 Li0 1.916638 1_555
F2 Li1 1.923140 1_555
F2 V2 1.994386 1_555
F3 Li1 1.922038 1_555
F3 V1 2.073167 1_555
F3 V3 2.075019 1_555
F4 Li2 1.922038 1_555
F4 V2 2.073167 1_555
F4 V0 2.075019 1_555
F5 Li3 1.916638 1_555
F5 Li2 1.923140 1_555
F5 V1 1.994386 1_555
F6 Li3 1.922038 1_555
F6 V1 2.073167 1_554
F6 V3 2.075019 1_555
F7 Li2 1.916638 1_554
F7 Li3 1.923140 1_555
F7 V2 1.994386 1_555
