# generated using pymatgen
data_Si3Sb2O9
_symmetry_space_group_name_H-M   'P 1'
_cell_length_a   6.89416180
_cell_length_b   6.89415337
_cell_length_c   9.26685008
_cell_angle_alpha   89.99990796
_cell_angle_beta   89.99998075
_cell_angle_gamma   120.00046385
_symmetry_Int_Tables_number   1
_chemical_formula_structural   Si3Sb2O9
_chemical_formula_sum   'Si6 Sb4 O18'
_cell_volume   381.43729265
_cell_formula_units_Z   2
loop_
 _symmetry_equiv_pos_site_id
 _symmetry_equiv_pos_as_xyz
  1  'x, y, z'
loop_
 _atom_site_type_symbol
 _atom_site_label
 _atom_site_symmetry_multiplicity
 _atom_site_fract_x
 _atom_site_fract_y
 _atom_site_fract_z
 _atom_site_occupancy
  Si  Si0  1  0.20489461  0.92522706  0.25000099  1
  Si  Si1  1  0.07477478  0.27966445  0.25000133  1
  Si  Si2  1  0.27964815  0.20487931  0.74999881  1
  Si  Si3  1  0.72033539  0.79510494  0.24999854  1
  Si  Si4  1  0.92522959  0.72034674  0.75000387  1
  Si  Si5  1  0.79511992  0.07477359  0.75000265  1
  Sb  Sb0  1  0.33332924  0.66666650  0.98459565  1
  Sb  Sb1  1  0.33333551  0.66666597  0.51540648  1
  Sb  Sb2  1  0.66666168  0.33333178  0.48459467  1
  Sb  Sb3  1  0.66667443  0.33335093  0.01538231  1
  O  O0  1  0.18060436  0.93482967  0.75000156  1
  O  O1  1  0.32172373  0.90000873  0.10563675  1
  O  O2  1  0.32172545  0.90000813  0.39436609  1
  O  O3  1  0.09999320  0.42171491  0.10563567  1
  O  O4  1  0.09999036  0.42171292  0.39436573  1
  O  O5  1  0.06516619  0.24577107  0.75000015  1
  O  O6  1  0.24577217  0.18060644  0.25000100  1
  O  O7  1  0.57828586  0.67827573  0.10563578  1
  O  O8  1  0.57828361  0.67827425  0.39436636  1
  O  O9  1  0.42172088  0.32172721  0.60563396  1
  O  O10  1  0.42170506  0.32172631  0.89435902  1
  O  O11  1  0.75423201  0.81939159  0.75000172  1
  O  O12  1  0.93482856  0.75422348  0.25000274  1
  O  O13  1  0.90001403  0.57828719  0.60563754  1
  O  O14  1  0.90000787  0.57828517  0.89436644  1
  O  O15  1  0.67827469  0.09998846  0.60563613  1
  O  O16  1  0.67827204  0.09999076  0.89436493  1
  O  O17  1  0.81939563  0.06516772  0.25000112  1
loop_
_geom_bond_atom_site_label_1
_geom_bond_atom_site_label_2
_geom_bond_distance
_geom_bond_site_symmetry_2
O0 Si2 1.631299 1_565
O0 Si4 1.637924 1_455
O1 Si0 1.615149 1_555
O1 Sb0 1.995287 1_554
O2 Si0 1.615164 1_555
O2 Sb1 1.995294 1_555
O3 Si1 1.615168 1_555
O3 Sb0 1.995264 1_554
O4 Si1 1.615157 1_555
O4 Sb1 1.995300 1_555
O5 Si5 1.631270 1_455
O5 Si2 1.637930 1_555
O6 Si1 1.631332 1_555
O6 Si0 1.637999 1_545
O7 Si3 1.615140 1_555
O7 Sb0 1.995323 1_554
O8 Si3 1.615184 1_555
O8 Sb1 1.995276 1_555
O9 Si2 1.615236 1_555
O9 Sb2 1.995240 1_555
O10 Si2 1.615163 1_555
O10 Sb3 1.995267 1_556
O11 Si4 1.631262 1_555
O11 Si5 1.637990 1_565
O12 Si0 1.631383 1_655
O12 Si3 1.637962 1_555
O13 Si4 1.615215 1_555
O13 Sb2 1.995338 1_555
O14 Si4 1.615182 1_555
O14 Sb3 1.995079 1_556
O15 Si5 1.615220 1_555
O15 Sb2 1.995315 1_555
O16 Si5 1.615203 1_555
O16 Sb3 1.995242 1_556
O17 Si3 1.631367 1_545
O17 Si1 1.637977 1_655
