# generated using pymatgen
data_LiFe2F5
_symmetry_space_group_name_H-M   'P 1'
_cell_length_a   5.56921225
_cell_length_b   5.56921225
_cell_length_c   10.39088200
_cell_angle_alpha   90.00000000
_cell_angle_beta   90.00000000
_cell_angle_gamma   138.22371201
_symmetry_Int_Tables_number   1
_chemical_formula_structural   LiFe2F5
_chemical_formula_sum   'Li2 Fe4 F10'
_cell_volume   214.71389880
_cell_formula_units_Z   2
loop_
 _symmetry_equiv_pos_site_id
 _symmetry_equiv_pos_as_xyz
  1  'x, y, z'
loop_
 _atom_site_type_symbol
 _atom_site_label
 _atom_site_symmetry_multiplicity
 _atom_site_fract_x
 _atom_site_fract_y
 _atom_site_fract_z
 _atom_site_occupancy
  Li  Li0  1  0.81969900  0.18030100  0.25000000  1
  Li  Li1  1  0.18030100  0.81969900  0.75000000  1
  Fe  Fe0  1  0.86383400  0.13616600  0.56929600  1
  Fe  Fe1  1  0.86383400  0.13616600  0.93070400  1
  Fe  Fe2  1  0.13616600  0.86383400  0.06929600  1
  Fe  Fe3  1  0.13616600  0.86383400  0.43070400  1
  F  F0  1  0.94453000  0.05547000  0.11492300  1
  F  F1  1  0.68135900  0.31864100  0.06513800  1
  F  F2  1  0.94453000  0.05547000  0.38507700  1
  F  F3  1  0.68135900  0.31864100  0.43486200  1
  F  F4  1  0.76745100  0.23254900  0.75000000  1
  F  F5  1  0.23254900  0.76745100  0.25000000  1
  F  F6  1  0.05547000  0.94453000  0.61492300  1
  F  F7  1  0.05547000  0.94453000  0.88507700  1
  F  F8  1  0.31864100  0.68135900  0.56513800  1
  F  F9  1  0.31864100  0.68135900  0.93486200  1
loop_
_geom_bond_atom_site_label_1
_geom_bond_atom_site_label_2
_geom_bond_distance
_geom_bond_site_symmetry_2
F0 Li0 1.912462 1_555
F0 Fe2 2.049820 1_645
F0 Fe1 2.090297 1_554
F1 Fe2 2.041064 1_655
F1 Fe2 2.041064 1_545
F1 Fe1 2.357358 1_554
F1 Li0 2.400475 1_555
F2 Li0 1.912462 1_555
F2 Fe3 2.049820 1_645
F2 Fe0 2.090297 1_555
F3 Fe3 2.041064 1_655
F3 Fe3 2.041064 1_545
F3 Fe0 2.357358 1_555
F3 Li0 2.400475 1_555
F4 Fe1 2.128771 1_555
F4 Fe0 2.128771 1_555
F4 Li1 2.182979 1_545
F4 Li1 2.182979 1_655
F5 Fe3 2.128771 1_555
F5 Fe2 2.128771 1_555
F5 Li0 2.182979 1_455
F5 Li0 2.182979 1_565
F6 Li1 1.912462 1_555
F6 Fe0 2.049820 1_465
F6 Fe3 2.090297 1_555
F7 Li1 1.912462 1_555
F7 Fe1 2.049820 1_465
F7 Fe2 2.090297 1_556
F8 Fe0 2.041064 1_565
F8 Fe0 2.041064 1_455
F8 Fe3 2.357358 1_555
F8 Li1 2.400475 1_555
F9 Fe1 2.041064 1_565
F9 Fe1 2.041064 1_455
F9 Fe2 2.357358 1_556
F9 Li1 2.400475 1_555
