# generated using pymatgen
data_Li4V5(P3O11)2
_symmetry_space_group_name_H-M   'P 1'
_cell_length_a   6.67362800
_cell_length_b   10.86575900
_cell_length_c   12.81198575
_cell_angle_alpha   76.27201645
_cell_angle_beta   90.00000000
_cell_angle_gamma   90.00000000
_symmetry_Int_Tables_number   1
_chemical_formula_structural   Li4V5(P3O11)2
_chemical_formula_sum   'Li8 V10 P12 O44'
_cell_volume   902.50893585
_cell_formula_units_Z   2
loop_
 _symmetry_equiv_pos_site_id
 _symmetry_equiv_pos_as_xyz
  1  'x, y, z'
loop_
 _atom_site_type_symbol
 _atom_site_label
 _atom_site_symmetry_multiplicity
 _atom_site_fract_x
 _atom_site_fract_y
 _atom_site_fract_z
 _atom_site_occupancy
  Li  Li0  1  0.85396900  0.44349600  0.18518500  1
  Li  Li1  1  0.64603100  0.94349600  0.18518500  1
  Li  Li2  1  0.47614800  0.11986300  0.34492000  1
  Li  Li3  1  0.02385200  0.61986300  0.34492000  1
  Li  Li4  1  0.97614800  0.38013700  0.65508000  1
  Li  Li5  1  0.52385200  0.88013700  0.65508000  1
  Li  Li6  1  0.35396900  0.05650400  0.81481500  1
  Li  Li7  1  0.14603100  0.55650400  0.81481500  1
  V  V0  1  0.50000000  0.50000000  0.00000000  1
  V  V1  1  0.24517500  0.21799700  0.13191000  1
  V  V2  1  0.00000000  0.00000000  0.00000000  1
  V  V3  1  0.25482500  0.71799700  0.13191000  1
  V  V4  1  0.01639300  0.19651500  0.33595600  1
  V  V5  1  0.48360700  0.69651500  0.33595600  1
  V  V6  1  0.51639300  0.30348500  0.66404400  1
  V  V7  1  0.98360700  0.80348500  0.66404400  1
  V  V8  1  0.74517500  0.28200300  0.86809000  1
  V  V9  1  0.75482500  0.78200300  0.86809000  1
  P  P0  1  0.73860500  0.22290300  0.09222700  1
  P  P1  1  0.76139500  0.72290300  0.09222700  1
  P  P2  1  0.39480900  0.43293200  0.26471400  1
  P  P3  1  0.10519100  0.93293200  0.26471400  1
  P  P4  1  0.72344900  0.41838800  0.41655400  1
  P  P5  1  0.77655100  0.91838800  0.41655400  1
  P  P6  1  0.22344900  0.08161200  0.58344600  1
  P  P7  1  0.27655100  0.58161200  0.58344600  1
  P  P8  1  0.89480900  0.06706800  0.73528600  1
  P  P9  1  0.60519100  0.56706800  0.73528600  1
  P  P10  1  0.23860500  0.27709700  0.90777300  1
  P  P11  1  0.26139500  0.77709700  0.90777300  1
  O  O0  1  0.77758800  0.13479800  0.01371700  1
  O  O1  1  0.70615900  0.35303200  0.00972900  1
  O  O2  1  0.72241200  0.63479800  0.01371700  1
  O  O3  1  0.79384100  0.85303200  0.00972900  1
  O  O4  1  0.55921700  0.16925100  0.16494300  1
  O  O5  1  0.92007200  0.24339800  0.16325200  1
  O  O6  1  0.55174900  0.45694200  0.17592500  1
  O  O7  1  0.20973800  0.05715500  0.27506600  1
  O  O8  1  0.94078300  0.66925100  0.16494300  1
  O  O9  1  0.57992700  0.74339800  0.16325200  1
  O  O10  1  0.24563300  0.32992400  0.25194900  1
  O  O11  1  0.94825100  0.95694200  0.17592500  1
  O  O12  1  0.29026200  0.55715500  0.27506600  1
  O  O13  1  0.76947200  0.06415600  0.38940000  1
  O  O14  1  0.25436700  0.82992400  0.25194900  1
  O  O15  1  0.87906500  0.37034100  0.34771700  1
  O  O16  1  0.50364400  0.37572500  0.37839800  1
  O  O17  1  0.23509800  0.14495700  0.46418200  1
  O  O18  1  0.73052800  0.56415600  0.38940000  1
  O  O19  1  0.62093500  0.87034100  0.34771700  1
  O  O20  1  0.99635600  0.87572500  0.37839800  1
  O  O21  1  0.26490200  0.64495700  0.46418200  1
  O  O22  1  0.73509800  0.35504300  0.53581800  1
  O  O23  1  0.00364400  0.12427500  0.62160200  1
  O  O24  1  0.37906500  0.12965900  0.65228300  1
  O  O25  1  0.26947200  0.43584400  0.61060000  1
  O  O26  1  0.76490200  0.85504300  0.53581800  1
  O  O27  1  0.49635600  0.62427500  0.62160200  1
  O  O28  1  0.12093500  0.62965900  0.65228300  1
  O  O29  1  0.74563300  0.17007600  0.74805100  1
  O  O30  1  0.23052800  0.93584400  0.61060000  1
  O  O31  1  0.70973800  0.44284500  0.72493400  1
  O  O32  1  0.05174900  0.04305800  0.82407500  1
  O  O33  1  0.75436700  0.67007600  0.74805100  1
  O  O34  1  0.42007200  0.25660200  0.83674800  1
  O  O35  1  0.05921700  0.33074900  0.83505700  1
  O  O36  1  0.79026200  0.94284500  0.72493400  1
  O  O37  1  0.44825100  0.54305800  0.82407500  1
  O  O38  1  0.07992800  0.75660200  0.83674800  1
  O  O39  1  0.44078300  0.83074900  0.83505700  1
  O  O40  1  0.20615900  0.14696800  0.99027100  1
  O  O41  1  0.27758800  0.36520200  0.98628300  1
  O  O42  1  0.29384100  0.64696800  0.99027100  1
  O  O43  1  0.22241200  0.86520200  0.98628300  1
loop_
_geom_bond_atom_site_label_1
_geom_bond_atom_site_label_2
_geom_bond_distance
_geom_bond_site_symmetry_2
Li0 O6 2.023634 1_555
Li0 O15 2.051948 1_555
Li0 O5 2.300168 1_555
Li0 O8 2.473497 1_555
Li1 O11 2.023634 1_555
Li1 O19 2.051948 1_555
Li1 O9 2.300169 1_555
Li1 O4 2.473497 1_565
Li2 O13 2.087911 1_555
Li2 O7 2.171558 1_555
Li2 O17 2.279181 1_555
Li2 O4 2.307597 1_555
Li3 O18 2.087911 1_455
Li3 O12 2.171558 1_555
Li3 O21 2.279181 1_555
Li3 O8 2.307597 1_455
Li4 O25 2.087911 1_655
Li4 O31 2.171558 1_555
Li4 O22 2.279181 1_555
Li4 O35 2.307597 1_655
Li5 O30 2.087911 1_555
Li5 O36 2.171558 1_555
Li5 O26 2.279181 1_555
Li5 O39 2.307597 1_555
Li6 O32 2.023634 1_555
Li6 O24 2.051948 1_555
Li6 O34 2.300168 1_555
Li6 O39 2.473497 1_545
Li7 O37 2.023634 1_555
Li7 O28 2.051948 1_555
Li7 O38 2.300168 1_555
Li7 O35 2.473497 1_555
O0 P0 1.566196 1_555
O0 V2 2.121670 1_655
O0 V8 2.160985 1_554
O1 P0 1.566521 1_555
O1 V0 2.089047 1_555
O1 V8 2.149705 1_554
O2 P1 1.566196 1_555
O2 V0 2.121670 1_555
O2 V9 2.160985 1_554
O3 P1 1.566521 1_555
O3 V2 2.089047 1_665
O3 V9 2.149705 1_554
O4 P0 1.543773 1_555
O4 V1 2.178449 1_555
O5 P0 1.562193 1_555
O5 V1 2.235455 1_655
O5 V4 2.243587 1_655
O6 P2 1.522569 1_555
O6 V0 2.217643 1_555
O7 P3 1.552821 1_545
O7 V1 2.225506 1_555
O7 V4 2.264317 1_555
O8 P1 1.543773 1_555
O8 V3 2.178449 1_655
O9 P1 1.562198 1_555
O9 V3 2.235449 1_555
O9 V5 2.243585 1_555
O10 P2 1.535409 1_555
O10 V1 2.175333 1_555
O10 V4 2.204473 1_555
O11 P3 1.522569 1_655
O11 V2 2.217643 1_665
O12 P2 1.552821 1_555
O12 V3 2.225506 1_555
O12 V5 2.264317 1_555
O13 P5 1.539613 1_545
O13 V4 2.187524 1_655
O14 P3 1.535409 1_555
O14 V3 2.175333 1_555
O14 V5 2.204473 1_555
O15 P4 1.532133 1_555
O15 V4 2.136608 1_655
O16 P2 1.614207 1_555
O16 P4 1.647184 1_555
O17 P6 1.521653 1_555
O17 V4 2.169382 1_555
O18 P4 1.539613 1_555
O18 V5 2.187524 1_555
O19 P5 1.532133 1_555
O19 V5 2.136608 1_555
O20 P3 1.614207 1_655
O20 P5 1.647184 1_555
O21 P7 1.521653 1_555
O21 V5 2.169382 1_555
O22 P4 1.521653 1_555
O22 V6 2.169382 1_555
O23 P8 1.614207 1_455
O23 P6 1.647184 1_555
O24 P6 1.532133 1_555
O24 V6 2.136608 1_555
O25 P7 1.539613 1_555
O25 V6 2.187524 1_555
O26 P5 1.521653 1_555
O26 V7 2.169382 1_555
O27 P9 1.614207 1_555
O27 P7 1.647184 1_555
O28 P7 1.532133 1_555
O28 V7 2.136608 1_455
O29 P8 1.535409 1_555
O29 V8 2.175333 1_555
O29 V6 2.204473 1_555
O30 P6 1.539613 1_565
O30 V7 2.187524 1_455
O31 P9 1.552821 1_555
O31 V8 2.225506 1_555
O31 V6 2.264317 1_555
O32 P8 1.522569 1_455
O32 V2 2.217643 1_556
O33 P9 1.535409 1_555
O33 V9 2.175333 1_555
O33 V7 2.204473 1_555
O34 P10 1.562193 1_555
O34 V8 2.235455 1_555
O34 V6 2.243587 1_555
O35 P10 1.543773 1_555
O35 V8 2.178449 1_455
O36 P8 1.552821 1_565
O36 V9 2.225506 1_555
O36 V7 2.264317 1_555
O37 P9 1.522569 1_555
O37 V0 2.217643 1_556
O38 P11 1.562193 1_555
O38 V9 2.235455 1_455
O38 V7 2.243587 1_455
O39 P11 1.543773 1_555
O39 V9 2.178449 1_555
O40 P10 1.566521 1_555
O40 V2 2.089047 1_556
O40 V1 2.149705 1_556
O41 P10 1.566196 1_555
O41 V0 2.121670 1_556
O41 V1 2.160985 1_556
O42 P11 1.566521 1_555
O42 V0 2.089047 1_556
O42 V3 2.149705 1_556
O43 P11 1.566196 1_555
O43 V2 2.121670 1_566
O43 V3 2.160985 1_556
