# generated using pymatgen
data_Li3CoNi3O8
_symmetry_space_group_name_H-M   'P 1'
_cell_length_a   5.77462404
_cell_length_b   5.79252020
_cell_length_c   14.32579673
_cell_angle_alpha   89.13323763
_cell_angle_beta   90.93204608
_cell_angle_gamma   121.58554588
_symmetry_Int_Tables_number   1
_chemical_formula_structural   Li3CoNi3O8
_chemical_formula_sum   'Li9 Co3 Ni9 O24'
_cell_volume   408.13824005
_cell_formula_units_Z   3
loop_
 _symmetry_equiv_pos_site_id
 _symmetry_equiv_pos_as_xyz
  1  'x, y, z'
loop_
 _atom_site_type_symbol
 _atom_site_label
 _atom_site_symmetry_multiplicity
 _atom_site_fract_x
 _atom_site_fract_y
 _atom_site_fract_z
 _atom_site_occupancy
  Li  Li0  1  0.83322400  0.66656500  0.83332100  1
  Li  Li1  1  0.33335000  0.16680500  0.83330500  1
  Li  Li2  1  0.33329800  0.66656600  0.83329800  1
  Li  Li3  1  0.50017900  0.00062500  0.50030100  1
  Li  Li4  1  0.50100900  0.49746000  0.49934900  1
  Li  Li5  1  0.00014000  0.50034100  0.50152200  1
  Li  Li6  1  0.66642800  0.83283000  0.16518200  1
  Li  Li7  1  0.16654300  0.33277600  0.16637600  1
  Li  Li8  1  0.16560700  0.83572500  0.16737000  1
  Co  Co0  1  0.66847600  0.33363000  0.67007500  1
  Co  Co1  1  0.33336300  0.66664000  0.33335700  1
  Co  Co2  1  0.99824500  0.99970100  0.99663800  1
  Ni  Ni0  1  0.66908800  0.83532600  0.66683500  1
  Ni  Ni1  1  0.16584400  0.33167800  0.66673400  1
  Ni  Ni2  1  0.16769200  0.83494600  0.66398900  1
  Ni  Ni3  1  0.83335200  0.16664900  0.33332600  1
  Ni  Ni4  1  0.83334500  0.66660800  0.33334300  1
  Ni  Ni5  1  0.33332700  0.16661000  0.33332400  1
  Ni  Ni6  1  0.50090500  0.00183000  0.99992000  1
  Ni  Ni7  1  0.49904900  0.49849600  0.00269400  1
  Ni  Ni8  1  0.99744100  0.49799600  0.99979900  1
  O  O0  1  0.64206000  0.33370400  0.93221700  1
  O  O1  1  0.66498700  0.80645600  0.92508100  1
  O  O2  1  0.16929500  0.85660700  0.92731000  1
  O  O3  1  0.18463200  0.33007000  0.92828900  1
  O  O4  1  0.00178400  0.52743000  0.74179900  1
  O  O5  1  0.48272100  0.00388300  0.73811600  1
  O  O6  1  0.49536200  0.47598600  0.73923800  1
  O  O7  1  0.02526900  0.00047200  0.73433300  1
  O  O8  1  0.83339100  0.19497900  0.59906400  1
  O  O9  1  0.83527400  0.64680900  0.59599600  1
  O  O10  1  0.31396600  0.66096800  0.59465300  1
  O  O11  1  0.35275300  0.15924700  0.59240000  1
  O  O12  1  0.65116700  0.84412000  0.40687000  1
  O  O13  1  0.65361400  0.33848400  0.40544000  1
  O  O14  1  0.17400400  0.34969400  0.40521500  1
  O  O15  1  0.16400000  0.80993500  0.40369300  1
  O  O16  1  0.01309900  0.99472100  0.26125300  1
  O  O17  1  0.50281500  0.52332100  0.26301900  1
  O  O18  1  0.49269300  0.98353200  0.26142800  1
  O  O19  1  0.01549800  0.48912600  0.25982600  1
  O  O20  1  0.83078400  0.68615800  0.07097900  1
  O  O21  1  0.83495400  0.13912200  0.06760900  1
  O  O22  1  0.31414100  0.17385100  0.07401700  1
  O  O23  1  0.35184000  0.67151600  0.07210100  1
loop_
_geom_bond_atom_site_label_1
_geom_bond_atom_site_label_2
_geom_bond_distance
_geom_bond_site_symmetry_2
Li0 O4 2.052147 1_655
Li0 O1 2.055937 1_555
Li0 O2 2.124372 1_655
Li0 O6 2.131910 1_555
Li0 O0 2.163796 1_555
Li0 O7 2.168649 1_665
Li1 O6 2.027689 1_555
Li1 O2 2.030960 1_545
Li1 O7 2.065750 1_555
Li1 O0 2.067453 1_555
Li1 O3 2.100285 1_555
Li1 O5 2.103361 1_555
Li2 O4 2.089650 1_555
Li2 O1 2.092513 1_555
Li2 O3 2.143113 1_555
Li2 O5 2.147828 1_565
Li2 O6 2.253554 1_555
Li2 O2 2.258544 1_555
Li3 O11 2.049980 1_555
Li3 O12 2.067910 1_545
Li3 O13 2.145727 1_555
Li3 O10 2.145889 1_545
Li3 O15 2.148664 1_545
Li3 O8 2.159189 1_555
Li4 O13 2.088207 1_555
Li4 O14 2.091874 1_555
Li4 O11 2.132874 1_555
Li4 O9 2.142729 1_555
Li4 O12 2.161526 1_555
Li4 O10 2.255316 1_555
Li5 O10 2.030388 1_555
Li5 O8 2.047767 1_455
Li5 O15 2.065200 1_555
Li5 O9 2.093016 1_455
Li5 O14 2.161539 1_555
Li5 O13 2.182200 1_455
Li6 O23 2.032753 1_555
Li6 O21 2.051650 1_565
Li6 O17 2.064953 1_555
Li6 O20 2.089231 1_555
Li6 O18 2.160667 1_555
Li6 O16 2.182665 1_655
Li7 O22 2.054269 1_555
Li7 O19 2.067707 1_555
Li7 O23 2.141613 1_555
Li7 O16 2.146647 1_545
Li7 O17 2.149276 1_555
Li7 O21 2.153278 1_455
Li8 O16 2.087668 1_555
Li8 O18 2.091486 1_555
Li8 O22 2.135087 1_565
Li8 O20 2.142509 1_455
Li8 O19 2.161097 1_555
Li8 O23 2.254455 1_555
Co0 O8 1.855875 1_555
Co0 O9 1.868028 1_555
Co0 O5 1.892222 1_555
Co0 O6 1.892479 1_555
Co0 O11 1.902992 1_555
Co0 O4 1.930727 1_655
Co1 O14 1.865738 1_555
Co1 O18 1.866070 1_555
Co1 O12 1.878147 1_555
Co1 O19 1.878538 1_555
Co1 O15 1.889048 1_555
Co1 O17 1.889553 1_555
Co2 O21 1.851709 1_566
Co2 O20 1.871662 1_556
Co2 O2 1.887737 1_655
Co2 O3 1.897179 1_665
Co2 O22 1.901168 1_666
Co2 O1 1.929060 1_555
Ni0 O7 1.995687 1_665
Ni0 O8 2.020177 1_565
Ni0 O10 2.021802 1_555
Ni0 O6 2.048401 1_555
Ni0 O9 2.075146 1_555
Ni0 O5 2.078679 1_565
Ni1 O7 1.901427 1_555
Ni1 O8 1.903323 1_455
Ni1 O6 1.922017 1_555
Ni1 O10 1.922560 1_555
Ni1 O11 2.120246 1_555
Ni1 O4 2.129558 1_555
Ni2 O7 1.869093 1_565
Ni2 O5 1.870415 1_565
Ni2 O4 1.876264 1_555
Ni2 O11 1.896600 1_565
Ni2 O9 1.897663 1_455
Ni2 O10 1.914421 1_555
Ni3 O19 1.903323 1_655
Ni3 O12 1.903885 1_545
Ni3 O14 1.958750 1_655
Ni3 O18 1.958856 1_545
Ni3 O13 2.069662 1_555
Ni3 O16 2.069804 1_645
Ni4 O17 1.910537 1_555
Ni4 O15 1.911261 1_655
Ni4 O16 1.914463 1_655
Ni4 O13 1.914557 1_555
Ni4 O19 2.115219 1_655
Ni4 O12 2.115533 1_555
Ni5 O16 1.875408 1_545
Ni5 O13 1.875994 1_555
Ni5 O17 2.022964 1_555
Ni5 O15 2.023295 1_545
Ni5 O14 2.029238 1_555
Ni5 O18 2.029431 1_545
Ni6 O0 1.904871 1_555
Ni6 O21 1.910315 1_556
Ni6 O23 1.927416 1_546
Ni6 O2 1.931530 1_545
Ni6 O22 2.116079 1_556
Ni6 O1 2.126275 1_545
Ni7 O0 1.869394 1_554
Ni7 O3 1.870150 1_554
Ni7 O1 1.876343 1_554
Ni7 O22 1.895890 1_555
Ni7 O20 1.896871 1_555
Ni7 O23 1.914641 1_555
Ni8 O0 1.992960 1_555
Ni8 O21 2.017606 1_556
Ni8 O23 2.019679 1_656
Ni8 O2 2.046231 1_655
Ni8 O20 2.078050 1_556
Ni8 O3 2.081284 1_655
