# generated using pymatgen
data_Li4NbO4
_symmetry_space_group_name_H-M   'P 1'
_cell_length_a   5.51577958
_cell_length_b   5.51577958
_cell_length_c   6.54048900
_cell_angle_alpha   90.00000000
_cell_angle_beta   90.00000000
_cell_angle_gamma   100.45731545
_symmetry_Int_Tables_number   1
_chemical_formula_structural   Li4NbO4
_chemical_formula_sum   'Li8 Nb2 O8'
_cell_volume   195.68159898
_cell_formula_units_Z   2
loop_
 _symmetry_equiv_pos_site_id
 _symmetry_equiv_pos_as_xyz
  1  'x, y, z'
loop_
 _atom_site_type_symbol
 _atom_site_label
 _atom_site_symmetry_multiplicity
 _atom_site_fract_x
 _atom_site_fract_y
 _atom_site_fract_z
 _atom_site_occupancy
  Li  Li0  1  0.84396900  0.15603100  0.00000000  1
  Li  Li1  1  0.84396900  0.15603100  0.50000000  1
  Li  Li2  1  0.86405700  0.58013900  0.25000000  1
  Li  Li3  1  0.41986100  0.13594300  0.75000000  1
  Li  Li4  1  0.58013900  0.86405700  0.25000000  1
  Li  Li5  1  0.13594300  0.41986100  0.75000000  1
  Li  Li6  1  0.15603100  0.84396900  0.00000000  1
  Li  Li7  1  0.15603100  0.84396900  0.50000000  1
  Nb  Nb0  1  0.65201000  0.65201000  0.75000000  1
  Nb  Nb1  1  0.34799000  0.34799000  0.25000000  1
  O  O0  1  0.66591200  0.23372800  0.25000000  1
  O  O1  1  0.76627200  0.33408800  0.75000000  1
  O  O2  1  0.21914200  0.21914200  0.51097900  1
  O  O3  1  0.21914200  0.21914200  0.98902100  1
  O  O4  1  0.78085800  0.78085800  0.01097900  1
  O  O5  1  0.78085800  0.78085800  0.48902100  1
  O  O6  1  0.23372800  0.66591200  0.25000000  1
  O  O7  1  0.33408800  0.76627200  0.75000000  1
loop_
_geom_bond_atom_site_label_1
_geom_bond_atom_site_label_2
_geom_bond_distance
_geom_bond_site_symmetry_2
Li0 O1 1.993651 1_554
Li0 O0 1.993651 1_555
Li0 O4 2.036452 1_545
Li0 O3 2.036452 1_654
Li1 O0 1.993651 1_555
Li1 O1 1.993651 1_555
Li1 O5 2.036452 1_545
Li1 O2 2.036452 1_655
Li2 O6 2.007801 1_655
Li2 O4 2.016109 1_555
Li2 O5 2.016109 1_555
Li2 O0 2.021708 1_555
Li3 O7 2.007801 1_545
Li3 O3 2.016109 1_555
Li3 O2 2.016109 1_555
Li3 O1 2.021708 1_555
Li4 O0 2.007801 1_565
Li4 O4 2.016109 1_555
Li4 O5 2.016109 1_555
Li4 O6 2.021708 1_555
Li5 O1 2.007801 1_455
Li5 O2 2.016109 1_555
Li5 O3 2.016109 1_555
Li5 O7 2.021708 1_555
Li6 O7 1.993651 1_554
Li6 O6 1.993651 1_555
Li6 O3 2.036452 1_564
Li6 O4 2.036452 1_455
Li7 O6 1.993651 1_555
Li7 O7 1.993651 1_555
Li7 O2 2.036452 1_565
Li7 O5 2.036452 1_455
Nb0 O5 1.934022 1_555
Nb0 O4 1.934022 1_556
Nb0 O7 1.968113 1_555
Nb0 O1 1.968113 1_555
Nb1 O3 1.934022 1_554
Nb1 O2 1.934022 1_555
Nb1 O0 1.968113 1_555
Nb1 O6 1.968113 1_555
