# generated using pymatgen
data_Li6Nb3V3O16
_symmetry_space_group_name_H-M   'P 1'
_cell_length_a   6.06760951
_cell_length_b   6.06760951
_cell_length_c   10.10154108
_cell_angle_alpha   89.71265832
_cell_angle_beta   89.71265832
_cell_angle_gamma   60.40953600
_symmetry_Int_Tables_number   1
_chemical_formula_structural   Li6Nb3V3O16
_chemical_formula_sum   'Li6 Nb3 V3 O16'
_cell_volume   323.38783308
_cell_formula_units_Z   1
loop_
 _symmetry_equiv_pos_site_id
 _symmetry_equiv_pos_as_xyz
  1  'x, y, z'
loop_
 _atom_site_type_symbol
 _atom_site_label
 _atom_site_symmetry_multiplicity
 _atom_site_fract_x
 _atom_site_fract_y
 _atom_site_fract_z
 _atom_site_occupancy
  Li  Li0  1  0.34591400  0.34591400  0.49770000  1
  Li  Li1  1  0.33404300  0.33404300  0.10497900  1
  Li  Li2  1  0.99333200  0.99333200  0.00039600  1
  Li  Li3  1  0.98653600  0.98653600  0.50180000  1
  Li  Li4  1  0.67327900  0.67327900  0.98731800  1
  Li  Li5  1  0.66921600  0.66921600  0.61650700  1
  Nb  Nb0  1  0.17378300  0.17378300  0.77223600  1
  Nb  Nb1  1  0.83472200  0.34423900  0.28722500  1
  Nb  Nb2  1  0.34423900  0.83472200  0.28722500  1
  V  V0  1  0.83379500  0.83379500  0.28402900  1
  V  V1  1  0.66657300  0.18451400  0.79061900  1
  V  V2  1  0.18451400  0.66657300  0.79061900  1
  O  O0  1  0.69330500  0.15575800  0.38967100  1
  O  O1  1  0.48159900  0.48159900  0.68326700  1
  O  O2  1  0.33576700  0.33576700  0.89406100  1
  O  O3  1  0.00346700  0.00346700  0.68204700  1
  O  O4  1  0.00810200  0.00810200  0.18022200  1
  O  O5  1  0.15575800  0.69330500  0.38967100  1
  O  O6  1  0.48915500  0.02954600  0.67855700  1
  O  O7  1  0.02954600  0.48915500  0.67855700  1
  O  O8  1  0.85009800  0.85009800  0.88216600  1
  O  O9  1  0.15452800  0.15452800  0.39762500  1
  O  O10  1  0.97387200  0.51053400  0.17420500  1
  O  O11  1  0.51053400  0.97387200  0.17420500  1
  O  O12  1  0.66175200  0.66175200  0.40073200  1
  O  O13  1  0.84189500  0.30272400  0.89323700  1
  O  O14  1  0.51399800  0.51399800  0.18024900  1
  O  O15  1  0.30272400  0.84189500  0.89323700  1
loop_
_geom_bond_atom_site_label_1
_geom_bond_atom_site_label_2
_geom_bond_distance
_geom_bond_site_symmetry_2
Li0 O5 2.133722 1_555
Li0 O0 2.133722 1_555
Li0 O9 2.252622 1_555
Li0 O1 2.360029 1_555
Li0 O6 2.472044 1_555
Li0 O7 2.472044 1_555
Li1 O10 2.023018 1_455
Li1 O11 2.023018 1_545
Li1 O14 2.038799 1_555
Li1 O2 2.130569 1_554
Li2 O4 1.824008 1_665
Li2 O8 1.924515 1_554
Li2 O13 1.956076 1_564
Li2 O15 1.956076 1_654
Li3 O3 1.830436 1_665
Li3 O0 1.925403 1_565
Li3 O5 1.925403 1_655
Li3 O9 2.046940 1_665
Li4 O8 2.131728 1_555
Li4 O15 2.178313 1_555
Li4 O13 2.178313 1_555
Li4 O10 2.470376 1_556
Li4 O11 2.470376 1_556
Li4 O14 2.559482 1_556
Li5 O6 2.003611 1_565
Li5 O7 2.003611 1_655
Li5 O1 2.076315 1_555
Li5 O12 2.181519 1_555
Nb0 O6 1.912939 1_555
Nb0 O7 1.912939 1_555
Nb0 O3 2.009841 1_555
Nb0 O2 2.103502 1_555
Nb0 O15 2.142501 1_545
Nb0 O13 2.142501 1_455
Nb1 O10 1.963292 1_555
Nb1 O14 2.011482 1_555
Nb1 O0 2.015801 1_555
Nb1 O9 2.033956 1_655
Nb1 O12 2.034937 1_555
Nb1 O4 2.080028 1_655
Nb2 O11 1.963292 1_555
Nb2 O14 2.011482 1_555
Nb2 O5 2.015801 1_555
Nb2 O9 2.033956 1_565
Nb2 O12 2.034937 1_555
Nb2 O4 2.080028 1_565
O0 V0 2.012203 1_545
O1 V2 1.918214 1_555
O1 V1 1.918214 1_555
O2 V2 2.032810 1_555
O2 V1 2.032810 1_555
O3 V2 2.088069 1_545
O3 V1 2.088069 1_455
O4 V0 2.102185 1_445
O5 V0 2.012203 1_455
O6 V1 2.084941 1_555
O7 V2 2.084941 1_555
O8 V1 1.993109 1_565
O8 V2 1.993109 1_655
O10 V0 2.041147 1_555
O11 V0 2.041147 1_555
O12 V0 2.149575 1_555
O13 V1 1.868872 1_555
O15 V2 1.868872 1_555
