# generated using pymatgen
data_Dy(BrO2)3
_symmetry_space_group_name_H-M   'P 1'
_cell_length_a   6.27653100
_cell_length_b   5.94899900
_cell_length_c   11.18686538
_cell_angle_alpha   71.72302951
_cell_angle_beta   90.00000000
_cell_angle_gamma   90.00000000
_symmetry_Int_Tables_number   1
_chemical_formula_structural   Dy(BrO2)3
_chemical_formula_sum   'Dy2 Br6 O12'
_cell_volume   396.63456567
_cell_formula_units_Z   2
loop_
 _symmetry_equiv_pos_site_id
 _symmetry_equiv_pos_as_xyz
  1  'x, y, z'
loop_
 _atom_site_type_symbol
 _atom_site_label
 _atom_site_symmetry_multiplicity
 _atom_site_fract_x
 _atom_site_fract_y
 _atom_site_fract_z
 _atom_site_occupancy
  Dy  Dy0  1  0.68589600  0.50000000  0.75000000  1
  Dy  Dy1  1  0.31410400  0.50000000  0.25000000  1
  Br  Br0  1  0.08163300  0.00000000  0.75000000  1
  Br  Br1  1  0.91836700  0.00000000  0.25000000  1
  Br  Br2  1  0.21090800  0.68919900  0.54891500  1
  Br  Br3  1  0.78909200  0.31080100  0.45108500  1
  Br  Br4  1  0.21090800  0.31080100  0.95108500  1
  Br  Br5  1  0.78909200  0.68919900  0.04891500  1
  O  O0  1  0.92050000  0.81593300  0.69319900  1
  O  O1  1  0.07950000  0.18406700  0.30680100  1
  O  O2  1  0.92050000  0.18406700  0.80680100  1
  O  O3  1  0.07950000  0.81593300  0.19319900  1
  O  O4  1  0.71281500  0.44200100  0.56252700  1
  O  O5  1  0.28718500  0.55799900  0.43747300  1
  O  O6  1  0.71281500  0.55799900  0.93747300  1
  O  O7  1  0.28718500  0.44200100  0.06252700  1
  O  O8  1  0.42721400  0.74081200  0.63822000  1
  O  O9  1  0.57278600  0.25918800  0.36178000  1
  O  O10  1  0.42721400  0.25918800  0.86178000  1
  O  O11  1  0.57278600  0.74081200  0.13822000  1
loop_
_geom_bond_atom_site_label_1
_geom_bond_atom_site_label_2
_geom_bond_distance
_geom_bond_site_symmetry_2
Dy0 O6 2.236037 1_555
Dy0 O4 2.236037 1_555
Dy0 O8 2.264627 1_555
Dy0 O10 2.264627 1_555
Dy0 O2 2.314176 1_555
Dy0 O0 2.314176 1_555
Dy1 O5 2.236037 1_555
Dy1 O7 2.236037 1_555
Dy1 O11 2.264627 1_555
Dy1 O9 2.264627 1_555
Dy1 O3 2.314176 1_555
Dy1 O1 2.314176 1_555
Br0 O0 1.749881 1_445
Br0 O2 1.749881 1_455
Br1 O3 1.749881 1_645
Br1 O1 1.749881 1_655
Br2 O5 1.732901 1_555
Br2 O8 1.768610 1_555
Br3 O4 1.732901 1_555
Br3 O9 1.768610 1_555
Br4 O7 1.732901 1_556
Br4 O10 1.768610 1_555
Br5 O6 1.732901 1_554
Br5 O11 1.768610 1_555
