# generated using pymatgen
data_Li6Mn2O5F2
_symmetry_space_group_name_H-M   'P 1'
_cell_length_a   5.83026100
_cell_length_b   5.84022666
_cell_length_c   9.85552360
_cell_angle_alpha   92.72432593
_cell_angle_beta   97.58863374
_cell_angle_gamma   117.96514629
_symmetry_Int_Tables_number   1
_chemical_formula_structural   Li6Mn2O5F2
_chemical_formula_sum   'Li12 Mn4 O10 F4'
_cell_volume   291.49510619
_cell_formula_units_Z   2
loop_
 _symmetry_equiv_pos_site_id
 _symmetry_equiv_pos_as_xyz
  1  'x, y, z'
loop_
 _atom_site_type_symbol
 _atom_site_label
 _atom_site_symmetry_multiplicity
 _atom_site_fract_x
 _atom_site_fract_y
 _atom_site_fract_z
 _atom_site_occupancy
  Li  Li0  1  0.13032900  0.47145300  0.60995000  1
  Li  Li1  1  0.12130700  0.90121800  0.59932100  1
  Li  Li2  1  0.14545900  0.67927500  0.10662900  1
  Li  Li3  1  0.14876800  0.22667200  0.10263600  1
  Li  Li4  1  0.40835100  0.33620500  0.88046500  1
  Li  Li5  1  0.40910200  0.06708100  0.39263100  1
  Li  Li6  1  0.57725900  0.91232300  0.61192300  1
  Li  Li7  1  0.58673700  0.67047300  0.10689100  1
  Li  Li8  1  0.88940400  0.82443700  0.89960700  1
  Li  Li9  1  0.86992500  0.31935300  0.89190600  1
  Li  Li10  1  0.84340000  0.05922300  0.40424900  1
  Li  Li11  1  0.85324500  0.51623200  0.39113100  1
  Mn  Mn0  1  0.40066600  0.82433800  0.87423400  1
  Mn  Mn1  1  0.35216700  0.53762000  0.36821100  1
  Mn  Mn2  1  0.61551600  0.42484100  0.63494900  1
  Mn  Mn3  1  0.64575800  0.20043200  0.13210000  1
  O  O0  1  0.25275400  0.51890800  0.97101700  1
  O  O1  1  0.23630800  0.72925300  0.47482300  1
  O  O2  1  0.51098500  0.13992400  0.75541100  1
  O  O3  1  0.49630000  0.62898800  0.74548500  1
  O  O4  1  0.30127400  0.01761700  0.00668800  1
  O  O5  1  0.76965500  0.02607800  0.01102100  1
  O  O6  1  0.49245400  0.36155000  0.24762500  1
  O  O7  1  0.68961800  0.68893200  0.49852200  1
  O  O8  1  0.74741300  0.25030500  0.52727600  1
  O  O9  1  0.99984500  0.36910000  0.24676500  1
  F  F0  1  0.19720100  0.19404200  0.49883300  1
  F  F1  1  0.51788100  0.87065100  0.25219300  1
  F  F2  1  0.00944200  0.68927500  0.74794500  1
  F  F3  1  0.78147900  0.54420300  0.00956000  1
loop_
_geom_bond_atom_site_label_1
_geom_bond_atom_site_label_2
_geom_bond_distance
_geom_bond_site_symmetry_2
Li0 O1 1.989383 1_555
Li0 O8 2.007819 1_455
Li0 O3 2.114882 1_555
Li1 O1 1.922341 1_555
Li1 O7 2.270372 1_455
Li1 O2 2.318232 1_565
Li2 O0 1.925129 1_554
Li2 O4 2.106606 1_565
Li2 O9 2.239396 1_455
Li3 O5 2.004254 1_455
Li3 O4 2.075068 1_555
Li3 O6 2.081805 1_555
Li3 O9 2.086695 1_455
Li3 O0 2.100204 1_554
Li4 O0 1.946559 1_555
Li4 O2 1.973555 1_555
Li4 O3 2.128505 1_555
Li4 O4 2.175991 1_556
Li5 O8 1.997670 1_555
Li5 O1 2.016705 1_545
Li5 O6 2.206662 1_555
Li6 O1 2.019976 1_555
Li6 O8 2.028535 1_565
Li6 O7 2.058315 1_555
Li6 O3 2.081418 1_555
Li6 O2 2.088859 1_565
Li7 O0 1.987577 1_554
Li7 O5 2.172252 1_565
Li7 O6 2.233863 1_555
Li8 O5 1.982575 1_566
Li8 O4 2.197616 1_666
Li8 O3 2.307615 1_555
Li9 O0 1.990553 1_655
Li9 O5 2.021600 1_556
Li9 O2 2.086369 1_555
Li10 O8 1.914423 1_555
Li10 O7 2.221807 1_545
Li10 O9 2.368315 1_555
Li11 O1 2.006497 1_655
Li11 O8 2.027597 1_555
Li11 O7 2.028595 1_555
Li11 O9 2.094531 1_555
Li11 O6 2.133478 1_555
Mn0 O0 1.942079 1_555
Mn0 O3 1.966835 1_555
Mn0 O4 1.996808 1_566
Mn0 O2 2.115275 1_565
Mn0 O5 2.130607 1_566
Mn1 O1 1.896721 1_555
Mn1 O7 1.973636 1_555
Mn1 O9 1.990800 1_455
Mn1 O6 2.016952 1_555
Mn2 O8 1.898509 1_555
Mn2 O3 1.986228 1_555
Mn2 O2 1.994375 1_555
Mn2 O7 2.024588 1_555
Mn3 O5 1.945410 1_555
Mn3 O9 1.969779 1_555
Mn3 O4 1.977170 1_555
Mn3 O6 1.984020 1_555
F0 Li10 1.908658 1_455
F0 Li1 1.915279 1_545
F0 Li5 2.073289 1_555
F0 Li0 2.124306 1_555
F0 Mn1 2.313520 1_555
F0 Mn2 2.333551 1_555
F1 Li7 2.002868 1_555
F1 Li10 2.047483 1_565
F1 Li5 2.096962 1_565
F1 Mn1 2.182793 1_555
F1 Mn3 2.183854 1_565
F1 Li2 2.184198 1_555
F2 Li1 1.941800 1_555
F2 Li8 2.007315 1_455
F2 Mn2 2.175879 1_455
F2 Mn0 2.200785 1_555
F2 Li0 2.212305 1_555
F2 Li9 2.508023 1_455
F3 Li8 1.905683 1_554
F3 Li7 1.938761 1_555
F3 Li2 1.965413 1_655
F3 Li9 1.995779 1_554
F3 Li4 2.114357 1_554
F3 Mn3 2.260190 1_555
