# generated using pymatgen
data_CdRe2H8C2(N2O5)2
_symmetry_space_group_name_H-M   'P 1'
_cell_length_a   10.51898100
_cell_length_b   8.30276900
_cell_length_c   15.79618623
_cell_angle_alpha   85.35952739
_cell_angle_beta   90.00000000
_cell_angle_gamma   90.00000000
_symmetry_Int_Tables_number   1
_chemical_formula_structural   CdRe2H8C2(N2O5)2
_chemical_formula_sum   'Cd4 Re8 H32 C8 N16 O40'
_cell_volume   1375.06398107
_cell_formula_units_Z   4
loop_
 _symmetry_equiv_pos_site_id
 _symmetry_equiv_pos_as_xyz
  1  'x, y, z'
loop_
 _atom_site_type_symbol
 _atom_site_label
 _atom_site_symmetry_multiplicity
 _atom_site_fract_x
 _atom_site_fract_y
 _atom_site_fract_z
 _atom_site_occupancy
  Cd  Cd0  1  0.57102500  0.87789400  0.25222500  1
  Cd  Cd1  1  0.07102500  0.62210600  0.74777500  1
  Cd  Cd2  1  0.42897500  0.12210600  0.74777500  1
  Cd  Cd3  1  0.92897500  0.37789400  0.25222500  1
  Re  Re0  1  0.90463700  0.96866400  0.15039700  1
  Re  Re1  1  0.40463700  0.53133600  0.84960300  1
  Re  Re2  1  0.09536300  0.03133600  0.84960300  1
  Re  Re3  1  0.59536300  0.46866400  0.15039700  1
  Re  Re4  1  0.68511900  0.18738800  0.41424500  1
  Re  Re5  1  0.18511900  0.31261200  0.58575500  1
  Re  Re6  1  0.31488100  0.81261200  0.58575500  1
  Re  Re7  1  0.81488100  0.68738800  0.41424500  1
  H  H0  1  0.34633400  0.48676700  0.40678300  1
  H  H1  1  0.84633400  0.01323300  0.59321700  1
  H  H2  1  0.65366600  0.51323300  0.59321700  1
  H  H3  1  0.15366600  0.98676700  0.40678300  1
  H  H4  1  0.48413400  0.59083400  0.37501800  1
  H  H5  1  0.98413400  0.90916600  0.62498200  1
  H  H6  1  0.51586600  0.40916600  0.62498200  1
  H  H7  1  0.01586600  0.09083400  0.37501800  1
  H  H8  1  0.14933800  0.57260800  0.35463500  1
  H  H9  1  0.64933800  0.92739200  0.64536500  1
  H  H10  1  0.85066200  0.42739200  0.64536500  1
  H  H11  1  0.35066200  0.07260800  0.35463500  1
  H  H12  1  0.13906300  0.74680900  0.28394900  1
  H  H13  1  0.63906300  0.75319100  0.71605100  1
  H  H14  1  0.86093700  0.25319100  0.71605100  1
  H  H15  1  0.36093700  0.24680900  0.28394900  1
  H  H16  1  0.34449900  0.17253100  0.98452200  1
  H  H17  1  0.84449900  0.32746900  0.01547800  1
  H  H18  1  0.65550100  0.82746900  0.01547800  1
  H  H19  1  0.15550100  0.67253100  0.98452200  1
  H  H20  1  0.49567700  0.23886400  0.01039100  1
  H  H21  1  0.99567700  0.26113600  0.98960900  1
  H  H22  1  0.50432300  0.76113600  0.98960900  1
  H  H23  1  0.00432300  0.73886400  0.01039100  1
  H  H24  1  0.24479900  0.97361000  0.06968900  1
  H  H25  1  0.74479900  0.52639000  0.93031100  1
  H  H26  1  0.75520100  0.02639000  0.93031100  1
  H  H27  1  0.25520100  0.47361000  0.06968900  1
  H  H28  1  0.31647600  0.88675400  0.16196700  1
  H  H29  1  0.81647600  0.61324600  0.83803300  1
  H  H30  1  0.68352400  0.11324600  0.83803300  1
  H  H31  1  0.18352400  0.38675400  0.16196700  1
  C  C0  1  0.31858000  0.68633700  0.32309600  1
  C  C1  1  0.81858000  0.81366300  0.67690400  1
  C  C2  1  0.68142000  0.31366300  0.67690400  1
  C  C3  1  0.18142000  0.18633700  0.32309600  1
  C  C4  1  0.42320200  0.06136700  0.09442900  1
  C  C5  1  0.92320200  0.43863300  0.90557100  1
  C  C6  1  0.57679800  0.93863300  0.90557100  1
  C  C7  1  0.07679800  0.56136700  0.09442900  1
  N  N0  1  0.38871700  0.57622900  0.36903600  1
  N  N1  1  0.88871700  0.92377100  0.63096400  1
  N  N2  1  0.61128300  0.42377100  0.63096400  1
  N  N3  1  0.11128300  0.07622900  0.36903600  1
  N  N4  1  0.19129400  0.67111800  0.32410000  1
  N  N5  1  0.69129400  0.82888200  0.67590000  1
  N  N6  1  0.80870600  0.32888200  0.67590000  1
  N  N7  1  0.30870600  0.17111800  0.32410000  1
  N  N8  1  0.41844800  0.16985700  0.02583900  1
  N  N9  1  0.91844800  0.33014300  0.97416100  1
  N  N10  1  0.58155200  0.83014300  0.97416100  1
  N  N11  1  0.08155200  0.66985700  0.02583900  1
  N  N12  1  0.32256400  0.96174000  0.10753900  1
  N  N13  1  0.82256400  0.53826000  0.89246100  1
  N  N14  1  0.67743600  0.03826000  0.89246100  1
  N  N15  1  0.17743600  0.46174000  0.10753900  1
  O  O0  1  0.79051700  0.89194700  0.22459900  1
  O  O1  1  0.29051700  0.60805300  0.77540100  1
  O  O2  1  0.20948300  0.10805300  0.77540100  1
  O  O3  1  0.70948300  0.39194700  0.22459900  1
  O  O4  1  0.90937100  0.18151600  0.15062100  1
  O  O5  1  0.40937100  0.31848400  0.84937900  1
  O  O6  1  0.09062900  0.81848400  0.84937900  1
  O  O7  1  0.59062900  0.68151600  0.15062100  1
  O  O8  1  0.86533600  0.91802400  0.04783500  1
  O  O9  1  0.36533600  0.58197600  0.95216500  1
  O  O10  1  0.13466400  0.08197600  0.95216500  1
  O  O11  1  0.63466400  0.41802400  0.04783500  1
  O  O12  1  0.05346100  0.89275500  0.18035700  1
  O  O13  1  0.55346100  0.60724500  0.81964300  1
  O  O14  1  0.94653900  0.10724500  0.81964300  1
  O  O15  1  0.44653900  0.39275500  0.18035700  1
  O  O16  1  0.58890500  0.06968200  0.35095700  1
  O  O17  1  0.08890500  0.43031800  0.64904300  1
  O  O18  1  0.41109500  0.93031800  0.64904300  1
  O  O19  1  0.91109500  0.56968200  0.35095700  1
  O  O20  1  0.83892200  0.21615300  0.37040000  1
  O  O21  1  0.33892200  0.28384700  0.62960000  1
  O  O22  1  0.16107800  0.78384700  0.62960000  1
  O  O23  1  0.66107800  0.71615300  0.37040000  1
  O  O24  1  0.69589100  0.09053200  0.51659000  1
  O  O25  1  0.19589100  0.40946800  0.48341000  1
  O  O26  1  0.30410900  0.90946800  0.48341000  1
  O  O27  1  0.80410900  0.59053200  0.51659000  1
  O  O28  1  0.61302300  0.37369300  0.42236900  1
  O  O29  1  0.11302300  0.12630700  0.57763100  1
  O  O30  1  0.38697700  0.62630700  0.57763100  1
  O  O31  1  0.88697700  0.87369300  0.42236900  1
  O  O32  1  0.36857100  0.80628000  0.27790300  1
  O  O33  1  0.86857100  0.69372000  0.72209700  1
  O  O34  1  0.63142900  0.19372000  0.72209700  1
  O  O35  1  0.13142900  0.30628000  0.27790300  1
  O  O36  1  0.52084400  0.05718200  0.14270200  1
  O  O37  1  0.02084400  0.44281800  0.85729800  1
  O  O38  1  0.47915600  0.94281800  0.85729800  1
  O  O39  1  0.97915600  0.55718200  0.14270200  1
loop_
_geom_bond_atom_site_label_1
_geom_bond_atom_site_label_2
_geom_bond_distance
_geom_bond_site_symmetry_2
Cd0 O32 2.239259 1_555
Cd0 O36 2.251860 1_565
Cd0 O16 2.324903 1_565
Cd0 O0 2.350854 1_555
Cd0 O7 2.387530 1_555
Cd0 O23 2.404099 1_555
Cd1 O33 2.239259 1_455
Cd1 O37 2.251860 1_555
Cd1 O17 2.324903 1_555
Cd1 O1 2.350854 1_555
Cd1 O6 2.387530 1_555
Cd1 O22 2.404099 1_555
Cd2 O34 2.239259 1_555
Cd2 O38 2.251860 1_545
Cd2 O18 2.324903 1_545
Cd2 O2 2.350854 1_555
Cd2 O5 2.387530 1_555
Cd2 O21 2.404099 1_555
Cd3 O35 2.239259 1_655
Cd3 O39 2.251860 1_555
Cd3 O19 2.324903 1_555
Cd3 O3 2.350854 1_555
Cd3 O4 2.387530 1_555
Cd3 O20 2.404099 1_555
H0 N0 1.017029 1_555
H1 N1 1.017029 1_545
H2 N2 1.017029 1_555
H3 N3 1.017029 1_565
H4 N0 1.016307 1_555
H5 N1 1.016307 1_555
H6 N2 1.016307 1_555
H7 N3 1.016307 1_555
H8 N4 1.016150 1_555
H9 N5 1.016150 1_555
H10 N6 1.016150 1_555
H11 N7 1.016150 1_555
H12 N4 1.017133 1_555
H13 N5 1.017133 1_555
H14 N6 1.017133 1_555
H15 N7 1.017133 1_555
H16 N8 1.014485 1_556
H17 N9 1.014485 1_554
H18 N10 1.014485 1_554
H19 N11 1.014485 1_556
H20 N8 1.012492 1_555
H21 N9 1.012492 1_555
H22 N10 1.012492 1_555
H23 N11 1.012492 1_555
H24 N12 1.013303 1_555
H25 N13 1.013303 1_555
H26 N14 1.013303 1_555
H27 N15 1.013303 1_555
H28 N12 1.021904 1_555
H29 N13 1.021904 1_555
H30 N14 1.021904 1_555
H31 N15 1.021904 1_555
C0 O32 1.289514 1_555
C0 N0 1.341391 1_555
C0 N4 1.344841 1_555
C1 O33 1.289514 1_555
C1 N1 1.341391 1_555
C1 N5 1.344841 1_555
C2 O34 1.289514 1_555
C2 N2 1.341391 1_555
C2 N6 1.344841 1_555
C3 O35 1.289514 1_555
C3 N3 1.341391 1_555
C3 N7 1.344841 1_555
C4 O36 1.278004 1_555
C4 N12 1.349092 1_545
C4 N8 1.352721 1_555
C5 O37 1.278004 1_655
C5 N13 1.349092 1_555
C5 N9 1.352721 1_555
C6 O38 1.278004 1_555
C6 N14 1.349092 1_565
C6 N10 1.352721 1_555
C7 O39 1.278004 1_455
C7 N15 1.349092 1_555
C7 N11 1.352721 1_555
O0 Re0 1.760620 1_555
O1 Re1 1.760620 1_555
O2 Re2 1.760620 1_555
O3 Re3 1.760620 1_555
O4 Re0 1.768252 1_545
O5 Re1 1.768252 1_555
O6 Re2 1.768252 1_565
O7 Re3 1.768252 1_555
O8 Re0 1.755730 1_555
O9 Re1 1.755730 1_555
O10 Re2 1.755730 1_555
O11 Re3 1.755730 1_555
O12 Re0 1.738863 1_455
O13 Re1 1.738863 1_555
O14 Re2 1.738863 1_655
O15 Re3 1.738863 1_555
O16 Re4 1.771125 1_555
O17 Re5 1.771125 1_555
O18 Re6 1.771125 1_555
O19 Re7 1.771125 1_555
O20 Re4 1.768442 1_555
O21 Re5 1.768442 1_555
O22 Re6 1.768442 1_555
O23 Re7 1.768442 1_555
O24 Re4 1.750076 1_555
O25 Re5 1.750076 1_555
O26 Re6 1.750076 1_555
O27 Re7 1.750076 1_555
O28 Re4 1.736796 1_555
O29 Re5 1.736796 1_555
O30 Re6 1.736796 1_555
O31 Re7 1.736796 1_555
