# generated using pymatgen
data_C5N4O3
_symmetry_space_group_name_H-M   'P 1'
_cell_length_a   7.88942100
_cell_length_b   6.63645600
_cell_length_c   16.02429298
_cell_angle_alpha   75.26619480
_cell_angle_beta   90.00000000
_cell_angle_gamma   90.00000000
_symmetry_Int_Tables_number   1
_chemical_formula_structural   C5N4O3
_chemical_formula_sum   'C20 N16 O12'
_cell_volume   811.40865022
_cell_formula_units_Z   4
loop_
 _symmetry_equiv_pos_site_id
 _symmetry_equiv_pos_as_xyz
  1  'x, y, z'
loop_
 _atom_site_type_symbol
 _atom_site_label
 _atom_site_symmetry_multiplicity
 _atom_site_fract_x
 _atom_site_fract_y
 _atom_site_fract_z
 _atom_site_occupancy
  C  C0  1  0.10603900  0.35786000  0.89514600  1
  C  C1  1  0.60603900  0.64214000  0.60485400  1
  C  C2  1  0.89396100  0.64214000  0.10485400  1
  C  C3  1  0.39396100  0.35786000  0.39514600  1
  C  C4  1  0.24225000  0.68965000  0.86615500  1
  C  C5  1  0.74225000  0.31035000  0.63384500  1
  C  C6  1  0.75775000  0.31035000  0.13384500  1
  C  C7  1  0.25775000  0.68965000  0.36615500  1
  C  C8  1  0.31285400  0.67867700  0.95115600  1
  C  C9  1  0.81285400  0.32132300  0.54884400  1
  C  C10  1  0.68714600  0.32132300  0.04884400  1
  C  C11  1  0.18714600  0.67867700  0.45115600  1
  C  C12  1  0.19859900  0.27035000  0.05081600  1
  C  C13  1  0.69859900  0.72965000  0.44918400  1
  C  C14  1  0.80140100  0.72965000  0.94918400  1
  C  C15  1  0.30140100  0.27035000  0.55081600  1
  C  C16  1  0.35985100  0.02600800  0.81617100  1
  C  C17  1  0.85985100  0.97399200  0.68382900  1
  C  C18  1  0.64014900  0.97399200  0.18382900  1
  C  C19  1  0.14014900  0.02600800  0.31617100  1
  N  N0  1  0.11664900  0.32596600  0.98522700  1
  N  N1  1  0.61664900  0.67403400  0.51477300  1
  N  N2  1  0.88335100  0.67403400  0.01477300  1
  N  N3  1  0.38335100  0.32596600  0.48522700  1
  N  N4  1  0.15196200  0.55195400  0.84254100  1
  N  N5  1  0.65196200  0.44804600  0.65745900  1
  N  N6  1  0.84803800  0.44804600  0.15745900  1
  N  N7  1  0.34803800  0.55195400  0.34254100  1
  N  N8  1  0.37552800  0.69332200  0.01529900  1
  N  N9  1  0.87552800  0.30667800  0.48470100  1
  N  N10  1  0.62447200  0.30667800  0.98470100  1
  N  N11  1  0.12447200  0.69332200  0.51529900  1
  N  N12  1  0.27989700  0.87332800  0.80678900  1
  N  N13  1  0.77989700  0.12667200  0.69321100  1
  N  N14  1  0.72010300  0.12667200  0.19321100  1
  N  N15  1  0.22010300  0.87332800  0.30678900  1
  O  O0  1  0.04748500  0.22329700  0.86389400  1
  O  O1  1  0.54748500  0.77670300  0.63610600  1
  O  O2  1  0.95251500  0.77670300  0.13610600  1
  O  O3  1  0.45251500  0.22329700  0.36389400  1
  O  O4  1  0.26802700  0.22387200  0.11826300  1
  O  O5  1  0.76802700  0.77612800  0.38173700  1
  O  O6  1  0.73197300  0.77612800  0.88173700  1
  O  O7  1  0.23197300  0.22387200  0.61826300  1
  O  O8  1  0.43250300  0.17842200  0.81736300  1
  O  O9  1  0.93250300  0.82157800  0.68263700  1
  O  O10  1  0.56749700  0.82157800  0.18263700  1
  O  O11  1  0.06749700  0.17842200  0.31736300  1
loop_
_geom_bond_atom_site_label_1
_geom_bond_atom_site_label_2
_geom_bond_distance
_geom_bond_site_symmetry_2
C0 O0 1.220313 1_555
C0 N4 1.395969 1_555
C0 N0 1.407140 1_555
C1 O1 1.220313 1_555
C1 N5 1.395969 1_555
C1 N1 1.407140 1_555
C2 O2 1.220313 1_555
C2 N6 1.395969 1_555
C2 N2 1.407140 1_555
C3 O3 1.220313 1_555
C3 N7 1.395969 1_555
C3 N3 1.407140 1_555
C4 N4 1.289002 1_555
C4 N12 1.374494 1_555
C4 C8 1.456156 1_555
C5 N5 1.289002 1_555
C5 N13 1.374494 1_555
C5 C9 1.456156 1_555
C6 N6 1.289002 1_555
C6 N14 1.374494 1_555
C7 N7 1.289002 1_555
C7 N15 1.374494 1_555
C8 N8 1.166713 1_556
C9 N9 1.166713 1_555
C10 N10 1.166713 1_554
C10 C6 1.456156 1_555
C11 N11 1.166713 1_555
C11 C7 1.456156 1_555
C12 O4 1.180553 1_555
C12 N0 1.208949 1_554
C13 O5 1.180553 1_555
C13 N1 1.208949 1_555
C14 O6 1.180553 1_555
C14 N2 1.208949 1_556
C15 O7 1.180553 1_555
C15 N3 1.208949 1_555
C16 O8 1.166979 1_555
C16 N12 1.234774 1_545
C17 O9 1.166979 1_555
C17 N13 1.234774 1_565
C18 O10 1.166979 1_555
C18 N14 1.234774 1_565
C19 O11 1.166979 1_555
C19 N15 1.234774 1_545
