# generated using pymatgen
data_Na2CuP
_symmetry_space_group_name_H-M   'P 1'
_cell_length_a   5.17933139
_cell_length_b   5.52850960
_cell_length_c   5.52850991
_cell_angle_alpha   102.45519493
_cell_angle_beta   90.00000000
_cell_angle_gamma   90.00000000
_symmetry_Int_Tables_number   1
_chemical_formula_structural   Na2CuP
_chemical_formula_sum   'Na4 Cu2 P2'
_cell_volume   154.57758741
_cell_formula_units_Z   2
loop_
 _symmetry_equiv_pos_site_id
 _symmetry_equiv_pos_as_xyz
  1  'x, y, z'
loop_
 _atom_site_type_symbol
 _atom_site_label
 _atom_site_symmetry_multiplicity
 _atom_site_fract_x
 _atom_site_fract_y
 _atom_site_fract_z
 _atom_site_occupancy
  Na  Na0  1  0.25000000  0.68459005  0.02986682  1
  Na  Na1  1  0.75000000  0.31540995  0.97013318  1
  Na  Na2  1  0.25000000  0.02986682  0.68459005  1
  Na  Na3  1  0.75000000  0.97013318  0.31540995  1
  Cu  Cu0  1  0.50000000  0.50000000  0.50000000  1
  Cu  Cu1  1  -0.00000000  0.50000000  0.50000000  1
  P  P0  1  0.75000000  0.76050177  0.76050177  1
  P  P1  1  0.25000000  0.23949823  0.23949823  1
loop_
_geom_bond_atom_site_label_1
_geom_bond_atom_site_label_2
_geom_bond_distance
_geom_bond_site_symmetry_2
Na0 P1 2.937400 1_555
Na0 P1 3.036611 1_565
Na0 P0 3.061007 1_554
Na0 P0 3.061007 1_454
Na1 P0 2.937400 1_555
Na1 P0 3.036611 1_545
Na1 P1 3.061007 1_556
Na1 P1 3.061007 1_656
Na2 P1 2.937400 1_555
Na2 P1 3.036611 1_556
Na2 P0 3.061007 1_445
Na2 P0 3.061007 1_545
Na3 P0 2.937400 1_555
Na3 P0 3.036611 1_554
Na3 P1 3.061007 1_665
Na3 P1 3.061007 1_565
Cu0 P1 2.220402 1_555
Cu0 P0 2.220402 1_555
Cu1 P0 2.220402 1_455
Cu1 P1 2.220402 1_555
