# generated using pymatgen
data_Li6Mn3P8O29
_symmetry_space_group_name_H-M   'P 1'
_cell_length_a   9.72740100
_cell_length_b   9.73434486
_cell_length_c   13.92022727
_cell_angle_alpha   89.98900410
_cell_angle_beta   90.02446967
_cell_angle_gamma   119.85473293
_symmetry_Int_Tables_number   1
_chemical_formula_structural   Li6Mn3P8O29
_chemical_formula_sum   'Li12 Mn6 P16 O58'
_cell_volume   1143.17924071
_cell_formula_units_Z   2
loop_
 _symmetry_equiv_pos_site_id
 _symmetry_equiv_pos_as_xyz
  1  'x, y, z'
loop_
 _atom_site_type_symbol
 _atom_site_label
 _atom_site_symmetry_multiplicity
 _atom_site_fract_x
 _atom_site_fract_y
 _atom_site_fract_z
 _atom_site_occupancy
  Li  Li0  1  0.98873600  0.03121400  0.49127300  1
  Li  Li1  1  0.33544500  0.10183800  0.43789800  1
  Li  Li2  1  0.77533100  0.09805300  0.94179100  1
  Li  Li3  1  0.76276300  0.66492100  0.43707400  1
  Li  Li4  1  0.09280200  0.31642800  0.06249100  1
  Li  Li5  1  0.90737900  0.67812400  0.94075000  1
  Li  Li6  1  0.23434300  0.33789900  0.55832600  1
  Li  Li7  1  0.09812100  0.76377300  0.55874700  1
  Li  Li8  1  0.33166400  0.66411100  0.88515700  1
  Li  Li9  1  0.22500300  0.91525500  0.06298800  1
  Li  Li10  1  0.68201200  0.77373700  0.06396900  1
  Li  Li11  1  0.66470100  0.90465000  0.55877900  1
  Mn  Mn0  1  0.43484400  0.00134300  0.25039000  1
  Mn  Mn1  1  0.56721400  0.00038200  0.74925000  1
  Mn  Mn2  1  0.43151100  0.43158800  0.75067300  1
  Mn  Mn3  1  0.56471000  0.56320600  0.24879700  1
  Mn  Mn4  1  0.99871800  0.43191200  0.25230500  1
  Mn  Mn5  1  0.00058800  0.56542400  0.74760600  1
  P  P0  1  0.31828200  0.08867100  0.65986600  1
  P  P1  1  0.31989100  0.23099000  0.15877700  1
  P  P2  1  0.76811900  0.09037600  0.16071000  1
  P  P3  1  0.66686700  0.33438200  0.86970300  1
  P  P4  1  0.66807500  0.33385800  0.37002900  1
  P  P5  1  0.91348400  0.22619800  0.65911700  1
  P  P6  1  0.09219600  0.32264300  0.84247600  1
  P  P7  1  0.76854600  0.67979700  0.65859300  1
  P  P8  1  0.22843900  0.31829900  0.34107800  1
  P  P9  1  0.90951500  0.67575000  0.15927700  1
  P  P10  1  0.08912800  0.77079800  0.34079900  1
  P  P11  1  0.33230100  0.66645000  0.12858800  1
  P  P12  1  0.33397000  0.66684300  0.62691000  1
  P  P13  1  0.23111100  0.90853100  0.84252500  1
  P  P14  1  0.67750100  0.76805900  0.84144700  1
  P  P15  1  0.68244900  0.90886700  0.34187200  1
  O  O0  1  0.21073000  0.99985100  0.75187000  1
  O  O1  1  0.23878700  0.98881700  0.93427300  1
  O  O2  1  0.33742200  0.08084300  0.15946900  1
  O  O3  1  0.21264400  0.20419500  0.25414600  1
  O  O4  1  0.22482800  0.23111400  0.43317100  1
  O  O5  1  0.33489600  0.25525100  0.65968800  1
  O  O6  1  0.47944300  0.09789900  0.67203500  1
  O  O7  1  0.50861800  0.18546500  0.33536000  1
  O  O8  1  0.62069600  0.10631000  0.17676000  1
  O  O9  1  0.77077900  0.98322700  0.43359500  1
  O  O10  1  0.79213000  0.99991700  0.25057000  1
  O  O11  1  0.74417300  0.07980900  0.65935100  1
  O  O12  1  0.51573100  0.32809400  0.82874600  1
  O  O13  1  0.48358000  0.37846100  0.17468000  1
  O  O14  1  0.67267000  0.18309900  0.83533300  1
  O  O15  1  0.67385500  0.33847000  0.97744600  1
  O  O16  1  0.66273100  0.33818500  0.47778500  1
  O  O17  1  0.81078800  0.32208500  0.33040700  1
  O  O18  1  0.61672000  0.52114100  0.67179800  1
  O  O19  1  0.67682000  0.49125100  0.33232200  1
  O  O20  1  0.91955500  0.25498000  0.15981900  1
  O  O21  1  0.99329000  0.20661600  0.75628500  1
  O  O22  1  0.00317500  0.25158400  0.93376300  1
  O  O23  1  0.00344600  0.21278200  0.57540400  1
  O  O24  1  0.90804800  0.38041200  0.66837900  1
  O  O25  1  0.81841300  0.48863700  0.83257900  1
  O  O26  1  0.08190900  0.33798200  0.33888600  1
  O  O27  1  0.89541600  0.51435500  0.17668600  1
  O  O28  1  0.74456100  0.66303100  0.15862200  1
  O  O29  1  0.23228700  0.23563700  0.07269600  1
  O  O30  1  0.75325800  0.75400900  0.93200900  1
  O  O31  1  0.78898900  0.78885200  0.75125300  1
  O  O32  1  0.25720700  0.33859300  0.84075400  1
  O  O33  1  0.11590600  0.49134500  0.82329000  1
  O  O34  1  0.91865600  0.66320300  0.65867400  1
  O  O35  1  0.18465000  0.51080200  0.16499000  1
  O  O36  1  0.09823900  0.61918900  0.32903100  1
  O  O37  1  0.00277100  0.77398600  0.43103400  1
  O  O38  1  0.99750300  0.75494000  0.06849800  1
  O  O39  1  0.00007600  0.79145000  0.24915200  1
  O  O40  1  0.07968700  0.74180400  0.83936100  1
  O  O41  1  0.32118500  0.50870600  0.66478300  1
  O  O42  1  0.38231200  0.47795700  0.32885700  1
  O  O43  1  0.18844000  0.68014900  0.66424200  1
  O  O44  1  0.33307400  0.66761100  0.01981100  1
  O  O45  1  0.33424000  0.66710800  0.51912400  1
  O  O46  1  0.32494700  0.81474300  0.16546300  1
  O  O47  1  0.50883700  0.62562400  0.82410300  1
  O  O48  1  0.48925700  0.67480700  0.16449900  1
  O  O49  1  0.25569600  0.91998800  0.34106900  1
  O  O50  1  0.23136100  0.00360200  0.56916600  1
  O  O51  1  0.37595900  0.88456900  0.82351300  1
  O  O52  1  0.49186600  0.81238600  0.66456200  1
  O  O53  1  0.52370900  0.90478400  0.33015000  1
  O  O54  1  0.66176800  0.74044900  0.33766300  1
  O  O55  1  0.77161900  0.76889000  0.56877100  1
  O  O56  1  0.66490100  0.92032600  0.84259100  1
  O  O57  1  0.75808000  0.00215000  0.06946800  1
loop_
_geom_bond_atom_site_label_1
_geom_bond_atom_site_label_2
_geom_bond_distance
_geom_bond_site_symmetry_2
Li0 O23 2.065121 1_655
Li0 O9 2.090590 1_545
Li0 O4 2.294908 1_655
Li1 O4 2.023311 1_555
Li1 O7 2.043032 1_555
Li1 O49 2.045722 1_545
Li1 O50 2.077369 1_555
Li2 O22 1.964829 1_655
Li2 O57 1.975373 1_556
Li2 O56 2.050180 1_545
Li2 O14 2.167962 1_555
Li3 O37 2.029092 1_655
Li3 O54 2.034262 1_555
Li3 O19 2.067842 1_555
Li3 O55 2.075162 1_555
Li4 O29 1.881976 1_555
Li4 O22 1.954667 1_554
Li4 O20 2.007841 1_455
Li4 O35 2.175080 1_555
Li5 O38 1.958698 1_556
Li5 O30 1.977485 1_555
Li5 O40 2.037839 1_655
Li5 O25 2.197556 1_555
Li6 O23 1.965037 1_555
Li6 O4 2.007255 1_555
Li6 O41 2.067773 1_555
Li6 O5 2.092055 1_555
Li7 O37 2.030033 1_555
Li7 O50 2.034350 1_565
Li7 O34 2.059344 1_455
Li7 O43 2.074013 1_555
Li8 O44 1.874651 1_556
Li8 O33 2.111802 1_555
Li8 O47 2.115915 1_555
Li8 O51 2.146246 1_555
Li9 O1 1.909242 1_554
Li9 O2 1.960212 1_565
Li9 O38 1.974920 1_455
Li9 O46 2.209663 1_555
Li10 O57 1.964466 1_565
Li10 O28 1.979684 1_555
Li10 O30 2.006280 1_554
Li10 O48 2.146011 1_555
Li11 O9 1.975260 1_555
Li11 O11 2.037762 1_565
Li11 O55 2.053212 1_555
Li11 O52 2.073593 1_555
Mn0 O8 1.877489 1_555
Mn0 O53 1.916024 1_545
Mn0 O2 1.956414 1_555
Mn0 O7 1.961098 1_555
Mn0 O49 1.970990 1_545
Mn0 O46 1.976436 1_545
Mn1 O6 1.895015 1_555
Mn1 O51 1.927121 1_545
Mn1 O11 1.950205 1_555
Mn1 O14 1.958309 1_555
Mn1 O56 1.983513 1_545
Mn1 O52 1.985096 1_545
Mn2 O18 1.910212 1_555
Mn2 O12 1.920354 1_555
Mn2 O32 1.933887 1_555
Mn2 O47 1.940053 1_555
Mn2 O5 1.956401 1_555
Mn2 O41 1.986303 1_555
Mn3 O13 1.873077 1_555
Mn3 O42 1.901075 1_555
Mn3 O54 1.943317 1_555
Mn3 O19 1.947004 1_555
Mn3 O48 1.971923 1_555
Mn3 O28 1.972174 1_555
Mn4 O27 1.887721 1_555
Mn4 O36 1.908949 1_655
Mn4 O26 1.918038 1_655
Mn4 O17 1.929317 1_555
Mn4 O20 1.973925 1_555
Mn4 O35 1.989195 1_655
Mn5 O24 1.912055 1_455
Mn5 O33 1.921536 1_555
Mn5 O25 1.944433 1_455
Mn5 O34 1.956430 1_455
Mn5 O40 1.963677 1_555
Mn5 O43 1.975468 1_555
O0 P0 1.607003 1_565
O0 P13 1.611467 1_555
O1 P13 1.479760 1_555
O2 P1 1.553557 1_555
O3 P8 1.597544 1_555
O3 P1 1.627550 1_555
O4 P8 1.528024 1_555
O5 P0 1.547459 1_555
O6 P0 1.534260 1_555
O7 P4 1.579342 1_555
O8 P2 1.533686 1_555
O9 P15 1.507532 1_555
O10 P15 1.611960 1_555
O10 P2 1.612051 1_565
O11 P5 1.551291 1_555
O12 P3 1.549152 1_555
O13 P1 1.539218 1_555
O14 P3 1.576013 1_555
O15 P3 1.500956 1_555
O16 P4 1.502235 1_555
O17 P4 1.550350 1_555
O18 P7 1.526236 1_555
O19 P4 1.581171 1_555
O20 P2 1.545176 1_555
O21 P6 1.599522 1_655
O21 P5 1.617048 1_555
O22 P6 1.499114 1_555
O23 P5 1.501830 1_455
O24 P5 1.533639 1_555
O25 P3 1.578426 1_555
O26 P8 1.530079 1_555
O27 P9 1.526818 1_555
O28 P9 1.546695 1_555
O29 P1 1.483762 1_555
O30 P14 1.500154 1_555
O31 P14 1.604973 1_555
O31 P7 1.618745 1_555
O32 P6 1.533958 1_555
O33 P6 1.563378 1_555
O34 P7 1.546948 1_555
O35 P11 1.564929 1_555
O36 P10 1.530700 1_555
O37 P10 1.520279 1_555
O38 P9 1.505757 1_555
O39 P10 1.609553 1_555
O39 P9 1.619106 1_455
O40 P13 1.557404 1_555
O41 P12 1.572317 1_555
O42 P8 1.539098 1_555
O43 P12 1.572910 1_555
O44 P11 1.514235 1_555
O45 P12 1.500409 1_555
O46 P11 1.567011 1_555
O47 P14 1.551601 1_555
O48 P11 1.569475 1_555
O49 P10 1.546495 1_555
O50 P0 1.515620 1_555
O51 P13 1.561174 1_555
O52 P12 1.572927 1_555
O53 P15 1.533369 1_555
O54 P15 1.550268 1_555
O55 P7 1.513340 1_555
O56 P14 1.546975 1_555
O57 P2 1.509008 1_555
