# generated using pymatgen
data_Li8Mn7Fe(BO3)8
_symmetry_space_group_name_H-M   'P 1'
_cell_length_a   5.24491500
_cell_length_b   5.25063184
_cell_length_c   21.00507898
_cell_angle_alpha   91.04202702
_cell_angle_beta   90.95477841
_cell_angle_gamma   119.80225972
_symmetry_Int_Tables_number   1
_chemical_formula_structural   Li8Mn7Fe(BO3)8
_chemical_formula_sum   'Li8 Mn7 Fe1 B8 O24'
_cell_volume   501.65415457
_cell_formula_units_Z   1
loop_
 _symmetry_equiv_pos_site_id
 _symmetry_equiv_pos_as_xyz
  1  'x, y, z'
loop_
 _atom_site_type_symbol
 _atom_site_label
 _atom_site_symmetry_multiplicity
 _atom_site_fract_x
 _atom_site_fract_y
 _atom_site_fract_z
 _atom_site_occupancy
  Li  Li0  1  0.34835300  0.32197200  0.66591100  1
  Li  Li1  1  0.32091100  0.34869300  0.91589000  1
  Li  Li2  1  0.34910600  0.32101600  0.16607600  1
  Li  Li3  1  0.32111500  0.34912500  0.41609300  1
  Li  Li4  1  0.66176300  0.65311200  0.79154300  1
  Li  Li5  1  0.65084700  0.66196600  0.54133400  1
  Li  Li6  1  0.66180900  0.65146900  0.29116200  1
  Li  Li7  1  0.65137600  0.66180400  0.04117200  1
  Mn  Mn0  1  0.99329200  0.32617700  0.55913800  1
  Mn  Mn1  1  0.99626400  0.32942600  0.05845300  1
  Mn  Mn2  1  0.99748900  0.67683800  0.93336600  1
  Mn  Mn3  1  0.99756400  0.67666300  0.43370900  1
  Mn  Mn4  1  0.67703500  0.99726000  0.18347500  1
  Mn  Mn5  1  0.33058600  0.99582100  0.80756000  1
  Mn  Mn6  1  0.32903000  0.99621100  0.30847700  1
  Fe  Fe0  1  0.68183300  0.99446800  0.68380200  1
  B  B0  1  0.65839700  0.00283000  0.93700700  1
  B  B1  1  0.65852400  0.00290700  0.43712200  1
  B  B2  1  0.99627400  0.33430800  0.81143600  1
  B  B3  1  0.99562500  0.33442100  0.31209700  1
  B  B4  1  0.00364900  0.66140900  0.68685200  1
  B  B5  1  0.00259100  0.65852100  0.18710000  1
  B  B6  1  0.33374900  0.99417900  0.56290600  1
  B  B7  1  0.33439400  0.99542800  0.06208500  1
  O  O0  1  0.75351800  0.07065600  0.79028700  1
  O  O1  1  0.75267000  0.06998000  0.29097500  1
  O  O2  1  0.92996300  0.25368600  0.95209400  1
  O  O3  1  0.42079600  0.03313300  0.91628400  1
  O  O4  1  0.92989500  0.25352900  0.45226700  1
  O  O5  1  0.42076400  0.03328300  0.41644300  1
  O  O6  1  0.96313600  0.57790600  0.82679500  1
  O  O7  1  0.35768800  0.26797100  0.56986200  1
  O  O8  1  0.96217400  0.57775100  0.32736100  1
  O  O9  1  0.35886200  0.26906100  0.06941800  1
  O  O10  1  0.26955400  0.35809500  0.81906400  1
  O  O11  1  0.26917400  0.35882900  0.31946700  1
  O  O12  1  0.73030100  0.64065200  0.69373200  1
  O  O13  1  0.72775300  0.62914800  0.19435700  1
  O  O14  1  0.62929100  0.72797600  0.94422300  1
  O  O15  1  0.02192300  0.41481900  0.66797500  1
  O  O16  1  0.62920200  0.72803800  0.44446700  1
  O  O17  1  0.03350000  0.42097200  0.16643300  1
  O  O18  1  0.57721700  0.96181100  0.57837900  1
  O  O19  1  0.57788700  0.96233600  0.07735600  1
  O  O20  1  0.06988200  0.75122600  0.54145200  1
  O  O21  1  0.06991800  0.75259700  0.04095400  1
  O  O22  1  0.25866600  0.92929100  0.70065800  1
  O  O23  1  0.25349400  0.93002500  0.20213400  1
loop_
_geom_bond_atom_site_label_1
_geom_bond_atom_site_label_2
_geom_bond_distance
_geom_bond_site_symmetry_2
Li0 O12 1.935957 1_555
Li0 O15 2.000547 1_555
Li0 O22 2.026620 1_545
Li0 O7 2.037020 1_555
Li1 O14 1.912917 1_555
Li1 O3 1.970532 1_555
Li1 O2 2.020067 1_455
Li1 O10 2.051853 1_555
Li2 O13 1.909556 1_555
Li2 O17 1.969632 1_555
Li2 O23 2.021288 1_545
Li2 O9 2.048508 1_555
Li3 O16 1.911466 1_555
Li3 O5 1.971113 1_555
Li3 O4 2.020325 1_455
Li3 O11 2.048260 1_555
Li4 O6 1.948033 1_555
Li4 O10 1.967255 1_555
Li4 O0 1.998136 1_565
Li4 O12 2.097067 1_555
Li5 O18 1.950155 1_555
Li5 O7 1.979106 1_555
Li5 O20 2.006462 1_655
Li5 O16 2.080953 1_555
Li6 O8 1.945954 1_555
Li6 O11 1.970794 1_555
Li6 O1 2.003828 1_565
Li6 O13 2.079213 1_555
Li7 O19 1.946020 1_555
Li7 O9 1.971870 1_555
Li7 O21 2.001608 1_655
Li7 O14 2.083033 1_554
Mn0 O7 2.089425 1_655
Mn0 O20 2.103372 1_655
Mn0 O18 2.119741 1_545
Mn0 O4 2.261249 1_555
Mn0 O15 2.312130 1_655
Mn1 O9 2.087479 1_655
Mn1 O21 2.098208 1_655
Mn1 O19 2.130865 1_545
Mn1 O2 2.252669 1_554
Mn1 O17 2.294748 1_655
Mn2 O14 2.093177 1_555
Mn2 O2 2.114449 1_555
Mn2 O3 2.116642 1_665
Mn2 O6 2.272566 1_555
Mn2 O21 2.279946 1_656
Mn3 O16 2.094502 1_555
Mn3 O4 2.113354 1_555
Mn3 O5 2.117712 1_665
Mn3 O8 2.267690 1_555
Mn3 O20 2.282663 1_655
Mn4 O13 2.093782 1_555
Mn4 O23 2.113655 1_555
Mn4 O17 2.118934 1_665
Mn4 O19 2.263708 1_555
Mn4 O1 2.278192 1_565
Mn5 O10 2.090506 1_565
Mn5 O0 2.090990 1_565
Mn5 O6 2.132383 1_455
Mn5 O22 2.262472 1_555
Mn5 O3 2.309408 1_565
Mn6 O11 2.087474 1_565
Mn6 O1 2.097422 1_565
Mn6 O8 2.131193 1_455
Mn6 O23 2.252277 1_555
Mn6 O5 2.294982 1_565
Fe0 O12 2.010262 1_555
Fe0 O15 2.072844 1_665
Fe0 O22 2.108112 1_555
Fe0 O18 2.255282 1_555
Fe0 O0 2.257046 1_565
B0 O14 1.385178 1_545
B0 O3 1.396186 1_555
B0 O2 1.403208 1_555
B1 O16 1.385152 1_545
B1 O5 1.396913 1_555
B1 O4 1.402357 1_555
B2 O10 1.381803 1_655
B2 O0 1.393416 1_555
B2 O6 1.406442 1_555
B3 O11 1.381295 1_655
B3 O1 1.395900 1_555
B3 O8 1.405606 1_555
B4 O12 1.392975 1_455
B4 O15 1.395974 1_555
B4 O22 1.397739 1_555
B5 O13 1.382801 1_455
B5 O17 1.397889 1_555
B5 O23 1.403116 1_555
B6 O7 1.384226 1_565
B6 O20 1.396115 1_555
B6 O18 1.403235 1_555
B7 O9 1.382913 1_565
B7 O21 1.395604 1_555
B7 O19 1.404641 1_555
