# generated using pymatgen
data_Li10Mn2Fe3Ni3O16
_symmetry_space_group_name_H-M   'P 1'
_cell_length_a   5.95210087
_cell_length_b   5.95210087
_cell_length_c   9.78657612
_cell_angle_alpha   89.27648286
_cell_angle_beta   89.27648286
_cell_angle_gamma   60.35450807
_symmetry_Int_Tables_number   1
_chemical_formula_structural   Li10Mn2Fe3Ni3O16
_chemical_formula_sum   'Li10 Mn2 Fe3 Ni3 O16'
_cell_volume   301.29782227
_cell_formula_units_Z   1
loop_
 _symmetry_equiv_pos_site_id
 _symmetry_equiv_pos_as_xyz
  1  'x, y, z'
loop_
 _atom_site_type_symbol
 _atom_site_label
 _atom_site_symmetry_multiplicity
 _atom_site_fract_x
 _atom_site_fract_y
 _atom_site_fract_z
 _atom_site_occupancy
  Li  Li0  1  0.60795000  0.19930900  0.05123000  1
  Li  Li1  1  0.19930900  0.60795000  0.05123000  1
  Li  Li2  1  0.32762200  0.32762200  0.26693800  1
  Li  Li3  1  0.19612400  0.19612400  0.04829400  1
  Li  Li4  1  0.99576900  0.99576900  0.98057200  1
  Li  Li5  1  0.99552100  0.99552100  0.47608800  1
  Li  Li6  1  0.80135600  0.80135600  0.54500900  1
  Li  Li7  1  0.80432100  0.38889700  0.53940000  1
  Li  Li8  1  0.65733200  0.65733200  0.76775500  1
  Li  Li9  1  0.38889700  0.80432100  0.53940000  1
  Mn  Mn0  1  0.32661800  0.32661800  0.52151700  1
  Mn  Mn1  1  0.66079400  0.66079400  0.02393700  1
  Fe  Fe0  1  0.65276500  0.16481200  0.77837100  1
  Fe  Fe1  1  0.16481200  0.65276500  0.77837100  1
  Fe  Fe2  1  0.82247300  0.82247300  0.27608600  1
  Ni  Ni0  1  0.16077000  0.16077000  0.77834200  1
  Ni  Ni1  1  0.82841800  0.33483500  0.27942600  1
  Ni  Ni2  1  0.33483500  0.82841800  0.27942600  1
  O  O0  1  0.65129300  0.16235000  0.40766900  1
  O  O1  1  0.48173700  0.48173700  0.64844800  1
  O  O2  1  0.99287800  0.99287800  0.17287300  1
  O  O3  1  0.48287200  0.02400400  0.64907200  1
  O  O4  1  0.16235000  0.65129300  0.40766900  1
  O  O5  1  0.33068200  0.33068200  0.89629500  1
  O  O6  1  0.98700400  0.98700400  0.66748100  1
  O  O7  1  0.02400400  0.48287200  0.64907200  1
  O  O8  1  0.16802000  0.16802000  0.41417000  1
  O  O9  1  0.99415900  0.50332200  0.15759700  1
  O  O10  1  0.82258200  0.82258200  0.89882000  1
  O  O11  1  0.50332200  0.99415900  0.15759700  1
  O  O12  1  0.66619600  0.66619600  0.39836100  1
  O  O13  1  0.81511400  0.32749000  0.89845700  1
  O  O14  1  0.51262000  0.51262000  0.14791000  1
  O  O15  1  0.32749000  0.81511400  0.89845700  1
loop_
_geom_bond_atom_site_label_1
_geom_bond_atom_site_label_2
_geom_bond_distance
_geom_bond_site_symmetry_2
Li0 O11 1.914747 1_545
Li0 O14 1.918099 1_555
Li0 O5 2.095418 1_554
Li0 O13 2.278863 1_554
Li0 O2 2.328787 1_545
Li0 O10 2.467250 1_544
Li1 O9 1.914747 1_455
Li1 O14 1.918099 1_555
Li1 O5 2.095418 1_554
Li1 O15 2.278863 1_554
Li1 O2 2.328787 1_455
Li1 O10 2.467250 1_454
Li2 O11 2.037194 1_545
Li2 O9 2.037194 1_455
Li2 O8 2.169025 1_555
Li2 O4 2.175789 1_555
Li2 O0 2.175789 1_555
Li2 O14 2.217335 1_555
Li3 O11 1.942973 1_545
Li3 O9 1.942973 1_455
Li3 O5 2.017443 1_554
Li3 O2 2.405548 1_445
Li3 O13 2.491083 1_454
Li3 O15 2.491083 1_544
Li4 O2 1.881769 1_556
Li4 O15 1.892594 1_655
Li4 O13 1.892594 1_565
Li4 O10 1.964224 1_555
Li5 O8 1.867347 1_665
Li5 O6 1.873852 1_555
Li5 O4 1.907214 1_655
Li5 O0 1.907214 1_565
Li6 O3 1.971553 1_565
Li6 O7 1.971553 1_655
Li6 O12 2.013134 1_555
Li6 O6 2.270117 1_555
Li6 O0 2.297819 1_565
Li6 O4 2.297819 1_655
Li7 O12 1.983442 1_555
Li7 O7 1.987151 1_655
Li7 O1 2.011074 1_555
Li7 O8 2.252757 1_655
Li7 O0 2.366113 1_555
Li7 O6 2.421006 1_545
Li8 O15 2.124959 1_555
Li8 O13 2.124959 1_555
Li8 O10 2.144975 1_555
Li8 O1 2.165708 1_555
Li8 O3 2.216985 1_565
Li8 O7 2.216985 1_655
Li9 O12 1.983442 1_555
Li9 O3 1.987151 1_565
Li9 O1 2.011074 1_555
Li9 O8 2.252757 1_565
Li9 O4 2.366113 1_555
Li9 O6 2.421006 1_455
Mn0 O8 1.953857 1_555
Mn0 O3 1.995725 1_555
Mn0 O7 1.995725 1_555
Mn0 O4 2.008946 1_555
Mn0 O0 2.008946 1_555
Mn0 O1 2.036970 1_555
Mn1 O14 1.934714 1_555
Mn1 O10 2.052264 1_554
Mn1 O13 2.125511 1_554
Mn1 O15 2.125511 1_554
Mn1 O9 2.172894 1_555
Mn1 O11 2.172894 1_555
Fe0 O5 2.020470 1_555
Fe0 O6 2.036473 1_545
Fe0 O3 2.055168 1_555
Fe0 O13 2.058041 1_555
Fe0 O1 2.069742 1_555
Fe0 O10 2.119701 1_545
Fe1 O5 2.020470 1_555
Fe1 O6 2.036473 1_455
Fe1 O7 2.055168 1_555
Fe1 O15 2.058041 1_555
Fe1 O1 2.069742 1_555
Fe1 O10 2.119701 1_455
Fe2 O12 1.990516 1_555
Fe2 O2 2.010903 1_555
Fe2 O9 2.025545 1_555
Fe2 O11 2.025545 1_555
Fe2 O0 2.186887 1_565
Fe2 O4 2.186887 1_655
Ni0 O3 2.087966 1_555
Ni0 O7 2.087966 1_555
Ni0 O6 2.105106 1_445
Ni0 O5 2.109244 1_555
Ni0 O13 2.132619 1_455
Ni0 O15 2.132619 1_545
Ni1 O2 2.060377 1_545
Ni1 O9 2.078282 1_555
Ni1 O12 2.079120 1_555
Ni1 O14 2.090099 1_555
Ni1 O0 2.178403 1_555
Ni1 O8 2.204408 1_655
Ni2 O2 2.060377 1_455
Ni2 O11 2.078282 1_555
Ni2 O12 2.079120 1_555
Ni2 O14 2.090099 1_555
Ni2 O4 2.178403 1_555
Ni2 O8 2.204408 1_565
