# generated using pymatgen
data_Li10Si2NiO10
_symmetry_space_group_name_H-M   'P 1'
_cell_length_a   15.34299233
_cell_length_b   15.34299233
_cell_length_c   5.19333398
_cell_angle_alpha   80.59714707
_cell_angle_beta   80.59714707
_cell_angle_gamma   22.98734293
_symmetry_Int_Tables_number   1
_chemical_formula_structural   Li10Si2NiO10
_chemical_formula_sum   'Li20 Si4 Ni2 O20'
_cell_volume   470.75748872
_cell_formula_units_Z   2
loop_
 _symmetry_equiv_pos_site_id
 _symmetry_equiv_pos_as_xyz
  1  'x, y, z'
loop_
 _atom_site_type_symbol
 _atom_site_label
 _atom_site_symmetry_multiplicity
 _atom_site_fract_x
 _atom_site_fract_y
 _atom_site_fract_z
 _atom_site_occupancy
  Li  Li0  1  0.49070500  0.49070500  0.26039000  1
  Li  Li1  1  0.22422900  0.64190800  0.89742500  1
  Li  Li2  1  0.64190800  0.22422900  0.89742500  1
  Li  Li3  1  0.86755700  0.86755700  0.78009500  1
  Li  Li4  1  0.08522700  0.65201200  0.24107800  1
  Li  Li5  1  0.65201200  0.08522700  0.24107800  1
  Li  Li6  1  0.32448600  0.32448600  0.93057500  1
  Li  Li7  1  0.04781300  0.56226500  0.60122000  1
  Li  Li8  1  0.56226500  0.04781300  0.60122000  1
  Li  Li9  1  0.26949400  0.26949400  0.32414100  1
  Li  Li10  1  0.73050600  0.73050600  0.67585900  1
  Li  Li11  1  0.95218700  0.43773500  0.39878000  1
  Li  Li12  1  0.43773500  0.95218700  0.39878000  1
  Li  Li13  1  0.67551400  0.67551400  0.06942500  1
  Li  Li14  1  0.34798800  0.91477300  0.75892200  1
  Li  Li15  1  0.91477300  0.34798800  0.75892200  1
  Li  Li16  1  0.13244300  0.13244300  0.21990500  1
  Li  Li17  1  0.77577100  0.35809200  0.10257500  1
  Li  Li18  1  0.35809200  0.77577100  0.10257500  1
  Li  Li19  1  0.50929500  0.50929500  0.73961000  1
  Si  Si0  1  0.39987300  0.39987300  0.50923100  1
  Si  Si1  1  0.78103500  0.78103500  0.12949700  1
  Si  Si2  1  0.21896500  0.21896500  0.87050300  1
  Si  Si3  1  0.60012700  0.60012700  0.49076900  1
  Ni  Ni0  1  0.96226300  0.96226300  0.15718900  1
  Ni  Ni1  1  0.03773700  0.03773700  0.84281100  1
  O  O0  1  0.44956900  0.44956900  0.60440000  1
  O  O1  1  0.90666000  0.90666000  0.04892600  1
  O  O2  1  0.40512100  0.40512100  0.18537900  1
  O  O3  1  0.15463200  0.58646500  0.62366100  1
  O  O4  1  0.58646500  0.15463200  0.62366100  1
  O  O5  1  0.03144100  0.58140700  0.21750300  1
  O  O6  1  0.58140700  0.03144100  0.21750300  1
  O  O7  1  0.78648400  0.78648400  0.80930100  1
  O  O8  1  0.27166700  0.27166700  0.71850400  1
  O  O9  1  0.72833300  0.72833300  0.28149600  1
  O  O10  1  0.21351600  0.21351600  0.19069900  1
  O  O11  1  0.96855900  0.41859300  0.78249700  1
  O  O12  1  0.41859300  0.96855900  0.78249700  1
  O  O13  1  0.41353500  0.84536800  0.37633900  1
  O  O14  1  0.84536800  0.41353500  0.37633900  1
  O  O15  1  0.59487900  0.59487900  0.81462100  1
  O  O16  1  0.09334000  0.09334000  0.95107400  1
  O  O17  1  0.55043100  0.55043100  0.39560000  1
  O  O18  1  0.23915400  0.76084600  0.00000000  1
  O  O19  1  0.76084600  0.23915400  0.00000000  1
loop_
_geom_bond_atom_site_label_1
_geom_bond_atom_site_label_2
_geom_bond_distance
_geom_bond_site_symmetry_2
Li0 O0 1.996258 1_555
Li0 O17 2.034500 1_555
Li0 O19 2.079571 1_555
Li0 O18 2.079571 1_555
Li1 O0 1.985149 1_555
Li1 O2 2.038173 1_556
Li1 O1 2.052021 1_456
Li1 O18 2.189348 1_556
Li1 O3 2.539477 1_555
Li2 O0 1.985149 1_555
Li2 O2 2.038173 1_556
Li2 O1 2.052021 1_546
Li2 O19 2.189348 1_556
Li2 O4 2.539477 1_555
Li3 O4 1.913371 1_565
Li3 O3 1.913371 1_655
Li3 O1 1.969565 1_556
Li3 O7 2.417260 1_555
Li4 O5 1.895217 1_555
Li4 O1 1.917775 1_455
Li4 O3 2.039538 1_555
Li4 O2 2.045769 1_555
Li5 O6 1.895217 1_555
Li5 O1 1.917775 1_545
Li5 O4 2.039538 1_555
Li5 O2 2.045769 1_555
Li6 O8 2.078210 1_555
Li6 O5 2.252244 1_556
Li6 O6 2.252244 1_556
Li6 O4 2.337936 1_555
Li6 O3 2.337936 1_555
Li7 O7 1.865904 1_455
Li7 O8 1.909959 1_555
Li7 O5 1.989217 1_555
Li7 O3 2.008603 1_555
Li8 O7 1.865904 1_545
Li8 O8 1.909959 1_555
Li8 O6 1.989217 1_555
Li8 O4 2.008603 1_555
Li9 O10 1.924242 1_555
Li9 O5 2.040073 1_555
Li9 O6 2.040073 1_555
Li9 O8 2.059961 1_555
Li10 O7 1.924242 1_555
Li10 O11 2.040073 1_555
Li10 O12 2.040073 1_555
Li10 O9 2.059961 1_555
Li11 O10 1.865904 1_655
Li11 O9 1.909959 1_555
Li11 O11 1.989217 1_555
Li11 O14 2.008603 1_555
Li12 O10 1.865904 1_565
Li12 O9 1.909959 1_555
Li12 O12 1.989217 1_555
Li12 O13 2.008603 1_555
Li13 O9 2.078210 1_555
Li13 O12 2.252244 1_554
Li13 O11 2.252244 1_554
Li13 O13 2.337936 1_555
Li13 O14 2.337936 1_555
Li14 O12 1.895217 1_555
Li14 O16 1.917775 1_565
Li14 O13 2.039538 1_555
Li14 O15 2.045769 1_555
Li15 O11 1.895217 1_555
Li15 O16 1.917775 1_655
Li15 O14 2.039538 1_555
Li15 O15 2.045769 1_555
Li16 O13 1.913371 1_545
Li16 O14 1.913371 1_455
Li16 O16 1.969565 1_554
Li16 O10 2.417260 1_555
Li17 O17 1.985149 1_555
Li17 O15 2.038173 1_554
Li17 O16 2.052021 1_654
Li17 O19 2.189348 1_555
Li17 O14 2.539477 1_555
Li18 O17 1.985149 1_555
Li18 O15 2.038173 1_554
Li18 O16 2.052021 1_564
Li18 O18 2.189348 1_555
Li18 O13 2.539477 1_555
Li19 O17 1.996258 1_555
Li19 O0 2.034500 1_555
Li19 O19 2.079571 1_556
Li19 O18 2.079571 1_556
Ni0 O1 1.850735 1_555
Ni0 O18 1.945139 1_655
Ni0 O19 1.945139 1_565
Ni1 O16 1.850735 1_555
Ni1 O18 1.945139 1_546
Ni1 O19 1.945139 1_456
O0 Si0 1.650380 1_555
O2 Si0 1.662858 1_555
O3 Si0 1.642858 1_555
O4 Si0 1.642858 1_555
O5 Si1 1.673652 1_455
O6 Si1 1.673652 1_545
O7 Si1 1.643527 1_556
O8 Si2 1.648493 1_555
O9 Si1 1.648493 1_555
O10 Si2 1.643527 1_554
O11 Si2 1.673652 1_655
O12 Si2 1.673652 1_565
O13 Si3 1.642858 1_555
O14 Si3 1.642858 1_555
O15 Si3 1.662858 1_555
O17 Si3 1.650380 1_555
