# generated using pymatgen
data_V3O5
_symmetry_space_group_name_H-M   'P 1'
_cell_length_a   5.19573400
_cell_length_b   5.71406066
_cell_length_c   7.10895840
_cell_angle_alpha   109.65342430
_cell_angle_beta   90.00115006
_cell_angle_gamma   62.95738977
_symmetry_Int_Tables_number   1
_chemical_formula_structural   V3O5
_chemical_formula_sum   'V6 O10'
_cell_volume   174.06415569
_cell_formula_units_Z   2
loop_
 _symmetry_equiv_pos_site_id
 _symmetry_equiv_pos_as_xyz
  1  'x, y, z'
loop_
 _atom_site_type_symbol
 _atom_site_label
 _atom_site_symmetry_multiplicity
 _atom_site_fract_x
 _atom_site_fract_y
 _atom_site_fract_z
 _atom_site_occupancy
  V  V0  1  0.49131100  0.50558600  0.49868100  1
  V  V1  1  0.86675300  0.76044700  0.72232900  1
  V  V2  1  0.13023100  0.24271100  0.78163000  1
  V  V3  1  0.50309400  0.50560900  0.99868300  1
  V  V4  1  0.87280000  0.76044100  0.22233000  1
  V  V5  1  0.12708600  0.24266000  0.28161600  1
  O  O0  1  0.69688400  0.50386600  0.74541300  1
  O  O1  1  0.29925300  0.50386600  0.24542000  1
  O  O2  1  0.15136900  0.87383600  0.66280300  1
  O  O3  1  0.47480200  0.87381300  0.16280900  1
  O  O4  1  0.84143800  0.10339200  0.33446900  1
  O  O5  1  0.55518000  0.10340100  0.83448100  1
  O  O6  1  0.07158400  0.66266100  0.94446900  1
  O  O7  1  0.76573100  0.66265500  0.44448600  1
  O  O8  1  0.92542700  0.34753300  0.06019300  1
  O  O9  1  0.22705500  0.34752300  0.56018900  1
loop_
_geom_bond_atom_site_label_1
_geom_bond_atom_site_label_2
_geom_bond_distance
_geom_bond_site_symmetry_2
O0 V0 2.054132 1_555
O0 V3 2.057802 1_555
O0 V1 2.072169 1_555
O0 V2 2.136787 1_655
O1 V3 2.054236 1_554
O1 V0 2.057748 1_555
O1 V4 2.072162 1_455
O1 V5 2.136935 1_555
O2 V2 1.939119 1_565
O2 V1 1.959938 1_455
O2 V0 1.969205 1_555
O3 V5 1.938978 1_565
O3 V4 1.959876 1_555
O3 V3 1.969022 1_554
O4 V4 1.777941 1_545
O4 V5 2.062099 1_655
O4 V0 2.085083 1_555
O5 V1 1.777923 1_545
O5 V2 2.062213 1_555
O5 V3 2.085098 1_555
O6 V1 1.997849 1_455
O6 V4 2.003423 1_456
O6 V3 2.093701 1_555
O6 V2 2.158169 1_555
O7 V4 1.998030 1_555
O7 V1 2.003322 1_555
O7 V0 2.093588 1_555
O7 V5 2.158443 1_655
O8 V5 1.999543 1_655
O8 V2 2.008810 1_654
O8 V3 2.070150 1_554
O8 V4 2.134031 1_555
O9 V2 1.999525 1_555
O9 V5 2.008838 1_555
O9 V0 2.070108 1_555
O9 V1 2.134126 1_455
