# generated using pymatgen
data_Li6MnFe5(BO3)6
_symmetry_space_group_name_H-M   'P 1'
_cell_length_a   8.81545089
_cell_length_b   8.81545089
_cell_length_c   8.24492795
_cell_angle_alpha   62.23677400
_cell_angle_beta   62.23677400
_cell_angle_gamma   41.70974615
_symmetry_Int_Tables_number   1
_chemical_formula_structural   Li6MnFe5(BO3)6
_chemical_formula_sum   'Li6 Mn1 Fe5 B6 O18'
_cell_volume   369.57409765
_cell_formula_units_Z   1
loop_
 _symmetry_equiv_pos_site_id
 _symmetry_equiv_pos_as_xyz
  1  'x, y, z'
loop_
 _atom_site_type_symbol
 _atom_site_label
 _atom_site_symmetry_multiplicity
 _atom_site_fract_x
 _atom_site_fract_y
 _atom_site_fract_z
 _atom_site_occupancy
  Li  Li0  1  0.75784800  0.25817200  0.28567100  1
  Li  Li1  1  0.25817200  0.75784800  0.28567100  1
  Li  Li2  1  0.59863200  0.09944400  0.01631400  1
  Li  Li3  1  0.09944400  0.59863200  0.01631400  1
  Li  Li4  1  0.89323300  0.39143000  0.69805200  1
  Li  Li5  1  0.39143000  0.89323300  0.69805200  1
  Mn  Mn0  1  0.68645200  0.68645200  0.98702600  1
  Fe  Fe0  1  0.81991100  0.81991100  0.36789700  1
  Fe  Fe1  1  0.32025800  0.32025800  0.36750600  1
  Fe  Fe2  1  0.49641000  0.49641000  0.64075500  1
  Fe  Fe3  1  0.99582300  0.99582300  0.63963400  1
  Fe  Fe4  1  0.18390700  0.18390700  0.99228100  1
  B  B0  1  0.41494000  0.91847100  0.33430200  1
  B  B1  1  0.91847100  0.41494000  0.33430200  1
  B  B2  1  0.58238600  0.08537100  0.66498500  1
  B  B3  1  0.08537100  0.58238600  0.66498500  1
  B  B4  1  0.99989000  0.99989000  0.00002300  1
  B  B5  1  0.49892900  0.49892900  0.00208400  1
  O  O0  1  0.53979800  0.53979800  0.11376000  1
  O  O1  1  0.04264600  0.04264600  0.10903000  1
  O  O2  1  0.96311600  0.45574900  0.14105100  1
  O  O3  1  0.45574900  0.96311600  0.14105100  1
  O  O4  1  0.90281200  0.90281200  0.08500400  1
  O  O5  1  0.40187400  0.40187400  0.08399800  1
  O  O6  1  0.31966100  0.81958500  0.44252800  1
  O  O7  1  0.81958500  0.31966100  0.44252800  1
  O  O8  1  0.97102700  0.47072900  0.42023000  1
  O  O9  1  0.47072900  0.97102700  0.42023000  1
  O  O10  1  0.62397000  0.12283600  0.47159900  1
  O  O11  1  0.12283600  0.62397000  0.47159900  1
  O  O12  1  0.55456500  0.55456500  0.80776500  1
  O  O13  1  0.05429500  0.05429500  0.80616600  1
  O  O14  1  0.48351900  0.99050600  0.77864100  1
  O  O15  1  0.99050600  0.48351900  0.77864100  1
  O  O16  1  0.64049400  0.14131400  0.74516200  1
  O  O17  1  0.14131400  0.64049400  0.74516200  1
loop_
_geom_bond_atom_site_label_1
_geom_bond_atom_site_label_2
_geom_bond_distance
_geom_bond_site_symmetry_2
Li0 O10 1.969536 1_555
Li0 O0 2.000575 1_555
Li0 O7 2.002966 1_555
Li0 O1 2.020795 1_655
Li1 O11 1.969536 1_555
Li1 O0 2.000575 1_555
Li1 O6 2.002966 1_555
Li1 O1 2.020795 1_565
Li2 O16 1.984047 1_554
Li2 O3 1.997577 1_545
Li2 O5 2.001949 1_555
Li2 O4 2.018958 1_545
Li3 O17 1.984047 1_554
Li3 O2 1.997577 1_455
Li3 O5 2.001949 1_555
Li3 O4 2.018958 1_455
Li4 O15 1.977003 1_555
Li4 O8 1.991585 1_555
Li4 O13 2.013452 1_655
Li4 O12 2.021198 1_555
Li5 O14 1.977003 1_555
Li5 O9 1.991585 1_555
Li5 O13 2.013452 1_565
Li5 O12 2.021198 1_555
Mn0 O0 2.100716 1_556
Mn0 O15 2.179575 1_555
Mn0 O14 2.179575 1_555
Mn0 O3 2.184211 1_556
Mn0 O2 2.184211 1_556
Fe0 O4 2.032178 1_555
Fe0 O9 2.147504 1_555
Fe0 O8 2.147504 1_555
Fe0 O11 2.170286 1_655
Fe0 O10 2.170286 1_565
Fe1 O5 2.034324 1_555
Fe1 O8 2.149340 1_455
Fe1 O9 2.149340 1_545
Fe1 O10 2.173913 1_555
Fe1 O11 2.173913 1_555
Fe2 O12 2.032113 1_555
Fe2 O6 2.149943 1_555
Fe2 O7 2.149943 1_555
Fe2 O16 2.173725 1_555
Fe2 O17 2.173725 1_555
Fe3 O13 2.032748 1_665
Fe3 O7 2.147673 1_565
Fe3 O6 2.147673 1_655
Fe3 O16 2.171652 1_565
Fe3 O17 2.171652 1_655
Fe4 O1 2.027272 1_556
Fe4 O3 2.141477 1_546
Fe4 O2 2.141477 1_456
Fe4 O14 2.173862 1_545
Fe4 O15 2.173862 1_455
B0 O3 1.384272 1_555
B0 O9 1.388907 1_555
B0 O6 1.389920 1_555
B1 O2 1.384272 1_555
B1 O8 1.388907 1_555
B1 O7 1.389920 1_555
B2 O10 1.389736 1_555
B2 O14 1.390809 1_545
B2 O16 1.392470 1_555
B3 O11 1.389736 1_555
B3 O15 1.390809 1_455
B3 O17 1.392470 1_555
B4 O13 1.389181 1_664
B4 O4 1.389921 1_555
B4 O1 1.391109 1_665
B5 O0 1.385390 1_555
B5 O5 1.391564 1_555
B5 O12 1.393911 1_554
