# generated using pymatgen
data_Na4AlP2HO9
_symmetry_space_group_name_H-M   'P 1'
_cell_length_a   7.00741800
_cell_length_b   14.86862900
_cell_length_c   15.46785100
_cell_angle_alpha   90.00000000
_cell_angle_beta   90.00000000
_cell_angle_gamma   90.00000000
_symmetry_Int_Tables_number   1
_chemical_formula_structural   Na4AlP2HO9
_chemical_formula_sum   'Na32 Al8 P16 H8 O72'
_cell_volume   1611.60619983
_cell_formula_units_Z   8
loop_
 _symmetry_equiv_pos_site_id
 _symmetry_equiv_pos_as_xyz
  1  'x, y, z'
loop_
 _atom_site_type_symbol
 _atom_site_label
 _atom_site_symmetry_multiplicity
 _atom_site_fract_x
 _atom_site_fract_y
 _atom_site_fract_z
 _atom_site_occupancy
  Na  Na0  1  0.75000000  0.11041500  0.13107900  1
  Na  Na1  1  0.25000000  0.88958500  0.86892100  1
  Na  Na2  1  0.25000000  0.38958500  0.13107900  1
  Na  Na3  1  0.75000000  0.61041500  0.86892100  1
  Na  Na4  1  0.52013500  0.51701800  0.25484100  1
  Na  Na5  1  0.02013500  0.48298200  0.74515900  1
  Na  Na6  1  0.47986500  0.98298200  0.25484100  1
  Na  Na7  1  0.97986500  0.01701800  0.74515900  1
  Na  Na8  1  0.47986500  0.48298200  0.74515900  1
  Na  Na9  1  0.97986500  0.51701800  0.25484100  1
  Na  Na10  1  0.52013500  0.01701800  0.74515900  1
  Na  Na11  1  0.02013500  0.98298200  0.25484100  1
  Na  Na12  1  0.50000000  0.75000000  0.52798900  1
  Na  Na13  1  0.00000000  0.25000000  0.47201100  1
  Na  Na14  1  0.50000000  0.25000000  0.47201100  1
  Na  Na15  1  0.00000000  0.75000000  0.52798900  1
  Na  Na16  1  0.50000000  0.75000000  0.22195700  1
  Na  Na17  1  0.00000000  0.25000000  0.77804300  1
  Na  Na18  1  0.50000000  0.25000000  0.77804300  1
  Na  Na19  1  0.00000000  0.75000000  0.22195700  1
  Na  Na20  1  0.50000000  0.75000000  0.99163400  1
  Na  Na21  1  0.00000000  0.25000000  0.00836600  1
  Na  Na22  1  0.50000000  0.25000000  0.00836600  1
  Na  Na23  1  0.00000000  0.75000000  0.99163400  1
  Na  Na24  1  0.50000000  0.25000000  0.25582200  1
  Na  Na25  1  0.00000000  0.75000000  0.74417800  1
  Na  Na26  1  0.50000000  0.75000000  0.74417800  1
  Na  Na27  1  0.00000000  0.25000000  0.25582200  1
  Na  Na28  1  0.75000000  0.36711600  0.62530400  1
  Na  Na29  1  0.25000000  0.63288400  0.37469600  1
  Na  Na30  1  0.25000000  0.13288400  0.62530400  1
  Na  Na31  1  0.75000000  0.86711600  0.37469600  1
  Al  Al0  1  0.50000000  0.50000000  0.50000000  1
  Al  Al1  1  0.00000000  0.50000000  0.50000000  1
  Al  Al2  1  0.50000000  0.00000000  0.50000000  1
  Al  Al3  1  0.00000000  0.00000000  0.50000000  1
  Al  Al4  1  0.50000000  0.00000000  0.00000000  1
  Al  Al5  1  0.00000000  0.00000000  0.00000000  1
  Al  Al6  1  0.50000000  0.50000000  0.00000000  1
  Al  Al7  1  0.00000000  0.50000000  0.00000000  1
  P  P0  1  0.75000000  0.63572900  0.37965000  1
  P  P1  1  0.25000000  0.36427100  0.62035000  1
  P  P2  1  0.25000000  0.86427100  0.37965000  1
  P  P3  1  0.75000000  0.13572900  0.62035000  1
  P  P4  1  0.75000000  0.87948400  0.12867300  1
  P  P5  1  0.25000000  0.12051600  0.87132700  1
  P  P6  1  0.25000000  0.62051600  0.12867300  1
  P  P7  1  0.75000000  0.37948400  0.87132700  1
  P  P8  1  0.25000000  0.87983400  0.63305700  1
  P  P9  1  0.75000000  0.12016600  0.36694300  1
  P  P10  1  0.75000000  0.62016600  0.63305700  1
  P  P11  1  0.25000000  0.37983400  0.36694300  1
  P  P12  1  0.25000000  0.62992300  0.87507600  1
  P  P13  1  0.75000000  0.37007700  0.12492400  1
  P  P14  1  0.75000000  0.87007700  0.87507600  1
  P  P15  1  0.25000000  0.12992300  0.12492400  1
  H  H0  1  0.75000000  0.08003200  0.93378600  1
  H  H1  1  0.25000000  0.91996800  0.06621400  1
  H  H2  1  0.25000000  0.41996800  0.93378600  1
  H  H3  1  0.75000000  0.58003200  0.06621400  1
  H  H4  1  0.75000000  0.41246400  0.44599900  1
  H  H5  1  0.25000000  0.58753600  0.55400100  1
  H  H6  1  0.25000000  0.08753600  0.44599900  1
  H  H7  1  0.75000000  0.91246400  0.55400100  1
  O  O0  1  0.75000000  0.72667100  0.42681200  1
  O  O1  1  0.25000000  0.27332900  0.57318800  1
  O  O2  1  0.25000000  0.77332900  0.42681200  1
  O  O3  1  0.75000000  0.22667100  0.57318800  1
  O  O4  1  0.75000000  0.64704000  0.27984700  1
  O  O5  1  0.25000000  0.35296000  0.72015300  1
  O  O6  1  0.25000000  0.85296000  0.27984700  1
  O  O7  1  0.75000000  0.14704000  0.72015300  1
  O  O8  1  0.56641700  0.58008100  0.40389300  1
  O  O9  1  0.06641700  0.41991900  0.59610700  1
  O  O10  1  0.43358300  0.91991900  0.40389300  1
  O  O11  1  0.93358300  0.08008100  0.59610700  1
  O  O12  1  0.43358300  0.41991900  0.59610700  1
  O  O13  1  0.93358300  0.58008100  0.40389300  1
  O  O14  1  0.56641700  0.08008100  0.59610700  1
  O  O15  1  0.06641700  0.91991900  0.40389300  1
  O  O16  1  0.75000000  0.78442900  0.08931400  1
  O  O17  1  0.25000000  0.21557100  0.91068600  1
  O  O18  1  0.25000000  0.71557100  0.08931400  1
  O  O19  1  0.75000000  0.28442900  0.91068600  1
  O  O20  1  0.56893600  0.93534400  0.10280900  1
  O  O21  1  0.06893600  0.06465600  0.89719100  1
  O  O22  1  0.43106400  0.56465600  0.10280900  1
  O  O23  1  0.93106400  0.43534400  0.89719100  1
  O  O24  1  0.43106400  0.06465600  0.89719100  1
  O  O25  1  0.93106400  0.93534400  0.10280900  1
  O  O26  1  0.56893600  0.43534400  0.89719100  1
  O  O27  1  0.06893600  0.56465600  0.10280900  1
  O  O28  1  0.75000000  0.87045300  0.22864600  1
  O  O29  1  0.25000000  0.12954700  0.77135400  1
  O  O30  1  0.25000000  0.62954700  0.22864600  1
  O  O31  1  0.75000000  0.37045300  0.77135400  1
  O  O32  1  0.25000000  0.77592600  0.63915900  1
  O  O33  1  0.75000000  0.22407400  0.36084100  1
  O  O34  1  0.75000000  0.72407400  0.63915900  1
  O  O35  1  0.25000000  0.27592600  0.36084100  1
  O  O36  1  0.25000000  0.92092200  0.72502500  1
  O  O37  1  0.75000000  0.07907800  0.27497500  1
  O  O38  1  0.75000000  0.57907800  0.72502500  1
  O  O39  1  0.25000000  0.42092200  0.27497500  1
  O  O40  1  0.43214400  0.91060300  0.58279000  1
  O  O41  1  0.93214400  0.08939700  0.41721000  1
  O  O42  1  0.56785600  0.58939700  0.58279000  1
  O  O43  1  0.06785600  0.41060300  0.41721000  1
  O  O44  1  0.56785600  0.08939700  0.41721000  1
  O  O45  1  0.06785600  0.91060300  0.58279000  1
  O  O46  1  0.43214400  0.41060300  0.41721000  1
  O  O47  1  0.93214400  0.58939700  0.58279000  1
  O  O48  1  0.25000000  0.73414800  0.86725700  1
  O  O49  1  0.75000000  0.26585200  0.13274300  1
  O  O50  1  0.75000000  0.76585200  0.86725700  1
  O  O51  1  0.25000000  0.23414800  0.13274300  1
  O  O52  1  0.43325500  0.60222400  0.92760000  1
  O  O53  1  0.93325500  0.39777600  0.07240000  1
  O  O54  1  0.56674500  0.89777600  0.92760000  1
  O  O55  1  0.06674500  0.10222400  0.07240000  1
  O  O56  1  0.56674500  0.39777600  0.07240000  1
  O  O57  1  0.06674500  0.60222400  0.92760000  1
  O  O58  1  0.43325500  0.10222400  0.07240000  1
  O  O59  1  0.93325500  0.89777600  0.92760000  1
  O  O60  1  0.25000000  0.58628600  0.78532600  1
  O  O61  1  0.75000000  0.41371400  0.21467400  1
  O  O62  1  0.75000000  0.91371400  0.78532600  1
  O  O63  1  0.25000000  0.08628600  0.21467400  1
  O  O64  1  0.75000000  0.04936700  0.98952900  1
  O  O65  1  0.25000000  0.95063300  0.01047100  1
  O  O66  1  0.25000000  0.45063300  0.98952900  1
  O  O67  1  0.75000000  0.54936700  0.01047100  1
  O  O68  1  0.75000000  0.44912300  0.49814400  1
  O  O69  1  0.25000000  0.55087700  0.50185600  1
  O  O70  1  0.25000000  0.05087700  0.49814400  1
  O  O71  1  0.75000000  0.94912300  0.50185600  1
loop_
_geom_bond_atom_site_label_1
_geom_bond_atom_site_label_2
_geom_bond_distance
_geom_bond_site_symmetry_2
Na0 O37 2.274008 1_555
Na0 O49 2.311278 1_555
Na0 O64 2.370172 1_554
Na0 O58 2.401064 1_555
Na0 O55 2.401064 1_655
Na1 O36 2.274008 1_555
Na1 O48 2.311278 1_555
Na1 O65 2.370172 1_556
Na1 O54 2.401064 1_555
Na1 O59 2.401064 1_455
Na2 O39 2.274008 1_555
Na2 O51 2.311278 1_555
Na2 O66 2.370172 1_554
Na2 O56 2.401064 1_555
Na2 O53 2.401064 1_455
Na3 O38 2.274008 1_555
Na3 O50 2.311278 1_555
Na3 O67 2.370172 1_556
Na3 O52 2.401064 1_555
Na3 O57 2.401064 1_655
Na4 O61 2.310805 1_555
Na4 O39 2.392020 1_555
Na4 O8 2.509937 1_555
Na4 O22 2.534036 1_555
Na4 O4 2.545900 1_555
Na4 O30 2.558684 1_555
Na5 O60 2.310805 1_555
Na5 O38 2.392020 1_455
Na5 O9 2.509937 1_555
Na5 O23 2.534036 1_455
Na5 O5 2.545900 1_555
Na5 O31 2.558684 1_455
Na6 O63 2.310805 1_565
Na6 O37 2.392020 1_565
Na6 O10 2.509937 1_555
Na6 O20 2.534036 1_555
Na6 O6 2.545900 1_555
Na6 O28 2.558684 1_555
Na7 O62 2.310805 1_545
Na7 O36 2.392020 1_645
Na7 O11 2.509937 1_555
Na7 O21 2.534036 1_655
Na7 O7 2.545900 1_555
Na7 O29 2.558684 1_655
Na8 O60 2.310805 1_555
Na8 O38 2.392020 1_555
Na8 O12 2.509937 1_555
Na8 O26 2.534036 1_555
Na8 O5 2.545900 1_555
Na8 O31 2.558684 1_555
Na9 O61 2.310805 1_555
Na9 O39 2.392020 1_655
Na9 O13 2.509937 1_555
Na9 O27 2.534036 1_655
Na9 O4 2.545900 1_555
Na9 O30 2.558684 1_655
Na10 O62 2.310805 1_545
Na10 O36 2.392020 1_545
Na10 O14 2.509937 1_555
Na10 O24 2.534036 1_555
Na10 O7 2.545900 1_555
Na10 O29 2.558684 1_555
Na11 O63 2.310805 1_565
Na11 O37 2.392020 1_465
Na11 O15 2.509937 1_555
Na11 O25 2.534036 1_455
Na11 O6 2.545900 1_555
Na11 O28 2.558684 1_455
Na12 O2 2.374555 1_555
Na12 O0 2.374555 1_555
Na12 O34 2.484851 1_555
Na12 O32 2.484851 1_555
Na12 O40 2.578158 1_555
Na12 O42 2.578158 1_555
Na13 O1 2.374555 1_555
Na13 O3 2.374555 1_455
Na13 O33 2.484851 1_455
Na13 O35 2.484851 1_555
Na13 O43 2.578158 1_555
Na13 O41 2.578158 1_455
Na14 O1 2.374555 1_555
Na14 O3 2.374555 1_555
Na14 O33 2.484851 1_555
Na14 O35 2.484851 1_555
Na14 O46 2.578158 1_555
Na14 O44 2.578158 1_555
Na15 O2 2.374555 1_555
Na15 O0 2.374555 1_455
Na15 O34 2.484851 1_455
Na15 O32 2.484851 1_555
Na15 O45 2.578158 1_555
Na15 O47 2.578158 1_455
Na16 O4 2.492864 1_555
Na16 O6 2.492864 1_555
Na16 O28 2.507444 1_555
Na16 O30 2.507444 1_555
Na16 O16 2.746003 1_555
Na16 O18 2.746003 1_555
Na17 O7 2.492864 1_455
Na17 O5 2.492864 1_555
Na17 O31 2.507444 1_455
Na17 O29 2.507444 1_555
Na17 O19 2.746003 1_455
Na17 O17 2.746003 1_555
Na18 O7 2.492864 1_555
Na18 O5 2.492864 1_555
Na18 O31 2.507444 1_555
Na18 O29 2.507444 1_555
Na18 O19 2.746003 1_555
Na18 O17 2.746003 1_555
Na19 O4 2.492864 1_455
Na19 O6 2.492864 1_555
Na19 O28 2.507444 1_455
Na19 O30 2.507444 1_555
Na19 O16 2.746003 1_455
Na19 O18 2.746003 1_555
Na20 O16 2.369360 1_556
Na20 O18 2.369360 1_556
Na20 O54 2.455114 1_555
Na20 O52 2.455114 1_555
Na20 O50 2.612609 1_555
Na20 O48 2.612609 1_555
Na21 O19 2.369360 1_454
Na21 O17 2.369360 1_554
Na21 O53 2.455114 1_455
Na21 O55 2.455114 1_555
Na21 O49 2.612609 1_455
Na21 O51 2.612609 1_555
Na22 O19 2.369360 1_554
Na22 O17 2.369360 1_554
Na22 O56 2.455114 1_555
Na22 O58 2.455114 1_555
Na22 O51 2.612609 1_555
Na22 O49 2.612609 1_555
Na23 O16 2.369360 1_456
Na23 O18 2.369360 1_556
Na23 O59 2.455114 1_455
Na23 O57 2.455114 1_555
Na23 O50 2.612609 1_455
Na23 O48 2.612609 1_555
Na24 O33 2.419985 1_555
Na24 O35 2.419985 1_555
Na24 O51 2.597860 1_555
Na24 O49 2.597860 1_555
Na25 O32 2.419985 1_555
Na25 O34 2.419985 1_455
Na25 O50 2.597860 1_455
Na25 O48 2.597860 1_555
Na26 O32 2.419985 1_555
Na26 O34 2.419985 1_555
Na26 O50 2.597860 1_555
Na26 O48 2.597860 1_555
Na27 O33 2.419985 1_455
Na27 O35 2.419985 1_555
Na27 O51 2.597860 1_555
Na27 O49 2.597860 1_455
Na28 O3 2.238418 1_555
Na28 O31 2.259624 1_555
Na28 O68 2.314181 1_555
Na28 O12 2.395124 1_555
Na28 O9 2.395124 1_655
Na29 O2 2.238418 1_555
Na29 O30 2.259624 1_555
Na29 O69 2.314181 1_555
Na29 O8 2.395124 1_555
Na29 O13 2.395124 1_455
Na30 O1 2.238418 1_555
Na30 O29 2.259624 1_555
Na30 O70 2.314181 1_555
Na30 O14 2.395124 1_555
Na30 O11 2.395124 1_455
Na31 O0 2.238418 1_555
Na31 O28 2.259624 1_555
Na31 O71 2.314181 1_555
Na31 O15 2.395124 1_655
Na31 O10 2.395124 1_555
Al0 O42 1.905988 1_555
Al0 O46 1.905988 1_555
Al0 O69 1.908420 1_555
Al0 O68 1.908420 1_555
Al0 O12 1.960676 1_555
Al0 O8 1.960676 1_555
Al1 O43 1.905988 1_555
Al1 O47 1.905988 1_455
Al1 O69 1.908420 1_555
Al1 O68 1.908420 1_455
Al1 O9 1.960676 1_555
Al1 O13 1.960676 1_455
Al2 O44 1.905988 1_555
Al2 O40 1.905988 1_545
Al2 O70 1.908420 1_555
Al2 O71 1.908420 1_545
Al2 O14 1.960676 1_555
Al2 O10 1.960676 1_545
Al3 O41 1.905988 1_455
Al3 O45 1.905988 1_545
Al3 O70 1.908420 1_555
Al3 O71 1.908420 1_445
Al3 O11 1.960676 1_455
Al3 O15 1.960676 1_545
Al4 O64 1.906308 1_554
Al4 O65 1.906308 1_545
Al4 O24 1.919995 1_554
Al4 O20 1.919995 1_545
Al4 O58 1.945008 1_555
Al4 O54 1.945008 1_544
Al5 O64 1.906308 1_454
Al5 O65 1.906308 1_545
Al5 O21 1.919995 1_554
Al5 O25 1.919995 1_445
Al5 O55 1.945008 1_555
Al5 O59 1.945008 1_444
Al6 O67 1.906308 1_555
Al6 O66 1.906308 1_554
Al6 O22 1.919995 1_555
Al6 O26 1.919995 1_554
Al6 O52 1.945008 1_554
Al6 O56 1.945008 1_555
Al7 O67 1.906308 1_455
Al7 O66 1.906308 1_554
Al7 O27 1.919995 1_555
Al7 O23 1.919995 1_454
Al7 O57 1.945008 1_554
Al7 O53 1.945008 1_455
H0 O64 0.975355 1_555
H1 O65 0.975355 1_555
H2 O66 0.975355 1_555
H3 O67 0.975355 1_555
H4 O68 0.973477 1_555
H5 O69 0.973477 1_555
H6 O70 0.973477 1_555
H7 O71 0.973477 1_555
O0 P0 1.536412 1_555
O1 P1 1.536412 1_555
O2 P2 1.536412 1_555
O3 P3 1.536412 1_555
O4 P0 1.552872 1_555
O5 P1 1.552872 1_555
O6 P2 1.552872 1_555
O7 P3 1.552872 1_555
O8 P0 1.574851 1_555
O9 P1 1.574851 1_555
O10 P2 1.574851 1_555
O11 P3 1.574851 1_555
O12 P1 1.574851 1_555
O13 P0 1.574851 1_555
O14 P3 1.574851 1_555
O15 P2 1.574851 1_555
O16 P4 1.538883 1_555
O17 P5 1.538883 1_555
O18 P6 1.538883 1_555
O19 P7 1.538883 1_555
O20 P4 1.568347 1_555
O21 P5 1.568347 1_555
O22 P6 1.568347 1_555
O23 P7 1.568347 1_555
O24 P5 1.568347 1_555
O25 P4 1.568347 1_555
O26 P7 1.568347 1_555
O27 P6 1.568347 1_555
O28 P4 1.552187 1_555
O29 P5 1.552187 1_555
O30 P6 1.552187 1_555
O31 P7 1.552187 1_555
O32 P8 1.547850 1_555
O33 P9 1.547850 1_555
O34 P10 1.547850 1_555
O35 P11 1.547850 1_555
O36 P8 1.548182 1_555
O37 P9 1.548182 1_555
O38 P10 1.548182 1_555
O39 P11 1.548182 1_555
O40 P8 1.562989 1_555
O41 P9 1.562989 1_555
O42 P10 1.562989 1_555
O43 P11 1.562989 1_555
O44 P9 1.562989 1_555
O45 P8 1.562989 1_555
O46 P11 1.562989 1_555
O47 P10 1.562989 1_555
O48 P12 1.554395 1_555
O49 P13 1.554395 1_555
O50 P14 1.554395 1_555
O51 P15 1.554395 1_555
O52 P12 1.574386 1_555
O53 P13 1.574386 1_555
O54 P14 1.574386 1_555
O55 P15 1.574386 1_555
O56 P13 1.574386 1_555
O57 P12 1.574386 1_555
O58 P15 1.574386 1_555
O59 P14 1.574386 1_555
O60 P12 1.532377 1_555
O61 P13 1.532377 1_555
O62 P14 1.532377 1_555
O63 P15 1.532377 1_555
