# generated using pymatgen
data_Li4MnNb(WO6)2
_symmetry_space_group_name_H-M   'P 1'
_cell_length_a   7.47487843
_cell_length_b   9.06210494
_cell_length_c   7.49139193
_cell_angle_alpha   113.21190275
_cell_angle_beta   93.30197957
_cell_angle_gamma   67.76356814
_symmetry_Int_Tables_number   1
_chemical_formula_structural   Li4MnNb(WO6)2
_chemical_formula_sum   'Li8 Mn2 Nb2 W4 O24'
_cell_volume   429.18477792
_cell_formula_units_Z   2
loop_
 _symmetry_equiv_pos_site_id
 _symmetry_equiv_pos_as_xyz
  1  'x, y, z'
loop_
 _atom_site_type_symbol
 _atom_site_label
 _atom_site_symmetry_multiplicity
 _atom_site_fract_x
 _atom_site_fract_y
 _atom_site_fract_z
 _atom_site_occupancy
  Li  Li0  1  0.56829400  0.27263500  0.43492600  1
  Li  Li1  1  0.06830700  0.27262100  0.93489700  1
  Li  Li2  1  0.31617600  0.79969800  0.17965200  1
  Li  Li3  1  0.81613700  0.79969700  0.67959800  1
  Li  Li4  1  0.30301100  0.80177000  0.69471900  1
  Li  Li5  1  0.80292800  0.80179000  0.19480800  1
  Li  Li6  1  0.60464300  0.25650400  0.89368600  1
  Li  Li7  1  0.10462000  0.25652300  0.39368300  1
  Mn  Mn0  1  0.49850900  0.99835500  0.50086900  1
  Mn  Mn1  1  0.99874000  0.99811500  0.00085100  1
  Nb  Nb0  1  0.23345900  0.51826900  0.26496900  1
  Nb  Nb1  1  0.73343800  0.51822900  0.76486000  1
  W  W0  1  0.24133100  0.49692900  0.75418500  1
  W  W1  1  0.99881000  0.01284200  0.50924400  1
  W  W2  1  0.49880200  0.01283600  0.00927300  1
  W  W3  1  0.74131100  0.49690900  0.25416300  1
  O  O0  1  0.53961100  0.42607300  0.76733800  1
  O  O1  1  0.03955100  0.42623700  0.26753700  1
  O  O2  1  0.21448300  0.72499000  0.91584300  1
  O  O3  1  0.71449800  0.72497200  0.41580500  1
  O  O4  1  0.04201300  0.04400700  0.27422100  1
  O  O5  1  0.54202200  0.04403700  0.77426600  1
  O  O6  1  0.22530500  0.42706800  0.95683700  1
  O  O7  1  0.72532500  0.42704100  0.45686300  1
  O  O8  1  0.28098200  0.93401600  0.51746400  1
  O  O9  1  0.78101700  0.93399100  0.01750500  1
  O  O10  1  0.06858500  0.74921800  0.30781400  1
  O  O11  1  0.56857100  0.74921100  0.80782400  1
  O  O12  1  0.94760200  0.24501700  0.67375900  1
  O  O13  1  0.44759700  0.24497600  0.17375500  1
  O  O14  1  0.73259200  0.04720000  0.46444500  1
  O  O15  1  0.23261900  0.04716300  0.96445700  1
  O  O16  1  0.79502300  0.55793800  0.02601400  1
  O  O17  1  0.29513400  0.55804400  0.52617300  1
  O  O18  1  0.98545900  0.93423200  0.71129800  1
  O  O19  1  0.48546900  0.93436500  0.21141300  1
  O  O20  1  0.82140200  0.26639000  0.05323400  1
  O  O21  1  0.32134200  0.26646300  0.55323400  1
  O  O22  1  0.47580100  0.55801100  0.20603900  1
  O  O23  1  0.97588500  0.55802200  0.70608200  1
loop_
_geom_bond_atom_site_label_1
_geom_bond_atom_site_label_2
_geom_bond_distance
_geom_bond_site_symmetry_2
Li0 O14 2.038770 1_555
Li0 O13 2.070277 1_555
Li0 O7 2.098156 1_555
Li0 O21 2.121746 1_555
Li0 O0 2.299358 1_555
Li0 O17 2.469012 1_555
Li1 O15 2.039107 1_555
Li1 O12 2.070131 1_455
Li1 O6 2.098267 1_555
Li1 O20 2.121811 1_456
Li1 O1 2.301000 1_556
Li1 O16 2.468991 1_456
Li2 O19 2.013084 1_555
Li2 O2 2.025752 1_554
Li2 O22 2.143807 1_555
Li2 O4 2.258356 1_565
Li2 O8 2.315457 1_555
Li2 O10 2.397476 1_555
Li3 O18 2.012387 1_555
Li3 O3 2.025488 1_555
Li3 O23 2.144203 1_555
Li3 O5 2.258286 1_565
Li3 O9 2.316093 1_556
Li3 O11 2.397598 1_555
Li4 O11 2.072179 1_555
Li4 O8 2.075212 1_555
Li4 O17 2.089865 1_555
Li4 O18 2.202394 1_455
Li4 O15 2.236079 1_565
Li4 O2 2.247087 1_555
Li5 O10 2.072467 1_655
Li5 O9 2.075352 1_555
Li5 O16 2.091241 1_555
Li5 O19 2.201885 1_555
Li5 O14 2.235804 1_565
Li5 O3 2.246166 1_555
Li6 O20 1.965753 1_556
Li6 O5 2.000674 1_555
Li6 O0 2.005407 1_555
Li6 O13 2.518000 1_556
Li7 O21 1.965600 1_555
Li7 O4 2.001020 1_555
Li7 O1 2.005368 1_555
Li7 O12 2.517826 1_455
Mn0 O8 1.948636 1_555
Mn0 O5 1.956732 1_565
Mn0 O14 2.017022 1_565
Mn0 O19 2.018684 1_555
Mn0 O21 2.164264 1_565
Mn0 O3 2.235417 1_555
Mn1 O9 1.948885 1_555
Mn1 O4 1.955943 1_665
Mn1 O15 2.016607 1_664
Mn1 O18 2.019667 1_554
Mn1 O20 2.165727 1_565
Mn1 O2 2.233187 1_654
Nb0 O10 1.888362 1_555
Nb0 O17 1.907176 1_555
Nb0 O1 1.930695 1_555
Nb0 O22 2.077805 1_555
Nb0 O6 2.129149 1_554
Nb0 O13 2.225822 1_555
Nb1 O11 1.888383 1_555
Nb1 O16 1.906729 1_556
Nb1 O0 1.930800 1_555
Nb1 O23 2.078445 1_555
Nb1 O7 2.128178 1_555
Nb1 O12 2.225432 1_555
O0 W0 2.081867 1_555
O1 W3 2.081891 1_455
O2 W0 1.875994 1_555
O3 W3 1.876053 1_555
O4 W1 1.952031 1_455
O5 W2 1.952133 1_556
O6 W0 1.885705 1_555
O7 W3 1.886015 1_555
O8 W1 1.960145 1_465
O9 W2 1.960451 1_565
O10 W1 2.135953 1_465
O11 W2 2.136005 1_566
O12 W1 1.868961 1_555
O13 W2 1.868659 1_555
O14 W1 1.925088 1_555
O15 W2 1.924904 1_556
O16 W3 2.092960 1_555
O17 W0 2.092748 1_555
O18 W1 1.931271 1_565
O19 W2 1.930962 1_565
O20 W3 1.914848 1_555
O21 W0 1.914625 1_555
O22 W3 1.902268 1_555
O23 W0 1.901791 1_655
