# generated using pymatgen
data_NdAl3Ni2
_symmetry_space_group_name_H-M   'P 1'
_cell_length_a   5.31000967
_cell_length_b   5.31000881
_cell_length_c   4.00161386
_cell_angle_alpha   90.00000000
_cell_angle_beta   90.00000000
_cell_angle_gamma   119.99999287
_symmetry_Int_Tables_number   1
_chemical_formula_structural   NdAl3Ni2
_chemical_formula_sum   'Nd1 Al3 Ni2'
_cell_volume   97.71391065
_cell_formula_units_Z   1
loop_
 _symmetry_equiv_pos_site_id
 _symmetry_equiv_pos_as_xyz
  1  'x, y, z'
loop_
 _atom_site_type_symbol
 _atom_site_label
 _atom_site_symmetry_multiplicity
 _atom_site_fract_x
 _atom_site_fract_y
 _atom_site_fract_z
 _atom_site_occupancy
  Nd  Nd0  1  -0.00000000  -0.00000000  0.00000000  1
  Al  Al0  1  0.50000000  -0.00000000  0.50000000  1
  Al  Al1  1  0.50000000  0.50000000  0.50000000  1
  Al  Al2  1  -0.00000000  0.50000000  0.50000000  1
  Ni  Ni0  1  0.66666700  0.33333300  -0.00000000  1
  Ni  Ni1  1  0.33333300  0.66666700  -0.00000000  1
loop_
_geom_bond_atom_site_label_1
_geom_bond_atom_site_label_2
_geom_bond_distance
_geom_bond_site_symmetry_2
Nd0 Ni1 3.065732 1_545
Nd0 Ni0 3.065732 1_455
Nd0 Ni1 3.065737 1_555
Nd0 Ni0 3.065737 1_445
Nd0 Ni1 3.065737 1_445
Nd0 Ni0 3.065737 1_555
Al0 Ni0 2.520497 1_555
Al0 Ni1 2.520497 1_546
Al0 Ni0 2.520497 1_556
Al0 Ni1 2.520497 1_545
Al0 Al1 2.655004 1_545
Al0 Al1 2.655004 1_555
Al0 Al2 2.655005 1_545
Al0 Al2 2.655005 1_655
Al0 Nd0 3.324497 1_555
Al0 Nd0 3.324497 1_556
Al0 Nd0 3.324497 1_656
Al0 Nd0 3.324497 1_655
Al1 Ni1 2.520500 1_556
Al1 Ni0 2.520500 1_555
Al1 Ni0 2.520500 1_556
Al1 Ni1 2.520500 1_555
Al1 Al2 2.655005 1_555
Al1 Al2 2.655005 1_655
Al1 Nd0 3.324497 1_665
Al1 Nd0 3.324497 1_666
Al1 Nd0 3.324497 1_555
Al1 Nd0 3.324497 1_556
Al2 Ni0 2.520497 1_455
Al2 Ni1 2.520497 1_556
Al2 Ni0 2.520497 1_456
Al2 Ni1 2.520497 1_555
Al2 Nd0 3.324496 1_566
Al2 Nd0 3.324496 1_555
Al2 Nd0 3.324496 1_556
Al2 Nd0 3.324496 1_565
