# generated using pymatgen
data_Li4Nb3V2Co3O16
_symmetry_space_group_name_H-M   'P 1'
_cell_length_a   6.02625565
_cell_length_b   6.02625565
_cell_length_c   9.81129981
_cell_angle_alpha   89.89105787
_cell_angle_beta   89.89105787
_cell_angle_gamma   60.68374320
_symmetry_Int_Tables_number   1
_chemical_formula_structural   Li4Nb3V2Co3O16
_chemical_formula_sum   'Li4 Nb3 V2 Co3 O16'
_cell_volume   310.67221024
_cell_formula_units_Z   1
loop_
 _symmetry_equiv_pos_site_id
 _symmetry_equiv_pos_as_xyz
  1  'x, y, z'
loop_
 _atom_site_type_symbol
 _atom_site_label
 _atom_site_symmetry_multiplicity
 _atom_site_fract_x
 _atom_site_fract_y
 _atom_site_fract_z
 _atom_site_occupancy
  Li  Li0  1  0.33348500  0.33348500  0.10015800  1
  Li  Li1  1  0.00396600  0.00396600  0.00214200  1
  Li  Li2  1  0.97515400  0.97515400  0.51644000  1
  Li  Li3  1  0.66454600  0.66454600  0.60931400  1
  Nb  Nb0  1  0.18652500  0.18652500  0.76785200  1
  Nb  Nb1  1  0.83824500  0.35101400  0.28735000  1
  Nb  Nb2  1  0.35101400  0.83824500  0.28735000  1
  V  V0  1  0.35391300  0.35391300  0.51453200  1
  V  V1  1  0.68065300  0.68065300  0.99543500  1
  Co  Co0  1  0.65451400  0.19579000  0.79062800  1
  Co  Co1  1  0.19579000  0.65451400  0.79062800  1
  Co  Co2  1  0.81457300  0.81457300  0.28295800  1
  O  O0  1  0.67269900  0.18819600  0.39974700  1
  O  O1  1  0.48580000  0.48580000  0.65663400  1
  O  O2  1  0.32723700  0.32723700  0.90189600  1
  O  O3  1  0.00689000  0.00689000  0.70636600  1
  O  O4  1  0.00762800  0.00762800  0.18804400  1
  O  O5  1  0.18819600  0.67269900  0.39974700  1
  O  O6  1  0.47954400  0.03391700  0.65350600  1
  O  O7  1  0.03391700  0.47954400  0.65350600  1
  O  O8  1  0.82959500  0.82959500  0.91305900  1
  O  O9  1  0.17796100  0.17796100  0.39328200  1
  O  O10  1  0.94823600  0.51542300  0.14317200  1
  O  O11  1  0.51542300  0.94823600  0.14317200  1
  O  O12  1  0.65633100  0.65633100  0.40961400  1
  O  O13  1  0.82673700  0.36827400  0.91187500  1
  O  O14  1  0.51957500  0.51957500  0.16633300  1
  O  O15  1  0.36827400  0.82673700  0.91187500  1
loop_
_geom_bond_atom_site_label_1
_geom_bond_atom_site_label_2
_geom_bond_distance
_geom_bond_site_symmetry_2
Li0 O2 1.946436 1_554
Li0 O14 2.042984 1_555
Li0 O10 2.067723 1_455
Li0 O11 2.067723 1_545
Li1 O4 1.824422 1_555
Li1 O8 2.015084 1_444
Li1 O13 2.108304 1_454
Li1 O15 2.108304 1_544
Li2 O3 1.893150 1_665
Li2 O5 1.998014 1_655
Li2 O0 1.998014 1_565
Li2 O9 2.428775 1_665
Li3 O1 1.915348 1_555
Li3 O12 1.961367 1_555
Li3 O6 1.989309 1_565
Li3 O7 1.989309 1_655
Nb0 O6 1.904888 1_555
Nb0 O7 1.904888 1_555
Nb0 O3 1.964732 1_555
Nb0 O2 1.969852 1_555
Nb0 O15 2.359251 1_545
Nb0 O13 2.359251 1_455
Nb1 O12 2.013516 1_555
Nb1 O10 2.014000 1_555
Nb1 O0 2.030838 1_555
Nb1 O4 2.051534 1_655
Nb1 O14 2.055069 1_555
Nb1 O9 2.066917 1_655
Nb2 O12 2.013516 1_555
Nb2 O11 2.014000 1_555
Nb2 O5 2.030838 1_555
Nb2 O4 2.051534 1_565
Nb2 O14 2.055069 1_555
Nb2 O9 2.066917 1_565
Co0 O1 2.018094 1_555
Co0 O3 2.029369 1_655
Co0 O2 2.043099 1_555
Co0 O13 2.153719 1_555
Co0 O6 2.211547 1_555
Co0 O8 2.267308 1_545
Co1 O1 2.018094 1_555
Co1 O3 2.029369 1_565
Co1 O2 2.043099 1_555
Co1 O15 2.153719 1_555
Co1 O7 2.211547 1_555
Co1 O8 2.267308 1_455
Co2 O12 2.060201 1_555
Co2 O10 2.088760 1_555
Co2 O11 2.088760 1_555
Co2 O4 2.211644 1_665
Co2 O0 2.287886 1_565
Co2 O5 2.287886 1_655
O0 V0 2.018297 1_555
O1 V0 1.958107 1_555
O5 V0 2.018297 1_555
O6 V0 2.171463 1_555
O7 V0 2.171463 1_555
O8 V1 1.745807 1_555
O9 V0 2.185036 1_555
O10 V1 2.030713 1_554
O11 V1 2.030713 1_554
O13 V1 1.836060 1_555
O14 V1 2.367756 1_554
O15 V1 1.836060 1_555
