# generated using pymatgen
data_Li3(FeS2)2
_symmetry_space_group_name_H-M   'P 1'
_cell_length_a   7.24058977
_cell_length_b   7.24058977
_cell_length_c   6.23060217
_cell_angle_alpha   89.87146077
_cell_angle_beta   89.87146077
_cell_angle_gamma   75.75748363
_symmetry_Int_Tables_number   1
_chemical_formula_structural   Li3(FeS2)2
_chemical_formula_sum   'Li6 Fe4 S8'
_cell_volume   316.60502994
_cell_formula_units_Z   2
loop_
 _symmetry_equiv_pos_site_id
 _symmetry_equiv_pos_as_xyz
  1  'x, y, z'
loop_
 _atom_site_type_symbol
 _atom_site_label
 _atom_site_symmetry_multiplicity
 _atom_site_fract_x
 _atom_site_fract_y
 _atom_site_fract_z
 _atom_site_occupancy
  Li  Li0  1  0.24548000  0.99150500  0.03571500  1
  Li  Li1  1  0.99150500  0.24548000  0.53571500  1
  Li  Li2  1  0.60558700  0.39441300  0.25000000  1
  Li  Li3  1  0.39441300  0.60558700  0.75000000  1
  Li  Li4  1  0.00849500  0.75452000  0.46428500  1
  Li  Li5  1  0.75452000  0.00849500  0.96428500  1
  Fe  Fe0  1  0.57388800  0.83384800  0.40758100  1
  Fe  Fe1  1  0.83384800  0.57388800  0.90758100  1
  Fe  Fe2  1  0.16615200  0.42611200  0.09241900  1
  Fe  Fe3  1  0.42611200  0.16615200  0.59241900  1
  S  S0  1  0.55593000  0.74651200  0.05657500  1
  S  S1  1  0.74651200  0.55593000  0.55657500  1
  S  S2  1  0.93759200  0.26594400  0.02284000  1
  S  S3  1  0.26594400  0.93759200  0.52284000  1
  S  S4  1  0.73405600  0.06240800  0.47716000  1
  S  S5  1  0.06240800  0.73405600  0.97716000  1
  S  S6  1  0.25348800  0.44407000  0.44342500  1
  S  S7  1  0.44407000  0.25348800  0.94342500  1
loop_
_geom_bond_atom_site_label_1
_geom_bond_atom_site_label_2
_geom_bond_distance
_geom_bond_site_symmetry_2
Li0 S0 2.500926 1_555
Li0 S5 2.566328 1_554
Li0 S2 2.597136 1_465
Li0 S7 2.707401 1_564
Li1 S1 2.500926 1_555
Li1 S4 2.566328 1_555
Li1 S3 2.597136 1_645
Li1 S6 2.707401 1_655
Li2 S7 2.581367 1_554
Li2 S1 2.581367 1_555
Li2 S4 2.745470 1_555
Li2 S2 2.745470 1_555
Li2 S6 2.760120 1_555
Li2 S0 2.760120 1_555
Li3 S6 2.581367 1_555
Li3 S0 2.581367 1_556
Li3 S5 2.745470 1_555
Li3 S3 2.745470 1_555
Li3 S7 2.760120 1_555
Li3 S1 2.760120 1_555
Li4 S6 2.500926 1_555
Li4 S3 2.566328 1_555
Li4 S4 2.597136 1_465
Li4 S1 2.707401 1_455
Li5 S7 2.500926 1_555
Li5 S2 2.566328 1_556
Li5 S5 2.597136 1_645
Li5 S0 2.707401 1_546
Fe0 S4 2.285044 1_565
Fe0 S3 2.285305 1_555
Fe0 S1 2.287482 1_555
Fe0 S0 2.290766 1_555
Fe1 S5 2.285044 1_655
Fe1 S2 2.285305 1_556
Fe1 S0 2.287482 1_556
Fe1 S1 2.290766 1_555
Fe2 S2 2.285044 1_455
Fe2 S5 2.285305 1_554
Fe2 S7 2.287482 1_554
Fe2 S6 2.290766 1_555
Fe3 S3 2.285044 1_545
Fe3 S4 2.285305 1_555
Fe3 S6 2.287482 1_555
Fe3 S7 2.290766 1_555
