# generated using pymatgen
data_KHfPCO7
_symmetry_space_group_name_H-M   'P 1'
_cell_length_a   6.64734400
_cell_length_b   5.78318300
_cell_length_c   9.97619303
_cell_angle_alpha   89.07536539
_cell_angle_beta   90.00000000
_cell_angle_gamma   90.00000000
_symmetry_Int_Tables_number   1
_chemical_formula_structural   KHfPCO7
_chemical_formula_sum   'K2 Hf2 P2 C2 O14'
_cell_volume   383.46292305
_cell_formula_units_Z   2
loop_
 _symmetry_equiv_pos_site_id
 _symmetry_equiv_pos_as_xyz
  1  'x, y, z'
loop_
 _atom_site_type_symbol
 _atom_site_label
 _atom_site_symmetry_multiplicity
 _atom_site_fract_x
 _atom_site_fract_y
 _atom_site_fract_z
 _atom_site_occupancy
  K  K0  1  0.55048800  0.74750300  0.78213300  1
  K  K1  1  0.05048800  0.25249700  0.21786700  1
  Hf  Hf0  1  0.22501400  0.22242700  0.65342000  1
  Hf  Hf1  1  0.72501400  0.77757300  0.34658000  1
  P  P0  1  0.73081000  0.27052800  0.55123600  1
  P  P1  1  0.23081000  0.72947200  0.44876400  1
  C  C0  1  0.26821600  0.27865400  0.90502400  1
  C  C1  1  0.76821600  0.72134600  0.09497600  1
  O  O0  1  0.79482500  0.69373500  0.97405700  1
  O  O1  1  0.25724100  0.07242900  0.84432100  1
  O  O2  1  0.24786000  0.45104500  0.81348300  1
  O  O3  1  0.91748600  0.23042300  0.64091500  1
  O  O4  1  0.54218800  0.22905600  0.63792100  1
  O  O5  1  0.23705600  0.90083800  0.56659700  1
  O  O6  1  0.73096600  0.52096500  0.49369400  1
  O  O7  1  0.23096600  0.47903500  0.50630600  1
  O  O8  1  0.73705600  0.09916200  0.43340300  1
  O  O9  1  0.04218800  0.77094400  0.36207900  1
  O  O10  1  0.41748600  0.76957700  0.35908500  1
  O  O11  1  0.74786000  0.54895500  0.18651700  1
  O  O12  1  0.75724100  0.92757100  0.15567900  1
  O  O13  1  0.29482500  0.30626500  0.02594300  1
loop_
_geom_bond_atom_site_label_1
_geom_bond_atom_site_label_2
_geom_bond_distance
_geom_bond_site_symmetry_2
K0 O0 2.526151 1_555
K0 O2 2.658335 1_555
K0 O1 2.784490 1_565
K0 O5 3.112752 1_555
K0 O4 3.114365 1_565
K0 O4 3.346898 1_555
K0 O6 3.399629 1_555
K1 O13 2.526151 1_555
K1 O11 2.658335 1_455
K1 O12 2.784490 1_445
K1 O8 3.112752 1_455
K1 O9 3.114365 1_545
K1 O9 3.346898 1_555
K1 O7 3.399629 1_555
Hf0 O3 2.048524 1_455
Hf0 O5 2.065798 1_545
Hf0 O7 2.070633 1_555
Hf0 O1 2.090947 1_555
Hf0 O2 2.095015 1_555
Hf0 O4 2.114329 1_555
Hf1 O10 2.048524 1_555
Hf1 O8 2.065798 1_565
Hf1 O6 2.070633 1_555
Hf1 O12 2.090947 1_555
Hf1 O11 2.095015 1_555
Hf1 O9 2.114329 1_655
C0 O13 1.232148 1_556
C0 O2 1.347910 1_555
C0 O1 1.348239 1_555
C1 O0 1.232148 1_554
C1 O11 1.347910 1_555
C1 O12 1.348239 1_555
O3 P0 1.545101 1_555
O4 P0 1.539736 1_555
O5 P1 1.550272 1_555
O6 P0 1.549303 1_555
O7 P1 1.549303 1_555
O8 P0 1.550272 1_555
O9 P1 1.539736 1_555
O10 P1 1.545101 1_555
