# generated using pymatgen
data_Ca2Ti6N2O11
_symmetry_space_group_name_H-M   'P 1'
_cell_length_a   3.75552100
_cell_length_b   7.71916348
_cell_length_c   9.59897810
_cell_angle_alpha   100.89114122
_cell_angle_beta   90.14293849
_cell_angle_gamma   103.80716362
_symmetry_Int_Tables_number   1
_chemical_formula_structural   Ca2Ti6N2O11
_chemical_formula_sum   'Ca2 Ti6 N2 O11'
_cell_volume   265.03065988
_cell_formula_units_Z   1
loop_
 _symmetry_equiv_pos_site_id
 _symmetry_equiv_pos_as_xyz
  1  'x, y, z'
loop_
 _atom_site_type_symbol
 _atom_site_label
 _atom_site_symmetry_multiplicity
 _atom_site_fract_x
 _atom_site_fract_y
 _atom_site_fract_z
 _atom_site_occupancy
  Ca  Ca0  1  0.54427900  0.10376700  0.73077900  1
  Ca  Ca1  1  0.47949800  0.93536700  0.19916800  1
  Ti  Ti0  1  0.12597200  0.25198800  0.06558200  1
  Ti  Ti1  1  0.16064200  0.32027800  0.43467200  1
  Ti  Ti2  1  0.23857800  0.47649900  0.74750000  1
  Ti  Ti3  1  0.77435800  0.55193200  0.24297900  1
  Ti  Ti4  1  0.83441500  0.67319100  0.56998000  1
  Ti  Ti5  1  0.88971300  0.78048700  0.89289800  1
  N  N0  1  0.29386300  0.59019700  0.58754800  1
  N  N1  1  0.93638900  0.87609400  0.72785800  1
  O  O0  1  0.06009800  0.11081000  0.30897900  1
  O  O1  1  0.12257200  0.23965000  0.61010500  1
  O  O2  1  0.14259400  0.28488700  0.88663300  1
  O  O3  1  0.63960800  0.28019900  0.11168200  1
  O  O4  1  0.69804300  0.39636600  0.42522800  1
  O  O5  1  0.75323800  0.50573700  0.77261800  1
  O  O6  1  0.23541800  0.47398600  0.24110200  1
  O  O7  1  0.35655900  0.71390500  0.89918800  1
  O  O8  1  0.84316400  0.69257100  0.11650400  1
  O  O9  1  0.86696200  0.75142100  0.39934700  1
  O  O10  1  0.99596700  0.99974100  0.02953300  1
loop_
_geom_bond_atom_site_label_1
_geom_bond_atom_site_label_2
_geom_bond_distance
_geom_bond_site_symmetry_2
Ca0 O1 2.488582 1_555
Ca0 N1 2.523342 1_445
Ca0 N1 2.544550 1_545
Ca0 O1 2.557932 1_655
Ca0 O2 2.587670 1_555
Ca0 O2 2.633460 1_655
Ca0 O5 2.961456 1_555
Ca1 O0 2.395652 1_665
Ca1 O0 2.431654 1_565
Ca1 O10 2.553806 1_555
Ca1 O8 2.583150 1_555
Ca1 O10 2.630133 1_455
Ca1 O8 2.672813 1_455
N0 Ti2 1.895940 1_555
N0 Ti4 1.995434 1_555
N0 Ti4 1.995769 1_455
N0 Ti1 2.255724 1_555
N1 Ti5 1.861872 1_555
N1 Ti4 1.926207 1_555
O0 Ti1 1.783763 1_555
O1 Ti1 1.896935 1_555
O1 Ti2 1.994378 1_555
O2 Ti0 1.782355 1_556
O2 Ti2 2.143750 1_555
O3 Ti0 1.929506 1_555
O3 Ti0 1.933132 1_655
O3 Ti3 2.176098 1_555
O4 Ti1 1.969204 1_655
O4 Ti1 1.970188 1_555
O4 Ti4 2.260794 1_555
O4 Ti3 2.283998 1_555
O5 Ti2 1.899817 1_655
O5 Ti2 1.900986 1_555
O5 Ti5 2.155591 1_555
O5 Ti4 2.512415 1_555
O6 Ti3 1.963118 1_455
O6 Ti3 1.968089 1_555
O6 Ti0 2.124482 1_555
O6 Ti1 2.369754 1_555
O7 Ti5 1.944989 1_455
O7 Ti5 1.948852 1_555
O7 Ti2 2.067759 1_555
O8 Ti3 1.756393 1_555
O8 Ti5 2.365117 1_554
O9 Ti4 1.844411 1_555
O9 Ti3 1.900916 1_555
O10 Ti0 1.854788 1_665
O10 Ti5 1.892100 1_554
