# generated using pymatgen
data_LiVF5
_symmetry_space_group_name_H-M   'P 1'
_cell_length_a   5.91279879
_cell_length_b   7.47624564
_cell_length_c   7.42043250
_cell_angle_alpha   90.00000000
_cell_angle_beta   90.00000000
_cell_angle_gamma   90.00000000
_symmetry_Int_Tables_number   1
_chemical_formula_structural   LiVF5
_chemical_formula_sum   'Li4 V4 F20'
_cell_volume   328.02419730
_cell_formula_units_Z   4
loop_
 _symmetry_equiv_pos_site_id
 _symmetry_equiv_pos_as_xyz
  1  'x, y, z'
loop_
 _atom_site_type_symbol
 _atom_site_label
 _atom_site_symmetry_multiplicity
 _atom_site_fract_x
 _atom_site_fract_y
 _atom_site_fract_z
 _atom_site_occupancy
  Li  Li0  1  0.77531834  0.25000000  0.64282638  1
  Li  Li1  1  0.72468166  0.75000000  0.14282638  1
  Li  Li2  1  0.27531834  0.25000000  0.85717362  1
  Li  Li3  1  0.22468166  0.75000000  0.35717362  1
  V  V0  1  0.76755886  0.75000000  0.59832948  1
  V  V1  1  0.73244114  0.25000000  0.09832948  1
  V  V2  1  0.26755886  0.75000000  0.90167052  1
  V  V3  1  0.23244114  0.25000000  0.40167052  1
  F  F0  1  0.00569594  0.25000000  0.98998086  1
  F  F1  1  0.89478379  0.75000000  0.36981070  1
  F  F2  1  0.90530115  0.25000000  0.32456965  1
  F  F3  1  0.78729500  0.98528469  0.62799019  1
  F  F4  1  0.78729500  0.51471531  0.62799019  1
  F  F5  1  0.71270500  0.01471531  0.12799019  1
  F  F6  1  0.71270500  0.48528469  0.12799019  1
  F  F7  1  0.59469885  0.75000000  0.82456965  1
  F  F8  1  0.60521621  0.25000000  0.86981070  1
  F  F9  1  0.49430406  0.75000000  0.48998086  1
  F  F10  1  0.50569594  0.25000000  0.51001914  1
  F  F11  1  0.39478379  0.75000000  0.13018930  1
  F  F12  1  0.40530115  0.25000000  0.17543035  1
  F  F13  1  0.28729500  0.51471531  0.87200981  1
  F  F14  1  0.28729500  0.98528469  0.87200981  1
  F  F15  1  0.21270500  0.01471531  0.37200981  1
  F  F16  1  0.21270500  0.48528469  0.37200981  1
  F  F17  1  0.09469885  0.75000000  0.67543035  1
  F  F18  1  0.10521621  0.25000000  0.63018930  1
  F  F19  1  0.99430406  0.75000000  0.01001914  1
loop_
_geom_bond_atom_site_label_1
_geom_bond_atom_site_label_2
_geom_bond_distance
_geom_bond_site_symmetry_2
F0 V1 1.804687 1_456
F0 Li2 1.874228 1_555
F1 V0 1.855078 1_555
F1 Li3 1.952872 1_655
F1 Li1 1.961768 1_555
F2 V1 1.965459 1_555
F2 V3 2.017149 1_655
F2 Li0 2.483517 1_555
F3 V0 1.776599 1_555
F3 Li0 1.983401 1_565
F4 V0 1.776599 1_555
F4 Li0 1.983401 1_555
F5 V1 1.776599 1_555
F5 Li1 1.983401 1_545
F6 V1 1.776599 1_555
F6 Li1 1.983401 1_555
F7 V0 1.965459 1_555
F7 V2 2.017149 1_555
F7 Li1 2.483517 1_556
F8 V1 1.855078 1_556
F8 Li2 1.952872 1_555
F8 Li0 1.961768 1_555
F9 V0 1.804687 1_555
F9 Li3 1.874228 1_555
F10 V3 1.804687 1_555
F10 Li0 1.874228 1_555
F11 V2 1.855078 1_554
F11 Li1 1.952872 1_555
F11 Li3 1.961768 1_555
F12 V3 1.965459 1_555
F12 V1 2.017149 1_555
F12 Li2 2.483517 1_554
F13 V2 1.776599 1_555
F13 Li2 1.983401 1_555
F14 V2 1.776599 1_555
F14 Li2 1.983401 1_565
F15 V3 1.776599 1_555
F15 Li3 1.983401 1_545
F16 V3 1.776599 1_555
F16 Li3 1.983401 1_555
F17 V2 1.965459 1_555
F17 V0 2.017149 1_455
F17 Li3 2.483517 1_555
F18 V3 1.855078 1_555
F18 Li0 1.952872 1_455
F18 Li2 1.961768 1_555
F19 V2 1.804687 1_654
F19 Li1 1.874228 1_555
