# generated using pymatgen
data_Li4Ti4Mn4NiO18
_symmetry_space_group_name_H-M   'P 1'
_cell_length_a   2.93693600
_cell_length_b   9.12608500
_cell_length_c   25.30168400
_cell_angle_alpha   90.00000000
_cell_angle_beta   90.00000000
_cell_angle_gamma   90.00000000
_symmetry_Int_Tables_number   1
_chemical_formula_structural   Li4Ti4Mn4NiO18
_chemical_formula_sum   'Li8 Ti8 Mn8 Ni2 O36'
_cell_volume   678.15414345
_cell_formula_units_Z   2
loop_
 _symmetry_equiv_pos_site_id
 _symmetry_equiv_pos_as_xyz
  1  'x, y, z'
loop_
 _atom_site_type_symbol
 _atom_site_label
 _atom_site_symmetry_multiplicity
 _atom_site_fract_x
 _atom_site_fract_y
 _atom_site_fract_z
 _atom_site_occupancy
  Li  Li0  1  0.50000000  0.70275800  0.00077500  1
  Li  Li1  1  0.50000000  0.70676800  0.19744400  1
  Li  Li2  1  0.50000000  0.79323200  0.69744400  1
  Li  Li3  1  0.50000000  0.79724200  0.50077500  1
  Li  Li4  1  0.50000000  0.20275800  0.49922500  1
  Li  Li5  1  0.50000000  0.20676800  0.30255600  1
  Li  Li6  1  0.50000000  0.29323200  0.80255600  1
  Li  Li7  1  0.50000000  0.29724200  0.99922500  1
  Ti  Ti0  1  0.50000000  0.50947400  0.10427800  1
  Ti  Ti1  1  0.00000000  0.64154300  0.80484200  1
  Ti  Ti2  1  0.00000000  0.85845700  0.30484200  1
  Ti  Ti3  1  0.50000000  0.99052600  0.60427800  1
  Ti  Ti4  1  0.50000000  0.00947400  0.39572200  1
  Ti  Ti5  1  0.00000000  0.14154300  0.69515800  1
  Ti  Ti6  1  0.00000000  0.35845700  0.19515800  1
  Ti  Ti7  1  0.50000000  0.49052600  0.89572200  1
  Mn  Mn0  1  0.50000000  0.51987200  0.31564700  1
  Mn  Mn1  1  0.00000000  0.63755500  0.58614100  1
  Mn  Mn2  1  0.00000000  0.86244500  0.08614100  1
  Mn  Mn3  1  0.50000000  0.98012800  0.81564700  1
  Mn  Mn4  1  0.50000000  0.01987200  0.18435300  1
  Mn  Mn5  1  0.00000000  0.13755500  0.91385900  1
  Mn  Mn6  1  0.00000000  0.36244500  0.41385900  1
  Mn  Mn7  1  0.50000000  0.48012800  0.68435300  1
  Ni  Ni0  1  0.50000000  0.50000000  0.50000000  1
  Ni  Ni1  1  0.50000000  0.00000000  0.00000000  1
  O  O0  1  0.50000000  0.49830300  0.41700900  1
  O  O1  1  0.50000000  0.50169700  0.58299100  1
  O  O2  1  0.00000000  0.53238400  0.94012000  1
  O  O3  1  0.00000000  0.55599600  0.16284100  1
  O  O4  1  0.00000000  0.61181300  0.66303100  1
  O  O5  1  0.50000000  0.61132800  0.75667800  1
  O  O6  1  0.00000000  0.65730200  0.51173200  1
  O  O7  1  0.00000000  0.64399800  0.29114800  1
  O  O8  1  0.50000000  0.67469800  0.85728200  1
  O  O9  1  0.50000000  0.72033900  0.08977800  1
  O  O10  1  0.50000000  0.77966100  0.58977800  1
  O  O11  1  0.50000000  0.82530200  0.35728200  1
  O  O12  1  0.00000000  0.85600200  0.79114800  1
  O  O13  1  0.00000000  0.84269800  0.01173200  1
  O  O14  1  0.50000000  0.88867200  0.25667800  1
  O  O15  1  0.00000000  0.88818700  0.16303100  1
  O  O16  1  0.00000000  0.94400400  0.66284100  1
  O  O17  1  0.00000000  0.96761600  0.44012000  1
  O  O18  1  0.50000000  0.99830300  0.08299100  1
  O  O19  1  0.50000000  0.00169700  0.91700900  1
  O  O20  1  0.00000000  0.03238400  0.55988000  1
  O  O21  1  0.00000000  0.05599600  0.33715900  1
  O  O22  1  0.00000000  0.11181300  0.83696900  1
  O  O23  1  0.50000000  0.11132800  0.74332200  1
  O  O24  1  0.00000000  0.15730200  0.98826800  1
  O  O25  1  0.00000000  0.14399800  0.20885200  1
  O  O26  1  0.50000000  0.17469800  0.64271800  1
  O  O27  1  0.50000000  0.22033900  0.41022200  1
  O  O28  1  0.50000000  0.27966100  0.91022200  1
  O  O29  1  0.50000000  0.32530200  0.14271800  1
  O  O30  1  0.00000000  0.35600200  0.70885200  1
  O  O31  1  0.00000000  0.34269800  0.48826800  1
  O  O32  1  0.50000000  0.38867200  0.24332200  1
  O  O33  1  0.00000000  0.38818700  0.33696900  1
  O  O34  1  0.00000000  0.44400400  0.83715900  1
  O  O35  1  0.00000000  0.46761600  0.05988000  1
loop_
_geom_bond_atom_site_label_1
_geom_bond_atom_site_label_2
_geom_bond_distance
_geom_bond_site_symmetry_2
Li0 O13 1.965770 1_655
Li0 O13 1.965770 1_555
Li0 O9 2.257634 1_555
Li1 O3 2.194581 1_655
Li1 O3 2.194581 1_555
Li1 O14 2.236515 1_555
Li1 O15 2.378169 1_555
Li1 O15 2.378169 1_655
Li2 O16 2.194581 1_555
Li2 O16 2.194581 1_655
Li2 O5 2.236515 1_555
Li2 O4 2.378169 1_555
Li2 O4 2.378169 1_655
Li3 O6 1.965770 1_555
Li3 O6 1.965770 1_655
Li3 O10 2.257634 1_555
Li4 O31 1.965770 1_555
Li4 O31 1.965770 1_655
Li4 O27 2.257634 1_555
Li5 O21 2.194581 1_555
Li5 O21 2.194581 1_655
Li5 O32 2.236515 1_555
Li5 O33 2.378169 1_655
Li5 O33 2.378169 1_555
Li6 O34 2.194581 1_655
Li6 O34 2.194581 1_555
Li6 O23 2.236515 1_555
Li6 O22 2.378169 1_655
Li6 O22 2.378169 1_555
Li7 O24 1.965770 1_555
Li7 O24 1.965770 1_655
Li7 O28 2.257634 1_555
Mn0 O7 1.955462 1_555
Mn0 O7 1.955462 1_655
Mn0 O33 1.972736 1_555
Mn0 O33 1.972736 1_655
Mn0 O32 2.186853 1_555
Mn0 O0 2.572172 1_555
Mn1 O6 1.891278 1_555
Mn1 O1 1.923534 1_455
Mn1 O1 1.923534 1_555
Mn1 O4 1.959579 1_555
Mn1 O10 1.961311 1_455
Mn1 O10 1.961311 1_555
Mn2 O13 1.891278 1_555
Mn2 O18 1.923534 1_455
Mn2 O18 1.923534 1_555
Mn2 O15 1.959579 1_555
Mn2 O9 1.961311 1_555
Mn2 O9 1.961311 1_455
Mn3 O12 1.955462 1_555
Mn3 O12 1.955462 1_655
Mn3 O22 1.972736 1_665
Mn3 O22 1.972736 1_565
Mn3 O23 2.186853 1_565
Mn3 O19 2.572172 1_565
Mn4 O25 1.955462 1_555
Mn4 O25 1.955462 1_655
Mn4 O15 1.972736 1_645
Mn4 O15 1.972736 1_545
Mn4 O14 2.186853 1_545
Mn4 O18 2.572172 1_545
Mn5 O24 1.891278 1_555
Mn5 O19 1.923534 1_455
Mn5 O19 1.923534 1_555
Mn5 O22 1.959579 1_555
Mn5 O28 1.961311 1_455
Mn5 O28 1.961311 1_555
Mn6 O31 1.891278 1_555
Mn6 O0 1.923534 1_455
Mn6 O0 1.923534 1_555
Mn6 O33 1.959579 1_555
Mn6 O27 1.961311 1_455
Mn6 O27 1.961311 1_555
Mn7 O30 1.955462 1_555
Mn7 O30 1.955462 1_655
Mn7 O4 1.972736 1_555
Mn7 O4 1.972736 1_655
Mn7 O5 2.186853 1_555
Mn7 O1 2.572172 1_555
Ni0 O6 2.074926 1_655
Ni0 O31 2.074926 1_555
Ni0 O6 2.074926 1_555
Ni0 O31 2.074926 1_655
Ni0 O0 2.099869 1_555
Ni0 O1 2.099869 1_555
Ni1 O24 2.074926 1_654
Ni1 O24 2.074926 1_554
Ni1 O13 2.074926 1_645
Ni1 O13 2.074926 1_545
Ni1 O18 2.099869 1_545
Ni1 O19 2.099869 1_554
O2 Ti7 1.887915 1_555
O2 Ti7 1.887915 1_455
O3 Ti6 1.979527 1_555
O3 Ti0 2.128900 1_455
O3 Ti0 2.128900 1_555
O5 Ti1 1.928080 1_555
O5 Ti1 1.928080 1_655
O7 Ti2 1.987604 1_555
O8 Ti7 1.941888 1_555
O8 Ti1 2.002099 1_655
O8 Ti1 2.002099 1_555
O9 Ti0 1.959031 1_555
O10 Ti3 1.959031 1_555
O11 Ti4 1.941888 1_565
O11 Ti2 2.002099 1_555
O11 Ti2 2.002099 1_655
O12 Ti1 1.987604 1_555
O14 Ti2 1.928080 1_655
O14 Ti2 1.928080 1_555
O16 Ti5 1.979527 1_565
O16 Ti3 2.128900 1_455
O16 Ti3 2.128900 1_555
O17 Ti4 1.887915 1_465
O17 Ti4 1.887915 1_565
O20 Ti3 1.887915 1_445
O20 Ti3 1.887915 1_545
O21 Ti2 1.979527 1_545
O21 Ti4 2.128900 1_455
O21 Ti4 2.128900 1_555
O23 Ti5 1.928080 1_655
O23 Ti5 1.928080 1_555
O25 Ti6 1.987604 1_555
O26 Ti3 1.941888 1_545
O26 Ti5 2.002099 1_655
O26 Ti5 2.002099 1_555
O27 Ti4 1.959031 1_555
O28 Ti7 1.959031 1_555
O29 Ti0 1.941888 1_555
O29 Ti6 2.002099 1_555
O29 Ti6 2.002099 1_655
O30 Ti5 1.987604 1_555
O32 Ti6 1.928080 1_555
O32 Ti6 1.928080 1_655
O34 Ti1 1.979527 1_555
O34 Ti7 2.128900 1_455
O34 Ti7 2.128900 1_555
O35 Ti0 1.887915 1_455
O35 Ti0 1.887915 1_555
