# generated using pymatgen
data_Li2VF6
_symmetry_space_group_name_H-M   'P 1'
_cell_length_a   8.74252200
_cell_length_b   5.22915200
_cell_length_c   5.23077688
_cell_angle_alpha   69.00321226
_cell_angle_beta   90.00000000
_cell_angle_gamma   90.00000000
_symmetry_Int_Tables_number   1
_chemical_formula_structural   Li2VF6
_chemical_formula_sum   'Li4 V2 F12'
_cell_volume   223.25195925
_cell_formula_units_Z   2
loop_
 _symmetry_equiv_pos_site_id
 _symmetry_equiv_pos_as_xyz
  1  'x, y, z'
loop_
 _atom_site_type_symbol
 _atom_site_label
 _atom_site_symmetry_multiplicity
 _atom_site_fract_x
 _atom_site_fract_y
 _atom_site_fract_z
 _atom_site_occupancy
  Li  Li0  1  0.66914400  0.94902900  0.12111500  1
  Li  Li1  1  0.33944000  0.52008000  0.24015400  1
  Li  Li2  1  0.83944000  0.47992000  0.75984600  1
  Li  Li3  1  0.16914400  0.05097100  0.87888500  1
  V  V0  1  0.99749400  0.49269300  0.24444400  1
  V  V1  1  0.49749400  0.50730700  0.75555600  1
  F  F0  1  0.15686800  0.74164300  0.25170800  1
  F  F1  1  0.51023000  0.70732900  0.37039500  1
  F  F2  1  0.84373200  0.68855400  0.34481700  1
  F  F3  1  0.35445800  0.74136600  0.83213400  1
  F  F4  1  0.98038600  0.71667500  0.87563500  1
  F  F5  1  0.65367800  0.70967100  0.83116300  1
  F  F6  1  0.34373200  0.31144600  0.65518300  1
  F  F7  1  0.01023000  0.29267100  0.62960500  1
  F  F8  1  0.65686800  0.25835700  0.74829200  1
  F  F9  1  0.15367800  0.29032900  0.16883700  1
  F  F10  1  0.48038600  0.28332500  0.12436500  1
  F  F11  1  0.85445800  0.25863400  0.16786600  1
loop_
_geom_bond_atom_site_label_1
_geom_bond_atom_site_label_2
_geom_bond_distance
_geom_bond_site_symmetry_2
F0 V0 1.916491 1_455
F0 Li1 1.985904 1_555
F0 Li3 2.042167 1_564
F1 V1 1.911872 1_555
F1 Li0 2.011665 1_555
F1 Li1 2.032326 1_555
F2 V0 1.875373 1_555
F2 Li2 2.051161 1_555
F2 Li0 2.100471 1_555
F3 V1 1.890378 1_555
F3 Li1 2.035058 1_556
F3 Li3 2.364182 1_565
F4 V0 1.869916 1_556
F4 Li2 1.988787 1_555
F4 Li3 2.408446 1_665
F5 V1 1.854863 1_555
F5 Li2 2.131003 1_555
F5 Li0 2.290324 1_556
F6 V1 1.875373 1_555
F6 Li1 2.051161 1_555
F6 Li3 2.100471 1_555
F7 V0 1.911872 1_455
F7 Li3 2.011665 1_555
F7 Li2 2.032326 1_455
F8 V1 1.916491 1_555
F8 Li2 1.985904 1_555
F8 Li0 2.042167 1_546
F9 V0 1.854863 1_455
F9 Li1 2.131003 1_555
F9 Li3 2.290324 1_554
F10 V1 1.869916 1_554
F10 Li1 1.988787 1_555
F10 Li0 2.408446 1_545
F11 V0 1.890378 1_555
F11 Li2 2.035058 1_554
F11 Li0 2.364182 1_545
