# generated using pymatgen
data_LiVPO4
_symmetry_space_group_name_H-M   'P 1'
_cell_length_a   4.98458500
_cell_length_b   9.41862900
_cell_length_c   6.32029300
_cell_angle_alpha   90.00013040
_cell_angle_beta   90.00339642
_cell_angle_gamma   89.99818552
_symmetry_Int_Tables_number   1
_chemical_formula_structural   LiVPO4
_chemical_formula_sum   'Li4 V4 P4 O16'
_cell_volume   296.72484261
_cell_formula_units_Z   4
loop_
 _symmetry_equiv_pos_site_id
 _symmetry_equiv_pos_as_xyz
  1  'x, y, z'
loop_
 _atom_site_type_symbol
 _atom_site_label
 _atom_site_symmetry_multiplicity
 _atom_site_fract_x
 _atom_site_fract_y
 _atom_site_fract_z
 _atom_site_occupancy
  Li  Li0  1  0.48411400  0.17053400  0.75001000  1
  Li  Li1  1  0.98407300  0.32943700  0.24999900  1
  Li  Li2  1  0.01577400  0.67039300  0.74999500  1
  Li  Li3  1  0.51581600  0.82958300  0.25001300  1
  V  V0  1  0.00037800  0.99992600  0.49997300  1
  V  V1  1  0.50019500  0.49987000  0.49979600  1
  V  V2  1  0.00025400  0.00012700  0.99987300  1
  V  V3  1  0.50024900  0.50010500  0.00007900  1
  P  P0  1  0.48546000  0.17810800  0.25001100  1
  P  P1  1  0.98548000  0.32188700  0.75004200  1
  P  P2  1  0.01451800  0.67810800  0.25003900  1
  P  P3  1  0.51448100  0.82188800  0.74998500  1
  O  O0  1  0.79245700  0.13747700  0.25001600  1
  O  O1  1  0.29249000  0.36249500  0.75020700  1
  O  O2  1  0.70741700  0.63755800  0.25023000  1
  O  O3  1  0.20736300  0.86245500  0.74976700  1
  O  O4  1  0.93548900  0.15588500  0.74998200  1
  O  O5  1  0.43550000  0.34406800  0.24999900  1
  O  O6  1  0.56439400  0.65584700  0.75001600  1
  O  O7  1  0.06443000  0.84413700  0.24997300  1
  O  O8  1  0.35455000  0.12078200  0.04709900  1
  O  O9  1  0.35457800  0.12077200  0.45291800  1
  O  O10  1  0.85451300  0.37923100  0.95291900  1
  O  O11  1  0.85488300  0.37930600  0.54707200  1
  O  O12  1  0.14523600  0.62070200  0.04709700  1
  O  O13  1  0.14541300  0.62070000  0.45289800  1
  O  O14  1  0.64524100  0.87930800  0.54707700  1
  O  O15  1  0.64525700  0.87931600  0.95291300  1
loop_
_geom_bond_atom_site_label_1
_geom_bond_atom_site_label_2
_geom_bond_distance
_geom_bond_site_symmetry_2
Li0 O9 2.040156 1_555
Li0 O8 2.040234 1_556
Li0 O1 2.044782 1_555
Li0 O4 2.254139 1_555
Li1 O11 2.039793 1_555
Li1 O10 2.040186 1_554
Li1 O0 2.044808 1_555
Li1 O5 2.254396 1_655
Li2 O12 2.039937 1_556
Li2 O13 2.040260 1_555
Li2 O3 2.045595 1_555
Li2 O6 2.254114 1_455
Li3 O14 2.039738 1_555
Li3 O15 2.040063 1_554
Li3 O2 2.045261 1_555
Li3 O7 2.254139 1_555
O0 P0 1.577367 1_555
O0 V2 2.290406 1_654
O0 V0 2.290864 1_645
O1 P1 1.577401 1_455
O1 V3 2.290475 1_556
O1 V1 2.291542 1_555
O2 P2 1.577709 1_655
O2 V1 2.288438 1_555
O2 V3 2.289525 1_555
O3 P3 1.577807 1_555
O3 V0 2.287619 1_555
O3 V2 2.290411 1_565
O4 P1 1.583251 1_555
O4 V2 2.179624 1_655
O4 V0 2.181553 1_645
O5 P0 1.582821 1_555
O5 V1 2.179430 1_555
O5 V3 2.181556 1_555
O6 P3 1.583537 1_555
O6 V3 2.179896 1_556
O6 V1 2.182112 1_555
O7 P2 1.583441 1_555
O7 V0 2.179819 1_555
O7 V2 2.181620 1_564
O8 P0 1.536866 1_555
O8 V2 2.121177 1_554
O9 P0 1.536880 1_555
O9 V0 2.121621 1_545
O10 P1 1.536912 1_555
O10 V3 2.122061 1_556
O11 P1 1.536806 1_555
O11 V1 2.122331 1_555
O12 P2 1.536933 1_555
O12 V3 2.123646 1_555
O13 P2 1.536814 1_555
O13 V1 2.123727 1_555
O14 P3 1.536905 1_555
O14 V0 2.124404 1_655
O15 P3 1.537005 1_555
O15 V2 2.124638 1_665
