# generated using pymatgen
data_KTa2PO8
_symmetry_space_group_name_H-M   'P 1'
_cell_length_a   8.43436271
_cell_length_b   8.43436271
_cell_length_c   8.43436345
_cell_angle_alpha   104.30972958
_cell_angle_beta   104.30972956
_cell_angle_gamma   104.30972809
_symmetry_Int_Tables_number   1
_chemical_formula_structural   KTa2PO8
_chemical_formula_sum   'K3 Ta6 P3 O24'
_cell_volume   532.12676874
_cell_formula_units_Z   3
loop_
 _symmetry_equiv_pos_site_id
 _symmetry_equiv_pos_as_xyz
  1  'x, y, z'
loop_
 _atom_site_type_symbol
 _atom_site_label
 _atom_site_symmetry_multiplicity
 _atom_site_fract_x
 _atom_site_fract_y
 _atom_site_fract_z
 _atom_site_occupancy
  K  K0  1  0.58934110  0.35145518  0.87090596  1
  K  K1  1  0.87090596  0.58934110  0.35145518  1
  K  K2  1  0.35145518  0.87090596  0.58934110  1
  Ta  Ta0  1  0.35498055  0.03980638  0.15816281  1
  Ta  Ta1  1  0.03980638  0.15816281  0.35498055  1
  Ta  Ta2  1  0.96825191  0.65215744  0.84389060  1
  Ta  Ta3  1  0.15816281  0.35498055  0.03980638  1
  Ta  Ta4  1  0.65215744  0.84389060  0.96825191  1
  Ta  Ta5  1  0.84389060  0.96825191  0.65215744  1
  P  P0  1  0.72634058  0.27078630  0.50183738  1
  P  P1  1  0.27078630  0.50183738  0.72634058  1
  P  P2  1  0.50183738  0.72634058  0.27078630  1
  O  O0  1  0.96997764  0.02044662  0.49653703  1
  O  O1  1  0.84832740  0.00098564  0.15334512  1
  O  O2  1  0.70445260  0.12809615  0.58508391  1
  O  O3  1  0.21230579  0.06569125  0.31460446  1
  O  O4  1  0.00098564  0.15334512  0.84832740  1
  O  O5  1  0.87331324  0.28641704  0.42508235  1
  O  O6  1  0.55909979  0.23210920  0.35521034  1
  O  O7  1  0.76533264  0.44342076  0.64116226  1
  O  O8  1  0.31460446  0.21230579  0.06569125  1
  O  O9  1  0.28641704  0.42508235  0.87331324  1
  O  O10  1  0.23210920  0.35521034  0.55909979  1
  O  O11  1  0.06569125  0.31460446  0.21230579  1
  O  O12  1  0.02044662  0.49653703  0.96997764  1
  O  O13  1  0.78883794  0.68343035  0.93119829  1
  O  O14  1  0.44342076  0.64116226  0.76533264  1
  O  O15  1  0.12809615  0.58508391  0.70445260  1
  O  O16  1  0.93119829  0.78883794  0.68343035  1
  O  O17  1  0.35521034  0.55909979  0.23210920  1
  O  O18  1  0.64116226  0.76533264  0.44342076  1
  O  O19  1  0.58508391  0.70445260  0.12809615  1
  O  O20  1  0.68343035  0.93119829  0.78883794  1
  O  O21  1  0.42508235  0.87331324  0.28641704  1
  O  O22  1  0.15334512  0.84832740  0.00098564  1
  O  O23  1  0.49653703  0.96997764  0.02044662  1
loop_
_geom_bond_atom_site_label_1
_geom_bond_atom_site_label_2
_geom_bond_distance
_geom_bond_site_symmetry_2
K0 O13 2.733870 1_555
K0 O9 2.778067 1_555
K0 O7 2.855796 1_555
K0 O2 3.181104 1_555
K0 O14 3.209160 1_555
K0 O19 3.235735 1_556
K0 O8 3.307070 1_556
K0 O12 3.348132 1_655
K1 O16 2.733870 1_555
K1 O5 2.778067 1_555
K1 O18 2.855796 1_555
K1 O19 3.181104 1_555
K1 O7 3.209160 1_555
K1 O15 3.235735 1_655
K1 O11 3.307070 1_655
K1 O0 3.348132 1_565
K2 O20 2.733870 1_555
K2 O21 2.778067 1_555
K2 O14 2.855796 1_555
K2 O15 3.181104 1_555
K2 O18 3.209160 1_555
K2 O2 3.235735 1_565
K2 O3 3.307070 1_565
K2 O23 3.348132 1_556
O0 Ta5 1.947251 1_545
O0 Ta1 1.953594 1_655
O1 Ta4 1.883426 1_544
O1 Ta1 1.930649 1_655
O2 P0 1.532137 1_555
O2 Ta5 2.086313 1_545
O3 Ta1 1.875004 1_555
O3 Ta0 2.002295 1_555
O4 Ta5 1.883426 1_445
O4 Ta3 1.930649 1_556
O5 P0 1.526841 1_555
O5 Ta1 2.082520 1_655
O6 P0 1.528508 1_555
O6 Ta0 2.056588 1_555
O7 P0 1.528268 1_555
O7 Ta2 2.127972 1_555
O8 Ta0 1.875004 1_555
O8 Ta3 2.002295 1_555
O9 P1 1.526841 1_555
O9 Ta3 2.082520 1_556
O10 P1 1.528508 1_555
O10 Ta1 2.056588 1_555
O11 Ta3 1.875005 1_555
O11 Ta1 2.002295 1_555
O12 Ta2 1.947251 1_455
O12 Ta3 1.953594 1_556
O13 Ta2 1.885172 1_555
O13 Ta4 1.999637 1_555
O14 P1 1.528268 1_555
O14 Ta4 2.127972 1_555
O15 P1 1.532137 1_555
O15 Ta2 2.086313 1_455
O16 Ta5 1.885172 1_555
O16 Ta2 1.999637 1_555
O17 P2 1.528508 1_555
O17 Ta3 2.056588 1_555
O18 P2 1.528269 1_555
O18 Ta5 2.127972 1_555
O19 P2 1.532137 1_555
O19 Ta4 2.086313 1_554
O20 Ta4 1.885172 1_555
O20 Ta5 1.999637 1_555
O21 P2 1.526841 1_555
O21 Ta0 2.082520 1_565
O22 Ta2 1.883426 1_454
O22 Ta0 1.930649 1_565
O23 Ta4 1.947251 1_554
O23 Ta0 1.953594 1_565
