# generated using pymatgen
data_BaYBr5
_symmetry_space_group_name_H-M   'P 1'
_cell_length_a   10.79210900
_cell_length_b   12.91324300
_cell_length_c   18.96767198
_cell_angle_alpha   51.01934937
_cell_angle_beta   90.00000000
_cell_angle_gamma   90.00000000
_symmetry_Int_Tables_number   1
_chemical_formula_structural   BaYBr5
_chemical_formula_sum   'Ba8 Y8 Br40'
_cell_volume   2054.83520730
_cell_formula_units_Z   8
loop_
 _symmetry_equiv_pos_site_id
 _symmetry_equiv_pos_as_xyz
  1  'x, y, z'
loop_
 _atom_site_type_symbol
 _atom_site_label
 _atom_site_symmetry_multiplicity
 _atom_site_fract_x
 _atom_site_fract_y
 _atom_site_fract_z
 _atom_site_occupancy
  Ba  Ba0  1  0.71733900  0.33224400  0.85750800  1
  Ba  Ba1  1  0.72988600  0.79157900  0.45648800  1
  Ba  Ba2  1  0.21733900  0.66775600  0.64249200  1
  Ba  Ba3  1  0.22988600  0.20842100  0.04351200  1
  Ba  Ba4  1  0.77011400  0.79157900  0.95648800  1
  Ba  Ba5  1  0.78266100  0.33224400  0.35750800  1
  Ba  Ba6  1  0.27011400  0.20842100  0.54351200  1
  Ba  Ba7  1  0.28266100  0.66775600  0.14249200  1
  Y  Y0  1  0.19508500  0.20732500  0.80996600  1
  Y  Y1  1  0.22038000  0.78535400  0.34014200  1
  Y  Y2  1  0.72038100  0.21464600  0.15985800  1
  Y  Y3  1  0.69508500  0.79267500  0.69003400  1
  Y  Y4  1  0.30491500  0.20732500  0.30996600  1
  Y  Y5  1  0.27962000  0.78535400  0.84014200  1
  Y  Y6  1  0.77962000  0.21464600  0.65985800  1
  Y  Y7  1  0.80491500  0.79267500  0.19003400  1
  Br  Br0  1  0.23021800  0.41254200  0.62866700  1
  Br  Br1  1  0.81513000  0.00835700  0.00514700  1
  Br  Br2  1  0.77957500  0.44685700  0.63770400  1
  Br  Br3  1  0.39917400  0.28690400  0.85479100  1
  Br  Br4  1  0.36337800  0.90045900  0.18609100  1
  Br  Br5  1  0.02358800  0.88922300  0.20914500  1
  Br  Br6  1  0.05192500  0.36766500  0.83057300  1
  Br  Br7  1  0.40970200  0.73089800  0.45636300  1
  Br  Br8  1  0.04194500  0.72512300  0.46819000  1
  Br  Br9  1  0.68194200  0.94050000  0.23216900  1
  Br  Br10  1  0.55192500  0.63233500  0.66942700  1
  Br  Br11  1  0.18194200  0.05950000  0.26783100  1
  Br  Br12  1  0.54194500  0.27487700  0.03181000  1
  Br  Br13  1  0.90970200  0.26910200  0.04363700  1
  Br  Br14  1  0.89917400  0.71309600  0.64520900  1
  Br  Br15  1  0.27957500  0.55314300  0.86229600  1
  Br  Br16  1  0.52358800  0.11077700  0.29085500  1
  Br  Br17  1  0.86337800  0.09954100  0.31390900  1
  Br  Br18  1  0.73021800  0.58745800  0.87133300  1
  Br  Br19  1  0.31513000  0.99164300  0.49485300  1
  Br  Br20  1  0.68487000  0.00835700  0.50514700  1
  Br  Br21  1  0.26978200  0.41254200  0.12866700  1
  Br  Br22  1  0.13662200  0.90045900  0.68609100  1
  Br  Br23  1  0.47641200  0.88922300  0.70914500  1
  Br  Br24  1  0.72042500  0.44685700  0.13770400  1
  Br  Br25  1  0.10082600  0.28690400  0.35479100  1
  Br  Br26  1  0.09029800  0.73089800  0.95636300  1
  Br  Br27  1  0.45805500  0.72512300  0.96819000  1
  Br  Br28  1  0.81805800  0.94050000  0.73216900  1
  Br  Br29  1  0.44807500  0.36766500  0.33057300  1
  Br  Br30  1  0.31805800  0.05950000  0.76783100  1
  Br  Br31  1  0.95805500  0.27487700  0.53181000  1
  Br  Br32  1  0.59029800  0.26910200  0.54363700  1
  Br  Br33  1  0.94807500  0.63233500  0.16942700  1
  Br  Br34  1  0.97641200  0.11077700  0.79085500  1
  Br  Br35  1  0.63662200  0.09954100  0.81390900  1
  Br  Br36  1  0.60082600  0.71309600  0.14520900  1
  Br  Br37  1  0.22042500  0.55314300  0.36229600  1
  Br  Br38  1  0.18487000  0.99164300  0.99485300  1
  Br  Br39  1  0.76978200  0.58745800  0.37133300  1
loop_
_geom_bond_atom_site_label_1
_geom_bond_atom_site_label_2
_geom_bond_distance
_geom_bond_site_symmetry_2
Ba0 Br1 3.422443 1_556
Ba0 Br12 3.461322 1_556
Ba0 Br18 3.469381 1_555
Ba0 Br3 3.489056 1_555
Ba0 Br2 3.501486 1_555
Ba0 Br6 3.635209 1_655
Ba0 Br10 3.679350 1_555
Ba0 Br35 3.687664 1_555
Ba0 Br13 3.717117 1_556
Ba1 Br17 3.416622 1_565
Ba1 Br9 3.431482 1_555
Ba1 Br8 3.447894 1_655
Ba1 Br20 3.489192 1_565
Ba1 Br7 3.543524 1_555
Ba1 Br14 3.551657 1_555
Ba1 Br2 3.559168 1_555
Ba1 Br10 3.712285 1_555
Ba1 Br39 3.885659 1_555
Ba1 Br16 3.940143 1_565
Ba2 Br19 3.422443 1_555
Ba2 Br8 3.461322 1_555
Ba2 Br0 3.469381 1_555
Ba2 Br14 3.489056 1_455
Ba2 Br15 3.501486 1_555
Ba2 Br10 3.635209 1_555
Ba2 Br6 3.679350 1_555
Ba2 Br22 3.687664 1_555
Ba2 Br7 3.717117 1_555
Ba3 Br4 3.416622 1_545
Ba3 Br11 3.431482 1_555
Ba3 Br12 3.447894 1_555
Ba3 Br38 3.489192 1_544
Ba3 Br13 3.543524 1_455
Ba3 Br3 3.551657 1_554
Ba3 Br15 3.559168 1_554
Ba3 Br6 3.712285 1_554
Ba3 Br21 3.885659 1_555
Ba3 Br5 3.940143 1_545
Ba4 Br35 3.416622 1_565
Ba4 Br28 3.431482 1_555
Ba4 Br27 3.447894 1_555
Ba4 Br1 3.489192 1_566
Ba4 Br26 3.543524 1_655
Ba4 Br36 3.551657 1_556
Ba4 Br24 3.559168 1_556
Ba4 Br33 3.712285 1_556
Ba4 Br18 3.885659 1_555
Ba4 Br34 3.940143 1_565
Ba5 Br20 3.422443 1_555
Ba5 Br31 3.461322 1_555
Ba5 Br39 3.469381 1_555
Ba5 Br25 3.489056 1_655
Ba5 Br24 3.501486 1_555
Ba5 Br29 3.635209 1_555
Ba5 Br33 3.679350 1_555
Ba5 Br17 3.687664 1_555
Ba5 Br32 3.717117 1_555
Ba6 Br22 3.416622 1_545
Ba6 Br30 3.431482 1_555
Ba6 Br31 3.447894 1_455
Ba6 Br19 3.489192 1_545
Ba6 Br32 3.543524 1_555
Ba6 Br25 3.551657 1_555
Ba6 Br37 3.559168 1_555
Ba6 Br29 3.712285 1_555
Ba6 Br0 3.885659 1_555
Ba6 Br23 3.940143 1_545
Ba7 Br38 3.422443 1_554
Ba7 Br27 3.461322 1_554
Ba7 Br21 3.469381 1_555
Ba7 Br36 3.489056 1_555
Ba7 Br37 3.501486 1_555
Ba7 Br33 3.635209 1_455
Ba7 Br29 3.679350 1_555
Ba7 Br4 3.687664 1_555
Ba7 Br26 3.717117 1_554
Br0 Y0 2.743485 1_555
Br1 Y7 2.789114 1_545
Br2 Y6 2.753704 1_555
Br3 Y0 2.780171 1_555
Br4 Y1 2.768526 1_555
Br5 Y7 2.797087 1_455
Br5 Y1 2.879310 1_555
Br6 Y0 2.800891 1_555
Br7 Y1 2.752883 1_555
Br8 Y1 2.799200 1_555
Br9 Y7 2.821932 1_555
Br9 Y2 2.911512 1_565
Br10 Y3 2.800891 1_555
Br11 Y4 2.821932 1_555
Br11 Y1 2.911510 1_545
Br12 Y2 2.799207 1_555
Br13 Y2 2.752875 1_555
Br14 Y3 2.780171 1_555
Br15 Y5 2.753704 1_555
Br16 Y4 2.797087 1_555
Br16 Y2 2.879318 1_555
Br17 Y2 2.768520 1_555
Br18 Y3 2.743485 1_555
Br19 Y4 2.789114 1_565
Br20 Y3 2.789114 1_545
Br21 Y4 2.743485 1_555
Br22 Y5 2.768526 1_555
Br23 Y3 2.797087 1_555
Br23 Y5 2.879310 1_555
Br24 Y2 2.753704 1_555
Br25 Y4 2.780171 1_555
Br26 Y5 2.752883 1_555
Br27 Y5 2.799200 1_555
Br28 Y3 2.821932 1_555
Br28 Y6 2.911510 1_565
Br29 Y4 2.800891 1_555
Br30 Y0 2.821932 1_555
Br30 Y5 2.911510 1_545
Br31 Y6 2.799200 1_555
Br32 Y6 2.752883 1_555
Br33 Y7 2.800891 1_555
Br34 Y0 2.797087 1_655
Br34 Y6 2.879310 1_555
Br35 Y6 2.768526 1_555
Br36 Y7 2.780171 1_555
Br37 Y1 2.753704 1_555
Br38 Y0 2.789114 1_565
Br39 Y7 2.743485 1_555
