# generated using pymatgen
data_La19(RuO6)8
_symmetry_space_group_name_H-M   'P 1'
_cell_length_a   5.61978600
_cell_length_b   10.20279386
_cell_length_c   19.14246991
_cell_angle_alpha   90.57022841
_cell_angle_beta   91.32157529
_cell_angle_gamma   90.03455899
_symmetry_Int_Tables_number   1
_chemical_formula_structural   La19(RuO6)8
_chemical_formula_sum   'La19 Ru8 O48'
_cell_volume   1097.23502936
_cell_formula_units_Z   1
loop_
 _symmetry_equiv_pos_site_id
 _symmetry_equiv_pos_as_xyz
  1  'x, y, z'
loop_
 _atom_site_type_symbol
 _atom_site_label
 _atom_site_symmetry_multiplicity
 _atom_site_fract_x
 _atom_site_fract_y
 _atom_site_fract_z
 _atom_site_occupancy
  La  La0  1  0.21869000  0.33923100  0.64904900  1
  La  La1  1  0.20256900  0.14412200  0.16319200  1
  La  La2  1  0.24336200  0.07182600  0.94946500  1
  La  La3  1  0.24303300  0.72038900  0.67456300  1
  La  La4  1  0.24154000  0.41116300  0.45279600  1
  La  La5  1  0.27138100  0.48027100  0.83707500  1
  La  La6  1  0.24256700  0.77957600  0.17772000  1
  La  La7  1  0.26452100  0.02547100  0.34896200  1
  La  La8  1  0.25807800  0.40619200  0.03438700  1
  La  La9  1  0.74153600  0.59436800  0.96472800  1
  La  La10  1  0.72682100  0.98641500  0.65494000  1
  La  La11  1  0.75747200  0.22100700  0.82238200  1
  La  La12  1  0.73913900  0.92191600  0.47115400  1
  La  La13  1  0.72850300  0.51932300  0.16092500  1
  La  La14  1  0.74957200  0.57392500  0.54805400  1
  La  La15  1  0.75640500  0.27929000  0.32550800  1
  La  La16  1  0.75608700  0.92757300  0.04995900  1
  La  La17  1  0.80157100  0.85521000  0.83568600  1
  La  La18  1  0.79304800  0.64783800  0.34521600  1
  Ru  Ru0  1  0.23808000  0.08732900  0.74858200  1
  Ru  Ru1  1  0.23662000  0.41323100  0.24966200  1
  Ru  Ru2  1  0.25096300  0.75002600  0.50607000  1
  Ru  Ru3  1  0.25017000  0.75024200  0.00732300  1
  Ru  Ru4  1  0.74928400  0.24951300  0.99301200  1
  Ru  Ru5  1  0.74659700  0.24874400  0.49367000  1
  Ru  Ru6  1  0.76200300  0.58661300  0.74951900  1
  Ru  Ru7  1  0.76307800  0.91240700  0.25255100  1
  O  O0  1  0.02392800  0.86171600  0.95130900  1
  O  O1  1  0.03118900  0.28981500  0.93348500  1
  O  O2  1  0.02958200  0.63191700  0.45157500  1
  O  O3  1  0.01644400  0.21458300  0.42664600  1
  O  O4  1  0.05499600  0.67450600  0.78917100  1
  O  O5  1  0.06420500  0.05010800  0.83787600  1
  O  O6  1  0.05283400  0.82524400  0.28984400  1
  O  O7  1  0.07047600  0.45177700  0.33638400  1
  O  O8  1  0.09408400  0.92328400  0.71594300  1
  O  O9  1  0.10330500  0.57613200  0.21363200  1
  O  O10  1  0.16982600  0.58658300  0.95003800  1
  O  O11  1  0.16402200  0.89930700  0.44732000  1
  O  O12  1  0.32264400  0.58992000  0.56444400  1
  O  O13  1  0.34451800  0.26273500  0.78661700  1
  O  O14  1  0.32747400  0.90953200  0.06608400  1
  O  O15  1  0.34332400  0.23755100  0.28375400  1
  O  O16  1  0.38972000  0.12714900  0.66235300  1
  O  O17  1  0.37750800  0.37360700  0.15633400  1
  O  O18  1  0.44789100  0.51287900  0.71776800  1
  O  O19  1  0.46727600  0.85225700  0.56877500  1
  O  O20  1  0.44970000  0.98636300  0.21966200  1
  O  O21  1  0.48823300  0.31617100  0.55036500  1
  O  O22  1  0.45687500  0.62579900  0.06642600  1
  O  O23  1  0.46916600  0.19571400  0.04715600  1
  O  O24  1  0.52959700  0.80485100  0.95329400  1
  O  O25  1  0.54350200  0.37430200  0.93412800  1
  O  O26  1  0.53564600  0.69998300  0.45165900  1
  O  O27  1  0.55056200  0.01281200  0.78208300  1
  O  O28  1  0.55946600  0.13580900  0.42656400  1
  O  O29  1  0.55237600  0.48724900  0.28098100  1
  O  O30  1  0.62227100  0.62633000  0.84353000  1
  O  O31  1  0.62312700  0.87696200  0.34451600  1
  O  O32  1  0.65365300  0.76290100  0.71659700  1
  O  O33  1  0.67204000  0.09072800  0.93464800  1
  O  O34  1  0.65381300  0.73699600  0.21579900  1
  O  O35  1  0.66982200  0.41069500  0.43419900  1
  O  O36  1  0.81605200  0.09594400  0.54981100  1
  O  O37  1  0.83055600  0.41375100  0.04990800  1
  O  O38  1  0.89253300  0.42472200  0.78718500  1
  O  O39  1  0.90476900  0.07658900  0.28465000  1
  O  O40  1  0.93084100  0.54920100  0.66326500  1
  O  O41  1  0.94764700  0.17507100  0.71021400  1
  O  O42  1  0.93196800  0.94922700  0.16329700  1
  O  O43  1  0.94617800  0.32510400  0.21015800  1
  O  O44  1  0.97037900  0.78874500  0.56663900  1
  O  O45  1  0.97028300  0.36636400  0.54741900  1
  O  O46  1  0.96770500  0.70990100  0.06690800  1
  O  O47  1  0.97502500  0.13736900  0.04901200  1
loop_
_geom_bond_atom_site_label_1
_geom_bond_atom_site_label_2
_geom_bond_distance
_geom_bond_site_symmetry_2
La0 O16 2.381809 1_555
La0 O45 2.386654 1_455
La0 O21 2.458049 1_555
La0 O18 2.530043 1_555
La0 O41 2.571870 1_455
La0 O40 2.700573 1_455
La0 O13 2.828355 1_555
La1 O20 2.378271 1_545
La1 O42 2.502637 1_445
La1 O47 2.507019 1_455
La1 O43 2.514743 1_455
La1 O17 2.544632 1_555
La1 O15 2.594542 1_555
La1 O23 2.762492 1_555
La1 O39 2.981817 1_455
La1 O14 3.106534 1_545
La2 O5 2.348782 1_555
La2 O33 2.439948 1_555
La2 O0 2.473413 1_545
La2 O47 2.541823 1_456
La2 O1 2.542014 1_555
La2 O23 2.558636 1_556
La2 O14 2.823939 1_546
La2 O24 3.164854 1_545
La3 O8 2.369273 1_555
La3 O32 2.463081 1_555
La3 O40 2.479265 1_455
La3 O4 2.505138 1_555
La3 O12 2.530601 1_555
La3 O18 2.546711 1_555
La3 O44 2.643148 1_455
La3 O19 2.769289 1_555
La4 O3 2.412720 1_555
La4 O45 2.440617 1_455
La4 O35 2.441147 1_555
La4 O7 2.445763 1_555
La4 O21 2.503572 1_555
La4 O2 2.548587 1_555
La4 O12 2.824579 1_555
La5 O38 2.379093 1_455
La5 O13 2.450447 1_555
La5 O30 2.471040 1_555
La5 O10 2.487804 1_555
La5 O4 2.496912 1_555
La5 O18 2.535696 1_555
La5 O25 2.621080 1_555
La5 O1 3.031021 1_555
La6 O9 2.333422 1_555
La6 O34 2.447677 1_555
La6 O6 2.459065 1_555
La6 O42 2.471839 1_455
La6 O20 2.524102 1_555
La6 O14 2.579752 1_555
La6 O46 2.684850 1_455
La6 O22 2.916334 1_555
La7 O11 2.370092 1_545
La7 O39 2.402962 1_455
La7 O28 2.464204 1_555
La7 O31 2.524582 1_545
La7 O15 2.552332 1_555
La7 O6 2.599651 1_545
La7 O20 2.732779 1_545
La7 O3 2.814179 1_555
La8 O37 2.428851 1_455
La8 O17 2.440023 1_555
La8 O23 2.465507 1_555
La8 O10 2.502756 1_554
La8 O25 2.547999 1_554
La8 O22 2.565659 1_555
La8 O1 2.570080 1_554
La9 O30 2.425221 1_555
La9 O10 2.430956 1_655
La9 O24 2.465511 1_555
La9 O37 2.515588 1_556
La9 O25 2.561979 1_555
La9 O22 2.565867 1_556
La9 O46 2.582332 1_556
La10 O36 2.375032 1_565
La10 O16 2.383778 1_565
La10 O8 2.437983 1_655
La10 O41 2.502107 1_565
La10 O19 2.561892 1_555
La10 O32 2.614855 1_555
La10 O27 2.660021 1_565
La10 O44 2.973246 1_555
La11 O38 2.323707 1_555
La11 O13 2.443233 1_555
La11 O41 2.461431 1_555
La11 O5 2.467794 1_655
La11 O27 2.526322 1_555
La11 O33 2.592180 1_555
La11 O1 2.683337 1_655
La11 O25 2.919278 1_555
La12 O36 2.349983 1_565
La12 O11 2.451845 1_655
La12 O31 2.533100 1_555
La12 O19 2.547197 1_555
La12 O28 2.551578 1_565
La12 O26 2.556296 1_555
La12 O44 2.611087 1_555
La13 O9 2.383129 1_655
La13 O37 2.452906 1_555
La13 O17 2.468748 1_555
La13 O34 2.487343 1_555
La13 O43 2.509619 1_555
La13 O29 2.547130 1_555
La13 O22 2.587732 1_555
La13 O46 3.000821 1_555
La14 O40 2.423429 1_555
La14 O12 2.432204 1_555
La14 O45 2.454919 1_555
La14 O2 2.528204 1_655
La14 O44 2.535949 1_555
La14 O26 2.539916 1_555
La14 O35 2.757951 1_555
La15 O39 2.363042 1_555
La15 O15 2.472986 1_555
La15 O3 2.493141 1_655
La15 O7 2.495534 1_655
La15 O35 2.520942 1_555
La15 O43 2.521920 1_555
La15 O29 2.556742 1_555
La15 O28 2.695040 1_555
La16 O42 2.371515 1_555
La16 O14 2.442530 1_555
La16 O47 2.468717 1_565
La16 O0 2.527902 1_654
La16 O46 2.539987 1_555
La16 O24 2.540705 1_554
La16 O33 2.809349 1_564
La17 O27 2.365824 1_565
La17 O5 2.475131 1_665
La17 O4 2.499865 1_655
La17 O0 2.516752 1_655
La17 O30 2.549943 1_555
La17 O32 2.577549 1_555
La17 O24 2.801659 1_555
La17 O8 2.939875 1_655
La17 O33 3.141305 1_565
La18 O2 2.412580 1_655
La18 O29 2.430295 1_555
La18 O31 2.525795 1_555
La18 O7 2.543620 1_655
La18 O6 2.576345 1_655
La18 O26 2.577322 1_555
La18 O34 2.744696 1_555
La18 O35 3.060961 1_555
La18 O9 3.176054 1_655
O0 Ru3 2.005727 1_556
O1 Ru4 2.017219 1_455
O2 Ru2 2.000363 1_555
O3 Ru5 2.036856 1_455
O4 Ru6 2.004614 1_455
O5 Ru0 2.027380 1_555
O6 Ru7 1.978088 1_455
O7 Ru1 1.959908 1_555
O8 Ru0 1.949557 1_565
O9 Ru1 1.949326 1_555
O10 Ru3 2.033301 1_556
O11 Ru2 1.957784 1_555
O12 Ru2 2.023780 1_555
O13 Ru0 2.010812 1_555
O14 Ru3 2.008851 1_555
O15 Ru1 2.001200 1_555
O16 Ru0 1.921898 1_555
O17 Ru1 2.008299 1_555
O18 Ru6 1.997810 1_555
O19 Ru2 1.978062 1_555
O20 Ru7 2.006782 1_555
O21 Ru5 1.954046 1_555
O22 Ru3 2.052125 1_555
O23 Ru4 1.984736 1_554
O24 Ru3 1.982760 1_556
O25 Ru4 2.049187 1_555
O26 Ru2 1.993075 1_555
O27 Ru0 2.008102 1_555
O28 Ru5 1.997628 1_555
O29 Ru1 2.004700 1_555
O30 Ru6 2.017541 1_555
O31 Ru7 1.981083 1_555
O32 Ru6 2.002293 1_555
O33 Ru4 2.000490 1_555
O34 Ru7 2.007149 1_555
O35 Ru5 2.056228 1_555
O36 Ru5 1.937126 1_555
O37 Ru4 2.035322 1_554
O38 Ru6 1.946017 1_555
O39 Ru7 1.942408 1_545
O40 Ru6 1.957632 1_555
O41 Ru0 1.991073 1_655
O42 Ru7 2.012021 1_555
O43 Ru1 1.993040 1_655
O44 Ru2 2.015613 1_655
O45 Ru5 1.998224 1_555
O46 Ru3 2.020464 1_655
O47 Ru4 2.007763 1_554
