# generated using pymatgen
data_Li2MnNi3O8
_symmetry_space_group_name_H-M   'P 1'
_cell_length_a   5.73765597
_cell_length_b   5.86597992
_cell_length_c   5.74210402
_cell_angle_alpha   60.96046378
_cell_angle_beta   60.02622538
_cell_angle_gamma   60.72075930
_symmetry_Int_Tables_number   1
_chemical_formula_structural   Li2MnNi3O8
_chemical_formula_sum   'Li2 Mn1 Ni3 O8'
_cell_volume   138.39430787
_cell_formula_units_Z   1
loop_
 _symmetry_equiv_pos_site_id
 _symmetry_equiv_pos_as_xyz
  1  'x, y, z'
loop_
 _atom_site_type_symbol
 _atom_site_label
 _atom_site_symmetry_multiplicity
 _atom_site_fract_x
 _atom_site_fract_y
 _atom_site_fract_z
 _atom_site_occupancy
  Li  Li0  1  0.00000000  0.50000000  0.00000000  1
  Li  Li1  1  0.50000000  0.49999900  0.00000000  1
  Mn  Mn0  1  0.99999900  0.00000400  0.49999500  1
  Ni  Ni0  1  0.50000000  0.00000000  0.50000000  1
  Ni  Ni1  1  0.00000000  0.00000000  0.00000100  1
  Ni  Ni2  1  0.50000000  0.00000000  0.00000100  1
  O  O0  1  0.74684400  0.79563100  0.21069100  1
  O  O1  1  0.25315600  0.20436800  0.78931000  1
  O  O2  1  0.23962800  0.79740900  0.22333600  1
  O  O3  1  0.76037200  0.20259100  0.77666500  1
  O  O4  1  0.74238400  0.78666400  0.75411300  1
  O  O5  1  0.21684700  0.78665300  0.75412100  1
  O  O6  1  0.78315400  0.21334800  0.24588000  1
  O  O7  1  0.25761600  0.21333600  0.24588700  1
loop_
_geom_bond_atom_site_label_1
_geom_bond_atom_site_label_2
_geom_bond_distance
_geom_bond_site_symmetry_2
Li0 O6 2.086893 1_455
Li0 O7 2.086894 1_555
Li0 O4 2.086894 1_454
Li0 O5 2.086901 1_554
Li0 O0 2.097112 1_455
Li0 O1 2.097113 1_554
Li1 O3 2.151371 1_554
Li1 O2 2.151383 1_555
Li1 O5 2.185248 1_554
Li1 O6 2.185254 1_555
Li1 O7 2.185338 1_555
Li1 O4 2.185347 1_554
Mn0 O7 1.939439 1_655
Mn0 O6 1.939456 1_555
Mn0 O4 1.939464 1_545
Mn0 O5 1.939515 1_645
Mn0 O2 1.969399 1_645
Mn0 O3 1.969416 1_555
Ni0 O0 2.030894 1_545
Ni0 O1 2.030894 1_555
Ni0 O4 2.044956 1_545
Ni0 O7 2.044956 1_555
Ni0 O5 2.044993 1_545
Ni0 O6 2.045001 1_555
Ni1 O5 1.882741 1_544
Ni1 O6 1.882741 1_455
Ni1 O1 1.884130 1_554
Ni1 O0 1.884135 1_445
Ni1 O2 1.905589 1_545
Ni1 O3 1.905593 1_454
Ni2 O7 1.882724 1_555
Ni2 O4 1.882732 1_544
Ni2 O0 1.884149 1_545
Ni2 O1 1.884153 1_554
Ni2 O3 1.905614 1_554
Ni2 O2 1.905614 1_545
