# generated using pymatgen
data_Li9V6(P8O29)2
_symmetry_space_group_name_H-M   'P 1'
_cell_length_a   9.77913600
_cell_length_b   9.79751839
_cell_length_c   14.03941908
_cell_angle_alpha   89.79821584
_cell_angle_beta   89.77954033
_cell_angle_gamma   60.20313042
_symmetry_Int_Tables_number   1
_chemical_formula_structural   Li9V6(P8O29)2
_chemical_formula_sum   'Li9 V6 P16 O58'
_cell_volume   1167.28712107
_cell_formula_units_Z   1
loop_
 _symmetry_equiv_pos_site_id
 _symmetry_equiv_pos_as_xyz
  1  'x, y, z'
loop_
 _atom_site_type_symbol
 _atom_site_label
 _atom_site_symmetry_multiplicity
 _atom_site_fract_x
 _atom_site_fract_y
 _atom_site_fract_z
 _atom_site_occupancy
  Li  Li0  1  0.90240800  0.76841800  0.43779600  1
  Li  Li1  1  0.31857800  0.91175600  0.43552600  1
  Li  Li2  1  0.66471700  0.67489800  0.11475800  1
  Li  Li3  1  0.31907100  0.76793300  0.94360000  1
  Li  Li4  1  0.91030000  0.32214800  0.94074900  1
  Li  Li5  1  0.22724900  0.68430000  0.55780600  1
  Li  Li6  1  0.77065400  0.32664100  0.43692200  1
  Li  Li7  1  0.67962600  0.09262400  0.56069200  1
  Li  Li8  1  0.97318100  0.98131600  0.00402300  1
  V  V0  1  0.43775100  0.56434200  0.75343100  1
  V  V1  1  0.56902900  0.43053900  0.24839000  1
  V  V2  1  0.00713100  0.56434800  0.24521400  1
  V  V3  1  0.00346900  0.43255300  0.75107000  1
  V  V4  1  0.56746500  0.99683900  0.75418600  1
  V  V5  1  0.42948000  0.00437000  0.24796200  1
  P  P0  1  0.77796300  0.91330100  0.15819100  1
  P  P1  1  0.91307700  0.76887500  0.65833000  1
  P  P2  1  0.31974200  0.91237300  0.65595800  1
  P  P3  1  0.66924600  0.66374000  0.87281200  1
  P  P4  1  0.66760200  0.66666000  0.37146300  1
  P  P5  1  0.31744500  0.77424000  0.15709100  1
  P  P6  1  0.23211100  0.68040500  0.34035300  1
  P  P7  1  0.91183000  0.31570300  0.15540300  1
  P  P8  1  0.08389800  0.69132500  0.84306900  1
  P  P9  1  0.77095500  0.31977700  0.65826600  1
  P  P10  1  0.69029000  0.22233100  0.84100800  1
  P  P11  1  0.33600500  0.33536200  0.63133100  1
  P  P12  1  0.33653000  0.33066900  0.12678600  1
  P  P13  1  0.68264100  0.08534100  0.34324400  1
  P  P14  1  0.08360900  0.22959400  0.34000700  1
  P  P15  1  0.22499200  0.08309700  0.84015400  1
  O  O0  1  0.75684100  0.99843600  0.43451000  1
  O  O1  1  0.74906700  0.91637400  0.66045800  1
  O  O2  1  0.00416300  0.78825700  0.92682100  1
  O  O3  1  0.91878900  0.74026600  0.16740200  1
  O  O4  1  0.62729800  0.89948700  0.16597300  1
  O  O5  1  0.67621000  0.80398900  0.82931500  1
  O  O6  1  0.47931100  0.90386900  0.67794400  1
  O  O7  1  0.21112600  0.99273700  0.92128600  1
  O  O8  1  0.34152400  0.91855100  0.16553400  1
  O  O9  1  0.81741000  0.66802500  0.32845400  1
  O  O10  1  0.90349500  0.61777400  0.68020500  1
  O  O11  1  0.51442800  0.81395300  0.33228900  1
  O  O12  1  0.66027000  0.65936400  0.97934000  1
  O  O13  1  0.67091800  0.66716300  0.47819900  1
  O  O14  1  0.51378800  0.66773300  0.83236800  1
  O  O15  1  0.89790900  0.48121500  0.17071900  1
  O  O16  1  0.81529900  0.50777700  0.83454500  1
  O  O17  1  0.34159400  0.74255200  0.66617800  1
  O  O18  1  0.20986500  0.78894500  0.24878100  1
  O  O19  1  0.23861800  0.75983100  0.43024900  1
  O  O20  1  0.23316400  0.77835200  0.06786700  1
  O  O21  1  0.48242900  0.62724700  0.17046900  1
  O  O22  1  0.67203700  0.51282000  0.33319700  1
  O  O23  1  0.25945100  0.65439100  0.83701400  1
  O  O24  1  0.61869600  0.47976300  0.67955700  1
  O  O25  1  0.91364400  0.34531400  0.66705400  1
  O  O26  1  0.00876500  0.78749900  0.74509400  1
  O  O27  1  0.00109300  0.75325800  0.56745500  1
  O  O28  1  0.98892000  0.23729700  0.42447100  1
  O  O29  1  0.08313100  0.66158000  0.33979900  1
  O  O30  1  0.38225600  0.52215300  0.32415900  1
  O  O31  1  0.74246600  0.34258200  0.16485600  1
  O  O32  1  0.33483800  0.48610600  0.67566300  1
  O  O33  1  0.53280300  0.38145200  0.82679600  1
  O  O34  1  0.78724900  0.21812000  0.92302000  1
  O  O35  1  0.75596300  0.25017200  0.56741400  1
  O  O36  1  0.78849900  0.20420200  0.74381000  1
  O  O37  1  0.66633400  0.25019000  0.34177400  1
  O  O38  1  0.18223300  0.48194100  0.17430700  1
  O  O39  1  0.08136900  0.53441900  0.82975000  1
  O  O40  1  0.47938000  0.33542700  0.17051100  1
  O  O41  1  0.32194600  0.34536000  0.02143600  1
  O  O42  1  0.32625100  0.34970800  0.52599800  1
  O  O43  1  0.48553300  0.18644000  0.66788700  1
  O  O44  1  0.08897500  0.38314400  0.32047400  1
  O  O45  1  0.18511600  0.34028700  0.67959100  1
  O  O46  1  0.65525700  0.08626900  0.83601800  1
  O  O47  1  0.79579100  0.99230800  0.25553200  1
  O  O48  1  0.79633500  0.99549400  0.07500600  1
  O  O49  1  0.52412000  0.09337500  0.32306000  1
  O  O50  1  0.32594100  0.19194600  0.17202900  1
  O  O51  1  0.37659200  0.09087300  0.82992600  1
  O  O52  1  0.08101400  0.25596900  0.83661800  1
  O  O53  1  0.98660700  0.24005400  0.06369200  1
  O  O54  1  0.00704500  0.20608500  0.24320600  1
  O  O55  1  0.25157400  0.08477200  0.34071100  1
  O  O56  1  0.25047500  0.98414600  0.56313200  1
  O  O57  1  0.20296600  0.00823500  0.74196900  1
loop_
_geom_bond_atom_site_label_1
_geom_bond_atom_site_label_2
_geom_bond_distance
_geom_bond_site_symmetry_2
Li0 O0 1.979575 1_555
Li0 O27 2.033758 1_655
Li0 O29 2.065148 1_655
Li0 O9 2.201797 1_555
Li1 O56 1.920003 1_555
Li1 O55 1.990397 1_565
Li1 O19 1.997621 1_555
Li1 O11 2.202622 1_555
Li2 O12 1.910191 1_554
Li2 O4 2.168320 1_555
Li2 O21 2.195739 1_555
Li2 O15 2.262970 1_555
Li3 O20 1.914336 1_556
Li3 O7 1.936628 1_555
Li3 O23 2.116528 1_555
Li3 O14 2.271202 1_555
Li4 O53 1.893842 1_556
Li4 O34 1.942105 1_555
Li4 O52 2.063200 1_655
Li4 O16 2.169401 1_555
Li5 O19 1.959067 1_555
Li5 O27 1.969607 1_555
Li5 O17 2.131773 1_555
Li5 O32 2.361299 1_555
Li6 O28 1.869220 1_555
Li6 O35 2.008375 1_555
Li6 O37 2.040383 1_555
Li6 O22 2.149829 1_555
Li7 O0 1.966909 1_545
Li7 O35 2.023760 1_555
Li7 O1 2.056628 1_545
Li7 O43 2.228508 1_555
Li8 O48 1.937064 1_555
Li8 O2 2.070434 1_654
Li8 O34 2.405602 1_564
Li8 O20 2.490367 1_655
O0 P13 1.509541 1_565
O1 P1 1.535603 1_555
O1 V4 2.026031 1_555
O2 P8 1.468787 1_555
O3 P0 1.570617 1_555
O3 V2 1.850558 1_655
O4 P0 1.548524 1_555
O4 V5 2.034385 1_565
O5 P3 1.533773 1_555
O5 V4 1.952202 1_555
O6 P2 1.552909 1_555
O6 V4 1.874295 1_555
O7 P15 1.486806 1_565
O8 P5 1.549471 1_555
O8 V5 1.875975 1_565
O9 P4 1.588581 1_555
O9 V2 1.989566 1_655
O10 P1 1.558580 1_555
O10 V3 1.862879 1_655
O11 P4 1.575170 1_555
O11 V5 2.005984 1_565
O12 P3 1.499538 1_555
O13 P4 1.499065 1_555
O14 P3 1.607004 1_555
O14 V0 1.889455 1_555
O15 P7 1.573915 1_555
O15 V2 1.943524 1_655
O16 P3 1.579352 1_555
O16 V3 1.986043 1_655
O17 P2 1.574724 1_555
O17 V0 1.948187 1_555
O18 P6 1.610468 1_555
O18 P5 1.620144 1_555
O19 P6 1.503071 1_555
O20 P5 1.491526 1_555
O21 P5 1.550343 1_555
O21 V1 1.999606 1_555
O22 P4 1.582043 1_555
O22 V1 1.976176 1_555
O23 P8 1.570703 1_555
O23 V0 1.912661 1_555
O24 P9 1.563211 1_555
O24 V0 1.851506 1_555
O25 P9 1.540588 1_555
O25 V3 1.911734 1_655
O26 P1 1.603981 1_455
O26 P8 1.621827 1_555
O27 P1 1.501345 1_455
O28 P14 1.480553 1_655
O29 P6 1.556848 1_555
O29 V2 1.985801 1_555
O30 P6 1.532612 1_555
O30 V1 1.906747 1_555
O31 P7 1.547626 1_555
O31 V1 1.879853 1_555
O32 P11 1.599518 1_555
O32 V0 1.890368 1_555
O33 P10 1.567189 1_555
O33 V0 1.864063 1_555
O34 P10 1.481773 1_555
O35 P9 1.490106 1_555
O36 P9 1.597795 1_555
O36 P10 1.624236 1_555
O37 P13 1.542159 1_555
O37 V1 2.017119 1_555
O38 P12 1.641678 1_555
O38 V2 1.787044 1_555
O39 P8 1.561628 1_555
O39 V3 1.888506 1_555
O40 P12 1.549840 1_555
O40 V1 1.912827 1_555
O41 P12 1.486061 1_555
O42 P11 1.483928 1_555
O43 P11 1.552595 1_555
O43 V4 2.018180 1_545
O44 P14 1.554556 1_555
O44 V2 1.868146 1_555
O45 P11 1.600142 1_555
O45 V3 1.837503 1_555
O46 P10 1.534304 1_555
O46 V4 1.893935 1_545
O47 P13 1.602072 1_565
O47 P0 1.624998 1_555
O48 P0 1.476562 1_555
O49 P13 1.539988 1_555
O49 V5 1.882732 1_555
O50 P12 1.547494 1_555
O50 V5 1.919443 1_555
O51 P15 1.528011 1_555
O51 V4 1.935488 1_545
O52 P15 1.575891 1_555
O52 V3 1.923338 1_555
O53 P7 1.484158 1_555
O54 P7 1.595503 1_455
O54 P14 1.625435 1_555
O55 P14 1.547606 1_555
O55 V5 1.992644 1_555
O56 P2 1.476025 1_555
O57 P2 1.604927 1_545
O57 P15 1.628169 1_555
