# generated using pymatgen
data_Hf2N2O
_symmetry_space_group_name_H-M   'P 1'
_cell_length_a   5.40878100
_cell_length_b   6.45938246
_cell_length_c   6.98163639
_cell_angle_alpha   76.71876441
_cell_angle_beta   89.68563485
_cell_angle_gamma   89.91292157
_symmetry_Int_Tables_number   1
_chemical_formula_structural   Hf2N2O
_chemical_formula_sum   'Hf8 N8 O4'
_cell_volume   237.39268950
_cell_formula_units_Z   4
loop_
 _symmetry_equiv_pos_site_id
 _symmetry_equiv_pos_as_xyz
  1  'x, y, z'
loop_
 _atom_site_type_symbol
 _atom_site_label
 _atom_site_symmetry_multiplicity
 _atom_site_fract_x
 _atom_site_fract_y
 _atom_site_fract_z
 _atom_site_occupancy
  Hf  Hf0  1  0.71127000  0.86972100  0.15312900  1
  Hf  Hf1  1  0.70090000  0.37161700  0.15262300  1
  Hf  Hf2  1  0.19709600  0.32197300  0.34922200  1
  Hf  Hf3  1  0.21367700  0.82175300  0.34208100  1
  Hf  Hf4  1  0.77674600  0.50332800  0.61523500  1
  Hf  Hf5  1  0.75990500  0.00893200  0.60115800  1
  Hf  Hf6  1  0.31017900  0.69238900  0.86902900  1
  Hf  Hf7  1  0.27481500  0.18398700  0.89674300  1
  N  N0  1  0.42798500  0.61511600  0.18025600  1
  N  N1  1  0.42227200  0.10982200  0.19548400  1
  N  N2  1  0.92626500  0.58079100  0.31356500  1
  N  N3  1  0.92474500  0.08269900  0.30482700  1
  N  N4  1  0.52659600  0.77303600  0.52463400  1
  N  N5  1  0.04349000  0.24412200  0.63818600  1
  N  N6  1  0.55021400  0.95207300  0.86600900  1
  N  N7  1  0.54310400  0.43182800  0.86671900  1
  O  O0  1  0.55398300  0.29036800  0.49240800  1
  O  O1  1  0.02770400  0.75169600  0.64200700  1
  O  O2  1  0.06120200  0.89964300  0.00398400  1
  O  O3  1  0.04785100  0.41887400  0.99270000  1
loop_
_geom_bond_atom_site_label_1
_geom_bond_atom_site_label_2
_geom_bond_distance
_geom_bond_site_symmetry_2
Hf0 N6 2.141943 1_554
Hf0 O2 2.142653 1_655
Hf0 N0 2.224777 1_555
Hf0 N3 2.243912 1_565
Hf0 N1 2.265919 1_565
Hf0 N2 2.266539 1_555
Hf0 N4 2.710039 1_555
Hf1 N7 2.127209 1_554
Hf1 O3 2.164144 1_654
Hf1 N0 2.195292 1_555
Hf1 N1 2.233966 1_555
Hf1 N3 2.274633 1_555
Hf1 N2 2.300338 1_555
Hf1 O0 2.437834 1_555
Hf2 N5 2.128370 1_555
Hf2 O0 2.166421 1_555
Hf2 N2 2.192731 1_455
Hf2 N3 2.210622 1_455
Hf2 N1 2.273698 1_555
Hf2 N0 2.345488 1_555
Hf2 O3 2.558072 1_554
Hf3 N4 2.103756 1_555
Hf3 N1 2.213940 1_565
Hf3 N2 2.243205 1_455
Hf3 N0 2.252869 1_555
Hf3 O1 2.268085 1_555
Hf3 N3 2.268480 1_465
Hf3 O2 2.445308 1_555
Hf4 N7 2.120817 1_555
Hf4 O1 2.144383 1_655
Hf4 O0 2.153533 1_555
Hf4 N4 2.182137 1_555
Hf4 N5 2.186887 1_655
Hf4 N2 2.199680 1_555
Hf5 O0 2.119130 1_555
Hf5 N6 2.122877 1_545
Hf5 N4 2.141715 1_545
Hf5 O1 2.172498 1_645
Hf5 N3 2.197799 1_555
Hf5 N5 2.217954 1_655
Hf6 N7 2.103797 1_555
Hf6 N6 2.118904 1_555
Hf6 O1 2.176938 1_555
Hf6 N0 2.211885 1_556
Hf6 O2 2.248022 1_556
Hf6 O3 2.274503 1_555
Hf6 N4 2.611200 1_555
Hf7 N7 2.135907 1_555
Hf7 O2 2.152681 1_546
Hf7 N6 2.155536 1_545
Hf7 N5 2.162420 1_555
Hf7 O3 2.170280 1_555
Hf7 N1 2.184894 1_556
