# generated using pymatgen
data_Ti7Sn3O20
_symmetry_space_group_name_H-M   'P 1'
_cell_length_a   4.70743188
_cell_length_b   4.70743188
_cell_length_c   15.28502000
_cell_angle_alpha   90.00000000
_cell_angle_beta   90.00000000
_cell_angle_gamma   90.00523272
_symmetry_Int_Tables_number   1
_chemical_formula_structural   Ti7Sn3O20
_chemical_formula_sum   'Ti7 Sn3 O20'
_cell_volume   338.71474093
_cell_formula_units_Z   1
loop_
 _symmetry_equiv_pos_site_id
 _symmetry_equiv_pos_as_xyz
  1  'x, y, z'
loop_
 _atom_site_type_symbol
 _atom_site_label
 _atom_site_symmetry_multiplicity
 _atom_site_fract_x
 _atom_site_fract_y
 _atom_site_fract_z
 _atom_site_occupancy
  Ti  Ti0  1  0.00000000  0.00000000  0.20166200  1
  Ti  Ti1  1  0.00000000  0.00000000  0.79833800  1
  Ti  Ti2  1  0.00000000  0.00000000  0.40305500  1
  Ti  Ti3  1  0.00000000  0.00000000  0.59694500  1
  Ti  Ti4  1  0.50000000  0.50000000  0.50000000  1
  Ti  Ti5  1  0.50000000  0.50000000  0.90062900  1
  Ti  Ti6  1  0.50000000  0.50000000  0.09937100  1
  Sn  Sn0  1  0.00000000  0.00000000  0.00000000  1
  Sn  Sn1  1  0.50000000  0.50000000  0.29967300  1
  Sn  Sn2  1  0.50000000  0.50000000  0.70032700  1
  O  O0  1  0.20026000  0.20026000  0.89522400  1
  O  O1  1  0.18689700  0.18689700  0.30143900  1
  O  O2  1  0.20026000  0.20026000  0.10477600  1
  O  O3  1  0.19354100  0.19354100  0.50000000  1
  O  O4  1  0.18689700  0.18689700  0.69856100  1
  O  O5  1  0.70066500  0.29933500  0.80434600  1
  O  O6  1  0.68687000  0.31313000  0.00000000  1
  O  O7  1  0.69934800  0.30065200  0.59465000  1
  O  O8  1  0.70066500  0.29933500  0.19565400  1
  O  O9  1  0.69934800  0.30065200  0.40535000  1
  O  O10  1  0.29933500  0.70066500  0.80434600  1
  O  O11  1  0.31313000  0.68687000  0.00000000  1
  O  O12  1  0.29933500  0.70066500  0.19565400  1
  O  O13  1  0.30065200  0.69934800  0.40535000  1
  O  O14  1  0.30065200  0.69934800  0.59465000  1
  O  O15  1  0.79974000  0.79974000  0.89522400  1
  O  O16  1  0.81310300  0.81310300  0.30143900  1
  O  O17  1  0.80645900  0.80645900  0.50000000  1
  O  O18  1  0.79974000  0.79974000  0.10477600  1
  O  O19  1  0.81310300  0.81310300  0.69856100  1
loop_
_geom_bond_atom_site_label_1
_geom_bond_atom_site_label_2
_geom_bond_distance
_geom_bond_site_symmetry_2
O0 Ti1 1.992566 1_555
O0 Ti5 1.997082 1_555
O0 Sn0 2.083760 1_556
O1 Ti0 1.968218 1_555
O1 Ti2 1.990078 1_555
O1 Sn1 2.084505 1_555
O2 Ti0 1.992566 1_555
O2 Ti6 1.997082 1_555
O2 Sn0 2.083760 1_555
O3 Ti3 1.963603 1_555
O3 Ti2 1.963603 1_555
O3 Ti4 2.040101 1_555
O4 Ti1 1.968218 1_555
O4 Ti3 1.990078 1_555
O4 Sn2 2.084505 1_555
O5 Ti5 1.987619 1_555
O5 Ti1 1.994973 1_655
O5 Sn2 2.076692 1_555
O6 Ti5 1.963371 1_554
O6 Ti6 1.963371 1_555
O6 Sn0 2.084700 1_655
O7 Ti4 1.963271 1_555
O7 Ti3 2.001934 1_655
O7 Sn2 2.090581 1_555
O8 Ti6 1.987619 1_555
O8 Ti0 1.994973 1_655
O8 Sn1 2.076692 1_555
O9 Ti4 1.963271 1_555
O9 Ti2 2.001934 1_655
O9 Sn1 2.090581 1_555
O10 Ti5 1.987619 1_555
O10 Ti1 1.994973 1_565
O10 Sn2 2.076692 1_555
O11 Ti5 1.963371 1_554
O11 Ti6 1.963371 1_555
O11 Sn0 2.084700 1_565
O12 Ti6 1.987619 1_555
O12 Ti0 1.994973 1_565
O12 Sn1 2.076692 1_555
O13 Ti4 1.963271 1_555
O13 Ti2 2.001934 1_565
O13 Sn1 2.090581 1_555
O14 Ti4 1.963271 1_555
O14 Ti3 2.001934 1_565
O14 Sn2 2.090581 1_555
O15 Ti1 1.992566 1_665
O15 Ti5 1.997082 1_555
O15 Sn0 2.083760 1_666
O16 Ti0 1.968218 1_665
O16 Ti2 1.990078 1_665
O16 Sn1 2.084505 1_555
O17 Ti3 1.963603 1_665
O17 Ti2 1.963603 1_665
O17 Ti4 2.040101 1_555
O18 Ti0 1.992566 1_665
O18 Ti6 1.997082 1_555
O18 Sn0 2.083760 1_665
O19 Ti1 1.968218 1_665
O19 Ti3 1.990078 1_665
O19 Sn2 2.084505 1_555
