# generated using pymatgen
data_V2P2H4O11
_symmetry_space_group_name_H-M   'P 1'
_cell_length_a   7.49467000
_cell_length_b   11.04509400
_cell_length_c   11.43068043
_cell_angle_alpha   60.45050783
_cell_angle_beta   90.00000000
_cell_angle_gamma   90.00000000
_symmetry_Int_Tables_number   1
_chemical_formula_structural   V2P2H4O11
_chemical_formula_sum   'V8 P8 H16 O44'
_cell_volume   823.14876358
_cell_formula_units_Z   4
loop_
 _symmetry_equiv_pos_site_id
 _symmetry_equiv_pos_as_xyz
  1  'x, y, z'
loop_
 _atom_site_type_symbol
 _atom_site_label
 _atom_site_symmetry_multiplicity
 _atom_site_fract_x
 _atom_site_fract_y
 _atom_site_fract_z
 _atom_site_occupancy
  V  V0  1  0.43744800  0.75886800  0.87732300  1
  V  V1  1  0.93744800  0.24113200  0.62267700  1
  V  V2  1  0.56255200  0.24113200  0.12267700  1
  V  V3  1  0.06255200  0.75886800  0.37732300  1
  V  V4  1  0.03211900  0.74445400  0.87285100  1
  V  V5  1  0.53211900  0.25554600  0.62714900  1
  V  V6  1  0.96788100  0.25554600  0.12714900  1
  V  V7  1  0.46788100  0.74445400  0.37285100  1
  P  P0  1  0.73964600  0.53537900  0.09968200  1
  P  P1  1  0.23964600  0.46462100  0.40031800  1
  P  P2  1  0.26035400  0.46462100  0.90031800  1
  P  P3  1  0.76035400  0.53537900  0.59968200  1
  P  P4  1  0.73700000  0.97364400  0.88170700  1
  P  P5  1  0.23700000  0.02635600  0.61829300  1
  P  P6  1  0.26300000  0.02635600  0.11829300  1
  P  P7  1  0.76300000  0.97364400  0.38170700  1
  H  H0  1  0.24391100  0.67156300  0.09048800  1
  H  H1  1  0.74391100  0.32843700  0.40951200  1
  H  H2  1  0.75608900  0.32843700  0.90951200  1
  H  H3  1  0.25608900  0.67156300  0.59048800  1
  H  H4  1  0.24150300  0.89674500  0.01132700  1
  H  H5  1  0.74150300  0.10325500  0.48867300  1
  H  H6  1  0.75849700  0.10325500  0.98867300  1
  H  H7  1  0.25849700  0.89674500  0.51132700  1
  H  H8  1  0.89417500  0.87597600  0.14467700  1
  H  H9  1  0.39417500  0.12402400  0.35532300  1
  H  H10  1  0.10582500  0.12402400  0.85532300  1
  H  H11  1  0.60582500  0.87597600  0.64467700  1
  H  H12  1  0.66211200  0.58893100  0.25585100  1
  H  H13  1  0.16211200  0.41106900  0.24414900  1
  H  H14  1  0.33788800  0.41106900  0.74414900  1
  H  H15  1  0.83788800  0.58893100  0.75585100  1
  O  O0  1  0.24557700  0.75857000  0.00270900  1
  O  O1  1  0.74557700  0.24143000  0.49729100  1
  O  O2  1  0.75442300  0.24143000  0.99729100  1
  O  O3  1  0.25442300  0.75857000  0.50270900  1
  O  O4  1  0.77694300  0.00538900  0.99952600  1
  O  O5  1  0.27694300  0.99461100  0.50047400  1
  O  O6  1  0.22305700  0.99461100  0.00047400  1
  O  O7  1  0.72305700  0.00538900  0.49952600  1
  O  O8  1  0.71645400  0.50813200  0.24768800  1
  O  O9  1  0.21645400  0.49186800  0.25231200  1
  O  O10  1  0.28354600  0.49186800  0.75231200  1
  O  O11  1  0.78354600  0.50813200  0.74768800  1
  O  O12  1  0.55271100  0.79969700  0.72877900  1
  O  O13  1  0.05271100  0.20030300  0.77122100  1
  O  O14  1  0.44728900  0.20030300  0.27122100  1
  O  O15  1  0.94728900  0.79969700  0.22877900  1
  O  O16  1  0.92827400  0.71197700  0.76364200  1
  O  O17  1  0.42827400  0.28802300  0.73635800  1
  O  O18  1  0.07172600  0.28802300  0.23635800  1
  O  O19  1  0.57172600  0.71197700  0.26364200  1
  O  O20  1  0.57595100  0.61357700  0.01651700  1
  O  O21  1  0.07595100  0.38642300  0.48348300  1
  O  O22  1  0.42404900  0.38642300  0.98348300  1
  O  O23  1  0.92404900  0.61357700  0.51651700  1
  O  O24  1  0.55766000  0.89906400  0.90739000  1
  O  O25  1  0.05766000  0.10093600  0.59261000  1
  O  O26  1  0.44234000  0.10093600  0.09261000  1
  O  O27  1  0.94234000  0.89906400  0.40739000  1
  O  O28  1  0.91695600  0.60780300  0.04267200  1
  O  O29  1  0.41695600  0.39219700  0.45732800  1
  O  O30  1  0.08304400  0.39219700  0.95732800  1
  O  O31  1  0.58304400  0.60780300  0.54267200  1
  O  O32  1  0.89811900  0.89334800  0.87661200  1
  O  O33  1  0.39811900  0.10665200  0.62338800  1
  O  O34  1  0.10188100  0.10665200  0.12338800  1
  O  O35  1  0.60188100  0.89334800  0.37661200  1
  O  O36  1  0.74460200  0.38701500  0.11397800  1
  O  O37  1  0.24460200  0.61298500  0.38602200  1
  O  O38  1  0.25539800  0.61298500  0.88602200  1
  O  O39  1  0.75539800  0.38701500  0.61397800  1
  O  O40  1  0.72564300  0.11402600  0.74578400  1
  O  O41  1  0.22564300  0.88597400  0.75421600  1
  O  O42  1  0.27435700  0.88597400  0.25421600  1
  O  O43  1  0.77435700  0.11402600  0.24578400  1
loop_
_geom_bond_atom_site_label_1
_geom_bond_atom_site_label_2
_geom_bond_distance
_geom_bond_site_symmetry_2
H0 O0 0.989624 1_555
H1 O1 0.989624 1_555
H2 O2 0.989624 1_555
H3 O3 0.989624 1_555
H4 O6 1.034729 1_555
H4 O0 1.577364 1_555
H5 O7 1.034729 1_555
H5 O1 1.577364 1_555
H6 O4 1.034729 1_555
H6 O2 1.577364 1_555
H7 O5 1.034729 1_555
H7 O3 1.577364 1_555
H8 O15 0.996784 1_555
H9 O14 0.996784 1_555
H10 O13 0.996784 1_555
H11 O12 0.996784 1_555
H12 O8 1.026231 1_555
H12 O19 1.559881 1_555
H13 O9 1.026231 1_555
H13 O18 1.559881 1_555
H14 O10 1.026231 1_555
H14 O17 1.559881 1_555
H15 O11 1.026231 1_555
H15 O16 1.559881 1_555
O0 V0 2.029145 1_554
O0 V4 2.239480 1_554
O1 V1 2.029145 1_555
O1 V5 2.239480 1_555
O2 V2 2.029145 1_556
O2 V6 2.239480 1_556
O3 V3 2.029145 1_555
O3 V7 2.239480 1_555
O4 P4 1.578625 1_545
O5 P5 1.578625 1_565
O6 P6 1.578625 1_565
O7 P7 1.578625 1_545
O8 P0 1.575057 1_555
O9 P1 1.575057 1_555
O10 P2 1.575057 1_555
O11 P3 1.575057 1_555
O12 V0 1.754258 1_555
O13 V1 1.754258 1_455
O14 V2 1.754258 1_555
O15 V3 1.754258 1_655
O16 V4 1.653607 1_655
O17 V5 1.653607 1_555
O18 V6 1.653607 1_455
O19 V7 1.653607 1_555
O20 P0 1.531328 1_555
O20 V0 1.914640 1_554
O21 P1 1.531328 1_555
O21 V1 1.914640 1_455
O22 P2 1.531328 1_555
O22 V2 1.914640 1_556
O23 P3 1.531328 1_555
O23 V3 1.914640 1_655
O24 P4 1.527350 1_555
O24 V0 1.962789 1_555
O25 P5 1.527350 1_555
O25 V1 1.962789 1_455
O26 P6 1.527350 1_555
O26 V2 1.962789 1_555
O27 P7 1.527350 1_555
O27 V3 1.962789 1_655
O28 P0 1.521941 1_555
O28 V4 1.975169 1_654
O29 P1 1.521941 1_555
O29 V5 1.975169 1_555
O30 P2 1.521941 1_555
O30 V6 1.975169 1_456
O31 P3 1.521941 1_555
O31 V7 1.975169 1_555
O32 P4 1.516254 1_555
O32 V4 1.945434 1_655
O33 P5 1.516254 1_555
O33 V5 1.945434 1_555
O34 P6 1.516254 1_555
O34 V6 1.945434 1_455
O35 P7 1.516254 1_555
O35 V7 1.945434 1_555
O36 P0 1.565016 1_555
O36 V2 2.075985 1_555
O36 V6 2.171605 1_555
O37 P1 1.565016 1_555
O37 V3 2.075985 1_555
O37 V7 2.171605 1_555
O38 P2 1.565016 1_555
O38 V0 2.075985 1_555
O38 V4 2.171605 1_555
O39 P3 1.565016 1_555
O39 V1 2.075985 1_555
O39 V5 2.171605 1_555
O40 P4 1.564988 1_545
O40 V5 2.072471 1_555
O40 V1 2.126594 1_555
O41 P5 1.564988 1_565
O41 V4 2.072471 1_555
O41 V0 2.126594 1_555
O42 P6 1.564988 1_565
O42 V7 2.072471 1_555
O42 V3 2.126594 1_555
O43 P7 1.564988 1_545
O43 V6 2.072471 1_555
O43 V2 2.126594 1_555
