# generated using pymatgen
data_Na6V2B4PO16
_symmetry_space_group_name_H-M   'P 1'
_cell_length_a   9.92274036
_cell_length_b   9.92274036
_cell_length_c   9.92274036
_cell_angle_alpha   60.00000000
_cell_angle_beta   60.00000000
_cell_angle_gamma   60.00000000
_symmetry_Int_Tables_number   1
_chemical_formula_structural   Na6V2B4PO16
_chemical_formula_sum   'Na12 V4 B8 P2 O32'
_cell_volume   690.84383423
_cell_formula_units_Z   2
loop_
 _symmetry_equiv_pos_site_id
 _symmetry_equiv_pos_as_xyz
  1  'x, y, z'
loop_
 _atom_site_type_symbol
 _atom_site_label
 _atom_site_symmetry_multiplicity
 _atom_site_fract_x
 _atom_site_fract_y
 _atom_site_fract_z
 _atom_site_occupancy
  Na  Na0  1  0.29016100  0.70983900  0.70983900  1
  Na  Na1  1  0.95983900  0.95983900  0.54016100  1
  Na  Na2  1  0.70983900  0.29016100  0.70983900  1
  Na  Na3  1  0.29016100  0.70983900  0.29016100  1
  Na  Na4  1  0.54016100  0.95983900  0.95983900  1
  Na  Na5  1  0.54016100  0.54016100  0.95983900  1
  Na  Na6  1  0.70983900  0.29016100  0.29016100  1
  Na  Na7  1  0.70983900  0.70983900  0.29016100  1
  Na  Na8  1  0.54016100  0.95983900  0.54016100  1
  Na  Na9  1  0.95983900  0.54016100  0.95983900  1
  Na  Na10  1  0.29016100  0.29016100  0.70983900  1
  Na  Na11  1  0.95983900  0.54016100  0.54016100  1
  V  V0  1  0.62500000  0.12500000  0.12500000  1
  V  V1  1  0.12500000  0.62500000  0.12500000  1
  V  V2  1  0.12500000  0.12500000  0.62500000  1
  V  V3  1  0.12500000  0.12500000  0.12500000  1
  B  B0  1  0.25752900  0.91415700  0.91415700  1
  B  B1  1  0.91415700  0.25752900  0.91415700  1
  B  B2  1  0.91415700  0.91415700  0.91415700  1
  B  B3  1  0.91415700  0.91415700  0.25752900  1
  B  B4  1  0.33584300  0.33584300  0.99247100  1
  B  B5  1  0.33584300  0.33584300  0.33584300  1
  B  B6  1  0.33584300  0.99247100  0.33584300  1
  B  B7  1  0.99247100  0.33584300  0.33584300  1
  P  P0  1  0.50000000  0.50000000  0.50000000  1
  P  P1  1  0.75000000  0.75000000  0.75000000  1
  O  O0  1  0.21983900  0.98838300  0.49099100  1
  O  O1  1  0.98838300  0.21983900  0.30078700  1
  O  O2  1  0.26161700  0.94921300  0.75900900  1
  O  O3  1  0.26161700  0.75900900  0.03016100  1
  O  O4  1  0.56401000  0.56401000  0.30797100  1
  O  O5  1  0.94921300  0.03016100  0.75900900  1
  O  O6  1  0.03016100  0.75900900  0.94921300  1
  O  O7  1  0.56401000  0.56401000  0.56401000  1
  O  O8  1  0.56401000  0.30797100  0.56401000  1
  O  O9  1  0.94921300  0.26161700  0.03016100  1
  O  O10  1  0.75900900  0.26161700  0.94921300  1
  O  O11  1  0.30797100  0.56401000  0.56401000  1
  O  O12  1  0.03016100  0.94921300  0.26161700  1
  O  O13  1  0.75900900  0.94921300  0.03016100  1
  O  O14  1  0.94921300  0.75900900  0.26161700  1
  O  O15  1  0.49099100  0.21983900  0.98838300  1
  O  O16  1  0.75900900  0.03016100  0.26161700  1
  O  O17  1  0.30078700  0.49099100  0.98838300  1
  O  O18  1  0.49099100  0.30078700  0.21983900  1
  O  O19  1  0.21983900  0.30078700  0.98838300  1
  O  O20  1  0.94202900  0.68599000  0.68599000  1
  O  O21  1  0.49099100  0.98838300  0.30078700  1
  O  O22  1  0.30078700  0.98838300  0.21983900  1
  O  O23  1  0.68599000  0.94202900  0.68599000  1
  O  O24  1  0.68599000  0.68599000  0.68599000  1
  O  O25  1  0.21983900  0.49099100  0.30078700  1
  O  O26  1  0.30078700  0.21983900  0.49099100  1
  O  O27  1  0.68599000  0.68599000  0.94202900  1
  O  O28  1  0.98838300  0.49099100  0.21983900  1
  O  O29  1  0.98838300  0.30078700  0.49099100  1
  O  O30  1  0.26161700  0.03016100  0.94921300  1
  O  O31  1  0.03016100  0.26161700  0.75900900  1
loop_
_geom_bond_atom_site_label_1
_geom_bond_atom_site_label_2
_geom_bond_distance
_geom_bond_site_symmetry_2
Na0 O11 2.408612 1_555
Na0 O7 2.408618 1_555
Na0 O2 2.511574 1_555
Na0 O6 2.511574 1_555
Na0 O17 2.535054 1_555
Na0 O0 2.535054 1_555
Na1 O20 2.408621 1_555
Na1 O23 2.408621 1_555
Na1 O0 2.511574 1_655
Na1 O1 2.511574 1_565
Na1 O12 2.535054 1_655
Na1 O5 2.535054 1_565
Na2 O8 2.408612 1_555
Na2 O7 2.408618 1_555
Na2 O5 2.511574 1_555
Na2 O10 2.511574 1_555
Na2 O15 2.535054 1_555
Na2 O29 2.535054 1_555
Na3 O11 2.408621 1_555
Na3 O4 2.408621 1_555
Na3 O3 2.511574 1_555
Na3 O12 2.511574 1_555
Na3 O25 2.535054 1_555
Na3 O22 2.535054 1_555
Na4 O23 2.408621 1_555
Na4 O27 2.408621 1_555
Na4 O22 2.511574 1_556
Na4 O15 2.511574 1_565
Na4 O30 2.535054 1_565
Na4 O13 2.535054 1_556
Na5 O27 2.408612 1_555
Na5 O24 2.408618 1_555
Na5 O18 2.511574 1_556
Na5 O17 2.511574 1_555
Na5 O10 2.535054 1_555
Na5 O3 2.535054 1_556
Na6 O4 2.408621 1_555
Na6 O8 2.408621 1_555
Na6 O9 2.511574 1_555
Na6 O16 2.511574 1_555
Na6 O18 2.535054 1_555
Na6 O1 2.535054 1_555
Na7 O4 2.408612 1_555
Na7 O7 2.408618 1_555
Na7 O13 2.511574 1_555
Na7 O14 2.511574 1_555
Na7 O21 2.535054 1_555
Na7 O28 2.535054 1_555
Na8 O23 2.408612 1_555
Na8 O24 2.408618 1_555
Na8 O26 2.511574 1_565
Na8 O21 2.511574 1_555
Na8 O2 2.535054 1_555
Na8 O16 2.535054 1_565
Na9 O20 2.408621 1_555
Na9 O27 2.408621 1_555
Na9 O28 2.511574 1_556
Na9 O19 2.511574 1_655
Na9 O9 2.535054 1_556
Na9 O6 2.535054 1_655
Na10 O11 2.408621 1_555
Na10 O8 2.408621 1_555
Na10 O31 2.511574 1_555
Na10 O30 2.511574 1_555
Na10 O26 2.535054 1_555
Na10 O19 2.535054 1_555
Na11 O20 2.408612 1_555
Na11 O24 2.408618 1_555
Na11 O25 2.511574 1_655
Na11 O29 2.511574 1_555
Na11 O14 2.535054 1_555
Na11 O31 2.535054 1_655
B0 O2 1.381605 1_555
B0 O3 1.381605 1_556
B0 O30 1.381605 1_565
B1 O10 1.381605 1_555
B1 O31 1.381605 1_655
B1 O9 1.381605 1_556
B2 O5 1.381605 1_565
B2 O13 1.381605 1_556
B2 O6 1.381605 1_655
B3 O14 1.381605 1_555
B3 O16 1.381605 1_565
B3 O12 1.381605 1_655
B4 O19 1.381605 1_555
B4 O15 1.381605 1_555
B4 O17 1.381605 1_555
B5 O25 1.381605 1_555
B5 O26 1.381605 1_555
B5 O18 1.381605 1_555
B6 O22 1.381605 1_555
B6 O0 1.381605 1_555
B6 O21 1.381605 1_555
B7 O1 1.381605 1_555
B7 O28 1.381605 1_555
B7 O29 1.381605 1_555
O0 V2 1.940880 1_565
O1 V3 1.940880 1_655
O2 V2 1.940880 1_565
O3 V1 1.940880 1_555
O4 P0 1.555797 1_555
O5 V2 1.940880 1_655
O6 V1 1.940880 1_556
O7 P0 1.555805 1_555
O8 P0 1.555797 1_555
O9 V3 1.940880 1_655
O10 V0 1.940880 1_556
O11 P0 1.555797 1_555
O12 V3 1.940880 1_565
O13 V0 1.940880 1_565
O14 V1 1.940880 1_655
O15 V0 1.940880 1_556
O16 V0 1.940880 1_555
O17 V1 1.940880 1_556
O18 V0 1.940880 1_555
O19 V3 1.940880 1_556
O20 P1 1.555797 1_555
O21 V0 1.940880 1_565
O22 V3 1.940880 1_565
O23 P1 1.555797 1_555
O24 P1 1.555805 1_555
O25 V1 1.940880 1_555
O26 V2 1.940880 1_555
O27 P1 1.555797 1_555
O28 V1 1.940880 1_655
O29 V2 1.940880 1_655
O30 V3 1.940880 1_556
O31 V2 1.940880 1_555
