# generated using pymatgen
data_Li4Nb3Cr2Fe3O16
_symmetry_space_group_name_H-M   'P 1'
_cell_length_a   6.11815800
_cell_length_b   6.12093765
_cell_length_c   9.77333493
_cell_angle_alpha   89.59691278
_cell_angle_beta   91.61366181
_cell_angle_gamma   119.94732335
_symmetry_Int_Tables_number   1
_chemical_formula_structural   Li4Nb3Cr2Fe3O16
_chemical_formula_sum   'Li4 Nb3 Cr2 Fe3 O16'
_cell_volume   316.99747399
_cell_formula_units_Z   1
loop_
 _symmetry_equiv_pos_site_id
 _symmetry_equiv_pos_as_xyz
  1  'x, y, z'
loop_
 _atom_site_type_symbol
 _atom_site_label
 _atom_site_symmetry_multiplicity
 _atom_site_fract_x
 _atom_site_fract_y
 _atom_site_fract_z
 _atom_site_occupancy
  Li  Li0  1  0.66240800  0.33183500  0.90440500  1
  Li  Li1  1  0.97815900  0.99212800  0.00177300  1
  Li  Li2  1  0.96559100  0.98288500  0.48602200  1
  Li  Li3  1  0.32446800  0.66453500  0.38285400  1
  Nb  Nb0  1  0.34341300  0.16638300  0.21124000  1
  Nb  Nb1  1  0.17409900  0.33789000  0.71277100  1
  Nb  Nb2  1  0.17753000  0.83630100  0.71187900  1
  Cr  Cr0  1  0.68574600  0.34508500  0.47530100  1
  Cr  Cr1  1  0.34405500  0.66652300  0.99453800  1
  Fe  Fe0  1  0.82549400  0.16646700  0.21308500  1
  Fe  Fe1  1  0.83018300  0.66124700  0.21344300  1
  Fe  Fe2  1  0.66249300  0.83312400  0.71603400  1
  O  O0  1  0.85473600  0.17802000  0.59971600  1
  O  O1  1  0.95595300  0.48482000  0.34219800  1
  O  O2  1  0.65180700  0.34006500  0.09944600  1
  O  O3  1  0.01308600  0.99487800  0.30680300  1
  O  O4  1  0.02225900  0.01109400  0.81590000  1
  O  O5  1  0.85652500  0.67720600  0.60034100  1
  O  O6  1  0.50655600  0.04297900  0.35236700  1
  O  O7  1  0.51828900  0.47632100  0.34411600  1
  O  O8  1  0.66922000  0.82717600  0.09880900  1
  O  O9  1  0.33180000  0.16702100  0.60620800  1
  O  O10  1  0.46848400  0.51229900  0.84256600  1
  O  O11  1  0.46562000  0.95584700  0.84556700  1
  O  O12  1  0.30970100  0.65420200  0.59888400  1
  O  O13  1  0.18650400  0.33633500  0.09791900  1
  O  O14  1  0.03906600  0.51815300  0.83393900  1
  O  O15  1  0.17675300  0.83888000  0.09971400  1
loop_
_geom_bond_atom_site_label_1
_geom_bond_atom_site_label_2
_geom_bond_distance
_geom_bond_site_symmetry_2
Li0 O2 1.911000 1_556
Li0 O10 2.061993 1_555
Li0 O11 2.071203 1_545
Li0 O14 2.130687 1_655
Li1 O4 1.838388 1_664
Li1 O8 1.916653 1_555
Li1 O13 2.055669 1_665
Li1 O15 2.081395 1_655
Li2 O3 1.778588 1_655
Li2 O5 1.990081 1_555
Li2 O0 1.997803 1_565
Li2 O9 2.240349 1_665
Li3 O1 1.982625 1_455
Li3 O6 2.031802 1_565
Li3 O7 2.066908 1_555
Li3 O12 2.114959 1_555
Nb0 O2 1.995264 1_555
Nb0 O3 2.008243 1_545
Nb0 O6 2.032187 1_555
Nb0 O13 2.037478 1_555
Nb0 O15 2.042953 1_545
Nb0 O7 2.088089 1_555
Nb1 O10 1.990842 1_555
Nb1 O0 1.995210 1_455
Nb1 O4 2.012257 1_555
Nb1 O12 2.023299 1_555
Nb1 O9 2.046672 1_555
Nb1 O14 2.070249 1_555
Nb2 O11 1.986286 1_555
Nb2 O5 1.994653 1_455
Nb2 O12 2.020728 1_555
Nb2 O4 2.040862 1_565
Nb2 O9 2.042835 1_565
Nb2 O14 2.076085 1_555
Cr0 O1 1.962270 1_555
Cr0 O6 1.999479 1_555
Cr0 O7 2.017909 1_555
Cr0 O5 2.135449 1_555
Cr0 O0 2.135528 1_555
Cr0 O9 2.300896 1_555
Cr1 O8 1.977371 1_556
Cr1 O13 2.028736 1_556
Cr1 O15 2.090453 1_556
Cr1 O10 2.116037 1_555
Cr1 O11 2.125751 1_555
Cr1 O14 2.221129 1_555
Fe0 O3 2.095249 1_645
Fe0 O1 2.109861 1_555
Fe0 O8 2.112950 1_545
Fe0 O2 2.129806 1_555
Fe0 O6 2.212351 1_555
Fe0 O13 2.248794 1_655
Fe1 O3 1.985504 1_655
Fe1 O1 2.024290 1_555
Fe1 O2 2.029153 1_555
Fe1 O8 2.043773 1_555
Fe1 O7 2.124606 1_555
Fe1 O15 2.174298 1_655
Fe2 O4 2.117589 1_665
Fe2 O10 2.125040 1_555
Fe2 O11 2.149508 1_555
Fe2 O12 2.165068 1_555
Fe2 O0 2.166774 1_565
Fe2 O5 2.195559 1_555
