# generated using pymatgen
data_Li3VF5
_symmetry_space_group_name_H-M   'P 1'
_cell_length_a   4.95730383
_cell_length_b   4.95730383
_cell_length_c   13.54810800
_cell_angle_alpha   90.00000000
_cell_angle_beta   90.00000000
_cell_angle_gamma   119.99999771
_symmetry_Int_Tables_number   1
_chemical_formula_structural   Li3VF5
_chemical_formula_sum   'Li9 V3 F15'
_cell_volume   288.33699376
_cell_formula_units_Z   3
loop_
 _symmetry_equiv_pos_site_id
 _symmetry_equiv_pos_as_xyz
  1  'x, y, z'
loop_
 _atom_site_type_symbol
 _atom_site_label
 _atom_site_symmetry_multiplicity
 _atom_site_fract_x
 _atom_site_fract_y
 _atom_site_fract_z
 _atom_site_occupancy
  Li  Li0  1  0.65107700  0.02223500  0.07929200  1
  Li  Li1  1  0.70896800  0.00000000  0.83333300  1
  Li  Li2  1  0.00000000  0.70896800  0.16666700  1
  Li  Li3  1  0.97776500  0.62884200  0.41262600  1
  Li  Li4  1  0.29103200  0.29103200  0.50000000  1
  Li  Li5  1  0.37115800  0.34892300  0.74595900  1
  Li  Li6  1  0.02223500  0.65107700  0.92070800  1
  Li  Li7  1  0.34892300  0.37115800  0.25404100  1
  Li  Li8  1  0.62884200  0.97776500  0.58737400  1
  V  V0  1  0.00000000  0.67908400  0.66666700  1
  V  V1  1  0.67908400  0.00000000  0.33333300  1
  V  V2  1  0.32091600  0.32091600  0.00000000  1
  F  F0  1  0.96629000  0.42764300  0.27077400  1
  F  F1  1  0.85566400  0.21929300  0.46918300  1
  F  F2  1  0.63637100  0.78070700  0.19748400  1
  F  F3  1  0.77363400  0.77363400  0.00000000  1
  F  F4  1  0.00000000  0.22636600  0.66666700  1
  F  F5  1  0.57235700  0.53864800  0.60410700  1
  F  F6  1  0.14433600  0.36362900  0.86415000  1
  F  F7  1  0.78070700  0.63637100  0.80251600  1
  F  F8  1  0.21929300  0.85566400  0.53081700  1
  F  F9  1  0.36362900  0.14433600  0.13585000  1
  F  F10  1  0.22636600  0.00000000  0.33333300  1
  F  F11  1  0.42764300  0.96629000  0.72922600  1
  F  F12  1  0.03371000  0.46135200  0.06255900  1
  F  F13  1  0.46135200  0.03371000  0.93744100  1
  F  F14  1  0.53864800  0.57235700  0.39589300  1
loop_
_geom_bond_atom_site_label_1
_geom_bond_atom_site_label_2
_geom_bond_distance
_geom_bond_site_symmetry_2
F0 Li2 1.931112 1_655
F0 V1 2.054594 1_555
F0 Li7 2.063709 1_655
F0 Li3 2.152842 1_555
F1 Li3 1.961263 1_555
F1 Li8 1.978805 1_545
F1 Li4 2.047266 1_655
F1 V1 2.093781 1_555
F2 Li7 1.961264 1_555
F2 Li0 1.978816 1_565
F2 Li2 2.047266 1_655
F2 V1 2.093769 1_565
F3 Li0 1.946966 1_565
F3 Li6 1.946966 1_654
F3 V2 2.244261 1_555
F4 Li5 1.946966 1_555
F4 Li8 1.946973 1_445
F4 V0 2.244261 1_555
F5 Li4 1.931114 1_555
F5 V0 2.054600 1_655
F5 Li8 2.063704 1_555
F5 Li5 2.152843 1_555
F6 Li6 1.961269 1_555
F6 Li5 1.978805 1_555
F6 Li1 2.047266 1_455
F6 V2 2.093781 1_556
F7 Li5 1.961264 1_555
F7 Li6 1.978816 1_655
F7 Li1 2.047266 1_565
F7 V0 2.093769 1_655
F8 Li8 1.961263 1_555
F8 Li3 1.978805 1_455
F8 Li4 2.047266 1_565
F8 V0 2.093781 1_555
F9 Li0 1.961269 1_555
F9 Li7 1.978805 1_555
F9 Li2 2.047266 1_545
F9 V2 2.093781 1_555
F10 Li7 1.946966 1_555
F10 Li3 1.946973 1_445
F10 V1 2.244261 1_555
F11 Li1 1.931112 1_565
F11 V0 2.054594 1_555
F11 Li5 2.063709 1_565
F11 Li8 2.152842 1_555
F12 Li2 1.931126 1_555
F12 V2 2.054590 1_555
F12 Li0 2.063706 1_455
F12 Li6 2.152833 1_554
F13 Li1 1.931126 1_555
F13 V2 2.054590 1_556
F13 Li6 2.063706 1_545
F13 Li0 2.152833 1_556
F14 Li4 1.931114 1_555
F14 V1 2.054600 1_565
F14 Li3 2.063704 1_555
F14 Li7 2.152843 1_555
