# generated using pymatgen
data_Mn5O7F
_symmetry_space_group_name_H-M   'P 1'
_cell_length_a   5.92571273
_cell_length_b   5.92571273
_cell_length_c   5.92571251
_cell_angle_alpha   63.12793526
_cell_angle_beta   63.12793526
_cell_angle_gamma   63.12792830
_symmetry_Int_Tables_number   1
_chemical_formula_structural   Mn5O7F
_chemical_formula_sum   'Mn5 O7 F1'
_cell_volume   157.33880962
_cell_formula_units_Z   1
loop_
 _symmetry_equiv_pos_site_id
 _symmetry_equiv_pos_as_xyz
  1  'x, y, z'
loop_
 _atom_site_type_symbol
 _atom_site_label
 _atom_site_symmetry_multiplicity
 _atom_site_fract_x
 _atom_site_fract_y
 _atom_site_fract_z
 _atom_site_occupancy
  Mn  Mn0  1  0.37012200  0.37012200  0.87509200  1
  Mn  Mn1  1  0.37815400  0.37815400  0.37815400  1
  Mn  Mn2  1  0.98648500  0.98648500  0.98648500  1
  Mn  Mn3  1  0.87509200  0.37012200  0.37012200  1
  Mn  Mn4  1  0.37012200  0.87509200  0.37012200  1
  O  O0  1  0.60464200  0.18689600  0.60464200  1
  O  O1  1  0.14170900  0.14170900  0.57465400  1
  O  O2  1  0.18689600  0.60464200  0.60464200  1
  O  O3  1  0.57465400  0.14170900  0.14170900  1
  O  O4  1  0.12578200  0.12578200  0.12578200  1
  O  O5  1  0.14170900  0.57465400  0.14170900  1
  O  O6  1  0.60464200  0.60464200  0.18689600  1
  F  F0  1  0.62768500  0.62768500  0.62768500  1
loop_
_geom_bond_atom_site_label_1
_geom_bond_atom_site_label_2
_geom_bond_distance
_geom_bond_site_symmetry_2
Mn0 O0 1.968272 1_555
Mn0 O2 1.968272 1_555
Mn0 O5 2.027787 1_556
Mn0 O3 2.027787 1_556
Mn0 O4 2.099022 1_556
Mn1 O0 1.940409 1_555
Mn1 O2 1.940409 1_555
Mn1 O6 1.940409 1_555
Mn1 O5 2.026574 1_555
Mn1 O3 2.026574 1_555
Mn1 O1 2.026574 1_555
Mn2 O4 1.972770 1_666
Mn2 O5 2.086633 1_656
Mn2 O3 2.086633 1_566
Mn2 O1 2.086633 1_665
Mn3 O6 1.968272 1_555
Mn3 O0 1.968273 1_555
Mn3 O1 2.027787 1_655
Mn3 O5 2.027787 1_655
Mn3 O4 2.099022 1_655
Mn4 O6 1.968272 1_555
Mn4 O2 1.968273 1_555
Mn4 O1 2.027787 1_565
Mn4 O3 2.027787 1_565
Mn4 O4 2.099022 1_565
F0 Mn4 2.206457 1_555
F0 Mn3 2.206457 1_555
F0 Mn0 2.206458 1_555
