# generated using pymatgen
data_Nd2O3
_symmetry_space_group_name_H-M   'P 1'
_cell_length_a   6.16535830
_cell_length_b   6.16535830
_cell_length_c   3.21709500
_cell_angle_alpha   90.00000000
_cell_angle_beta   90.00000000
_cell_angle_gamma   120.00000324
_symmetry_Int_Tables_number   1
_chemical_formula_structural   Nd2O3
_chemical_formula_sum   'Nd2 O3'
_cell_volume   105.90370278
_cell_formula_units_Z   1
loop_
 _symmetry_equiv_pos_site_id
 _symmetry_equiv_pos_as_xyz
  1  'x, y, z'
loop_
 _atom_site_type_symbol
 _atom_site_label
 _atom_site_symmetry_multiplicity
 _atom_site_fract_x
 _atom_site_fract_y
 _atom_site_fract_z
 _atom_site_occupancy
  Nd  Nd0  1  0.66666700  0.33333300  0.50000000  1
  Nd  Nd1  1  0.33333300  0.66666700  0.50000000  1
  O  O0  1  0.00000000  0.50000000  0.00000000  1
  O  O1  1  0.50000000  0.00000000  0.00000000  1
  O  O2  1  0.50000000  0.50000000  0.00000000  1
loop_
_geom_bond_atom_site_label_1
_geom_bond_atom_site_label_2
_geom_bond_distance
_geom_bond_site_symmetry_2
Nd0 O1 2.398970 1_555
Nd0 O1 2.398970 1_556
Nd0 O0 2.398970 1_656
Nd0 O0 2.398970 1_655
Nd0 O2 2.398974 1_555
Nd0 O2 2.398974 1_556
Nd1 O1 2.398970 1_565
Nd1 O0 2.398970 1_556
Nd1 O1 2.398970 1_566
Nd1 O0 2.398970 1_555
Nd1 O2 2.398974 1_555
Nd1 O2 2.398974 1_556
