# generated using pymatgen
data_Li2FeCO5
_symmetry_space_group_name_H-M   'P 1'
_cell_length_a   2.91453800
_cell_length_b   9.34087200
_cell_length_c   12.29231600
_cell_angle_alpha   90.00000000
_cell_angle_beta   90.00000000
_cell_angle_gamma   90.00000000
_symmetry_Int_Tables_number   1
_chemical_formula_structural   Li2FeCO5
_chemical_formula_sum   'Li8 Fe4 C4 O20'
_cell_volume   334.65002296
_cell_formula_units_Z   4
loop_
 _symmetry_equiv_pos_site_id
 _symmetry_equiv_pos_as_xyz
  1  'x, y, z'
loop_
 _atom_site_type_symbol
 _atom_site_label
 _atom_site_symmetry_multiplicity
 _atom_site_fract_x
 _atom_site_fract_y
 _atom_site_fract_z
 _atom_site_occupancy
  Li  Li0  1  0.00000000  0.00000000  0.50000000  1
  Li  Li1  1  0.50000000  0.00000000  0.00000000  1
  Li  Li2  1  0.00000000  0.00759500  0.77987200  1
  Li  Li3  1  0.00000000  0.49240500  0.27987200  1
  Li  Li4  1  0.00000000  0.50000000  0.00000000  1
  Li  Li5  1  0.50000000  0.50000000  0.50000000  1
  Li  Li6  1  0.00000000  0.50759500  0.72012800  1
  Li  Li7  1  0.00000000  0.99240500  0.22012800  1
  Fe  Fe0  1  0.50000000  0.24551200  0.61333800  1
  Fe  Fe1  1  0.50000000  0.25448800  0.11333800  1
  Fe  Fe2  1  0.50000000  0.74551200  0.88666200  1
  Fe  Fe3  1  0.50000000  0.75448800  0.38666200  1
  C  C0  1  0.50000000  0.22901200  0.36124400  1
  C  C1  1  0.50000000  0.27098800  0.86124400  1
  C  C2  1  0.50000000  0.72901200  0.13875600  1
  C  C3  1  0.50000000  0.77098800  0.63875600  1
  O  O0  1  0.00000000  0.11991900  0.64222900  1
  O  O1  1  0.00000000  0.12581800  0.08046800  1
  O  O2  1  0.50000000  0.13441000  0.86101100  1
  O  O3  1  0.50000000  0.15575100  0.27031300  1
  O  O4  1  0.50000000  0.15506800  0.45182000  1
  O  O5  1  0.50000000  0.34493200  0.95182000  1
  O  O6  1  0.50000000  0.34424900  0.77031300  1
  O  O7  1  0.50000000  0.36559000  0.36101100  1
  O  O8  1  0.00000000  0.37418200  0.58046800  1
  O  O9  1  0.00000000  0.38008100  0.14222900  1
  O  O10  1  0.00000000  0.61991900  0.85777100  1
  O  O11  1  0.00000000  0.62581800  0.41953200  1
  O  O12  1  0.50000000  0.63441000  0.63898900  1
  O  O13  1  0.50000000  0.65575100  0.22968700  1
  O  O14  1  0.50000000  0.65506800  0.04818000  1
  O  O15  1  0.50000000  0.84493200  0.54818000  1
  O  O16  1  0.50000000  0.84424900  0.72968700  1
  O  O17  1  0.50000000  0.86559000  0.13898900  1
  O  O18  1  0.00000000  0.87418200  0.91953200  1
  O  O19  1  0.00000000  0.88008100  0.35777100  1
loop_
_geom_bond_atom_site_label_1
_geom_bond_atom_site_label_2
_geom_bond_distance
_geom_bond_site_symmetry_2
Li0 O19 2.076383 1_545
Li0 O0 2.076383 1_555
Li0 O15 2.138329 1_545
Li0 O15 2.138329 1_445
Li0 O4 2.138329 1_455
Li0 O4 2.138329 1_555
Li1 O1 2.117366 1_555
Li1 O18 2.117366 1_644
Li1 O1 2.117366 1_655
Li1 O18 2.117366 1_544
Li1 O17 2.120202 1_545
Li1 O2 2.120202 1_554
Li2 O0 1.990861 1_555
Li2 O18 2.121370 1_545
Li2 O2 2.126406 1_555
Li2 O2 2.126406 1_455
Li2 O16 2.198234 1_545
Li2 O16 2.198234 1_445
Li3 O9 1.990861 1_555
Li3 O11 2.121370 1_555
Li3 O7 2.126406 1_555
Li3 O7 2.126406 1_455
Li3 O13 2.198234 1_455
Li3 O13 2.198234 1_555
Li4 O9 2.076383 1_555
Li4 O10 2.076383 1_554
Li4 O5 2.138329 1_554
Li4 O14 2.138329 1_555
Li4 O5 2.138329 1_454
Li4 O14 2.138329 1_455
Li5 O11 2.117366 1_555
Li5 O8 2.117366 1_555
Li5 O11 2.117366 1_655
Li5 O8 2.117366 1_655
Li5 O7 2.120202 1_555
Li5 O12 2.120202 1_555
Li6 O10 1.990861 1_555
Li6 O8 2.121370 1_555
Li6 O12 2.126406 1_555
Li6 O12 2.126406 1_455
Li6 O6 2.198234 1_555
Li6 O6 2.198234 1_455
Li7 O19 1.990861 1_555
Li7 O1 2.121370 1_565
Li7 O17 2.126406 1_455
Li7 O17 2.126406 1_555
Li7 O3 2.198234 1_565
Li7 O3 2.198234 1_465
Fe0 O0 1.904214 1_555
Fe0 O0 1.904214 1_655
Fe0 O8 1.931690 1_555
Fe0 O8 1.931690 1_655
Fe0 O6 2.138673 1_555
Fe0 O4 2.157699 1_555
Fe1 O9 1.904214 1_655
Fe1 O9 1.904214 1_555
Fe1 O1 1.931690 1_555
Fe1 O1 1.931690 1_655
Fe1 O3 2.138673 1_555
Fe1 O5 2.157699 1_554
Fe2 O10 1.904214 1_555
Fe2 O10 1.904214 1_655
Fe2 O18 1.931690 1_555
Fe2 O18 1.931690 1_655
Fe2 O16 2.138673 1_555
Fe2 O14 2.157699 1_556
Fe3 O19 1.904214 1_555
Fe3 O19 1.904214 1_655
Fe3 O11 1.931690 1_555
Fe3 O11 1.931690 1_655
Fe3 O13 2.138673 1_555
Fe3 O15 2.157699 1_555
C0 O7 1.275761 1_555
C0 O4 1.310230 1_555
C0 O3 1.310598 1_555
C1 O2 1.275761 1_555
C1 O5 1.310230 1_555
C1 O6 1.310598 1_555
C2 O17 1.275761 1_555
C2 O14 1.310230 1_555
C2 O13 1.310598 1_555
C3 O12 1.275761 1_555
C3 O15 1.310230 1_555
C3 O16 1.310598 1_555
