# generated using pymatgen
data_Li6Cr5(P2O7)4
_symmetry_space_group_name_H-M   'P 1'
_cell_length_a   9.17391700
_cell_length_b   10.81002190
_cell_length_c   12.90252229
_cell_angle_alpha   89.82521380
_cell_angle_beta   106.40662449
_cell_angle_gamma   111.46751410
_symmetry_Int_Tables_number   1
_chemical_formula_structural   Li6Cr5(P2O7)4
_chemical_formula_sum   'Li12 Cr10 P16 O56'
_cell_volume   1135.05587771
_cell_formula_units_Z   2
loop_
 _symmetry_equiv_pos_site_id
 _symmetry_equiv_pos_as_xyz
  1  'x, y, z'
loop_
 _atom_site_type_symbol
 _atom_site_label
 _atom_site_symmetry_multiplicity
 _atom_site_fract_x
 _atom_site_fract_y
 _atom_site_fract_z
 _atom_site_occupancy
  Li  Li0  1  0.81930600  0.99513700  0.23147200  1
  Li  Li1  1  0.09751300  0.13796200  0.06780900  1
  Li  Li2  1  0.88744600  0.40209100  0.18051500  1
  Li  Li3  1  0.50000000  0.50000000  0.00000000  1
  Li  Li4  1  0.11255400  0.59790900  0.81948500  1
  Li  Li5  1  0.90248700  0.86203800  0.93219100  1
  Li  Li6  1  0.18069400  0.00486300  0.76852800  1
  Li  Li7  1  0.08002700  0.12927700  0.57260000  1
  Li  Li8  1  0.87817500  0.41671100  0.66989200  1
  Li  Li9  1  0.50000000  0.50000000  0.50000000  1
  Li  Li10  1  0.12182500  0.58328900  0.33010800  1
  Li  Li11  1  0.91997300  0.87072300  0.42740000  1
  Cr  Cr0  1  0.09771000  0.71496800  0.11003600  1
  Cr  Cr1  1  0.48460500  0.75534100  0.07029600  1
  Cr  Cr2  1  0.51539500  0.24465900  0.92970400  1
  Cr  Cr3  1  0.90229000  0.28503200  0.88996400  1
  Cr  Cr4  1  0.09678200  0.72213000  0.61348600  1
  Cr  Cr5  1  0.79784900  0.00904600  0.74251000  1
  Cr  Cr6  1  0.46933000  0.75043600  0.56670600  1
  Cr  Cr7  1  0.53067000  0.24956400  0.43329400  1
  Cr  Cr8  1  0.20215100  0.99095400  0.25749000  1
  Cr  Cr9  1  0.90321800  0.27787000  0.38651400  1
  P  P0  1  0.19591800  0.43923600  0.10350700  1
  P  P1  1  0.55507900  0.19590200  0.18154100  1
  P  P2  1  0.80919300  0.70204100  0.21015600  1
  P  P3  1  0.28792700  0.96370600  0.03321200  1
  P  P4  1  0.71207300  0.03629400  0.96678800  1
  P  P5  1  0.19080700  0.29795900  0.78984400  1
  P  P6  1  0.44492100  0.80409800  0.81845900  1
  P  P7  1  0.80408200  0.56076400  0.89649300  1
  P  P8  1  0.18883400  0.43780900  0.59974300  1
  P  P9  1  0.55997100  0.18814100  0.68491700  1
  P  P10  1  0.79827100  0.70495000  0.70735100  1
  P  P11  1  0.27960900  0.96271800  0.53109800  1
  P  P12  1  0.72039100  0.03728200  0.46890200  1
  P  P13  1  0.20172900  0.29505000  0.29264900  1
  P  P14  1  0.44002900  0.81185900  0.31508300  1
  P  P15  1  0.81116600  0.56219100  0.40025700  1
  O  O0  1  0.11630500  0.14865600  0.23570100  1
  O  O1  1  0.29065100  0.38902500  0.21252500  1
  O  O2  1  0.52945000  0.80181800  0.23555300  1
  O  O3  1  0.09491300  0.50876900  0.13786200  1
  O  O4  1  0.73659400  0.21648500  0.23126700  1
  O  O5  1  0.15700800  0.97606700  0.08471800  1
  O  O6  1  0.46702900  0.04264300  0.11873200  1
  O  O7  1  0.93314600  0.64290800  0.19634700  1
  O  O8  1  0.08128300  0.30533500  0.03227700  1
  O  O9  1  0.32517300  0.52834500  0.05616500  1
  O  O10  1  0.27713300  0.81670800  0.03185600  1
  O  O11  1  0.67372000  0.68556800  0.10450700  1
  O  O12  1  0.53488300  0.28789900  0.09359000  1
  O  O13  1  0.72880900  0.98013900  0.07411900  1
  O  O14  1  0.27119100  0.01986100  0.92588100  1
  O  O15  1  0.46511700  0.71210100  0.90641000  1
  O  O16  1  0.32628000  0.31443200  0.89549300  1
  O  O17  1  0.72286700  0.18329200  0.96814400  1
  O  O18  1  0.67482700  0.47165500  0.94383500  1
  O  O19  1  0.91871700  0.69466500  0.96772300  1
  O  O20  1  0.06685400  0.35709200  0.80365300  1
  O  O21  1  0.53297100  0.95735700  0.88126800  1
  O  O22  1  0.84299200  0.02393300  0.91528200  1
  O  O23  1  0.26340600  0.78351500  0.76873300  1
  O  O24  1  0.10202300  0.15348500  0.73230000  1
  O  O25  1  0.90508700  0.49123100  0.86213800  1
  O  O26  1  0.47055000  0.19818200  0.76444700  1
  O  O27  1  0.28353900  0.39362100  0.71155300  1
  O  O28  1  0.70934900  0.61097500  0.78747500  1
  O  O29  1  0.53339500  0.80767200  0.73376500  1
  O  O30  1  0.08381900  0.50694300  0.62894500  1
  O  O31  1  0.88369500  0.85134400  0.76429900  1
  O  O32  1  0.72989900  0.17854200  0.74055700  1
  O  O33  1  0.14654700  0.97402300  0.57604600  1
  O  O34  1  0.45859500  0.04197000  0.61542000  1
  O  O35  1  0.92643200  0.65019100  0.69625100  1
  O  O36  1  0.08110900  0.30208900  0.52982100  1
  O  O37  1  0.32026400  0.52664700  0.55314700  1
  O  O38  1  0.27150900  0.81657700  0.53021200  1
  O  O39  1  0.66328100  0.68591000  0.60091900  1
  O  O40  1  0.57956400  0.29318300  0.60493100  1
  O  O41  1  0.72308200  0.97932000  0.57625300  1
  O  O42  1  0.27691800  0.02068000  0.42374700  1
  O  O43  1  0.42043600  0.70681700  0.39506900  1
  O  O44  1  0.33671900  0.31409000  0.39908100  1
  O  O45  1  0.72849100  0.18342300  0.46978800  1
  O  O46  1  0.67973600  0.47335300  0.44685300  1
  O  O47  1  0.91889100  0.69791100  0.47017900  1
  O  O48  1  0.07356800  0.34980900  0.30374900  1
  O  O49  1  0.54140500  0.95803000  0.38458000  1
  O  O50  1  0.85345300  0.02597700  0.42395400  1
  O  O51  1  0.27010100  0.82145800  0.25944300  1
  O  O52  1  0.91618100  0.49305700  0.37105500  1
  O  O53  1  0.46660500  0.19232800  0.26623500  1
  O  O54  1  0.71646100  0.60637900  0.28844700  1
  O  O55  1  0.89797700  0.84651500  0.26770000  1
loop_
_geom_bond_atom_site_label_1
_geom_bond_atom_site_label_2
_geom_bond_distance
_geom_bond_site_symmetry_2
Li0 O13 1.946477 1_555
Li0 O55 1.993518 1_555
Li0 O50 2.422021 1_565
Li0 O0 2.605321 1_665
Li1 O8 1.912981 1_555
Li1 O5 2.009445 1_545
Li1 O0 2.124056 1_555
Li1 O22 2.481270 1_454
Li2 O3 2.058282 1_655
Li2 O4 2.200270 1_555
Li2 O48 2.220413 1_655
Li2 O7 2.479991 1_555
Li2 O52 2.557211 1_555
Li3 O18 2.051582 1_554
Li3 O9 2.051582 1_555
Li3 O11 2.201052 1_555
Li3 O16 2.201052 1_554
Li4 O25 2.058282 1_455
Li4 O23 2.200270 1_555
Li4 O35 2.220413 1_455
Li4 O20 2.479991 1_555
Li4 O30 2.557211 1_555
Li5 O19 1.912981 1_555
Li5 O22 2.009445 1_565
Li5 O31 2.124056 1_555
Li5 O5 2.481270 1_656
Li6 O14 1.946477 1_555
Li6 O24 1.993518 1_555
Li6 O33 2.422021 1_545
Li6 O31 2.605321 1_445
Li7 O36 1.943654 1_555
Li7 O33 1.981144 1_545
Li7 O24 2.021077 1_555
Li7 O50 2.303898 1_455
Li8 O30 2.000663 1_655
Li8 O20 2.347811 1_655
Li8 O35 2.405033 1_555
Li8 O40 2.454054 1_555
Li8 O25 2.526506 1_555
Li9 O37 2.063881 1_555
Li9 O46 2.063881 1_555
Li9 O39 2.165373 1_555
Li9 O44 2.165373 1_555
Li10 O52 2.000663 1_455
Li10 O7 2.347811 1_455
Li10 O48 2.405033 1_555
Li10 O43 2.454054 1_555
Li10 O3 2.526506 1_555
Li11 O47 1.943654 1_555
Li11 O50 1.981144 1_565
Li11 O55 2.021077 1_555
Li11 O33 2.303898 1_655
Cr0 O19 2.037539 1_454
Cr0 O7 2.051785 1_455
Cr0 O51 2.121604 1_555
Cr0 O10 2.131335 1_555
Cr0 O3 2.248672 1_555
Cr1 O11 2.072886 1_555
Cr1 O2 2.080335 1_555
Cr1 O15 2.110224 1_554
Cr1 O10 2.167401 1_555
Cr1 O9 2.327852 1_555
Cr1 O13 2.623007 1_555
Cr2 O16 2.072886 1_555
Cr2 O26 2.080335 1_555
Cr2 O12 2.110224 1_556
Cr2 O17 2.167401 1_555
Cr2 O18 2.327852 1_555
Cr2 O14 2.623007 1_555
Cr3 O8 2.037539 1_656
Cr3 O20 2.051785 1_655
Cr3 O32 2.121604 1_555
Cr3 O17 2.131335 1_555
Cr3 O25 2.248672 1_555
Cr4 O47 2.033794 1_455
Cr4 O35 2.058039 1_455
Cr4 O23 2.079722 1_555
Cr4 O38 2.129450 1_555
Cr4 O30 2.296325 1_555
Cr4 O33 2.657628 1_555
Cr5 O41 2.046223 1_545
Cr5 O31 2.111912 1_545
Cr5 O32 2.138512 1_555
Cr5 O22 2.144436 1_555
Cr5 O29 2.572660 1_545
Cr5 O24 2.694309 1_655
Cr6 O39 2.076085 1_555
Cr6 O29 2.097779 1_555
Cr6 O38 2.119282 1_555
Cr6 O43 2.148997 1_555
Cr6 O37 2.280139 1_555
Cr6 O41 2.679584 1_555
Cr7 O44 2.076085 1_555
Cr7 O53 2.097779 1_555
Cr7 O45 2.119282 1_555
Cr7 O40 2.148997 1_555
Cr7 O46 2.280139 1_555
Cr7 O42 2.679584 1_555
Cr8 O42 2.046223 1_565
Cr8 O0 2.111912 1_565
Cr8 O51 2.138512 1_555
Cr8 O5 2.144436 1_555
Cr8 O53 2.572660 1_565
Cr8 O55 2.694309 1_455
Cr9 O36 2.033794 1_655
Cr9 O48 2.058039 1_655
Cr9 O4 2.079722 1_555
Cr9 O45 2.129450 1_555
Cr9 O52 2.296325 1_555
Cr9 O50 2.657628 1_555
O0 P13 1.559639 1_555
O1 P13 1.621615 1_555
O1 P0 1.636610 1_555
O2 P14 1.509662 1_555
O3 P0 1.537508 1_555
O4 P1 1.536292 1_555
O5 P3 1.571904 1_555
O6 P3 1.612669 1_545
O6 P1 1.647076 1_555
O7 P2 1.542928 1_555
O8 P0 1.547167 1_555
O9 P0 1.508839 1_555
O10 P3 1.555382 1_555
O11 P2 1.522144 1_555
O12 P1 1.523251 1_555
O13 P4 1.500943 1_564
O14 P3 1.500943 1_546
O15 P6 1.523251 1_555
O16 P5 1.522144 1_555
O17 P4 1.555382 1_555
O18 P7 1.508839 1_555
O19 P7 1.547167 1_555
O20 P5 1.542928 1_555
O21 P4 1.612669 1_565
O21 P6 1.647076 1_555
O22 P4 1.571904 1_555
O23 P6 1.536292 1_555
O24 P5 1.545365 1_555
O25 P7 1.537508 1_555
O26 P9 1.509662 1_555
O27 P5 1.627472 1_555
O27 P8 1.629637 1_555
O28 P10 1.621615 1_555
O28 P7 1.636610 1_555
O29 P6 1.527168 1_555
O30 P8 1.537004 1_555
O31 P10 1.559639 1_555
O32 P9 1.562713 1_555
O33 P11 1.533269 1_555
O34 P11 1.606446 1_545
O34 P9 1.621007 1_555
O35 P10 1.535685 1_555
O36 P8 1.544738 1_555
O37 P8 1.515231 1_555
O38 P11 1.554055 1_555
O39 P10 1.521919 1_555
O40 P9 1.528070 1_555
O41 P12 1.516050 1_565
O42 P11 1.516050 1_545
O43 P14 1.528070 1_555
O44 P13 1.521919 1_555
O45 P12 1.554055 1_555
O46 P15 1.515231 1_555
O47 P15 1.544738 1_555
O48 P13 1.535685 1_555
O49 P12 1.606446 1_565
O49 P14 1.621007 1_555
O50 P12 1.533269 1_555
O51 P14 1.562713 1_555
O52 P15 1.537004 1_555
O53 P1 1.527168 1_555
O54 P2 1.627472 1_555
O54 P15 1.629637 1_555
O55 P2 1.545365 1_555
