# generated using pymatgen
data_Li2MnCu3O8
_symmetry_space_group_name_H-M   'P 1'
_cell_length_a   8.30735400
_cell_length_b   8.30735400
_cell_length_c   8.30735400
_cell_angle_alpha   90.00000000
_cell_angle_beta   90.00000000
_cell_angle_gamma   90.00000000
_symmetry_Int_Tables_number   1
_chemical_formula_structural   Li2MnCu3O8
_chemical_formula_sum   'Li8 Mn4 Cu12 O32'
_cell_volume   573.30819820
_cell_formula_units_Z   4
loop_
 _symmetry_equiv_pos_site_id
 _symmetry_equiv_pos_as_xyz
  1  'x, y, z'
loop_
 _atom_site_type_symbol
 _atom_site_label
 _atom_site_symmetry_multiplicity
 _atom_site_fract_x
 _atom_site_fract_y
 _atom_site_fract_z
 _atom_site_occupancy
  Li  Li0  1  0.49759900  0.49759900  0.49759900  1
  Li  Li1  1  0.75240100  0.75240100  0.75240100  1
  Li  Li2  1  0.74759900  0.24759900  0.25240100  1
  Li  Li3  1  0.00240100  0.50240100  0.99759900  1
  Li  Li4  1  0.99759900  0.00240100  0.50240100  1
  Li  Li5  1  0.25240100  0.74759900  0.24759900  1
  Li  Li6  1  0.24759900  0.25240100  0.74759900  1
  Li  Li7  1  0.50240100  0.99759900  0.00240100  1
  Mn  Mn0  1  0.62500000  0.37500000  0.87500000  1
  Mn  Mn1  1  0.87500000  0.62500000  0.37500000  1
  Mn  Mn2  1  0.12500000  0.12500000  0.12500000  1
  Mn  Mn3  1  0.37500000  0.87500000  0.62500000  1
  Cu  Cu0  1  0.62838000  0.62162000  0.12500000  1
  Cu  Cu1  1  0.62500000  0.87162000  0.37838000  1
  Cu  Cu2  1  0.62162000  0.12500000  0.62838000  1
  Cu  Cu3  1  0.87838000  0.87500000  0.12838000  1
  Cu  Cu4  1  0.87500000  0.12838000  0.87838000  1
  Cu  Cu5  1  0.87162000  0.37838000  0.62500000  1
  Cu  Cu6  1  0.12838000  0.87838000  0.87500000  1
  Cu  Cu7  1  0.12500000  0.62838000  0.62162000  1
  Cu  Cu8  1  0.12162000  0.37500000  0.37162000  1
  Cu  Cu9  1  0.37838000  0.62500000  0.87162000  1
  Cu  Cu10  1  0.37500000  0.37162000  0.12162000  1
  Cu  Cu11  1  0.37162000  0.12162000  0.37500000  1
  O  O0  1  0.61679500  0.60712400  0.88572600  1
  O  O1  1  0.61427400  0.38320500  0.10712400  1
  O  O2  1  0.60735900  0.10735900  0.39264100  1
  O  O3  1  0.64287600  0.63320500  0.36427400  1
  O  O4  1  0.60712400  0.88572600  0.61679500  1
  O  O5  1  0.64264100  0.85735900  0.14264100  1
  O  O6  1  0.63572600  0.14287600  0.86679500  1
  O  O7  1  0.63320500  0.36427400  0.64287600  1
  O  O8  1  0.86679500  0.63572600  0.14287600  1
  O  O9  1  0.86427400  0.85712400  0.36679500  1
  O  O10  1  0.85735900  0.14264100  0.64264100  1
  O  O11  1  0.89287600  0.11427400  0.11679500  1
  O  O12  1  0.85712400  0.36679500  0.86427400  1
  O  O13  1  0.89264100  0.89264100  0.89264100  1
  O  O14  1  0.88572600  0.61679500  0.60712400  1
  O  O15  1  0.88320500  0.39287600  0.38572600  1
  O  O16  1  0.11679500  0.89287600  0.11427400  1
  O  O17  1  0.11427400  0.11679500  0.89287600  1
  O  O18  1  0.10735900  0.39264100  0.60735900  1
  O  O19  1  0.14287600  0.86679500  0.63572600  1
  O  O20  1  0.10712400  0.61427400  0.38320500  1
  O  O21  1  0.14264100  0.64264100  0.85735900  1
  O  O22  1  0.13572600  0.35712400  0.13320500  1
  O  O23  1  0.13320500  0.13572600  0.35712400  1
  O  O24  1  0.36679500  0.86427400  0.85712400  1
  O  O25  1  0.36427400  0.64287600  0.63320500  1
  O  O26  1  0.35735900  0.35735900  0.35735900  1
  O  O27  1  0.39287600  0.38572600  0.88320500  1
  O  O28  1  0.35712400  0.13320500  0.13572600  1
  O  O29  1  0.39264100  0.60735900  0.10735900  1
  O  O30  1  0.38572600  0.88320500  0.39287600  1
  O  O31  1  0.38320500  0.10712400  0.61427400  1
loop_
_geom_bond_atom_site_label_1
_geom_bond_atom_site_label_2
_geom_bond_distance
_geom_bond_site_symmetry_2
Li0 O7 1.988045 1_555
Li0 O25 1.988045 1_555
Li0 O3 1.988045 1_555
Li0 O26 2.017880 1_555
Li1 O4 1.988045 1_555
Li1 O0 1.988045 1_555
Li1 O14 1.988045 1_555
Li1 O13 2.017880 1_555
Li2 O11 1.988045 1_555
Li2 O15 1.988045 1_555
Li2 O1 1.988045 1_555
Li2 O2 2.017880 1_555
Li3 O12 1.988045 1_455
Li3 O22 1.988045 1_556
Li3 O8 1.988045 1_456
Li3 O21 2.017880 1_555
Li4 O9 1.988045 1_545
Li4 O23 1.988045 1_655
Li4 O19 1.988045 1_645
Li4 O10 2.017880 1_555
Li5 O16 1.988045 1_555
Li5 O30 1.988045 1_555
Li5 O20 1.988045 1_555
Li5 O29 2.017880 1_555
Li6 O17 1.988045 1_555
Li6 O27 1.988045 1_555
Li6 O31 1.988045 1_555
Li6 O18 2.017880 1_555
Li7 O24 1.988045 1_554
Li7 O28 1.988045 1_565
Li7 O6 1.988045 1_564
Li7 O5 2.017880 1_555
Mn0 O27 1.931597 1_555
Mn0 O1 1.931597 1_556
Mn0 O0 1.931597 1_555
Mn0 O7 1.931597 1_555
Mn0 O6 1.931597 1_555
Mn0 O12 1.931597 1_555
Mn1 O15 1.931597 1_555
Mn1 O20 1.931597 1_655
Mn1 O3 1.931597 1_555
Mn1 O14 1.931597 1_555
Mn1 O8 1.931597 1_555
Mn1 O9 1.931597 1_555
Mn2 O22 1.931597 1_555
Mn2 O23 1.931597 1_555
Mn2 O28 1.931597 1_555
Mn2 O16 1.931597 1_545
Mn2 O11 1.931597 1_455
Mn2 O17 1.931597 1_554
Mn3 O30 1.931597 1_555
Mn3 O31 1.931597 1_565
Mn3 O19 1.931597 1_555
Mn3 O25 1.931597 1_555
Mn3 O4 1.931597 1_555
Mn3 O24 1.931597 1_555
Cu0 O5 1.967413 1_555
Cu0 O29 1.967413 1_555
Cu0 O8 1.989611 1_555
Cu0 O1 1.989611 1_555
Cu0 O3 1.993703 1_555
Cu0 O0 1.993703 1_554
Cu1 O2 1.967413 1_565
Cu1 O5 1.967413 1_555
Cu1 O4 1.989611 1_555
Cu1 O3 1.989611 1_555
Cu1 O9 1.993703 1_555
Cu1 O30 1.993703 1_555
Cu2 O10 1.967413 1_555
Cu2 O2 1.967413 1_555
Cu2 O6 1.989611 1_555
Cu2 O31 1.989611 1_555
Cu2 O7 1.993703 1_555
Cu2 O4 1.993703 1_545
Cu3 O5 1.967413 1_555
Cu3 O13 1.967413 1_554
Cu3 O16 1.989611 1_655
Cu3 O9 1.989611 1_555
Cu3 O8 1.993703 1_555
Cu3 O11 1.993703 1_565
Cu4 O10 1.967413 1_555
Cu4 O13 1.967413 1_545
Cu4 O11 1.989611 1_556
Cu4 O12 1.989611 1_555
Cu4 O6 1.993703 1_555
Cu4 O17 1.993703 1_655
Cu5 O18 1.967413 1_655
Cu5 O10 1.967413 1_555
Cu5 O14 1.989611 1_555
Cu5 O7 1.989611 1_555
Cu5 O12 1.993703 1_555
Cu5 O15 1.993703 1_555
Cu6 O21 1.967413 1_555
Cu6 O13 1.967413 1_455
Cu6 O17 1.989611 1_565
Cu6 O24 1.989611 1_555
Cu6 O16 1.993703 1_556
Cu6 O19 1.993703 1_555
Cu7 O21 1.967413 1_555
Cu7 O18 1.967413 1_555
Cu7 O19 1.989611 1_555
Cu7 O20 1.989611 1_555
Cu7 O25 1.993703 1_555
Cu7 O14 1.993703 1_455
Cu8 O18 1.967413 1_555
Cu8 O26 1.967413 1_555
Cu8 O22 1.989611 1_555
Cu8 O15 1.989611 1_455
Cu8 O20 1.993703 1_555
Cu8 O23 1.993703 1_555
Cu9 O29 1.967413 1_556
Cu9 O21 1.967413 1_555
Cu9 O0 1.989611 1_555
Cu9 O25 1.989611 1_555
Cu9 O24 1.993703 1_555
Cu9 O27 1.993703 1_555
Cu10 O29 1.967413 1_555
Cu10 O26 1.967413 1_555
Cu10 O28 1.989611 1_555
Cu10 O27 1.989611 1_554
Cu10 O1 1.993703 1_555
Cu10 O22 1.993703 1_555
Cu11 O2 1.967413 1_555
Cu11 O26 1.967413 1_555
Cu11 O23 1.989611 1_555
Cu11 O30 1.989611 1_545
Cu11 O31 1.993703 1_555
Cu11 O28 1.993703 1_555
