# generated using pymatgen
data_Mn2Si2O7
_symmetry_space_group_name_H-M   'P 1'
_cell_length_a   4.96739097
_cell_length_b   4.96738821
_cell_length_c   12.51416200
_cell_angle_alpha   90.00000565
_cell_angle_beta   90.00004834
_cell_angle_gamma   64.77957942
_symmetry_Int_Tables_number   1
_chemical_formula_structural   Mn2Si2O7
_chemical_formula_sum   'Mn4 Si4 O14'
_cell_volume   279.35144713
_cell_formula_units_Z   2
loop_
 _symmetry_equiv_pos_site_id
 _symmetry_equiv_pos_as_xyz
  1  'x, y, z'
loop_
 _atom_site_type_symbol
 _atom_site_label
 _atom_site_symmetry_multiplicity
 _atom_site_fract_x
 _atom_site_fract_y
 _atom_site_fract_z
 _atom_site_occupancy
  Mn  Mn0  1  0.04283700  0.95716400  0.00000100  1
  Mn  Mn1  1  0.04277800  0.95722600  0.50000000  1
  Mn  Mn2  1  0.00853500  0.92336100  0.25000100  1
  Mn  Mn3  1  0.07662700  0.99145400  0.75000000  1
  Si  Si0  1  0.37878300  0.29281200  0.13293600  1
  Si  Si1  1  0.37878100  0.29281900  0.36706300  1
  Si  Si2  1  0.70718500  0.62122200  0.63293500  1
  Si  Si3  1  0.70718600  0.62121300  0.86706300  1
  O  O0  1  0.23707900  0.66096400  0.13556200  1
  O  O1  1  0.23707900  0.66096800  0.36443900  1
  O  O2  1  0.33903700  0.76292000  0.63556200  1
  O  O3  1  0.33903500  0.76292000  0.86443700  1
  O  O4  1  0.27941600  0.19173300  0.24999900  1
  O  O5  1  0.80826500  0.72058400  0.75000000  1
  O  O6  1  0.82808600  0.74186200  0.53520600  1
  O  O7  1  0.82808100  0.74185600  0.96479400  1
  O  O8  1  0.25814300  0.17191800  0.03520500  1
  O  O9  1  0.25814700  0.17192400  0.46479600  1
  O  O10  1  0.84750300  0.25310300  0.86454600  1
  O  O11  1  0.84750100  0.25310800  0.63545200  1
  O  O12  1  0.74689400  0.15249700  0.13545300  1
  O  O13  1  0.74689400  0.15250000  0.36454900  1
loop_
_geom_bond_atom_site_label_1
_geom_bond_atom_site_label_2
_geom_bond_distance
_geom_bond_site_symmetry_2
Mn0 O8 1.856937 1_565
Mn0 O7 1.856962 1_454
Mn0 O12 2.181798 1_465
Mn0 O10 2.181817 1_464
Mn0 O0 2.182629 1_555
Mn0 O3 2.182656 1_554
Mn1 O6 1.856928 1_455
Mn1 O9 1.856966 1_565
Mn1 O13 2.181598 1_465
Mn1 O11 2.181607 1_465
Mn1 O1 2.182815 1_555
Mn1 O2 2.182830 1_555
Mn2 O1 1.943600 1_555
Mn2 O0 1.943619 1_555
Mn2 O12 1.943925 1_465
Mn2 O13 1.943931 1_465
Mn2 O4 2.261950 1_565
Mn3 O3 1.943607 1_555
Mn3 O2 1.943622 1_555
Mn3 O10 1.943906 1_465
Mn3 O11 1.943937 1_465
Mn3 O5 2.261862 1_455
O0 Si0 1.656469 1_555
O1 Si1 1.656455 1_555
O2 Si2 1.656453 1_555
O3 Si3 1.656464 1_555
O4 Si0 1.689085 1_555
O4 Si1 1.689106 1_555
O5 Si3 1.689094 1_555
O5 Si2 1.689098 1_555
O6 Si2 1.588150 1_555
O7 Si3 1.588161 1_555
O8 Si0 1.588150 1_555
O9 Si1 1.588157 1_555
O10 Si3 1.656577 1_555
O11 Si2 1.656596 1_555
O12 Si0 1.656583 1_555
O13 Si1 1.656591 1_555
