# generated using pymatgen
data_LiCu3(CO3)3
_symmetry_space_group_name_H-M   'P 1'
_cell_length_a   3.25271100
_cell_length_b   14.00302453
_cell_length_c   14.14184380
_cell_angle_alpha   60.51357006
_cell_angle_beta   88.66213563
_cell_angle_gamma   88.84247735
_symmetry_Int_Tables_number   1
_chemical_formula_structural   LiCu3(CO3)3
_chemical_formula_sum   'Li3 Cu9 C9 O27'
_cell_volume   560.51619406
_cell_formula_units_Z   3
loop_
 _symmetry_equiv_pos_site_id
 _symmetry_equiv_pos_as_xyz
  1  'x, y, z'
loop_
 _atom_site_type_symbol
 _atom_site_label
 _atom_site_symmetry_multiplicity
 _atom_site_fract_x
 _atom_site_fract_y
 _atom_site_fract_z
 _atom_site_occupancy
  Li  Li0  1  0.55198800  0.88980400  0.55038900  1
  Li  Li1  1  0.50979400  0.21944100  0.87850300  1
  Li  Li2  1  0.48756000  0.54873500  0.20250500  1
  Cu  Cu0  1  0.07175400  0.77198100  0.77398400  1
  Cu  Cu1  1  0.01436400  0.45889100  0.78329100  1
  Cu  Cu2  1  0.00728200  0.09115900  0.78291100  1
  Cu  Cu3  1  0.93522800  0.75144700  0.44643500  1
  Cu  Cu4  1  0.97049500  0.46336100  0.44198500  1
  Cu  Cu5  1  0.06433800  0.12134400  0.45842100  1
  Cu  Cu6  1  0.95483100  0.79163100  0.11297700  1
  Cu  Cu7  1  0.97830800  0.41935200  0.10880100  1
  Cu  Cu8  1  0.97697200  0.11743800  0.11632000  1
  C  C0  1  0.00213300  0.66178900  0.00100900  1
  C  C1  1  0.00336900  0.67127300  0.66442300  1
  C  C2  1  0.01408000  0.98919900  0.34648600  1
  C  C3  1  0.99181500  0.33141500  0.67752600  1
  C  C4  1  0.52280200  0.00570900  0.66498500  1
  C  C5  1  0.47388200  0.66621900  0.31866600  1
  C  C6  1  0.99150200  0.34029800  0.32961500  1
  C  C7  1  0.00955400  0.00670300  0.99708600  1
  C  C8  1  0.50745900  0.32422500  0.00004300  1
  O  O0  1  0.01769600  0.92811100  0.97509700  1
  O  O1  1  0.05934100  0.75425900  0.91472200  1
  O  O2  1  0.97561900  0.57263200  0.99697300  1
  O  O3  1  0.54146800  0.90592300  0.68287400  1
  O  O4  1  0.50273100  0.40370800  0.90224600  1
  O  O5  1  0.03119500  0.60463000  0.76720100  1
  O  O6  1  0.04996300  0.77572100  0.63214200  1
  O  O7  1  0.01816900  0.10768300  0.91449400  1
  O  O8  1  0.03646500  0.98559100  0.44185200  1
  O  O9  1  0.02676200  0.32567200  0.77357600  1
  O  O10  1  0.92908600  0.63653600  0.59859300  1
  O  O11  1  0.98260200  0.42550300  0.59236500  1
  O  O12  1  0.91587300  0.90332000  0.34228600  1
  O  O13  1  0.96299100  0.24327300  0.67221700  1
  O  O14  1  0.52385900  0.02675600  0.74451600  1
  O  O15  1  0.45177900  0.68240000  0.40027200  1
  O  O16  1  0.50723700  0.08609200  0.56487700  1
  O  O17  1  0.47883700  0.56431000  0.33560100  1
  O  O18  1  0.48626400  0.74629100  0.21940100  1
  O  O19  1  0.99164600  0.98857500  0.09475600  1
  O  O20  1  0.00366800  0.33451000  0.42253000  1
  O  O21  1  0.99260900  0.43666400  0.23980900  1
  O  O22  1  0.97941400  0.25399400  0.32015900  1
  O  O23  1  0.97116700  0.65849700  0.09558700  1
  O  O24  1  0.08881300  0.07961800  0.26099600  1
  O  O25  1  0.50080100  0.34107700  0.08274600  1
  O  O26  1  0.51579400  0.22196800  0.01859300  1
loop_
_geom_bond_atom_site_label_1
_geom_bond_atom_site_label_2
_geom_bond_distance
_geom_bond_site_symmetry_2
Li0 O3 1.993849 1_555
Li0 O8 2.141055 1_655
Li0 O6 2.162648 1_655
Li0 O6 2.180420 1_555
Li0 O8 2.229227 1_555
Li1 O26 1.999340 1_556
Li1 O7 2.131729 1_555
Li1 O7 2.143159 1_655
Li1 O9 2.173635 1_555
Li1 O9 2.248076 1_655
Li2 O17 1.998126 1_555
Li2 O21 2.135680 1_555
Li2 O21 2.140187 1_455
Li2 O23 2.195865 1_555
Li2 O23 2.279555 1_455
Cu0 O1 1.880137 1_555
Cu0 O6 1.983558 1_555
Cu0 O3 2.270932 1_555
Cu0 O3 2.397333 1_455
Cu0 O5 2.398457 1_555
Cu1 O9 1.936358 1_555
Cu1 O5 1.940716 1_555
Cu1 O4 2.178519 1_555
Cu1 O4 2.199577 1_455
Cu2 O13 1.929775 1_455
Cu2 O7 1.986138 1_555
Cu2 O14 2.039584 1_455
Cu2 O14 2.075978 1_555
Cu3 O12 1.900375 1_555
Cu3 O10 1.952065 1_555
Cu3 O15 2.136487 1_555
Cu3 O15 2.165313 1_655
Cu4 O11 1.923135 1_555
Cu4 O20 1.955068 1_655
Cu4 O17 2.178666 1_555
Cu4 O17 2.209154 1_655
Cu5 O22 1.943919 1_455
Cu5 O16 1.981541 1_555
Cu5 O8 2.030564 1_545
Cu5 O16 2.229570 1_455
Cu6 O0 1.955751 1_654
Cu6 O18 1.995608 1_555
Cu6 O23 1.996388 1_555
Cu6 O18 2.189233 1_655
Cu7 O2 1.940709 1_554
Cu7 O21 1.984951 1_555
Cu7 O25 2.059774 1_555
Cu7 O25 2.125704 1_655
Cu8 O24 1.886574 1_655
Cu8 O19 1.972042 1_545
Cu8 O26 2.078325 1_555
Cu8 O26 2.263485 1_655
C0 O1 1.282178 1_554
C0 O2 1.282223 1_454
C0 O23 1.316965 1_455
C1 O10 1.273858 1_455
C1 O5 1.288059 1_555
C1 O6 1.311093 1_555
C2 O24 1.271078 1_565
C2 O12 1.280022 1_455
C2 O8 1.328184 1_555
C3 O11 1.274843 1_555
C3 O13 1.278296 1_555
C3 O9 1.328058 1_655
C4 O3 1.292071 1_545
C4 O14 1.295529 1_555
C4 O16 1.306180 1_555
C5 O15 1.281112 1_555
C5 O18 1.295814 1_555
C5 O17 1.325462 1_555
C6 O20 1.277561 1_655
C6 O22 1.281094 1_555
C6 O21 1.321651 1_555
C7 O19 1.275662 1_446
C7 O0 1.282144 1_545
C7 O7 1.318589 1_555
C8 O4 1.279347 1_554
C8 O25 1.301678 1_555
C8 O26 1.322455 1_555
