# generated using pymatgen
data_Li5Cr2Ni5O12
_symmetry_space_group_name_H-M   'P 1'
_cell_length_a   5.11569181
_cell_length_b   5.11569181
_cell_length_c   9.77111095
_cell_angle_alpha   84.65273787
_cell_angle_beta   84.65273787
_cell_angle_gamma   121.29044020
_symmetry_Int_Tables_number   1
_chemical_formula_structural   Li5Cr2Ni5O12
_chemical_formula_sum   'Li5 Cr2 Ni5 O12'
_cell_volume   214.53343524
_cell_formula_units_Z   1
loop_
 _symmetry_equiv_pos_site_id
 _symmetry_equiv_pos_as_xyz
  1  'x, y, z'
loop_
 _atom_site_type_symbol
 _atom_site_label
 _atom_site_symmetry_multiplicity
 _atom_site_fract_x
 _atom_site_fract_y
 _atom_site_fract_z
 _atom_site_occupancy
  Li  Li0  1  0.82963500  0.67062500  0.75204200  1
  Li  Li1  1  0.67230100  0.82940000  0.24691900  1
  Li  Li2  1  0.32937500  0.17036500  0.24795800  1
  Li  Li3  1  0.17060000  0.32769900  0.75308100  1
  Li  Li4  1  0.08113500  0.91886500  0.00000000  1
  Cr  Cr0  1  0.74325800  0.25674200  0.00000000  1
  Cr  Cr1  1  0.25094200  0.74905800  0.50000000  1
  Ni  Ni0  1  0.91837900  0.08162100  0.50000000  1
  Ni  Ni1  1  0.00289300  0.50763500  0.24651100  1
  Ni  Ni2  1  0.49236500  0.99710700  0.75348900  1
  Ni  Ni3  1  0.58145100  0.41854900  0.50000000  1
  Ni  Ni4  1  0.41596500  0.58403500  0.00000000  1
  O  O0  1  0.04867400  0.23983800  0.11498200  1
  O  O1  1  0.76016200  0.95132600  0.88501800  1
  O  O2  1  0.88702900  0.38647800  0.61618100  1
  O  O3  1  0.61352200  0.11297100  0.38381900  1
  O  O4  1  0.70643600  0.52137200  0.11679600  1
  O  O5  1  0.47862800  0.29356400  0.88320400  1
  O  O6  1  0.52318700  0.71252000  0.61911100  1
  O  O7  1  0.28748000  0.47681300  0.38088900  1
  O  O8  1  0.40509600  0.88657500  0.11631700  1
  O  O9  1  0.11342500  0.59490400  0.88368300  1
  O  O10  1  0.21164000  0.02357700  0.62030100  1
  O  O11  1  0.97642300  0.78836000  0.37969900  1
loop_
_geom_bond_atom_site_label_1
_geom_bond_atom_site_label_2
_geom_bond_distance
_geom_bond_site_symmetry_2
Li0 O5 2.024849 1_555
Li0 O10 2.041773 1_665
Li0 O1 2.160649 1_555
Li0 O2 2.166062 1_555
Li0 O9 2.179813 1_655
Li0 O6 2.206206 1_555
Li1 O7 2.057579 1_555
Li1 O8 2.062386 1_555
Li1 O0 2.147381 1_665
Li1 O3 2.173478 1_565
Li1 O4 2.178994 1_555
Li1 O11 2.193760 1_555
Li2 O4 2.024849 1_555
Li2 O11 2.041773 1_445
Li2 O0 2.160649 1_555
Li2 O3 2.166062 1_555
Li2 O8 2.179813 1_545
Li2 O7 2.206206 1_555
Li3 O6 2.057579 1_555
Li3 O9 2.062386 1_555
Li3 O1 2.147381 1_445
Li3 O2 2.173478 1_455
Li3 O5 2.178994 1_555
Li3 O10 2.193760 1_555
Li4 O4 2.054873 1_455
Li4 O5 2.054873 1_564
Li4 O1 2.139695 1_454
Li4 O0 2.139695 1_565
Li4 O8 2.160107 1_555
Li4 O9 2.160107 1_554
Cr0 O5 1.919203 1_554
Cr0 O4 1.919203 1_555
Cr0 O8 1.923512 1_545
Cr0 O9 1.923512 1_654
Cr0 O0 2.039678 1_655
Cr0 O1 2.039678 1_544
Cr1 O2 1.954915 1_455
Cr1 O3 1.954915 1_565
Cr1 O6 1.964975 1_555
Cr1 O7 1.964975 1_555
Cr1 O10 1.987788 1_565
Cr1 O11 1.987788 1_455
Ni0 O6 2.047835 1_545
Ni0 O7 2.047835 1_655
Ni0 O2 2.074248 1_555
Ni0 O3 2.074248 1_555
Ni0 O11 2.108785 1_545
Ni0 O10 2.108785 1_655
Ni1 O0 2.046631 1_555
Ni1 O11 2.071678 1_455
Ni1 O4 2.088969 1_455
Ni1 O7 2.103465 1_555
Ni1 O8 2.125810 1_555
Ni1 O3 2.159526 1_455
Ni2 O1 2.046631 1_555
Ni2 O10 2.071678 1_565
Ni2 O5 2.088969 1_565
Ni2 O6 2.103465 1_555
Ni2 O9 2.125810 1_555
Ni2 O2 2.159526 1_565
Ni3 O11 2.053186 1_555
Ni3 O10 2.053186 1_555
Ni3 O2 2.078900 1_555
Ni3 O3 2.078900 1_555
Ni3 O7 2.105272 1_555
Ni3 O6 2.105272 1_555
Ni4 O1 1.922053 1_554
Ni4 O0 1.922053 1_555
Ni4 O8 2.023778 1_555
Ni4 O9 2.023778 1_554
Ni4 O5 2.087087 1_554
Ni4 O4 2.087087 1_555
