# generated using pymatgen
data_Dy3TaO7
_symmetry_space_group_name_H-M   'P 1'
_cell_length_a   6.44380403
_cell_length_b   6.44380403
_cell_length_c   7.42258248
_cell_angle_alpha   90.00000000
_cell_angle_beta   90.00000000
_cell_angle_gamma   108.79601733
_symmetry_Int_Tables_number   1
_chemical_formula_structural   Dy3TaO7
_chemical_formula_sum   'Dy6 Ta2 O14'
_cell_volume   291.76893917
_cell_formula_units_Z   2
loop_
 _symmetry_equiv_pos_site_id
 _symmetry_equiv_pos_as_xyz
  1  'x, y, z'
loop_
 _atom_site_type_symbol
 _atom_site_label
 _atom_site_symmetry_multiplicity
 _atom_site_fract_x
 _atom_site_fract_y
 _atom_site_fract_z
 _atom_site_occupancy
  Dy  Dy0  1  -0.00005793  0.53479032  0.24142816  1
  Dy  Dy1  1  0.46520968  0.00005793  0.25857184  1
  Dy  Dy2  1  0.46622546  0.46622546  -0.00000000  1
  Dy  Dy3  1  0.53377454  0.53377454  0.50000000  1
  Dy  Dy4  1  0.00005793  0.46520968  0.74142816  1
  Dy  Dy5  1  0.53479032  -0.00005793  0.75857184  1
  Ta  Ta0  1  0.00186780  0.00186780  0.50000000  1
  Ta  Ta1  1  0.99813220  0.99813220  -0.00000000  1
  O  O0  1  0.93158431  0.06841569  0.75000000  1
  O  O1  1  0.63913651  0.36086349  0.75000000  1
  O  O2  1  0.30863737  0.05173901  0.54421040  1
  O  O3  1  0.94826099  0.69136263  0.95578960  1
  O  O4  1  0.62907603  0.37092397  0.25000000  1
  O  O5  1  0.91734162  0.67167195  0.52449631  1
  O  O6  1  0.32832805  0.08265838  0.97550369  1
  O  O7  1  0.08265838  0.32832805  0.02449631  1
  O  O8  1  0.67167195  0.91734162  0.47550369  1
  O  O9  1  0.37092397  0.62907603  0.75000000  1
  O  O10  1  0.69136263  0.94826099  0.04421040  1
  O  O11  1  0.05173901  0.30863737  0.45578960  1
  O  O12  1  0.36086349  0.63913651  0.25000000  1
  O  O13  1  0.06841569  0.93158431  0.25000000  1
loop_
_geom_bond_atom_site_label_1
_geom_bond_atom_site_label_2
_geom_bond_distance
_geom_bond_site_symmetry_2
Dy0 O12 2.203944 1_555
Dy0 O11 2.253922 1_555
Dy0 O7 2.259148 1_555
Dy0 O4 2.281230 1_455
Dy0 O5 2.403837 1_455
Dy0 O3 2.416710 1_454
Dy0 O13 2.451385 1_555
Dy1 O12 2.203944 1_545
Dy1 O10 2.253922 1_545
Dy1 O8 2.259148 1_545
Dy1 O4 2.281230 1_555
Dy1 O6 2.403837 1_554
Dy1 O2 2.416710 1_555
Dy1 O13 2.451385 1_545
Dy2 O9 2.310196 1_554
Dy2 O4 2.310196 1_555
Dy2 O6 2.348689 1_554
Dy2 O7 2.348689 1_555
Dy2 O1 2.373455 1_554
Dy2 O12 2.373455 1_555
Dy3 O9 2.310196 1_555
Dy3 O4 2.310196 1_555
Dy3 O8 2.348689 1_555
Dy3 O5 2.348689 1_555
Dy3 O12 2.373455 1_555
Dy3 O1 2.373455 1_555
Dy4 O1 2.203944 1_455
Dy4 O3 2.253922 1_455
Dy4 O5 2.259148 1_455
Dy4 O9 2.281230 1_555
Dy4 O7 2.403837 1_556
Dy4 O11 2.416710 1_555
Dy4 O0 2.451385 1_455
Dy5 O1 2.203944 1_555
Dy5 O2 2.253922 1_555
Dy5 O6 2.259148 1_555
Dy5 O9 2.281230 1_545
Dy5 O8 2.403837 1_545
Dy5 O10 2.416710 1_546
Dy5 O0 2.451385 1_555
O0 Ta1 1.989364 1_546
O0 Ta0 1.989364 1_655
O2 Ta0 1.925927 1_555
O3 Ta1 1.925927 1_556
O5 Ta0 2.027341 1_665
O6 Ta1 2.027341 1_446
O7 Ta1 2.027341 1_445
O8 Ta0 2.027341 1_665
O10 Ta1 1.925927 1_555
O11 Ta0 1.925927 1_555
O13 Ta1 1.989364 1_455
O13 Ta0 1.989364 1_565
