# generated using pymatgen
data_Mn6VSi5HO19
_symmetry_space_group_name_H-M   'P 1'
_cell_length_a   6.80805289
_cell_length_b   29.33707795
_cell_length_c   7.67206179
_cell_angle_alpha   90.00000000
_cell_angle_beta   95.73974463
_cell_angle_gamma   90.00000000
_symmetry_Int_Tables_number   1
_chemical_formula_structural   Mn6VSi5HO19
_chemical_formula_sum   'Mn24 V4 Si20 H4 O76'
_cell_volume   1524.64603113
_cell_formula_units_Z   4
loop_
 _symmetry_equiv_pos_site_id
 _symmetry_equiv_pos_as_xyz
  1  'x, y, z'
loop_
 _atom_site_type_symbol
 _atom_site_label
 _atom_site_symmetry_multiplicity
 _atom_site_fract_x
 _atom_site_fract_y
 _atom_site_fract_z
 _atom_site_occupancy
  Mn  Mn0  1  0.13060050  0.52225400  0.34510130  1
  Mn  Mn1  1  0.63060050  0.97774600  0.84510130  1
  Mn  Mn2  1  0.86939950  0.47774600  0.65489870  1
  Mn  Mn3  1  0.36939950  0.02225400  0.15489870  1
  Mn  Mn4  1  0.81907953  0.81689839  0.47420620  1
  Mn  Mn5  1  0.31907953  0.68310161  0.97420620  1
  Mn  Mn6  1  0.18092047  0.18310161  0.52579380  1
  Mn  Mn7  1  0.68092047  0.31689839  0.02579380  1
  Mn  Mn8  1  0.04381682  0.63679950  0.27731772  1
  Mn  Mn9  1  0.54381682  0.86320050  0.77731772  1
  Mn  Mn10  1  0.95618318  0.36320050  0.72268228  1
  Mn  Mn11  1  0.45618318  0.13679950  0.22268228  1
  Mn  Mn12  1  0.83289026  0.58692905  0.58102322  1
  Mn  Mn13  1  0.33289026  0.91307095  0.08102322  1
  Mn  Mn14  1  0.16710974  0.41307095  0.41897678  1
  Mn  Mn15  1  0.66710974  0.08692905  0.91897678  1
  Mn  Mn16  1  0.35653229  0.57693654  0.06049593  1
  Mn  Mn17  1  0.85653229  0.92306346  0.56049593  1
  Mn  Mn18  1  0.64346771  0.42306346  0.93950407  1
  Mn  Mn19  1  0.14346771  0.07693654  0.43950407  1
  Mn  Mn20  1  0.02906429  0.75304341  0.18980640  1
  Mn  Mn21  1  0.52906429  0.74695659  0.68980640  1
  Mn  Mn22  1  0.97093571  0.24695659  0.81019360  1
  Mn  Mn23  1  0.47093571  0.25304341  0.31019360  1
  V  V0  1  0.00981566  0.71341764  0.61892984  1
  V  V1  1  0.50981566  0.78658236  0.11892984  1
  V  V2  1  0.99018434  0.28658236  0.38107016  1
  V  V3  1  0.49018434  0.21341764  0.88107016  1
  Si  Si0  1  0.80619261  0.66669875  0.91094152  1
  Si  Si1  1  0.30619261  0.83330125  0.41094152  1
  Si  Si2  1  0.19380739  0.33330125  0.08905848  1
  Si  Si3  1  0.69380739  0.16669875  0.58905848  1
  Si  Si4  1  0.85762570  0.56273426  0.98522597  1
  Si  Si5  1  0.35762570  0.93726574  0.48522597  1
  Si  Si6  1  0.14237430  0.43726574  0.01477403  1
  Si  Si7  1  0.64237430  0.06273426  0.51477403  1
  Si  Si8  1  0.63600880  0.51228635  0.27047207  1
  Si  Si9  1  0.13600880  0.98771365  0.77047207  1
  Si  Si10  1  0.36399120  0.48771365  0.72952793  1
  Si  Si11  1  0.86399120  0.01228635  0.22952793  1
  Si  Si12  1  0.68268523  0.40614368  0.33430763  1
  Si  Si13  1  0.18268523  0.09385632  0.83430763  1
  Si  Si14  1  0.31731477  0.59385632  0.66569237  1
  Si  Si15  1  0.81731477  0.90614368  0.16569237  1
  Si  Si16  1  0.46289264  0.35450700  0.61282285  1
  Si  Si17  1  0.96289264  0.14549300  0.11282285  1
  Si  Si18  1  0.53710736  0.64549300  0.38717715  1
  Si  Si19  1  0.03710736  0.85450700  0.88717715  1
  H  H0  1  0.53987748  0.28196579  0.65535665  1
  H  H1  1  0.03987748  0.21803421  0.15535665  1
  H  H2  1  0.46012252  0.71803421  0.34464335  1
  H  H3  1  0.96012252  0.78196579  0.84464335  1
  O  O0  1  0.84643711  0.75838516  0.64952815  1
  O  O1  1  0.34643711  0.74161484  0.14952815  1
  O  O2  1  0.15356289  0.24161484  0.35047185  1
  O  O3  1  0.65356289  0.25838516  0.85047185  1
  O  O4  1  0.04583215  0.70273686  0.40514019  1
  O  O5  1  0.54583215  0.79726314  0.90514019  1
  O  O6  1  0.95416785  0.29726314  0.59485981  1
  O  O7  1  0.45416785  0.20273686  0.09485981  1
  O  O8  1  0.23372209  0.72400264  0.73801892  1
  O  O9  1  0.73372209  0.77599736  0.23801792  1
  O  O10  1  0.76627791  0.27599736  0.26198208  1
  O  O11  1  0.26627791  0.22400264  0.76198108  1
  O  O12  1  0.89234422  0.66407452  0.71193642  1
  O  O13  1  0.39234422  0.83592548  0.21193642  1
  O  O14  1  0.10765578  0.33592548  0.28806358  1
  O  O15  1  0.60765578  0.16407452  0.78806358  1
  O  O16  1  0.99015938  0.68509956  0.04857375  1
  O  O17  1  0.49015938  0.81490044  0.54857375  1
  O  O18  1  0.00984062  0.31490044  0.95142625  1
  O  O19  1  0.50984062  0.18509956  0.45142625  1
  O  O20  1  0.61043568  0.69807858  0.89826499  1
  O  O21  1  0.11043568  0.80192142  0.39826499  1
  O  O22  1  0.38956432  0.30192142  0.10173501  1
  O  O23  1  0.88956432  0.19807858  0.60173501  1
  O  O24  1  0.74829815  0.61326347  0.95341243  1
  O  O25  1  0.24829815  0.88673653  0.45341243  1
  O  O26  1  0.25170185  0.38673653  0.04658757  1
  O  O27  1  0.75170185  0.11326347  0.54658757  1
  O  O28  1  0.05311005  0.57002460  0.12585560  1
  O  O29  1  0.55311005  0.92997540  0.62585560  1
  O  O30  1  0.94688995  0.42997540  0.87414440  1
  O  O31  1  0.44688995  0.07002460  0.37414440  1
  O  O32  1  0.89809404  0.54256365  0.79608950  1
  O  O33  1  0.39809404  0.95743635  0.29608950  1
  O  O34  1  0.10190596  0.45743635  0.20391050  1
  O  O35  1  0.60190596  0.04256365  0.70391050  1
  O  O36  1  0.69759759  0.53000299  0.07628999  1
  O  O37  1  0.19759759  0.96999701  0.57628999  1
  O  O38  1  0.30240241  0.46999701  0.92371001  1
  O  O39  1  0.80240241  0.03000299  0.42371001  1
  O  O40  1  0.42567547  0.53670142  0.28624320  1
  O  O41  1  0.92567547  0.96329858  0.78624320  1
  O  O42  1  0.57432453  0.46329858  0.71375680  1
  O  O43  1  0.07432453  0.03670142  0.21375680  1
  O  O44  1  0.81307991  0.52283182  0.42522641  1
  O  O45  1  0.31307991  0.97716818  0.92522641  1
  O  O46  1  0.18692009  0.47716818  0.57477359  1
  O  O47  1  0.68692009  0.02283182  0.07477359  1
  O  O48  1  0.60644051  0.45651005  0.25504692  1
  O  O49  1  0.10644051  0.04348995  0.75504692  1
  O  O50  1  0.39355949  0.54348995  0.74495308  1
  O  O51  1  0.89355949  0.95651005  0.24495308  1
  O  O52  1  0.86775978  0.40969045  0.48657422  1
  O  O53  1  0.36775978  0.09030955  0.98657422  1
  O  O54  1  0.13224022  0.59030955  0.51342578  1
  O  O55  1  0.63224022  0.90969045  0.01342578  1
  O  O56  1  0.71803772  0.37959285  0.15494911  1
  O  O57  1  0.21803772  0.12040715  0.65494911  1
  O  O58  1  0.28196228  0.62040715  0.84505089  1
  O  O59  1  0.78196228  0.87959285  0.34505089  1
  O  O60  1  0.49618814  0.38383998  0.43054052  1
  O  O61  1  0.99618814  0.11616002  0.93054052  1
  O  O62  1  0.50381186  0.61616002  0.56945948  1
  O  O63  1  0.00381286  0.88383998  0.06945948  1
  O  O64  1  0.24649802  0.37195751  0.65031339  1
  O  O65  1  0.74649802  0.12804249  0.15031339  1
  O  O66  1  0.75350198  0.62804249  0.34968661  1
  O  O67  1  0.25350198  0.87195751  0.84968661  1
  O  O68  1  0.63508319  0.36092367  0.77685103  1
  O  O69  1  0.13508319  0.13907633  0.27685103  1
  O  O70  1  0.36491681  0.63907633  0.22314897  1
  O  O71  1  0.86491681  0.86092367  0.72314897  1
  O  O72  1  0.47705101  0.29940178  0.55271769  1
  O  O73  1  0.97705101  0.20059822  0.05271769  1
  O  O74  1  0.52294899  0.70059822  0.44728231  1
  O  O75  1  0.02294899  0.79940178  0.94728231  1
loop_
_geom_bond_atom_site_label_1
_geom_bond_atom_site_label_2
_geom_bond_distance
_geom_bond_site_symmetry_2
Mn0 O40 2.144906 1_555
Mn0 O34 2.187497 1_555
Mn0 O46 2.205954 1_555
Mn0 O28 2.212291 1_555
Mn0 O44 2.305841 1_455
Mn0 O54 2.377217 1_555
Mn1 O41 2.144906 1_555
Mn1 O35 2.187497 1_565
Mn1 O47 2.205954 1_566
Mn1 O29 2.212291 1_555
Mn1 O45 2.305841 1_555
Mn1 O55 2.377217 1_556
Mn2 O42 2.144906 1_555
Mn2 O32 2.187497 1_555
Mn2 O44 2.205954 1_555
Mn2 O30 2.212291 1_555
Mn2 O46 2.305841 1_655
Mn2 O52 2.377217 1_555
Mn3 O43 2.144906 1_555
Mn3 O33 2.187497 1_545
Mn3 O45 2.205954 1_544
Mn3 O31 2.212291 1_555
Mn3 O47 2.305841 1_555
Mn3 O53 2.377217 1_554
Mn4 O59 2.092499 1_555
Mn4 O21 2.167535 1_655
Mn4 O0 2.177283 1_555
Mn4 O9 2.202363 1_555
Mn4 O71 2.300883 1_555
Mn4 O17 2.366223 1_555
Mn5 O58 2.092499 1_555
Mn5 O20 2.167535 1_555
Mn5 O1 2.177283 1_556
Mn5 O8 2.202357 1_555
Mn5 O70 2.300883 1_556
Mn5 O16 2.366223 1_456
Mn6 O57 2.092499 1_555
Mn6 O23 2.167535 1_455
Mn6 O2 2.177283 1_555
Mn6 O11 2.202357 1_555
Mn6 O69 2.300883 1_555
Mn6 O19 2.366223 1_555
Mn7 O56 2.092499 1_555
Mn7 O22 2.167535 1_555
Mn7 O3 2.177283 1_554
Mn7 O10 2.202363 1_555
Mn7 O68 2.300883 1_554
Mn7 O18 2.366223 1_654
Mn8 O66 2.121375 1_455
Mn8 O4 2.168210 1_555
Mn8 O16 2.256737 1_455
Mn8 O70 2.266666 1_555
Mn8 O28 2.281802 1_555
Mn8 O54 2.299075 1_555
Mn9 O67 2.121375 1_555
Mn9 O5 2.168210 1_555
Mn9 O17 2.256737 1_555
Mn9 O71 2.266666 1_555
Mn9 O29 2.281802 1_555
Mn9 O55 2.299075 1_556
Mn10 O64 2.121375 1_655
Mn10 O6 2.168210 1_555
Mn10 O18 2.256737 1_655
Mn10 O68 2.266666 1_555
Mn10 O30 2.281802 1_555
Mn10 O52 2.299075 1_555
Mn11 O65 2.121375 1_555
Mn11 O7 2.168210 1_555
Mn11 O19 2.256737 1_555
Mn11 O69 2.266666 1_555
Mn11 O31 2.281802 1_555
Mn11 O53 2.299075 1_554
Mn12 O32 2.113550 1_555
Mn12 O54 2.154902 1_655
Mn12 O66 2.169115 1_555
Mn12 O44 2.225005 1_555
Mn12 O62 2.392243 1_555
Mn12 O12 2.492682 1_555
Mn13 O33 2.113550 1_555
Mn13 O55 2.154902 1_555
Mn13 O67 2.169115 1_554
Mn13 O45 2.225005 1_554
Mn13 O63 2.392236 1_555
Mn13 O13 2.492682 1_555
Mn14 O34 2.113550 1_555
Mn14 O52 2.154902 1_455
Mn14 O64 2.169115 1_555
Mn14 O46 2.225005 1_555
Mn14 O60 2.392243 1_555
Mn14 O14 2.492682 1_555
Mn15 O35 2.113550 1_555
Mn15 O53 2.154902 1_555
Mn15 O65 2.169115 1_556
Mn15 O47 2.225005 1_556
Mn15 O61 2.392243 1_555
Mn15 O15 2.492682 1_555
Mn16 O58 2.109120 1_554
Mn16 O40 2.109847 1_555
Mn16 O28 2.183330 1_555
Mn16 O70 2.206707 1_555
Mn16 O50 2.647451 1_554
Mn16 O36 2.691817 1_555
Mn17 O59 2.109120 1_555
Mn17 O41 2.109847 1_555
Mn17 O29 2.183330 1_555
Mn17 O71 2.206707 1_555
Mn17 O51 2.647451 1_555
Mn17 O37 2.691817 1_655
Mn18 O56 2.109120 1_556
Mn18 O42 2.109847 1_555
Mn18 O30 2.183330 1_555
Mn18 O68 2.206707 1_555
Mn18 O48 2.647451 1_556
Mn18 O38 2.691817 1_555
Mn19 O57 2.109120 1_555
Mn19 O43 2.109847 1_555
Mn19 O31 2.183330 1_555
Mn19 O69 2.206707 1_555
Mn19 O49 2.647451 1_555
Mn19 O39 2.691817 1_455
Mn20 O21 2.177990 1_555
Mn20 O9 2.186773 1_455
Mn20 O4 2.209687 1_555
Mn20 O1 2.238312 1_555
Mn20 O16 2.271555 1_455
Mn20 O75 2.301727 1_554
Mn21 O20 2.177990 1_555
Mn21 O8 2.186775 1_555
Mn21 O5 2.209687 1_555
Mn21 O0 2.238312 1_555
Mn21 O17 2.271555 1_555
Mn21 O74 2.301727 1_555
Mn22 O23 2.177990 1_555
Mn22 O11 2.186775 1_655
Mn22 O6 2.209687 1_555
Mn22 O3 2.238312 1_555
Mn22 O18 2.271555 1_655
Mn22 O73 2.301727 1_556
Mn23 O22 2.177990 1_555
Mn23 O10 2.186773 1_555
Mn23 O7 2.209687 1_555
Mn23 O2 2.238312 1_555
Mn23 O19 2.271555 1_555
Mn23 O72 2.301727 1_555
H0 O72 0.998657 1_555
H0 O3 1.756896 1_555
H1 O73 0.998657 1_455
H1 O2 1.756896 1_555
H2 O74 0.998657 1_555
H2 O1 1.756896 1_555
H3 O75 0.998657 1_655
H3 O0 1.756896 1_555
O0 V0 1.756375 1_655
O1 V1 1.756375 1_555
O2 V2 1.756375 1_455
O3 V3 1.756375 1_555
O4 V0 1.711442 1_555
O5 V1 1.711442 1_556
O6 V2 1.711442 1_555
O7 V3 1.711442 1_554
O8 V0 1.725201 1_555
O9 V1 1.725198 1_555
O10 V2 1.725198 1_555
O11 V3 1.725201 1_555
O12 Si0 1.691186 1_555
O12 V0 1.832594 1_655
O13 Si1 1.691186 1_555
O13 V1 1.832594 1_555
O14 Si2 1.691186 1_555
O14 V2 1.832594 1_455
O15 Si3 1.691186 1_555
O15 V3 1.832594 1_555
O16 Si0 1.646361 1_554
O17 Si1 1.646361 1_555
O18 Si2 1.646361 1_556
O19 Si3 1.646361 1_555
O20 Si0 1.614675 1_555
O21 Si1 1.614675 1_555
O22 Si2 1.614675 1_555
O23 Si3 1.614675 1_555
O24 Si0 1.656711 1_555
O24 Si4 1.665737 1_555
O25 Si1 1.656711 1_555
O25 Si5 1.665737 1_555
O26 Si2 1.656711 1_555
O26 Si6 1.665737 1_555
O27 Si3 1.656711 1_555
O27 Si7 1.665737 1_555
O28 Si4 1.641283 1_454
O29 Si5 1.641283 1_555
O30 Si6 1.641283 1_656
O31 Si7 1.641283 1_555
O32 Si4 1.616054 1_555
O33 Si5 1.616054 1_555
O34 Si6 1.616054 1_555
O35 Si7 1.616054 1_555
O36 Si4 1.658127 1_554
O36 Si8 1.670430 1_555
O37 Si5 1.658127 1_555
O37 Si9 1.670430 1_555
O38 Si6 1.658127 1_556
O38 Si10 1.670430 1_555
O39 Si7 1.658127 1_555
O39 Si11 1.670430 1_555
O40 Si8 1.616430 1_555
O41 Si9 1.616430 1_655
O42 Si10 1.616430 1_555
O43 Si11 1.616430 1_455
O44 Si8 1.634725 1_555
O45 Si9 1.634725 1_555
O46 Si10 1.634725 1_555
O47 Si11 1.634725 1_555
O48 Si8 1.651449 1_555
O48 Si12 1.661142 1_555
O49 Si9 1.651449 1_545
O49 Si13 1.661142 1_555
O50 Si10 1.651449 1_555
O50 Si14 1.661142 1_555
O51 Si11 1.651449 1_565
O51 Si15 1.661142 1_555
O52 Si12 1.633614 1_555
O53 Si13 1.633614 1_555
O54 Si14 1.633614 1_555
O55 Si15 1.633614 1_555
O56 Si12 1.620002 1_555
O57 Si13 1.620002 1_555
O58 Si14 1.620002 1_555
O59 Si15 1.620002 1_555
O60 Si12 1.665181 1_555
O60 Si16 1.676626 1_555
O61 Si13 1.665181 1_655
O61 Si17 1.676626 1_556
O62 Si14 1.665181 1_555
O62 Si18 1.676626 1_555
O63 Si15 1.665187 1_455
O63 Si19 1.676625 1_554
O64 Si16 1.612443 1_555
O65 Si17 1.612443 1_555
O66 Si18 1.612443 1_555
O67 Si19 1.612443 1_555
O68 Si16 1.642639 1_555
O69 Si17 1.642639 1_455
O70 Si18 1.642639 1_555
O71 Si19 1.642639 1_655
O72 Si16 1.686506 1_555
O73 Si17 1.686506 1_555
O74 Si18 1.686506 1_555
O75 Si19 1.686506 1_555
