# generated using pymatgen
data_Li8FeO6
_symmetry_space_group_name_H-M   'P 1'
_cell_length_a   5.34032472
_cell_length_b   5.84295168
_cell_length_c   8.30238602
_cell_angle_alpha   96.20007158
_cell_angle_beta   86.71806544
_cell_angle_gamma   90.16612654
_symmetry_Int_Tables_number   1
_chemical_formula_structural   Li8FeO6
_chemical_formula_sum   'Li16 Fe2 O12'
_cell_volume   257.12240439
_cell_formula_units_Z   2
loop_
 _symmetry_equiv_pos_site_id
 _symmetry_equiv_pos_as_xyz
  1  'x, y, z'
loop_
 _atom_site_type_symbol
 _atom_site_label
 _atom_site_symmetry_multiplicity
 _atom_site_fract_x
 _atom_site_fract_y
 _atom_site_fract_z
 _atom_site_occupancy
  Li  Li0  1  0.16509000  0.42321900  0.06683200  1
  Li  Li1  1  0.66508700  0.92322100  0.56682800  1
  Li  Li2  1  0.83491100  0.57678100  0.93316800  1
  Li  Li3  1  0.33491300  0.07677900  0.43317200  1
  Li  Li4  1  0.30843200  0.44900400  0.79115600  1
  Li  Li5  1  0.80843400  0.94900400  0.29115800  1
  Li  Li6  1  0.69156800  0.55099600  0.20884500  1
  Li  Li7  1  0.19156600  0.05099500  0.70884200  1
  Li  Li8  1  0.35774600  0.77101200  0.12822400  1
  Li  Li9  1  0.85774800  0.27101100  0.62822300  1
  Li  Li10  1  0.64225400  0.22898800  0.87177600  1
  Li  Li11  1  0.14225200  0.72898800  0.37177700  1
  Li  Li12  1  0.52426700  0.81998600  0.84445200  1
  Li  Li13  1  0.02426300  0.31998600  0.34445500  1
  Li  Li14  1  0.47573300  0.18001400  0.15554800  1
  Li  Li15  1  0.97573700  0.68001400  0.65554600  1
  Fe  Fe0  1  0.49999900  0.50000600  0.49999900  1
  Fe  Fe1  1  0.00000200  0.99999700  0.99999800  1
  O  O0  1  0.16624000  0.70464800  0.93573800  1
  O  O1  1  0.66624800  0.20463300  0.43573300  1
  O  O2  1  0.83376000  0.29535200  0.06426300  1
  O  O3  1  0.33375200  0.79536500  0.56426800  1
  O  O4  1  0.29555700  0.16052900  0.92326900  1
  O  O5  1  0.79557200  0.66053200  0.42326700  1
  O  O6  1  0.70444300  0.83947100  0.07673200  1
  O  O7  1  0.20442700  0.33946800  0.57673300  1
  O  O8  1  0.34534200  0.49585900  0.25762300  1
  O  O9  1  0.84535000  0.99586000  0.75763000  1
  O  O10  1  0.65465800  0.50414000  0.74237700  1
  O  O11  1  0.15465000  0.00414000  0.24237000  1
loop_
_geom_bond_atom_site_label_1
_geom_bond_atom_site_label_2
_geom_bond_distance
_geom_bond_site_symmetry_2
Li0 O8 1.908630 1_555
Li0 O2 1.919028 1_455
Li0 O4 1.943689 1_554
Li0 O0 2.067455 1_554
Li1 O9 1.908738 1_555
Li1 O3 1.919026 1_555
Li1 O5 1.943708 1_555
Li1 O1 2.067373 1_565
Li2 O10 1.908633 1_555
Li2 O0 1.919023 1_655
Li2 O6 1.943695 1_556
Li2 O2 2.067460 1_556
Li3 O11 1.908738 1_555
Li3 O1 1.919022 1_555
Li3 O7 1.943710 1_555
Li3 O3 2.067388 1_545
Li4 O10 1.904058 1_555
Li4 O7 1.937098 1_555
Li4 O0 1.940005 1_555
Li4 O4 2.106873 1_555
Li5 O11 1.904020 1_665
Li5 O6 1.937091 1_555
Li5 O1 1.939902 1_565
Li5 O5 2.106838 1_555
Li6 O8 1.904058 1_555
Li6 O5 1.937089 1_555
Li6 O2 1.940005 1_555
Li6 O6 2.106873 1_555
Li7 O9 1.904019 1_445
Li7 O4 1.937100 1_555
Li7 O3 1.939902 1_545
Li7 O7 2.106843 1_555
Li8 O11 1.882013 1_565
Li8 O6 1.926846 1_555
Li8 O0 1.949658 1_554
Li8 O8 2.026716 1_555
Li9 O10 1.882025 1_555
Li9 O7 1.926749 1_655
Li9 O1 1.949676 1_555
Li9 O9 2.026747 1_545
Li10 O9 1.882013 1_545
Li10 O4 1.926848 1_555
Li10 O2 1.949665 1_556
Li10 O10 2.026711 1_555
Li11 O8 1.882025 1_555
Li11 O5 1.926753 1_455
Li11 O3 1.949683 1_555
Li11 O11 2.026752 1_565
Li12 O10 2.052050 1_555
Li12 O9 2.126975 1_555
Li12 O0 2.149689 1_555
Li12 O6 2.195955 1_556
Li12 O4 2.349581 1_565
Li13 O11 2.052068 1_555
Li13 O8 2.126984 1_555
Li13 O1 2.149642 1_455
Li13 O7 2.195909 1_555
Li13 O5 2.349537 1_455
Li14 O8 2.052045 1_555
Li14 O11 2.126975 1_555
Li14 O2 2.149687 1_555
Li14 O4 2.195947 1_554
Li14 O6 2.349579 1_545
Li15 O9 2.052065 1_555
Li15 O10 2.126984 1_555
Li15 O3 2.149638 1_655
Li15 O5 2.195919 1_555
Li15 O7 2.349536 1_655
Fe0 O5 1.944853 1_555
Fe0 O7 1.944891 1_555
Fe0 O3 1.951139 1_555
Fe0 O1 1.951210 1_555
Fe0 O8 2.216241 1_555
Fe0 O10 2.216268 1_555
Fe1 O4 1.944787 1_565
Fe1 O6 1.944799 1_456
Fe1 O0 1.951056 1_555
Fe1 O2 1.951102 1_466
Fe1 O9 2.216173 1_455
Fe1 O11 2.216192 1_566
