# generated using pymatgen
data_Li66Be24H35
_symmetry_space_group_name_H-M   'P 1'
_cell_length_a   10.45808800
_cell_length_b   10.96114517
_cell_length_c   12.71079463
_cell_angle_alpha   94.94036690
_cell_angle_beta   91.78513233
_cell_angle_gamma   90.59355588
_symmetry_Int_Tables_number   1
_chemical_formula_structural   Li66Be24H35
_chemical_formula_sum   'Li66 Be24 H35'
_cell_volume   1450.82951870
_cell_formula_units_Z   1
loop_
 _symmetry_equiv_pos_site_id
 _symmetry_equiv_pos_as_xyz
  1  'x, y, z'
loop_
 _atom_site_type_symbol
 _atom_site_label
 _atom_site_symmetry_multiplicity
 _atom_site_fract_x
 _atom_site_fract_y
 _atom_site_fract_z
 _atom_site_occupancy
  Li  Li0  1  0.56414900  0.92003700  0.16630200  1
  Li  Li1  1  0.01151100  0.94829600  0.21444900  1
  Li  Li2  1  0.34576700  0.22227800  0.04462800  1
  Li  Li3  1  0.84305900  0.24905000  0.08601400  1
  Li  Li4  1  0.88997700  0.79389100  0.06243100  1
  Li  Li5  1  0.38423900  0.74205300  0.06536300  1
  Li  Li6  1  0.46254400  0.43881200  0.14928800  1
  Li  Li7  1  0.89143900  0.44564500  0.24382000  1
  Li  Li8  1  0.68703800  0.70213500  0.52503700  1
  Li  Li9  1  0.06356500  0.67547600  0.56531000  1
  Li  Li10  1  0.02048200  0.12081100  0.54574500  1
  Li  Li11  1  0.56399400  0.21657600  0.59288800  1
  Li  Li12  1  0.15263700  0.43005900  0.60758400  1
  Li  Li13  1  0.25565300  0.96004600  0.61731600  1
  Li  Li14  1  0.59128500  0.97844900  0.59812400  1
  Li  Li15  1  0.66500100  0.46939900  0.59588400  1
  Li  Li16  1  0.67138700  0.58282400  0.87803200  1
  Li  Li17  1  0.34766000  0.35585100  0.87137400  1
  Li  Li18  1  0.42582900  0.10712300  0.77620000  1
  Li  Li19  1  0.84730400  0.01197700  0.68374800  1
  Li  Li20  1  0.20416500  0.05061000  0.91474700  1
  Li  Li21  1  0.35116800  0.61988200  0.85100600  1
  Li  Li22  1  0.89847500  0.10301500  0.88710700  1
  Li  Li23  1  0.88549000  0.53629000  0.01929100  1
  Li  Li24  1  0.62238800  0.07382100  0.94833700  1
  Li  Li25  1  0.11663300  0.13013400  0.13736200  1
  Li  Li26  1  0.46560900  0.78101400  0.60163300  1
  Li  Li27  1  0.43512500  0.54554900  0.64505400  1
  Li  Li28  1  0.67402800  0.68713000  0.11248100  1
  Li  Li29  1  0.12479800  0.67530000  0.12108400  1
  Li  Li30  1  0.88607400  0.52231800  0.71456500  1
  Li  Li31  1  0.91148900  0.86412100  0.51067600  1
  Li  Li32  1  0.77611700  0.12445900  0.50648200  1
  Li  Li33  1  0.87444400  0.55361800  0.47318700  1
  Li  Li34  1  0.37017500  0.00117200  0.44910700  1
  Li  Li35  1  0.27292500  0.51786100  0.45363900  1
  Li  Li36  1  0.09298400  0.28606500  0.95523400  1
  Li  Li37  1  0.16796900  0.80460900  0.93760400  1
  Li  Li38  1  0.61830900  0.80564600  0.95468900  1
  Li  Li39  1  0.62101000  0.32115000  0.97163800  1
  Li  Li40  1  0.71792600  0.60352000  0.30385600  1
  Li  Li41  1  0.76278900  0.12824600  0.25245300  1
  Li  Li42  1  0.30789000  0.59270500  0.24967800  1
  Li  Li43  1  0.33101900  0.03287700  0.24356300  1
  Li  Li44  1  0.07735000  0.89051700  0.74336400  1
  Li  Li45  1  0.61691200  0.91112300  0.77235900  1
  Li  Li46  1  0.57379800  0.36180200  0.76861200  1
  Li  Li47  1  0.09898700  0.41023600  0.78939700  1
  Li  Li48  1  0.90319200  0.71453600  0.85820800  1
  Li  Li49  1  0.84176700  0.34636700  0.85398100  1
  Li  Li50  1  0.18154700  0.17854900  0.74685200  1
  Li  Li51  1  0.34481900  0.87809700  0.79041500  1
  Li  Li52  1  0.97273000  0.21133300  0.34393400  1
  Li  Li53  1  0.56694000  0.12908300  0.37309900  1
  Li  Li54  1  0.53152200  0.50384800  0.39934500  1
  Li  Li55  1  0.07917700  0.59308400  0.34625100  1
  Li  Li56  1  0.56470300  0.14531000  0.13645900  1
  Li  Li57  1  0.44847700  0.29348700  0.30423100  1
  Li  Li58  1  0.14016800  0.40962000  0.15608300  1
  Li  Li59  1  0.12239300  0.97383700  0.40991500  1
  Li  Li60  1  0.66364700  0.91250400  0.40018200  1
  Li  Li61  1  0.21547100  0.30804800  0.32549300  1
  Li  Li62  1  0.75033100  0.35411200  0.41482200  1
  Li  Li63  1  0.93151900  0.75844000  0.30488400  1
  Li  Li64  1  0.44769400  0.78550100  0.33623300  1
  Li  Li65  1  0.22954700  0.22029100  0.50528100  1
  Be  Be0  1  0.99549900  0.98140000  0.01015100  1
  Be  Be1  1  0.35982300  0.33328200  0.66338500  1
  Be  Be2  1  0.11113900  0.58195800  0.92048800  1
  Be  Be3  1  0.25313800  0.72077900  0.64869100  1
  Be  Be4  1  0.66418500  0.33258100  0.22259000  1
  Be  Be5  1  0.77691900  0.90198700  0.23029600  1
  Be  Be6  1  0.03242800  0.39624800  0.44524600  1
  Be  Be7  1  0.20350100  0.80852000  0.29430300  1
  Be  Be8  1  0.78050400  0.27681000  0.66870800  1
  Be  Be9  1  0.86611000  0.75286600  0.66211900  1
  Be  Be10  1  0.39184000  0.96717500  0.02271400  1
  Be  Be11  1  0.49009300  0.53277900  0.99054100  1
  Be  Be12  1  0.71054400  0.16495100  0.78011100  1
  Be  Be13  1  0.95439400  0.22103300  0.71620200  1
  Be  Be14  1  0.25600200  0.77192500  0.46138400  1
  Be  Be15  1  0.87673600  0.99120400  0.36491100  1
  Be  Be16  1  0.68797700  0.46683700  0.12220300  1
  Be  Be17  1  0.28290400  0.51755200  0.02294000  1
  Be  Be18  1  0.91856000  0.33009500  0.56927800  1
  Be  Be19  1  0.41664200  0.35489900  0.51135000  1
  Be  Be20  1  0.21752400  0.89261200  0.12305900  1
  Be  Be21  1  0.79968500  0.99931600  0.09249200  1
  Be  Be22  1  0.11109600  0.65665400  0.76576300  1
  Be  Be23  1  0.68213200  0.70097100  0.71210700  1
  H  H0  1  0.73761600  0.03605300  0.80350800  1
  H  H1  1  0.02411600  0.64290700  0.99927100  1
  H  H2  1  0.04386600  0.09647900  0.98030400  1
  H  H3  1  0.76449600  0.29877500  0.55510400  1
  H  H4  1  0.19922800  0.06306800  0.52330500  1
  H  H5  1  0.61382900  0.74728200  0.80548000  1
  H  H6  1  0.24438500  0.02033800  0.76124500  1
  H  H7  1  0.98015400  0.68752000  0.71749000  1
  H  H8  1  0.59786100  0.07452600  0.49792900  1
  H  H9  1  0.38858200  0.24543600  0.57003700  1
  H  H10  1  0.93408200  0.86981600  0.65801000  1
  H  H11  1  0.22654500  0.54434100  0.12531800  1
  H  H12  1  0.17365100  0.60779700  0.66991200  1
  H  H13  1  0.46090500  0.08663000  0.02704100  1
  H  H14  1  0.01803700  0.10159200  0.69603800  1
  H  H15  1  0.77685500  0.69063800  0.97465100  1
  H  H16  1  0.52734700  0.64919400  0.95159300  1
  H  H17  1  0.46424600  0.94298500  0.69100800  1
  H  H18  1  0.58922000  0.64337100  0.63320200  1
  H  H19  1  0.08391700  0.52160700  0.47896800  1
  H  H20  1  0.07488200  0.92407800  0.08708400  1
  H  H21  1  0.88326900  0.70630100  0.54979400  1
  H  H22  1  0.60812700  0.22587100  0.26277400  1
  H  H23  1  0.69778300  0.53967000  0.45790500  1
  H  H24  1  0.48799300  0.87520000  0.04193300  1
  H  H25  1  0.16914900  0.46058400  0.95442700  1
  H  H26  1  0.57074100  0.54302300  0.09256300  1
  H  H27  1  0.24783300  0.66889400  0.53309900  1
  H  H28  1  0.37482900  0.69737600  0.69841300  1
  H  H29  1  0.78037300  0.56557200  0.15048400  1
  H  H30  1  0.86018600  0.95266100  0.98586000  1
  H  H31  1  0.90021800  0.60046300  0.33896200  1
  H  H32  1  0.24745200  0.21575300  0.90933900  1
  H  H33  1  0.22001000  0.77804300  0.06255500  1
  H  H34  1  0.72663200  0.21509400  0.89395200  1
loop_
_geom_bond_atom_site_label_1
_geom_bond_atom_site_label_2
_geom_bond_distance
_geom_bond_site_symmetry_2
Be0 H2 1.439470 1_664
Be0 H20 1.451311 1_655
Be0 H30 1.464208 1_554
Be1 H9 1.502305 1_555
Be1 Li46 2.573190 1_555
Be2 H1 1.493831 1_555
Be2 H25 1.556720 1_555
Be3 H28 1.438563 1_555
Be3 H27 1.528270 1_555
Be3 H12 1.532197 1_555
Be4 H22 1.442238 1_555
Be4 Li3 2.704712 1_555
Be5 Li0 2.361404 1_555
Be5 Li41 2.478250 1_565
Be5 Li60 2.489751 1_555
Be5 Li63 2.490542 1_555
Be5 Li1 2.517920 1_655
Be5 Li4 2.665580 1_555
Be5 Li28 2.861205 1_555
Be6 H19 1.493526 1_555
Be6 Li52 2.372862 1_455
Be6 Li61 2.623451 1_555
Be7 Li59 2.411105 1_555
Be7 Li64 2.611758 1_555
Be7 Li29 2.639302 1_555
Be7 Li42 2.640173 1_555
Be7 Li1 2.759285 1_555
Be7 Li55 2.821571 1_555
Be7 Li63 2.900740 1_455
Be7 Li43 2.915640 1_565
Be8 H3 1.488884 1_555
Be8 Li46 2.676302 1_555
Be9 H10 1.465023 1_555
Be9 H21 1.491142 1_555
Be9 H7 1.575787 1_555
Be10 H24 1.461283 1_555
Be10 H13 1.484818 1_565
Be11 H16 1.461397 1_555
Be11 H26 1.520009 1_556
Be12 H0 1.496735 1_555
Be12 H34 1.506707 1_555
Be12 Li46 2.612950 1_555
Be13 H14 1.481084 1_655
Be14 H27 1.514529 1_555
Be14 Be7 2.247498 1_555
Be14 Li64 2.608624 1_555
Be15 Be5 2.133811 1_555
Be15 Li1 2.427394 1_655
Be15 Li31 2.432769 1_555
Be15 Li60 2.449571 1_555
Be15 Li41 2.453681 1_565
Be15 Li32 2.485150 1_565
Be15 Li59 2.626990 1_655
Be15 Li52 2.641620 1_565
Be15 Li63 2.672465 1_555
Be16 H29 1.457352 1_555
Be16 H26 1.545692 1_555
Be17 H11 1.453471 1_555
Be17 H25 1.545962 1_554
Be18 H3 1.645032 1_555
Be19 H9 1.497560 1_555
Be20 H33 1.415892 1_555
Be20 H20 1.596476 1_555
Be20 Li43 2.358400 1_565
Be20 Be7 2.443678 1_555
Be21 H30 1.561942 1_554
Be21 Be5 2.146043 1_555
Be21 Li3 2.778698 1_565
Be22 H12 1.464129 1_555
Be22 H7 1.535977 1_455
Be23 H5 1.460512 1_555
Be23 H18 1.471798 1_555
H0 Li45 1.861477 1_545
H0 Li19 1.936142 1_555
H0 Li22 2.055878 1_555
H0 Li24 2.242706 1_555
H1 Li29 1.851514 1_556
H1 Li23 1.889815 1_456
H2 Li22 1.903953 1_455
H2 Li20 1.946758 1_555
H2 Li25 2.115004 1_556
H2 Li36 2.187685 1_555
H3 Li62 1.934160 1_555
H3 Li32 1.963062 1_555
H3 Li15 2.180850 1_555
H4 Li65 1.784418 1_555
H4 Li13 1.803774 1_545
H4 Li59 1.829852 1_545
H4 Li10 2.000758 1_555
H4 Li34 2.136793 1_555
H5 Li45 1.879720 1_555
H5 Li38 1.947635 1_555
H5 Li16 2.176360 1_555
H6 Li50 1.882408 1_555
H6 Li13 1.898508 1_545
H6 Li51 1.944429 1_545
H6 Li20 2.009094 1_555
H6 Li18 2.109678 1_555
H6 Li44 2.235207 1_545
H7 Li48 1.984475 1_555
H7 Li30 2.048818 1_555
H7 Li9 2.140917 1_655
H8 Li14 1.723569 1_545
H8 Li53 1.765002 1_555
H8 Li11 1.928994 1_555
H8 Li32 1.934598 1_555
H8 Li60 2.206697 1_545
H9 Li65 1.840064 1_555
H9 Li11 1.882653 1_555
H10 Li19 1.821749 1_565
H10 Li44 1.822839 1_655
H10 Li31 1.875858 1_555
H11 Li29 1.799192 1_555
H11 Li58 1.800945 1_555
H11 Li42 1.807193 1_555
H12 Li9 1.932814 1_555
H12 Li12 2.045950 1_555
H13 Li56 1.806591 1_555
H13 Li2 1.925421 1_555
H13 Li24 1.989605 1_554
H14 Li10 1.940797 1_555
H14 Li50 1.964763 1_555
H14 Li19 2.024177 1_455
H15 Li4 1.896818 1_556
H15 Li16 1.939079 1_555
H15 Li48 2.046067 1_555
H15 Li28 2.086932 1_556
H15 Li38 2.115416 1_555
H15 Li23 2.154067 1_556
H16 Li16 1.914678 1_555
H16 Li38 1.949257 1_555
H16 Li21 2.214249 1_555
H16 Li5 2.297832 1_556
H17 Li14 1.864458 1_555
H17 Li45 1.926450 1_555
H17 Li51 1.974098 1_555
H17 Li26 2.024083 1_555
H17 Li18 2.068195 1_565
H18 Li8 1.891600 1_555
H18 Li27 1.943348 1_555
H18 Li26 2.054457 1_555
H18 Li15 2.094856 1_555
H19 Li55 1.919708 1_555
H19 Li9 1.948715 1_555
H19 Li35 2.012855 1_555
H19 Li12 2.102465 1_555
H19 Li33 2.222152 1_455
H20 Li1 1.768342 1_555
H21 Li33 1.862275 1_555
H21 Li31 1.863747 1_555
H21 Li9 1.926102 1_655
H21 Li8 2.065911 1_555
H22 Li56 1.807181 1_555
H22 Li53 1.887317 1_555
H22 Li57 1.904689 1_555
H22 Li41 1.950229 1_555
H23 Li33 1.855039 1_555
H23 Li54 1.893788 1_555
H23 Li8 1.913218 1_555
H23 Li15 2.012804 1_555
H23 Li62 2.142154 1_555
H23 Li40 2.151039 1_555
H24 Li0 1.776096 1_555
H24 Li5 1.859631 1_555
H24 Li38 1.907469 1_554
H25 Li36 2.065477 1_555
H25 Li47 2.222494 1_555
H26 Li6 1.808571 1_555
H26 Li28 1.898603 1_555
H27 Li35 1.888689 1_555
H27 Li9 1.983297 1_555
H28 Li27 1.865789 1_555
H28 Li26 1.871908 1_555
H28 Li21 2.203186 1_555
H28 Li51 2.242052 1_555
H29 Li28 1.831301 1_555
H29 Li23 2.030184 1_555
H29 Li40 2.084534 1_555
H29 Li7 2.167730 1_555
H30 Li4 2.087358 1_556
H30 Li22 2.196808 1_565
H31 Li63 1.849197 1_555
H31 Li33 1.850347 1_555
H31 Li55 1.873905 1_655
H31 Li40 1.945661 1_555
H31 Li7 1.996759 1_555
H32 Li20 1.868882 1_555
H32 Li36 1.884411 1_555
H32 Li17 1.953232 1_555
H32 Li2 1.971433 1_556
H32 Li50 2.160416 1_555
H33 Li37 1.712469 1_554
H33 Li29 1.726400 1_555
H33 Li5 1.766188 1_555
H34 Li39 1.855654 1_555
H34 Li49 1.976496 1_555
H34 Li24 2.064129 1_555
H34 Li22 2.187153 1_555
