# generated using pymatgen
data_MnOF
_symmetry_space_group_name_H-M   'P 1'
_cell_length_a   3.10399800
_cell_length_b   4.78788400
_cell_length_c   14.13417488
_cell_angle_alpha   87.75320936
_cell_angle_beta   90.00000000
_cell_angle_gamma   90.00000000
_symmetry_Int_Tables_number   1
_chemical_formula_structural   MnOF
_chemical_formula_sum   'Mn6 O6 F6'
_cell_volume   209.89471990
_cell_formula_units_Z   6
loop_
 _symmetry_equiv_pos_site_id
 _symmetry_equiv_pos_as_xyz
  1  'x, y, z'
loop_
 _atom_site_type_symbol
 _atom_site_label
 _atom_site_symmetry_multiplicity
 _atom_site_fract_x
 _atom_site_fract_y
 _atom_site_fract_z
 _atom_site_occupancy
  Mn  Mn0  1  0.00000000  0.00000000  0.00000000  1
  Mn  Mn1  1  0.00000000  0.95269500  0.33247900  1
  Mn  Mn2  1  0.00000000  0.04730500  0.66752100  1
  Mn  Mn3  1  0.50000000  0.41038500  0.16757700  1
  Mn  Mn4  1  0.50000000  0.50000000  0.50000000  1
  Mn  Mn5  1  0.50000000  0.58961500  0.83242300  1
  O  O0  1  0.50000000  0.83272100  0.93486800  1
  O  O1  1  0.00000000  0.76255800  0.76787600  1
  O  O2  1  0.00000000  0.67630100  0.43420600  1
  O  O3  1  0.00000000  0.23744200  0.23212400  1
  O  O4  1  0.00000000  0.32369900  0.56579400  1
  O  O5  1  0.50000000  0.16727900  0.06513200  1
  F  F0  1  0.50000000  0.74027100  0.26435200  1
  F  F1  1  0.50000000  0.84287400  0.60632000  1
  F  F2  1  0.00000000  0.64248200  0.10552500  1
  F  F3  1  0.00000000  0.35751800  0.89447500  1
  F  F4  1  0.50000000  0.15712600  0.39368000  1
  F  F5  1  0.50000000  0.25972900  0.73564800  1
loop_
_geom_bond_atom_site_label_1
_geom_bond_atom_site_label_2
_geom_bond_distance
_geom_bond_site_symmetry_2
Mn0 O5 1.988832 1_555
Mn0 O5 1.988832 1_455
Mn0 O0 1.988832 1_544
Mn0 O0 1.988832 1_444
Mn1 O2 1.915566 1_555
Mn1 O3 1.928475 1_565
Mn2 O4 1.915566 1_555
Mn2 O1 1.928475 1_545
Mn3 O5 1.893038 1_555
Mn3 O3 1.966578 1_555
Mn3 O3 1.966578 1_655
Mn4 O2 1.981027 1_555
Mn4 O2 1.981027 1_655
Mn4 O4 1.981027 1_655
Mn4 O4 1.981027 1_555
Mn5 O0 1.893038 1_555
Mn5 O1 1.966578 1_555
Mn5 O1 1.966578 1_655
F0 Mn1 2.108819 1_655
F0 Mn1 2.108819 1_555
F0 Mn3 2.129565 1_555
F1 Mn2 2.044845 1_665
F1 Mn2 2.044845 1_565
F1 Mn4 2.268625 1_555
F2 Mn3 2.082400 1_455
F2 Mn3 2.082400 1_555
F2 Mn0 2.225875 1_565
F3 Mn5 2.082400 1_555
F3 Mn5 2.082400 1_455
F3 Mn0 2.225875 1_556
F4 Mn1 2.044845 1_545
F4 Mn1 2.044845 1_645
F4 Mn4 2.268625 1_555
F5 Mn2 2.108819 1_555
F5 Mn2 2.108819 1_655
F5 Mn5 2.129565 1_555
