# generated using pymatgen
data_Na2TiSi4H4O13
_symmetry_space_group_name_H-M   'P 1'
_cell_length_a   8.84054600
_cell_length_b   7.45980000
_cell_length_c   9.03201728
_cell_angle_alpha   67.61597384
_cell_angle_beta   90.00000000
_cell_angle_gamma   90.00000000
_symmetry_Int_Tables_number   1
_chemical_formula_structural   Na2TiSi4H4O13
_chemical_formula_sum   'Na4 Ti2 Si8 H8 O26'
_cell_volume   550.76896151
_cell_formula_units_Z   2
loop_
 _symmetry_equiv_pos_site_id
 _symmetry_equiv_pos_as_xyz
  1  'x, y, z'
loop_
 _atom_site_type_symbol
 _atom_site_label
 _atom_site_symmetry_multiplicity
 _atom_site_fract_x
 _atom_site_fract_y
 _atom_site_fract_z
 _atom_site_occupancy
  Na  Na0  1  0.19066000  0.79231100  0.19687700  1
  Na  Na1  1  0.69066000  0.70768900  0.80312300  1
  Na  Na2  1  0.80934000  0.20768900  0.80312300  1
  Na  Na3  1  0.30934000  0.29231100  0.19687700  1
  Ti  Ti0  1  0.00000000  0.50000000  0.00000000  1
  Ti  Ti1  1  0.50000000  0.00000000  0.00000000  1
  Si  Si0  1  0.66050400  0.30320700  0.16008200  1
  Si  Si1  1  0.16050400  0.19679300  0.83991800  1
  Si  Si2  1  0.33949600  0.69679300  0.83991800  1
  Si  Si3  1  0.83949600  0.80320700  0.16008200  1
  Si  Si4  1  0.94072000  0.09471000  0.31502400  1
  Si  Si5  1  0.44072000  0.40529000  0.68497600  1
  Si  Si6  1  0.05928000  0.90529000  0.68497600  1
  Si  Si7  1  0.55928000  0.59471000  0.31502400  1
  H  H0  1  0.10402300  0.40551000  0.33640200  1
  H  H1  1  0.60402300  0.09449000  0.66359800  1
  H  H2  1  0.89597700  0.59449000  0.66359800  1
  H  H3  1  0.39597700  0.90551000  0.33640200  1
  H  H4  1  0.19410400  0.41865900  0.48554800  1
  H  H5  1  0.69410400  0.08134100  0.51445200  1
  H  H6  1  0.80589600  0.58134100  0.51445200  1
  H  H7  1  0.30589600  0.91865900  0.48554800  1
  O  O0  1  0.76007800  0.15436900  0.31540600  1
  O  O1  1  0.26007800  0.34563100  0.68459400  1
  O  O2  1  0.23992200  0.84563100  0.68459400  1
  O  O3  1  0.73992200  0.65436900  0.31540600  1
  O  O4  1  0.53739200  0.18439600  0.10029600  1
  O  O5  1  0.03739200  0.31560400  0.89970400  1
  O  O6  1  0.46260800  0.81560400  0.89970400  1
  O  O7  1  0.96260800  0.68439600  0.10029600  1
  O  O8  1  0.77937800  0.43177900  0.02272700  1
  O  O9  1  0.27937800  0.06822100  0.97727300  1
  O  O10  1  0.22062200  0.56822100  0.97727300  1
  O  O11  1  0.72062200  0.93177900  0.02272700  1
  O  O12  1  0.55167500  0.43060500  0.23479400  1
  O  O13  1  0.05167500  0.06939500  0.76520600  1
  O  O14  1  0.44832500  0.56939500  0.76520600  1
  O  O15  1  0.94832500  0.93060500  0.23479400  1
  O  O16  1  0.03730200  0.28675400  0.21308900  1
  O  O17  1  0.53730200  0.21324600  0.78691100  1
  O  O18  1  0.96269800  0.71324600  0.78691100  1
  O  O19  1  0.46269800  0.78675400  0.21308900  1
  O  O20  1  0.50000000  0.50000000  0.50000000  1
  O  O21  1  0.00000000  0.00000000  0.50000000  1
  O  O22  1  0.18571100  0.47404200  0.36801900  1
  O  O23  1  0.68571100  0.02595800  0.63198100  1
  O  O24  1  0.81428900  0.52595800  0.63198100  1
  O  O25  1  0.31428900  0.97404200  0.36801900  1
loop_
_geom_bond_atom_site_label_1
_geom_bond_atom_site_label_2
_geom_bond_distance
_geom_bond_site_symmetry_2
Na0 O22 2.287591 1_555
Na0 O9 2.382505 1_564
Na0 O19 2.408815 1_555
Na0 O7 2.451230 1_455
Na0 O15 2.457728 1_455
Na1 O23 2.287591 1_565
Na1 O8 2.382505 1_556
Na1 O18 2.408815 1_555
Na1 O6 2.451230 1_555
Na1 O14 2.457728 1_555
Na2 O24 2.287591 1_555
Na2 O11 2.382505 1_546
Na2 O17 2.408815 1_555
Na2 O5 2.451230 1_655
Na2 O13 2.457728 1_655
Na3 O25 2.287591 1_545
Na3 O10 2.382505 1_554
Na3 O16 2.408815 1_555
Na3 O4 2.451230 1_555
Na3 O12 2.457728 1_555
H0 O22 0.987737 1_555
H0 O16 1.767679 1_555
H1 O23 0.987737 1_555
H1 O17 1.767679 1_555
H2 O24 0.987737 1_555
H2 O18 1.767679 1_555
H3 O25 0.987737 1_555
H3 O19 1.767679 1_555
H4 O22 0.984381 1_555
H5 O23 0.984381 1_555
H6 O24 0.984381 1_555
H7 O25 0.984381 1_555
O0 Si4 1.658183 1_555
O0 Si0 1.670163 1_555
O1 Si5 1.658183 1_555
O1 Si1 1.670163 1_555
O2 Si6 1.658183 1_555
O2 Si2 1.670163 1_555
O3 Si7 1.658183 1_555
O3 Si3 1.670163 1_555
O4 Si0 1.620556 1_555
O4 Ti1 1.941929 1_555
O5 Si1 1.620556 1_555
O5 Ti0 1.941929 1_556
O6 Si2 1.620556 1_555
O6 Ti1 1.941929 1_566
O7 Si3 1.620556 1_555
O7 Ti0 1.941929 1_655
O8 Si0 1.630079 1_555
O8 Ti0 2.006415 1_655
O9 Si1 1.630079 1_555
O9 Ti1 2.006415 1_556
O10 Si2 1.630079 1_555
O10 Ti0 2.006415 1_556
O11 Si3 1.630079 1_555
O11 Ti1 2.006415 1_565
O12 Si7 1.644353 1_555
O12 Si0 1.665122 1_555
O13 Si6 1.644353 1_545
O13 Si1 1.665122 1_555
O14 Si5 1.644353 1_555
O14 Si2 1.665122 1_555
O15 Si4 1.644353 1_565
O15 Si3 1.665122 1_555
O16 Si4 1.620029 1_455
O16 Ti0 2.002913 1_555
O17 Si5 1.620029 1_555
O17 Ti1 2.002913 1_556
O18 Si6 1.620029 1_655
O18 Ti0 2.002913 1_656
O19 Si7 1.620029 1_555
O19 Ti1 2.002913 1_565
O20 Si7 1.632809 1_555
O20 Si5 1.632809 1_555
O21 Si4 1.632809 1_455
O21 Si6 1.632809 1_545
