# generated using pymatgen
data_TiCu(PO4)2
_symmetry_space_group_name_H-M   'P 1'
_cell_length_a   8.58531843
_cell_length_b   8.58531843
_cell_length_c   8.58531875
_cell_angle_alpha   60.20147293
_cell_angle_beta   60.20147293
_cell_angle_gamma   60.20147531
_symmetry_Int_Tables_number   1
_chemical_formula_structural   TiCu(PO4)2
_chemical_formula_sum   'Ti3 Cu3 P6 O24'
_cell_volume   449.50137058
_cell_formula_units_Z   3
loop_
 _symmetry_equiv_pos_site_id
 _symmetry_equiv_pos_as_xyz
  1  'x, y, z'
loop_
 _atom_site_type_symbol
 _atom_site_label
 _atom_site_symmetry_multiplicity
 _atom_site_fract_x
 _atom_site_fract_y
 _atom_site_fract_z
 _atom_site_occupancy
  Ti  Ti0  1  0.64341500  0.64341500  0.64341500  1
  Ti  Ti1  1  0.85734600  0.85734600  0.85734600  1
  Ti  Ti2  1  0.35665800  0.35665800  0.35665800  1
  Cu  Cu0  1  0.00275000  0.00275000  0.00275000  1
  Cu  Cu1  1  0.14479200  0.14479200  0.14479200  1
  Cu  Cu2  1  0.50053900  0.50053900  0.50053900  1
  P  P0  1  0.53908500  0.95886600  0.24843600  1
  P  P1  1  0.24843600  0.53908500  0.95886600  1
  P  P2  1  0.95886600  0.24843600  0.53908500  1
  P  P3  1  0.04210200  0.75323800  0.45515400  1
  P  P4  1  0.75323800  0.45515400  0.04210200  1
  P  P5  1  0.45515400  0.04210200  0.75323800  1
  O  O0  1  0.30629200  0.49783600  0.12409900  1
  O  O1  1  0.12409900  0.30629200  0.49783600  1
  O  O2  1  0.49783600  0.12409900  0.30629200  1
  O  O3  1  0.73585200  0.94429500  0.08435900  1
  O  O4  1  0.38366800  0.98509000  0.19472500  1
  O  O5  1  0.56316900  0.76603600  0.41572800  1
  O  O6  1  0.08435900  0.73585200  0.94429500  1
  O  O7  1  0.41572800  0.56316900  0.76603600  1
  O  O8  1  0.99922300  0.80884500  0.62194300  1
  O  O9  1  0.76603600  0.41572800  0.56316900  1
  O  O10  1  0.05169500  0.91631500  0.26357900  1
  O  O11  1  0.80884500  0.62194300  0.99922300  1
  O  O12  1  0.19472500  0.38366800  0.98509000  1
  O  O13  1  0.94429500  0.08435900  0.73585200  1
  O  O14  1  0.23376600  0.58495200  0.44386100  1
  O  O15  1  0.98509000  0.19472500  0.38366800  1
  O  O16  1  0.58495200  0.44386100  0.23376600  1
  O  O17  1  0.91631500  0.26357900  0.05169500  1
  O  O18  1  0.44386100  0.23376600  0.58495200  1
  O  O19  1  0.62194300  0.99922300  0.80884500  1
  O  O20  1  0.26357900  0.05169500  0.91631500  1
  O  O21  1  0.50268600  0.87865900  0.69093400  1
  O  O22  1  0.87865900  0.69093400  0.50268600  1
  O  O23  1  0.69093400  0.50268600  0.87865900  1
loop_
_geom_bond_atom_site_label_1
_geom_bond_atom_site_label_2
_geom_bond_distance
_geom_bond_site_symmetry_2
Cu0 O20 2.171504 1_554
Cu0 O17 2.171505 1_455
Cu0 O10 2.171505 1_545
Cu0 O3 2.278397 1_445
Cu0 O6 2.278397 1_544
Cu0 O13 2.278397 1_454
Cu1 O12 1.940219 1_554
Cu1 O4 1.940219 1_545
Cu1 O15 1.940219 1_455
Cu1 O10 2.070363 1_545
Cu1 O17 2.070363 1_455
Cu1 O20 2.070363 1_554
Cu2 O18 2.261653 1_555
Cu2 O14 2.261653 1_555
Cu2 O16 2.261653 1_555
Cu2 O5 2.279102 1_555
Cu2 O9 2.279102 1_555
Cu2 O7 2.279102 1_555
O0 P1 1.552640 1_554
O0 Ti2 1.890604 1_555
O1 P2 1.552640 1_455
O1 Ti2 1.890604 1_555
O2 P0 1.552640 1_545
O2 Ti2 1.890604 1_555
O3 P0 1.566422 1_555
O3 Ti1 2.023698 1_554
O4 P0 1.501154 1_555
O5 P0 1.561407 1_555
O5 Ti0 1.994076 1_555
O6 P1 1.566422 1_555
O6 Ti1 2.023698 1_455
O7 P1 1.561407 1_555
O7 Ti0 1.994076 1_555
O8 P3 1.547489 1_655
O8 Ti1 1.904505 1_555
O9 P2 1.561408 1_555
O9 Ti0 1.994076 1_555
O10 P3 1.537333 1_555
O11 P4 1.547489 1_556
O11 Ti1 1.904505 1_555
O12 P1 1.501154 1_555
O13 P2 1.566422 1_555
O13 Ti1 2.023698 1_545
O14 P3 1.556352 1_555
O14 Ti2 2.033032 1_555
O15 P2 1.501154 1_555
O16 P4 1.556352 1_555
O16 Ti2 2.033032 1_555
O17 P4 1.537333 1_555
O18 P5 1.556352 1_555
O18 Ti2 2.033032 1_555
O19 P5 1.547489 1_565
O19 Ti1 1.904505 1_555
O20 P5 1.537333 1_555
O21 P5 1.543233 1_565
O21 Ti0 1.899714 1_555
O22 P3 1.543233 1_655
O22 Ti0 1.899714 1_555
O23 P4 1.543233 1_556
O23 Ti0 1.899714 1_555
