# generated using pymatgen
data_Mn6O5F7
_symmetry_space_group_name_H-M   'P 1'
_cell_length_a   4.72404604
_cell_length_b   5.73637296
_cell_length_c   15.64523446
_cell_angle_alpha   90.76267728
_cell_angle_beta   90.05802269
_cell_angle_gamma   86.95766173
_symmetry_Int_Tables_number   1
_chemical_formula_structural   Mn6O5F7
_chemical_formula_sum   'Mn12 O10 F14'
_cell_volume   423.33341367
_cell_formula_units_Z   2
loop_
 _symmetry_equiv_pos_site_id
 _symmetry_equiv_pos_as_xyz
  1  'x, y, z'
loop_
 _atom_site_type_symbol
 _atom_site_label
 _atom_site_symmetry_multiplicity
 _atom_site_fract_x
 _atom_site_fract_y
 _atom_site_fract_z
 _atom_site_occupancy
  Mn  Mn0  1  0.02681600  0.16500900  0.41737500  1
  Mn  Mn1  1  0.03753900  0.83110100  0.24561900  1
  Mn  Mn2  1  0.00182900  0.14756400  0.07745800  1
  Mn  Mn3  1  0.01721000  0.17958800  0.75249800  1
  Mn  Mn4  1  0.00614400  0.83732800  0.57599200  1
  Mn  Mn5  1  0.01893800  0.85812300  0.90997000  1
  Mn  Mn6  1  0.49898400  0.34804000  0.58676600  1
  Mn  Mn7  1  0.47513500  0.32941000  0.92180500  1
  Mn  Mn8  1  0.52206000  0.35737500  0.26028800  1
  Mn  Mn9  1  0.49466200  0.64811600  0.08190700  1
  Mn  Mn10  1  0.47553800  0.63842700  0.41568500  1
  Mn  Mn11  1  0.49492600  0.64286100  0.75681100  1
  O  O0  1  0.20837700  0.10406200  0.96911100  1
  O  O1  1  0.23027900  0.88257400  0.13149300  1
  O  O2  1  0.23008900  0.88535300  0.46709800  1
  O  O3  1  0.22529700  0.89212000  0.80497200  1
  O  O4  1  0.29099900  0.60742500  0.30872900  1
  O  O5  1  0.27672500  0.38954700  0.47901300  1
  O  O6  1  0.28070900  0.40130500  0.81606900  1
  O  O7  1  0.70114800  0.36983300  0.02848600  1
  O  O8  1  0.74005500  0.39383900  0.36414300  1
  O  O9  1  0.71921900  0.38675000  0.69515800  1
  F  F0  1  0.24498200  0.11081200  0.30210000  1
  F  F1  1  0.22629400  0.11191600  0.63786100  1
  F  F2  1  0.27351500  0.38587400  0.15238700  1
  F  F3  1  0.25337000  0.60512800  0.64302500  1
  F  F4  1  0.24668000  0.60366400  0.97958400  1
  F  F5  1  0.73835800  0.62359900  0.18672500  1
  F  F6  1  0.71158200  0.62427600  0.52409700  1
  F  F7  1  0.75332600  0.62680700  0.86770300  1
  F  F8  1  0.77931300  0.12817400  0.19307300  1
  F  F9  1  0.76351700  0.12141400  0.52772600  1
  F  F10  1  0.77786200  0.89253600  0.35588400  1
  F  F11  1  0.76045500  0.87065500  0.01473500  1
  F  F12  1  0.74664500  0.12572200  0.85641300  1
  F  F13  1  0.75142700  0.87367600  0.69223600  1
loop_
_geom_bond_atom_site_label_1
_geom_bond_atom_site_label_2
_geom_bond_distance
_geom_bond_site_symmetry_2
Mn0 O2 1.992229 1_545
Mn0 O8 2.022341 1_455
Mn0 O5 2.027017 1_555
Mn1 O4 1.980691 1_555
Mn1 O1 2.037202 1_555
Mn2 O0 1.963161 1_554
Mn2 O1 2.012027 1_545
Mn2 O7 2.015412 1_455
Mn3 O9 2.011695 1_455
Mn3 O3 2.054731 1_545
Mn3 O6 2.070785 1_555
Mn4 O2 2.035850 1_555
Mn5 O3 1.928429 1_555
Mn5 O0 1.935188 1_565
Mn6 O5 1.995412 1_555
Mn6 O9 2.004611 1_555
Mn7 O6 1.930066 1_555
Mn7 O7 1.997958 1_556
Mn7 O0 2.001777 1_555
Mn8 O4 1.905209 1_555
Mn8 O8 1.937730 1_555
Mn9 O1 1.940742 1_555
Mn9 O7 1.999792 1_555
Mn10 O4 1.896654 1_555
Mn10 O2 1.948090 1_555
Mn10 O8 1.991507 1_555
Mn10 O5 2.020855 1_555
Mn11 O6 1.997147 1_555
Mn11 O9 2.002648 1_555
Mn11 O3 2.003635 1_555
F0 Mn8 2.089153 1_555
F0 Mn0 2.089569 1_555
F0 Mn1 2.107868 1_545
F1 Mn3 2.070595 1_555
F1 Mn6 2.085491 1_555
F1 Mn4 2.151942 1_545
F2 Mn8 2.058662 1_555
F2 Mn9 2.187143 1_555
F2 Mn2 2.242949 1_555
F3 Mn6 2.020341 1_555
F3 Mn4 2.026732 1_555
F3 Mn11 2.128379 1_555
F4 Mn9 2.004296 1_556
F4 Mn7 2.059325 1_555
F4 Mn5 2.085084 1_555
F5 Mn9 2.004874 1_555
F5 Mn1 2.100027 1_655
F5 Mn8 2.217138 1_555
F6 Mn10 2.029060 1_555
F6 Mn4 2.059367 1_655
F6 Mn6 2.166381 1_555
F7 Mn5 1.980938 1_655
F7 Mn11 2.120517 1_555
F7 Mn7 2.373308 1_555
F8 Mn8 2.026715 1_555
F8 Mn2 2.100191 1_655
F8 Mn1 2.209651 1_645
F9 Mn6 1.975558 1_555
F9 Mn4 2.091021 1_645
F9 Mn0 2.153884 1_655
F10 Mn1 2.132442 1_655
F10 Mn0 2.214600 1_665
F10 Mn10 2.302143 1_555
F11 Mn5 2.043129 1_654
F11 Mn9 2.125833 1_555
F11 Mn2 2.221454 1_665
F12 Mn7 1.966925 1_555
F12 Mn3 2.105190 1_655
F12 Mn5 2.129686 1_645
F13 Mn11 2.109605 1_555
F13 Mn4 2.183264 1_655
F13 Mn3 2.394202 1_665
