# generated using pymatgen
data_Cs2InCl5O
_symmetry_space_group_name_H-M   'P 1'
_cell_length_a   7.85827700
_cell_length_b   11.07223300
_cell_length_c   14.47963900
_cell_angle_alpha   90.00000000
_cell_angle_beta   90.00000000
_cell_angle_gamma   90.00000000
_symmetry_Int_Tables_number   1
_chemical_formula_structural   Cs2InCl5O
_chemical_formula_sum   'Cs8 In4 Cl20 O4'
_cell_volume   1259.85418827
_cell_formula_units_Z   4
loop_
 _symmetry_equiv_pos_site_id
 _symmetry_equiv_pos_as_xyz
  1  'x, y, z'
loop_
 _atom_site_type_symbol
 _atom_site_label
 _atom_site_symmetry_multiplicity
 _atom_site_fract_x
 _atom_site_fract_y
 _atom_site_fract_z
 _atom_site_occupancy
  Cs  Cs0  1  0.67142300  0.99407400  0.86199100  1
  Cs  Cs1  1  0.82857700  0.50592600  0.36199100  1
  Cs  Cs2  1  0.32857700  0.49407400  0.13800900  1
  Cs  Cs3  1  0.17142300  0.00592600  0.63800900  1
  Cs  Cs4  1  0.32857700  0.00592600  0.13800900  1
  Cs  Cs5  1  0.17142300  0.49407400  0.63800900  1
  Cs  Cs6  1  0.67142300  0.50592600  0.86199100  1
  Cs  Cs7  1  0.82857700  0.99407400  0.36199100  1
  In  In0  1  0.72144500  0.25000000  0.61175500  1
  In  In1  1  0.77855500  0.25000000  0.11175500  1
  In  In2  1  0.27855500  0.75000000  0.38824500  1
  In  In3  1  0.22144500  0.75000000  0.88824500  1
  Cl  Cl0  1  0.41994300  0.25000000  0.71153800  1
  Cl  Cl1  1  0.08005700  0.25000000  0.21153800  1
  Cl  Cl2  1  0.58005700  0.75000000  0.28846200  1
  Cl  Cl3  1  0.91994300  0.75000000  0.78846200  1
  Cl  Cl4  1  0.89544400  0.25000000  0.75322200  1
  Cl  Cl5  1  0.60455600  0.25000000  0.25322200  1
  Cl  Cl6  1  0.10455600  0.75000000  0.24677800  1
  Cl  Cl7  1  0.39544400  0.75000000  0.74677800  1
  Cl  Cl8  1  0.95489800  0.25000000  0.49507800  1
  Cl  Cl9  1  0.54510200  0.25000000  0.99507800  1
  Cl  Cl10  1  0.04510200  0.75000000  0.50492200  1
  Cl  Cl11  1  0.45489800  0.75000000  0.00492200  1
  Cl  Cl12  1  0.68155500  0.02441700  0.60129800  1
  Cl  Cl13  1  0.81844500  0.47558300  0.10129800  1
  Cl  Cl14  1  0.31844500  0.52441700  0.39870200  1
  Cl  Cl15  1  0.18155500  0.97558300  0.89870200  1
  Cl  Cl16  1  0.31844500  0.97558300  0.39870200  1
  Cl  Cl17  1  0.18155500  0.52441700  0.89870200  1
  Cl  Cl18  1  0.68155500  0.47558300  0.60129800  1
  Cl  Cl19  1  0.81844500  0.02441700  0.10129800  1
  O  O0  1  0.46927200  0.25000000  0.54688500  1
  O  O1  1  0.03072800  0.25000000  0.04688500  1
  O  O2  1  0.53072800  0.75000000  0.45311500  1
  O  O3  1  0.96927200  0.75000000  0.95311500  1
loop_
_geom_bond_atom_site_label_1
_geom_bond_atom_site_label_2
_geom_bond_distance
_geom_bond_site_symmetry_2
Cs0 O3 3.810833 1_555
Cs1 O2 3.810833 1_555
Cs2 O1 3.810833 1_555
Cs3 O0 3.810833 1_555
Cs4 O1 3.810833 1_555
Cs5 O0 3.810833 1_555
Cs6 O3 3.810833 1_555
Cs7 O2 3.810833 1_555
In0 O0 2.192987 1_555
In1 O1 2.192987 1_655
In2 O2 2.192987 1_555
In3 O3 2.192987 1_455
Cl0 O0 2.415424 1_555
Cl0 In0 2.775072 1_555
Cl0 Cs5 3.500101 1_555
Cl0 Cs3 3.500101 1_555
Cl0 Cs6 4.084232 1_555
Cl0 Cs0 4.084232 1_545
Cl1 O1 2.415424 1_555
Cl1 In1 2.775072 1_455
Cl1 Cs2 3.500101 1_555
Cl1 Cs4 3.500101 1_555
Cl1 Cs7 4.084232 1_445
Cl1 Cs1 4.084232 1_455
Cl2 O2 2.415424 1_555
Cl2 In2 2.775072 1_555
Cl2 Cs7 3.500101 1_555
Cl2 Cs1 3.500101 1_555
Cl2 Cs2 4.084232 1_555
Cl2 Cs4 4.084232 1_565
Cl3 O3 2.415424 1_555
Cl3 In3 2.775072 1_655
Cl3 Cs0 3.500101 1_555
Cl3 Cs6 3.500101 1_555
Cl3 Cs5 4.084232 1_655
Cl3 Cs3 4.084232 1_665
Cl4 In0 2.462824 1_555
Cl4 Cs6 3.689065 1_555
Cl4 Cs0 3.689065 1_545
Cl4 Cs3 3.845723 1_655
Cl4 Cs5 3.845723 1_655
Cl5 In1 2.462824 1_555
Cl5 Cs1 3.689065 1_555
Cl5 Cs7 3.689065 1_545
Cl5 Cs2 3.845723 1_555
Cl5 Cs4 3.845723 1_555
Cl6 In2 2.462824 1_555
Cl6 Cs2 3.689065 1_555
Cl6 Cs4 3.689065 1_565
Cl6 Cs7 3.845723 1_455
Cl6 Cs1 3.845723 1_455
Cl7 In3 2.462824 1_555
Cl7 Cs5 3.689065 1_555
Cl7 Cs3 3.689065 1_565
Cl7 Cs6 3.845723 1_555
Cl7 Cs0 3.845723 1_555
Cl8 In0 2.493941 1_555
Cl8 Cs1 3.567718 1_555
Cl8 Cs7 3.567718 1_545
Cl8 Cs5 3.805463 1_655
Cl8 Cs3 3.805463 1_655
Cl9 In1 2.493941 1_556
Cl9 Cs6 3.567718 1_555
Cl9 Cs0 3.567718 1_545
Cl9 Cs2 3.805463 1_556
Cl9 Cs4 3.805463 1_556
Cl10 In2 2.493941 1_555
Cl10 Cs5 3.567718 1_555
Cl10 Cs3 3.567718 1_565
Cl10 Cs1 3.805463 1_455
Cl10 Cs7 3.805463 1_455
Cl11 In3 2.493941 1_554
Cl11 Cs2 3.567718 1_555
Cl11 Cs4 3.567718 1_565
Cl11 Cs0 3.805463 1_554
Cl11 Cs6 3.805463 1_554
Cl12 In0 2.521851 1_555
Cl12 Cs7 3.668031 1_545
Cl12 Cs0 3.790498 1_545
Cl12 Cs3 3.891435 1_655
Cl12 Cs3 4.049027 1_555
Cl13 In1 2.521851 1_555
Cl13 Cs6 3.668031 1_554
Cl13 Cs1 3.790498 1_555
Cl13 Cs2 3.891435 1_555
Cl13 Cs2 4.049027 1_655
Cl14 In2 2.521851 1_555
Cl14 Cs5 3.668031 1_555
Cl14 Cs2 3.790498 1_555
Cl14 Cs1 3.891435 1_455
Cl14 Cs1 4.049027 1_555
Cl15 In3 2.521851 1_555
Cl15 Cs4 3.668031 1_566
Cl15 Cs3 3.790498 1_565
Cl15 Cs0 3.891435 1_555
Cl15 Cs0 4.049027 1_455
Cl16 In2 2.521851 1_555
Cl16 Cs3 3.668031 1_565
Cl16 Cs4 3.790498 1_565
Cl16 Cs7 3.891435 1_455
Cl16 Cs7 4.049027 1_555
Cl17 In3 2.521851 1_555
Cl17 Cs2 3.668031 1_556
Cl17 Cs5 3.790498 1_555
Cl17 Cs6 3.891435 1_555
Cl17 Cs6 4.049027 1_455
Cl18 In0 2.521851 1_555
Cl18 Cs1 3.668031 1_555
Cl18 Cs6 3.790498 1_555
Cl18 Cs5 3.891435 1_655
Cl18 Cs5 4.049027 1_555
Cl19 In1 2.521851 1_555
Cl19 Cs0 3.668031 1_544
Cl19 Cs7 3.790498 1_545
Cl19 Cs4 3.891435 1_555
Cl19 Cs4 4.049027 1_655
