# generated using pymatgen
data_Ba3Nb2(OF3)4
_symmetry_space_group_name_H-M   'P 1'
_cell_length_a   11.92932775
_cell_length_b   11.92932775
_cell_length_c   7.96914400
_cell_angle_alpha   90.00000000
_cell_angle_beta   90.00000000
_cell_angle_gamma   141.48833712
_symmetry_Int_Tables_number   1
_chemical_formula_structural   Ba3Nb2(OF3)4
_chemical_formula_sum   'Ba6 Nb4 O8 F24'
_cell_volume   706.16192518
_cell_formula_units_Z   2
loop_
 _symmetry_equiv_pos_site_id
 _symmetry_equiv_pos_as_xyz
  1  'x, y, z'
loop_
 _atom_site_type_symbol
 _atom_site_label
 _atom_site_symmetry_multiplicity
 _atom_site_fract_x
 _atom_site_fract_y
 _atom_site_fract_z
 _atom_site_occupancy
  Ba  Ba0  1  0.90034600  0.90034600  0.50388000  1
  Ba  Ba1  1  0.09965400  0.09965400  0.00388000  1
  Ba  Ba2  1  0.87746600  0.49316400  0.28789200  1
  Ba  Ba3  1  0.49316400  0.87746600  0.28789200  1
  Ba  Ba4  1  0.12253400  0.50683600  0.78789200  1
  Ba  Ba5  1  0.50683600  0.12253400  0.78789200  1
  Nb  Nb0  1  0.08030100  0.36237200  0.29292400  1
  Nb  Nb1  1  0.36237200  0.08030100  0.29292400  1
  Nb  Nb2  1  0.91969900  0.63762800  0.79292400  1
  Nb  Nb3  1  0.63762800  0.91969900  0.79292400  1
  O  O0  1  0.85025800  0.22709000  0.28645100  1
  O  O1  1  0.22709000  0.85025800  0.28645100  1
  O  O2  1  0.14974200  0.77291000  0.78645100  1
  O  O3  1  0.77291000  0.14974200  0.78645100  1
  O  O4  1  0.73478300  0.73478300  0.12390600  1
  O  O5  1  0.26521700  0.26521700  0.62390600  1
  O  O6  1  0.53041200  0.53041200  0.99064900  1
  O  O7  1  0.46958800  0.46958800  0.49064900  1
  F  F0  1  0.14656700  0.55173700  0.13930300  1
  F  F1  1  0.55173700  0.14656700  0.13930300  1
  F  F2  1  0.85343300  0.44826300  0.63930300  1
  F  F3  1  0.44826300  0.85343300  0.63930300  1
  F  F4  1  0.10230600  0.32320600  0.04636900  1
  F  F5  1  0.32320600  0.10230600  0.04636900  1
  F  F6  1  0.89769400  0.67679400  0.54636900  1
  F  F7  1  0.67679400  0.89769400  0.54636900  1
  F  F8  1  0.02596300  0.14894100  0.28901700  1
  F  F9  1  0.14894100  0.02596300  0.28901700  1
  F  F10  1  0.97403700  0.85105900  0.78901700  1
  F  F11  1  0.85105900  0.97403700  0.78901700  1
  F  F12  1  0.08553100  0.31248600  0.53493200  1
  F  F13  1  0.31248600  0.08553100  0.53493200  1
  F  F14  1  0.91446900  0.68751400  0.03493200  1
  F  F15  1  0.68751400  0.91446900  0.03493200  1
  F  F16  1  0.14111400  0.55072300  0.44206800  1
  F  F17  1  0.55072300  0.14111400  0.44206800  1
  F  F18  1  0.85888600  0.44927700  0.94206800  1
  F  F19  1  0.44927700  0.85888600  0.94206800  1
  F  F20  1  0.36174600  0.56499600  0.29617600  1
  F  F21  1  0.56499600  0.36174600  0.29617600  1
  F  F22  1  0.63825400  0.43500400  0.79617600  1
  F  F23  1  0.43500400  0.63825400  0.79617600  1
loop_
_geom_bond_atom_site_label_1
_geom_bond_atom_site_label_2
_geom_bond_distance
_geom_bond_site_symmetry_2
Ba0 F9 2.649038 1_665
Ba0 F8 2.649038 1_665
Ba0 F10 2.662837 1_555
Ba0 F11 2.662837 1_555
Ba0 F6 2.663752 1_555
Ba0 F7 2.663752 1_555
Ba0 O5 3.026051 1_665
Ba0 O4 3.296393 1_555
Ba0 O7 3.390959 1_555
Ba1 F11 2.649038 1_444
Ba1 F10 2.649038 1_444
Ba1 F8 2.662837 1_555
Ba1 F9 2.662837 1_555
Ba1 F4 2.663752 1_555
Ba1 F5 2.663752 1_555
Ba1 O4 3.026051 1_445
Ba1 O5 3.296393 1_554
Ba1 O6 3.390959 1_554
Ba2 F21 2.685421 1_555
Ba2 F18 2.781497 1_554
Ba2 O1 2.781619 1_655
Ba2 F2 2.823344 1_555
Ba2 F14 2.834126 1_555
Ba2 F6 2.876209 1_555
Ba2 F1 2.907494 1_555
Ba2 F16 2.914330 1_655
Ba2 O0 2.927120 1_555
Ba2 F0 2.947100 1_655
Ba2 F17 2.953334 1_555
Ba3 F20 2.685421 1_555
Ba3 F19 2.781497 1_554
Ba3 O0 2.781619 1_565
Ba3 F3 2.823344 1_555
Ba3 F15 2.834126 1_555
Ba3 F7 2.876209 1_555
Ba3 F0 2.907494 1_555
Ba3 F17 2.914330 1_565
Ba3 O1 2.927120 1_555
Ba3 F1 2.947100 1_565
Ba3 F16 2.953334 1_555
Ba4 F23 2.685421 1_555
Ba4 F16 2.781497 1_555
Ba4 O3 2.781619 1_455
Ba4 F0 2.823344 1_556
Ba4 F12 2.834126 1_555
Ba4 F4 2.876209 1_556
Ba4 F3 2.907494 1_555
Ba4 F18 2.914330 1_455
Ba4 O2 2.927120 1_555
Ba4 F2 2.947100 1_455
Ba4 F19 2.953334 1_555
Ba5 F22 2.685421 1_555
Ba5 F17 2.781497 1_555
Ba5 O2 2.781619 1_545
Ba5 F1 2.823344 1_556
Ba5 F13 2.834126 1_555
Ba5 F5 2.876209 1_556
Ba5 F2 2.907494 1_555
Ba5 F19 2.914330 1_545
Ba5 O3 2.927120 1_555
Ba5 F3 2.947100 1_545
Ba5 F18 2.953334 1_555
Nb0 O0 1.790870 1_455
Nb1 O1 1.790870 1_545
Nb2 O2 1.790870 1_655
Nb3 O3 1.790870 1_565
O4 O6 1.927054 1_554
O5 O7 1.927054 1_555
F0 Nb0 2.105246 1_555
F1 Nb1 2.105246 1_555
F2 Nb2 2.105246 1_555
F3 Nb3 2.105246 1_555
F4 Nb0 2.083198 1_555
F5 Nb1 2.083198 1_555
F6 Nb2 2.083198 1_555
F7 Nb3 2.083198 1_555
F8 Nb0 2.078673 1_555
F9 Nb1 2.078673 1_555
F10 Nb2 2.078673 1_555
F11 Nb3 2.078673 1_555
F12 Nb0 2.033626 1_555
F13 Nb1 2.033626 1_555
F14 Nb2 2.033626 1_554
F15 Nb3 2.033626 1_554
F16 Nb0 2.106315 1_555
F17 Nb1 2.106315 1_555
F18 Nb2 2.106315 1_555
F19 Nb3 2.106315 1_555
F20 Nb0 2.101274 1_555
F21 Nb1 2.101274 1_555
F22 Nb2 2.101274 1_555
F23 Nb3 2.101274 1_555
