# generated using pymatgen
data_Na2Ca29ZrSi16(O7F2)8
_symmetry_space_group_name_H-M   'P 1'
_cell_length_a   7.75027500
_cell_length_b   11.38093315
_cell_length_c   20.22545509
_cell_angle_alpha   85.41554640
_cell_angle_beta   84.58918270
_cell_angle_gamma   88.57269025
_symmetry_Int_Tables_number   1
_chemical_formula_structural   Na2Ca29ZrSi16(O7F2)8
_chemical_formula_sum   'Na2 Ca29 Zr1 Si16 O56 F16'
_cell_volume   1770.09087704
_cell_formula_units_Z   1
loop_
 _symmetry_equiv_pos_site_id
 _symmetry_equiv_pos_as_xyz
  1  'x, y, z'
loop_
 _atom_site_type_symbol
 _atom_site_label
 _atom_site_symmetry_multiplicity
 _atom_site_fract_x
 _atom_site_fract_y
 _atom_site_fract_z
 _atom_site_occupancy
  Na  Na0  1  0.84898100  0.13692600  0.44456300  1
  Na  Na1  1  0.36924900  0.62531800  0.30290600  1
  Ca  Ca0  1  0.16247900  0.57767000  0.92401800  1
  Ca  Ca1  1  0.35454500  0.00525900  0.66136500  1
  Ca  Ca2  1  0.32788500  0.72711600  0.78278900  1
  Ca  Ca3  1  0.41097500  0.11864600  0.95679000  1
  Ca  Ca4  1  0.60788800  0.86100100  0.52164500  1
  Ca  Ca5  1  0.68586200  0.35315000  0.71282600  1
  Ca  Ca6  1  0.71143900  0.92389600  0.82034900  1
  Ca  Ca7  1  0.83853900  0.99130700  0.15790000  1
  Ca  Ca8  1  0.58338000  0.42585200  0.91206900  1
  Ca  Ca9  1  0.84003700  0.64834400  0.18401600  1
  Ca  Ca10  1  0.91233200  0.60261800  0.57661700  1
  Ca  Ca11  1  0.79452700  0.08282100  0.63345500  1
  Ca  Ca12  1  0.09762700  0.84898000  0.01042300  1
  Ca  Ca13  1  0.80856000  0.59832300  0.78287500  1
  Ca  Ca14  1  0.13385300  0.42153900  0.22652700  1
  Ca  Ca15  1  0.90122100  0.13299600  0.98977400  1
  Ca  Ca16  1  0.16102100  0.89793900  0.32319200  1
  Ca  Ca17  1  0.09197600  0.45357200  0.42639000  1
  Ca  Ca18  1  0.10256700  0.91595200  0.53676200  1
  Ca  Ca19  1  0.18981300  0.37822500  0.75600000  1
  Ca  Ca20  1  0.42478200  0.54891300  0.10093400  1
  Ca  Ca21  1  0.13742100  0.00134200  0.83099800  1
  Ca  Ca22  1  0.28206800  0.07983800  0.18733600  1
  Ca  Ca23  1  0.42974400  0.18188400  0.49361700  1
  Ca  Ca24  1  0.39558700  0.53325300  0.58994400  1
  Ca  Ca25  1  0.57204200  0.87169500  0.05401300  1
  Ca  Ca26  1  0.61966000  0.35310500  0.24810800  1
  Ca  Ca27  1  0.62926000  0.99594400  0.32771000  1
  Ca  Ca28  1  0.87008400  0.38658100  0.07997100  1
  Zr  Zr0  1  0.63993300  0.50673900  0.40501800  1
  Si  Si0  1  0.45763900  0.12647400  0.77347300  1
  Si  Si1  1  0.53747500  0.73434100  0.91084900  1
  Si  Si2  1  0.75004400  0.35062900  0.51465600  1
  Si  Si3  1  0.67006100  0.77215500  0.66008900  1
  Si  Si4  1  0.96356400  0.15624400  0.27173100  1
  Si  Si5  1  0.93611100  0.73992400  0.42247900  1
  Si  Si6  1  0.76739800  0.19622700  0.86382700  1
  Si  Si7  1  0.78125500  0.62213900  0.01052800  1
  Si  Si8  1  0.24570100  0.35255300  0.99831500  1
  Si  Si9  1  0.22863800  0.78479600  0.14455900  1
  Si  Si10  1  0.02269600  0.31233000  0.61860600  1
  Si  Si11  1  0.99107100  0.84178000  0.71678100  1
  Si  Si12  1  0.22604500  0.14373300  0.37785700  1
  Si  Si13  1  0.29366100  0.68463400  0.46430700  1
  Si  Si14  1  0.48557800  0.24765300  0.10259300  1
  Si  Si15  1  0.51202300  0.86542100  0.22359500  1
  O  O0  1  0.07816400  0.27098600  0.01765500  1
  O  O1  1  0.26507700  0.18437200  0.78592000  1
  O  O2  1  0.21472200  0.80410100  0.88671900  1
  O  O3  1  0.22855900  0.47736300  0.03370200  1
  O  O4  1  0.34002100  0.80829200  0.93961700  1
  O  O5  1  0.29376200  0.37714800  0.91846000  1
  O  O6  1  0.67917200  0.22124300  0.54104800  1
  O  O7  1  0.62888200  0.68576900  0.60219400  1
  O  O8  1  0.43058100  0.98201200  0.78012800  1
  O  O9  1  0.60271500  0.72702300  0.73630200  1
  O  O10  1  0.55999300  0.16682900  0.70114600  1
  O  O11  1  0.45554800  0.61042800  0.89238900  1
  O  O12  1  0.57461200  0.15546300  0.83554800  1
  O  O13  1  0.75653200  0.18449900  0.28097700  1
  O  O14  1  0.60337500  0.70568100  0.99110000  1
  O  O15  1  0.88062100  0.84338700  0.36916700  1
  O  O16  1  0.59038800  0.44949600  0.51386200  1
  O  O17  1  0.87812500  0.07037300  0.86437500  1
  O  O18  1  0.90769100  0.77116100  0.50080200  1
  O  O19  1  0.82694200  0.36171500  0.43569700  1
  O  O20  1  0.60946900  0.90625400  0.63683800  1
  O  O21  1  0.91380200  0.39586300  0.55395800  1
  O  O22  1  0.89492500  0.77221500  0.65820800  1
  O  O23  1  0.12580800  0.58416900  0.14853300  1
  O  O24  1  0.99644400  0.01849700  0.25127100  1
  O  O25  1  0.16116400  0.41100400  0.63444700  1
  O  O26  1  0.95354600  0.77434600  0.79145200  1
  O  O27  1  0.14975300  0.66808500  0.20215300  1
  O  O28  1  0.86008700  0.28487100  0.79543200  1
  O  O29  1  0.08936900  0.23317000  0.21632100  1
  O  O30  1  0.86378100  0.60533100  0.41912300  1
  O  O31  1  0.90437700  0.97296500  0.72314600  1
  O  O32  1  0.92673700  0.39822000  0.81680400  1
  O  O33  1  0.03391700  0.17635900  0.34665500  1
  O  O34  1  0.16077400  0.72892700  0.40430900  1
  O  O35  1  0.33371700  0.06560500  0.32226700  1
  O  O36  1  0.32126500  0.78478100  0.51490800  1
  O  O37  1  0.15528600  0.20676200  0.57142400  1
  O  O38  1  0.04893900  0.85351900  0.12673300  1
  O  O39  1  0.19771700  0.56972600  0.50590800  1
  O  O40  1  0.10416700  0.08874800  0.60813900  1
  O  O41  1  0.42931400  0.27981300  0.02104900  1
  O  O42  1  0.19901300  0.84101400  0.69417800  1
  O  O43  1  0.30247000  0.86660400  0.20455000  1
  O  O44  1  0.58262100  0.36595700  0.12091300  1
  O  O45  1  0.49300100  0.81933000  0.30080000  1
  O  O46  1  0.53323700  0.35313500  0.36951700  1
  O  O47  1  0.56524400  0.00502400  0.21324200  1
  O  O48  1  0.39744500  0.44703700  0.37995000  1
  O  O49  1  0.48353700  0.65014000  0.42799600  1
  O  O50  1  0.73618000  0.59500100  0.09103200  1
  O  O51  1  0.65552000  0.14792400  0.07446200  1
  O  O52  1  0.78452500  0.49542900  0.97684600  1
  O  O53  1  0.82600900  0.17515900  0.09968600  1
  O  O54  1  0.64776600  0.80256100  0.16933300  1
  O  O55  1  0.95926400  0.69101300  0.98827100  1
  F  F0  1  0.15510700  0.03588100  0.94480000  1
  F  F1  1  0.44396400  0.45239900  0.69036900  1
  F  F2  1  0.59732100  0.04278100  0.43451200  1
  F  F3  1  0.59605300  0.45449500  0.80191000  1
  F  F4  1  0.85904200  0.43660800  0.19440300  1
  F  F5  1  0.60317300  0.97744800  0.95360700  1
  F  F6  1  0.83703200  0.99723800  0.53359300  1
  F  F7  1  0.83690600  0.52022500  0.68344700  1
  F  F8  1  0.08861700  0.49585300  0.32002600  1
  F  F9  1  0.13139400  0.01362300  0.43108500  1
  F  F10  1  0.35256900  0.00925500  0.06067700  1
  F  F11  1  0.16444700  0.56341100  0.80415800  1
  F  F12  1  0.40832800  0.48720000  0.21974000  1
  F  F13  1  0.39193200  0.00596700  0.54724700  1
  F  F14  1  0.68801500  0.54885800  0.29796100  1
  F  F15  1  0.84613300  0.94907900  0.04065400  1
loop_
_geom_bond_atom_site_label_1
_geom_bond_atom_site_label_2
_geom_bond_distance
_geom_bond_site_symmetry_2
Na0 O33 2.351978 1_655
Na0 O6 2.492615 1_555
Na0 O19 2.552831 1_555
Na1 O45 2.424851 1_555
Na1 O48 2.475776 1_555
Na1 O27 2.781605 1_555
Na1 O49 2.795468 1_555
Na1 O34 2.806075 1_555
Ca0 O11 2.331814 1_555
Ca0 O55 2.369407 1_455
Ca0 F11 2.441151 1_555
Ca0 O5 2.481888 1_555
Ca0 O3 2.503427 1_556
Ca0 O2 2.656606 1_555
Ca1 O42 2.269510 1_545
Ca1 O20 2.283160 1_545
Ca1 F13 2.298328 1_555
Ca1 O40 2.442514 1_555
Ca1 O8 2.518858 1_545
Ca1 O10 2.681034 1_555
Ca2 O9 2.245731 1_555
Ca2 F11 2.268942 1_555
Ca2 O42 2.406570 1_555
Ca2 O2 2.421538 1_555
Ca2 O11 2.744809 1_555
Ca3 F5 2.164383 1_545
Ca3 F0 2.258053 1_555
Ca3 O41 2.345772 1_556
Ca3 F10 2.366489 1_556
Ca3 O12 2.659484 1_555
Ca4 F13 2.372133 1_565
Ca4 O36 2.424391 1_555
Ca4 O20 2.427143 1_555
Ca4 F6 2.427837 1_555
Ca4 O7 2.484405 1_555
Ca4 O18 2.527424 1_555
Ca4 F2 2.613125 1_565
Ca5 F1 2.229359 1_555
Ca5 F3 2.262049 1_555
Ca5 F7 2.266745 1_555
Ca5 O28 2.320382 1_555
Ca5 O10 2.393864 1_555
Ca6 O31 2.392612 1_555
Ca6 O17 2.408810 1_565
Ca6 O8 2.452261 1_555
Ca6 O26 2.559768 1_555
Ca6 O12 2.844897 1_565
Ca6 F5 2.854866 1_555
Ca6 Si1 2.978330 1_555
Ca6 O9 3.097257 1_555
Ca7 O47 2.308241 1_565
Ca7 O38 2.313503 1_655
Ca7 O53 2.321960 1_565
Ca7 O24 2.389127 1_565
Ca7 F15 2.451980 1_555
Ca7 O54 2.620736 1_555
Ca8 F3 2.219051 1_555
Ca8 O5 2.314752 1_555
Ca8 O52 2.320838 1_555
Ca8 O11 2.321580 1_555
Ca8 O41 2.839622 1_556
Ca9 O50 2.246246 1_555
Ca9 O54 2.293269 1_555
Ca9 O23 2.378503 1_655
Ca9 F4 2.404156 1_555
Ca9 O27 2.480522 1_655
Ca9 F14 2.668060 1_555
Ca9 O38 2.969568 1_655
Ca10 F7 2.314044 1_555
Ca10 O18 2.359823 1_555
Ca10 O7 2.397817 1_555
Ca10 O21 2.432517 1_555
Ca10 O39 2.554462 1_655
Ca10 O22 2.630816 1_555
Ca11 F6 2.304267 1_545
Ca11 O31 2.335468 1_545
Ca11 O10 2.397056 1_555
Ca11 O40 2.407602 1_655
Ca11 O20 2.490568 1_545
Ca11 O6 2.558992 1_555
Ca12 O55 2.213191 1_454
Ca12 F15 2.290594 1_455
Ca12 O4 2.312964 1_554
Ca12 O38 2.351594 1_555
Ca12 F0 2.443161 1_564
Ca12 O2 2.664076 1_554
Ca13 F7 2.252774 1_555
Ca13 F3 2.335423 1_555
Ca13 O26 2.347434 1_555
Ca13 O9 2.350385 1_555
Ca13 O32 2.502190 1_555
Ca13 F11 2.844808 1_655
Ca14 F8 2.128427 1_555
Ca14 O29 2.208709 1_555
Ca14 F12 2.260580 1_555
Ca14 F4 2.283162 1_455
Ca14 O23 2.337543 1_555
Ca15 O0 2.249364 1_656
Ca15 F15 2.289075 1_546
Ca15 O53 2.328964 1_556
Ca15 F0 2.373945 1_655
Ca15 O51 2.450341 1_556
Ca15 O17 2.711734 1_555
Ca15 Si6 2.872374 1_555
Ca16 O35 2.355799 1_565
Ca16 O15 2.359371 1_455
Ca16 O24 2.359903 1_465
Ca16 O34 2.426250 1_555
Ca16 O43 2.590023 1_555
Ca16 F9 2.626364 1_565
Ca16 O45 2.712164 1_555
Ca17 F8 2.169010 1_555
Ca17 O19 2.313050 1_455
Ca17 O39 2.376581 1_555
Ca17 O30 2.447204 1_455
Ca17 O48 2.464892 1_555
Ca17 O21 2.845632 1_455
Ca18 F6 2.239582 1_455
Ca18 O36 2.266059 1_555
Ca18 F9 2.323013 1_565
Ca18 O18 2.459326 1_455
Ca18 F13 2.522473 1_565
Ca18 O40 2.531816 1_565
Ca19 O32 2.295662 1_455
Ca19 O1 2.315802 1_555
Ca19 F11 2.387613 1_555
Ca19 F1 2.401069 1_555
Ca19 O25 2.486912 1_555
Ca20 O3 2.335300 1_555
Ca20 O44 2.413952 1_555
Ca20 F12 2.441393 1_555
Ca20 O23 2.460008 1_555
Ca20 O50 2.468795 1_555
Ca21 O17 2.204943 1_455
Ca21 F0 2.382841 1_555
Ca21 O1 2.403779 1_555
Ca21 O8 2.416545 1_545
Ca21 O2 2.514758 1_545
Ca22 O29 2.342637 1_555
Ca22 O47 2.422527 1_555
Ca22 O43 2.427300 1_545
Ca22 O24 2.540207 1_455
Ca22 F10 2.747627 1_555
Ca22 O35 2.786802 1_555
Ca22 Si14 2.861827 1_555
Ca23 F13 2.212004 1_555
Ca23 O6 2.306409 1_555
Ca23 F2 2.351470 1_555
Ca23 O37 2.547788 1_555
Ca23 O46 3.107753 1_555
Ca24 F1 2.222729 1_555
Ca24 O16 2.297948 1_555
Ca24 O25 2.379947 1_555
Ca24 O39 2.400002 1_555
Ca24 O7 2.579362 1_555
Ca25 F5 2.272028 1_554
Ca25 F10 2.284797 1_565
Ca25 F15 2.303937 1_555
Ca25 O14 2.356074 1_554
Ca25 O54 2.519003 1_555
Ca26 F4 2.251180 1_555
Ca26 O13 2.253232 1_555
Ca26 F12 2.292082 1_555
Ca26 O46 2.483608 1_555
Ca26 F14 2.603705 1_555
Ca26 O44 2.607485 1_555
Ca27 F2 2.255700 1_565
Ca27 O47 2.406795 1_565
Ca27 O35 2.414616 1_565
Ca27 O45 2.416757 1_555
Ca27 O13 2.465110 1_565
Ca27 O15 2.723892 1_555
Ca28 O44 2.313323 1_555
Ca28 O0 2.386640 1_655
Ca28 F4 2.420534 1_555
Ca28 O53 2.434598 1_555
Ca28 O52 2.476195 1_554
Ca28 O50 2.583006 1_555
Ca28 O3 3.026576 1_655
O0 Si8 1.614611 1_554
O1 Si0 1.622197 1_555
O2 O4 1.515380 1_555
O3 Si8 1.637919 1_554
O4 Si1 1.798602 1_555
O5 Si8 1.626384 1_555
O6 Si2 1.616892 1_555
O7 Si3 1.646122 1_555
O8 Si0 1.655801 1_565
O9 Si3 1.627072 1_555
O10 Si0 1.634636 1_555
O11 Si1 1.644643 1_555
O12 Si0 1.674145 1_555
O12 Si6 1.735786 1_555
O13 Si4 1.624898 1_555
O14 Si7 1.713513 1_556
O14 Si1 1.750759 1_555
O15 Si5 1.610397 1_555
O16 Si2 1.651948 1_555
O16 Zr0 2.245417 1_555
O17 Si6 1.651114 1_555
O18 Si5 1.644583 1_555
O19 Si2 1.647271 1_555
O19 Zr0 2.257563 1_555
O20 Si3 1.631591 1_555
O21 Si2 1.672098 1_555
O21 Si10 1.815254 1_655
O22 Si11 1.712107 1_555
O22 Si3 1.739599 1_555
O23 O27 1.528076 1_555
O24 Si4 1.660646 1_555
O25 Si10 1.642518 1_555
O26 Si11 1.642391 1_555
O27 Si9 1.775902 1_555
O28 O32 1.510718 1_555
O28 Si6 1.753000 1_555
O29 Si4 1.628714 1_455
O30 Si5 1.652822 1_555
O30 Zr0 2.142833 1_555
O31 Si11 1.631421 1_555
O33 Si4 1.692207 1_455
O33 Si12 1.692809 1_555
O34 Si13 1.702771 1_555
O34 Si5 1.748804 1_455
O35 Si12 1.642260 1_555
O36 Si13 1.622390 1_555
O37 O40 1.524440 1_555
O37 Si10 1.829474 1_555
O38 Si9 1.636072 1_555
O39 Si13 1.650961 1_555
O41 Si8 1.710466 1_554
O41 Si14 1.753673 1_555
O42 Si11 1.633199 1_455
O43 Si15 1.703613 1_555
O43 Si9 1.733368 1_555
O44 Si14 1.642722 1_555
O45 Si15 1.601467 1_555
O46 O48 1.494110 1_555
O46 Zr0 2.154080 1_555
O47 Si15 1.643619 1_545
O48 Zr0 2.132855 1_555
O49 Si13 1.634789 1_555
O49 Zr0 2.065237 1_555
O50 Si7 1.638987 1_555
O51 O53 1.508339 1_555
O51 Si14 1.798372 1_555
O52 Si7 1.642034 1_556
O54 Si15 1.641134 1_555
O55 Si7 1.612685 1_556
F2 Na0 2.281939 1_555
F6 Na0 2.301448 1_565
F8 Na1 2.637703 1_555
F9 Si12 1.881526 1_555
F9 Na0 2.574865 1_455
F12 Na1 2.386394 1_555
F14 Zr0 2.178962 1_555
F14 Na1 2.594404 1_555
