# generated using pymatgen
data_Na3CuO3
_symmetry_space_group_name_H-M   'P 1'
_cell_length_a   9.06797850
_cell_length_b   9.06797850
_cell_length_c   4.43399115
_cell_angle_alpha   90.00000000
_cell_angle_beta   90.00000000
_cell_angle_gamma   90.00000000
_symmetry_Int_Tables_number   1
_chemical_formula_structural   Na3CuO3
_chemical_formula_sum   'Na12 Cu4 O12'
_cell_volume   364.59926218
_cell_formula_units_Z   4
loop_
 _symmetry_equiv_pos_site_id
 _symmetry_equiv_pos_as_xyz
  1  'x, y, z'
loop_
 _atom_site_type_symbol
 _atom_site_label
 _atom_site_symmetry_multiplicity
 _atom_site_fract_x
 _atom_site_fract_y
 _atom_site_fract_z
 _atom_site_occupancy
  Na  Na0  1  0.37392265  0.12861012  0.50000000  1
  Na  Na1  1  0.62861012  0.12607735  0.00000000  1
  Na  Na2  1  0.14738722  0.14738722  0.00000000  1
  Na  Na3  1  0.64738722  0.35261278  0.50000000  1
  Na  Na4  1  0.12861012  0.37392265  0.50000000  1
  Na  Na5  1  0.87392265  0.37138988  -0.00000000  1
  Na  Na6  1  0.12607735  0.62861012  -0.00000000  1
  Na  Na7  1  0.87138988  0.62607735  0.50000000  1
  Na  Na8  1  0.35261278  0.64738722  0.50000000  1
  Na  Na9  1  0.85261278  0.85261278  -0.00000000  1
  Na  Na10  1  0.37138988  0.87392265  -0.00000000  1
  Na  Na11  1  0.62607735  0.87138988  0.50000000  1
  Cu  Cu0  1  0.88935564  0.11064436  0.50000000  1
  Cu  Cu1  1  0.38935564  0.38935564  0.00000000  1
  Cu  Cu2  1  0.61064436  0.61064436  -0.00000000  1
  Cu  Cu3  1  0.11064436  0.88935564  0.50000000  1
  O  O0  1  0.09564523  0.09564523  0.50000000  1
  O  O1  1  0.68882578  0.10734607  0.50000000  1
  O  O2  1  0.39265393  0.18882578  0.00000000  1
  O  O3  1  0.89265393  0.31117422  0.50000000  1
  O  O4  1  0.18882578  0.39265393  -0.00000000  1
  O  O5  1  0.59564523  0.40435477  -0.00000000  1
  O  O6  1  0.40435477  0.59564523  -0.00000000  1
  O  O7  1  0.81117422  0.60734607  0.00000000  1
  O  O8  1  0.10734607  0.68882578  0.50000000  1
  O  O9  1  0.60734607  0.81117422  0.00000000  1
  O  O10  1  0.31117422  0.89265393  0.50000000  1
  O  O11  1  0.90435477  0.90435477  0.50000000  1
loop_
_geom_bond_atom_site_label_1
_geom_bond_atom_site_label_2
_geom_bond_distance
_geom_bond_site_symmetry_2
Na0 O10 2.214011 1_545
Na0 O2 2.289557 1_556
Na0 O2 2.289557 1_555
Na0 O0 2.541057 1_555
Na0 O1 2.862038 1_555
Na1 O2 2.214011 1_555
Na1 O1 2.289557 1_555
Na1 O1 2.289557 1_554
Na1 O5 2.541057 1_555
Na1 O9 2.862038 1_545
Na2 O4 2.255593 1_555
Na2 O2 2.255593 1_555
Na2 O0 2.314165 1_554
Na2 O0 2.314165 1_555
Na3 O1 2.255593 1_555
Na3 O3 2.255593 1_555
Na3 O5 2.314165 1_556
Na3 O5 2.314165 1_555
Na4 O3 2.214011 1_455
Na4 O4 2.289557 1_555
Na4 O4 2.289557 1_556
Na4 O0 2.541057 1_555
Na4 O8 2.862038 1_555
Na5 O7 2.214011 1_555
Na5 O3 2.289557 1_554
Na5 O3 2.289557 1_555
Na5 O5 2.541057 1_555
Na5 O4 2.862038 1_655
Na6 O4 2.214011 1_555
Na6 O8 2.289557 1_554
Na6 O8 2.289557 1_555
Na6 O6 2.541057 1_555
Na6 O7 2.862038 1_455
Na7 O8 2.214011 1_655
Na7 O7 2.289557 1_556
Na7 O7 2.289557 1_555
Na7 O11 2.541057 1_555
Na7 O3 2.862038 1_555
Na8 O8 2.255593 1_555
Na8 O10 2.255593 1_555
Na8 O6 2.314165 1_556
Na8 O6 2.314165 1_555
Na9 O7 2.255593 1_555
Na9 O9 2.255593 1_555
Na9 O11 2.314165 1_554
Na9 O11 2.314165 1_555
Na10 O9 2.214011 1_555
Na10 O10 2.289557 1_555
Na10 O10 2.289557 1_554
Na10 O6 2.541057 1_555
Na10 O2 2.862038 1_565
Na11 O1 2.214011 1_565
Na11 O9 2.289557 1_556
Na11 O9 2.289557 1_555
Na11 O11 2.541057 1_555
Na11 O10 2.862038 1_555
Cu0 O1 1.818646 1_555
Cu0 O3 1.818646 1_555
Cu0 O0 1.875568 1_655
Cu0 O11 1.875568 1_545
Cu1 O2 1.818646 1_555
Cu1 O4 1.818646 1_555
Cu1 O5 1.875568 1_555
Cu1 O6 1.875568 1_555
Cu2 O9 1.818646 1_555
Cu2 O7 1.818646 1_555
Cu2 O5 1.875568 1_555
Cu2 O6 1.875568 1_555
Cu3 O8 1.818646 1_555
Cu3 O10 1.818646 1_555
Cu3 O0 1.875568 1_565
Cu3 O11 1.875568 1_455
