# generated using pymatgen
data_Li4Mn3(CoO4)3
_symmetry_space_group_name_H-M   'P 1'
_cell_length_a   6.89932879
_cell_length_b   5.87519941
_cell_length_c   5.70894773
_cell_angle_alpha   89.14423452
_cell_angle_beta   102.17810214
_cell_angle_gamma   76.71753665
_symmetry_Int_Tables_number   1
_chemical_formula_structural   Li4Mn3(CoO4)3
_chemical_formula_sum   'Li4 Mn3 Co3 O12'
_cell_volume   219.66367610
_cell_formula_units_Z   1
loop_
 _symmetry_equiv_pos_site_id
 _symmetry_equiv_pos_as_xyz
  1  'x, y, z'
loop_
 _atom_site_type_symbol
 _atom_site_label
 _atom_site_symmetry_multiplicity
 _atom_site_fract_x
 _atom_site_fract_y
 _atom_site_fract_z
 _atom_site_occupancy
  Li  Li0  1  0.02690900  0.97565900  0.47956700  1
  Li  Li1  1  0.66682800  0.33327200  0.16673700  1
  Li  Li2  1  0.66655000  0.33333100  0.66665300  1
  Li  Li3  1  0.30637900  0.69109500  0.85390000  1
  Mn  Mn0  1  0.00078800  0.49872500  0.99596200  1
  Mn  Mn1  1  0.33254600  0.16793600  0.33739100  1
  Mn  Mn2  1  0.66663000  0.83332600  0.66660300  1
  Co  Co0  1  0.00529200  0.50020600  0.50014500  1
  Co  Co1  1  0.32808300  0.16651100  0.83319600  1
  Co  Co2  1  0.66665200  0.83330600  0.16664400  1
  O  O0  1  0.02806400  0.26730700  0.25999200  1
  O  O1  1  0.00392500  0.28180400  0.74577000  1
  O  O2  1  0.30528900  0.39939300  0.07334800  1
  O  O3  1  0.62878000  0.09472300  0.41856900  1
  O  O4  1  0.32945700  0.38489900  0.58754300  1
  O  O5  1  0.65449600  0.05370500  0.91726200  1
  O  O6  1  0.36222200  0.94150800  0.09134900  1
  O  O7  1  0.67881300  0.61286300  0.41599400  1
  O  O8  1  0.32991500  0.94628800  0.58853100  1
  O  O9  1  0.70456400  0.57185800  0.91475100  1
  O  O10  1  0.97109100  0.72520000  0.24197300  1
  O  O11  1  0.00339200  0.72042300  0.74478800  1
loop_
_geom_bond_atom_site_label_1
_geom_bond_atom_site_label_2
_geom_bond_distance
_geom_bond_site_symmetry_2
Li0 O8 2.017290 1_555
Li0 O10 2.062302 1_455
Li0 O0 2.110405 1_565
Li0 O11 2.171460 1_555
Li0 O1 2.371119 1_565
Li0 O3 2.619518 1_465
Li1 O9 2.089889 1_554
Li1 O3 2.090033 1_555
Li1 O7 2.193776 1_555
Li1 O5 2.194655 1_554
Li1 O0 2.373883 1_655
Li1 O2 2.375826 1_555
Li2 O9 2.027380 1_555
Li2 O3 2.027438 1_555
Li2 O5 2.189889 1_555
Li2 O7 2.190163 1_555
Li2 O4 2.221193 1_555
Li2 O1 2.223111 1_655
Li3 O11 2.017280 1_555
Li3 O6 2.061611 1_556
Li3 O2 2.110096 1_556
Li3 O8 2.171927 1_555
Li3 O4 2.371949 1_555
Li3 O9 2.619991 1_555
Mn0 O11 1.928443 1_555
Mn0 O1 1.928621 1_555
Mn0 O9 1.940938 1_455
Mn0 O10 1.958804 1_456
Mn0 O0 1.964075 1_556
Mn0 O2 1.996669 1_556
Mn1 O8 1.928165 1_545
Mn1 O4 1.928609 1_555
Mn1 O3 1.940990 1_555
Mn1 O6 1.958738 1_545
Mn1 O2 1.964310 1_555
Mn1 O0 1.996556 1_555
Mn2 O5 1.946093 1_565
Mn2 O7 1.946222 1_555
Mn2 O3 2.006637 1_565
Mn2 O9 2.007261 1_555
Mn2 O8 2.209481 1_555
Mn2 O11 2.209751 1_655
Co0 O1 1.889525 1_555
Co0 O10 1.904509 1_455
Co0 O11 1.917991 1_555
Co0 O0 1.955719 1_555
Co0 O4 2.129038 1_555
Co0 O7 2.142770 1_455
Co1 O4 1.889602 1_555
Co1 O6 1.904549 1_546
Co1 O8 1.918106 1_545
Co1 O2 1.955656 1_556
Co1 O1 2.128989 1_555
Co1 O5 2.142403 1_555
Co2 O5 1.885569 1_564
Co2 O7 1.885597 1_555
Co2 O6 1.999452 1_555
Co2 O10 1.999466 1_555
Co2 O3 2.129745 1_565
Co2 O9 2.129771 1_554
