# generated using pymatgen
data_Li5Cr3FeO8
_symmetry_space_group_name_H-M   'P 1'
_cell_length_a   8.44962800
_cell_length_b   8.60089378
_cell_length_c   8.61212591
_cell_angle_alpha   89.65185957
_cell_angle_beta   89.96140641
_cell_angle_gamma   89.95391499
_symmetry_Int_Tables_number   1
_chemical_formula_structural   Li5Cr3FeO8
_chemical_formula_sum   'Li20 Cr12 Fe4 O32'
_cell_volume   625.86878135
_cell_formula_units_Z   4
loop_
 _symmetry_equiv_pos_site_id
 _symmetry_equiv_pos_as_xyz
  1  'x, y, z'
loop_
 _atom_site_type_symbol
 _atom_site_label
 _atom_site_symmetry_multiplicity
 _atom_site_fract_x
 _atom_site_fract_y
 _atom_site_fract_z
 _atom_site_occupancy
  Li  Li0  1  0.10071900  0.88570600  0.12316600  1
  Li  Li1  1  0.92955700  0.45607300  0.44096600  1
  Li  Li2  1  0.88327400  0.65324600  0.63342400  1
  Li  Li3  1  0.87500600  0.86650300  0.88426600  1
  Li  Li4  1  0.86911300  0.11558700  0.09648400  1
  Li  Li5  1  0.81425500  0.30389100  0.28948200  1
  Li  Li6  1  0.65233300  0.62855400  0.85998500  1
  Li  Li7  1  0.65796000  0.83878500  0.67248300  1
  Li  Li8  1  0.61627000  0.14886800  0.35398600  1
  Li  Li9  1  0.63087300  0.35382600  0.09316400  1
  Li  Li10  1  0.52280200  0.97707500  0.50792600  1
  Li  Li11  1  0.45446100  0.55688700  0.04676000  1
  Li  Li12  1  0.40583400  0.39256300  0.86350400  1
  Li  Li13  1  0.37396400  0.14719400  0.60231700  1
  Li  Li14  1  0.34275800  0.88495500  0.35453400  1
  Li  Li15  1  0.22598800  0.24230500  0.77276400  1
  Li  Li16  1  0.30500700  0.69470800  0.18899800  1
  Li  Li17  1  0.11910400  0.65651800  0.39564600  1
  Li  Li18  1  0.12998300  0.39857600  0.60140300  1
  Li  Li19  1  0.09160200  0.07815700  0.91303200  1
  Cr  Cr0  1  0.87689000  0.37942500  0.86708300  1
  Cr  Cr1  1  0.87353800  0.88401800  0.37148600  1
  Cr  Cr2  1  0.87546400  0.13052200  0.62053300  1
  Cr  Cr3  1  0.62561600  0.38046000  0.62052600  1
  Cr  Cr4  1  0.37471100  0.12814600  0.12043200  1
  Cr  Cr5  1  0.37526200  0.87664000  0.87495300  1
  Cr  Cr6  1  0.37514200  0.63075700  0.62296200  1
  Cr  Cr7  1  0.12500200  0.62840700  0.87093700  1
  Cr  Cr8  1  0.12450900  0.13056800  0.37061300  1
  Cr  Cr9  1  0.62550200  0.87996400  0.12293100  1
  Cr  Cr10  1  0.62544100  0.63311900  0.37413700  1
  Cr  Cr11  1  0.12504800  0.37758400  0.11810000  1
  Fe  Fe0  1  0.87503300  0.62763700  0.12329100  1
  Fe  Fe1  1  0.62326400  0.12477600  0.86485300  1
  Fe  Fe2  1  0.37488400  0.38462000  0.36677200  1
  Fe  Fe3  1  0.12704300  0.88583200  0.62596200  1
  O  O0  1  0.88289000  0.37125900  0.10088200  1
  O  O1  1  0.87578000  0.89352300  0.61124100  1
  O  O2  1  0.88351100  0.12074500  0.38249700  1
  O  O3  1  0.88679800  0.61840500  0.86662600  1
  O  O4  1  0.86679100  0.36916300  0.63069400  1
  O  O5  1  0.86378900  0.88421200  0.13292000  1
  O  O6  1  0.86735200  0.64988500  0.37969800  1
  O  O7  1  0.87524300  0.13951900  0.85719400  1
  O  O8  1  0.63346700  0.87005900  0.35981500  1
  O  O9  1  0.63600100  0.38494600  0.85932500  1
  O  O10  1  0.62978900  0.14232700  0.61390000  1
  O  O11  1  0.62945000  0.64211400  0.13833000  1
  O  O12  1  0.61656100  0.12058100  0.12095700  1
  O  O13  1  0.61706600  0.61868900  0.61278500  1
  O  O14  1  0.61720200  0.87206500  0.88824200  1
  O  O15  1  0.62652800  0.39239800  0.38160900  1
  O  O16  1  0.36907200  0.11454300  0.88221600  1
  O  O17  1  0.38165600  0.88942800  0.11406100  1
  O  O18  1  0.38089700  0.63840600  0.38718900  1
  O  O19  1  0.38006300  0.38650100  0.62941700  1
  O  O20  1  0.37002800  0.12080000  0.36436600  1
  O  O21  1  0.36858700  0.63705000  0.86103600  1
  O  O22  1  0.37008000  0.36468000  0.11315300  1
  O  O23  1  0.38055400  0.86979900  0.63752600  1
  O  O24  1  0.12428200  0.36997000  0.35842100  1
  O  O25  1  0.13350200  0.86313800  0.87858600  1
  O  O26  1  0.13327100  0.13844600  0.13252200  1
  O  O27  1  0.13423800  0.62992600  0.63133200  1
  O  O28  1  0.12042000  0.61410200  0.10880600  1
  O  O29  1  0.11353000  0.89225100  0.36726400  1
  O  O30  1  0.12044800  0.13827800  0.60774900  1
  O  O31  1  0.11694700  0.39094400  0.88139100  1
loop_
_geom_bond_atom_site_label_1
_geom_bond_atom_site_label_2
_geom_bond_distance
_geom_bond_site_symmetry_2
Li0 O5 2.003724 1_455
Li0 O29 2.106157 1_555
Li0 O25 2.134299 1_554
Li0 O26 2.193315 1_565
Li0 O28 2.345833 1_555
Li0 O17 2.375290 1_555
Li1 O6 1.822552 1_555
Li1 O4 1.869355 1_555
Li1 O24 1.940063 1_655
Li2 O3 2.029031 1_555
Li2 O1 2.075172 1_555
Li2 O27 2.129931 1_655
Li2 O6 2.189716 1_555
Li2 O13 2.276358 1_555
Li2 O4 2.447702 1_555
Li3 O3 2.142420 1_555
Li3 O5 2.149794 1_556
Li3 O14 2.179085 1_555
Li3 O25 2.184882 1_655
Li3 O7 2.358320 1_565
Li3 O1 2.361382 1_555
Li4 O5 2.013269 1_545
Li4 O7 2.070422 1_554
Li4 O12 2.144634 1_555
Li4 O0 2.202737 1_555
Li4 O26 2.262598 1_655
Li4 O2 2.466934 1_555
Li5 O0 1.816061 1_555
Li5 O2 1.857220 1_555
Li5 O15 1.931007 1_555
Li6 O3 1.983842 1_555
Li6 O9 2.099939 1_555
Li6 O14 2.130492 1_555
Li6 O13 2.152064 1_555
Li6 O21 2.398615 1_555
Li6 O11 2.408322 1_556
Li7 O14 1.912767 1_555
Li7 O1 1.970869 1_555
Li7 O13 1.995088 1_555
Li7 O23 2.378022 1_555
Li8 O12 2.023035 1_555
Li8 O20 2.096588 1_555
Li8 O15 2.111333 1_555
Li8 O10 2.241764 1_555
Li8 O2 2.284054 1_555
Li8 O8 2.402510 1_545
Li9 O12 2.022605 1_555
Li9 O9 2.030386 1_554
Li9 O0 2.135950 1_555
Li9 O22 2.212142 1_555
Li9 O15 2.508417 1_555
Li9 O11 2.512211 1_555
Li10 O8 1.832996 1_555
Li10 O23 1.878616 1_555
Li10 O10 1.920741 1_565
Li10 O20 2.168886 1_565
Li11 O11 1.831888 1_555
Li11 O21 1.883497 1_554
Li11 O22 1.886282 1_555
Li12 O9 1.946192 1_555
Li12 O19 2.028848 1_555
Li12 O21 2.125959 1_555
Li12 O22 2.182726 1_556
Li12 O16 2.415955 1_555
Li12 O31 2.445786 1_555
Li13 O20 2.063463 1_555
Li13 O19 2.073538 1_555
Li13 O30 2.144018 1_555
Li13 O10 2.164353 1_555
Li13 O23 2.403813 1_545
Li13 O16 2.425462 1_555
Li14 O29 1.940904 1_555
Li14 O20 2.043979 1_565
Li14 O17 2.096811 1_555
Li14 O18 2.161346 1_555
Li14 O8 2.460056 1_555
Li14 O23 2.460867 1_555
Li15 O31 1.835737 1_555
Li15 O16 1.882695 1_555
Li15 O30 1.906265 1_555
Li15 O19 2.176898 1_555
Li16 O28 1.843705 1_555
Li16 O18 1.884129 1_555
Li16 O17 1.904953 1_555
Li17 O29 2.041230 1_555
Li17 O27 2.045297 1_555
Li17 O6 2.132564 1_455
Li17 O18 2.218585 1_555
Li17 O24 2.487609 1_555
Li17 O28 2.499303 1_555
Li18 O27 2.008348 1_555
Li18 O24 2.109077 1_555
Li18 O19 2.129352 1_555
Li18 O30 2.240643 1_555
Li18 O4 2.252249 1_455
Li18 O31 2.414229 1_555
Li19 O25 1.907599 1_545
Li19 O7 1.961754 1_455
Li19 O26 1.994766 1_556
Li19 O16 2.380015 1_555
Cr0 O0 2.014975 1_556
Cr0 O31 2.034744 1_655
Cr0 O9 2.037070 1_555
Cr0 O4 2.040106 1_555
Cr0 O3 2.057193 1_555
Cr0 O7 2.065738 1_555
Cr1 O6 2.015284 1_555
Cr1 O29 2.029430 1_655
Cr1 O8 2.034745 1_555
Cr1 O2 2.040657 1_565
Cr1 O5 2.056257 1_555
Cr1 O1 2.067014 1_555
Cr2 O7 2.040092 1_555
Cr2 O1 2.040459 1_545
Cr2 O2 2.053309 1_555
Cr2 O4 2.056167 1_555
Cr2 O30 2.073981 1_655
Cr2 O10 2.079069 1_555
Cr3 O4 2.041988 1_555
Cr3 O10 2.049572 1_555
Cr3 O13 2.050878 1_555
Cr3 O9 2.059094 1_555
Cr3 O15 2.059530 1_555
Cr3 O19 2.076812 1_555
Cr4 O22 2.035334 1_555
Cr4 O12 2.044533 1_555
Cr4 O26 2.044540 1_555
Cr4 O17 2.055044 1_545
Cr4 O16 2.056176 1_554
Cr4 O20 2.101703 1_555
Cr5 O25 2.046381 1_555
Cr5 O23 2.046412 1_555
Cr5 O14 2.047914 1_555
Cr5 O16 2.048139 1_565
Cr5 O17 2.063577 1_556
Cr5 O21 2.065715 1_555
Cr6 O18 2.031723 1_555
Cr6 O27 2.036793 1_555
Cr6 O13 2.048562 1_555
Cr6 O21 2.052075 1_555
Cr6 O23 2.061104 1_555
Cr6 O19 2.101596 1_555
Cr7 O3 2.015019 1_455
Cr7 O25 2.021706 1_555
Cr7 O31 2.045016 1_555
Cr7 O28 2.051844 1_556
Cr7 O21 2.061293 1_555
Cr7 O27 2.064893 1_555
Cr8 O2 2.040637 1_455
Cr8 O30 2.043988 1_555
Cr8 O29 2.052291 1_545
Cr8 O26 2.052465 1_555
Cr8 O24 2.061109 1_555
Cr8 O20 2.076851 1_555
Cr9 O5 2.015701 1_555
Cr9 O14 2.023990 1_554
Cr9 O8 2.042488 1_555
Cr9 O11 2.049459 1_555
Cr9 O17 2.063397 1_555
Cr9 O12 2.070806 1_565
Cr10 O11 2.032063 1_555
Cr10 O8 2.042055 1_555
Cr10 O6 2.049866 1_555
Cr10 O13 2.059430 1_555
Cr10 O18 2.069763 1_555
Cr10 O15 2.071038 1_555
Cr11 O28 2.035699 1_555
Cr11 O31 2.042297 1_554
Cr11 O0 2.052399 1_455
Cr11 O26 2.060912 1_555
Cr11 O24 2.070319 1_555
Cr11 O22 2.073736 1_555
Fe0 O28 2.080303 1_655
Fe0 O11 2.082709 1_555
Fe0 O5 2.210799 1_555
Fe0 O3 2.214502 1_554
Fe0 O0 2.215615 1_555
Fe0 O6 2.218544 1_555
Fe1 O7 2.133955 1_555
Fe1 O16 2.154758 1_555
Fe1 O10 2.166257 1_555
Fe1 O14 2.182274 1_545
Fe1 O12 2.206365 1_556
Fe1 O9 2.240583 1_555
Fe2 O24 2.122634 1_555
Fe2 O15 2.131348 1_555
Fe2 O18 2.191554 1_555
Fe2 O22 2.192366 1_555
Fe2 O19 2.262541 1_555
Fe2 O20 2.269712 1_555
Fe3 O1 2.127897 1_455
Fe3 O23 2.148734 1_555
Fe3 O30 2.176640 1_565
Fe3 O25 2.183901 1_555
Fe3 O27 2.202017 1_555
Fe3 O29 2.231286 1_555
