# generated using pymatgen
data_FePO4
_symmetry_space_group_name_H-M   'P 1'
_cell_length_a   5.33306100
_cell_length_b   7.96109600
_cell_length_c   8.77348597
_cell_angle_alpha   75.71815091
_cell_angle_beta   90.00000000
_cell_angle_gamma   90.00000000
_symmetry_Int_Tables_number   1
_chemical_formula_structural   FePO4
_chemical_formula_sum   'Fe4 P4 O16'
_cell_volume   360.98359980
_cell_formula_units_Z   4
loop_
 _symmetry_equiv_pos_site_id
 _symmetry_equiv_pos_as_xyz
  1  'x, y, z'
loop_
 _atom_site_type_symbol
 _atom_site_label
 _atom_site_symmetry_multiplicity
 _atom_site_fract_x
 _atom_site_fract_y
 _atom_site_fract_z
 _atom_site_occupancy
  Fe  Fe0  1  0.85729300  0.02730500  0.06587600  1
  Fe  Fe1  1  0.31813700  0.51373600  0.27609000  1
  Fe  Fe2  1  0.14270700  0.02730500  0.56587600  1
  Fe  Fe3  1  0.68186300  0.51373600  0.77609000  1
  P  P0  1  0.66416100  0.74941700  0.02326200  1
  P  P1  1  0.81479400  0.25792400  0.31802500  1
  P  P2  1  0.33583900  0.74941700  0.52326200  1
  P  P3  1  0.18520600  0.25792400  0.81802500  1
  O  O0  1  0.16631100  0.11649100  0.97499000  1
  O  O1  1  0.40291400  0.68034300  0.08822700  1
  O  O2  1  0.73005800  0.17807100  0.18264600  1
  O  O3  1  0.84231000  0.77701000  0.15820900  1
  O  O4  1  0.08007200  0.33835700  0.27935000  1
  O  O5  1  0.62511200  0.39675400  0.33799700  1
  O  O6  1  0.83368900  0.11649100  0.47499000  1
  O  O7  1  0.21998100  0.62230800  0.43525600  1
  O  O8  1  0.34963700  0.93907400  0.41722900  1
  O  O9  1  0.59708600  0.68034300  0.58822700  1
  O  O10  1  0.26994200  0.17807100  0.68264600  1
  O  O11  1  0.15769000  0.77701000  0.65820900  1
  O  O12  1  0.91992800  0.33835700  0.77935000  1
  O  O13  1  0.37488800  0.39675400  0.83799700  1
  O  O14  1  0.78001900  0.62230800  0.93525600  1
  O  O15  1  0.65036300  0.93907400  0.91722900  1
loop_
_geom_bond_atom_site_label_1
_geom_bond_atom_site_label_2
_geom_bond_distance
_geom_bond_site_symmetry_2
Fe0 O2 1.886083 1_555
Fe0 O0 1.891180 1_654
Fe0 O3 1.958762 1_545
Fe0 O15 1.965715 1_544
Fe1 O4 1.882136 1_555
Fe1 O7 1.888570 1_555
Fe1 O5 1.895498 1_555
Fe1 O1 1.897809 1_555
Fe2 O10 1.886083 1_555
Fe2 O6 1.891180 1_455
Fe2 O11 1.958762 1_545
Fe2 O8 1.965715 1_545
Fe3 O12 1.882136 1_555
Fe3 O14 1.888570 1_555
Fe3 O13 1.895498 1_555
Fe3 O9 1.897809 1_555
O0 P3 1.552222 1_555
O1 P0 1.553626 1_555
O2 P1 1.546490 1_555
O3 P0 1.575112 1_555
O4 P1 1.555462 1_455
O5 P1 1.539842 1_555
O6 P1 1.552222 1_555
O7 P2 1.545132 1_555
O8 P2 1.567659 1_555
O9 P2 1.553626 1_555
O10 P3 1.546490 1_555
O11 P2 1.575112 1_555
O12 P3 1.555462 1_655
O13 P3 1.539842 1_555
O14 P0 1.545132 1_556
O15 P0 1.567659 1_556
