# generated using pymatgen
data_Li6MnV3(PO4)6
_symmetry_space_group_name_H-M   'P 1'
_cell_length_a   8.80396391
_cell_length_b   8.80396391
_cell_length_c   14.51863950
_cell_angle_alpha   73.62933086
_cell_angle_beta   73.62933086
_cell_angle_gamma   60.53597092
_symmetry_Int_Tables_number   1
_chemical_formula_structural   Li6MnV3(PO4)6
_chemical_formula_sum   'Li12 Mn2 V6 P12 O48'
_cell_volume   926.15048353
_cell_formula_units_Z   2
loop_
 _symmetry_equiv_pos_site_id
 _symmetry_equiv_pos_as_xyz
  1  'x, y, z'
loop_
 _atom_site_type_symbol
 _atom_site_label
 _atom_site_symmetry_multiplicity
 _atom_site_fract_x
 _atom_site_fract_y
 _atom_site_fract_z
 _atom_site_occupancy
  Li  Li0  1  0.85458000  0.73628800  0.51284100  1
  Li  Li1  1  0.50029400  0.74977800  0.62523300  1
  Li  Li2  1  0.76457900  0.64510000  0.98693800  1
  Li  Li3  1  0.25022200  0.49970600  0.37476700  1
  Li  Li4  1  0.64501600  0.26352700  0.23688100  1
  Li  Li5  1  0.73647300  0.35498400  0.76311900  1
  Li  Li6  1  0.26371200  0.14542000  0.48715900  1
  Li  Li7  1  0.35490000  0.23542100  0.01306200  1
  Li  Li8  1  0.75033100  0.99874600  0.87649000  1
  Li  Li9  1  0.00125400  0.24966900  0.12351000  1
  Li  Li10  1  0.23681300  0.85450600  0.26225700  1
  Li  Li11  1  0.14549400  0.76318700  0.73774300  1
  Mn  Mn0  1  0.07730700  0.31962800  0.91004200  1
  Mn  Mn1  1  0.68037200  0.92269300  0.08995800  1
  V  V0  1  0.42355500  0.68263600  0.83826800  1
  V  V1  1  0.31736400  0.57644500  0.16173200  1
  V  V2  1  0.92300200  0.18265000  0.33795400  1
  V  V3  1  0.18222700  0.42304600  0.58825100  1
  V  V4  1  0.81735000  0.07699800  0.66204600  1
  V  V5  1  0.57695400  0.81777300  0.41174900  1
  P  P0  1  0.86966300  0.41762100  0.50637300  1
  P  P1  1  0.63050300  0.58215600  0.24360200  1
  P  P2  1  0.82441400  0.67562300  0.74962100  1
  P  P3  1  0.08345100  0.62993600  0.99227900  1
  P  P4  1  0.67378200  0.32621800  0.00000000  1
  P  P5  1  0.58237900  0.13033700  0.49362700  1
  P  P6  1  0.41784400  0.36949700  0.75639800  1
  P  P7  1  0.32437700  0.17558600  0.25037900  1
  P  P8  1  0.91710500  0.86967900  0.25606100  1
  P  P9  1  0.17337200  0.82662800  0.50000000  1
  P  P10  1  0.37006400  0.91654900  0.00772100  1
  P  P11  1  0.13032100  0.08289500  0.74393900  1
  O  O0  1  0.71923700  0.60846600  0.51117800  1
  O  O1  1  0.61388800  0.66075200  0.32886900  1
  O  O2  1  0.66800400  0.69252600  0.14461700  1
  O  O3  1  0.83406000  0.30510800  0.60465300  1
  O  O4  1  0.88612100  0.33950200  0.42093200  1
  O  O5  1  0.19003900  0.64309200  0.49675800  1
  O  O6  1  0.89211500  0.55774200  0.84375700  1
  O  O7  1  0.45107000  0.57221100  0.25971300  1
  O  O8  1  0.94681500  0.60281900  0.65627400  1
  O  O9  1  0.10845400  0.71912900  0.26077500  1
  O  O10  1  0.78053900  0.39082900  0.23931900  1
  O  O11  1  0.64142200  0.69157600  0.74548300  1
  O  O12  1  0.85573800  0.31217700  0.00440300  1
  O  O13  1  0.16000200  0.61330800  0.07851600  1
  O  O14  1  0.66049800  0.11387900  0.57906800  1
  O  O15  1  0.55174900  0.39767900  0.09368300  1
  O  O16  1  0.19934000  0.66364400  0.89487700  1
  O  O17  1  0.39153400  0.28076300  0.48882200  1
  O  O18  1  0.60232100  0.44825100  0.90631700  1
  O  O19  1  0.69489200  0.16594000  0.39534700  1
  O  O20  1  0.04890700  0.42792700  0.49039300  1
  O  O21  1  0.42778900  0.54893000  0.74028700  1
  O  O22  1  0.30842400  0.35857800  0.25451700  1
  O  O23  1  0.92785100  0.04867100  0.24080300  1
  O  O24  1  0.07523000  0.44772900  0.00926700  1
  O  O25  1  0.68782300  0.14426200  0.99559700  1
  O  O26  1  0.57207300  0.95109300  0.50960700  1
  O  O27  1  0.95132900  0.07214900  0.75919700  1
  O  O28  1  0.30747400  0.33199600  0.85538300  1
  O  O29  1  0.39718100  0.05318500  0.34372600  1
  O  O30  1  0.60917100  0.21946100  0.76068100  1
  O  O31  1  0.80532200  0.83378100  0.35480300  1
  O  O32  1  0.44225800  0.10788500  0.15624300  1
  O  O33  1  0.33924800  0.38611200  0.67113100  1
  O  O34  1  0.83952300  0.88573900  0.17049000  1
  O  O35  1  0.14061000  0.19123700  0.24809300  1
  O  O36  1  0.35690800  0.80996100  0.50324200  1
  O  O37  1  0.22148100  0.10505800  0.01535600  1
  O  O38  1  0.89494200  0.77851900  0.98464400  1
  O  O39  1  0.05229600  0.89818200  0.59361500  1
  O  O40  1  0.55227100  0.92477000  0.99073300  1
  O  O41  1  0.10181800  0.94770400  0.40638500  1
  O  O42  1  0.80876300  0.85939000  0.75190700  1
  O  O43  1  0.11426100  0.16047700  0.82951000  1
  O  O44  1  0.16621900  0.19467800  0.64519700  1
  O  O45  1  0.33635600  0.80066000  0.10512300  1
  O  O46  1  0.38669200  0.83999800  0.92148400  1
  O  O47  1  0.28087100  0.89154600  0.73922500  1
loop_
_geom_bond_atom_site_label_1
_geom_bond_atom_site_label_2
_geom_bond_distance
_geom_bond_site_symmetry_2
Li0 O0 2.009336 1_555
Li0 O8 2.238735 1_555
Li0 O26 2.270080 1_555
Li0 O31 2.296533 1_555
Li0 O20 2.453293 1_655
Li0 O5 2.604904 1_655
Li1 O11 2.224088 1_555
Li1 O0 2.237919 1_555
Li1 O47 2.240295 1_555
Li1 O36 2.254905 1_555
Li1 O21 2.273507 1_555
Li1 O26 2.277151 1_555
Li2 O38 1.995167 1_555
Li2 O6 2.215759 1_555
Li2 O40 2.247258 1_555
Li2 O2 2.287015 1_556
Li2 O24 2.472162 1_656
Li2 O12 2.584772 1_556
Li3 O22 2.224088 1_555
Li3 O17 2.237919 1_555
Li3 O9 2.240295 1_555
Li3 O5 2.254905 1_555
Li3 O7 2.273507 1_555
Li3 O20 2.277151 1_555
Li4 O10 2.010625 1_555
Li4 O15 2.239571 1_555
Li4 O23 2.273177 1_555
Li4 O19 2.303982 1_555
Li4 O7 2.456581 1_555
Li4 O22 2.607834 1_555
Li5 O30 2.010625 1_555
Li5 O18 2.239571 1_555
Li5 O27 2.273177 1_555
Li5 O3 2.303982 1_555
Li5 O21 2.456581 1_555
Li5 O11 2.607834 1_555
Li6 O17 2.009336 1_555
Li6 O29 2.238735 1_555
Li6 O20 2.270080 1_555
Li6 O44 2.296533 1_555
Li6 O26 2.453293 1_545
Li6 O36 2.604904 1_545
Li7 O37 1.995167 1_555
Li7 O32 2.215759 1_555
Li7 O24 2.247258 1_555
Li7 O28 2.287015 1_554
Li7 O40 2.472162 1_544
Li7 O25 2.584772 1_554
Li8 O38 2.197312 1_555
Li8 O25 2.225601 1_565
Li8 O40 2.256934 1_555
Li8 O30 2.260072 1_565
Li8 O42 2.268718 1_555
Li8 O27 2.292369 1_565
Li9 O37 2.197312 1_555
Li9 O12 2.225601 1_455
Li9 O24 2.256934 1_555
Li9 O10 2.260072 1_455
Li9 O35 2.268718 1_555
Li9 O23 2.292369 1_455
Li10 O9 2.012757 1_555
Li10 O41 2.251910 1_555
Li10 O7 2.266469 1_555
Li10 O45 2.295939 1_555
Li10 O23 2.453824 1_465
Li10 O35 2.613949 1_565
Li11 O47 2.012757 1_555
Li11 O39 2.251910 1_555
Li11 O21 2.266469 1_555
Li11 O16 2.295939 1_555
Li11 O27 2.453824 1_465
Li11 O42 2.613949 1_455
Mn0 O43 1.922698 1_555
Mn0 O28 2.002427 1_555
Mn0 O24 2.056293 1_556
Mn0 O12 2.062798 1_456
Mn0 O6 2.089005 1_455
Mn0 O37 2.150481 1_556
Mn1 O34 1.922698 1_555
Mn1 O2 2.002427 1_555
Mn1 O40 2.056293 1_554
Mn1 O25 2.062798 1_564
Mn1 O32 2.089005 1_565
Mn1 O38 2.150481 1_554
O0 P0 1.551384 1_555
O0 V5 2.073097 1_555
O1 P1 1.521174 1_555
O1 V5 1.933817 1_555
O2 P1 1.542558 1_555
O3 P0 1.540149 1_555
O3 V4 2.006830 1_555
O4 P0 1.521309 1_555
O4 V2 1.933888 1_555
O5 P9 1.562187 1_555
O5 V3 2.037462 1_555
O6 P2 1.533422 1_555
O7 P1 1.572936 1_555
O7 V1 2.069200 1_555
O8 P2 1.547828 1_555
O8 V3 2.067888 1_655
O9 P8 1.554576 1_455
O9 V1 2.069553 1_555
O10 P1 1.552384 1_555
O10 V2 2.062659 1_555
O11 P2 1.563982 1_555
O11 V0 2.032780 1_555
O12 P4 1.563337 1_555
O13 P3 1.522675 1_554
O13 V1 1.940254 1_555
O14 P5 1.521309 1_555
O14 V4 1.933888 1_555
O15 P4 1.547186 1_555
O15 V1 2.059999 1_555
O16 P3 1.541696 1_555
O16 V0 1.983115 1_555
O17 P5 1.551384 1_555
O17 V3 2.073097 1_555
O18 P4 1.547186 1_556
O18 V0 2.059999 1_555
O19 P5 1.540149 1_555
O19 V2 2.006830 1_555
O20 P0 1.573192 1_455
O20 V3 2.062546 1_555
O21 P6 1.572936 1_555
O21 V0 2.069200 1_555
O22 P7 1.563982 1_555
O22 V1 2.032780 1_555
O23 P8 1.574599 1_545
O23 V2 2.058407 1_555
O24 P3 1.587600 1_554
O25 P4 1.563337 1_556
O26 P5 1.573192 1_565
O26 V5 2.062546 1_555
O27 P11 1.574599 1_655
O27 V4 2.058407 1_555
O28 P6 1.542558 1_555
O29 P7 1.547828 1_555
O29 V5 2.067888 1_545
O30 P6 1.552384 1_555
O30 V4 2.062659 1_555
O31 P8 1.542364 1_555
O31 V5 2.005431 1_555
O32 P7 1.533422 1_555
O33 P6 1.521174 1_555
O33 V3 1.933817 1_555
O34 P8 1.521293 1_555
O35 P7 1.563970 1_555
O35 V2 2.013980 1_455
O36 P9 1.562187 1_555
O36 V5 2.037462 1_555
O37 P10 1.537553 1_545
O38 P3 1.537553 1_655
O39 P9 1.544598 1_555
O39 V4 2.064894 1_465
O40 P10 1.587600 1_556
O41 P9 1.544598 1_555
O41 V2 2.064894 1_465
O42 P2 1.563970 1_555
O42 V4 2.013980 1_565
O43 P11 1.521293 1_555
O44 P11 1.542364 1_555
O44 V3 2.005431 1_555
O45 P10 1.541696 1_555
O45 V1 1.983115 1_555
O46 P10 1.522675 1_556
O46 V0 1.940254 1_555
O47 P11 1.554576 1_565
O47 V0 2.069553 1_555
