# generated using pymatgen
data_VOF
_symmetry_space_group_name_H-M   'P 1'
_cell_length_a   6.01845610
_cell_length_b   6.01812016
_cell_length_c   6.01930492
_cell_angle_alpha   100.28712335
_cell_angle_beta   100.27517956
_cell_angle_gamma   100.28070184
_symmetry_Int_Tables_number   1
_chemical_formula_structural   VOF
_chemical_formula_sum   'V6 O6 F6'
_cell_volume   206.03202993
_cell_formula_units_Z   6
loop_
 _symmetry_equiv_pos_site_id
 _symmetry_equiv_pos_as_xyz
  1  'x, y, z'
loop_
 _atom_site_type_symbol
 _atom_site_label
 _atom_site_symmetry_multiplicity
 _atom_site_fract_x
 _atom_site_fract_y
 _atom_site_fract_z
 _atom_site_occupancy
  V  V0  1  0.66951600  0.85289600  0.39751500  1
  V  V1  1  0.39745500  0.66956800  0.85293800  1
  V  V2  1  0.85290500  0.39745600  0.66951900  1
  V  V3  1  0.14709200  0.60253700  0.33048900  1
  V  V4  1  0.60254700  0.33043800  0.14706000  1
  V  V5  1  0.33049100  0.14710500  0.60248400  1
  O  O0  1  0.42573000  0.82293700  0.58418900  1
  O  O1  1  0.41581700  0.57416400  0.17707000  1
  O  O2  1  0.17699300  0.41575900  0.57413500  1
  O  O3  1  0.82300800  0.58423000  0.42586500  1
  O  O4  1  0.58418800  0.42584900  0.82293700  1
  O  O5  1  0.57427800  0.17706600  0.41581700  1
  F  F0  1  0.90721000  0.07300000  0.66805400  1
  F  F1  1  0.33206800  0.09268700  0.92679300  1
  F  F2  1  0.92685200  0.33207800  0.09262000  1
  F  F3  1  0.07315000  0.66790500  0.90736800  1
  F  F4  1  0.66790800  0.90733700  0.07321000  1
  F  F5  1  0.09279000  0.92699000  0.33193600  1
loop_
_geom_bond_atom_site_label_1
_geom_bond_atom_site_label_2
_geom_bond_distance
_geom_bond_site_symmetry_2
O0 V0 2.003472 1_555
O0 V1 2.018216 1_555
O0 V3 2.114846 1_555
O0 V5 2.119327 1_565
O1 V4 2.003300 1_555
O1 V3 2.018101 1_555
O1 V0 2.115159 1_555
O1 V1 2.119971 1_554
O2 V3 2.003389 1_555
O2 V5 2.017924 1_555
O2 V1 2.115809 1_555
O2 V2 2.119358 1_455
O3 V2 2.003410 1_555
O3 V0 2.017968 1_555
O3 V4 2.115765 1_555
O3 V3 2.119312 1_655
O4 V1 2.003275 1_555
O4 V2 2.018072 1_555
O4 V5 2.115210 1_555
O4 V4 2.119939 1_556
O5 V5 2.003448 1_555
O5 V4 2.018265 1_555
O5 V2 2.114794 1_555
O5 V0 2.119333 1_545
F0 V2 2.035258 1_555
F0 V0 2.043295 1_545
F1 V5 2.034928 1_555
F1 V4 2.043563 1_556
F2 V4 2.034580 1_555
F2 V3 2.043716 1_655
F3 V1 2.034541 1_555
F3 V2 2.043640 1_455
F4 V0 2.034924 1_555
F4 V1 2.043535 1_554
F5 V3 2.035249 1_555
F5 V5 2.043369 1_565
