# generated using pymatgen
data_Li3V3P8O29
_symmetry_space_group_name_H-M   'P 1'
_cell_length_a   9.77988700
_cell_length_b   9.78094359
_cell_length_c   14.15049945
_cell_angle_alpha   89.62055779
_cell_angle_beta   89.65352654
_cell_angle_gamma   60.14178840
_symmetry_Int_Tables_number   1
_chemical_formula_structural   Li3V3P8O29
_chemical_formula_sum   'Li6 V6 P16 O58'
_cell_volume   1173.88083660
_cell_formula_units_Z   2
loop_
 _symmetry_equiv_pos_site_id
 _symmetry_equiv_pos_as_xyz
  1  'x, y, z'
loop_
 _atom_site_type_symbol
 _atom_site_label
 _atom_site_symmetry_multiplicity
 _atom_site_fract_x
 _atom_site_fract_y
 _atom_site_fract_z
 _atom_site_occupancy
  Li  Li0  1  0.09387000  0.68227900  0.05736600  1
  Li  Li1  1  0.31018300  0.91159000  0.44345500  1
  Li  Li2  1  0.69288100  0.08208900  0.55838400  1
  Li  Li3  1  0.77385900  0.91514500  0.94207400  1
  Li  Li4  1  0.77258200  0.31979200  0.44150600  1
  Li  Li5  1  0.91479000  0.30971300  0.94186700  1
  V  V0  1  0.00193600  0.43267500  0.74301500  1
  V  V1  1  0.43116500  0.56926600  0.75314900  1
  V  V2  1  0.43144800  0.00253000  0.24474000  1
  V  V3  1  0.56200900  0.99983800  0.75204300  1
  V  V4  1  0.56327700  0.43272100  0.24340200  1
  V  V5  1  0.99482200  0.56995700  0.26013000  1
  P  P0  1  0.08526800  0.68087300  0.83970400  1
  P  P1  1  0.23303600  0.68346400  0.34217500  1
  P  P2  1  0.08735100  0.22646200  0.33973600  1
  P  P3  1  0.33879500  0.33318500  0.63073700  1
  P  P4  1  0.32677400  0.33877900  0.12923000  1
  P  P5  1  0.22500900  0.08739500  0.84236100  1
  P  P6  1  0.31647100  0.91204600  0.65982600  1
  P  P7  1  0.68363200  0.22964200  0.84159000  1
  P  P8  1  0.31415100  0.77181700  0.15758800  1
  P  P9  1  0.67932600  0.08954200  0.34060400  1
  P  P10  1  0.77271900  0.91021000  0.15979200  1
  P  P11  1  0.67112200  0.66275900  0.86938600  1
  P  P12  1  0.65883300  0.66677800  0.37079900  1
  P  P13  1  0.91337500  0.77346800  0.65644100  1
  P  P14  1  0.76595000  0.31967300  0.65844100  1
  P  P15  1  0.91437900  0.32161400  0.15815100  1
  O  O0  1  0.00039200  0.76395800  0.56978700  1
  O  O1  1  0.09019200  0.65455100  0.33458400  1
  O  O2  1  0.20864000  0.79203200  0.24990600  1
  O  O3  1  0.23447200  0.76253800  0.07178700  1
  O  O4  1  0.09373000  0.52118000  0.82061600  1
  O  O5  1  0.25361200  0.65740900  0.83433900  1
  O  O6  1  0.17995300  0.48746700  0.16963100  1
  O  O7  1  0.09727400  0.38057300  0.32466100  1
  O  O8  1  0.98744000  0.25552500  0.06610200  1
  O  O9  1  0.08121100  0.25794700  0.83639100  1
  O  O10  1  0.33982600  0.47760900  0.67704800  1
  O  O11  1  0.18724700  0.33465900  0.67405200  1
  O  O12  1  0.38464800  0.52375300  0.32195600  1
  O  O13  1  0.34425800  0.32829600  0.52630500  1
  O  O14  1  0.33568800  0.33445300  0.02485400  1
  O  O15  1  0.52362100  0.38254200  0.82506700  1
  O  O16  1  0.33254500  0.18604700  0.17456300  1
  O  O17  1  0.47782800  0.33708600  0.17450100  1
  O  O18  1  0.25650600  0.08167200  0.33889800  1
  O  O19  1  0.20404100  0.00809600  0.74646200  1
  O  O20  1  0.23837700  0.99960200  0.92938400  1
  O  O21  1  0.25403000  0.98917500  0.56784400  1
  O  O22  1  0.37994400  0.09625700  0.82021300  1
  O  O23  1  0.48889500  0.18044800  0.67262800  1
  O  O24  1  0.65805200  0.25794500  0.33482100  1
  O  O25  1  0.34343400  0.91348700  0.16569600  1
  O  O26  1  0.52074400  0.09520600  0.31869500  1
  O  O27  1  0.23944200  0.76447300  0.42795500  1
  O  O28  1  0.75743200  0.24539900  0.56813000  1
  O  O29  1  0.47872600  0.90282600  0.68191000  1
  O  O30  1  0.65956800  0.08356900  0.84083000  1
  O  O31  1  0.78480500  0.20474000  0.74488900  1
  O  O32  1  0.34179300  0.74352300  0.67063300  1
  O  O33  1  0.51201200  0.81716700  0.32879300  1
  O  O34  1  0.61881200  0.90165700  0.17903800  1
  O  O35  1  0.76275800  0.98941000  0.06853100  1
  O  O36  1  0.74920000  0.01122000  0.43154800  1
  O  O37  1  0.79019500  0.99978200  0.25017500  1
  O  O38  1  0.74251800  0.91803200  0.66292500  1
  O  O39  1  0.52384000  0.66180500  0.82511800  1
  O  O40  1  0.47673700  0.61817400  0.17515000  1
  O  O41  1  0.67042700  0.81621100  0.82854300  1
  O  O42  1  0.66479400  0.66594500  0.47551800  1
  O  O43  1  0.67401300  0.66391500  0.97413700  1
  O  O44  1  0.61527900  0.47876800  0.67693300  1
  O  O45  1  0.81248800  0.66627900  0.32677600  1
  O  O46  1  0.66557100  0.51508900  0.33001900  1
  O  O47  1  0.91919800  0.74243600  0.16573600  1
  O  O48  1  0.99207300  0.79480200  0.75276800  1
  O  O49  1  0.00082400  0.75361500  0.93031400  1
  O  O50  1  0.90554700  0.61821500  0.67703200  1
  O  O51  1  0.81970500  0.51410500  0.82709600  1
  O  O52  1  0.74509900  0.34569400  0.17041800  1
  O  O53  1  0.90708300  0.47971800  0.18225600  1
  O  O54  1  0.77109700  0.23600800  0.92460500  1
  O  O55  1  0.91163500  0.34238100  0.66549400  1
  O  O56  1  0.99233400  0.23641100  0.42375500  1
  O  O57  1  0.01140000  0.20436700  0.24378000  1
loop_
_geom_bond_atom_site_label_1
_geom_bond_atom_site_label_2
_geom_bond_distance
_geom_bond_site_symmetry_2
Li0 O3 1.905002 1_555
Li0 O49 1.979426 1_554
Li0 O47 2.143697 1_455
Li0 O6 2.289532 1_555
Li1 O21 1.888566 1_555
Li1 O27 1.895934 1_555
Li1 O18 2.083094 1_565
Li1 O33 2.355344 1_555
Li2 O36 1.905125 1_555
Li2 O28 1.994254 1_555
Li2 O38 2.049507 1_545
Li2 O23 2.364193 1_555
Li3 O35 1.917764 1_556
Li3 O49 1.989470 1_655
Li3 O30 2.042130 1_565
Li3 O41 2.356994 1_555
Li4 O56 1.896846 1_555
Li4 O28 1.961834 1_555
Li4 O24 2.146339 1_555
Li4 O46 2.285262 1_555
Li5 O8 1.871913 1_556
Li5 O54 1.889303 1_555
Li5 O9 2.071987 1_655
Li5 O51 2.371312 1_555
O0 P13 1.465098 1_455
O1 P1 1.561635 1_555
O1 V5 1.859138 1_455
O2 P8 1.610711 1_555
O2 P1 1.619386 1_555
O3 P8 1.474075 1_555
O4 P0 1.547933 1_555
O4 V0 1.886643 1_555
O5 P0 1.546452 1_555
O5 V1 1.891246 1_555
O6 P4 1.557385 1_555
O6 V5 2.024883 1_455
O7 P2 1.571043 1_555
O7 V5 1.846514 1_455
O8 P15 1.471396 1_555
O9 P5 1.559264 1_555
O9 V0 1.982634 1_555
O10 P3 1.565733 1_555
O10 V1 1.892910 1_555
O11 P3 1.593873 1_555
O11 V0 1.848485 1_555
O12 P1 1.554066 1_555
O12 V4 1.876464 1_555
O13 P3 1.478637 1_555
O14 P4 1.478660 1_555
O15 P7 1.552293 1_555
O15 V1 1.879087 1_555
O16 P4 1.596906 1_555
O16 V2 1.844692 1_555
O17 P4 1.606234 1_555
O17 V4 1.823241 1_555
O18 P2 1.552320 1_555
O18 V2 1.992249 1_555
O19 P6 1.601541 1_545
O19 P5 1.631200 1_555
O20 P5 1.465267 1_565
O21 P6 1.474471 1_555
O22 P5 1.589460 1_555
O22 V3 1.819239 1_545
O23 P3 1.597894 1_555
O23 V3 1.902753 1_545
O24 P9 1.555714 1_555
O24 V4 1.965300 1_555
O25 P8 1.553346 1_555
O25 V2 1.876564 1_565
O26 P9 1.557098 1_555
O26 V2 1.868510 1_555
O27 P1 1.472482 1_555
O28 P14 1.497226 1_555
O29 P6 1.577014 1_555
O29 V3 1.827686 1_555
O30 P7 1.559426 1_555
O30 V3 1.991407 1_545
O31 P14 1.603825 1_555
O31 P7 1.630601 1_555
O32 P6 1.546714 1_555
O32 V1 1.880151 1_555
O33 P12 1.573045 1_555
O33 V2 1.970511 1_565
O34 P10 1.570635 1_555
O34 V2 1.840352 1_565
O35 P10 1.479996 1_555
O36 P9 1.478607 1_555
O37 P10 1.612169 1_555
O37 P9 1.622995 1_565
O38 P13 1.564338 1_555
O38 V3 1.981656 1_555
O39 P11 1.578484 1_555
O39 V1 1.875648 1_555
O40 P8 1.571299 1_555
O40 V4 1.843203 1_555
O41 P11 1.601621 1_555
O41 V3 1.901002 1_555
O42 P12 1.483134 1_555
O43 P11 1.482945 1_555
O44 P14 1.542347 1_555
O44 V1 1.895002 1_555
O45 P12 1.621017 1_555
O45 V5 1.809819 1_555
O46 P12 1.565925 1_555
O46 V4 1.995646 1_555
O47 P10 1.552749 1_555
O47 V5 1.979116 1_555
O48 P0 1.603101 1_655
O48 P13 1.634092 1_555
O49 P0 1.498812 1_555
O50 P13 1.583126 1_555
O50 V0 1.827176 1_655
O51 P11 1.575117 1_555
O51 V0 1.949287 1_655
O52 P15 1.560523 1_555
O52 V4 1.853496 1_555
O53 P15 1.552300 1_555
O53 V5 1.872980 1_555
O54 P7 1.477046 1_555
O55 P14 1.551260 1_555
O55 V0 1.887954 1_655
O56 P2 1.478048 1_655
O57 P15 1.611111 1_455
O57 P2 1.618040 1_555
