# generated using pymatgen
data_Ba14Y7(Cu10O21)2
_symmetry_space_group_name_H-M   'P 1'
_cell_length_a   8.67125700
_cell_length_b   12.24440909
_cell_length_c   12.72789204
_cell_angle_alpha   95.47204517
_cell_angle_beta   105.79543591
_cell_angle_gamma   98.27346066
_symmetry_Int_Tables_number   1
_chemical_formula_structural   Ba14Y7(Cu10O21)2
_chemical_formula_sum   'Ba14 Y7 Cu20 O42'
_cell_volume   1273.90779325
_cell_formula_units_Z   1
loop_
 _symmetry_equiv_pos_site_id
 _symmetry_equiv_pos_as_xyz
  1  'x, y, z'
loop_
 _atom_site_type_symbol
 _atom_site_label
 _atom_site_symmetry_multiplicity
 _atom_site_fract_x
 _atom_site_fract_y
 _atom_site_fract_z
 _atom_site_occupancy
  Ba  Ba0  1  0.05231700  0.17836000  0.79913000  1
  Ba  Ba1  1  0.63495400  0.03978400  0.79922700  1
  Ba  Ba2  1  0.48626300  0.32737400  0.80542900  1
  Ba  Ba3  1  0.08418900  0.52797400  0.19582100  1
  Ba  Ba4  1  0.34628100  0.61678200  0.80540800  1
  Ba  Ba5  1  0.22677000  0.24242400  0.19573400  1
  Ba  Ba6  1  0.19277700  0.90281900  0.79911600  1
  Ba  Ba7  1  0.77596100  0.76417000  0.79920000  1
  Ba  Ba8  1  0.65499200  0.38490400  0.19514200  1
  Ba  Ba9  1  0.79858700  0.09958700  0.19701700  1
  Ba  Ba10  1  0.37021200  0.95684900  0.19725100  1
  Ba  Ba11  1  0.91692900  0.47210000  0.80558700  1
  Ba  Ba12  1  0.51239900  0.67102600  0.19677200  1
  Ba  Ba13  1  0.94203100  0.81378400  0.19719200  1
  Y  Y0  1  0.21509500  0.57124600  0.49918400  1
  Y  Y1  1  0.35571200  0.28559600  0.49917000  1
  Y  Y2  1  0.50992200  0.99812900  0.50404400  1
  Y  Y3  1  0.06502800  0.86046700  0.50396500  1
  Y  Y4  1  0.78508700  0.42824100  0.49864800  1
  Y  Y5  1  0.92637100  0.13623900  0.50443500  1
  Y  Y6  1  0.64890900  0.72213300  0.50445000  1
  Cu  Cu0  1  0.00233600  0.00076800  0.00540600  1
  Cu  Cu1  1  0.14277600  0.71427200  0.00008000  1
  Cu  Cu2  1  0.42919100  0.14279700  0.99999800  1
  Cu  Cu3  1  0.28495400  0.42799800  0.99941800  1
  Cu  Cu4  1  0.01298100  0.33682300  0.36483900  1
  Cu  Cu5  1  0.12995300  0.37670600  0.63655700  1
  Cu  Cu6  1  0.15715800  0.05164600  0.36453200  1
  Cu  Cu7  1  0.27352300  0.09134000  0.63152900  1
  Cu  Cu8  1  0.41090500  0.80322500  0.63164500  1
  Cu  Cu9  1  0.69988200  0.23592300  0.63286100  1
  Cu  Cu10  1  0.29853200  0.76696900  0.36526200  1
  Cu  Cu11  1  0.44289500  0.48183300  0.36520600  1
  Cu  Cu12  1  0.85728000  0.28580400  0.99995800  1
  Cu  Cu13  1  0.57056500  0.85706900  0.99966500  1
  Cu  Cu14  1  0.71440900  0.57185800  0.99928700  1
  Cu  Cu15  1  0.55879900  0.51948800  0.63726000  1
  Cu  Cu16  1  0.58484200  0.19471800  0.36424700  1
  Cu  Cu17  1  0.72608700  0.90860100  0.36074500  1
  Cu  Cu18  1  0.87027000  0.62367600  0.36446900  1
  Cu  Cu19  1  0.98512500  0.65927300  0.63202800  1
  O  O0  1  0.06310800  0.02101900  0.61708900  1
  O  O1  1  0.19546400  0.23331000  0.62110000  1
  O  O2  1  0.36550400  0.12174700  0.85158300  1
  O  O3  1  0.06652300  0.02223100  0.15478100  1
  O  O4  1  0.07936100  0.69296600  0.85163800  1
  O  O5  1  0.05086800  0.51673400  0.61950500  1
  O  O6  1  0.09252600  0.19686700  0.38086600  1
  O  O7  1  0.22101400  0.40670900  0.85048300  1
  O  O8  1  0.09136800  0.69685400  0.38142200  1
  O  O9  1  0.33657300  0.44548700  0.61939500  1
  O  O10  1  0.19476900  0.72993200  0.62047200  1
  O  O11  1  0.48011600  0.16172500  0.62112500  1
  O  O12  1  0.23438200  0.41145200  0.37996800  1
  O  O13  1  0.37894300  0.12660100  0.38184800  1
  O  O14  1  0.33786400  0.94575400  0.62182700  1
  O  O15  1  0.62280700  0.37462400  0.61879900  1
  O  O16  1  0.49262200  0.16435400  0.14961300  1
  O  O17  1  0.76045200  0.09743100  0.61720200  1
  O  O18  1  0.47951500  0.65817500  0.62055800  1
  O  O19  1  0.65041200  0.55045500  0.85048800  1
  O  O20  1  0.51965800  0.34013700  0.37907400  1
  O  O21  1  0.50675700  0.83585200  0.85125600  1
  O  O22  1  0.37616600  0.62629500  0.37996400  1
  O  O23  1  0.66258500  0.05347800  0.37804300  1
  O  O24  1  0.23519800  0.91172100  0.38182800  1
  O  O25  1  0.20648200  0.73568000  0.14926700  1
  O  O26  1  0.79355400  0.26469700  0.85124600  1
  O  O27  1  0.34932800  0.44969600  0.14866200  1
  O  O28  1  0.51964600  0.83999100  0.37817500  1
  O  O29  1  0.60856500  0.86954000  0.61702500  1
  O  O30  1  0.90877900  0.30374900  0.62012500  1
  O  O31  1  0.80504200  0.26869200  0.38031000  1
  O  O32  1  0.76637800  0.58787900  0.62108800  1
  O  O33  1  0.66372200  0.55439000  0.38052700  1
  O  O34  1  0.63548800  0.87843200  0.14911800  1
  O  O35  1  0.91130300  0.79330900  0.61699900  1
  O  O36  1  0.93921400  0.97984300  0.85846300  1
  O  O37  1  0.77833800  0.59260300  0.14846000  1
  O  O38  1  0.92133900  0.30704700  0.14963500  1
  O  O39  1  0.94847800  0.48263700  0.37977400  1
  O  O40  1  0.80436500  0.76858400  0.37804700  1
  O  O41  1  0.94736300  0.98227600  0.37834200  1
loop_
_geom_bond_atom_site_label_1
_geom_bond_atom_site_label_2
_geom_bond_distance
_geom_bond_site_symmetry_2
Ba0 O36 2.740037 1_445
Ba0 O2 2.818579 1_555
Ba0 O26 2.819823 1_455
Ba0 O7 2.887645 1_555
Ba0 O17 2.898124 1_455
Ba0 O0 2.899551 1_555
Ba0 O1 2.951201 1_555
Ba0 O30 2.961511 1_455
Ba1 O36 2.765453 1_545
Ba1 O21 2.797620 1_545
Ba1 O26 2.824956 1_555
Ba1 O2 2.881886 1_555
Ba1 O29 2.903015 1_545
Ba1 O17 2.917770 1_555
Ba1 O14 2.923055 1_545
Ba1 O11 2.955706 1_555
Ba2 O2 2.763875 1_555
Ba2 O7 2.795977 1_555
Ba2 O26 2.803045 1_555
Ba2 O19 2.820260 1_555
Ba2 O11 2.934775 1_555
Ba2 O1 2.935536 1_555
Ba2 O9 2.983806 1_555
Ba2 O15 2.995873 1_555
Ba3 O25 2.792309 1_555
Ba3 O38 2.793340 1_455
Ba3 O27 2.800088 1_555
Ba3 O37 2.801417 1_455
Ba3 O22 2.950720 1_555
Ba3 O39 2.955450 1_455
Ba3 O12 2.955655 1_555
Ba3 O8 2.968430 1_555
Ba4 O21 2.767169 1_555
Ba4 O19 2.797335 1_555
Ba4 O4 2.798493 1_555
Ba4 O7 2.818145 1_555
Ba4 O10 2.940814 1_555
Ba4 O18 2.943762 1_555
Ba4 O9 2.984146 1_555
Ba4 O5 2.984211 1_555
Ba5 O3 2.780490 1_555
Ba5 O27 2.791023 1_555
Ba5 O38 2.798294 1_455
Ba5 O16 2.799385 1_555
Ba5 O20 2.948483 1_555
Ba5 O12 2.955882 1_555
Ba5 O6 2.962368 1_555
Ba5 O13 2.973449 1_555
Ba6 O36 2.767569 1_455
Ba6 O2 2.798870 1_565
Ba6 O4 2.823967 1_555
Ba6 O21 2.878881 1_555
Ba6 O0 2.901071 1_565
Ba6 O35 2.917782 1_455
Ba6 O14 2.921033 1_555
Ba6 O10 2.960652 1_555
Ba7 O36 2.740362 1_555
Ba7 O4 2.818187 1_655
Ba7 O21 2.824753 1_555
Ba7 O19 2.889956 1_555
Ba7 O35 2.898529 1_555
Ba7 O29 2.902613 1_555
Ba7 O32 2.952652 1_555
Ba7 O18 2.959252 1_555
Ba8 O16 2.788184 1_555
Ba8 O37 2.795702 1_555
Ba8 O38 2.799102 1_555
Ba8 O27 2.800983 1_555
Ba8 O20 2.951855 1_555
Ba8 O39 2.960122 1_555
Ba8 O31 2.962299 1_555
Ba8 O33 2.967085 1_555
Ba9 O3 2.792887 1_655
Ba9 O38 2.795156 1_555
Ba9 O34 2.796105 1_545
Ba9 O16 2.803069 1_555
Ba9 O23 2.924731 1_555
Ba9 O41 2.932328 1_545
Ba9 O31 2.950819 1_555
Ba9 O6 2.956115 1_655
Ba10 O3 2.789628 1_565
Ba10 O16 2.796048 1_565
Ba10 O25 2.797926 1_555
Ba10 O34 2.806984 1_555
Ba10 O23 2.926411 1_565
Ba10 O28 2.926902 1_555
Ba10 O24 2.958682 1_555
Ba10 O13 2.961879 1_565
Ba11 O26 2.787378 1_555
Ba11 O4 2.791601 1_655
Ba11 O7 2.791934 1_655
Ba11 O19 2.800095 1_555
Ba11 O32 2.954148 1_555
Ba11 O30 2.960671 1_555
Ba11 O5 2.969640 1_655
Ba11 O15 2.977087 1_555
Ba12 O34 2.796890 1_555
Ba12 O27 2.797874 1_555
Ba12 O25 2.802055 1_555
Ba12 O37 2.813284 1_555
Ba12 O40 2.929820 1_555
Ba12 O28 2.930475 1_555
Ba12 O22 2.947699 1_555
Ba12 O33 2.955844 1_555
Ba13 O3 2.785329 1_665
Ba13 O25 2.797580 1_655
Ba13 O37 2.797857 1_555
Ba13 O34 2.806962 1_555
Ba13 O40 2.928970 1_555
Ba13 O41 2.929474 1_555
Ba13 O8 2.957349 1_655
Ba13 O24 2.959043 1_655
Cu0 O36 1.781602 1_444
Cu0 O3 1.811089 1_555
Cu1 O4 1.799778 1_554
Cu1 O25 1.808811 1_555
Cu2 O2 1.799450 1_555
Cu2 O16 1.814011 1_556
Cu3 O7 1.805754 1_555
Cu3 O27 1.809508 1_556
Cu4 O31 1.943598 1_455
Cu4 O6 1.945333 1_555
Cu4 O39 1.953766 1_455
Cu4 O12 1.954000 1_555
Cu4 O38 2.609256 1_455
Cu5 O1 1.930348 1_555
Cu5 O30 1.942386 1_455
Cu5 O9 1.944455 1_555
Cu5 O5 1.945617 1_555
Cu5 O7 2.593745 1_555
Cu6 O24 1.940693 1_545
Cu6 O6 1.949062 1_555
Cu6 O13 1.952465 1_555
Cu6 O41 1.954394 1_445
Cu6 O3 2.543132 1_555
Cu7 O0 1.854541 1_555
Cu7 O11 1.917303 1_555
Cu7 O14 1.945761 1_545
Cu7 O1 1.957375 1_555
Cu7 O2 2.668123 1_555
Cu8 O29 1.852979 1_555
Cu8 O10 1.919538 1_555
Cu8 O14 1.943974 1_555
Cu8 O18 1.957095 1_555
Cu8 O21 2.662735 1_555
Cu9 O17 1.854725 1_555
Cu9 O15 1.918980 1_555
Cu9 O30 1.936426 1_555
Cu9 O11 1.949381 1_555
Cu9 O26 2.647962 1_555
Cu10 O24 1.938910 1_555
Cu10 O22 1.944659 1_555
Cu10 O8 1.948665 1_555
Cu10 O28 1.951838 1_555
Cu10 O25 2.618829 1_555
Cu11 O33 1.941143 1_555
Cu11 O22 1.946609 1_555
Cu11 O20 1.952229 1_555
Cu11 O12 1.953067 1_555
Cu11 O27 2.625520 1_555
Cu12 O26 1.803050 1_555
Cu12 O38 1.814751 1_556
Cu13 O21 1.799377 1_555
Cu13 O34 1.812050 1_556
Cu14 O19 1.804106 1_555
Cu14 O37 1.808652 1_556
Cu15 O18 1.930490 1_555
Cu15 O32 1.945326 1_555
Cu15 O15 1.945350 1_555
Cu15 O9 1.950803 1_555
Cu15 O19 2.585278 1_555
Cu16 O13 1.938638 1_555
Cu16 O31 1.939713 1_555
Cu16 O23 1.950668 1_555
Cu16 O20 1.951705 1_555
Cu16 O16 2.602321 1_555
Cu17 O23 1.941945 1_565
Cu17 O40 1.942682 1_555
Cu17 O41 1.942907 1_555
Cu17 O28 1.943805 1_555
Cu17 O34 2.565859 1_555
Cu18 O33 1.940194 1_555
Cu18 O8 1.941284 1_655
Cu18 O40 1.947241 1_555
Cu18 O39 1.951784 1_555
Cu18 O37 2.618996 1_555
Cu19 O35 1.853491 1_555
Cu19 O5 1.918134 1_655
Cu19 O32 1.933199 1_555
Cu19 O10 1.947315 1_655
Cu19 O4 2.662800 1_655
O0 Y5 2.322455 1_455
O0 Y3 2.328228 1_545
O1 Y1 2.420044 1_555
O1 Y5 2.457890 1_455
O5 Y4 2.425935 1_455
O5 Y0 2.434624 1_555
O6 Y1 2.399901 1_555
O6 Y5 2.499804 1_455
O8 Y0 2.408766 1_555
O8 Y3 2.495587 1_555
O9 Y0 2.420835 1_555
O9 Y1 2.421230 1_555
O10 Y0 2.421596 1_555
O10 Y3 2.465881 1_555
O11 Y1 2.425256 1_555
O11 Y2 2.467671 1_545
O12 Y0 2.413442 1_555
O12 Y1 2.413929 1_555
O13 Y1 2.404709 1_555
O13 Y2 2.490491 1_545
O14 Y3 2.448705 1_555
O14 Y2 2.451578 1_555
O15 Y4 2.418045 1_555
O15 Y1 2.430593 1_555
O17 Y5 2.326648 1_555
O17 Y2 2.339781 1_545
O18 Y0 2.415021 1_555
O18 Y6 2.454826 1_555
O20 Y4 2.417170 1_555
O20 Y1 2.430635 1_555
O22 Y0 2.405319 1_555
O22 Y6 2.507489 1_555
O23 Y5 2.421897 1_555
O23 Y2 2.426622 1_545
O24 Y3 2.481165 1_555
O24 Y2 2.481411 1_555
O28 Y6 2.418505 1_555
O28 Y2 2.419060 1_555
O29 Y6 2.322607 1_555
O29 Y2 2.329878 1_555
O30 Y4 2.425234 1_555
O30 Y5 2.456557 1_555
O31 Y4 2.406871 1_555
O31 Y5 2.511554 1_555
O32 Y4 2.433849 1_555
O32 Y6 2.463297 1_555
O33 Y4 2.408949 1_555
O33 Y6 2.508233 1_555
O35 Y6 2.324937 1_555
O35 Y3 2.340315 1_655
O39 Y4 2.414085 1_555
O39 Y0 2.425424 1_655
O40 Y6 2.421468 1_555
O40 Y3 2.428026 1_655
O41 Y3 2.413857 1_655
O41 Y5 2.417339 1_565
