# generated using pymatgen
data_Mn3O5F
_symmetry_space_group_name_H-M   'P 1'
_cell_length_a   5.45820291
_cell_length_b   5.45820291
_cell_length_c   7.24873960
_cell_angle_alpha   71.25590314
_cell_angle_beta   71.25590314
_cell_angle_gamma   70.65773078
_symmetry_Int_Tables_number   1
_chemical_formula_structural   Mn3O5F
_chemical_formula_sum   'Mn6 O10 F2'
_cell_volume   187.29355765
_cell_formula_units_Z   2
loop_
 _symmetry_equiv_pos_site_id
 _symmetry_equiv_pos_as_xyz
  1  'x, y, z'
loop_
 _atom_site_type_symbol
 _atom_site_label
 _atom_site_symmetry_multiplicity
 _atom_site_fract_x
 _atom_site_fract_y
 _atom_site_fract_z
 _atom_site_occupancy
  Mn  Mn0  1  0.67044200  0.67044200  0.83988400  1
  Mn  Mn1  1  0.34820600  0.34820600  0.67259700  1
  Mn  Mn2  1  0.65179400  0.65179400  0.32740300  1
  Mn  Mn3  1  0.32955800  0.32955800  0.16011600  1
  Mn  Mn4  1  0.00000000  0.00000000  0.50000000  1
  Mn  Mn5  1  0.00000000  0.00000000  0.00000000  1
  O  O0  1  0.63980200  0.02961500  0.66935200  1
  O  O1  1  0.97038500  0.36019800  0.33064800  1
  O  O2  1  0.56905500  0.56905500  0.62445600  1
  O  O3  1  0.23541400  0.23541400  0.96097300  1
  O  O4  1  0.76458600  0.76458600  0.03902700  1
  O  O5  1  0.43094500  0.43094500  0.37554400  1
  O  O6  1  0.36019800  0.97038500  0.33064800  1
  O  O7  1  0.02961500  0.63980200  0.66935200  1
  O  O8  1  0.69416900  0.30583100  0.00000000  1
  O  O9  1  0.30583100  0.69416900  0.00000000  1
  F  F0  1  0.88024900  0.88024900  0.30516600  1
  F  F1  1  0.11975100  0.11975100  0.69483400  1
loop_
_geom_bond_atom_site_label_1
_geom_bond_atom_site_label_2
_geom_bond_distance
_geom_bond_site_symmetry_2
Mn0 O4 1.933974 1_556
Mn0 O0 1.938440 1_565
Mn0 O7 1.938440 1_655
Mn0 O9 1.940575 1_556
Mn0 O8 1.940575 1_556
Mn0 O2 2.089174 1_555
Mn1 O2 1.857364 1_555
Mn1 O3 1.929910 1_555
Mn1 O7 1.930406 1_555
Mn1 O0 1.930406 1_555
Mn1 O5 1.982322 1_555
Mn2 O5 1.857364 1_555
Mn2 O4 1.929910 1_555
Mn2 O6 1.930406 1_555
Mn2 O1 1.930406 1_555
Mn2 O2 1.982322 1_555
Mn3 O3 1.933974 1_554
Mn3 O1 1.938440 1_455
Mn3 O6 1.938440 1_545
Mn3 O9 1.940575 1_555
Mn3 O8 1.940575 1_555
Mn3 O5 2.089174 1_555
Mn4 O1 1.940180 1_455
Mn4 O6 1.940180 1_545
Mn4 O7 1.940180 1_545
Mn4 O0 1.940180 1_455
Mn5 O9 1.930594 1_545
Mn5 O8 1.930594 1_455
Mn5 O3 2.002154 1_554
Mn5 O4 2.002154 1_445
F0 Mn2 1.976717 1_555
F0 Mn5 2.042606 1_665
F0 Mn4 2.078122 1_665
F1 Mn1 1.976717 1_555
F1 Mn5 2.042606 1_556
F1 Mn4 2.078122 1_555
