# generated using pymatgen
data_LiCo5O5F
_symmetry_space_group_name_H-M   'P 1'
_cell_length_a   3.29357421
_cell_length_b   3.29357421
_cell_length_c   15.66298900
_cell_angle_alpha   90.00000000
_cell_angle_beta   90.00000000
_cell_angle_gamma   120.00000429
_symmetry_Int_Tables_number   1
_chemical_formula_structural   LiCo5O5F
_chemical_formula_sum   'Li1 Co5 O5 F1'
_cell_volume   147.14318875
_cell_formula_units_Z   1
loop_
 _symmetry_equiv_pos_site_id
 _symmetry_equiv_pos_as_xyz
  1  'x, y, z'
loop_
 _atom_site_type_symbol
 _atom_site_label
 _atom_site_symmetry_multiplicity
 _atom_site_fract_x
 _atom_site_fract_y
 _atom_site_fract_z
 _atom_site_occupancy
  Li  Li0  1  0.33333300  0.66666700  0.00672500  1
  Co  Co0  1  0.33333300  0.66666700  0.33135500  1
  Co  Co1  1  0.33333300  0.66666700  0.66544800  1
  Co  Co2  1  0.66666700  0.33333300  0.49872900  1
  Co  Co3  1  0.66666700  0.33333300  0.16510100  1
  Co  Co4  1  0.66666700  0.33333300  0.83041300  1
  O  O0  1  0.33333300  0.66666700  0.46213900  1
  O  O1  1  0.33333300  0.66666700  0.12649000  1
  O  O2  1  0.33333300  0.66666700  0.79577100  1
  O  O3  1  0.66666700  0.33333300  0.29540500  1
  O  O4  1  0.66666700  0.33333300  0.62937800  1
  F  F0  1  0.66666700  0.33333300  0.95905000  1
loop_
_geom_bond_atom_site_label_1
_geom_bond_atom_site_label_2
_geom_bond_distance
_geom_bond_site_symmetry_2
Li0 O1 1.875878 1_555
Co0 O3 1.983163 1_455
Co0 O3 1.983163 1_565
Co0 O3 1.983168 1_555
Co0 O0 2.048468 1_555
Co1 O4 1.983697 1_455
Co1 O4 1.983697 1_565
Co1 O4 1.983703 1_555
Co1 O2 2.041248 1_555
Co2 O0 1.986032 1_545
Co2 O0 1.986032 1_655
Co2 O0 1.986038 1_555
Co2 O4 2.046354 1_555
Co3 O1 1.995397 1_545
Co3 O1 1.995397 1_655
Co3 O1 1.995402 1_555
Co3 O3 2.040950 1_555
Co4 O2 1.977443 1_545
Co4 O2 1.977443 1_655
Co4 O2 1.977449 1_555
Co4 F0 2.014840 1_555
F0 Li0 2.042910 1_546
F0 Li0 2.042910 1_656
F0 Li0 2.042915 1_556
