# generated using pymatgen
data_Ho3Sb5O12
_symmetry_space_group_name_H-M   'P 1'
_cell_length_a   9.28336122
_cell_length_b   9.28336447
_cell_length_c   9.28331399
_cell_angle_alpha   109.47180885
_cell_angle_beta   109.47099006
_cell_angle_gamma   109.47081542
_symmetry_Int_Tables_number   1
_chemical_formula_structural   Ho3Sb5O12
_chemical_formula_sum   'Ho6 Sb10 O24'
_cell_volume   615.87426168
_cell_formula_units_Z   2
loop_
 _symmetry_equiv_pos_site_id
 _symmetry_equiv_pos_as_xyz
  1  'x, y, z'
loop_
 _atom_site_type_symbol
 _atom_site_label
 _atom_site_symmetry_multiplicity
 _atom_site_fract_x
 _atom_site_fract_y
 _atom_site_fract_z
 _atom_site_occupancy
  Ho  Ho0  1  0.75000768  0.25000243  0.50000751  1
  Ho  Ho1  1  0.74999938  0.49999957  0.24999935  1
  Ho  Ho2  1  0.49999720  0.24999941  0.74999737  1
  Ho  Ho3  1  0.49999646  0.74999813  0.24999942  1
  Ho  Ho4  1  0.25000172  0.75000346  0.50000493  1
  Ho  Ho5  1  0.24999970  0.50000071  0.74999920  1
  Sb  Sb0  1  0.51715533  -0.00000864  -0.00001145  1
  Sb  Sb1  1  0.28129904  -0.00003984  0.28130968  1
  Sb  Sb2  1  0.28133316  0.28134389  0.00002444  1
  Sb  Sb3  1  0.71867108  -0.00002075  0.71866155  1
  Sb  Sb4  1  0.71868448  0.71866226  0.00000765  1
  Sb  Sb5  1  0.00000337  0.51717641  0.00001047  1
  Sb  Sb6  1  0.99999254  -0.00001421  0.51716188  1
  Sb  Sb7  1  0.48281849  0.48283333  0.48282303  1
  Sb  Sb8  1  0.00005283  0.28136311  0.28135034  1
  Sb  Sb9  1  0.00000362  0.71869951  0.71865757  1
  O  O0  1  0.47837998  0.99998923  0.20038526  1
  O  O1  1  0.47839171  0.20039209  0.00000523  1
  O  O2  1  0.70387685  0.50231508  -0.00000094  1
  O  O3  1  0.70388547  -0.00000236  0.50231723  1
  O  O4  1  0.79843992  0.29611682  0.29612309  1
  O  O5  1  0.49767632  0.49768148  0.20156849  1
  O  O6  1  0.49768175  0.20155446  0.49767811  1
  O  O7  1  0.50230544  0.70388465  -0.00000372  1
  O  O8  1  0.50231961  0.00000358  0.70388444  1
  O  O9  1  0.72200210  0.52161708  0.52161454  1
  O  O10  1  0.79961657  0.27799995  0.79960805  1
  O  O11  1  0.79960236  0.79960723  0.27798591  1
  O  O12  1  0.20039613  0.47838675  0.00000455  1
  O  O13  1  0.20038875  -0.00000199  0.47838464  1
  O  O14  1  0.52161670  0.72201273  0.52162183  1
  O  O15  1  0.52160383  0.52160672  0.72199731  1
  O  O16  1  -0.00000119  0.47837735  0.20039064  1
  O  O17  1  0.00000806  0.20039533  0.47839808  1
  O  O18  1  0.29610683  0.79842758  0.29610951  1
  O  O19  1  0.29612311  0.29611998  0.79843594  1
  O  O20  1  0.20157234  0.49768588  0.49768646  1
  O  O21  1  -0.00000427  0.70388571  0.50231373  1
  O  O22  1  0.00000385  0.50232606  0.70388394  1
  O  O23  1  0.27799571  0.79961883  0.79960374  1
loop_
_geom_bond_atom_site_label_1
_geom_bond_atom_site_label_2
_geom_bond_distance
_geom_bond_site_symmetry_2
Ho0 O4 2.224190 1_555
Ho0 O22 2.224206 1_655
Ho0 O3 2.224213 1_555
Ho0 O6 2.224219 1_555
Ho0 O10 2.568959 1_555
Ho0 O17 2.569036 1_655
Ho0 O9 2.569120 1_555
Ho0 O0 2.569176 1_545
Ho1 O21 2.224179 1_655
Ho1 O2 2.224180 1_555
Ho1 O4 2.224251 1_555
Ho1 O5 2.224259 1_555
Ho1 O1 2.569022 1_555
Ho1 O9 2.569056 1_555
Ho1 O16 2.569072 1_655
Ho1 O11 2.569085 1_555
Ho2 O19 2.224145 1_555
Ho2 O8 2.224186 1_555
Ho2 O2 2.224190 1_556
Ho2 O6 2.224196 1_555
Ho2 O15 2.569037 1_555
Ho2 O13 2.569056 1_555
Ho2 O1 2.569090 1_556
Ho2 O10 2.569137 1_555
Ho3 O5 2.224187 1_555
Ho3 O7 2.224187 1_555
Ho3 O3 2.224203 1_565
Ho3 O18 2.224212 1_555
Ho3 O12 2.569007 1_555
Ho3 O0 2.569008 1_555
Ho3 O11 2.569059 1_555
Ho3 O14 2.569073 1_555
Ho4 O8 2.224203 1_565
Ho4 O20 2.224211 1_555
Ho4 O18 2.224224 1_555
Ho4 O21 2.224225 1_555
Ho4 O23 2.568937 1_555
Ho4 O14 2.569043 1_555
Ho4 O13 2.569043 1_565
Ho4 O16 2.569114 1_555
Ho5 O7 2.224146 1_556
Ho5 O20 2.224169 1_555
Ho5 O22 2.224200 1_555
Ho5 O19 2.224216 1_555
Ho5 O17 2.568983 1_555
Ho5 O15 2.569013 1_555
Ho5 O12 2.569073 1_556
Ho5 O23 2.569147 1_555
O0 Sb0 2.009208 1_565
O0 Sb1 2.197229 1_565
O1 Sb0 2.009157 1_555
O1 Sb2 2.197264 1_555
O2 Sb4 1.966855 1_555
O3 Sb3 1.966963 1_555
O4 Sb8 1.967260 1_655
O5 Sb2 1.966848 1_555
O6 Sb1 1.967210 1_555
O7 Sb4 1.967215 1_555
O8 Sb3 1.967081 1_555
O9 Sb7 2.009266 1_555
O9 Sb9 2.197207 1_655
O10 Sb5 2.009222 1_656
O10 Sb3 2.197347 1_555
O11 Sb6 2.009168 1_565
O11 Sb4 2.197002 1_555
O12 Sb5 2.009254 1_555
O12 Sb2 2.197042 1_555
O13 Sb6 2.009187 1_455
O13 Sb1 2.197075 1_555
O14 Sb7 2.009174 1_555
O14 Sb3 2.196950 1_565
O15 Sb7 2.009202 1_555
O15 Sb4 2.197257 1_556
O16 Sb5 2.009174 1_555
O16 Sb8 2.196981 1_555
O17 Sb6 2.009246 1_455
O17 Sb8 2.197301 1_555
O18 Sb1 1.966793 1_565
O19 Sb2 1.967161 1_556
O20 Sb8 1.966709 1_555
O21 Sb9 1.966797 1_555
O22 Sb9 1.967211 1_555
O23 Sb0 2.009076 1_566
O23 Sb9 2.197143 1_555
