# generated using pymatgen
data_Li2CeO3
_symmetry_space_group_name_H-M   'P 1'
_cell_length_a   4.48346527
_cell_length_b   5.24589404
_cell_length_c   3.53033169
_cell_angle_alpha   90.00000000
_cell_angle_beta   90.00000000
_cell_angle_gamma   64.70171471
_symmetry_Int_Tables_number   1
_chemical_formula_structural   Li2CeO3
_chemical_formula_sum   'Li2 Ce1 O3'
_cell_volume   75.06942088
_cell_formula_units_Z   1
loop_
 _symmetry_equiv_pos_site_id
 _symmetry_equiv_pos_as_xyz
  1  'x, y, z'
loop_
 _atom_site_type_symbol
 _atom_site_label
 _atom_site_symmetry_multiplicity
 _atom_site_fract_x
 _atom_site_fract_y
 _atom_site_fract_z
 _atom_site_occupancy
  Li  Li0  1  0.65497296  0.69005507  0.50000000  1
  Li  Li1  1  0.34502704  0.30994493  0.50000000  1
  Ce  Ce0  1  -0.00000000  -0.00000000  -0.00000000  1
  O  O0  1  0.14538765  0.70922270  0.50000000  1
  O  O1  1  0.85461235  0.29077730  0.50000000  1
  O  O2  1  0.50000000  -0.00000000  -0.00000000  1
loop_
_geom_bond_atom_site_label_1
_geom_bond_atom_site_label_2
_geom_bond_distance
_geom_bond_site_symmetry_2
Li0 O1 1.893690 1_555
Li0 O0 2.243568 1_655
Li0 O0 2.243582 1_555
Li0 O2 2.297111 1_565
Li0 O2 2.297111 1_566
Li1 O0 1.893690 1_555
Li1 O1 2.243568 1_455
Li1 O1 2.243582 1_555
Li1 O2 2.297111 1_555
Li1 O2 2.297111 1_556
Ce0 O1 2.240025 1_455
Ce0 O1 2.240025 1_454
Ce0 O0 2.240025 1_544
Ce0 O0 2.240025 1_545
Ce0 O2 2.241733 1_455
Ce0 O2 2.241733 1_555
