# generated using pymatgen
data_LiFe2(BO3)2
_symmetry_space_group_name_H-M   'P 1'
_cell_length_a   5.28539800
_cell_length_b   9.06381738
_cell_length_c   11.34069196
_cell_angle_alpha   113.46400371
_cell_angle_beta   102.02888251
_cell_angle_gamma   90.26285630
_symmetry_Int_Tables_number   1
_chemical_formula_structural   LiFe2(BO3)2
_chemical_formula_sum   'Li4 Fe8 B8 O24'
_cell_volume   485.09172727
_cell_formula_units_Z   4
loop_
 _symmetry_equiv_pos_site_id
 _symmetry_equiv_pos_as_xyz
  1  'x, y, z'
loop_
 _atom_site_type_symbol
 _atom_site_label
 _atom_site_symmetry_multiplicity
 _atom_site_fract_x
 _atom_site_fract_y
 _atom_site_fract_z
 _atom_site_occupancy
  Li  Li0  1  0.38983000  0.04342000  0.09182900  1
  Li  Li1  1  0.06720100  0.40016100  0.83055900  1
  Li  Li2  1  0.88869200  0.55018600  0.10063700  1
  Li  Li3  1  0.33505000  0.68550000  0.35917500  1
  Fe  Fe0  1  0.59180700  0.60820400  0.86903300  1
  Fe  Fe1  1  0.89507200  0.90837200  0.12609500  1
  Fe  Fe2  1  0.15727900  0.47231800  0.61708400  1
  Fe  Fe3  1  0.35167200  0.02558100  0.37142100  1
  Fe  Fe4  1  0.65187000  0.98173400  0.62764300  1
  Fe  Fe5  1  0.84625900  0.51302400  0.37142000  1
  Fe  Fe6  1  0.09852400  0.08204000  0.86512500  1
  Fe  Fe7  1  0.40252300  0.39558000  0.11505900  1
  B  B0  1  0.35031400  0.35486100  0.36593500  1
  B  B1  1  0.11028600  0.76069600  0.88242600  1
  B  B2  1  0.85410600  0.84992600  0.37002500  1
  B  B3  1  0.59470100  0.27671000  0.86815000  1
  B  B4  1  0.14561500  0.13394300  0.61948700  1
  B  B5  1  0.39826300  0.73352600  0.12894000  1
  B  B6  1  0.65010100  0.64793800  0.62010600  1
  B  B7  1  0.89980700  0.22983000  0.12247200  1
  O  O0  1  0.87601800  0.76897800  0.92137600  1
  O  O1  1  0.54841700  0.55877800  0.67875000  1
  O  O2  1  0.75173200  0.10545100  0.12033100  1
  O  O3  1  0.45216100  0.21479700  0.35577700  1
  O  O4  1  0.12615200  0.39431100  0.41133700  1
  O  O5  1  0.21082800  0.60937800  0.84119700  1
  O  O6  1  0.73801500  0.41814700  0.88820300  1
  O  O7  1  0.98034800  0.95742200  0.33721300  1
  O  O8  1  0.31091600  0.88836900  0.16912700  1
  O  O9  1  0.36880100  0.09190700  0.56678400  1
  O  O10  1  0.06283900  0.28135400  0.64491700  1
  O  O11  1  0.62313900  0.70798300  0.07992300  1
  O  O12  1  0.35582300  0.28598900  0.90274000  1
  O  O13  1  0.61433400  0.88011900  0.40663000  1
  O  O14  1  0.70356400  0.13151000  0.81917900  1
  O  O15  1  0.02334400  0.01957000  0.64835600  1
  O  O16  1  0.26513300  0.61092100  0.14065200  1
  O  O17  1  0.81115100  0.38664600  0.16558500  1
  O  O18  1  0.86256700  0.59743600  0.56549900  1
  O  O19  1  0.53094700  0.77764200  0.61023600  1
  O  O20  1  0.95807200  0.70731700  0.35844600  1
  O  O21  1  0.24313800  0.89550200  0.89333100  1
  O  O22  1  0.46755200  0.46709300  0.33114700  1
  O  O23  1  0.13394600  0.20933400  0.08215800  1
loop_
_geom_bond_atom_site_label_1
_geom_bond_atom_site_label_2
_geom_bond_distance
_geom_bond_site_symmetry_2
Li0 O2 1.914963 1_555
Li0 O8 2.011346 1_545
Li0 O23 2.047140 1_555
Li0 O21 2.079820 1_544
Li1 O10 1.940774 1_555
Li1 O6 1.967974 1_455
Li1 O5 1.988274 1_555
Li1 O12 2.058309 1_555
Li2 O16 1.970361 1_655
Li2 O17 1.974177 1_555
Li2 O11 2.054091 1_555
Li2 O6 2.183124 1_554
Li3 O20 2.001798 1_455
Li3 O22 2.028480 1_555
Li3 O13 2.114058 1_555
Li3 O16 2.239854 1_555
Li3 O19 2.597273 1_555
Fe0 O0 1.910963 1_555
Fe0 O6 1.962741 1_555
Fe0 O5 1.972911 1_555
Fe0 O1 1.983161 1_555
Fe0 O11 2.162487 1_556
Fe1 O2 1.963118 1_565
Fe1 O11 2.131629 1_555
Fe1 O0 2.135881 1_554
Fe1 O8 2.174590 1_655
Fe1 O7 2.198598 1_555
Fe2 O10 1.958951 1_555
Fe2 O18 2.054104 1_455
Fe2 O1 2.079208 1_555
Fe2 O4 2.120492 1_555
Fe2 O5 2.294703 1_555
Fe3 O3 1.878318 1_555
Fe3 O7 1.965860 1_445
Fe3 O13 2.007487 1_545
Fe3 O9 2.033100 1_555
Fe3 O8 2.091819 1_545
Fe4 O19 1.874877 1_555
Fe4 O15 1.940391 1_665
Fe4 O9 1.960638 1_565
Fe4 O14 2.009175 1_565
Fe4 O13 2.263314 1_555
Fe5 O4 1.916903 1_655
Fe5 O20 1.924885 1_555
Fe5 O22 1.961703 1_555
Fe5 O18 2.004110 1_555
Fe5 O17 2.117478 1_555
Fe6 O21 1.971243 1_545
Fe6 O12 2.134410 1_555
Fe6 O14 2.138122 1_455
Fe6 O23 2.229072 1_556
Fe6 O15 2.236986 1_555
Fe7 O16 2.017633 1_555
Fe7 O23 2.063889 1_555
Fe7 O17 2.126544 1_555
Fe7 O12 2.165799 1_554
Fe7 O22 2.219370 1_555
B0 O3 1.352909 1_555
B0 O4 1.381385 1_555
B0 O22 1.410714 1_555
B1 O21 1.355315 1_555
B1 O0 1.391512 1_455
B1 O5 1.407709 1_555
B2 O20 1.375278 1_555
B2 O7 1.385361 1_555
B2 O13 1.408984 1_555
B3 O14 1.389108 1_555
B3 O12 1.391460 1_555
B3 O6 1.398580 1_555
B4 O10 1.345683 1_555
B4 O15 1.397068 1_555
B4 O9 1.417944 1_555
B5 O16 1.377316 1_555
B5 O11 1.396678 1_555
B5 O8 1.405291 1_555
B6 O19 1.368728 1_555
B6 O18 1.386698 1_555
B6 O1 1.399008 1_555
B7 O2 1.358752 1_555
B7 O23 1.394732 1_655
B7 O17 1.423746 1_555
