# generated using pymatgen
data_Li3Fe2(SiO4)2
_symmetry_space_group_name_H-M   'P 1'
_cell_length_a   5.03224900
_cell_length_b   5.33396397
_cell_length_c   6.63999125
_cell_angle_alpha   90.51656428
_cell_angle_beta   90.09538384
_cell_angle_gamma   90.66008062
_symmetry_Int_Tables_number   1
_chemical_formula_structural   Li3Fe2(SiO4)2
_chemical_formula_sum   'Li3 Fe2 Si2 O8'
_cell_volume   178.21019905
_cell_formula_units_Z   1
loop_
 _symmetry_equiv_pos_site_id
 _symmetry_equiv_pos_as_xyz
  1  'x, y, z'
loop_
 _atom_site_type_symbol
 _atom_site_label
 _atom_site_symmetry_multiplicity
 _atom_site_fract_x
 _atom_site_fract_y
 _atom_site_fract_z
 _atom_site_occupancy
  Li  Li0  1  0.50053900  0.17435000  0.00655400  1
  Li  Li1  1  0.00529900  0.81431700  0.50302600  1
  Li  Li2  1  0.99668200  0.34616200  0.76046900  1
  Fe  Fe0  1  0.00366100  0.81767000  0.01921300  1
  Fe  Fe1  1  0.49963300  0.17478300  0.49952500  1
  Si  Si0  1  0.00208100  0.32487600  0.25262100  1
  Si  Si1  1  0.51306300  0.68577900  0.75214400  1
  O  O0  1  0.89034500  0.19415100  0.04132600  1
  O  O1  1  0.32480300  0.26653200  0.26290700  1
  O  O2  1  0.94110200  0.62122200  0.26599900  1
  O  O3  1  0.87694300  0.18342800  0.46028000  1
  O  O4  1  0.39822700  0.84363800  0.55607200  1
  O  O5  1  0.84093200  0.68671400  0.74930900  1
  O  O6  1  0.40578500  0.38565000  0.72977400  1
  O  O7  1  0.39883500  0.82028900  0.95345900  1
loop_
_geom_bond_atom_site_label_1
_geom_bond_atom_site_label_2
_geom_bond_distance
_geom_bond_site_symmetry_2
Li0 O0 1.976264 1_555
Li0 O7 1.979386 1_544
Li0 O1 1.980201 1_555
Li0 O6 2.218564 1_554
Li1 O2 1.898321 1_455
Li1 O5 1.957875 1_455
Li1 O4 2.011926 1_555
Li1 O3 2.100669 1_465
Li2 O5 1.988585 1_555
Li2 O6 2.077586 1_655
Li2 O0 2.107647 1_556
Li2 O3 2.245515 1_555
Fe0 O2 1.976705 1_455
Fe0 O7 2.036607 1_554
Fe0 O5 2.080795 1_454
Fe0 O0 2.097781 1_465
Fe1 O1 1.871148 1_555
Fe1 O4 1.874322 1_545
Fe1 O3 1.917031 1_555
Fe1 O6 1.951701 1_555
O0 Si0 1.655737 1_655
O1 Si0 1.658495 1_555
O2 Si0 1.615363 1_655
O3 Si0 1.696388 1_655
O4 Si1 1.663249 1_555
O5 Si1 1.650008 1_555
O6 Si1 1.688740 1_555
O7 Si1 1.620741 1_555
