# generated using pymatgen
data_Fe4O5F3
_symmetry_space_group_name_H-M   'P 1'
_cell_length_a   9.92342509
_cell_length_b   9.92342509
_cell_length_c   4.73253315
_cell_angle_alpha   88.41067940
_cell_angle_beta   88.41067940
_cell_angle_gamma   35.76356812
_symmetry_Int_Tables_number   1
_chemical_formula_structural   Fe4O5F3
_chemical_formula_sum   'Fe8 O10 F6'
_cell_volume   272.25360990
_cell_formula_units_Z   2
loop_
 _symmetry_equiv_pos_site_id
 _symmetry_equiv_pos_as_xyz
  1  'x, y, z'
loop_
 _atom_site_type_symbol
 _atom_site_label
 _atom_site_symmetry_multiplicity
 _atom_site_fract_x
 _atom_site_fract_y
 _atom_site_fract_z
 _atom_site_occupancy
  Fe  Fe0  1  0.00000000  0.50000000  0.00000000  1
  Fe  Fe1  1  0.74478600  0.25521400  0.00000000  1
  Fe  Fe2  1  0.25521400  0.74478600  0.00000000  1
  Fe  Fe3  1  0.50000000  0.00000000  0.00000000  1
  Fe  Fe4  1  0.63433400  0.63433400  0.52850200  1
  Fe  Fe5  1  0.36566600  0.36566600  0.47149800  1
  Fe  Fe6  1  0.12744400  0.12744400  0.56575300  1
  Fe  Fe7  1  0.87255600  0.87255600  0.43424700  1
  O  O0  1  0.07450400  0.57317600  0.28418400  1
  O  O1  1  0.57317600  0.07450400  0.28418400  1
  O  O2  1  0.70416800  0.70416800  0.19728200  1
  O  O3  1  0.95248600  0.95248600  0.17528500  1
  O  O4  1  0.45035900  0.45035900  0.18213500  1
  O  O5  1  0.04751400  0.04751400  0.82471500  1
  O  O6  1  0.54964100  0.54964100  0.81786500  1
  O  O7  1  0.29583200  0.29583200  0.80271800  1
  O  O8  1  0.42682400  0.92549600  0.71581600  1
  O  O9  1  0.92549600  0.42682400  0.71581600  1
  F  F0  1  0.82950700  0.32703400  0.32794900  1
  F  F1  1  0.32703400  0.82950700  0.32794900  1
  F  F2  1  0.19680300  0.19680300  0.21297100  1
  F  F3  1  0.80319700  0.80319700  0.78702900  1
  F  F4  1  0.67296600  0.17049300  0.67205100  1
  F  F5  1  0.17049300  0.67296600  0.67205100  1
loop_
_geom_bond_atom_site_label_1
_geom_bond_atom_site_label_2
_geom_bond_distance
_geom_bond_site_symmetry_2
Fe0 O9 1.965530 1_454
Fe0 O0 1.965530 1_555
Fe0 O7 1.973595 1_554
Fe0 O2 1.973595 1_455
Fe1 O4 1.949434 1_555
Fe1 O6 1.949434 1_554
Fe1 O3 1.966999 1_545
Fe1 O5 1.966999 1_654
Fe2 O4 1.949434 1_555
Fe2 O6 1.949434 1_554
Fe2 O3 1.966999 1_455
Fe2 O5 1.966999 1_564
Fe3 O8 1.965530 1_544
Fe3 O1 1.965530 1_555
Fe3 O7 1.973595 1_554
Fe3 O2 1.973595 1_545
Fe4 O9 1.938956 1_555
Fe4 O8 1.938956 1_555
Fe4 O2 2.019014 1_555
Fe4 O6 2.075242 1_555
Fe5 O0 1.938956 1_555
Fe5 O1 1.938956 1_555
Fe5 O7 2.019014 1_555
Fe5 O4 2.075242 1_555
Fe6 O5 1.916609 1_555
Fe6 O9 1.929394 1_455
Fe6 O8 1.929394 1_545
Fe7 O3 1.916609 1_555
Fe7 O0 1.929394 1_655
Fe7 O1 1.929394 1_565
F0 Fe4 2.103537 1_555
F0 Fe6 2.118569 1_655
F0 Fe1 2.174784 1_555
F1 Fe4 2.103537 1_555
F1 Fe6 2.118569 1_565
F1 Fe2 2.174784 1_555
F2 Fe0 2.070632 1_555
F2 Fe3 2.070632 1_555
F2 Fe6 2.091931 1_555
F3 Fe0 2.070632 1_656
F3 Fe3 2.070632 1_566
F3 Fe7 2.091931 1_555
F4 Fe5 2.103537 1_555
F4 Fe7 2.118569 1_545
F4 Fe1 2.174784 1_556
F5 Fe5 2.103537 1_555
F5 Fe7 2.118569 1_455
F5 Fe2 2.174784 1_556
