# generated using pymatgen
data_Ho2Sb2O7
_symmetry_space_group_name_H-M   'P 1'
_cell_length_a   7.52884026
_cell_length_b   7.52884026
_cell_length_c   18.52612000
_cell_angle_alpha   90.00000000
_cell_angle_beta   90.00000000
_cell_angle_gamma   120.00000228
_symmetry_Int_Tables_number   1
_chemical_formula_structural   Ho2Sb2O7
_chemical_formula_sum   'Ho12 Sb12 O42'
_cell_volume   909.43415351
_cell_formula_units_Z   6
loop_
 _symmetry_equiv_pos_site_id
 _symmetry_equiv_pos_as_xyz
  1  'x, y, z'
loop_
 _atom_site_type_symbol
 _atom_site_label
 _atom_site_symmetry_multiplicity
 _atom_site_fract_x
 _atom_site_fract_y
 _atom_site_fract_z
 _atom_site_occupancy
  Ho  Ho0  1  0.00000000  0.82581400  0.66666700  1
  Ho  Ho1  1  0.00000000  0.83640300  0.16666700  1
  Ho  Ho2  1  0.18205700  0.68362800  0.01127900  1
  Ho  Ho3  1  0.17418600  0.17418600  0.00000000  1
  Ho  Ho4  1  0.50157200  0.81794300  0.67794500  1
  Ho  Ho5  1  0.16359700  0.16359700  0.50000000  1
  Ho  Ho6  1  0.31637200  0.49842800  0.34461200  1
  Ho  Ho7  1  0.49842800  0.31637200  0.65538800  1
  Ho  Ho8  1  0.68362800  0.18205700  0.98872100  1
  Ho  Ho9  1  0.81794300  0.50157200  0.32205500  1
  Ho  Ho10  1  0.83640300  0.00000000  0.83333300  1
  Ho  Ho11  1  0.82581400  0.00000000  0.33333300  1
  Sb  Sb0  1  0.00000000  0.32856200  0.16666700  1
  Sb  Sb1  1  0.00000000  0.30051100  0.66666700  1
  Sb  Sb2  1  0.16746800  0.66916400  0.50124800  1
  Sb  Sb3  1  0.50169600  0.83253200  0.16791500  1
  Sb  Sb4  1  0.33083600  0.49830400  0.83458200  1
  Sb  Sb5  1  0.30051100  0.00000000  0.33333300  1
  Sb  Sb6  1  0.67143800  0.67143800  0.50000000  1
  Sb  Sb7  1  0.32856200  0.00000000  0.83333300  1
  Sb  Sb8  1  0.69948900  0.69948900  0.00000000  1
  Sb  Sb9  1  0.49830400  0.33083600  0.16541800  1
  Sb  Sb10  1  0.66916400  0.16746800  0.49875200  1
  Sb  Sb11  1  0.83253200  0.50169600  0.83208500  1
  O  O0  1  0.01654000  0.85167200  0.28449700  1
  O  O1  1  0.99136500  0.80030000  0.80302700  1
  O  O2  1  0.10600100  0.65640900  0.39426700  1
  O  O3  1  0.04451700  0.42636400  0.80744200  1
  O  O4  1  0.32932300  0.99360800  0.95674700  1
  O  O5  1  0.23319300  0.69251400  0.60634100  1
  O  O6  1  0.00639200  0.33571500  0.29008000  1
  O  O7  1  0.20122500  0.67648500  0.13914400  1
  O  O8  1  0.38184700  0.95548300  0.47410900  1
  O  O9  1  0.45932100  0.76680700  0.27300800  1
  O  O10  1  0.47526000  0.79877500  0.80581000  1
  O  O11  1  0.34359100  0.44959200  0.72760000  1
  O  O12  1  0.14832800  0.16486800  0.61783000  1
  O  O13  1  0.32351500  0.52474000  0.47247700  1
  O  O14  1  0.19970000  0.19106500  0.13636000  1
  O  O15  1  0.16486800  0.14832800  0.38217000  1
  O  O16  1  0.30748600  0.54067900  0.93967400  1
  O  O17  1  0.19106500  0.19970000  0.86364000  1
  O  O18  1  0.55040800  0.89399900  0.06093300  1
  O  O19  1  0.57363600  0.61815300  0.14077600  1
  O  O20  1  0.80893500  0.00863500  0.46969400  1
  O  O21  1  0.66428500  0.67067700  0.62341400  1
  O  O22  1  0.44959200  0.34359100  0.27240000  1
  O  O23  1  0.61815300  0.57363600  0.85922400  1
  O  O24  1  0.33571500  0.00639200  0.70992000  1
  O  O25  1  0.83513200  0.98346000  0.95116300  1
  O  O26  1  0.54067900  0.30748600  0.06032600  1
  O  O27  1  0.67067700  0.66428500  0.37658600  1
  O  O28  1  0.52474000  0.32351500  0.52752300  1
  O  O29  1  0.42636400  0.04451700  0.19255800  1
  O  O30  1  0.69251400  0.23319300  0.39365900  1
  O  O31  1  0.67648500  0.20122500  0.86085600  1
  O  O32  1  0.89399900  0.55040800  0.93906700  1
  O  O33  1  0.98346000  0.83513200  0.04883700  1
  O  O34  1  0.79877500  0.47526000  0.19419000  1
  O  O35  1  0.00863500  0.80893500  0.53030600  1
  O  O36  1  0.76680700  0.45932100  0.72699200  1
  O  O37  1  0.65640900  0.10600100  0.60573300  1
  O  O38  1  0.95548300  0.38184700  0.52589100  1
  O  O39  1  0.80030000  0.99136500  0.19697300  1
  O  O40  1  0.99360800  0.32932300  0.04325300  1
  O  O41  1  0.85167200  0.01654000  0.71550300  1
loop_
_geom_bond_atom_site_label_1
_geom_bond_atom_site_label_2
_geom_bond_distance
_geom_bond_site_symmetry_2
Ho0 O24 2.332945 1_565
Ho0 O21 2.332945 1_455
Ho0 O41 2.393987 1_465
Ho0 O12 2.393994 1_565
Ho0 O1 2.531883 1_455
Ho0 O35 2.531902 1_555
Ho0 O36 2.664690 1_455
Ho0 O5 2.664698 1_555
Ho1 O0 2.186230 1_555
Ho1 O33 2.186230 1_455
Ho1 O39 2.385591 1_455
Ho1 O14 2.385595 1_565
Ho1 O34 2.414300 1_455
Ho1 O7 2.414300 1_555
Ho1 O19 2.821300 1_455
Ho1 O29 2.821300 1_565
Ho2 O16 2.196853 1_554
Ho2 O4 2.260299 1_554
Ho2 O32 2.307366 1_454
Ho2 O7 2.375477 1_555
Ho2 O40 2.386379 1_455
Ho2 O33 2.392983 1_455
Ho2 O18 2.579402 1_555
Ho3 O40 2.332945 1_455
Ho3 O4 2.332945 1_544
Ho3 O33 2.393994 1_445
Ho3 O25 2.393994 1_444
Ho3 O17 2.531883 1_554
Ho3 O14 2.531883 1_555
Ho3 O26 2.664698 1_555
Ho3 O16 2.664698 1_554
Ho4 O5 2.196847 1_555
Ho4 O21 2.260285 1_555
Ho4 O37 2.307365 1_565
Ho4 O10 2.375478 1_555
Ho4 O24 2.386390 1_565
Ho4 O41 2.392977 1_565
Ho4 O11 2.579408 1_555
Ho5 O15 2.186230 1_555
Ho5 O12 2.186230 1_555
Ho5 O35 2.385590 1_545
Ho5 O20 2.385590 1_455
Ho5 O13 2.414300 1_555
Ho5 O28 2.414300 1_555
Ho5 O38 2.821300 1_455
Ho5 O8 2.821300 1_545
Ho6 O9 2.196846 1_555
Ho6 O6 2.260299 1_555
Ho6 O22 2.307360 1_555
Ho6 O13 2.375478 1_555
Ho6 O27 2.386379 1_555
Ho6 O15 2.392976 1_555
Ho6 O2 2.579415 1_555
Ho7 O36 2.196846 1_555
Ho7 O24 2.260299 1_555
Ho7 O11 2.307360 1_555
Ho7 O28 2.375478 1_555
Ho7 O21 2.386379 1_555
Ho7 O12 2.392976 1_555
Ho7 O37 2.579415 1_555
Ho8 O26 2.196853 1_556
Ho8 O40 2.260299 1_556
Ho8 O18 2.307366 1_546
Ho8 O31 2.375477 1_555
Ho8 O4 2.386379 1_545
Ho8 O25 2.392983 1_545
Ho8 O32 2.579402 1_555
Ho9 O30 2.196847 1_555
Ho9 O27 2.260285 1_555
Ho9 O2 2.307365 1_655
Ho9 O34 2.375478 1_555
Ho9 O6 2.386390 1_655
Ho9 O0 2.392977 1_655
Ho9 O22 2.579408 1_555
Ho10 O41 2.186230 1_555
Ho10 O25 2.186230 1_545
Ho10 O1 2.385591 1_545
Ho10 O17 2.385595 1_655
Ho10 O10 2.414300 1_545
Ho10 O31 2.414300 1_555
Ho10 O23 2.821300 1_545
Ho10 O3 2.821300 1_655
Ho11 O6 2.332945 1_655
Ho11 O27 2.332945 1_545
Ho11 O0 2.393987 1_645
Ho11 O15 2.393994 1_655
Ho11 O39 2.531883 1_545
Ho11 O20 2.531902 1_555
Ho11 O9 2.664690 1_545
Ho11 O30 2.664698 1_555
O0 Sb5 2.061318 1_565
O1 Sb11 2.021276 1_555
O1 Sb7 2.281187 1_665
O2 Sb2 2.026583 1_555
O2 Sb5 2.514440 1_565
O3 Sb11 1.995624 1_455
O3 Sb4 2.006349 1_555
O4 Sb7 2.286956 1_565
O5 Sb2 1.994856 1_555
O6 Sb0 2.286938 1_555
O7 Sb3 2.030806 1_555
O7 Sb0 2.334157 1_555
O8 Sb10 1.995624 1_565
O8 Sb2 2.006345 1_555
O9 Sb3 1.994856 1_555
O10 Sb4 2.030811 1_555
O10 Sb7 2.334157 1_565
O11 Sb4 2.026601 1_555
O11 Sb1 2.514431 1_555
O12 Sb1 2.061326 1_555
O13 Sb2 2.030806 1_555
O13 Sb6 2.334157 1_555
O14 Sb9 2.021276 1_555
O14 Sb0 2.281192 1_555
O15 Sb5 2.061326 1_555
O16 Sb4 1.994837 1_555
O17 Sb4 2.021276 1_555
O17 Sb7 2.281192 1_555
O18 Sb3 2.026601 1_555
O18 Sb8 2.514431 1_555
O19 Sb9 1.995619 1_555
O19 Sb3 2.006345 1_555
O20 Sb10 2.021276 1_555
O20 Sb6 2.281187 1_545
O21 Sb6 2.286956 1_555
O22 Sb9 2.026601 1_555
O22 Sb5 2.514431 1_555
O23 Sb4 1.995619 1_555
O23 Sb11 2.006345 1_555
O24 Sb7 2.286938 1_555
O25 Sb8 2.061326 1_556
O26 Sb9 1.994837 1_555
O27 Sb6 2.286956 1_555
O28 Sb10 2.030806 1_555
O28 Sb6 2.334157 1_555
O29 Sb3 1.995624 1_545
O29 Sb9 2.006349 1_555
O30 Sb10 1.994856 1_555
O31 Sb11 2.030806 1_555
O31 Sb7 2.334157 1_555
O32 Sb11 2.026601 1_555
O32 Sb8 2.514431 1_556
O33 Sb8 2.061326 1_555
O34 Sb9 2.030811 1_555
O34 Sb0 2.334157 1_655
O35 Sb2 2.021276 1_555
O35 Sb6 2.281187 1_455
O36 Sb11 1.994856 1_555
O37 Sb10 2.026583 1_555
O37 Sb1 2.514440 1_655
O38 Sb2 1.995624 1_655
O38 Sb10 2.006345 1_555
O39 Sb3 2.021276 1_555
O39 Sb0 2.281187 1_665
O40 Sb0 2.286956 1_655
O41 Sb1 2.061318 1_655
