# generated using pymatgen
data_Li2VO2F3
_symmetry_space_group_name_H-M   'P 1'
_cell_length_a   5.39889400
_cell_length_b   7.16661900
_cell_length_c   9.46095100
_cell_angle_alpha   90.00000000
_cell_angle_beta   90.00000000
_cell_angle_gamma   90.00000000
_symmetry_Int_Tables_number   1
_chemical_formula_structural   Li2VO2F3
_chemical_formula_sum   'Li8 V4 O8 F12'
_cell_volume   366.06137830
_cell_formula_units_Z   4
loop_
 _symmetry_equiv_pos_site_id
 _symmetry_equiv_pos_as_xyz
  1  'x, y, z'
loop_
 _atom_site_type_symbol
 _atom_site_label
 _atom_site_symmetry_multiplicity
 _atom_site_fract_x
 _atom_site_fract_y
 _atom_site_fract_z
 _atom_site_occupancy
  Li  Li0  1  0.75000000  0.96802100  0.27295500  1
  Li  Li1  1  0.25000000  0.14128000  0.43468600  1
  Li  Li2  1  0.75000000  0.35872000  0.93468600  1
  Li  Li3  1  0.25000000  0.53197900  0.77295500  1
  Li  Li4  1  0.75000000  0.46802100  0.22704500  1
  Li  Li5  1  0.25000000  0.64128000  0.06531400  1
  Li  Li6  1  0.75000000  0.85872000  0.56531400  1
  Li  Li7  1  0.25000000  0.03197900  0.72704500  1
  V  V0  1  0.25000000  0.21469900  0.05701400  1
  V  V1  1  0.75000000  0.28530100  0.55701400  1
  V  V2  1  0.25000000  0.71469900  0.44298600  1
  V  V3  1  0.75000000  0.78530100  0.94298600  1
  O  O0  1  0.50794300  0.14422300  0.58609500  1
  O  O1  1  0.99205700  0.14422300  0.58609500  1
  O  O2  1  0.00794300  0.35577700  0.08609500  1
  O  O3  1  0.49205700  0.35577700  0.08609500  1
  O  O4  1  0.50794300  0.64422300  0.91390500  1
  O  O5  1  0.99205700  0.64422300  0.91390500  1
  O  O6  1  0.00794300  0.85577700  0.41390500  1
  O  O7  1  0.49205700  0.85577700  0.41390500  1
  F  F0  1  0.00000000  0.00000000  0.00000000  1
  F  F1  1  0.50000000  0.00000000  0.00000000  1
  F  F2  1  0.25000000  0.10709200  0.23726700  1
  F  F3  1  0.75000000  0.24542600  0.35141200  1
  F  F4  1  0.25000000  0.25457400  0.85141200  1
  F  F5  1  0.75000000  0.39290800  0.73726700  1
  F  F6  1  0.00000000  0.50000000  0.50000000  1
  F  F7  1  0.50000000  0.50000000  0.50000000  1
  F  F8  1  0.25000000  0.60709200  0.26273300  1
  F  F9  1  0.75000000  0.74542600  0.14858800  1
  F  F10  1  0.25000000  0.75457400  0.64858800  1
  F  F11  1  0.75000000  0.89290800  0.76273300  1
loop_
_geom_bond_atom_site_label_1
_geom_bond_atom_site_label_2
_geom_bond_distance
_geom_bond_site_symmetry_2
Li0 O6 2.089188 1_655
Li0 O7 2.089188 1_555
Li1 O0 1.997943 1_555
Li1 O1 1.997943 1_455
Li1 O7 2.435770 1_545
Li1 O6 2.435770 1_545
Li2 O2 1.997943 1_656
Li2 O3 1.997943 1_556
Li2 O5 2.435770 1_555
Li2 O4 2.435770 1_555
Li3 O4 2.089188 1_555
Li3 O5 2.089188 1_455
Li4 O2 2.089188 1_655
Li4 O3 2.089188 1_555
Li5 O4 1.997943 1_554
Li5 O5 1.997943 1_454
Li5 O3 2.435770 1_555
Li5 O2 2.435770 1_555
Li6 O6 1.997943 1_655
Li6 O7 1.997943 1_555
Li6 O1 2.435770 1_565
Li6 O0 2.435770 1_565
Li7 O0 2.089188 1_555
Li7 O1 2.089188 1_455
O0 V1 1.675039 1_555
O1 V1 1.675039 1_555
O2 V0 1.675039 1_555
O3 V0 1.675039 1_555
O4 V3 1.675039 1_555
O5 V3 1.675039 1_555
O6 V2 1.675039 1_555
O7 V2 1.675039 1_555
F0 V0 2.116650 1_555
F0 V3 2.116650 1_444
F1 V0 2.116650 1_555
F1 V3 2.116650 1_544
F2 V0 1.871626 1_555
F2 Li1 1.883773 1_555
F3 V1 1.966070 1_555
F3 Li4 1.982244 1_555
F3 Li0 2.122108 1_545
F4 V0 1.966070 1_556
F4 Li7 1.982244 1_555
F4 Li3 2.122108 1_555
F5 V1 1.871626 1_555
F5 Li2 1.883773 1_555
F6 V2 2.116650 1_555
F6 V1 2.116650 1_455
F7 V2 2.116650 1_555
F7 V1 2.116650 1_555
F8 V2 1.871626 1_555
F8 Li5 1.883773 1_555
F9 V3 1.966070 1_554
F9 Li0 1.982244 1_555
F9 Li4 2.122108 1_555
F10 V2 1.966070 1_555
F10 Li3 1.982244 1_555
F10 Li7 2.122108 1_565
F11 V3 1.871626 1_555
F11 Li6 1.883773 1_555
