# generated using pymatgen
data_LiV3(CoO6)2
_symmetry_space_group_name_H-M   'P 1'
_cell_length_a   8.87610500
_cell_length_b   8.58974700
_cell_length_c   14.81124866
_cell_angle_alpha   54.85205478
_cell_angle_beta   90.00000000
_cell_angle_gamma   90.00000000
_symmetry_Int_Tables_number   1
_chemical_formula_structural   LiV3(CoO6)2
_chemical_formula_sum   'Li4 V12 Co8 O48'
_cell_volume   923.36119566
_cell_formula_units_Z   4
loop_
 _symmetry_equiv_pos_site_id
 _symmetry_equiv_pos_as_xyz
  1  'x, y, z'
loop_
 _atom_site_type_symbol
 _atom_site_label
 _atom_site_symmetry_multiplicity
 _atom_site_fract_x
 _atom_site_fract_y
 _atom_site_fract_z
 _atom_site_occupancy
  Li  Li0  1  0.21657400  0.99567100  0.18511000  1
  Li  Li1  1  0.71657400  0.00432900  0.31489000  1
  Li  Li2  1  0.28342600  0.99567100  0.68511000  1
  Li  Li3  1  0.78342600  0.00432900  0.81489000  1
  V  V0  1  0.74942500  0.53772000  0.49155200  1
  V  V1  1  0.61545500  0.25925200  0.85562900  1
  V  V2  1  0.88469000  0.97165100  0.13869100  1
  V  V3  1  0.11545500  0.74074800  0.64437100  1
  V  V4  1  0.38469000  0.02834900  0.36130900  1
  V  V5  1  0.24942500  0.46228000  0.00844800  1
  V  V6  1  0.75057500  0.53772000  0.99155200  1
  V  V7  1  0.61531000  0.97165100  0.63869100  1
  V  V8  1  0.88454500  0.25925200  0.35562900  1
  V  V9  1  0.11531000  0.02834900  0.86130900  1
  V  V10  1  0.38454500  0.74074800  0.14437100  1
  V  V11  1  0.25057500  0.46228000  0.50844800  1
  Co  Co0  1  0.97475100  0.36600200  0.88630300  1
  Co  Co1  1  0.47475100  0.63399800  0.61369700  1
  Co  Co2  1  0.02780900  0.87220000  0.37948900  1
  Co  Co3  1  0.52780900  0.12780000  0.12051100  1
  Co  Co4  1  0.47219100  0.87220000  0.87948900  1
  Co  Co5  1  0.97219100  0.12780000  0.62051100  1
  Co  Co6  1  0.52524900  0.36600200  0.38630300  1
  Co  Co7  1  0.02524900  0.63399800  0.11369700  1
  O  O0  1  0.11054000  0.17941300  0.90218100  1
  O  O1  1  0.34055600  0.46597200  0.61208400  1
  O  O2  1  0.11852700  0.64096000  0.43864600  1
  O  O3  1  0.42197700  0.89895000  0.18175400  1
  O  O4  1  0.62934800  0.51577500  0.59070500  1
  O  O5  1  0.81431800  0.27183400  0.85044100  1
  O  O6  1  0.56225500  0.15377500  0.99031300  1
  O  O7  1  0.01150600  0.89190100  0.24660500  1
  O  O8  1  0.70652300  0.99186700  0.18163300  1
  O  O9  1  0.83391000  0.76355600  0.42264000  1
  O  O10  1  0.52435400  0.47239700  0.76669900  1
  O  O11  1  0.02435400  0.52760300  0.73330100  1
  O  O12  1  0.44311600  0.79825700  0.46344100  1
  O  O13  1  0.94311600  0.20174300  0.03655900  1
  O  O14  1  0.33391000  0.23644400  0.07736000  1
  O  O15  1  0.20652300  0.00813300  0.31836700  1
  O  O16  1  0.06225500  0.84622500  0.50968700  1
  O  O17  1  0.31431800  0.72816600  0.64955900  1
  O  O18  1  0.12934800  0.48422500  0.90929500  1
  O  O19  1  0.51150600  0.10809900  0.25339500  1
  O  O20  1  0.84055600  0.53402800  0.88791600  1
  O  O21  1  0.61054000  0.82058700  0.59781900  1
  O  O22  1  0.92197700  0.10105000  0.31824600  1
  O  O23  1  0.61852700  0.35904000  0.06135400  1
  O  O24  1  0.38147300  0.64096000  0.93864600  1
  O  O25  1  0.07802300  0.89895000  0.68175400  1
  O  O26  1  0.38946000  0.17941300  0.40218100  1
  O  O27  1  0.15944400  0.46597200  0.11208400  1
  O  O28  1  0.48849400  0.89190100  0.74660500  1
  O  O29  1  0.87065200  0.51577500  0.09070500  1
  O  O30  1  0.68568200  0.27183400  0.35044100  1
  O  O31  1  0.93774500  0.15377500  0.49031300  1
  O  O32  1  0.79347700  0.99186700  0.68163300  1
  O  O33  1  0.66609000  0.76355600  0.92264000  1
  O  O34  1  0.05688400  0.79825700  0.96344100  1
  O  O35  1  0.55688400  0.20174300  0.53655900  1
  O  O36  1  0.97564600  0.47239700  0.26669900  1
  O  O37  1  0.47564600  0.52760300  0.23330100  1
  O  O38  1  0.16609000  0.23644400  0.57736000  1
  O  O39  1  0.29347700  0.00813300  0.81836700  1
  O  O40  1  0.98849400  0.10809900  0.75339500  1
  O  O41  1  0.43774500  0.84622500  0.00968700  1
  O  O42  1  0.18568200  0.72816600  0.14955900  1
  O  O43  1  0.37065200  0.48422500  0.40929500  1
  O  O44  1  0.57802300  0.10105000  0.81824600  1
  O  O45  1  0.88147300  0.35904000  0.56135400  1
  O  O46  1  0.65944400  0.53402800  0.38791600  1
  O  O47  1  0.88946000  0.82058700  0.09781900  1
loop_
_geom_bond_atom_site_label_1
_geom_bond_atom_site_label_2
_geom_bond_distance
_geom_bond_site_symmetry_2
Li0 O7 2.000623 1_555
Li0 O3 2.015997 1_555
Li0 O14 2.026997 1_565
Li0 O15 2.039161 1_565
Li1 O19 2.000623 1_555
Li1 O22 2.015997 1_555
Li1 O9 2.026997 1_545
Li1 O8 2.039161 1_545
Li2 O28 2.000623 1_555
Li2 O25 2.015997 1_555
Li2 O38 2.026997 1_565
Li2 O39 2.039161 1_565
Li3 O40 2.000623 1_555
Li3 O44 2.015997 1_555
Li3 O33 2.026997 1_545
Li3 O32 2.039161 1_545
Co0 O13 1.845807 1_556
Co0 O18 1.851587 1_655
Co0 O5 1.859821 1_555
Co0 O20 1.882067 1_555
Co0 O11 1.906379 1_655
Co0 O0 1.908621 1_655
Co1 O12 1.845807 1_555
Co1 O4 1.851587 1_555
Co1 O17 1.859821 1_555
Co1 O1 1.882067 1_555
Co1 O10 1.906379 1_555
Co1 O21 1.908621 1_555
Co2 O2 1.832383 1_555
Co2 O16 1.834823 1_555
Co2 O15 1.866052 1_565
Co2 O22 1.875211 1_465
Co2 O7 1.881440 1_555
Co2 O9 1.885398 1_455
Co3 O23 1.832383 1_555
Co3 O6 1.834823 1_554
Co3 O8 1.866052 1_545
Co3 O3 1.875211 1_545
Co3 O19 1.881440 1_555
Co3 O14 1.885398 1_555
Co4 O24 1.832383 1_555
Co4 O41 1.834823 1_556
Co4 O39 1.866052 1_565
Co4 O44 1.875211 1_565
Co4 O28 1.881440 1_555
Co4 O33 1.885398 1_555
Co5 O45 1.832383 1_555
Co5 O31 1.834823 1_555
Co5 O32 1.866052 1_545
Co5 O25 1.875211 1_645
Co5 O40 1.881440 1_555
Co5 O38 1.885398 1_655
Co6 O35 1.845807 1_555
Co6 O43 1.851587 1_555
Co6 O30 1.859821 1_555
Co6 O46 1.882067 1_555
Co6 O37 1.906379 1_555
Co6 O26 1.908621 1_555
Co7 O34 1.845807 1_554
Co7 O29 1.851587 1_455
Co7 O42 1.859821 1_555
Co7 O27 1.882067 1_555
Co7 O36 1.906379 1_455
Co7 O47 1.908621 1_455
O0 V9 1.719437 1_555
O1 V11 1.746741 1_555
O2 V11 1.723742 1_555
O3 V10 1.769160 1_555
O4 V0 1.734787 1_555
O5 V1 1.767400 1_555
O6 V1 1.715305 1_555
O7 V2 1.740790 1_455
O8 V2 1.750076 1_555
O9 V0 1.757136 1_555
O10 V1 1.721697 1_555
O11 V3 1.721697 1_555
O12 V4 1.738146 1_565
O13 V2 1.738146 1_545
O14 V5 1.757136 1_555
O15 V4 1.750076 1_555
O16 V3 1.715305 1_555
O17 V3 1.767400 1_555
O18 V5 1.734787 1_556
O19 V4 1.740790 1_555
O20 V6 1.746741 1_555
O21 V7 1.719437 1_555
O22 V8 1.769160 1_555
O23 V6 1.723742 1_554
O24 V5 1.723742 1_556
O25 V3 1.769160 1_555
O26 V4 1.719437 1_555
O27 V5 1.746741 1_555
O28 V7 1.740790 1_555
O29 V6 1.734787 1_554
O30 V8 1.767400 1_555
O31 V8 1.715305 1_555
O32 V7 1.750076 1_555
O33 V6 1.757136 1_555
O34 V9 1.738146 1_565
O35 V7 1.738146 1_545
O36 V8 1.721697 1_555
O37 V10 1.721697 1_555
O38 V11 1.757136 1_555
O39 V9 1.750076 1_555
O40 V9 1.740790 1_655
O41 V10 1.715305 1_555
O42 V10 1.767400 1_555
O43 V11 1.734787 1_555
O44 V1 1.769160 1_555
O45 V0 1.723742 1_555
O46 V0 1.746741 1_555
O47 V2 1.719437 1_555
