# generated using pymatgen
data_NaCa4Si8H16O28F
_symmetry_space_group_name_H-M   'P 1'
_cell_length_a   8.95293900
_cell_length_b   8.96907300
_cell_length_c   16.00938600
_cell_angle_alpha   90.00000000
_cell_angle_beta   90.00000000
_cell_angle_gamma   90.00000000
_symmetry_Int_Tables_number   1
_chemical_formula_structural   NaCa4Si8H16O28F
_chemical_formula_sum   'Na2 Ca8 Si16 H32 O56 F2'
_cell_volume   1285.54670699
_cell_formula_units_Z   2
loop_
 _symmetry_equiv_pos_site_id
 _symmetry_equiv_pos_as_xyz
  1  'x, y, z'
loop_
 _atom_site_type_symbol
 _atom_site_label
 _atom_site_symmetry_multiplicity
 _atom_site_fract_x
 _atom_site_fract_y
 _atom_site_fract_z
 _atom_site_occupancy
  Na  Na0  1  0.50000000  0.50000000  0.00000000  1
  Na  Na1  1  0.00000000  0.00000000  0.50000000  1
  Ca  Ca0  1  0.61462900  0.25418900  0.50000000  1
  Ca  Ca1  1  0.38537100  0.74581100  0.50000000  1
  Ca  Ca2  1  0.11462900  0.24581100  0.00000000  1
  Ca  Ca3  1  0.88537100  0.75418900  0.00000000  1
  Ca  Ca4  1  0.24828900  0.38220700  0.50000000  1
  Ca  Ca5  1  0.75171100  0.61779300  0.50000000  1
  Ca  Ca6  1  0.74828900  0.11779300  0.00000000  1
  Ca  Ca7  1  0.25171100  0.88220700  0.00000000  1
  Si  Si0  1  0.73092500  0.41647600  0.68871700  1
  Si  Si1  1  0.26907500  0.58352400  0.68871700  1
  Si  Si2  1  0.23092500  0.08352400  0.81128300  1
  Si  Si3  1  0.76907500  0.91647600  0.81128300  1
  Si  Si4  1  0.26907500  0.58352400  0.31128300  1
  Si  Si5  1  0.73092500  0.41647600  0.31128300  1
  Si  Si6  1  0.76907500  0.91647600  0.18871700  1
  Si  Si7  1  0.23092500  0.08352400  0.18871700  1
  Si  Si8  1  0.91562700  0.22911600  0.81140500  1
  Si  Si9  1  0.08437300  0.77088400  0.81140500  1
  Si  Si10  1  0.41562700  0.27088400  0.68859500  1
  Si  Si11  1  0.58437300  0.72911600  0.68859500  1
  Si  Si12  1  0.08437300  0.77088400  0.18859500  1
  Si  Si13  1  0.91562700  0.22911600  0.18859500  1
  Si  Si14  1  0.58437300  0.72911600  0.31140500  1
  Si  Si15  1  0.41562700  0.27088400  0.31140500  1
  H  H0  1  0.94488100  0.31316800  0.58782700  1
  H  H1  1  0.05511900  0.68683200  0.58782700  1
  H  H2  1  0.44488100  0.18683200  0.91217300  1
  H  H3  1  0.55511900  0.81316800  0.91217300  1
  H  H4  1  0.05511900  0.68683200  0.41217300  1
  H  H5  1  0.94488100  0.31316800  0.41217300  1
  H  H6  1  0.55511900  0.81316800  0.08782700  1
  H  H7  1  0.44488100  0.18683200  0.08782700  1
  H  H8  1  0.67451300  0.94657900  0.58667200  1
  H  H9  1  0.32548700  0.05342100  0.58667200  1
  H  H10  1  0.17451300  0.55342100  0.91332800  1
  H  H11  1  0.82548700  0.44657900  0.91332800  1
  H  H12  1  0.32548700  0.05342100  0.41332800  1
  H  H13  1  0.67451300  0.94657900  0.41332800  1
  H  H14  1  0.82548700  0.44657900  0.08667200  1
  H  H15  1  0.17451300  0.55342100  0.08667200  1
  H  H16  1  0.72962600  0.07207900  0.64695800  1
  H  H17  1  0.27037400  0.92792100  0.64695800  1
  H  H18  1  0.22962600  0.42792100  0.85304200  1
  H  H19  1  0.77037400  0.57207900  0.85304200  1
  H  H20  1  0.27037400  0.92792100  0.35304200  1
  H  H21  1  0.72962600  0.07207900  0.35304200  1
  H  H22  1  0.77037400  0.57207900  0.14695800  1
  H  H23  1  0.22962600  0.42792100  0.14695800  1
  H  H24  1  0.06917900  0.24762900  0.64609200  1
  H  H25  1  0.93082100  0.75237100  0.64609200  1
  H  H26  1  0.56917900  0.25237100  0.85390800  1
  H  H27  1  0.43082100  0.74762900  0.85390800  1
  H  H28  1  0.93082100  0.75237100  0.35390800  1
  H  H29  1  0.06917900  0.24762900  0.35390800  1
  H  H30  1  0.43082100  0.74762900  0.14609200  1
  H  H31  1  0.56917900  0.25237100  0.14609200  1
  O  O0  1  0.86844300  0.36768900  0.75032100  1
  O  O1  1  0.13155700  0.63231100  0.75032100  1
  O  O2  1  0.36844300  0.13231100  0.74967900  1
  O  O3  1  0.63155700  0.86768900  0.74967900  1
  O  O4  1  0.13155700  0.63231100  0.24967900  1
  O  O5  1  0.86844300  0.36768900  0.24967900  1
  O  O6  1  0.63155700  0.86768900  0.25032100  1
  O  O7  1  0.36844300  0.13231100  0.25032100  1
  O  O8  1  0.58846500  0.30993000  0.71557000  1
  O  O9  1  0.41153500  0.69007000  0.71557000  1
  O  O10  1  0.08846500  0.19007000  0.78443000  1
  O  O11  1  0.91153500  0.80993000  0.78443000  1
  O  O12  1  0.41153500  0.69007000  0.28443000  1
  O  O13  1  0.58846500  0.30993000  0.28443000  1
  O  O14  1  0.91153500  0.80993000  0.21557000  1
  O  O15  1  0.08846500  0.19007000  0.21557000  1
  O  O16  1  0.80920800  0.08791900  0.78305400  1
  O  O17  1  0.19079200  0.91208100  0.78305400  1
  O  O18  1  0.30920800  0.41208100  0.71694600  1
  O  O19  1  0.69079200  0.58791900  0.71694600  1
  O  O20  1  0.19079200  0.91208100  0.21694600  1
  O  O21  1  0.80920800  0.08791900  0.21694600  1
  O  O22  1  0.69079200  0.58791900  0.28305400  1
  O  O23  1  0.30920800  0.41208100  0.28305400  1
  O  O24  1  0.77308400  0.40189200  0.59120500  1
  O  O25  1  0.22691600  0.59810800  0.59120500  1
  O  O26  1  0.27308400  0.09810800  0.90879500  1
  O  O27  1  0.72691600  0.90189200  0.90879500  1
  O  O28  1  0.22691600  0.59810800  0.40879500  1
  O  O29  1  0.77308400  0.40189200  0.40879500  1
  O  O30  1  0.72691600  0.90189200  0.09120500  1
  O  O31  1  0.27308400  0.09810800  0.09120500  1
  O  O32  1  0.89888600  0.26906600  0.90902900  1
  O  O33  1  0.10111400  0.73093400  0.90902900  1
  O  O34  1  0.39888600  0.23093400  0.59097100  1
  O  O35  1  0.60111400  0.76906600  0.59097100  1
  O  O36  1  0.10111400  0.73093400  0.09097100  1
  O  O37  1  0.89888600  0.26906600  0.09097100  1
  O  O38  1  0.60111400  0.76906600  0.40902900  1
  O  O39  1  0.39888600  0.23093400  0.40902900  1
  O  O40  1  0.72157700  0.04871800  0.58741800  1
  O  O41  1  0.27842300  0.95128200  0.58741800  1
  O  O42  1  0.22157700  0.45128200  0.91258200  1
  O  O43  1  0.77842300  0.54871800  0.91258200  1
  O  O44  1  0.27842300  0.95128200  0.41258200  1
  O  O45  1  0.72157700  0.04871800  0.41258200  1
  O  O46  1  0.77842300  0.54871800  0.08741800  1
  O  O47  1  0.22157700  0.45128200  0.08741800  1
  O  O48  1  0.04413000  0.26004300  0.58696000  1
  O  O49  1  0.95587000  0.73995700  0.58696000  1
  O  O50  1  0.54413000  0.23995700  0.91304000  1
  O  O51  1  0.45587000  0.76004300  0.91304000  1
  O  O52  1  0.95587000  0.73995700  0.41304000  1
  O  O53  1  0.04413000  0.26004300  0.41304000  1
  O  O54  1  0.45587000  0.76004300  0.08696000  1
  O  O55  1  0.54413000  0.23995700  0.08696000  1
  F  F0  1  0.50000000  0.50000000  0.50000000  1
  F  F1  1  0.00000000  0.00000000  0.00000000  1
loop_
_geom_bond_atom_site_label_1
_geom_bond_atom_site_label_2
_geom_bond_distance
_geom_bond_site_symmetry_2
Na0 O55 2.744829 1_555
Na0 O54 2.744829 1_555
Na0 O50 2.744829 1_554
Na0 O51 2.744829 1_554
Na0 O47 2.891907 1_555
Na0 O42 2.891907 1_554
Na0 O46 2.891907 1_555
Na0 O43 2.891907 1_554
Na1 O53 2.744829 1_555
Na1 O52 2.744829 1_445
Na1 O48 2.744829 1_555
Na1 O49 2.744829 1_445
Na1 O45 2.891907 1_455
Na1 O44 2.891907 1_545
Na1 O41 2.891907 1_545
Na1 O40 2.891907 1_455
Ca0 O39 2.428044 1_555
Ca0 O34 2.428044 1_555
Ca0 O29 2.428892 1_555
Ca0 O24 2.428892 1_555
Ca0 F0 2.431853 1_555
Ca0 O40 2.504326 1_555
Ca0 O45 2.504326 1_555
Ca1 O38 2.428044 1_555
Ca1 O35 2.428044 1_555
Ca1 O28 2.428892 1_555
Ca1 O25 2.428892 1_555
Ca1 F0 2.431853 1_555
Ca1 O41 2.504326 1_555
Ca1 O44 2.504326 1_555
Ca2 O37 2.428044 1_455
Ca2 O32 2.428044 1_454
Ca2 O26 2.428892 1_554
Ca2 O31 2.428892 1_555
Ca2 F1 2.431853 1_555
Ca2 O47 2.504326 1_555
Ca2 O42 2.504326 1_554
Ca3 O33 2.428044 1_654
Ca3 O36 2.428044 1_655
Ca3 O27 2.428892 1_554
Ca3 O30 2.428892 1_555
Ca3 F1 2.431853 1_665
Ca3 O46 2.504326 1_555
Ca3 O43 2.504326 1_554
Ca4 O39 2.404120 1_555
Ca4 O34 2.404120 1_555
Ca4 O28 2.432772 1_555
Ca4 O25 2.432772 1_555
Ca4 F0 2.488912 1_555
Ca4 O53 2.545515 1_555
Ca4 O48 2.545515 1_555
Ca5 O38 2.404120 1_555
Ca5 O35 2.404120 1_555
Ca5 O24 2.432772 1_555
Ca5 O29 2.432772 1_555
Ca5 F0 2.488912 1_555
Ca5 O52 2.545515 1_555
Ca5 O49 2.545515 1_555
Ca6 O37 2.404120 1_555
Ca6 O32 2.404120 1_554
Ca6 O27 2.432772 1_544
Ca6 O30 2.432772 1_545
Ca6 F1 2.488912 1_655
Ca6 O55 2.545515 1_555
Ca6 O50 2.545515 1_554
Ca7 O36 2.404120 1_555
Ca7 O33 2.404120 1_554
Ca7 O26 2.432772 1_564
Ca7 O31 2.432772 1_565
Ca7 F1 2.488912 1_565
Ca7 O51 2.545515 1_554
Ca7 O54 2.545515 1_555
H0 O48 1.008357 1_655
H0 O24 1.732597 1_555
H1 O49 1.008357 1_455
H1 O25 1.732597 1_555
H2 O50 1.008357 1_555
H2 O26 1.732597 1_555
H3 O51 1.008357 1_555
H3 O27 1.732597 1_555
H4 O52 1.008357 1_455
H4 O28 1.732597 1_555
H5 O53 1.008357 1_655
H5 O29 1.732597 1_555
H6 O54 1.008357 1_555
H6 O30 1.732597 1_555
H7 O55 1.008357 1_555
H7 O31 1.732597 1_555
H8 O40 1.008421 1_565
H8 O35 1.723785 1_555
H9 O41 1.008421 1_545
H9 O34 1.723785 1_555
H10 O42 1.008421 1_555
H10 O33 1.723785 1_555
H11 O43 1.008421 1_555
H11 O32 1.723785 1_555
H12 O44 1.008421 1_545
H12 O39 1.723785 1_555
H13 O45 1.008421 1_565
H13 O38 1.723785 1_555
H14 O46 1.008421 1_555
H14 O37 1.723785 1_555
H15 O47 1.008421 1_555
H15 O36 1.723785 1_555
H16 O40 0.978612 1_555
H17 O41 0.978612 1_555
H18 O42 0.978612 1_555
H19 O43 0.978612 1_555
H20 O44 0.978612 1_555
H21 O45 0.978612 1_555
H22 O46 0.978612 1_555
H23 O47 0.978612 1_555
H24 O48 0.979219 1_555
H25 O49 0.979219 1_555
H26 O50 0.979219 1_555
H27 O51 0.979219 1_555
H28 O52 0.979219 1_555
H29 O53 0.979219 1_555
H30 O54 0.979219 1_555
H31 O55 0.979219 1_555
O0 Si8 1.636919 1_555
O0 Si0 1.637063 1_555
O1 Si9 1.636919 1_555
O1 Si1 1.637063 1_555
O2 Si10 1.636919 1_555
O2 Si2 1.637063 1_555
O3 Si11 1.636919 1_555
O3 Si3 1.637063 1_555
O4 Si12 1.636919 1_555
O4 Si4 1.637063 1_555
O5 Si13 1.636919 1_555
O5 Si5 1.637063 1_555
O6 Si14 1.636919 1_555
O6 Si6 1.637063 1_555
O7 Si15 1.636919 1_555
O7 Si7 1.637063 1_555
O8 Si10 1.644267 1_555
O8 Si0 1.650684 1_555
O9 Si11 1.644267 1_555
O9 Si1 1.650684 1_555
O10 Si8 1.644267 1_455
O10 Si2 1.650684 1_555
O11 Si9 1.644267 1_655
O11 Si3 1.650684 1_555
O12 Si14 1.644267 1_555
O12 Si4 1.650684 1_555
O13 Si15 1.644267 1_555
O13 Si5 1.650684 1_555
O14 Si12 1.644267 1_655
O14 Si6 1.650684 1_555
O15 Si13 1.644267 1_455
O15 Si7 1.650684 1_555
O16 Si3 1.642503 1_545
O16 Si8 1.648500 1_555
O17 Si2 1.642503 1_565
O17 Si9 1.648500 1_555
O18 Si1 1.642503 1_555
O18 Si10 1.648500 1_555
O19 Si0 1.642503 1_555
O19 Si11 1.648500 1_555
O20 Si7 1.642503 1_565
O20 Si12 1.648500 1_555
O21 Si6 1.642503 1_545
O21 Si13 1.648500 1_555
O22 Si5 1.642503 1_555
O22 Si14 1.648500 1_555
O23 Si4 1.642503 1_555
O23 Si15 1.648500 1_555
O24 Si0 1.611407 1_555
O25 Si1 1.611407 1_555
O26 Si2 1.611407 1_555
O27 Si3 1.611407 1_555
O28 Si4 1.611407 1_555
O29 Si5 1.611407 1_555
O30 Si6 1.611407 1_555
O31 Si7 1.611407 1_555
O32 Si8 1.610438 1_555
O33 Si9 1.610438 1_555
O34 Si10 1.610438 1_555
O35 Si11 1.610438 1_555
O36 Si12 1.610438 1_555
O37 Si13 1.610438 1_555
O38 Si14 1.610438 1_555
O39 Si15 1.610438 1_555
