# generated using pymatgen
data_LiV2F7
_symmetry_space_group_name_H-M   'P 1'
_cell_length_a   5.10711100
_cell_length_b   7.49443100
_cell_length_c   13.24839760
_cell_angle_alpha   84.03649899
_cell_angle_beta   90.00000000
_cell_angle_gamma   90.00000000
_symmetry_Int_Tables_number   1
_chemical_formula_structural   LiV2F7
_chemical_formula_sum   'Li4 V8 F28'
_cell_volume   504.33679450
_cell_formula_units_Z   4
loop_
 _symmetry_equiv_pos_site_id
 _symmetry_equiv_pos_as_xyz
  1  'x, y, z'
loop_
 _atom_site_type_symbol
 _atom_site_label
 _atom_site_symmetry_multiplicity
 _atom_site_fract_x
 _atom_site_fract_y
 _atom_site_fract_z
 _atom_site_occupancy
  Li  Li0  1  0.24108400  0.14869200  0.07297100  1
  Li  Li1  1  0.25891600  0.64869200  0.07297100  1
  Li  Li2  1  0.74108400  0.35130800  0.92702900  1
  Li  Li3  1  0.75891600  0.85130800  0.92702900  1
  V  V0  1  0.75554300  0.33469500  0.18234600  1
  V  V1  1  0.74445700  0.83469500  0.18234600  1
  V  V2  1  0.25084500  0.27232600  0.39389100  1
  V  V3  1  0.24915500  0.77232600  0.39389100  1
  V  V4  1  0.75084500  0.22767400  0.60610900  1
  V  V5  1  0.74915500  0.72767400  0.60610900  1
  V  V6  1  0.25554300  0.16530500  0.81765400  1
  V  V7  1  0.24445700  0.66530500  0.81765400  1
  F  F0  1  0.06211600  0.41597800  0.10774500  1
  F  F1  1  0.56172100  0.30557600  0.05910900  1
  F  F2  1  0.90403200  0.08411400  0.17630000  1
  F  F3  1  0.43788400  0.91597800  0.10774500  1
  F  F4  1  0.93827900  0.80557600  0.05910900  1
  F  F5  1  0.59596800  0.58411400  0.17630000  1
  F  F6  1  0.94669900  0.35436100  0.31128500  1
  F  F7  1  0.45632100  0.24214200  0.26788500  1
  F  F8  1  0.55330100  0.85436100  0.31128500  1
  F  F9  1  0.04367900  0.74214200  0.26788500  1
  F  F10  1  0.37039600  0.52259200  0.39355300  1
  F  F11  1  0.12960400  0.02259200  0.39355300  1
  F  F12  1  0.54902600  0.19543100  0.48015800  1
  F  F13  1  0.04902600  0.30456900  0.51984200  1
  F  F14  1  0.95097400  0.69543100  0.48015800  1
  F  F15  1  0.45097400  0.80456900  0.51984200  1
  F  F16  1  0.87039600  0.97740800  0.60644700  1
  F  F17  1  0.62960400  0.47740800  0.60644700  1
  F  F18  1  0.95632100  0.25785800  0.73211500  1
  F  F19  1  0.44669900  0.14563900  0.68871500  1
  F  F20  1  0.54367900  0.75785800  0.73211500  1
  F  F21  1  0.05330100  0.64563900  0.68871500  1
  F  F22  1  0.40403200  0.41588600  0.82370000  1
  F  F23  1  0.06172100  0.19442400  0.94089100  1
  F  F24  1  0.56211600  0.08402200  0.89225500  1
  F  F25  1  0.09596800  0.91588600  0.82370000  1
  F  F26  1  0.43827900  0.69442400  0.94089100  1
  F  F27  1  0.93788400  0.58402200  0.89225500  1
loop_
_geom_bond_atom_site_label_1
_geom_bond_atom_site_label_2
_geom_bond_distance
_geom_bond_site_symmetry_2
F0 V0 1.916828 1_455
F0 Li1 2.024158 1_555
F0 Li0 2.291736 1_555
F1 V0 1.940925 1_555
F1 Li2 1.973303 1_554
F1 Li0 2.013148 1_555
F2 V1 2.033122 1_545
F2 V0 2.034578 1_555
F2 Li0 2.221184 1_655
F3 V1 1.916828 1_555
F3 Li0 2.024158 1_565
F3 Li1 2.291736 1_555
F4 V1 1.940925 1_555
F4 Li3 1.973303 1_554
F4 Li1 2.013148 1_655
F5 V0 2.033122 1_555
F5 V1 2.034578 1_555
F5 Li1 2.221184 1_555
F6 V2 1.961796 1_655
F6 V0 1.986247 1_555
F7 V0 1.984270 1_555
F7 V2 2.004415 1_555
F8 V3 1.961796 1_555
F8 V1 1.986247 1_555
F9 V1 1.984270 1_455
F9 V3 2.004415 1_555
F10 V3 1.971826 1_555
F10 V2 1.972039 1_555
F11 V2 1.971826 1_555
F11 V3 1.972039 1_545
F12 V2 1.954614 1_555
F12 V4 1.997231 1_555
F13 V4 1.954614 1_455
F13 V2 1.997231 1_555
F14 V3 1.954614 1_655
F14 V5 1.997231 1_555
F15 V5 1.954614 1_555
F15 V3 1.997231 1_555
F16 V5 1.971826 1_555
F16 V4 1.972039 1_565
F17 V4 1.971826 1_555
F17 V5 1.972039 1_555
F18 V6 1.984270 1_655
F18 V4 2.004415 1_555
F19 V4 1.961796 1_555
F19 V6 1.986247 1_555
F20 V7 1.984270 1_555
F20 V5 2.004415 1_555
F21 V5 1.961796 1_455
F21 V7 1.986247 1_555
F22 V7 2.033122 1_555
F22 V6 2.034578 1_555
F22 Li2 2.221184 1_555
F23 V6 1.940925 1_555
F23 Li0 1.973303 1_556
F23 Li2 2.013148 1_455
F24 V6 1.916828 1_555
F24 Li3 2.024158 1_545
F24 Li2 2.291736 1_555
F25 V6 2.033122 1_565
F25 V7 2.034578 1_555
F25 Li3 2.221184 1_455
F26 V7 1.940925 1_555
F26 Li1 1.973303 1_556
F26 Li3 2.013148 1_555
F27 V7 1.916828 1_655
F27 Li2 2.024158 1_555
F27 Li3 2.291736 1_555
