# generated using pymatgen
data_Ba4Nb3O12
_symmetry_space_group_name_H-M   'P 1'
_cell_length_a   5.92171917
_cell_length_b   5.92171917
_cell_length_c   19.45891100
_cell_angle_alpha   90.00000000
_cell_angle_beta   90.00000000
_cell_angle_gamma   119.99999077
_symmetry_Int_Tables_number   1
_chemical_formula_structural   Ba4Nb3O12
_chemical_formula_sum   'Ba8 Nb6 O24'
_cell_volume   590.94194836
_cell_formula_units_Z   2
loop_
 _symmetry_equiv_pos_site_id
 _symmetry_equiv_pos_as_xyz
  1  'x, y, z'
loop_
 _atom_site_type_symbol
 _atom_site_label
 _atom_site_symmetry_multiplicity
 _atom_site_fract_x
 _atom_site_fract_y
 _atom_site_fract_z
 _atom_site_occupancy
  Ba  Ba0  1  0.00000000  0.00000000  0.00983800  1
  Ba  Ba1  1  0.00000000  0.00000000  0.50983800  1
  Ba  Ba2  1  0.33333300  0.66666700  0.14548600  1
  Ba  Ba3  1  0.33333300  0.66666700  0.36930600  1
  Ba  Ba4  1  0.33333300  0.66666700  0.74383500  1
  Ba  Ba5  1  0.66666700  0.33333300  0.24383500  1
  Ba  Ba6  1  0.66666700  0.33333300  0.64548600  1
  Ba  Ba7  1  0.66666700  0.33333300  0.86930600  1
  Nb  Nb0  1  0.00000000  0.00000000  0.30334800  1
  Nb  Nb1  1  0.00000000  0.00000000  0.80334800  1
  Nb  Nb2  1  0.33333300  0.66666700  0.56498600  1
  Nb  Nb3  1  0.33333300  0.66666700  0.93629200  1
  Nb  Nb4  1  0.66666700  0.33333300  0.06498600  1
  Nb  Nb5  1  0.66666700  0.33333300  0.43629200  1
  O  O0  1  0.00525000  0.50262500  0.99438800  1
  O  O1  1  0.99475000  0.49737500  0.49438800  1
  O  O2  1  0.16333200  0.83666800  0.25876900  1
  O  O3  1  0.17643900  0.82356100  0.61614900  1
  O  O4  1  0.16982900  0.83017100  0.87715700  1
  O  O5  1  0.16333200  0.32666400  0.25876900  1
  O  O6  1  0.17643900  0.35287900  0.61614900  1
  O  O7  1  0.16982900  0.33965800  0.87715700  1
  O  O8  1  0.67333600  0.83666800  0.25876900  1
  O  O9  1  0.64712100  0.82356100  0.61614900  1
  O  O10  1  0.66034200  0.83017100  0.87715700  1
  O  O11  1  0.49737500  0.50262500  0.99438800  1
  O  O12  1  0.50262500  0.49737500  0.49438800  1
  O  O13  1  0.35287900  0.17643900  0.11614900  1
  O  O14  1  0.33965800  0.16982900  0.37715700  1
  O  O15  1  0.32666400  0.16333200  0.75876900  1
  O  O16  1  0.49737500  0.99475000  0.99438800  1
  O  O17  1  0.50262500  0.00525000  0.49438800  1
  O  O18  1  0.82356100  0.64712100  0.11614900  1
  O  O19  1  0.83017100  0.66034200  0.37715700  1
  O  O20  1  0.83666800  0.67333600  0.75876900  1
  O  O21  1  0.82356100  0.17643900  0.11614900  1
  O  O22  1  0.83017100  0.16982900  0.37715700  1
  O  O23  1  0.83666800  0.16333200  0.75876900  1
loop_
_geom_bond_atom_site_label_1
_geom_bond_atom_site_label_2
_geom_bond_distance
_geom_bond_site_symmetry_2
Ba0 O21 2.748539 1_455
Ba0 O13 2.748542 1_555
Ba0 O18 2.748542 1_445
Ba0 O16 2.976205 1_544
Ba0 O0 2.976205 1_544
Ba0 O0 2.976205 1_554
Ba0 O16 2.976205 1_444
Ba0 O11 2.976206 1_554
Ba0 O11 2.976206 1_444
Ba0 O4 3.114484 1_544
Ba0 O7 3.114484 1_554
Ba0 O10 3.114484 1_444
Ba1 O3 2.748539 1_545
Ba1 O6 2.748542 1_555
Ba1 O9 2.748542 1_445
Ba1 O1 2.976205 1_455
Ba1 O17 2.976205 1_455
Ba1 O17 2.976205 1_555
Ba1 O1 2.976205 1_445
Ba1 O12 2.976206 1_555
Ba1 O12 2.976206 1_445
Ba1 O22 3.114484 1_455
Ba1 O14 3.114484 1_555
Ba1 O19 3.114484 1_445
Ba2 O2 2.810613 1_555
Ba2 O8 2.810616 1_555
Ba2 O5 2.810616 1_555
Ba2 O13 3.017050 1_565
Ba2 O18 3.017050 1_455
Ba2 O21 3.017056 1_565
Ba2 O21 3.017056 1_455
Ba2 O18 3.017062 1_555
Ba2 O13 3.017062 1_555
Ba2 O16 3.387579 1_554
Ba2 O0 3.387579 1_554
Ba2 O11 3.387581 1_554
Ba3 O2 2.768903 1_555
Ba3 O8 2.768906 1_555
Ba3 O5 2.768906 1_555
Ba3 O14 2.964973 1_565
Ba3 O19 2.964973 1_455
Ba3 O22 2.964976 1_565
Ba3 O22 2.964976 1_455
Ba3 O19 2.964979 1_555
Ba3 O14 2.964979 1_555
Ba3 O17 2.989843 1_565
Ba3 O1 2.989843 1_455
Ba3 O12 2.989845 1_555
Ba4 O3 2.960231 1_555
Ba4 O6 2.960231 1_555
Ba4 O9 2.960231 1_555
Ba4 O20 2.975280 1_455
Ba4 O15 2.975280 1_565
Ba4 O23 2.975283 1_455
Ba4 O23 2.975283 1_565
Ba4 O15 2.975286 1_555
Ba4 O20 2.975286 1_555
Ba4 O4 3.089138 1_555
Ba4 O10 3.089141 1_555
Ba4 O7 3.089141 1_555
Ba5 O21 2.960231 1_555
Ba5 O18 2.960231 1_555
Ba5 O13 2.960231 1_555
Ba5 O8 2.975280 1_545
Ba5 O5 2.975280 1_655
Ba5 O2 2.975283 1_545
Ba5 O2 2.975283 1_655
Ba5 O5 2.975286 1_555
Ba5 O8 2.975286 1_555
Ba5 O22 3.089138 1_555
Ba5 O19 3.089141 1_555
Ba5 O14 3.089141 1_555
Ba6 O23 2.810613 1_555
Ba6 O20 2.810616 1_555
Ba6 O15 2.810616 1_555
Ba6 O6 3.017050 1_655
Ba6 O9 3.017050 1_545
Ba6 O3 3.017056 1_655
Ba6 O3 3.017056 1_545
Ba6 O9 3.017062 1_555
Ba6 O6 3.017062 1_555
Ba6 O17 3.387579 1_555
Ba6 O1 3.387579 1_555
Ba6 O12 3.387581 1_555
Ba7 O23 2.768903 1_555
Ba7 O20 2.768906 1_555
Ba7 O15 2.768906 1_555
Ba7 O7 2.964973 1_655
Ba7 O10 2.964973 1_545
Ba7 O4 2.964976 1_655
Ba7 O4 2.964976 1_545
Ba7 O10 2.964979 1_555
Ba7 O7 2.964979 1_555
Ba7 O16 2.989843 1_545
Ba7 O0 2.989843 1_655
Ba7 O11 2.989845 1_555
Nb0 O2 1.886517 1_545
Nb0 O5 1.886518 1_555
Nb0 O8 1.886518 1_445
Nb0 O22 2.257646 1_455
Nb0 O14 2.257647 1_555
Nb0 O19 2.257647 1_445
Nb1 O23 1.886517 1_455
Nb1 O15 1.886518 1_555
Nb1 O20 1.886518 1_445
Nb1 O4 2.257646 1_545
Nb1 O7 2.257647 1_555
Nb1 O10 2.257647 1_445
Nb2 O3 1.892288 1_555
Nb2 O9 1.892288 1_555
Nb2 O6 1.892288 1_555
Nb2 O1 2.214095 1_455
Nb2 O17 2.214095 1_565
Nb2 O12 2.214099 1_555
Nb3 O0 2.027041 1_555
Nb3 O16 2.027041 1_555
Nb3 O11 2.027045 1_555
Nb3 O4 2.033837 1_555
Nb3 O10 2.033842 1_555
Nb3 O7 2.033842 1_555
Nb4 O21 1.892288 1_555
Nb4 O18 1.892288 1_555
Nb4 O13 1.892288 1_555
Nb4 O16 2.214095 1_544
Nb4 O0 2.214095 1_654
Nb4 O11 2.214099 1_554
Nb5 O17 2.027041 1_555
Nb5 O1 2.027041 1_555
Nb5 O12 2.027045 1_555
Nb5 O22 2.033837 1_555
Nb5 O19 2.033842 1_555
Nb5 O14 2.033842 1_555
