# generated using pymatgen
data_Zr4N2O5
_symmetry_space_group_name_H-M   'P 1'
_cell_length_a   8.90776324
_cell_length_b   8.90776324
_cell_length_c   8.90776324
_cell_angle_alpha   109.15423455
_cell_angle_beta   109.15423455
_cell_angle_gamma   110.10707006
_symmetry_Int_Tables_number   1
_chemical_formula_structural   Zr4N2O5
_chemical_formula_sum   'Zr16 N8 O20'
_cell_volume   544.05641737
_cell_formula_units_Z   4
loop_
 _symmetry_equiv_pos_site_id
 _symmetry_equiv_pos_as_xyz
  1  'x, y, z'
loop_
 _atom_site_type_symbol
 _atom_site_label
 _atom_site_symmetry_multiplicity
 _atom_site_fract_x
 _atom_site_fract_y
 _atom_site_fract_z
 _atom_site_occupancy
  Zr  Zr0  1  0.78322600  0.99707300  0.27467600  1
  Zr  Zr1  1  0.00144700  0.00144700  0.00000000  1
  Zr  Zr2  1  0.53654600  0.03654600  0.50000000  1
  Zr  Zr3  1  0.50144700  0.50144700  0.00000000  1
  Zr  Zr4  1  0.22239700  0.49707300  0.21384700  1
  Zr  Zr5  1  0.79690700  0.75370400  0.50000000  1
  Zr  Zr6  1  0.29690700  0.79690700  0.04320300  1
  Zr  Zr7  1  0.50855100  0.78322600  0.78615300  1
  Zr  Zr8  1  0.00855100  0.22239700  0.72532400  1
  Zr  Zr9  1  0.99707300  0.72239700  0.21384700  1
  Zr  Zr10  1  0.49707300  0.28322600  0.27467600  1
  Zr  Zr11  1  0.25370400  0.29690700  0.50000000  1
  Zr  Zr12  1  0.75370400  0.25370400  0.95679700  1
  Zr  Zr13  1  0.28322600  0.00855100  0.78615300  1
  Zr  Zr14  1  0.03654600  0.53654600  0.50000000  1
  Zr  Zr15  1  0.72239700  0.50855100  0.72532400  1
  N  N0  1  0.75089300  0.97789600  0.50000000  1
  N  N1  1  0.78249600  0.50289900  0.50000000  1
  N  N2  1  0.28249600  0.78249600  0.27959800  1
  N  N3  1  0.97789600  0.47789600  0.22700300  1
  N  N4  1  0.25089300  0.75089300  0.77299700  1
  N  N5  1  0.00289900  0.28249600  0.50000000  1
  N  N6  1  0.50289900  0.00289900  0.72040200  1
  N  N7  1  0.47789600  0.25089300  0.50000000  1
  O  O0  1  0.99235800  0.23279600  0.96736600  1
  O  O1  1  0.73422000  0.76659200  0.73367900  1
  O  O2  1  0.50054100  0.53291300  0.26632100  1
  O  O3  1  0.80360800  0.30360800  0.74481100  1
  O  O4  1  0.52499200  0.76542900  0.03263400  1
  O  O5  1  0.55879700  0.05879700  0.25518900  1
  O  O6  1  0.76659200  0.03291300  0.03237100  1
  O  O7  1  0.49235800  0.52499200  0.75956200  1
  O  O8  1  0.23422000  0.50054100  0.96762900  1
  O  O9  1  0.53291300  0.26659200  0.03237100  1
  O  O10  1  0.76542900  0.73279600  0.24043800  1
  O  O11  1  0.26542900  0.02499200  0.03263400  1
  O  O12  1  0.00054100  0.73422000  0.96762900  1
  O  O13  1  0.30360800  0.55879700  0.50000000  1
  O  O14  1  0.73279600  0.49235800  0.96736600  1
  O  O15  1  0.23279600  0.26542900  0.24043800  1
  O  O16  1  0.02499200  0.99235800  0.75956200  1
  O  O17  1  0.05879700  0.80360800  0.50000000  1
  O  O18  1  0.26659200  0.23422000  0.73367900  1
  O  O19  1  0.03291300  0.00054100  0.26632100  1
loop_
_geom_bond_atom_site_label_1
_geom_bond_atom_site_label_2
_geom_bond_distance
_geom_bond_site_symmetry_2
N0 Zr2 2.145791 1_565
N0 Zr0 2.170539 1_555
N0 Zr8 2.170542 1_665
N0 Zr5 2.172327 1_555
N1 Zr14 2.178241 1_655
N1 Zr5 2.193296 1_555
N1 Zr15 2.230483 1_555
N1 Zr10 2.230485 1_555
N2 Zr2 2.178239 1_565
N2 Zr6 2.193305 1_555
N2 Zr9 2.230483 1_455
N2 Zr4 2.230483 1_555
N3 Zr14 2.145791 1_655
N3 Zr4 2.170539 1_655
N3 Zr9 2.170539 1_555
N3 Zr12 2.172327 1_554
N4 Zr14 2.145791 1_555
N4 Zr7 2.170548 1_555
N4 Zr13 2.170548 1_565
N4 Zr6 2.172327 1_556
N5 Zr14 2.178241 1_555
N5 Zr11 2.193296 1_555
N5 Zr8 2.230483 1_555
N5 Zr0 2.230485 1_445
N6 Zr2 2.178232 1_555
N6 Zr12 2.193299 1_555
N6 Zr7 2.230492 1_545
N6 Zr13 2.230492 1_555
N7 Zr2 2.145791 1_555
N7 Zr10 2.170539 1_555
N7 Zr15 2.170542 1_555
N7 Zr11 2.172327 1_555
O0 Zr12 2.171469 1_555
O0 Zr8 2.181779 1_655
O0 Zr1 2.197808 1_656
O0 Zr4 2.213720 1_656
O1 Zr15 2.239688 1_555
O1 Zr7 2.248847 1_555
O1 Zr1 2.298765 1_666
O1 Zr5 2.303886 1_555
O2 Zr10 2.239697 1_555
O2 Zr4 2.248856 1_555
O2 Zr3 2.298765 1_555
O2 Zr5 2.303886 1_555
O3 Zr15 2.218055 1_555
O3 Zr8 2.218055 1_655
O3 Zr12 2.219641 1_555
O3 Zr2 2.318270 1_555
O4 Zr6 2.171473 1_555
O4 Zr0 2.181778 1_555
O4 Zr3 2.197799 1_555
O4 Zr7 2.213726 1_554
O5 Zr0 2.218046 1_545
O5 Zr10 2.218046 1_555
O5 Zr6 2.219641 1_545
O5 Zr2 2.318270 1_555
O6 Zr7 2.239691 1_544
O6 Zr0 2.248865 1_545
O6 Zr1 2.298761 1_655
O6 Zr12 2.303881 1_554
O7 Zr11 2.171469 1_555
O7 Zr7 2.181773 1_555
O7 Zr3 2.197808 1_556
O7 Zr15 2.213717 1_555
O8 Zr4 2.239688 1_556
O8 Zr8 2.248857 1_555
O8 Zr3 2.298767 1_556
O8 Zr6 2.303887 1_556
O9 Zr13 2.239691 1_554
O9 Zr10 2.248865 1_555
O9 Zr3 2.298761 1_555
O9 Zr12 2.303881 1_554
O10 Zr5 2.171467 1_555
O10 Zr9 2.181784 1_555
O10 Zr3 2.197804 1_555
O10 Zr0 2.213717 1_555
O11 Zr6 2.171473 1_545
O11 Zr10 2.181778 1_555
O11 Zr1 2.197799 1_555
O11 Zr13 2.213726 1_554
O12 Zr9 2.239688 1_456
O12 Zr15 2.248857 1_455
O12 Zr1 2.298767 1_566
O12 Zr6 2.303887 1_556
O13 Zr4 2.218046 1_555
O13 Zr7 2.218047 1_555
O13 Zr11 2.219641 1_555
O13 Zr14 2.318270 1_555
O14 Zr12 2.171469 1_555
O14 Zr15 2.181779 1_555
O14 Zr3 2.197808 1_556
O14 Zr9 2.213720 1_556
O15 Zr11 2.171467 1_555
O15 Zr4 2.181784 1_555
O15 Zr1 2.197804 1_555
O15 Zr10 2.213717 1_555
O16 Zr5 2.171469 1_455
O16 Zr13 2.181773 1_565
O16 Zr1 2.197808 1_566
O16 Zr8 2.213717 1_565
O17 Zr9 2.218046 1_455
O17 Zr13 2.218047 1_565
O17 Zr5 2.219641 1_455
O17 Zr14 2.318270 1_555
O18 Zr8 2.239688 1_555
O18 Zr13 2.248847 1_555
O18 Zr3 2.298765 1_556
O18 Zr11 2.303886 1_555
O19 Zr0 2.239697 1_445
O19 Zr9 2.248856 1_445
O19 Zr1 2.298765 1_555
O19 Zr11 2.303886 1_555
