# generated using pymatgen
data_Na2ZnP(H5O4)3
_symmetry_space_group_name_H-M   'P 1'
_cell_length_a   21.62433900
_cell_length_b   6.46524800
_cell_length_c   8.66615389
_cell_angle_alpha   70.31464387
_cell_angle_beta   90.00000000
_cell_angle_gamma   90.00000000
_symmetry_Int_Tables_number   1
_chemical_formula_structural   Na2ZnP(H5O4)3
_chemical_formula_sum   'Na8 Zn4 P4 H60 O48'
_cell_volume   1140.77735290
_cell_formula_units_Z   4
loop_
 _symmetry_equiv_pos_site_id
 _symmetry_equiv_pos_as_xyz
  1  'x, y, z'
loop_
 _atom_site_type_symbol
 _atom_site_label
 _atom_site_symmetry_multiplicity
 _atom_site_fract_x
 _atom_site_fract_y
 _atom_site_fract_z
 _atom_site_occupancy
  Na  Na0  1  0.30795600  0.53068300  0.72939500  1
  Na  Na1  1  0.80795600  0.96931700  0.27060500  1
  Na  Na2  1  0.69204400  0.46931700  0.27060500  1
  Na  Na3  1  0.19204400  0.03068300  0.72939500  1
  Na  Na4  1  0.47108700  0.52237200  0.80724100  1
  Na  Na5  1  0.97108700  0.97762800  0.19275900  1
  Na  Na6  1  0.52891300  0.47762800  0.19275900  1
  Na  Na7  1  0.02891300  0.02237200  0.80724100  1
  Zn  Zn0  1  0.75495100  0.99575700  0.63516400  1
  Zn  Zn1  1  0.25495100  0.50424300  0.36483600  1
  Zn  Zn2  1  0.24504900  0.00424300  0.36483600  1
  Zn  Zn3  1  0.74504900  0.49575700  0.63516400  1
  P  P0  1  0.64341200  0.13693400  0.81301800  1
  P  P1  1  0.14341200  0.36306600  0.18698200  1
  P  P2  1  0.35658800  0.86306600  0.18698200  1
  P  P3  1  0.85658800  0.63693400  0.81301800  1
  H  H0  1  0.29865500  0.80520700  0.92662200  1
  H  H1  1  0.79865500  0.69479300  0.07337800  1
  H  H2  1  0.70134500  0.19479300  0.07337800  1
  H  H3  1  0.20134500  0.30520700  0.92662200  1
  H  H4  1  0.24070600  0.65533700  0.98329900  1
  H  H5  1  0.74070600  0.84466300  0.01670100  1
  H  H6  1  0.75929400  0.34466300  0.01670100  1
  H  H7  1  0.25929400  0.15533700  0.98329900  1
  H  H8  1  0.37300400  0.56987000  0.01023000  1
  H  H9  1  0.87300400  0.93013000  0.98977000  1
  H  H10  1  0.62699600  0.43013000  0.98977000  1
  H  H11  1  0.12699600  0.06987000  0.01023000  1
  H  H12  1  0.35336900  0.32431300  0.04872000  1
  H  H13  1  0.85336900  0.17568700  0.95128000  1
  H  H14  1  0.64663100  0.67568700  0.95128000  1
  H  H15  1  0.14663100  0.82431300  0.04872000  1
  H  H16  1  0.36082000  0.08129300  0.82549000  1
  H  H17  1  0.86082000  0.41870700  0.17451000  1
  H  H18  1  0.63918000  0.91870700  0.17451000  1
  H  H19  1  0.13918000  0.58129300  0.82549000  1
  H  H20  1  0.40443100  0.21902600  0.68294500  1
  H  H21  1  0.90443100  0.28097400  0.31705500  1
  H  H22  1  0.59556900  0.78097400  0.31705500  1
  H  H23  1  0.09556900  0.71902600  0.68294500  1
  H  H24  1  0.47205700  0.31308400  0.52580300  1
  H  H25  1  0.97205700  0.18691600  0.47419700  1
  H  H26  1  0.52794300  0.68691600  0.47419700  1
  H  H27  1  0.02794300  0.81308400  0.52580300  1
  H  H28  1  0.51873900  0.21048700  0.67540000  1
  H  H29  1  0.01873900  0.28951300  0.32460000  1
  H  H30  1  0.48126100  0.78951300  0.32460000  1
  H  H31  1  0.98126100  0.71048700  0.67540000  1
  H  H32  1  0.45007700  0.84200300  0.96663700  1
  H  H33  1  0.95007700  0.65799700  0.03336300  1
  H  H34  1  0.54992300  0.15799700  0.03336300  1
  H  H35  1  0.04992300  0.34200300  0.96663700  1
  H  H36  1  0.51881400  0.88355900  0.89394500  1
  H  H37  1  0.01881400  0.61644100  0.10605500  1
  H  H38  1  0.48118600  0.11644100  0.10605500  1
  H  H39  1  0.98118600  0.38355900  0.89394500  1
  H  H40  1  0.38634200  0.90533000  0.64189100  1
  H  H41  1  0.88634200  0.59467000  0.35810900  1
  H  H42  1  0.61365800  0.09467000  0.35810900  1
  H  H43  1  0.11365800  0.40533000  0.64189100  1
  H  H44  1  0.40037400  0.82062400  0.49590300  1
  H  H45  1  0.90037400  0.67937600  0.50409700  1
  H  H46  1  0.59962600  0.17937600  0.50409700  1
  H  H47  1  0.09962600  0.32062400  0.49590300  1
  H  H48  1  0.39965200  0.42035400  0.31762000  1
  H  H49  1  0.89965200  0.07964600  0.68238000  1
  H  H50  1  0.60034800  0.57964600  0.68238000  1
  H  H51  1  0.10034800  0.92035400  0.31762000  1
  H  H52  1  0.42232400  0.18513600  0.31704700  1
  H  H53  1  0.92232400  0.31486400  0.68295300  1
  H  H54  1  0.57767600  0.81486400  0.68295300  1
  H  H55  1  0.07767600  0.68513600  0.31704700  1
  H  H56  1  0.30056300  0.16827300  0.56387300  1
  H  H57  1  0.80056300  0.33172700  0.43612700  1
  H  H58  1  0.69943700  0.83172700  0.43612700  1
  H  H59  1  0.19943700  0.66827300  0.56387300  1
  O  O0  1  0.73821500  0.80972900  0.50007700  1
  O  O1  1  0.23821500  0.69027100  0.49992300  1
  O  O2  1  0.26178500  0.19027100  0.49992300  1
  O  O3  1  0.76178500  0.30972900  0.50007700  1
  O  O4  1  0.69866500  0.97557500  0.82100900  1
  O  O5  1  0.19866500  0.52442500  0.17899100  1
  O  O6  1  0.30133500  0.02442500  0.17899100  1
  O  O7  1  0.80133500  0.47557500  0.82100900  1
  O  O8  1  0.83798800  0.87943000  0.71612300  1
  O  O9  1  0.33798800  0.62057000  0.28387700  1
  O  O10  1  0.16201200  0.12057000  0.28387700  1
  O  O11  1  0.66201200  0.37943000  0.71612300  1
  O  O12  1  0.58735000  0.07074500  0.72800800  1
  O  O13  1  0.08735000  0.42925500  0.27199200  1
  O  O14  1  0.41265000  0.92925500  0.27199200  1
  O  O15  1  0.91265000  0.57074500  0.72800800  1
  O  O16  1  0.62802400  0.12190600  0.99175700  1
  O  O17  1  0.12802400  0.37809400  0.00824300  1
  O  O18  1  0.37197600  0.87809400  0.00824300  1
  O  O19  1  0.87197600  0.62190600  0.99175700  1
  O  O20  1  0.26198900  0.75102400  0.88368700  1
  O  O21  1  0.76198900  0.74897600  0.11631300  1
  O  O22  1  0.73801100  0.24897600  0.11631300  1
  O  O23  1  0.23801100  0.25102400  0.88368700  1
  O  O24  1  0.37510500  0.44602300  0.96842600  1
  O  O25  1  0.87510500  0.05397700  0.03157400  1
  O  O26  1  0.62489500  0.55397700  0.03157400  1
  O  O27  1  0.12489500  0.94602300  0.96842600  1
  O  O28  1  0.36049600  0.17184400  0.70645300  1
  O  O29  1  0.86049600  0.32815600  0.29354700  1
  O  O30  1  0.63950400  0.82815600  0.29354700  1
  O  O31  1  0.13950400  0.67184400  0.70645300  1
  O  O32  1  0.47899600  0.29308100  0.64301600  1
  O  O33  1  0.97899600  0.20691900  0.35698400  1
  O  O34  1  0.52100400  0.70691900  0.35698400  1
  O  O35  1  0.02100400  0.79308100  0.64301600  1
  O  O36  1  0.48937900  0.76962800  0.95505400  1
  O  O37  1  0.98937900  0.73037200  0.04494600  1
  O  O38  1  0.51062100  0.23037200  0.04494600  1
  O  O39  1  0.01062100  0.26962800  0.95505400  1
  O  O40  1  0.39427300  0.77056800  0.61654600  1
  O  O41  1  0.89427300  0.72943200  0.38345400  1
  O  O42  1  0.60572700  0.22943200  0.38345400  1
  O  O43  1  0.10572700  0.27056800  0.61654600  1
  O  O44  1  0.43549200  0.31861500  0.34003800  1
  O  O45  1  0.93549200  0.18138500  0.65996200  1
  O  O46  1  0.56450800  0.68138500  0.65996200  1
  O  O47  1  0.06450800  0.81861500  0.34003800  1
loop_
_geom_bond_atom_site_label_1
_geom_bond_atom_site_label_2
_geom_bond_distance
_geom_bond_site_symmetry_2
Na0 O23 2.390800 1_555
Na0 O40 2.413279 1_555
Na0 O1 2.431314 1_555
Na0 O24 2.436228 1_555
Na0 O20 2.467506 1_555
Na0 O28 2.650174 1_555
Na1 O22 2.390800 1_565
Na1 O41 2.413279 1_555
Na1 O0 2.431314 1_555
Na1 O25 2.436228 1_565
Na1 O21 2.467506 1_555
Na1 O29 2.650174 1_565
Na2 O21 2.390800 1_555
Na2 O42 2.413279 1_555
Na2 O3 2.431314 1_555
Na2 O26 2.436228 1_555
Na2 O22 2.467506 1_555
Na2 O30 2.650174 1_555
Na3 O20 2.390800 1_545
Na3 O43 2.413279 1_555
Na3 O2 2.431314 1_555
Na3 O27 2.436228 1_545
Na3 O23 2.467506 1_555
Na3 O31 2.650174 1_545
Na4 O32 2.381954 1_555
Na4 O36 2.394232 1_555
Na4 O46 2.425494 1_555
Na4 O38 2.432768 1_556
Na4 O24 2.457280 1_555
Na4 O40 2.505691 1_555
Na5 O33 2.381954 1_565
Na5 O37 2.394232 1_555
Na5 O47 2.425494 1_655
Na5 O39 2.432768 1_664
Na5 O25 2.457280 1_565
Na5 O41 2.505691 1_555
Na6 O34 2.381954 1_555
Na6 O38 2.394232 1_555
Na6 O44 2.425494 1_555
Na6 O36 2.432768 1_554
Na6 O26 2.457280 1_555
Na6 O42 2.505691 1_555
Na7 O35 2.381954 1_545
Na7 O39 2.394232 1_555
Na7 O45 2.425494 1_455
Na7 O37 2.432768 1_446
Na7 O27 2.457280 1_545
Na7 O43 2.505691 1_555
H0 O20 0.988751 1_555
H1 O21 0.988751 1_555
H2 O22 0.988751 1_555
H3 O23 0.988751 1_555
H4 O20 0.989921 1_555
H5 O21 0.989921 1_555
H6 O22 0.989921 1_555
H7 O23 0.989921 1_555
H8 O24 0.984816 1_554
H9 O25 0.984816 1_566
H10 O26 0.984816 1_556
H11 O27 0.984816 1_544
H12 O24 0.977456 1_554
H13 O25 0.977456 1_556
H14 O26 0.977456 1_556
H15 O27 0.977456 1_554
H16 O28 1.000047 1_555
H17 O29 1.000047 1_555
H18 O30 1.000047 1_555
H19 O31 1.000047 1_555
H20 O28 0.997653 1_555
H21 O29 0.997653 1_555
H22 O30 0.997653 1_555
H23 O31 0.997653 1_555
H24 O32 0.991241 1_555
H25 O33 0.991241 1_555
H26 O34 0.991241 1_555
H27 O35 0.991241 1_555
H28 O32 1.000770 1_555
H29 O33 1.000770 1_455
H30 O34 1.000770 1_555
H31 O35 1.000770 1_655
H32 O36 0.991447 1_555
H33 O37 0.991447 1_555
H34 O38 0.991447 1_555
H35 O39 0.991447 1_555
H36 O36 0.982531 1_555
H37 O37 0.982531 1_455
H38 O38 0.982531 1_555
H39 O39 0.982531 1_655
H40 O40 0.982698 1_555
H41 O41 0.982698 1_555
H42 O42 0.982698 1_555
H43 O43 0.982698 1_555
H44 O40 0.993620 1_555
H45 O41 0.993620 1_555
H46 O42 0.993620 1_555
H47 O43 0.993620 1_555
H48 O44 0.992451 1_555
H49 O45 0.992451 1_555
H50 O46 0.992451 1_555
H51 O47 0.992451 1_555
H52 O44 0.990628 1_555
H53 O45 0.990628 1_555
H54 O46 0.990628 1_555
H55 O47 0.990628 1_555
H56 O2 0.988649 1_555
H57 O3 0.988649 1_555
H58 O0 0.988649 1_555
H59 O1 0.988649 1_555
O0 Zn0 1.973978 1_555
O0 Zn3 1.977846 1_555
O1 Zn1 1.973978 1_555
O1 Zn2 1.977846 1_565
O2 Zn2 1.973978 1_555
O2 Zn1 1.977846 1_555
O3 Zn3 1.973978 1_555
O3 Zn0 1.977846 1_545
O4 P0 1.572264 1_565
O4 Zn0 1.987663 1_555
O5 P1 1.572264 1_555
O5 Zn1 1.987663 1_555
O6 P2 1.572264 1_545
O6 Zn2 1.987663 1_555
O7 P3 1.572264 1_555
O7 Zn3 1.987663 1_555
O8 P3 1.561390 1_555
O8 Zn0 1.981574 1_555
O9 P2 1.561390 1_555
O9 Zn1 1.981574 1_555
O10 P1 1.561390 1_555
O10 Zn2 1.981574 1_555
O11 P0 1.561390 1_555
O11 Zn3 1.981574 1_555
O12 P0 1.551753 1_555
O13 P1 1.551753 1_555
O14 P2 1.551753 1_555
O15 P3 1.551753 1_555
O16 P0 1.555028 1_555
O17 P1 1.555028 1_555
O18 P2 1.555028 1_555
O19 P3 1.555028 1_555
