# generated using pymatgen
data_Dy2Sb2O7
_symmetry_space_group_name_H-M   'P 1'
_cell_length_a   7.53495673
_cell_length_b   7.53495673
_cell_length_c   7.53495673
_cell_angle_alpha   60.00000000
_cell_angle_beta   60.00000000
_cell_angle_gamma   60.00000000
_symmetry_Int_Tables_number   1
_chemical_formula_structural   Dy2Sb2O7
_chemical_formula_sum   'Dy4 Sb4 O14'
_cell_volume   302.50133130
_cell_formula_units_Z   2
loop_
 _symmetry_equiv_pos_site_id
 _symmetry_equiv_pos_as_xyz
  1  'x, y, z'
loop_
 _atom_site_type_symbol
 _atom_site_label
 _atom_site_symmetry_multiplicity
 _atom_site_fract_x
 _atom_site_fract_y
 _atom_site_fract_z
 _atom_site_occupancy
  Dy  Dy0  1  0.12500000  0.62500000  0.12500000  1
  Dy  Dy1  1  0.12500000  0.12500000  0.62500000  1
  Dy  Dy2  1  0.62500000  0.12500000  0.12500000  1
  Dy  Dy3  1  0.12500000  0.12500000  0.12500000  1
  Sb  Sb0  1  0.62500000  0.62500000  0.62500000  1
  Sb  Sb1  1  0.12500000  0.62500000  0.62500000  1
  Sb  Sb2  1  0.62500000  0.12500000  0.62500000  1
  Sb  Sb3  1  0.62500000  0.62500000  0.12500000  1
  O  O0  1  0.28129000  0.71871000  0.71871000  1
  O  O1  1  0.53129000  0.96871000  0.96871000  1
  O  O2  1  0.71871000  0.28129000  0.71871000  1
  O  O3  1  0.28129000  0.28129000  0.71871000  1
  O  O4  1  0.71871000  0.71871000  0.28129000  1
  O  O5  1  0.00000000  0.00000000  0.00000000  1
  O  O6  1  0.28129000  0.71871000  0.28129000  1
  O  O7  1  0.96871000  0.53129000  0.96871000  1
  O  O8  1  0.96871000  0.96871000  0.53129000  1
  O  O9  1  0.53129000  0.53129000  0.96871000  1
  O  O10  1  0.25000000  0.25000000  0.25000000  1
  O  O11  1  0.53129000  0.96871000  0.53129000  1
  O  O12  1  0.71871000  0.28129000  0.28129000  1
  O  O13  1  0.96871000  0.53129000  0.53129000  1
loop_
_geom_bond_atom_site_label_1
_geom_bond_atom_site_label_2
_geom_bond_distance
_geom_bond_site_symmetry_2
Dy0 O10 2.307100 1_555
Dy0 O5 2.307100 1_565
Dy0 O7 2.514386 1_454
Dy0 O0 2.514386 1_554
Dy0 O4 2.514386 1_455
Dy0 O9 2.514386 1_554
Dy0 O13 2.514386 1_455
Dy0 O6 2.514386 1_555
Dy1 O10 2.307100 1_555
Dy1 O5 2.307100 1_556
Dy1 O8 2.514386 1_445
Dy1 O2 2.514386 1_455
Dy1 O0 2.514386 1_545
Dy1 O11 2.514386 1_545
Dy1 O13 2.514386 1_455
Dy1 O3 2.514386 1_555
Dy2 O5 2.307100 1_655
Dy2 O10 2.307100 1_555
Dy2 O1 2.514386 1_544
Dy2 O4 2.514386 1_545
Dy2 O2 2.514386 1_554
Dy2 O9 2.514386 1_554
Dy2 O11 2.514386 1_545
Dy2 O12 2.514386 1_555
Dy3 O10 2.307100 1_555
Dy3 O5 2.307100 1_555
Dy3 O3 2.514386 1_554
Dy3 O6 2.514386 1_545
Dy3 O12 2.514386 1_455
Dy3 O1 2.514386 1_544
Dy3 O7 2.514386 1_454
Dy3 O8 2.514386 1_445
O0 Sb0 2.132048 1_555
O0 Sb1 2.132048 1_555
O1 Sb2 2.132048 1_565
O1 Sb3 2.132048 1_556
O2 Sb0 2.132048 1_555
O2 Sb2 2.132048 1_555
O3 Sb2 2.132048 1_555
O3 Sb1 2.132048 1_555
O4 Sb0 2.132048 1_555
O4 Sb3 2.132048 1_555
O6 Sb3 2.132048 1_555
O6 Sb1 2.132048 1_555
O7 Sb3 2.132048 1_556
O7 Sb1 2.132048 1_655
O8 Sb2 2.132048 1_565
O8 Sb1 2.132048 1_655
O9 Sb3 2.132048 1_556
O9 Sb0 2.132048 1_555
O11 Sb2 2.132048 1_565
O11 Sb0 2.132048 1_555
O12 Sb2 2.132048 1_555
O12 Sb3 2.132048 1_555
O13 Sb1 2.132048 1_655
O13 Sb0 2.132048 1_555
