# generated using pymatgen
data_LiVP3HO10
_symmetry_space_group_name_H-M   'P 1'
_cell_length_a   6.52102000
_cell_length_b   7.53600006
_cell_length_c   8.24434295
_cell_angle_alpha   73.34899211
_cell_angle_beta   70.61716875
_cell_angle_gamma   83.34471733
_symmetry_Int_Tables_number   1
_chemical_formula_structural   LiVP3HO10
_chemical_formula_sum   'Li2 V2 P6 H2 O20'
_cell_volume   366.06123677
_cell_formula_units_Z   2
loop_
 _symmetry_equiv_pos_site_id
 _symmetry_equiv_pos_as_xyz
  1  'x, y, z'
loop_
 _atom_site_type_symbol
 _atom_site_label
 _atom_site_symmetry_multiplicity
 _atom_site_fract_x
 _atom_site_fract_y
 _atom_site_fract_z
 _atom_site_occupancy
  Li  Li0  1  0.71162200  0.31430500  0.40444700  1
  Li  Li1  1  0.28837800  0.68569500  0.59555300  1
  V  V0  1  0.81072600  0.36156900  0.97987900  1
  V  V1  1  0.18927400  0.63843100  0.02012100  1
  P  P0  1  0.86280800  0.96610700  0.86612600  1
  P  P1  1  0.68665900  0.75425100  0.69382300  1
  P  P2  1  0.62159100  0.68822300  0.16452800  1
  P  P3  1  0.37840900  0.31177700  0.83547200  1
  P  P4  1  0.31334100  0.24574900  0.30617700  1
  P  P5  1  0.13719200  0.03389300  0.13387400  1
  H  H0  1  0.68472200  0.77921900  0.42397700  1
  H  H1  1  0.31527800  0.22078100  0.57602300  1
  O  O0  1  0.89460800  0.16949900  0.82913000  1
  O  O1  1  0.83401500  0.59720000  0.75577500  1
  O  O2  1  0.72865500  0.93914000  0.74338100  1
  O  O3  1  0.76230700  0.83359800  0.48646300  1
  O  O4  1  0.93824100  0.16095100  0.15795200  1
  O  O5  1  0.83259900  0.56175200  0.12197600  1
  O  O6  1  0.70233400  0.89996200  0.06591700  1
  O  O7  1  0.52626000  0.34740700  0.92974400  1
  O  O8  1  0.44372700  0.72011600  0.75465300  1
  O  O9  1  0.52911300  0.68009600  0.36051900  1
  O  O10  1  0.47088700  0.31990400  0.63948100  1
  O  O11  1  0.55627300  0.27988400  0.24534700  1
  O  O12  1  0.47374000  0.65259300  0.07025600  1
  O  O13  1  0.29766600  0.10003800  0.93408300  1
  O  O14  1  0.16740100  0.43824800  0.87802400  1
  O  O15  1  0.06175900  0.83904900  0.84204800  1
  O  O16  1  0.23769300  0.16640200  0.51353700  1
  O  O17  1  0.27134500  0.06086000  0.25661900  1
  O  O18  1  0.16598500  0.40280000  0.24422500  1
  O  O19  1  0.10539200  0.83050100  0.17087000  1
loop_
_geom_bond_atom_site_label_1
_geom_bond_atom_site_label_2
_geom_bond_distance
_geom_bond_site_symmetry_2
Li0 O11 1.987937 1_555
Li0 O10 2.057496 1_555
Li0 O5 2.481090 1_555
Li0 O4 2.570200 1_555
Li1 O8 1.987937 1_555
Li1 O9 2.057496 1_555
Li1 O14 2.481090 1_555
Li1 O15 2.570200 1_555
H0 O3 1.015544 1_555
H0 O9 1.616604 1_555
H1 O16 1.015544 1_555
H1 O10 1.616604 1_555
O0 P0 1.499721 1_545
O0 V0 2.082085 1_555
O1 P1 1.516808 1_555
O1 V0 2.141475 1_555
O2 P0 1.605402 1_555
O2 P1 1.634697 1_555
O3 P1 1.564045 1_555
O4 P5 1.513085 1_655
O4 V0 2.092692 1_554
O5 P2 1.578611 1_555
O5 V0 2.200489 1_554
O5 V1 2.277247 1_655
O6 P0 1.600909 1_554
O6 P2 1.628344 1_555
O7 P3 1.510860 1_555
O7 V0 2.050215 1_555
O8 P1 1.523303 1_555
O8 V1 2.230785 1_556
O9 P2 1.511078 1_555
O10 P3 1.511078 1_555
O11 P4 1.523303 1_555
O11 V0 2.230785 1_554
O12 P2 1.510860 1_555
O12 V1 2.050215 1_555
O13 P5 1.600909 1_556
O13 P3 1.628344 1_555
O14 P3 1.578611 1_555
O14 V1 2.200489 1_556
O14 V0 2.277247 1_455
O15 P0 1.513085 1_455
O15 V1 2.092692 1_556
O16 P4 1.564045 1_555
O17 P5 1.605402 1_555
O17 P4 1.634697 1_555
O18 P4 1.516808 1_555
O18 V1 2.141475 1_555
O19 P5 1.499721 1_565
O19 V1 2.082085 1_555
