# generated using pymatgen
data_Na3Li3Mn2P2(CO7)2
_symmetry_space_group_name_H-M   'P 1'
_cell_length_a   6.76992800
_cell_length_b   8.74789124
_cell_length_c   10.13898889
_cell_angle_alpha   91.17395384
_cell_angle_beta   90.03763024
_cell_angle_gamma   90.21263545
_symmetry_Int_Tables_number   1
_chemical_formula_structural   Na3Li3Mn2P2(CO7)2
_chemical_formula_sum   'Na6 Li6 Mn4 P4 C4 O28'
_cell_volume   600.32689020
_cell_formula_units_Z   2
loop_
 _symmetry_equiv_pos_site_id
 _symmetry_equiv_pos_as_xyz
  1  'x, y, z'
loop_
 _atom_site_type_symbol
 _atom_site_label
 _atom_site_symmetry_multiplicity
 _atom_site_fract_x
 _atom_site_fract_y
 _atom_site_fract_z
 _atom_site_occupancy
  Na  Na0  1  0.24978600  0.91571900  0.37901200  1
  Na  Na1  1  0.99984300  0.74729100  0.62737000  1
  Na  Na2  1  0.99921300  0.74365900  0.12265300  1
  Na  Na3  1  0.50138800  0.74409000  0.12263300  1
  Na  Na4  1  0.50033100  0.25284500  0.87538400  1
  Na  Na5  1  0.50126800  0.25423200  0.37476200  1
  Li  Li0  1  0.24798400  0.92086900  0.87510900  1
  Li  Li1  1  0.47713700  0.72994100  0.61903000  1
  Li  Li2  1  0.98036600  0.26553600  0.88423600  1
  Li  Li3  1  0.97802700  0.27135000  0.38568200  1
  Li  Li4  1  0.75325200  0.08618900  0.62673500  1
  Li  Li5  1  0.76096800  0.08958200  0.12328900  1
  Mn  Mn0  1  0.74854300  0.64166500  0.88494200  1
  Mn  Mn1  1  0.74620200  0.63958200  0.39105600  1
  Mn  Mn2  1  0.24427500  0.35493300  0.61343300  1
  Mn  Mn3  1  0.24544400  0.35580700  0.10864800  1
  P  P0  1  0.24977800  0.59514900  0.84910300  1
  P  P1  1  0.24382800  0.58540200  0.35430800  1
  P  P2  1  0.74884200  0.40477100  0.64837100  1
  P  P3  1  0.75364500  0.40170400  0.14542400  1
  C  C0  1  0.75755700  0.95481600  0.86525400  1
  C  C1  1  0.75886100  0.95458600  0.36708200  1
  C  C2  1  0.25648400  0.05197900  0.63931000  1
  C  C3  1  0.24865800  0.05204100  0.12973200  1
  O  O0  1  0.27597900  0.90541600  0.65511500  1
  O  O1  1  0.25064500  0.90650400  0.15010100  1
  O  O2  1  0.75200500  0.91127700  0.98749500  1
  O  O3  1  0.75337700  0.91091100  0.48879000  1
  O  O4  1  0.74465600  0.85337000  0.76932900  1
  O  O5  1  0.74532600  0.85225600  0.27137500  1
  O  O6  1  0.06794900  0.69609900  0.88658400  1
  O  O7  1  0.43381100  0.68474600  0.90004300  1
  O  O8  1  0.06201800  0.68318100  0.39670100  1
  O  O9  1  0.42975000  0.67477700  0.40563100  1
  O  O10  1  0.26375200  0.57910500  0.69514900  1
  O  O11  1  0.73387400  0.57060200  0.59525500  1
  O  O12  1  0.25117400  0.57306100  0.20069400  1
  O  O13  1  0.75070100  0.56484900  0.08792100  1
  O  O14  1  0.23429700  0.43113800  0.90490800  1
  O  O15  1  0.77014300  0.41920300  0.80179700  1
  O  O16  1  0.23329700  0.42086300  0.40805000  1
  O  O17  1  0.77074700  0.41967700  0.29921400  1
  O  O18  1  0.56444200  0.30576300  0.61263800  1
  O  O19  1  0.92746200  0.31439400  0.59065600  1
  O  O20  1  0.56548700  0.30726300  0.10970000  1
  O  O21  1  0.92880300  0.30430600  0.09109400  1
  O  O22  1  0.23960400  0.14173000  0.74255200  1
  O  O23  1  0.24444600  0.14776000  0.22992400  1
  O  O24  1  0.25242900  0.11084200  0.52300500  1
  O  O25  1  0.25057500  0.10221500  0.01005200  1
  O  O26  1  0.77508300  0.09763200  0.83623600  1
  O  O27  1  0.77648500  0.09732200  0.33743400  1
loop_
_geom_bond_atom_site_label_1
_geom_bond_atom_site_label_2
_geom_bond_distance
_geom_bond_site_symmetry_2
Na0 O24 2.223272 1_565
Na0 O1 2.320686 1_555
Na0 O8 2.404610 1_555
Na0 O9 2.457984 1_555
Na0 O23 2.555938 1_565
Na0 O0 2.808210 1_555
Na1 O0 2.334834 1_655
Na1 O11 2.386452 1_555
Na1 O4 2.424417 1_555
Na1 O10 2.426588 1_655
Na1 O8 2.431204 1_655
Na1 O3 2.627554 1_555
Na1 O6 2.714510 1_655
Na2 O1 2.229200 1_655
Na2 O13 2.314817 1_555
Na2 O12 2.414204 1_655
Na2 O6 2.465883 1_654
Na2 O5 2.467248 1_555
Na2 O2 2.631797 1_554
Na2 O8 2.870798 1_655
Na3 O1 2.231599 1_555
Na3 O13 2.330024 1_555
Na3 O7 2.349678 1_554
Na3 O12 2.401192 1_555
Na3 O5 2.413215 1_555
Na3 O2 2.638513 1_554
Na4 O26 2.336355 1_555
Na4 O14 2.401744 1_555
Na4 O22 2.409303 1_555
Na4 O20 2.452752 1_556
Na4 O15 2.457143 1_555
Na4 O25 2.553381 1_556
Na4 O18 2.747729 1_555
Na5 O27 2.344673 1_555
Na5 O16 2.351618 1_555
Na5 O23 2.444500 1_555
Na5 O17 2.457095 1_555
Na5 O18 2.481063 1_555
Na5 O24 2.595261 1_555
Na5 O20 2.770883 1_555
Li0 O25 2.073575 1_566
Li0 O0 2.240042 1_555
Li0 O6 2.314526 1_555
Li0 O22 2.376876 1_565
Li0 O7 2.439968 1_555
Li1 O0 2.082767 1_555
Li1 O10 2.110122 1_555
Li1 O9 2.229872 1_555
Li1 O11 2.242038 1_555
Li1 O4 2.585057 1_555
Li2 O26 2.068893 1_555
Li2 O15 2.142392 1_555
Li2 O21 2.146712 1_556
Li2 O14 2.250879 1_655
Li2 O22 2.504072 1_655
Li3 O27 2.090881 1_555
Li3 O17 2.116580 1_555
Li3 O19 2.132565 1_555
Li3 O16 2.172369 1_655
Li4 O3 2.054101 1_545
Li4 O26 2.129448 1_555
Li4 O18 2.317983 1_555
Li4 O19 2.350117 1_555
Li4 O4 2.522209 1_545
Li5 O2 2.059962 1_544
Li5 O27 2.173341 1_555
Li5 O21 2.221635 1_555
Li5 O20 2.329320 1_555
Mn0 O15 2.110520 1_555
Mn0 O7 2.170123 1_555
Mn0 O13 2.178036 1_556
Mn0 O4 2.212198 1_555
Mn0 O6 2.212418 1_655
Mn0 O2 2.558019 1_555
Mn1 O17 2.127095 1_555
Mn1 O11 2.169925 1_555
Mn1 O9 2.170201 1_555
Mn1 O8 2.170921 1_655
Mn1 O5 2.241948 1_555
Mn1 O3 2.553579 1_555
Mn2 O10 2.116799 1_555
Mn2 O16 2.173426 1_555
Mn2 O19 2.183945 1_455
Mn2 O18 2.211328 1_555
Mn2 O22 2.300655 1_555
Mn2 O24 2.307338 1_555
Mn3 O12 2.100274 1_555
Mn3 O14 2.182451 1_554
Mn3 O21 2.195193 1_455
Mn3 O20 2.209498 1_555
Mn3 O23 2.217187 1_555
Mn3 O25 2.414862 1_555
C0 O26 1.294409 1_565
C0 O2 1.304565 1_555
C0 O4 1.305771 1_555
C1 O27 1.295383 1_565
C1 O3 1.299758 1_555
C1 O5 1.309592 1_555
C2 O24 1.296686 1_555
C2 O22 1.300909 1_555
C2 O0 1.302524 1_545
C3 O1 1.294071 1_545
C3 O25 1.298861 1_555
C3 O23 1.303554 1_555
O6 P0 1.560287 1_555
O7 P0 1.551977 1_555
O8 P1 1.557177 1_555
O9 P1 1.562528 1_555
O10 P0 1.567320 1_555
O11 P2 1.561338 1_555
O12 P1 1.559858 1_555
O13 P3 1.552878 1_555
O14 P0 1.556231 1_555
O15 P2 1.564641 1_555
O16 P1 1.550870 1_555
O17 P3 1.568135 1_555
O18 P2 1.555111 1_555
O19 P2 1.555258 1_555
O20 P3 1.554240 1_555
O21 P3 1.557129 1_555
