# generated using pymatgen
data_Li4V3Fe3(SbO8)2
_symmetry_space_group_name_H-M   'P 1'
_cell_length_a   6.00392463
_cell_length_b   6.00874442
_cell_length_c   9.77736989
_cell_angle_alpha   89.48595933
_cell_angle_beta   89.59490974
_cell_angle_gamma   119.68250991
_symmetry_Int_Tables_number   1
_chemical_formula_structural   Li4V3Fe3(SbO8)2
_chemical_formula_sum   'Li4 V3 Fe3 Sb2 O16'
_cell_volume   306.40550584
_cell_formula_units_Z   1
loop_
 _symmetry_equiv_pos_site_id
 _symmetry_equiv_pos_as_xyz
  1  'x, y, z'
loop_
 _atom_site_type_symbol
 _atom_site_label
 _atom_site_symmetry_multiplicity
 _atom_site_fract_x
 _atom_site_fract_y
 _atom_site_fract_z
 _atom_site_occupancy
  Li  Li0  1  0.34367600  0.67328900  0.90187400  1
  Li  Li1  1  0.99494500  0.99935600  0.98958800  1
  Li  Li2  1  0.99276700  0.99394300  0.48931100  1
  Li  Li3  1  0.67586000  0.34123700  0.39980100  1
  V  V0  1  0.65328700  0.82684800  0.22034500  1
  V  V1  1  0.82641000  0.65121700  0.71960400  1
  V  V2  1  0.82347900  0.17011600  0.71317200  1
  Fe  Fe0  1  0.16501800  0.82402900  0.21162800  1
  Fe  Fe1  1  0.16865200  0.34178800  0.21075600  1
  Fe  Fe2  1  0.33657800  0.16385200  0.71134600  1
  Sb  Sb0  1  0.32608400  0.66174000  0.48974000  1
  Sb  Sb1  1  0.66302000  0.32657600  0.99057500  1
  O  O0  1  0.15822000  0.82716300  0.59323500  1
  O  O1  1  0.04277600  0.53214200  0.34767500  1
  O  O2  1  0.37196100  0.69860700  0.10630400  1
  O  O3  1  0.97518900  0.97761000  0.30049600  1
  O  O4  1  0.97429800  0.97418600  0.80060400  1
  O  O5  1  0.15165900  0.32554000  0.58925800  1
  O  O6  1  0.48947600  0.96493500  0.34552500  1
  O  O7  1  0.49393900  0.53257100  0.34865100  1
  O  O8  1  0.32886800  0.15596300  0.09131300  1
  O  O9  1  0.65820400  0.82605500  0.59650700  1
  O  O10  1  0.53072300  0.48932100  0.84841500  1
  O  O11  1  0.53514200  0.04067700  0.84816600  1
  O  O12  1  0.69185300  0.36704000  0.60613300  1
  O  O13  1  0.83052400  0.66026400  0.09710600  1
  O  O14  1  0.96708900  0.49138300  0.84640100  1
  O  O15  1  0.83030000  0.16285300  0.09430900  1
loop_
_geom_bond_atom_site_label_1
_geom_bond_atom_site_label_2
_geom_bond_distance
_geom_bond_site_symmetry_2
Li0 O11 1.981877 1_565
Li0 O10 1.996960 1_555
Li0 O2 2.007935 1_556
Li0 O14 2.044849 1_455
Li1 O4 1.855308 1_555
Li1 O15 1.989018 1_566
Li1 O8 2.017596 1_666
Li1 O13 2.045958 1_556
Li2 O3 1.850582 1_555
Li2 O5 2.000155 1_665
Li2 O0 2.001362 1_655
Li2 O9 2.023707 1_555
Li3 O1 1.974703 1_655
Li3 O7 2.001479 1_555
Li3 O12 2.024032 1_555
Li3 O6 2.042165 1_545
Fe0 O3 1.986855 1_455
Fe0 O1 2.013355 1_555
Fe0 O2 2.023698 1_555
Fe0 O8 2.080374 1_565
Fe0 O13 2.085577 1_455
Fe0 O6 2.155925 1_555
Fe1 O3 2.083584 1_445
Fe1 O15 2.114367 1_455
Fe1 O2 2.116833 1_555
Fe1 O1 2.130921 1_555
Fe1 O8 2.146424 1_555
Fe1 O7 2.189469 1_555
Fe2 O4 2.071661 1_445
Fe2 O12 2.113280 1_555
Fe2 O0 2.118250 1_545
Fe2 O11 2.153426 1_555
Fe2 O5 2.160475 1_555
Fe2 O10 2.188795 1_555
O0 Sb0 2.005864 1_555
O0 V1 2.113971 1_455
O1 Sb0 2.042065 1_555
O2 V0 1.855531 1_555
O3 V0 1.862846 1_555
O4 V1 1.874205 1_555
O4 V2 1.996352 1_565
O5 Sb0 1.994878 1_555
O5 V2 2.084678 1_455
O6 V0 1.990766 1_555
O6 Sb0 2.105691 1_555
O7 V0 1.970662 1_555
O7 Sb0 2.072492 1_555
O8 Sb1 1.990736 1_554
O9 Sb0 2.034397 1_555
O9 V2 2.141594 1_565
O9 V1 2.148809 1_555
O10 V1 1.979936 1_555
O10 Sb1 2.068732 1_555
O11 V2 1.989898 1_555
O11 Sb1 2.056972 1_555
O12 V1 1.865394 1_555
O12 V2 2.008862 1_555
O13 Sb1 2.042487 1_554
O13 V0 2.155132 1_555
O14 V1 1.992372 1_555
O14 Sb1 2.109187 1_555
O14 V2 2.139934 1_555
O15 Sb1 1.995051 1_554
O15 V0 2.129799 1_545
