# generated using pymatgen
data_InPO4
_symmetry_space_group_name_H-M   'P 1'
_cell_length_a   4.81990778
_cell_length_b   4.81990597
_cell_length_c   6.81120021
_cell_angle_alpha   90.00000000
_cell_angle_beta   90.00000000
_cell_angle_gamma   112.83899341
_symmetry_Int_Tables_number   1
_chemical_formula_structural   InPO4
_chemical_formula_sum   'In2 P2 O8'
_cell_volume   145.82871016
_cell_formula_units_Z   2
loop_
 _symmetry_equiv_pos_site_id
 _symmetry_equiv_pos_as_xyz
  1  'x, y, z'
loop_
 _atom_site_type_symbol
 _atom_site_label
 _atom_site_symmetry_multiplicity
 _atom_site_fract_x
 _atom_site_fract_y
 _atom_site_fract_z
 _atom_site_occupancy
  In  In0  1  -0.00000000  0.00000000  0.50000000  1
  In  In1  1  -0.00000000  0.00000000  -0.00000000  1
  P  P0  1  0.64714462  0.35285538  0.25000000  1
  P  P1  1  0.35285538  0.64714462  0.75000000  1
  O  O0  1  0.25395042  0.74604958  0.56136106  1
  O  O1  1  0.74604958  0.25395042  0.06136106  1
  O  O2  1  0.74604958  0.25395042  0.43863894  1
  O  O3  1  0.25395042  0.74604958  0.93863894  1
  O  O4  1  0.70484892  0.77227757  0.75000000  1
  O  O5  1  0.29515108  0.22772243  0.25000000  1
  O  O6  1  0.77227757  0.70484892  0.25000000  1
  O  O7  1  0.22772243  0.29515108  0.75000000  1
loop_
_geom_bond_atom_site_label_1
_geom_bond_atom_site_label_2
_geom_bond_distance
_geom_bond_site_symmetry_2
In0 O2 2.081864 1_455
In0 O0 2.081864 1_545
In0 O6 2.217187 1_445
In0 O7 2.217187 1_555
In0 O4 2.217187 1_445
In0 O5 2.217187 1_555
In1 O1 2.081864 1_455
In1 O3 2.081864 1_544
In1 O6 2.217187 1_445
In1 O7 2.217187 1_554
In1 O5 2.217187 1_555
In1 O4 2.217187 1_444
O0 P1 1.510557 1_555
O1 P0 1.510557 1_555
O2 P0 1.510557 1_555
O3 P1 1.510557 1_555
O4 P1 1.564544 1_555
O5 P0 1.564544 1_555
O6 P0 1.564543 1_555
O7 P1 1.564543 1_555
