# generated using pymatgen
data_BaCa2I6
_symmetry_space_group_name_H-M   'P 1'
_cell_length_a   7.69470200
_cell_length_b   7.69470200
_cell_length_c   14.69542500
_cell_angle_alpha   90.00000000
_cell_angle_beta   90.00000000
_cell_angle_gamma   90.00000000
_symmetry_Int_Tables_number   1
_chemical_formula_structural   BaCa2I6
_chemical_formula_sum   'Ba2 Ca4 I12'
_cell_volume   870.09317276
_cell_formula_units_Z   2
loop_
 _symmetry_equiv_pos_site_id
 _symmetry_equiv_pos_as_xyz
  1  'x, y, z'
loop_
 _atom_site_type_symbol
 _atom_site_label
 _atom_site_symmetry_multiplicity
 _atom_site_fract_x
 _atom_site_fract_y
 _atom_site_fract_z
 _atom_site_occupancy
  Ba  Ba0  1  0.00000000  0.00000000  0.00000000  1
  Ba  Ba1  1  0.50000000  0.50000000  0.50000000  1
  Ca  Ca0  1  0.00000000  0.00000000  0.33179900  1
  Ca  Ca1  1  0.00000000  0.00000000  0.66820100  1
  Ca  Ca2  1  0.50000000  0.50000000  0.16820100  1
  Ca  Ca3  1  0.50000000  0.50000000  0.83179900  1
  I  I0  1  0.20517600  0.79482400  0.17974800  1
  I  I1  1  0.20517600  0.79482400  0.82025200  1
  I  I2  1  0.18235900  0.81764100  0.50000000  1
  I  I3  1  0.31764100  0.31764100  0.00000000  1
  I  I4  1  0.29482400  0.29482400  0.32025200  1
  I  I5  1  0.29482400  0.29482400  0.67974800  1
  I  I6  1  0.70517600  0.70517600  0.32025200  1
  I  I7  1  0.70517600  0.70517600  0.67974800  1
  I  I8  1  0.68235900  0.68235900  0.00000000  1
  I  I9  1  0.81764100  0.18235900  0.50000000  1
  I  I10  1  0.79482400  0.20517600  0.17974800  1
  I  I11  1  0.79482400  0.20517600  0.82025200  1
loop_
_geom_bond_atom_site_label_1
_geom_bond_atom_site_label_2
_geom_bond_distance
_geom_bond_site_symmetry_2
Ba0 I8 3.456554 1_445
Ba0 I3 3.456554 1_555
Ba0 I11 3.458670 1_454
Ba0 I0 3.458670 1_545
Ba0 I1 3.458670 1_544
Ba0 I10 3.458670 1_455
Ba1 I2 3.456554 1_555
Ba1 I9 3.456554 1_555
Ba1 I5 3.458670 1_555
Ba1 I6 3.458670 1_555
Ba1 I7 3.458670 1_555
Ba1 I4 3.458670 1_555
Ca0 I10 3.158766 1_455
Ca0 I0 3.158766 1_545
Ca0 I2 3.169803 1_545
Ca0 I9 3.169803 1_455
Ca0 I6 3.212745 1_445
Ca0 I4 3.212745 1_555
Ca1 I1 3.158766 1_545
Ca1 I11 3.158766 1_455
Ca1 I9 3.169803 1_455
Ca1 I2 3.169803 1_545
Ca1 I5 3.212745 1_555
Ca1 I7 3.212745 1_445
Ca2 I6 3.158766 1_555
Ca2 I4 3.158766 1_555
Ca2 I8 3.169803 1_555
Ca2 I3 3.169803 1_555
Ca2 I10 3.212745 1_555
Ca2 I0 3.212745 1_555
Ca3 I5 3.158766 1_555
Ca3 I7 3.158766 1_555
Ca3 I3 3.169803 1_556
Ca3 I8 3.169803 1_556
Ca3 I1 3.212745 1_555
Ca3 I11 3.212745 1_555
