# generated using pymatgen
data_Fe6O5F7
_symmetry_space_group_name_H-M   'P 1'
_cell_length_a   4.78165000
_cell_length_b   5.69718922
_cell_length_c   7.83073109
_cell_angle_alpha   85.39924783
_cell_angle_beta   89.41118596
_cell_angle_gamma   88.87038161
_symmetry_Int_Tables_number   1
_chemical_formula_structural   Fe6O5F7
_chemical_formula_sum   'Fe6 O5 F7'
_cell_volume   212.58771502
_cell_formula_units_Z   1
loop_
 _symmetry_equiv_pos_site_id
 _symmetry_equiv_pos_as_xyz
  1  'x, y, z'
loop_
 _atom_site_type_symbol
 _atom_site_label
 _atom_site_symmetry_multiplicity
 _atom_site_fract_x
 _atom_site_fract_y
 _atom_site_fract_z
 _atom_site_occupancy
  Fe  Fe0  1  0.53015800  0.84738800  0.67157600  1
  Fe  Fe1  1  0.53278300  0.50791500  0.00196800  1
  Fe  Fe2  1  0.45886100  0.18661100  0.34897200  1
  Fe  Fe3  1  0.98760200  0.32352000  0.67683200  1
  Fe  Fe4  1  0.00995400  0.65181000  0.31155000  1
  Fe  Fe5  1  0.97552700  0.98661700  0.99232700  1
  O  O0  1  0.79898300  0.04518300  0.76075800  1
  O  O1  1  0.80206500  0.69231800  0.10856200  1
  O  O2  1  0.69664700  0.54151100  0.76612500  1
  O  O3  1  0.29937800  0.12791600  0.56789400  1
  O  O4  1  0.30769800  0.46227300  0.22813700  1
  F  F0  1  0.80522000  0.36863600  0.43204200  1
  F  F1  1  0.68966000  0.20187600  0.11683700  1
  F  F2  1  0.70017600  0.87113600  0.42713200  1
  F  F3  1  0.31212700  0.79262800  0.89599500  1
  F  F4  1  0.20340600  0.96071800  0.23571000  1
  F  F5  1  0.18476200  0.62798100  0.55564800  1
  F  F6  1  0.20499500  0.30396500  0.90193400  1
loop_
_geom_bond_atom_site_label_1
_geom_bond_atom_site_label_2
_geom_bond_distance
_geom_bond_site_symmetry_2
Fe0 O0 1.900445 1_565
Fe0 O2 1.992275 1_555
Fe0 O3 2.042534 1_565
Fe1 O1 1.916900 1_555
Fe1 O2 1.995192 1_554
Fe1 O4 2.064134 1_555
Fe2 O3 1.877093 1_555
Fe2 O4 1.901358 1_555
Fe3 O0 1.907078 1_555
Fe3 O2 2.004515 1_555
Fe3 O3 2.062268 1_655
Fe4 O1 1.879530 1_455
Fe4 O4 1.911294 1_555
Fe5 O0 2.008856 1_565
Fe5 O1 2.030313 1_556
F0 Fe4 2.061663 1_655
F0 Fe2 2.107025 1_555
F0 Fe3 2.108916 1_555
F1 Fe1 2.030399 1_555
F1 Fe5 2.102716 1_544
F1 Fe2 2.113536 1_555
F2 Fe0 2.067388 1_555
F2 Fe4 2.157671 1_655
F2 Fe2 2.166261 1_565
F3 Fe0 2.039554 1_555
F3 Fe1 2.041457 1_556
F3 Fe5 2.102296 1_455
F4 Fe4 2.047158 1_555
F4 Fe2 2.049952 1_565
F4 Fe5 2.198327 1_454
F5 Fe4 2.087474 1_555
F5 Fe3 2.140109 1_455
F5 Fe0 2.325624 1_555
F6 Fe3 2.049808 1_455
F6 Fe1 2.159497 1_556
F6 Fe5 2.197897 1_445
