# generated using pymatgen
data_Li4MnCrO6
_symmetry_space_group_name_H-M   'P 1'
_cell_length_a   5.00526528
_cell_length_b   5.00526528
_cell_length_c   19.29164444
_cell_angle_alpha   87.17427598
_cell_angle_beta   87.17427598
_cell_angle_gamma   119.47279006
_symmetry_Int_Tables_number   1
_chemical_formula_structural   Li4MnCrO6
_chemical_formula_sum   'Li16 Mn4 Cr4 O24'
_cell_volume   418.74448928
_cell_formula_units_Z   4
loop_
 _symmetry_equiv_pos_site_id
 _symmetry_equiv_pos_as_xyz
  1  'x, y, z'
loop_
 _atom_site_type_symbol
 _atom_site_label
 _atom_site_symmetry_multiplicity
 _atom_site_fract_x
 _atom_site_fract_y
 _atom_site_fract_z
 _atom_site_occupancy
  Li  Li0  1  0.49960500  0.74969700  0.12498500  1
  Li  Li1  1  0.37664000  0.62336000  0.50000000  1
  Li  Li2  1  0.40866900  0.33822600  0.37495600  1
  Li  Li3  1  0.00104200  0.25046300  0.62482500  1
  Li  Li4  1  0.87232800  0.12767200  0.00000000  1
  Li  Li5  1  0.74953700  0.99895800  0.37517500  1
  Li  Li6  1  0.90271500  0.83049600  0.87472600  1
  Li  Li7  1  0.25030300  0.50039500  0.87501500  1
  Li  Li8  1  0.33585600  0.90926700  0.62460500  1
  Li  Li9  1  0.16950400  0.09728500  0.12527400  1
  Li  Li10  1  0.83075600  0.40293200  0.12468900  1
  Li  Li11  1  0.66177400  0.59133100  0.62504400  1
  Li  Li12  1  0.09073300  0.66414400  0.37539500  1
  Li  Li13  1  0.12788600  0.37291700  0.25005200  1
  Li  Li14  1  0.59706800  0.16924400  0.87531100  1
  Li  Li15  1  0.62708300  0.87211400  0.74994800  1
  Mn  Mn0  1  0.45765400  0.04262400  0.25006500  1
  Mn  Mn1  1  0.95737600  0.54234600  0.74993500  1
  Mn  Mn2  1  0.70752100  0.29247900  0.50000000  1
  Mn  Mn3  1  0.54241000  0.45759000  0.00000000  1
  Cr  Cr0  1  0.79645100  0.70457200  0.24999500  1
  Cr  Cr1  1  0.29542800  0.20354900  0.75000500  1
  Cr  Cr2  1  0.20400600  0.79599400  0.00000000  1
  Cr  Cr3  1  0.04534200  0.95465800  0.50000000  1
  O  O0  1  0.46381600  0.71490700  0.30704800  1
  O  O1  1  0.78498000  0.03502400  0.19309700  1
  O  O2  1  0.96497600  0.21502000  0.80690300  1
  O  O3  1  0.36055200  0.25245600  0.55655400  1
  O  O4  1  0.49719300  0.38905800  0.19337500  1
  O  O5  1  0.28509300  0.53618400  0.69295200  1
  O  O6  1  0.39350000  0.00461300  0.44431600  1
  O  O7  1  0.85719100  0.74544500  0.05577800  1
  O  O8  1  0.99731000  0.88869400  0.69318700  1
  O  O9  1  0.74754400  0.63944800  0.44344600  1
  O  O10  1  0.74516800  0.35719200  0.30570700  1
  O  O11  1  0.88898200  0.49712800  0.94340000  1
  O  O12  1  0.11130600  0.00269000  0.30681300  1
  O  O13  1  0.25455500  0.14280900  0.94422200  1
  O  O14  1  0.24549400  0.85692600  0.80576900  1
  O  O15  1  0.99538700  0.60650000  0.55568400  1
  O  O16  1  0.14307400  0.75450600  0.19423100  1
  O  O17  1  0.61094200  0.50280700  0.80662500  1
  O  O18  1  0.71402000  0.96486700  0.55698700  1
  O  O19  1  0.50287200  0.11101800  0.05660000  1
  O  O20  1  0.64280800  0.25483200  0.69429300  1
  O  O21  1  0.03513300  0.28598000  0.44301300  1
  O  O22  1  0.21474700  0.46433000  0.05693500  1
  O  O23  1  0.53567000  0.78525300  0.94306500  1
loop_
_geom_bond_atom_site_label_1
_geom_bond_atom_site_label_2
_geom_bond_distance
_geom_bond_site_symmetry_2
Li0 O22 2.040079 1_555
Li0 O1 2.041854 1_565
Li0 O4 2.177471 1_555
Li0 O19 2.178289 1_565
Li0 O16 2.186338 1_555
Li0 O7 2.188858 1_555
Li1 O9 2.070708 1_555
Li1 O3 2.070708 1_555
Li1 O6 2.105490 1_565
Li1 O15 2.105490 1_455
Li1 O18 2.123678 1_555
Li1 O21 2.123678 1_555
Li2 O6 2.056557 1_555
Li2 O10 2.058831 1_555
Li2 O21 2.128559 1_555
Li2 O0 2.134443 1_555
Li2 O12 2.171370 1_555
Li2 O9 2.190171 1_555
Li3 O5 2.040272 1_555
Li3 O18 2.041821 1_445
Li3 O3 2.172582 1_555
Li3 O8 2.178824 1_445
Li3 O15 2.185102 1_455
Li3 O20 2.194558 1_455
Li4 O11 2.063759 1_554
Li4 O19 2.063759 1_555
Li4 O7 2.114264 1_545
Li4 O13 2.114264 1_654
Li4 O22 2.123562 1_655
Li4 O23 2.123562 1_544
Li5 O0 2.040272 1_555
Li5 O21 2.041821 1_665
Li5 O9 2.172582 1_555
Li5 O12 2.178824 1_665
Li5 O6 2.185102 1_565
Li5 O10 2.194558 1_565
Li6 O11 2.050444 1_555
Li6 O14 2.065207 1_655
Li6 O23 2.118232 1_555
Li6 O17 2.143256 1_555
Li6 O2 2.152821 1_565
Li6 O13 2.252311 1_665
Li7 O23 2.040079 1_555
Li7 O2 2.041854 1_455
Li7 O17 2.177471 1_555
Li7 O11 2.178289 1_455
Li7 O14 2.186338 1_555
Li7 O13 2.188858 1_555
Li8 O8 2.055792 1_455
Li8 O3 2.059649 1_565
Li8 O5 2.132485 1_555
Li8 O18 2.136405 1_555
Li8 O15 2.202108 1_455
Li8 O20 2.231036 1_565
Li9 O19 2.050444 1_555
Li9 O16 2.065207 1_545
Li9 O22 2.118232 1_555
Li9 O4 2.143256 1_555
Li9 O1 2.152821 1_455
Li9 O7 2.252311 1_445
Li10 O4 2.051050 1_555
Li10 O7 2.063643 1_555
Li10 O1 2.121450 1_555
Li10 O19 2.143784 1_555
Li10 O22 2.151372 1_655
Li10 O16 2.252288 1_655
Li11 O15 2.056557 1_555
Li11 O20 2.058831 1_555
Li11 O18 2.128559 1_555
Li11 O5 2.134443 1_555
Li11 O8 2.171370 1_555
Li11 O3 2.190171 1_555
Li12 O12 2.055792 1_565
Li12 O9 2.059649 1_455
Li12 O0 2.132485 1_555
Li12 O21 2.136405 1_555
Li12 O6 2.202108 1_565
Li12 O10 2.231036 1_455
Li13 O4 2.064939 1_555
Li13 O12 2.068698 1_555
Li13 O16 2.111785 1_555
Li13 O10 2.114009 1_455
Li13 O0 2.121778 1_555
Li13 O1 2.127481 1_455
Li14 O17 2.051050 1_555
Li14 O13 2.063643 1_555
Li14 O2 2.121450 1_555
Li14 O11 2.143784 1_555
Li14 O23 2.151372 1_545
Li14 O14 2.252288 1_545
Li15 O17 2.064939 1_555
Li15 O8 2.068698 1_555
Li15 O14 2.111785 1_555
Li15 O20 2.114009 1_565
Li15 O5 2.121778 1_555
Li15 O2 2.127481 1_565
Mn0 O12 1.921988 1_555
Mn0 O4 1.922489 1_555
Mn0 O0 1.943028 1_545
Mn0 O1 1.944578 1_555
Mn0 O10 1.947194 1_555
Mn0 O16 1.950663 1_545
Mn1 O8 1.921988 1_555
Mn1 O17 1.922489 1_555
Mn1 O5 1.943028 1_655
Mn1 O2 1.944578 1_555
Mn1 O20 1.947194 1_555
Mn1 O14 1.950663 1_655
Mn2 O3 1.922441 1_555
Mn2 O9 1.922441 1_555
Mn2 O21 1.943411 1_655
Mn2 O18 1.943411 1_545
Mn2 O15 1.947063 1_555
Mn2 O6 1.947063 1_555
Mn3 O11 1.922158 1_554
Mn3 O19 1.922158 1_555
Mn3 O22 1.943650 1_555
Mn3 O23 1.943650 1_554
Mn3 O7 1.949973 1_555
Mn3 O13 1.949973 1_554
Cr0 O16 1.895406 1_655
Cr0 O10 1.895675 1_555
Cr0 O1 1.965838 1_565
Cr0 O0 1.973769 1_555
Cr0 O12 1.982216 1_665
Cr0 O4 1.983530 1_555
Cr1 O14 1.895406 1_545
Cr1 O20 1.895675 1_555
Cr1 O2 1.965838 1_455
Cr1 O5 1.973769 1_555
Cr1 O8 1.982216 1_445
Cr1 O17 1.983530 1_555
Cr2 O7 1.895271 1_455
Cr2 O13 1.895271 1_564
Cr2 O22 1.969516 1_555
Cr2 O23 1.969516 1_554
Cr2 O19 1.981414 1_565
Cr2 O11 1.981414 1_454
Cr3 O15 1.900901 1_455
Cr3 O6 1.900901 1_565
Cr3 O18 1.967369 1_455
Cr3 O21 1.967369 1_565
Cr3 O9 1.979197 1_455
Cr3 O3 1.979197 1_565
