# generated using pymatgen
data_Na3CrSiCO7
_symmetry_space_group_name_H-M   'P 1'
_cell_length_a   5.26792788
_cell_length_b   11.12270464
_cell_length_c   11.12241205
_cell_angle_alpha   106.60422838
_cell_angle_beta   91.75371490
_cell_angle_gamma   88.24810077
_symmetry_Int_Tables_number   1
_chemical_formula_structural   Na3CrSiCO7
_chemical_formula_sum   'Na12 Cr4 Si4 C4 O28'
_cell_volume   624.07260661
_cell_formula_units_Z   4
loop_
 _symmetry_equiv_pos_site_id
 _symmetry_equiv_pos_as_xyz
  1  'x, y, z'
loop_
 _atom_site_type_symbol
 _atom_site_label
 _atom_site_symmetry_multiplicity
 _atom_site_fract_x
 _atom_site_fract_y
 _atom_site_fract_z
 _atom_site_occupancy
  Na  Na0  1  0.77390700  0.16974100  0.08026500  1
  Na  Na1  1  0.77390100  0.66972600  0.58027100  1
  Na  Na2  1  0.22609200  0.83026400  0.91973200  1
  Na  Na3  1  0.22609700  0.33027800  0.41972700  1
  Na  Na4  1  0.26106200  0.14835400  0.86850300  1
  Na  Na5  1  0.26106100  0.64835400  0.36850700  1
  Na  Na6  1  0.26105900  0.38149400  0.10164700  1
  Na  Na7  1  0.26106400  0.88149400  0.60164100  1
  Na  Na8  1  0.73894000  0.61850900  0.89835100  1
  Na  Na9  1  0.73893800  0.11850000  0.39835700  1
  Na  Na10  1  0.73893500  0.85165000  0.13149000  1
  Na  Na11  1  0.73894400  0.35164500  0.63149200  1
  Cr  Cr0  1  0.78636200  0.04521100  0.70485400  1
  Cr  Cr1  1  0.21367200  0.95479400  0.29514100  1
  Cr  Cr2  1  0.78600200  0.54523400  0.20475400  1
  Cr  Cr3  1  0.21393200  0.45474600  0.79528000  1
  Si  Si0  1  0.71846000  0.33597300  0.91402400  1
  Si  Si1  1  0.71842500  0.83597800  0.41402700  1
  Si  Si2  1  0.28153800  0.66402700  0.08597800  1
  Si  Si3  1  0.28157900  0.16402400  0.58597000  1
  C  C0  1  0.71510700  0.40556900  0.34444100  1
  C  C1  1  0.71507300  0.90556100  0.84442900  1
  C  C2  1  0.28489700  0.59442800  0.65556300  1
  C  C3  1  0.28492600  0.09444100  0.15556800  1
  O  O0  1  0.31597300  0.16525600  0.08475900  1
  O  O1  1  0.31599700  0.66523700  0.58473500  1
  O  O2  1  0.68403100  0.83474600  0.91523900  1
  O  O3  1  0.68400700  0.33476500  0.41526400  1
  O  O4  1  0.94132400  0.43349700  0.31650400  1
  O  O5  1  0.94133500  0.93350600  0.81648500  1
  O  O6  1  0.05867300  0.56650400  0.68349600  1
  O  O7  1  0.05866900  0.06649500  0.18351400  1
  O  O8  1  0.52309600  0.45454100  0.29546000  1
  O  O9  1  0.52313800  0.95454600  0.79545700  1
  O  O10  1  0.47690700  0.54546100  0.70453800  1
  O  O11  1  0.47686600  0.04545400  0.20454100  1
  O  O12  1  0.40966700  0.35773700  0.89231400  1
  O  O13  1  0.40963000  0.85774900  0.39227700  1
  O  O14  1  0.59033600  0.64226000  0.10768700  1
  O  O15  1  0.59037500  0.14225100  0.60772200  1
  O  O16  1  0.12622600  0.58638900  0.16359600  1
  O  O17  1  0.12623300  0.08640000  0.66361700  1
  O  O18  1  0.87376600  0.41360900  0.83640600  1
  O  O19  1  0.87377500  0.91360200  0.33638200  1
  O  O20  1  0.78634800  0.18378400  0.86968400  1
  O  O21  1  0.78633500  0.68377300  0.36968200  1
  O  O22  1  0.78634200  0.38028500  0.06620900  1
  O  O23  1  0.78637100  0.88028700  0.56622100  1
  O  O24  1  0.21365500  0.61971200  0.93379000  1
  O  O25  1  0.21363500  0.11971500  0.43377700  1
  O  O26  1  0.21365600  0.81622000  0.13031300  1
  O  O27  1  0.21366500  0.31622600  0.63031900  1
loop_
_geom_bond_atom_site_label_1
_geom_bond_atom_site_label_2
_geom_bond_distance
_geom_bond_site_symmetry_2
Na0 O7 2.330404 1_655
Na0 O22 2.394179 1_555
Na0 O20 2.394483 1_554
Na0 O0 2.416743 1_555
Na0 O11 2.761695 1_555
Na0 O0 2.853632 1_655
Na1 O6 2.330109 1_655
Na1 O23 2.394356 1_555
Na1 O21 2.394585 1_555
Na1 O1 2.416569 1_555
Na1 O10 2.761319 1_555
Na1 O1 2.853792 1_655
Na2 O5 2.330347 1_455
Na2 O24 2.394276 1_555
Na2 O26 2.394486 1_556
Na2 O2 2.416767 1_555
Na2 O9 2.761666 1_555
Na2 O2 2.853606 1_455
Na3 O4 2.330078 1_455
Na3 O25 2.394375 1_555
Na3 O27 2.394637 1_555
Na3 O3 2.416598 1_555
Na3 O8 2.761320 1_555
Na3 O3 2.853761 1_455
Na4 O17 2.281616 1_555
Na4 O0 2.367855 1_556
Na4 O12 2.419310 1_555
Na4 O9 2.469570 1_545
Na4 O20 2.519536 1_455
Na4 O20 2.806098 1_555
Na4 O5 2.877238 1_445
Na5 O16 2.281880 1_555
Na5 O1 2.367603 1_555
Na5 O13 2.419450 1_555
Na5 O8 2.469496 1_555
Na5 O21 2.519584 1_455
Na5 O21 2.806019 1_555
Na5 O4 2.877358 1_455
Na6 O16 2.281794 1_555
Na6 O0 2.367764 1_555
Na6 O12 2.418865 1_554
Na6 O8 2.469408 1_555
Na6 O22 2.519546 1_455
Na6 O22 2.806088 1_555
Na6 O4 2.877356 1_455
Na7 O17 2.281909 1_565
Na7 O1 2.367941 1_555
Na7 O13 2.419136 1_555
Na7 O9 2.469545 1_555
Na7 O23 2.519396 1_455
Na7 O23 2.806181 1_555
Na7 O5 2.877218 1_455
Na8 O18 2.281832 1_555
Na8 O2 2.367751 1_555
Na8 O14 2.418901 1_556
Na8 O10 2.469398 1_555
Na8 O24 2.519537 1_655
Na8 O24 2.806104 1_555
Na8 O6 2.877331 1_655
Na9 O19 2.281838 1_545
Na9 O3 2.368026 1_555
Na9 O15 2.419129 1_555
Na9 O11 2.469532 1_555
Na9 O25 2.519416 1_655
Na9 O25 2.806154 1_555
Na9 O7 2.877219 1_655
Na10 O19 2.281693 1_555
Na10 O2 2.367792 1_554
Na10 O14 2.419388 1_555
Na10 O11 2.469521 1_565
Na10 O26 2.519573 1_655
Na10 O26 2.806064 1_555
Na10 O7 2.877231 1_665
Na11 O18 2.281890 1_555
Na11 O3 2.367610 1_555
Na11 O15 2.419439 1_555
Na11 O10 2.469526 1_555
Na11 O27 2.519558 1_655
Na11 O27 2.806046 1_555
Na11 O6 2.877350 1_655
Cr0 O17 1.961210 1_655
Cr0 O15 1.981942 1_555
Cr0 O20 2.030200 1_555
Cr0 O23 2.031264 1_545
Cr0 O5 2.123529 1_545
Cr0 O9 2.169577 1_545
Cr1 O19 1.961362 1_455
Cr1 O13 1.981936 1_555
Cr1 O26 2.030189 1_555
Cr1 O25 2.031257 1_565
Cr1 O7 2.123518 1_565
Cr1 O11 2.169416 1_565
Cr2 O16 1.962522 1_655
Cr2 O14 1.980516 1_555
Cr2 O21 2.030751 1_555
Cr2 O22 2.030957 1_555
Cr2 O4 2.125413 1_555
Cr2 O8 2.169358 1_555
Cr3 O18 1.962056 1_455
Cr3 O12 1.980313 1_555
Cr3 O24 2.030894 1_555
Cr3 O27 2.030898 1_555
Cr3 O6 2.125750 1_555
Cr3 O10 2.169999 1_555
C0 O3 1.279800 1_555
C0 O4 1.309063 1_555
C0 O8 1.311032 1_555
C1 O2 1.279732 1_555
C1 O5 1.309371 1_555
C1 O9 1.310756 1_555
C2 O1 1.279888 1_555
C2 O6 1.309067 1_555
C2 O10 1.310965 1_555
C3 O0 1.279727 1_555
C3 O7 1.309357 1_555
C3 O11 1.310793 1_555
O12 Si0 1.657813 1_555
O13 Si1 1.657906 1_555
O14 Si2 1.657843 1_555
O15 Si3 1.657918 1_555
O16 Si2 1.634900 1_555
O17 Si3 1.635111 1_555
O18 Si0 1.634868 1_555
O19 Si1 1.635107 1_555
O20 Si0 1.653238 1_555
O21 Si1 1.653427 1_555
O22 Si0 1.653131 1_554
O23 Si1 1.653289 1_555
O24 Si2 1.653163 1_556
O25 Si3 1.653277 1_555
O26 Si2 1.653273 1_555
O27 Si3 1.653401 1_555
