# generated using pymatgen
data_Li3P3(WO6)2
_symmetry_space_group_name_H-M   'P 1'
_cell_length_a   8.99862800
_cell_length_b   8.93194100
_cell_length_c   15.38031224
_cell_angle_alpha   54.66448806
_cell_angle_beta   90.00000000
_cell_angle_gamma   90.00000000
_symmetry_Int_Tables_number   1
_chemical_formula_structural   Li3P3(WO6)2
_chemical_formula_sum   'Li12 P12 W8 O48'
_cell_volume   1008.46299227
_cell_formula_units_Z   4
loop_
 _symmetry_equiv_pos_site_id
 _symmetry_equiv_pos_as_xyz
  1  'x, y, z'
loop_
 _atom_site_type_symbol
 _atom_site_label
 _atom_site_symmetry_multiplicity
 _atom_site_fract_x
 _atom_site_fract_y
 _atom_site_fract_z
 _atom_site_occupancy
  Li  Li0  1  0.90950500  0.38306200  0.69426500  1
  Li  Li1  1  0.29774100  0.32015100  0.75897300  1
  Li  Li2  1  0.22382200  0.02749300  0.17777000  1
  Li  Li3  1  0.72382200  0.97250700  0.32223000  1
  Li  Li4  1  0.79774100  0.67984900  0.74102700  1
  Li  Li5  1  0.40950500  0.61693800  0.80573500  1
  Li  Li6  1  0.59049500  0.38306200  0.19426500  1
  Li  Li7  1  0.20225900  0.32015100  0.25897300  1
  Li  Li8  1  0.27617800  0.02749300  0.67777000  1
  Li  Li9  1  0.77617800  0.97250700  0.82223000  1
  Li  Li10  1  0.70225900  0.67984900  0.24102700  1
  Li  Li11  1  0.09049500  0.61693800  0.30573500  1
  P  P0  1  0.75138800  0.54868900  0.49112500  1
  P  P1  1  0.61439700  0.25362300  0.84811500  1
  P  P2  1  0.89756700  0.95174100  0.15055800  1
  P  P3  1  0.11439700  0.74637700  0.65188500  1
  P  P4  1  0.39756700  0.04825900  0.34944200  1
  P  P5  1  0.25138800  0.45131100  0.00887500  1
  P  P6  1  0.74861200  0.54868900  0.99112500  1
  P  P7  1  0.60243300  0.95174100  0.65055800  1
  P  P8  1  0.88560300  0.25362300  0.34811500  1
  P  P9  1  0.10243300  0.04825900  0.84944200  1
  P  P10  1  0.38560300  0.74637700  0.15188500  1
  P  P11  1  0.24861200  0.45131100  0.50887500  1
  W  W0  1  0.46385500  0.63621300  0.61189800  1
  W  W1  1  0.96385500  0.36378700  0.88810200  1
  W  W2  1  0.03614500  0.63621300  0.11189800  1
  W  W3  1  0.53614500  0.36378700  0.38810200  1
  W  W4  1  0.54253400  0.13671200  0.11111200  1
  W  W5  1  0.04253400  0.86328800  0.38888800  1
  W  W6  1  0.95746600  0.13671200  0.61111200  1
  W  W7  1  0.45746600  0.86328800  0.88888800  1
  O  O0  1  0.13326000  0.60330700  0.43526700  1
  O  O1  1  0.12010000  0.22173700  0.85010300  1
  O  O2  1  0.30480100  0.46896200  0.59830900  1
  O  O3  1  0.40438800  0.89551400  0.17322300  1
  O  O4  1  0.62911200  0.53228600  0.56433000  1
  O  O5  1  0.77378400  0.33443000  0.80805800  1
  O  O6  1  0.59492200  0.17489400  0.96511400  1
  O  O7  1  0.02260600  0.90239400  0.23463600  1
  O  O8  1  0.74395100  0.96881100  0.19197600  1
  O  O9  1  0.82539900  0.74116100  0.43386200  1
  O  O10  1  0.94263900  0.12325500  0.04525800  1
  O  O11  1  0.49257900  0.40666800  0.78175400  1
  O  O12  1  0.99257900  0.59333200  0.71824600  1
  O  O13  1  0.44263900  0.87674500  0.45474200  1
  O  O14  1  0.32539900  0.25883900  0.06613800  1
  O  O15  1  0.24395100  0.03118900  0.30802400  1
  O  O16  1  0.09492200  0.82510600  0.53488600  1
  O  O17  1  0.52260600  0.09760600  0.26536400  1
  O  O18  1  0.27378400  0.66557000  0.69194200  1
  O  O19  1  0.12911200  0.46771400  0.93567000  1
  O  O20  1  0.80480100  0.53103800  0.90169100  1
  O  O21  1  0.62010000  0.77826300  0.64989700  1
  O  O22  1  0.90438800  0.10448600  0.32677700  1
  O  O23  1  0.63326000  0.39669300  0.06473300  1
  O  O24  1  0.36674000  0.60330700  0.93526700  1
  O  O25  1  0.09561200  0.89551400  0.67322300  1
  O  O26  1  0.37990000  0.22173700  0.35010300  1
  O  O27  1  0.19519900  0.46896200  0.09830900  1
  O  O28  1  0.87088800  0.53228600  0.06433000  1
  O  O29  1  0.72621600  0.33443000  0.30805800  1
  O  O30  1  0.47739400  0.90239400  0.73463600  1
  O  O31  1  0.90507800  0.17489400  0.46511400  1
  O  O32  1  0.75604900  0.96881100  0.69197600  1
  O  O33  1  0.67460100  0.74116100  0.93386200  1
  O  O34  1  0.55736100  0.12325500  0.54525800  1
  O  O35  1  0.00742100  0.40666800  0.28175400  1
  O  O36  1  0.50742100  0.59333200  0.21824600  1
  O  O37  1  0.05736100  0.87674500  0.95474200  1
  O  O38  1  0.17460100  0.25883900  0.56613800  1
  O  O39  1  0.25604900  0.03118900  0.80802400  1
  O  O40  1  0.97739400  0.09760600  0.76536400  1
  O  O41  1  0.40507800  0.82510600  0.03488600  1
  O  O42  1  0.22621600  0.66557000  0.19194200  1
  O  O43  1  0.37088800  0.46771400  0.43567000  1
  O  O44  1  0.59561200  0.10448600  0.82677700  1
  O  O45  1  0.69519900  0.53103800  0.40169100  1
  O  O46  1  0.87990000  0.77826300  0.14989700  1
  O  O47  1  0.86674000  0.39669300  0.56473300  1
loop_
_geom_bond_atom_site_label_1
_geom_bond_atom_site_label_2
_geom_bond_distance
_geom_bond_site_symmetry_2
Li0 O47 1.962491 1_555
Li0 O5 1.965701 1_555
Li0 O40 2.201078 1_555
Li0 O12 2.241314 1_555
Li1 O1 1.966553 1_555
Li1 O2 2.019320 1_555
Li1 O11 2.026598 1_555
Li1 O39 2.262542 1_555
Li2 O14 1.987305 1_555
Li2 O15 2.030714 1_555
Li2 O3 2.032244 1_545
Li2 O7 2.039991 1_545
Li3 O9 1.987305 1_555
Li3 O8 2.030714 1_555
Li3 O22 2.032244 1_565
Li3 O17 2.039991 1_565
Li4 O21 1.966553 1_555
Li4 O20 2.019320 1_555
Li4 O12 2.026598 1_555
Li4 O32 2.262542 1_555
Li5 O24 1.962491 1_555
Li5 O18 1.965701 1_555
Li5 O30 2.201078 1_555
Li5 O11 2.241314 1_555
Li6 O23 1.962491 1_555
Li6 O29 1.965701 1_555
Li6 O17 2.201078 1_555
Li6 O36 2.241314 1_555
Li7 O26 1.966553 1_555
Li7 O27 2.019320 1_555
Li7 O35 2.026598 1_555
Li7 O15 2.262542 1_555
Li8 O38 1.987305 1_555
Li8 O39 2.030714 1_555
Li8 O25 2.032244 1_545
Li8 O30 2.039991 1_545
Li9 O33 1.987305 1_555
Li9 O32 2.030714 1_555
Li9 O44 2.032244 1_565
Li9 O40 2.039991 1_565
Li10 O46 1.966553 1_555
Li10 O45 2.019320 1_555
Li10 O36 2.026598 1_555
Li10 O8 2.262542 1_555
Li11 O0 1.962491 1_555
Li11 O42 1.965701 1_555
Li11 O7 2.201078 1_555
Li11 O35 2.241314 1_555
O0 P11 1.557052 1_555
O0 W5 2.156763 1_555
O1 P9 1.563501 1_555
O1 W1 2.187675 1_455
O2 P11 1.556735 1_555
O2 W0 2.164494 1_555
O3 P10 1.554481 1_555
O3 W4 2.172243 1_565
O4 P0 1.519551 1_555
O4 W0 2.096171 1_555
O5 P1 1.563093 1_555
O5 W1 2.209789 1_555
O6 P1 1.516449 1_555
O6 W4 2.120134 1_556
O7 P2 1.572649 1_455
O7 W5 2.196383 1_555
O8 P2 1.565962 1_555
O8 W4 2.218883 1_565
O9 P0 1.556697 1_555
O9 W5 2.147876 1_655
O10 P2 1.504790 1_545
O10 W1 2.118425 1_554
O11 P1 1.580552 1_555
O11 W0 2.213504 1_555
O12 P3 1.580552 1_655
O12 W1 2.213504 1_555
O13 P4 1.504790 1_565
O13 W0 2.118425 1_555
O14 P5 1.556697 1_555
O14 W4 2.147876 1_555
O15 P4 1.565962 1_555
O15 W5 2.218883 1_545
O16 P3 1.516449 1_555
O16 W5 2.120134 1_555
O17 P4 1.572649 1_555
O17 W4 2.196383 1_555
O18 P3 1.563093 1_555
O18 W0 2.209789 1_555
O19 P5 1.519551 1_556
O19 W1 2.096171 1_455
O20 P6 1.556735 1_555
O20 W1 2.164494 1_555
O21 P7 1.563501 1_555
O21 W0 2.187675 1_555
O22 P8 1.554481 1_555
O22 W5 2.172243 1_645
O23 P6 1.557052 1_554
O23 W4 2.156763 1_555
O24 P5 1.557052 1_556
O24 W7 2.156763 1_555
O25 P3 1.554481 1_555
O25 W6 2.172243 1_465
O26 P4 1.563501 1_555
O26 W3 2.187675 1_555
O27 P5 1.556735 1_555
O27 W2 2.164494 1_555
O28 P6 1.519551 1_554
O28 W2 2.096171 1_655
O29 P8 1.563093 1_555
O29 W3 2.209789 1_555
O30 P7 1.572649 1_555
O30 W7 2.196383 1_555
O31 P8 1.516449 1_555
O31 W6 2.120134 1_555
O32 P7 1.565962 1_555
O32 W6 2.218883 1_565
O33 P6 1.556697 1_555
O33 W7 2.147876 1_555
O34 P7 1.504790 1_545
O34 W3 2.118425 1_555
O35 P8 1.580552 1_455
O35 W2 2.213504 1_555
O36 P10 1.580552 1_555
O36 W3 2.213504 1_555
O37 P9 1.504790 1_565
O37 W2 2.118425 1_556
O38 P11 1.556697 1_555
O38 W6 2.147876 1_455
O39 P9 1.565962 1_555
O39 W7 2.218883 1_545
O40 P9 1.572649 1_655
O40 W6 2.196383 1_555
O41 P10 1.516449 1_555
O41 W7 2.120134 1_554
O42 P10 1.563093 1_555
O42 W2 2.209789 1_555
O43 P11 1.519551 1_555
O43 W3 2.096171 1_555
O44 P1 1.554481 1_555
O44 W7 2.172243 1_545
O45 P0 1.556735 1_555
O45 W3 2.164494 1_555
O46 P2 1.563501 1_555
O46 W2 2.187675 1_655
O47 P0 1.557052 1_555
O47 W6 2.156763 1_555
