# generated using pymatgen
data_P2H9(CBr)3
_symmetry_space_group_name_H-M   'P 1'
_cell_length_a   17.16143300
_cell_length_b   7.30214500
_cell_length_c   9.45108794
_cell_angle_alpha   58.41608375
_cell_angle_beta   90.00000000
_cell_angle_gamma   90.00000000
_symmetry_Int_Tables_number   1
_chemical_formula_structural   P2H9(CBr)3
_chemical_formula_sum   'P8 H36 C12 Br12'
_cell_volume   1008.93029915
_cell_formula_units_Z   4
loop_
 _symmetry_equiv_pos_site_id
 _symmetry_equiv_pos_as_xyz
  1  'x, y, z'
loop_
 _atom_site_type_symbol
 _atom_site_label
 _atom_site_symmetry_multiplicity
 _atom_site_fract_x
 _atom_site_fract_y
 _atom_site_fract_z
 _atom_site_occupancy
  P  P0  1  0.91500900  0.83769900  0.21188500  1
  P  P1  1  0.37312700  0.83814200  0.33103000  1
  P  P2  1  0.87312700  0.16185800  0.16897000  1
  P  P3  1  0.58499100  0.83769900  0.71188500  1
  P  P4  1  0.41500900  0.16230100  0.28811500  1
  P  P5  1  0.12687300  0.83814200  0.83103000  1
  P  P6  1  0.62687300  0.16185800  0.66897000  1
  P  P7  1  0.08499100  0.16230100  0.78811500  1
  H  H0  1  0.60197200  0.08768500  0.94421900  1
  H  H1  1  0.74356800  0.33119000  0.67661500  1
  H  H2  1  0.52267300  0.23329700  0.80905300  1
  H  H3  1  0.38486600  0.47190300  0.55962900  1
  H  H4  1  0.61303400  0.36886000  0.79557600  1
  H  H5  1  0.86818500  0.34436100  0.87071200  1
  H  H6  1  0.96265800  0.35983000  0.94192800  1
  H  H7  1  0.46265800  0.64017000  0.55807200  1
  H  H8  1  0.36818500  0.65563900  0.62928800  1
  H  H9  1  0.24850500  0.95690500  0.19104500  1
  H  H10  1  0.23821600  0.83262200  0.41016600  1
  H  H11  1  0.11303400  0.63114000  0.70442400  1
  H  H12  1  0.88486600  0.52809700  0.94037100  1
  H  H13  1  0.02267300  0.76670300  0.69094700  1
  H  H14  1  0.73821600  0.16737800  0.08983400  1
  H  H15  1  0.24356800  0.66881000  0.82338500  1
  H  H16  1  0.74850500  0.04309500  0.30895500  1
  H  H17  1  0.10197200  0.91231500  0.55578100  1
  H  H18  1  0.89802800  0.08768500  0.44421900  1
  H  H19  1  0.25149500  0.95690500  0.69104500  1
  H  H20  1  0.75643200  0.33119000  0.17661500  1
  H  H21  1  0.26178400  0.83262200  0.91016600  1
  H  H22  1  0.97732700  0.23329700  0.30905300  1
  H  H23  1  0.11513400  0.47190300  0.05962900  1
  H  H24  1  0.88696600  0.36886000  0.29557600  1
  H  H25  1  0.76178400  0.16737800  0.58983400  1
  H  H26  1  0.75149500  0.04309500  0.80895500  1
  H  H27  1  0.63181500  0.34436100  0.37071200  1
  H  H28  1  0.53734200  0.35983000  0.44192800  1
  H  H29  1  0.03734200  0.64017000  0.05807200  1
  H  H30  1  0.13181500  0.65563900  0.12928800  1
  H  H31  1  0.38696600  0.63114000  0.20442400  1
  H  H32  1  0.61513400  0.52809700  0.44037100  1
  H  H33  1  0.47732700  0.76670300  0.19094700  1
  H  H34  1  0.25643200  0.66881000  0.32338500  1
  H  H35  1  0.39802800  0.91231500  0.05578100  1
  C  C0  1  0.58621500  0.21904100  0.81839300  1
  C  C1  1  0.40001600  0.63010700  0.54023600  1
  C  C2  1  0.90001600  0.36989300  0.95976400  1
  C  C3  1  0.26873000  0.82428900  0.31188100  1
  C  C4  1  0.08621500  0.78095900  0.68160700  1
  C  C5  1  0.76873000  0.17571100  0.18811900  1
  C  C6  1  0.23127000  0.82428900  0.81188100  1
  C  C7  1  0.91378500  0.21904100  0.31839300  1
  C  C8  1  0.73127000  0.17571100  0.68811900  1
  C  C9  1  0.09998400  0.63010700  0.04023600  1
  C  C10  1  0.59998400  0.36989300  0.45976400  1
  C  C11  1  0.41378500  0.78095900  0.18160700  1
  Br  Br0  1  0.21677300  0.26551900  0.83089100  1
  Br  Br1  1  0.90441700  0.65802800  0.49443900  1
  Br  Br2  1  0.05775800  0.99274200  0.19665400  1
  Br  Br3  1  0.71677300  0.73448100  0.66910900  1
  Br  Br4  1  0.55775800  0.00725800  0.30334600  1
  Br  Br5  1  0.59558300  0.65802800  0.99443900  1
  Br  Br6  1  0.40441700  0.34197200  0.00556100  1
  Br  Br7  1  0.44224200  0.99274200  0.69665400  1
  Br  Br8  1  0.28322700  0.26551900  0.33089100  1
  Br  Br9  1  0.94224200  0.00725800  0.80334600  1
  Br  Br10  1  0.09558300  0.34197200  0.50556100  1
  Br  Br11  1  0.78322700  0.73448100  0.16910900  1
loop_
_geom_bond_atom_site_label_1
_geom_bond_atom_site_label_2
_geom_bond_distance
_geom_bond_site_symmetry_2
P0 P2 2.297479 1_565
P1 P4 2.297479 1_565
P3 P6 2.297479 1_565
P5 P7 2.297479 1_565
C0 H2 1.094592 1_555
C0 H4 1.099114 1_555
C0 H0 1.101138 1_555
C0 P6 1.809208 1_555
C1 H7 1.096573 1_555
C1 H8 1.098129 1_555
C1 H3 1.101795 1_555
C1 P1 1.812117 1_555
C2 H6 1.096573 1_555
C2 H5 1.098129 1_555
C2 H12 1.101795 1_555
C2 P2 1.812117 1_556
C3 H10 1.095440 1_555
C3 H9 1.097280 1_555
C3 H34 1.102741 1_555
C3 P1 1.808867 1_555
C4 H13 1.094592 1_555
C4 H11 1.099114 1_555
C4 H17 1.101138 1_555
C4 P5 1.809208 1_555
C5 H14 1.095440 1_555
C5 H16 1.097280 1_555
C5 H20 1.102741 1_555
C5 P2 1.808867 1_555
C6 H21 1.095440 1_555
C6 H19 1.097280 1_555
C6 H15 1.102741 1_555
C6 P5 1.808867 1_555
C7 H22 1.094592 1_555
C7 H24 1.099114 1_555
C7 H18 1.101138 1_555
C7 P2 1.809208 1_555
C8 H25 1.095440 1_555
C8 H26 1.097280 1_555
C8 H1 1.102741 1_555
C8 P6 1.808867 1_555
C9 H29 1.096573 1_555
C9 H30 1.098129 1_555
C9 H23 1.101795 1_555
C9 P5 1.812117 1_554
C10 H28 1.096573 1_555
C10 H27 1.098129 1_555
C10 H32 1.101795 1_555
C10 P6 1.812117 1_555
C11 H33 1.094592 1_555
C11 H31 1.099114 1_555
C11 H35 1.101138 1_555
C11 P1 1.809208 1_555
Br0 P7 2.483022 1_555
Br1 P0 2.283776 1_555
Br2 P0 2.670800 1_455
Br3 P3 2.483022 1_555
Br4 P4 2.670800 1_555
Br5 P3 2.283776 1_555
Br6 P4 2.283776 1_555
Br7 P3 2.670800 1_555
Br8 P4 2.483022 1_555
Br9 P7 2.670800 1_655
Br10 P7 2.283776 1_555
Br11 P0 2.483022 1_555
