# generated using pymatgen
data_Ho2P4O13
_symmetry_space_group_name_H-M   'P 1'
_cell_length_a   9.30274311
_cell_length_b   9.30274311
_cell_length_c   8.54942868
_cell_angle_alpha   90.00000000
_cell_angle_beta   90.00000000
_cell_angle_gamma   135.89218036
_symmetry_Int_Tables_number   1
_chemical_formula_structural   Ho2P4O13
_chemical_formula_sum   'Ho4 P8 O26'
_cell_volume   514.96193529
_cell_formula_units_Z   2
loop_
 _symmetry_equiv_pos_site_id
 _symmetry_equiv_pos_as_xyz
  1  'x, y, z'
loop_
 _atom_site_type_symbol
 _atom_site_label
 _atom_site_symmetry_multiplicity
 _atom_site_fract_x
 _atom_site_fract_y
 _atom_site_fract_z
 _atom_site_occupancy
  Ho  Ho0  1  0.10356581  0.39654977  0.85271831  1
  Ho  Ho1  1  0.60345023  0.89643419  0.64728169  1
  Ho  Ho2  1  0.39654977  0.10356581  0.14728169  1
  Ho  Ho3  1  0.89643419  0.60345023  0.35271831  1
  P  P0  1  0.58071050  0.89956515  0.00112122  1
  P  P1  1  0.10043485  0.41928950  0.49887878  1
  P  P2  1  0.72103057  0.84922123  0.27500366  1
  P  P3  1  0.15077877  0.27896943  0.22499634  1
  P  P4  1  0.27896943  0.15077877  0.77500366  1
  P  P5  1  0.84922123  0.72103057  0.72499634  1
  P  P6  1  0.89956515  0.58071050  -0.00112122  1
  P  P7  1  0.41928950  0.10043485  0.50112122  1
  O  O0  1  0.08823206  0.91176794  0.75000000  1
  O  O1  1  0.06940592  0.77405756  0.09631692  1
  O  O2  1  0.22594244  0.93059408  0.40368308  1
  O  O3  1  0.51540440  0.97200004  0.10678421  1
  O  O4  1  0.02799996  0.48459560  0.39321579  1
  O  O5  1  0.42029083  0.73528666  0.88260601  1
  O  O6  1  0.26471334  0.57970917  0.61739399  1
  O  O7  1  0.17331951  0.40698401  0.10222572  1
  O  O8  1  0.59301599  0.82668049  0.39777428  1
  O  O9  1  0.61848883  0.78643756  0.10753048  1
  O  O10  1  0.21356244  0.38151117  0.39246952  1
  O  O11  1  0.74347624  0.78440289  0.69976192  1
  O  O12  1  0.21559711  0.25652376  0.80023808  1
  O  O13  1  0.78440289  0.74347624  0.30023808  1
  O  O14  1  0.25652376  0.21559711  0.19976192  1
  O  O15  1  0.78643756  0.61848883  0.89246952  1
  O  O16  1  0.38151117  0.21356244  0.60753048  1
  O  O17  1  0.82668049  0.59301599  0.60222572  1
  O  O18  1  0.40698401  0.17331951  0.89777428  1
  O  O19  1  0.73528666  0.42029083  0.11739399  1
  O  O20  1  0.57970917  0.26471334  0.38260601  1
  O  O21  1  0.48459560  0.02799996  0.60678421  1
  O  O22  1  0.97200004  0.51540440  0.89321579  1
  O  O23  1  0.93059408  0.22594244  0.59631692  1
  O  O24  1  0.77405756  0.06940592  0.90368308  1
  O  O25  1  0.91176794  0.08823206  0.25000000  1
loop_
_geom_bond_atom_site_label_1
_geom_bond_atom_site_label_2
_geom_bond_distance
_geom_bond_site_symmetry_2
Ho0 O22 2.187177 1_455
Ho0 O7 2.211414 1_556
Ho0 O12 2.221241 1_555
Ho0 O5 2.311536 1_555
Ho0 O24 2.334783 1_455
Ho0 O6 2.351617 1_555
Ho0 O23 2.499186 1_455
Ho1 O21 2.187177 1_565
Ho1 O8 2.211414 1_555
Ho1 O11 2.221241 1_555
Ho1 O6 2.311536 1_555
Ho1 O23 2.334783 1_565
Ho1 O5 2.351617 1_555
Ho1 O24 2.499186 1_565
Ho2 O3 2.187177 1_545
Ho2 O18 2.211414 1_554
Ho2 O14 2.221241 1_555
Ho2 O19 2.311536 1_555
Ho2 O1 2.334783 1_545
Ho2 O20 2.351617 1_555
Ho2 O2 2.499186 1_545
Ho3 O4 2.187177 1_655
Ho3 O17 2.211414 1_555
Ho3 O13 2.221241 1_555
Ho3 O20 2.311536 1_555
Ho3 O2 2.334783 1_655
Ho3 O19 2.351617 1_555
Ho3 O1 2.499186 1_655
O0 P5 1.572337 1_455
O0 P4 1.572337 1_565
O1 P6 1.531144 1_455
O2 P7 1.531144 1_565
O3 P0 1.492347 1_555
O4 P1 1.492347 1_555
O5 P0 1.521212 1_556
O6 P1 1.521212 1_555
O7 P3 1.485015 1_555
O8 P2 1.485015 1_555
O9 P2 1.581469 1_555
O9 P0 1.609289 1_555
O10 P3 1.581469 1_555
O10 P1 1.609289 1_555
O11 P5 1.481427 1_555
O12 P4 1.481427 1_555
O13 P2 1.481427 1_555
O14 P3 1.481427 1_555
O15 P5 1.581469 1_555
O15 P6 1.609289 1_556
O16 P4 1.581469 1_555
O16 P7 1.609289 1_555
O17 P5 1.485015 1_555
O18 P4 1.485015 1_555
O19 P6 1.521212 1_555
O20 P7 1.521212 1_555
O21 P7 1.492347 1_555
O22 P6 1.492347 1_556
O23 P1 1.531144 1_655
O24 P0 1.531144 1_546
O25 P2 1.572337 1_545
O25 P3 1.572337 1_655
