# generated using pymatgen
data_Li5TiV3O8
_symmetry_space_group_name_H-M   'P 1'
_cell_length_a   8.53999800
_cell_length_b   8.56956600
_cell_length_c   8.73075400
_cell_angle_alpha   90.00000000
_cell_angle_beta   90.00000000
_cell_angle_gamma   90.00000000
_symmetry_Int_Tables_number   1
_chemical_formula_structural   Li5TiV3O8
_chemical_formula_sum   'Li20 Ti4 V12 O32'
_cell_volume   638.95216865
_cell_formula_units_Z   4
loop_
 _symmetry_equiv_pos_site_id
 _symmetry_equiv_pos_as_xyz
  1  'x, y, z'
loop_
 _atom_site_type_symbol
 _atom_site_label
 _atom_site_symmetry_multiplicity
 _atom_site_fract_x
 _atom_site_fract_y
 _atom_site_fract_z
 _atom_site_occupancy
  Li  Li0  1  0.45005500  0.95204200  0.04505200  1
  Li  Li1  1  0.63705300  0.12775200  0.11239300  1
  Li  Li2  1  0.62252700  0.88688000  0.85108200  1
  Li  Li3  1  0.61194300  0.63628700  0.63423500  1
  Li  Li4  1  0.69429900  0.30533000  0.31384500  1
  Li  Li5  1  0.80570100  0.69467000  0.81384500  1
  Li  Li6  1  0.88805700  0.36371300  0.13423500  1
  Li  Li7  1  0.87747300  0.11312000  0.35108200  1
  Li  Li8  1  0.86294700  0.87224800  0.61239300  1
  Li  Li9  1  0.04994500  0.04795800  0.54505200  1
  Li  Li10  1  0.95005500  0.54795800  0.95494800  1
  Li  Li11  1  0.13705300  0.37224800  0.88760700  1
  Li  Li12  1  0.12252700  0.61312000  0.14891800  1
  Li  Li13  1  0.11194300  0.86371300  0.36576500  1
  Li  Li14  1  0.19429900  0.19467000  0.68615500  1
  Li  Li15  1  0.30570100  0.80533000  0.18615500  1
  Li  Li16  1  0.38805700  0.13628700  0.86576500  1
  Li  Li17  1  0.37747300  0.38688000  0.64891800  1
  Li  Li18  1  0.36294700  0.62775200  0.38760700  1
  Li  Li19  1  0.54994500  0.45204200  0.45494800  1
  Ti  Ti0  1  0.62076300  0.87461700  0.37662300  1
  Ti  Ti1  1  0.87923700  0.12538300  0.87662300  1
  Ti  Ti2  1  0.12076300  0.62538300  0.62337700  1
  Ti  Ti3  1  0.37923700  0.37461700  0.12337700  1
  V  V0  1  0.62182900  0.37579100  0.88283800  1
  V  V1  1  0.62415300  0.63054600  0.13132000  1
  V  V2  1  0.87584700  0.36945400  0.63132000  1
  V  V3  1  0.87817100  0.62420900  0.38283800  1
  V  V4  1  0.12182900  0.12420900  0.11716200  1
  V  V5  1  0.12415300  0.86945400  0.86868000  1
  V  V6  1  0.37584700  0.13054600  0.36868000  1
  V  V7  1  0.37817100  0.87579100  0.61716200  1
  V  V8  1  0.62660300  0.12883600  0.62483800  1
  V  V9  1  0.87339700  0.87116400  0.12483800  1
  V  V10  1  0.12660300  0.37116400  0.37516200  1
  V  V11  1  0.37339700  0.62883600  0.87516200  1
  O  O0  1  0.61060800  0.62803800  0.88169700  1
  O  O1  1  0.61320600  0.37690000  0.12830600  1
  O  O2  1  0.62796500  0.11028900  0.38134500  1
  O  O3  1  0.62875700  0.88307500  0.61044200  1
  O  O4  1  0.62415000  0.64339300  0.38266000  1
  O  O5  1  0.62446000  0.36659300  0.63743800  1
  O  O6  1  0.63684500  0.12398000  0.87017500  1
  O  O7  1  0.63204900  0.88082700  0.14429300  1
  O  O8  1  0.86795100  0.11917300  0.64429300  1
  O  O9  1  0.86315500  0.87602000  0.37017500  1
  O  O10  1  0.87554000  0.63340700  0.13743800  1
  O  O11  1  0.87585000  0.35660700  0.88266000  1
  O  O12  1  0.87124300  0.11692500  0.11044200  1
  O  O13  1  0.87203500  0.88971100  0.88134500  1
  O  O14  1  0.88679400  0.62310000  0.62830600  1
  O  O15  1  0.88939200  0.37196200  0.38169700  1
  O  O16  1  0.11320600  0.12310000  0.87169400  1
  O  O17  1  0.11060800  0.87196200  0.11830300  1
  O  O18  1  0.12796500  0.38971100  0.61865500  1
  O  O19  1  0.12875700  0.61692500  0.38955800  1
  O  O20  1  0.12415000  0.85660700  0.61734000  1
  O  O21  1  0.12446000  0.13340700  0.36256200  1
  O  O22  1  0.13684500  0.37602000  0.12982500  1
  O  O23  1  0.13204900  0.61917300  0.85570700  1
  O  O24  1  0.36795100  0.38082700  0.35570700  1
  O  O25  1  0.36315500  0.62398000  0.62982500  1
  O  O26  1  0.37554000  0.86659300  0.86256200  1
  O  O27  1  0.37585000  0.14339300  0.11734000  1
  O  O28  1  0.37124300  0.38307500  0.88955800  1
  O  O29  1  0.37203500  0.61028900  0.11865500  1
  O  O30  1  0.38939200  0.12803800  0.61830300  1
  O  O31  1  0.38679400  0.87690000  0.37169400  1
loop_
_geom_bond_atom_site_label_1
_geom_bond_atom_site_label_2
_geom_bond_distance
_geom_bond_site_symmetry_2
Li0 O26 1.865391 1_554
Li0 O27 1.867844 1_565
Li0 O7 1.881171 1_555
Li1 O12 2.002206 1_555
Li1 O6 2.114994 1_554
Li1 O7 2.134718 1_545
Li1 O1 2.149276 1_555
Li1 O27 2.235114 1_555
Li1 O2 2.354197 1_555
Li2 O6 2.042334 1_565
Li2 O3 2.101895 1_555
Li2 O26 2.118793 1_555
Li2 O13 2.147254 1_555
Li2 O0 2.236528 1_555
Li3 O25 2.127613 1_555
Li3 O3 2.129889 1_555
Li3 O0 2.161716 1_555
Li3 O4 2.199755 1_555
Li3 O5 2.313800 1_555
Li3 O14 2.350516 1_555
Li4 O15 1.858186 1_555
Li4 O2 1.860605 1_555
Li4 O1 1.865430 1_555
Li5 O0 1.858186 1_555
Li5 O13 1.860605 1_555
Li5 O14 1.865430 1_555
Li6 O22 2.127613 1_655
Li6 O12 2.129889 1_555
Li6 O15 2.161716 1_555
Li6 O11 2.199755 1_554
Li6 O10 2.313800 1_555
Li6 O1 2.350516 1_555
Li7 O9 2.042334 1_545
Li7 O12 2.101895 1_555
Li7 O21 2.118793 1_655
Li7 O2 2.147254 1_555
Li7 O15 2.236528 1_555
Li8 O3 2.002206 1_555
Li8 O9 2.114994 1_555
Li8 O8 2.134718 1_565
Li8 O14 2.149276 1_555
Li8 O20 2.235114 1_655
Li8 O13 2.354197 1_555
Li9 O21 1.865391 1_555
Li9 O20 1.867844 1_545
Li9 O8 1.881171 1_455
Li10 O10 1.865391 1_556
Li10 O11 1.867844 1_555
Li10 O23 1.881171 1_655
Li11 O28 2.002206 1_555
Li11 O22 2.114994 1_556
Li11 O23 2.134718 1_555
Li11 O16 2.149276 1_555
Li11 O11 2.235114 1_455
Li11 O18 2.354197 1_555
Li12 O22 2.042334 1_555
Li12 O19 2.101895 1_555
Li12 O10 2.118793 1_455
Li12 O29 2.147254 1_555
Li12 O17 2.236528 1_555
Li13 O9 2.127613 1_455
Li13 O19 2.129889 1_555
Li13 O17 2.161716 1_555
Li13 O20 2.199755 1_555
Li13 O21 2.313800 1_565
Li13 O31 2.350516 1_555
Li14 O30 1.858186 1_555
Li14 O18 1.860605 1_555
Li14 O16 1.865430 1_555
Li15 O17 1.858186 1_555
Li15 O29 1.860605 1_555
Li15 O31 1.865430 1_555
Li16 O6 2.127613 1_555
Li16 O28 2.129889 1_555
Li16 O30 2.161716 1_555
Li16 O27 2.199755 1_556
Li16 O26 2.313800 1_545
Li16 O16 2.350516 1_555
Li17 O25 2.042334 1_555
Li17 O28 2.101895 1_555
Li17 O5 2.118793 1_555
Li17 O18 2.147254 1_555
Li17 O30 2.236528 1_555
Li18 O19 2.002206 1_555
Li18 O25 2.114994 1_555
Li18 O24 2.134718 1_555
Li18 O31 2.149276 1_555
Li18 O4 2.235114 1_555
Li18 O29 2.354197 1_555
Li19 O5 1.865391 1_555
Li19 O4 1.867844 1_555
Li19 O24 1.881171 1_555
O0 V11 2.026596 1_555
O0 V0 2.163793 1_555
O0 V1 2.182570 1_556
O1 Ti3 1.998654 1_555
O1 V0 2.144407 1_554
O1 V1 2.175805 1_555
O2 Ti0 2.020964 1_545
O2 V8 2.131842 1_555
O2 V6 2.162902 1_555
O3 Ti0 2.043843 1_555
O3 V8 2.109892 1_565
O3 V7 2.141718 1_555
O4 Ti0 1.982401 1_555
O4 V3 2.175560 1_555
O4 V1 2.197148 1_555
O5 V8 2.040524 1_555
O5 V0 2.144094 1_555
O5 V2 2.147649 1_555
O6 Ti1 2.070827 1_555
O6 V8 2.144166 1_555
O6 V0 2.164543 1_555
O7 Ti0 2.031402 1_555
O7 V9 2.069756 1_555
O7 V1 2.148846 1_555
O8 Ti1 2.031402 1_555
O8 V8 2.069756 1_555
O8 V2 2.148846 1_555
O9 Ti0 2.070827 1_555
O9 V9 2.144166 1_555
O9 V3 2.164543 1_555
O10 V9 2.040524 1_555
O10 V3 2.144094 1_555
O10 V1 2.147649 1_555
O11 Ti1 1.982401 1_555
O11 V0 2.175560 1_555
O11 V2 2.197148 1_555
O12 Ti1 2.043843 1_554
O12 V9 2.109892 1_545
O12 V4 2.141718 1_655
O13 Ti1 2.020964 1_565
O13 V9 2.131842 1_556
O13 V5 2.162902 1_655
O14 Ti2 1.998654 1_655
O14 V3 2.144407 1_555
O14 V2 2.175805 1_555
O15 V10 2.026596 1_655
O15 V3 2.163793 1_555
O15 V2 2.182570 1_555
O16 Ti1 1.998654 1_455
O16 V4 2.144407 1_556
O16 V5 2.175805 1_545
O17 V9 2.026596 1_455
O17 V4 2.163793 1_565
O17 V5 2.182570 1_554
O18 Ti2 2.020964 1_555
O18 V10 2.131842 1_555
O18 V2 2.162902 1_455
O19 Ti2 2.043843 1_555
O19 V10 2.109892 1_555
O19 V3 2.141718 1_455
O20 Ti2 1.982401 1_555
O20 V7 2.175560 1_555
O20 V5 2.197148 1_555
O21 V10 2.040524 1_555
O21 V4 2.144094 1_555
O21 V6 2.147649 1_555
O22 Ti3 2.070827 1_555
O22 V10 2.144166 1_555
O22 V4 2.164543 1_555
O23 Ti2 2.031402 1_555
O23 V11 2.069756 1_555
O23 V5 2.148846 1_555
O24 Ti3 2.031402 1_555
O24 V10 2.069756 1_555
O24 V6 2.148846 1_555
O25 Ti2 2.070827 1_555
O25 V11 2.144166 1_555
O25 V7 2.164543 1_555
O26 V11 2.040524 1_555
O26 V7 2.144094 1_555
O26 V5 2.147649 1_555
O27 Ti3 1.982401 1_555
O27 V4 2.175560 1_555
O27 V6 2.197148 1_555
O28 Ti3 2.043843 1_556
O28 V11 2.109892 1_555
O28 V0 2.141718 1_555
O29 Ti3 2.020964 1_555
O29 V11 2.131842 1_554
O29 V1 2.162902 1_555
O30 V8 2.026596 1_555
O30 V7 2.163793 1_545
O30 V6 2.182570 1_555
O31 Ti0 1.998654 1_555
O31 V7 2.144407 1_555
O31 V6 2.175805 1_565
