# generated using pymatgen
data_La2Si2O7
_symmetry_space_group_name_H-M   'P 1'
_cell_length_a   8.59356500
_cell_length_b   6.53473400
_cell_length_c   15.74548018
_cell_angle_alpha   89.12473366
_cell_angle_beta   90.00000000
_cell_angle_gamma   90.00000000
_symmetry_Int_Tables_number   1
_chemical_formula_structural   La2Si2O7
_chemical_formula_sum   'La8 Si8 O28'
_cell_volume   884.11042894
_cell_formula_units_Z   4
loop_
 _symmetry_equiv_pos_site_id
 _symmetry_equiv_pos_as_xyz
  1  'x, y, z'
loop_
 _atom_site_type_symbol
 _atom_site_label
 _atom_site_symmetry_multiplicity
 _atom_site_fract_x
 _atom_site_fract_y
 _atom_site_fract_z
 _atom_site_occupancy
  La  La0  1  0.59923800  0.82131000  0.58442900  1
  La  La1  1  0.09923800  0.17869000  0.91557100  1
  La  La2  1  0.72293600  0.42581000  0.27552800  1
  La  La3  1  0.22293600  0.57419000  0.22447200  1
  La  La4  1  0.27706400  0.57419000  0.72447200  1
  La  La5  1  0.77706400  0.42581000  0.77552800  1
  La  La6  1  0.90076200  0.82131000  0.08442900  1
  La  La7  1  0.40076200  0.17869000  0.41557100  1
  Si  Si0  1  0.95019400  0.34162600  0.12170000  1
  Si  Si1  1  0.51199900  0.90021100  0.19886500  1
  Si  Si2  1  0.54980600  0.34162600  0.62170000  1
  Si  Si3  1  0.45019400  0.65837400  0.37830000  1
  Si  Si4  1  0.98800100  0.90021100  0.69886500  1
  Si  Si5  1  0.04980600  0.65837400  0.87830000  1
  Si  Si6  1  0.01199900  0.09978900  0.30113500  1
  Si  Si7  1  0.48800100  0.09978900  0.80113500  1
  O  O0  1  0.42408600  0.53474900  0.59878700  1
  O  O1  1  0.45690700  0.26300200  0.71905300  1
  O  O2  1  0.01390200  0.87747800  0.23784000  1
  O  O3  1  0.51390200  0.12252200  0.26216000  1
  O  O4  1  0.65841700  0.89287300  0.13621900  1
  O  O5  1  0.92408600  0.46525100  0.90121300  1
  O  O6  1  0.55266700  0.67872900  0.76758000  1
  O  O7  1  0.34158300  0.10712700  0.86378100  1
  O  O8  1  0.34206800  0.85033500  0.16186600  1
  O  O9  1  0.44733300  0.32127100  0.23242000  1
  O  O10  1  0.05266700  0.32127100  0.73242000  1
  O  O11  1  0.84158300  0.89287300  0.63621900  1
  O  O12  1  0.50242100  0.15154300  0.55771400  1
  O  O13  1  0.00242100  0.84845700  0.94228600  1
  O  O14  1  0.99757900  0.15154300  0.05771400  1
  O  O15  1  0.07591400  0.53474900  0.09878700  1
  O  O16  1  0.94733300  0.67872900  0.26758000  1
  O  O17  1  0.04309300  0.26300200  0.21905300  1
  O  O18  1  0.48609800  0.87747800  0.73784000  1
  O  O19  1  0.49757900  0.84845700  0.44228600  1
  O  O20  1  0.57591400  0.46525100  0.40121300  1
  O  O21  1  0.15841700  0.10712700  0.36378100  1
  O  O22  1  0.65793200  0.14966500  0.83813400  1
  O  O23  1  0.84206800  0.14966500  0.33813400  1
  O  O24  1  0.98609800  0.12252200  0.76216000  1
  O  O25  1  0.54309300  0.73699800  0.28094700  1
  O  O26  1  0.15793200  0.85033500  0.66186600  1
  O  O27  1  0.95690700  0.73699800  0.78094700  1
loop_
_geom_bond_atom_site_label_1
_geom_bond_atom_site_label_2
_geom_bond_distance
_geom_bond_site_symmetry_2
La0 O11 2.287481 1_555
La0 O12 2.344853 1_565
La0 O19 2.406590 1_555
La0 O0 2.410472 1_555
La0 O18 2.634751 1_555
La1 O7 2.287481 1_555
La1 O13 2.344853 1_545
La1 O14 2.406590 1_456
La1 O5 2.410472 1_455
La1 O24 2.634751 1_455
La2 O23 2.285131 1_555
La2 O20 2.365296 1_555
La2 O16 2.541567 1_555
La2 O25 2.556634 1_555
La2 O9 2.559478 1_555
La2 O3 2.685492 1_555
La2 O17 3.085631 1_655
La2 Si0 3.166058 1_555
La3 O8 2.285131 1_555
La3 O15 2.365296 1_555
La3 O9 2.541567 1_555
La3 O17 2.556634 1_555
La3 O16 2.559478 1_455
La3 O2 2.685492 1_555
La3 O25 3.085631 1_555
La3 Si3 3.166058 1_555
La4 O26 2.285131 1_555
La4 O0 2.365296 1_555
La4 O10 2.541567 1_555
La4 O1 2.556634 1_555
La4 O6 2.559478 1_555
La4 O18 2.685492 1_555
La4 O27 3.085631 1_455
La4 Si5 3.166058 1_555
La5 O22 2.285131 1_555
La5 O5 2.365296 1_555
La5 O6 2.541567 1_555
La5 O27 2.556634 1_555
La5 O10 2.559478 1_655
La5 O24 2.685492 1_555
La5 O1 3.085631 1_555
La5 Si2 3.166058 1_555
La6 O4 2.287481 1_555
La6 O14 2.344853 1_565
La6 O13 2.406590 1_654
La6 O15 2.410472 1_655
La6 O2 2.634751 1_655
La7 O21 2.287481 1_555
La7 O19 2.344853 1_545
La7 O12 2.406590 1_555
La7 O20 2.410472 1_555
La7 O3 2.634751 1_555
O0 Si2 1.695918 1_555
O1 Si7 1.684391 1_555
O1 Si2 1.796369 1_555
O2 Si6 1.774315 1_565
O3 O9 1.488208 1_555
O3 Si1 1.774315 1_545
O4 Si1 1.599972 1_555
O5 Si5 1.695918 1_655
O7 Si7 1.599972 1_555
O8 Si1 1.607460 1_555
O10 O24 1.488208 1_455
O11 Si4 1.599972 1_555
O12 Si2 1.661928 1_555
O13 Si5 1.661928 1_555
O14 Si0 1.661928 1_555
O15 Si0 1.695918 1_455
O16 O2 1.488208 1_655
O17 Si6 1.684391 1_555
O17 Si0 1.796369 1_455
O18 O6 1.488208 1_555
O18 Si7 1.774315 1_565
O19 Si3 1.661928 1_555
O20 Si3 1.695918 1_555
O21 Si6 1.599972 1_555
O22 Si7 1.607460 1_555
O23 Si6 1.607460 1_655
O24 Si4 1.774315 1_545
O25 Si1 1.684391 1_555
O25 Si3 1.796369 1_555
O26 Si4 1.607460 1_455
O27 Si4 1.684391 1_555
O27 Si5 1.796369 1_655
