# generated using pymatgen
data_SrLa2Cl8
_symmetry_space_group_name_H-M   'P 1'
_cell_length_a   7.70469548
_cell_length_b   7.70469548
_cell_length_c   5.53791066
_cell_angle_alpha   81.82212130
_cell_angle_beta   81.82212130
_cell_angle_gamma   111.10367578
_symmetry_Int_Tables_number   1
_chemical_formula_structural   SrLa2Cl8
_chemical_formula_sum   'Sr1 La2 Cl8'
_cell_volume   296.83899818
_cell_formula_units_Z   1
loop_
 _symmetry_equiv_pos_site_id
 _symmetry_equiv_pos_as_xyz
  1  'x, y, z'
loop_
 _atom_site_type_symbol
 _atom_site_label
 _atom_site_symmetry_multiplicity
 _atom_site_fract_x
 _atom_site_fract_y
 _atom_site_fract_z
 _atom_site_occupancy
  Sr  Sr0  1  0.00000000  0.00000000  0.00000000  1
  La  La0  1  0.31797300  0.68202700  0.50000000  1
  La  La1  1  0.68202700  0.31797300  0.50000000  1
  Cl  Cl0  1  0.67786100  0.93838000  0.57805600  1
  Cl  Cl1  1  0.93838000  0.67786100  0.57805600  1
  Cl  Cl2  1  0.62920400  0.62920400  0.18813200  1
  Cl  Cl3  1  0.76150100  0.23849900  0.00000000  1
  Cl  Cl4  1  0.23849900  0.76150100  0.00000000  1
  Cl  Cl5  1  0.37079600  0.37079600  0.81186800  1
  Cl  Cl6  1  0.32213900  0.06162000  0.42194400  1
  Cl  Cl7  1  0.06162000  0.32213900  0.42194400  1
loop_
_geom_bond_atom_site_label_1
_geom_bond_atom_site_label_2
_geom_bond_distance
_geom_bond_site_symmetry_2
Cl0 La1 2.882749 1_565
Cl0 La0 2.901137 1_555
Cl1 La0 2.882749 1_655
Cl1 La1 2.901137 1_555
Cl2 La0 2.936519 1_555
Cl2 La1 2.936519 1_555
Cl2 Sr0 3.136553 1_665
Cl3 La1 2.947370 1_555
Cl3 La1 2.947370 1_554
Cl3 Sr0 3.030648 1_655
Cl4 La0 2.947370 1_555
Cl4 La0 2.947370 1_554
Cl4 Sr0 3.030648 1_565
Cl5 La0 2.936519 1_555
Cl5 La1 2.936519 1_555
Cl5 Sr0 3.136553 1_556
Cl6 La0 2.882749 1_545
Cl6 La1 2.901137 1_555
Cl7 La1 2.882749 1_455
Cl7 La0 2.901137 1_555
