# generated using pymatgen
data_LiSi2NiO6
_symmetry_space_group_name_H-M   'P 1'
_cell_length_a   5.34327700
_cell_length_b   12.32280669
_cell_length_c   9.30561000
_cell_angle_alpha   67.81633998
_cell_angle_beta   90.00000000
_cell_angle_gamma   77.47859434
_symmetry_Int_Tables_number   1
_chemical_formula_structural   LiSi2NiO6
_chemical_formula_sum   'Li4 Si8 Ni4 O24'
_cell_volume   551.59507525
_cell_formula_units_Z   4
loop_
 _symmetry_equiv_pos_site_id
 _symmetry_equiv_pos_as_xyz
  1  'x, y, z'
loop_
 _atom_site_type_symbol
 _atom_site_label
 _atom_site_symmetry_multiplicity
 _atom_site_fract_x
 _atom_site_fract_y
 _atom_site_fract_z
 _atom_site_occupancy
  Li  Li0  1  0.12500000  0.75000000  0.62500000  1
  Li  Li1  1  0.87500000  0.25000000  0.37500000  1
  Li  Li2  1  0.62500000  0.75000000  0.12500000  1
  Li  Li3  1  0.37500000  0.25000000  0.87500000  1
  Si  Si0  1  0.95848200  0.58303600  0.45848200  1
  Si  Si1  1  0.70848200  0.08303600  0.20848200  1
  Si  Si2  1  0.45848200  0.58303600  0.95848200  1
  Si  Si3  1  0.20848200  0.08303600  0.70848200  1
  Si  Si4  1  0.29151800  0.91696400  0.29151800  1
  Si  Si5  1  0.04151800  0.41696400  0.04151800  1
  Si  Si6  1  0.79151800  0.91696400  0.79151800  1
  Si  Si7  1  0.54151800  0.41696400  0.54151800  1
  Ni  Ni0  1  0.37500000  0.25000000  0.37500000  1
  Ni  Ni1  1  0.12500000  0.75000000  0.12500000  1
  Ni  Ni2  1  0.62500000  0.75000000  0.62500000  1
  Ni  Ni3  1  0.87500000  0.25000000  0.87500000  1
  O  O0  1  0.75000000  0.50000000  0.48708500  1
  O  O1  1  0.50000000  0.00000000  0.23708500  1
  O  O2  1  0.25000000  0.50000000  0.98708500  1
  O  O3  1  0.00000000  0.00000000  0.73708500  1
  O  O4  1  0.25000000  0.50000000  0.51291500  1
  O  O5  1  0.00000000  0.00000000  0.26291500  1
  O  O6  1  0.75000000  0.50000000  0.01291500  1
  O  O7  1  0.50000000  0.00000000  0.76291500  1
  O  O8  1  0.90271800  0.66641600  0.56137900  1
  O  O9  1  0.65271800  0.16641600  0.31137900  1
  O  O10  1  0.40271800  0.66641600  0.06137900  1
  O  O11  1  0.15271800  0.16641600  0.81137900  1
  O  O12  1  0.34728200  0.83358400  0.47779500  1
  O  O13  1  0.09728200  0.33358400  0.22779500  1
  O  O14  1  0.84728200  0.83358400  0.97779500  1
  O  O15  1  0.59728200  0.33358400  0.72779500  1
  O  O16  1  0.31913400  0.83358400  0.18862100  1
  O  O17  1  0.06913400  0.33358400  0.93862100  1
  O  O18  1  0.81913400  0.83358400  0.68862100  1
  O  O19  1  0.56913400  0.33358400  0.43862100  1
  O  O20  1  0.93086600  0.66641600  0.27220500  1
  O  O21  1  0.68086600  0.16641600  0.02220500  1
  O  O22  1  0.43086600  0.66641600  0.77220500  1
  O  O23  1  0.18086600  0.16641600  0.52220500  1
loop_
_geom_bond_atom_site_label_1
_geom_bond_atom_site_label_2
_geom_bond_distance
_geom_bond_site_symmetry_2
Li0 O12 1.952684 1_555
Li0 O8 1.952684 1_455
Li0 O18 1.952684 1_455
Li0 O22 1.952684 1_555
Li1 O9 1.952684 1_555
Li1 O13 1.952684 1_655
Li1 O19 1.952684 1_555
Li1 O23 1.952684 1_655
Li2 O10 1.952684 1_555
Li2 O14 1.952684 1_554
Li2 O20 1.952684 1_555
Li2 O16 1.952684 1_555
Li3 O11 1.952684 1_555
Li3 O15 1.952684 1_555
Li3 O21 1.952684 1_556
Li3 O17 1.952684 1_555
Ni0 O23 1.846931 1_555
Ni0 O19 1.846931 1_555
Ni0 O9 1.846931 1_555
Ni0 O13 1.846931 1_555
Ni1 O16 1.846931 1_555
Ni1 O20 1.846931 1_455
Ni1 O10 1.846931 1_555
Ni1 O14 1.846931 1_454
Ni2 O22 1.846931 1_555
Ni2 O18 1.846931 1_555
Ni2 O12 1.846931 1_555
Ni2 O8 1.846931 1_555
Ni3 O21 1.846931 1_556
Ni3 O17 1.846931 1_655
Ni3 O11 1.846931 1_655
Ni3 O15 1.846931 1_555
O0 Si0 1.627080 1_555
O0 Si7 1.627080 1_555
O1 Si1 1.627080 1_555
O1 Si4 1.627080 1_545
O2 Si2 1.627080 1_555
O2 Si5 1.627080 1_556
O3 Si6 1.627080 1_445
O3 Si3 1.627080 1_555
O4 Si7 1.627080 1_555
O4 Si0 1.627080 1_455
O5 Si4 1.627080 1_545
O5 Si1 1.627080 1_455
O6 Si5 1.627080 1_655
O6 Si2 1.627080 1_554
O7 Si3 1.627080 1_555
O7 Si6 1.627080 1_545
O8 Si0 1.634479 1_555
O9 Si1 1.634479 1_555
O10 Si2 1.634479 1_554
O11 Si3 1.634479 1_555
O12 Si4 1.634479 1_555
O13 Si5 1.634479 1_555
O14 Si6 1.634479 1_555
O15 Si7 1.634479 1_555
O16 Si4 1.634479 1_555
O17 Si5 1.634479 1_556
O18 Si6 1.634479 1_555
O19 Si7 1.634479 1_555
O20 Si0 1.634479 1_555
O21 Si1 1.634479 1_555
O22 Si2 1.634479 1_555
O23 Si3 1.634479 1_555
