# generated using pymatgen
data_Li2FeSi4O11
_symmetry_space_group_name_H-M   'P 1'
_cell_length_a   7.27665262
_cell_length_b   7.27665262
_cell_length_c   8.29326310
_cell_angle_alpha   81.00156136
_cell_angle_beta   81.00156136
_cell_angle_gamma   83.40195731
_symmetry_Int_Tables_number   1
_chemical_formula_structural   Li2FeSi4O11
_chemical_formula_sum   'Li4 Fe2 Si8 O22'
_cell_volume   426.53820781
_cell_formula_units_Z   2
loop_
 _symmetry_equiv_pos_site_id
 _symmetry_equiv_pos_as_xyz
  1  'x, y, z'
loop_
 _atom_site_type_symbol
 _atom_site_label
 _atom_site_symmetry_multiplicity
 _atom_site_fract_x
 _atom_site_fract_y
 _atom_site_fract_z
 _atom_site_occupancy
  Li  Li0  1  0.91964100  0.08035900  0.75000000  1
  Li  Li1  1  0.64870300  0.35129700  0.75000000  1
  Li  Li2  1  0.35129700  0.64870300  0.25000000  1
  Li  Li3  1  0.08035900  0.91964100  0.25000000  1
  Fe  Fe0  1  0.00000000  0.50000000  0.50000000  1
  Fe  Fe1  1  0.50000000  0.00000000  0.00000000  1
  Si  Si0  1  0.65778100  0.78120100  0.65854600  1
  Si  Si1  1  0.78120100  0.65778100  0.15854600  1
  Si  Si2  1  0.25291700  0.84191600  0.56498200  1
  Si  Si3  1  0.15808400  0.74708300  0.93501800  1
  Si  Si4  1  0.84191600  0.25291700  0.06498200  1
  Si  Si5  1  0.74708300  0.15808400  0.43501800  1
  Si  Si6  1  0.21879900  0.34221900  0.84145400  1
  Si  Si7  1  0.34221900  0.21879900  0.34145400  1
  O  O0  1  0.75784300  0.94255800  0.52557800  1
  O  O1  1  0.62172600  0.84791600  0.83888600  1
  O  O2  1  0.94255800  0.75784300  0.02557800  1
  O  O3  1  0.84791600  0.62172600  0.33888600  1
  O  O4  1  0.79429300  0.58790700  0.67568500  1
  O  O5  1  0.58790700  0.79429300  0.17568500  1
  O  O6  1  0.46294700  0.75028300  0.59243700  1
  O  O7  1  0.83993500  0.26986100  0.55089700  1
  O  O8  1  0.75028300  0.46294700  0.09243700  1
  O  O9  1  0.13385800  0.86614200  0.75000000  1
  O  O10  1  0.73013900  0.16006500  0.94910300  1
  O  O11  1  0.26986100  0.83993500  0.05089700  1
  O  O12  1  0.86614200  0.13385800  0.25000000  1
  O  O13  1  0.24971700  0.53705300  0.90756300  1
  O  O14  1  0.16006500  0.73013900  0.44910300  1
  O  O15  1  0.53705300  0.24971700  0.40756300  1
  O  O16  1  0.41209300  0.20570700  0.82431500  1
  O  O17  1  0.20570700  0.41209300  0.32431500  1
  O  O18  1  0.15208400  0.37827400  0.66111400  1
  O  O19  1  0.05744200  0.24215700  0.97442200  1
  O  O20  1  0.37827400  0.15208400  0.16111400  1
  O  O21  1  0.24215700  0.05744200  0.47442200  1
loop_
_geom_bond_atom_site_label_1
_geom_bond_atom_site_label_2
_geom_bond_distance
_geom_bond_site_symmetry_2
Li0 O9 2.073939 1_645
Li0 O10 2.089953 1_555
Li0 O7 2.089953 1_555
Li1 O4 2.085552 1_555
Li1 O16 2.085552 1_555
Li1 O7 2.100438 1_555
Li1 O10 2.100438 1_555
Li2 O5 2.085552 1_555
Li2 O17 2.085552 1_555
Li2 O14 2.100438 1_555
Li2 O11 2.100438 1_555
Li3 O12 2.073939 1_465
Li3 O14 2.089953 1_555
Li3 O11 2.089953 1_555
Fe0 O3 1.913547 1_455
Fe0 O18 1.913547 1_555
Fe0 O4 2.040072 1_455
Fe0 O17 2.040072 1_555
Fe0 O7 2.100604 1_455
Fe0 O14 2.100604 1_555
Fe1 O1 1.913547 1_544
Fe1 O20 1.913547 1_555
Fe1 O16 2.040072 1_554
Fe1 O5 2.040072 1_545
Fe1 O11 2.100604 1_545
Fe1 O10 2.100604 1_554
O0 Si5 1.628343 1_565
O0 Si0 1.632502 1_555
O1 Si0 1.617546 1_555
O2 Si3 1.628343 1_654
O2 Si1 1.632502 1_555
O3 Si1 1.617546 1_555
O4 Si0 1.626601 1_555
O5 Si1 1.626601 1_555
O6 Si2 1.630757 1_555
O6 Si0 1.648096 1_555
O7 Si5 1.617260 1_555
O8 Si4 1.630757 1_555
O8 Si1 1.648096 1_555
O9 Si3 1.664246 1_555
O9 Si2 1.664246 1_555
O10 Si4 1.617260 1_556
O11 Si3 1.617260 1_554
O12 Si5 1.664246 1_555
O12 Si4 1.664246 1_555
O13 Si3 1.630757 1_555
O13 Si6 1.648096 1_555
O14 Si2 1.617260 1_555
O15 Si5 1.630757 1_555
O15 Si7 1.648096 1_555
O16 Si6 1.626601 1_555
O17 Si7 1.626601 1_555
O18 Si6 1.617546 1_555
O19 Si4 1.628343 1_456
O19 Si6 1.632502 1_555
O20 Si7 1.617546 1_555
O21 Si2 1.628343 1_545
O21 Si7 1.632502 1_555
