# generated using pymatgen
data_KAsOF5
_symmetry_space_group_name_H-M   'P 1'
_cell_length_a   9.51234400
_cell_length_b   9.52013100
_cell_length_c   11.39733000
_cell_angle_alpha   90.00000000
_cell_angle_beta   90.00000000
_cell_angle_gamma   90.00000000
_symmetry_Int_Tables_number   1
_chemical_formula_structural   KAsOF5
_chemical_formula_sum   'K8 As8 O8 F40'
_cell_volume   1032.12808347
_cell_formula_units_Z   8
loop_
 _symmetry_equiv_pos_site_id
 _symmetry_equiv_pos_as_xyz
  1  'x, y, z'
loop_
 _atom_site_type_symbol
 _atom_site_label
 _atom_site_symmetry_multiplicity
 _atom_site_fract_x
 _atom_site_fract_y
 _atom_site_fract_z
 _atom_site_occupancy
  K  K0  1  0.00132700  0.23398500  0.66695600  1
  K  K1  1  0.49867300  0.26601500  0.16695600  1
  K  K2  1  0.50132700  0.76601500  0.33304400  1
  K  K3  1  0.99867300  0.73398500  0.83304400  1
  K  K4  1  0.99867300  0.76601500  0.33304400  1
  K  K5  1  0.50132700  0.73398500  0.83304400  1
  K  K6  1  0.49867300  0.23398500  0.66695600  1
  K  K7  1  0.00132700  0.26601500  0.16695600  1
  As  As0  1  0.25000000  0.06413900  0.90342600  1
  As  As1  1  0.25000000  0.43586100  0.40342600  1
  As  As2  1  0.75000000  0.93586100  0.09657400  1
  As  As3  1  0.75000000  0.56413900  0.59657400  1
  As  As4  1  0.25000000  0.41112700  0.89979000  1
  As  As5  1  0.25000000  0.08887300  0.39979000  1
  As  As6  1  0.75000000  0.58887300  0.10021000  1
  As  As7  1  0.75000000  0.91112700  0.60021000  1
  O  O0  1  0.25000000  0.23618600  0.83712500  1
  O  O1  1  0.25000000  0.26381400  0.33712500  1
  O  O2  1  0.75000000  0.76381400  0.16287500  1
  O  O3  1  0.75000000  0.73618600  0.66287500  1
  O  O4  1  0.25000000  0.75358200  0.66986100  1
  O  O5  1  0.25000000  0.74641800  0.16986100  1
  O  O6  1  0.75000000  0.24641800  0.33013900  1
  O  O7  1  0.75000000  0.25358200  0.83013900  1
  F  F0  1  0.25000000  0.88509500  0.95112000  1
  F  F1  1  0.25000000  0.61490500  0.45112000  1
  F  F2  1  0.75000000  0.11490500  0.04888000  1
  F  F3  1  0.75000000  0.38509500  0.54888000  1
  F  F4  1  0.25000000  0.36186100  0.05110500  1
  F  F5  1  0.25000000  0.13813900  0.55110500  1
  F  F6  1  0.75000000  0.63813900  0.94889500  1
  F  F7  1  0.75000000  0.86186100  0.44889500  1
  F  F8  1  0.11629500  0.01388800  0.80042600  1
  F  F9  1  0.38370500  0.48611200  0.30042600  1
  F  F10  1  0.61629500  0.98611200  0.19957400  1
  F  F11  1  0.88370500  0.51388800  0.69957400  1
  F  F12  1  0.88370500  0.98611200  0.19957400  1
  F  F13  1  0.61629500  0.51388800  0.69957400  1
  F  F14  1  0.38370500  0.01388800  0.80042600  1
  F  F15  1  0.11629500  0.48611200  0.30042600  1
  F  F16  1  0.11727000  0.10253000  0.00785900  1
  F  F17  1  0.38273000  0.39747000  0.50785900  1
  F  F18  1  0.61727000  0.89747000  0.99214100  1
  F  F19  1  0.88273000  0.60253000  0.49214100  1
  F  F20  1  0.88273000  0.89747000  0.99214100  1
  F  F21  1  0.61727000  0.60253000  0.49214100  1
  F  F22  1  0.38273000  0.10253000  0.00785900  1
  F  F23  1  0.11727000  0.39747000  0.50785900  1
  F  F24  1  0.06255300  0.41459800  0.90235300  1
  F  F25  1  0.43744700  0.08540200  0.40235300  1
  F  F26  1  0.56255300  0.58540200  0.09764700  1
  F  F27  1  0.93744700  0.91459800  0.59764700  1
  F  F28  1  0.93744700  0.58540200  0.09764700  1
  F  F29  1  0.56255300  0.91459800  0.59764700  1
  F  F30  1  0.43744700  0.41459800  0.90235300  1
  F  F31  1  0.06255300  0.08540200  0.40235300  1
  F  F32  1  0.25000000  0.47386300  0.75207600  1
  F  F33  1  0.25000000  0.02613700  0.25207600  1
  F  F34  1  0.75000000  0.52613700  0.24792400  1
  F  F35  1  0.75000000  0.97386300  0.74792400  1
  F  F36  1  0.25000000  0.59167100  0.94390700  1
  F  F37  1  0.25000000  0.90832900  0.44390700  1
  F  F38  1  0.75000000  0.40832900  0.05609300  1
  F  F39  1  0.75000000  0.09167100  0.55609300  1
loop_
_geom_bond_atom_site_label_1
_geom_bond_atom_site_label_2
_geom_bond_distance
_geom_bond_site_symmetry_2
K0 O7 3.034689 1_455
K0 O0 3.058988 1_555
K1 O6 3.034689 1_555
K1 O1 3.058988 1_555
K2 O5 3.034689 1_555
K2 O2 3.058988 1_555
K3 O4 3.034689 1_655
K3 O3 3.058988 1_555
K4 O5 3.034689 1_655
K4 O2 3.058988 1_555
K5 O4 3.034689 1_555
K5 O3 3.058988 1_555
K6 O7 3.034689 1_555
K6 O0 3.058988 1_555
K7 O6 3.034689 1_455
K7 O1 3.058988 1_555
As0 F16 1.773241 1_556
As0 F22 1.773241 1_556
As0 F0 1.789100 1_545
As0 F14 1.795706 1_555
As0 F8 1.795706 1_555
As0 O0 1.803819 1_555
As1 F23 1.773241 1_555
As1 F17 1.773241 1_555
As1 F1 1.789100 1_555
As1 F9 1.795706 1_555
As1 F15 1.795706 1_555
As1 O1 1.803819 1_555
As2 F18 1.773241 1_554
As2 F20 1.773241 1_554
As2 F2 1.789100 1_565
As2 F12 1.795706 1_555
As2 F10 1.795706 1_555
As2 O2 1.803819 1_555
As3 F21 1.773241 1_555
As3 F19 1.773241 1_555
As3 F3 1.789100 1_555
As3 F11 1.795706 1_555
As3 F13 1.795706 1_555
As3 O3 1.803819 1_555
As4 F30 1.783606 1_555
As4 F24 1.783606 1_555
As4 F32 1.786348 1_555
As4 F4 1.787227 1_556
As4 F36 1.790839 1_555
As4 O0 1.812143 1_555
As5 F25 1.783606 1_555
As5 F31 1.783606 1_555
As5 F33 1.786348 1_555
As5 F5 1.787227 1_555
As5 F37 1.790839 1_545
As5 O1 1.812143 1_555
As6 F28 1.783606 1_555
As6 F26 1.783606 1_555
As6 F34 1.786348 1_555
As6 F6 1.787227 1_554
As6 F38 1.790839 1_555
As6 O2 1.812143 1_555
As7 F27 1.783606 1_555
As7 F29 1.783606 1_555
As7 F35 1.786348 1_555
As7 F7 1.787227 1_555
As7 F39 1.790839 1_565
As7 O3 1.812143 1_555
F0 K5 3.097752 1_555
F0 K3 3.097752 1_455
F1 K2 3.097752 1_555
F1 K4 3.097752 1_455
F2 K7 3.097752 1_655
F2 K1 3.097752 1_555
F3 K0 3.097752 1_655
F3 K6 3.097752 1_555
F4 K1 2.858574 1_555
F4 K7 2.858574 1_555
F5 K6 2.858574 1_555
F5 K0 2.858574 1_555
F6 K3 2.858574 1_555
F6 K5 2.858574 1_555
F7 K4 2.858574 1_555
F7 K2 2.858574 1_555
F8 K0 2.810792 1_555
F8 K3 2.913889 1_445
F9 K1 2.810792 1_555
F9 K2 2.913889 1_555
F10 K2 2.810792 1_555
F10 K1 2.913889 1_565
F11 K3 2.810792 1_555
F11 K0 2.913889 1_655
F12 K4 2.810792 1_555
F12 K7 2.913889 1_665
F13 K5 2.810792 1_555
F13 K6 2.913889 1_555
F14 K6 2.810792 1_555
F14 K5 2.913889 1_545
F15 K7 2.810792 1_555
F15 K4 2.913889 1_455
F16 K7 2.631868 1_555
F17 K6 2.631868 1_555
F18 K5 2.631868 1_555
F19 K4 2.631868 1_555
F20 K3 2.631868 1_555
F21 K2 2.631868 1_555
F22 K1 2.631868 1_555
F23 K0 2.631868 1_555
F24 K3 3.199769 1_455
F24 K0 3.239394 1_555
F25 K2 3.199769 1_545
F25 K1 3.239394 1_555
F26 K1 3.199769 1_555
F26 K2 3.239394 1_555
F27 K0 3.199769 1_665
F27 K3 3.239394 1_555
F28 K7 3.199769 1_655
F28 K4 3.239394 1_555
F29 K6 3.199769 1_565
F29 K5 3.239394 1_555
F30 K5 3.199769 1_555
F30 K6 3.239394 1_555
F31 K4 3.199769 1_445
F31 K7 3.239394 1_555
F36 K5 3.024507 1_555
F36 K3 3.024507 1_455
F37 K2 3.024507 1_555
F37 K4 3.024507 1_455
F38 K7 3.024507 1_655
F38 K1 3.024507 1_555
F39 K0 3.024507 1_655
F39 K6 3.024507 1_555
