# generated using pymatgen
data_Fe5P3O13
_symmetry_space_group_name_H-M   'P 1'
_cell_length_a   6.32142300
_cell_length_b   8.54820900
_cell_length_c   9.84760311
_cell_angle_alpha   85.20736370
_cell_angle_beta   90.00000000
_cell_angle_gamma   90.00000000
_symmetry_Int_Tables_number   1
_chemical_formula_structural   Fe5P3O13
_chemical_formula_sum   'Fe10 P6 O26'
_cell_volume   530.27285414
_cell_formula_units_Z   2
loop_
 _symmetry_equiv_pos_site_id
 _symmetry_equiv_pos_as_xyz
  1  'x, y, z'
loop_
 _atom_site_type_symbol
 _atom_site_label
 _atom_site_symmetry_multiplicity
 _atom_site_fract_x
 _atom_site_fract_y
 _atom_site_fract_z
 _atom_site_occupancy
  Fe  Fe0  1  0.99939400  0.88591000  0.76634900  1
  Fe  Fe1  1  0.25000000  0.15417900  0.90886400  1
  Fe  Fe2  1  0.25000000  0.23235200  0.55781000  1
  Fe  Fe3  1  0.25000000  0.41443300  0.11623300  1
  Fe  Fe4  1  0.50060600  0.88591000  0.76634900  1
  Fe  Fe5  1  0.49939400  0.11409000  0.23365100  1
  Fe  Fe6  1  0.75000000  0.58556700  0.88376700  1
  Fe  Fe7  1  0.75000000  0.76764800  0.44219000  1
  Fe  Fe8  1  0.75000000  0.84582100  0.09113600  1
  Fe  Fe9  1  0.00060600  0.11409000  0.23365100  1
  P  P0  1  0.25000000  0.52169900  0.77793100  1
  P  P1  1  0.25000000  0.88991000  0.48026900  1
  P  P2  1  0.25000000  0.81840800  0.08377800  1
  P  P3  1  0.75000000  0.18159200  0.91622200  1
  P  P4  1  0.75000000  0.11009000  0.51973100  1
  P  P5  1  0.75000000  0.47830100  0.22206900  1
  O  O0  1  0.04642900  0.62491800  0.78546200  1
  O  O1  1  0.05429400  0.79171200  0.46183300  1
  O  O2  1  0.04773300  0.88252100  0.15077900  1
  O  O3  1  0.25000000  0.88109400  0.92936200  1
  O  O4  1  0.25000000  0.94923000  0.63143100  1
  O  O5  1  0.25000000  0.40505600  0.91071600  1
  O  O6  1  0.25000000  0.43129300  0.65211000  1
  O  O7  1  0.25000000  0.19156900  0.11132100  1
  O  O8  1  0.25000000  0.04726500  0.38361800  1
  O  O9  1  0.25000000  0.63804600  0.10053300  1
  O  O10  1  0.44570600  0.79171200  0.46183300  1
  O  O11  1  0.45357100  0.62491800  0.78546200  1
  O  O12  1  0.45226700  0.88252100  0.15077900  1
  O  O13  1  0.54773300  0.11747900  0.84922100  1
  O  O14  1  0.54642900  0.37508200  0.21453800  1
  O  O15  1  0.55429400  0.20828800  0.53816700  1
  O  O16  1  0.75000000  0.36195400  0.89946700  1
  O  O17  1  0.75000000  0.95273500  0.61638200  1
  O  O18  1  0.75000000  0.80843100  0.88867900  1
  O  O19  1  0.75000000  0.56870700  0.34789000  1
  O  O20  1  0.75000000  0.59494400  0.08928400  1
  O  O21  1  0.75000000  0.05077000  0.36856900  1
  O  O22  1  0.75000000  0.11890600  0.07063800  1
  O  O23  1  0.95226700  0.11747900  0.84922100  1
  O  O24  1  0.94570600  0.20828800  0.53816700  1
  O  O25  1  0.95357100  0.37508200  0.21453800  1
loop_
_geom_bond_atom_site_label_1
_geom_bond_atom_site_label_2
_geom_bond_distance
_geom_bond_site_symmetry_2
Fe0 O18 2.059602 1_555
Fe0 O4 2.108953 1_655
Fe0 O17 2.202670 1_555
Fe0 O23 2.223312 1_565
Fe0 O0 2.243008 1_655
Fe0 O3 2.253275 1_655
Fe1 O13 2.004112 1_555
Fe1 O23 2.004112 1_455
Fe1 O7 2.045370 1_556
Fe1 O5 2.146150 1_555
Fe1 O3 2.326236 1_545
Fe2 O24 1.945895 1_455
Fe2 O15 1.945895 1_555
Fe2 O6 2.004555 1_555
Fe2 O8 2.428838 1_555
Fe2 O4 2.467735 1_545
Fe3 O9 1.904814 1_555
Fe3 O7 1.909738 1_555
Fe3 O5 2.032117 1_554
Fe3 O14 2.123021 1_555
Fe3 O25 2.123021 1_455
Fe4 O18 2.059602 1_555
Fe4 O4 2.108953 1_555
Fe4 O17 2.202670 1_555
Fe4 O13 2.223312 1_565
Fe4 O11 2.243008 1_555
Fe4 O3 2.253275 1_555
Fe5 O7 2.059602 1_555
Fe5 O21 2.108953 1_555
Fe5 O8 2.202670 1_555
Fe5 O12 2.223312 1_545
Fe5 O14 2.243008 1_555
Fe5 O22 2.253275 1_555
Fe6 O16 1.904814 1_555
Fe6 O18 1.909738 1_555
Fe6 O20 2.032117 1_556
Fe6 O11 2.123021 1_555
Fe6 O0 2.123021 1_655
Fe7 O10 1.945895 1_555
Fe7 O1 1.945895 1_655
Fe7 O19 2.004555 1_555
Fe7 O17 2.428838 1_555
Fe7 O21 2.467735 1_565
Fe8 O12 2.004112 1_555
Fe8 O2 2.004112 1_655
Fe8 O18 2.045370 1_554
Fe8 O20 2.146150 1_555
Fe8 O22 2.326236 1_565
Fe9 O7 2.059602 1_555
Fe9 O21 2.108953 1_455
Fe9 O8 2.202670 1_555
Fe9 O2 2.223312 1_545
Fe9 O25 2.243008 1_455
Fe9 O22 2.253275 1_455
O0 P0 1.565554 1_555
O1 P1 1.514451 1_555
O2 P2 1.559159 1_555
O3 P2 1.569487 1_556
O4 P1 1.612186 1_555
O5 P0 1.576761 1_555
O6 P0 1.514083 1_555
O8 P1 1.581538 1_545
O9 P2 1.536807 1_555
O10 P1 1.514451 1_555
O11 P0 1.565554 1_555
O12 P2 1.559159 1_555
O13 P3 1.559159 1_555
O14 P5 1.565554 1_555
O15 P4 1.514451 1_555
O16 P3 1.536807 1_555
O17 P4 1.581538 1_565
O19 P5 1.514083 1_555
O20 P5 1.576761 1_555
O21 P4 1.612186 1_555
O22 P3 1.569487 1_554
O23 P3 1.559159 1_555
O24 P4 1.514451 1_555
O25 P5 1.565554 1_555
