# generated using pymatgen
data_Li3Fe2(CoO4)2
_symmetry_space_group_name_H-M   'P 1'
_cell_length_a   5.72766090
_cell_length_b   5.76961913
_cell_length_c   5.75296287
_cell_angle_alpha   60.44428986
_cell_angle_beta   60.17989941
_cell_angle_gamma   89.56512167
_symmetry_Int_Tables_number   1
_chemical_formula_structural   Li3Fe2(CoO4)2
_chemical_formula_sum   'Li3 Fe2 Co2 O8'
_cell_volume   136.17654745
_cell_formula_units_Z   1
loop_
 _symmetry_equiv_pos_site_id
 _symmetry_equiv_pos_as_xyz
  1  'x, y, z'
loop_
 _atom_site_type_symbol
 _atom_site_label
 _atom_site_symmetry_multiplicity
 _atom_site_fract_x
 _atom_site_fract_y
 _atom_site_fract_z
 _atom_site_occupancy
  Li  Li0  1  0.00000000  0.50000000  0.00000000  1
  Li  Li1  1  0.50000000  0.00000000  0.50000000  1
  Li  Li2  1  0.50000000  0.50000000  0.50000000  1
  Fe  Fe0  1  0.00000000  0.50000000  0.50000000  1
  Fe  Fe1  1  0.50000000  0.00000000  0.00000000  1
  Co  Co0  1  0.00000000  0.00000000  0.00000000  1
  Co  Co1  1  0.00000000  0.00000000  0.50000000  1
  O  O0  1  0.23048100  0.21025600  0.02964200  1
  O  O1  1  0.24735700  0.77464500  0.00675200  1
  O  O2  1  0.21644600  0.22583400  0.53494200  1
  O  O3  1  0.24875600  0.76906500  0.47706700  1
  O  O4  1  0.75124400  0.23093500  0.52293300  1
  O  O5  1  0.78355400  0.77416600  0.46505800  1
  O  O6  1  0.75264300  0.22535500  0.99324800  1
  O  O7  1  0.76951900  0.78974400  0.97035800  1
loop_
_geom_bond_atom_site_label_1
_geom_bond_atom_site_label_2
_geom_bond_distance
_geom_bond_site_symmetry_2
Li0 O7 2.115553 1_454
Li0 O0 2.115553 1_555
Li0 O4 2.157239 1_455
Li0 O3 2.157239 1_554
Li0 O1 2.160845 1_555
Li0 O6 2.160845 1_454
Li1 O4 2.062742 1_555
Li1 O3 2.062742 1_545
Li1 O2 2.068196 1_555
Li1 O5 2.068196 1_545
Li1 O1 2.092131 1_546
Li1 O6 2.092131 1_554
Li2 O4 2.109752 1_555
Li2 O3 2.109752 1_555
Li2 O5 2.140306 1_555
Li2 O2 2.140306 1_555
Li2 O0 2.190401 1_556
Li2 O7 2.190401 1_554
Fe0 O5 1.995976 1_455
Fe0 O2 1.995976 1_555
Fe0 O3 2.025328 1_555
Fe0 O4 2.025328 1_455
Fe0 O6 2.042075 1_455
Fe0 O1 2.042075 1_555
Fe1 O6 1.925839 1_554
Fe1 O1 1.925839 1_545
Fe1 O7 1.948737 1_544
Fe1 O0 1.948737 1_555
Fe1 O3 1.967778 1_545
Fe1 O4 1.967778 1_554
Co0 O6 1.917358 1_454
Co0 O1 1.917358 1_545
Co0 O5 1.918166 1_445
Co0 O2 1.918166 1_554
Co0 O0 1.922415 1_555
Co0 O7 1.922415 1_444
Co1 O7 1.941565 1_445
Co1 O0 1.941565 1_555
Co1 O3 1.944323 1_545
Co1 O4 1.944323 1_455
Co1 O2 1.950861 1_555
Co1 O5 1.950861 1_445
