# generated using pymatgen
data_Li4MnO3
_symmetry_space_group_name_H-M   'P 1'
_cell_length_a   5.08610209
_cell_length_b   10.24651415
_cell_length_c   6.79569679
_cell_angle_alpha   107.28156650
_cell_angle_beta   90.01304107
_cell_angle_gamma   90.01529180
_symmetry_Int_Tables_number   1
_chemical_formula_structural   Li4MnO3
_chemical_formula_sum   'Li16 Mn4 O12'
_cell_volume   338.16857471
_cell_formula_units_Z   4
loop_
 _symmetry_equiv_pos_site_id
 _symmetry_equiv_pos_as_xyz
  1  'x, y, z'
loop_
 _atom_site_type_symbol
 _atom_site_label
 _atom_site_symmetry_multiplicity
 _atom_site_fract_x
 _atom_site_fract_y
 _atom_site_fract_z
 _atom_site_occupancy
  Li  Li0  1  0.35315300  0.38038600  0.30306900  1
  Li  Li1  1  0.85313400  0.88038600  0.80307800  1
  Li  Li2  1  0.64586200  0.38026100  0.80223700  1
  Li  Li3  1  0.14585300  0.88026000  0.30223000  1
  Li  Li4  1  0.15860400  0.27571000  0.91574500  1
  Li  Li5  1  0.65859100  0.77570300  0.41577100  1
  Li  Li6  1  0.84093400  0.27546600  0.41570400  1
  Li  Li7  1  0.34092200  0.77547200  0.91567800  1
  Li  Li8  1  0.71724600  0.20597900  0.03592900  1
  Li  Li9  1  0.21725700  0.70600700  0.53597600  1
  Li  Li10  1  0.28195900  0.20564800  0.53603900  1
  Li  Li11  1  0.78196500  0.70561900  0.03599400  1
  Li  Li12  1  0.84880900  0.13630500  0.66938300  1
  Li  Li13  1  0.34884200  0.63628200  0.16934000  1
  Li  Li14  1  0.15020100  0.13666000  0.16954900  1
  Li  Li15  1  0.65022700  0.63667700  0.66957900  1
  Mn  Mn0  1  0.85071300  0.51590700  0.25672600  1
  Mn  Mn1  1  0.64817700  0.01599500  0.25596200  1
  Mn  Mn2  1  0.35059000  0.01590100  0.75666100  1
  Mn  Mn3  1  0.14825200  0.51597900  0.75588500  1
  O  O0  1  0.00598400  0.33268700  0.19119900  1
  O  O1  1  0.50596300  0.83270500  0.69123300  1
  O  O2  1  0.99342200  0.33261900  0.69106900  1
  O  O3  1  0.49341600  0.83261000  0.19102700  1
  O  O4  1  0.49680400  0.20305400  0.78595600  1
  O  O5  1  0.99682300  0.70303600  0.28595700  1
  O  O6  1  0.50240000  0.20325700  0.28613800  1
  O  O7  1  0.00240900  0.70326800  0.78612700  1
  O  O8  1  0.99292800  0.06239100  0.89183500  1
  O  O9  1  0.49297200  0.56241600  0.39190900  1
  O  O10  1  0.00595200  0.06228600  0.39155100  1
  O  O11  1  0.50595300  0.56226000  0.89146000  1
loop_
_geom_bond_atom_site_label_1
_geom_bond_atom_site_label_2
_geom_bond_distance
_geom_bond_site_symmetry_2
Li0 O9 1.918107 1_555
Li0 O0 1.926870 1_555
Li0 O6 1.939127 1_555
Li1 O8 1.917820 1_565
Li1 O1 1.926800 1_555
Li1 O7 1.939050 1_655
Li2 O11 1.918538 1_555
Li2 O2 1.927652 1_555
Li2 O4 1.940058 1_555
Li3 O10 1.918785 1_565
Li3 O3 1.927752 1_555
Li3 O5 1.940174 1_455
Li4 O0 1.949106 1_556
Li4 O4 1.975407 1_555
Li4 O2 1.976287 1_455
Li4 O8 2.302610 1_455
Li5 O1 1.949173 1_555
Li5 O5 1.975633 1_555
Li5 O3 1.976659 1_555
Li5 O9 2.302269 1_555
Li6 O2 1.947874 1_555
Li6 O6 1.974571 1_555
Li6 O0 1.976844 1_655
Li6 O10 2.300170 1_655
Li7 O3 1.947789 1_556
Li7 O7 1.974432 1_555
Li7 O1 1.976539 1_555
Li7 O11 2.300405 1_555
Li8 O4 2.027943 1_554
Li8 O6 2.028549 1_555
Li8 O0 2.034697 1_655
Li8 O8 2.057983 1_554
Li9 O5 2.028070 1_455
Li9 O7 2.028268 1_555
Li9 O1 2.034501 1_555
Li9 O9 2.058067 1_555
Li10 O4 2.026122 1_555
Li10 O6 2.029255 1_555
Li10 O2 2.035577 1_455
Li10 O10 2.057652 1_555
Li11 O5 2.026391 1_555
Li11 O7 2.029168 1_654
Li11 O3 2.035727 1_555
Li11 O11 2.057734 1_554
Li12 O10 1.982176 1_655
Li12 O4 1.995002 1_555
Li12 O8 2.018961 1_555
Li12 O2 2.105233 1_555
Li13 O11 1.982387 1_554
Li13 O5 1.995166 1_455
Li13 O9 2.019371 1_555
Li13 O3 2.105296 1_555
Li14 O8 1.981517 1_454
Li14 O6 1.994919 1_555
Li14 O10 2.019495 1_555
Li14 O0 2.102232 1_555
Li15 O9 1.981221 1_555
Li15 O7 1.994745 1_655
Li15 O11 2.019099 1_555
Li15 O1 2.102319 1_555
Mn0 O0 1.962325 1_655
Mn0 O5 2.010243 1_555
Mn0 O9 2.030460 1_555
Mn1 O3 1.962539 1_545
Mn1 O6 2.010114 1_555
Mn1 O10 2.030848 1_655
Mn2 O1 1.962354 1_545
Mn2 O4 2.010585 1_555
Mn2 O8 2.030057 1_455
Mn3 O2 1.962500 1_455
Mn3 O7 2.010412 1_555
Mn3 O11 2.030464 1_555
