# generated using pymatgen
data_Hf2N2O
_symmetry_space_group_name_H-M   'P 1'
_cell_length_a   8.65209882
_cell_length_b   8.67414701
_cell_length_c   8.68160975
_cell_angle_alpha   109.56364823
_cell_angle_beta   109.34018671
_cell_angle_gamma   109.33416079
_symmetry_Int_Tables_number   1
_chemical_formula_structural   Hf2N2O
_chemical_formula_sum   'Hf16 N16 O8'
_cell_volume   502.64676423
_cell_formula_units_Z   8
loop_
 _symmetry_equiv_pos_site_id
 _symmetry_equiv_pos_as_xyz
  1  'x, y, z'
loop_
 _atom_site_type_symbol
 _atom_site_label
 _atom_site_symmetry_multiplicity
 _atom_site_fract_x
 _atom_site_fract_y
 _atom_site_fract_z
 _atom_site_occupancy
  Hf  Hf0  1  0.49254375  0.50359043  0.49083356  1
  Hf  Hf1  1  0.53480713  0.24296174  0.78725566  1
  Hf  Hf2  1  0.74467762  0.78863362  0.03826074  1
  Hf  Hf3  1  0.74509643  0.28024540  0.53048966  1
  Hf  Hf4  1  0.96364686  0.74882312  0.70748366  1
  Hf  Hf5  1  0.78165524  0.53250784  0.25444664  1
  Hf  Hf6  1  0.51130635  0.00413797  0.99983520  1
  Hf  Hf7  1  0.29172858  0.03212284  0.24971204  1
  Hf  Hf8  1  0.99171981  0.98449381  0.50065736  1
  Hf  Hf9  1  0.00644905  0.49768531  0.00961594  1
  Hf  Hf10  1  0.71473837  0.97196440  0.74878716  1
  Hf  Hf11  1  0.22286048  0.47220995  0.75507055  1
  Hf  Hf12  1  0.04025149  0.25731001  0.28518141  1
  Hf  Hf13  1  0.24923628  0.22115511  0.97176891  1
  Hf  Hf14  1  0.25104441  0.71497376  0.46437820  1
  Hf  Hf15  1  0.46370121  0.75015711  0.21477104  1
  N  N0  1  0.26101805  0.26757036  0.22679867  1
  N  N1  1  0.72928147  0.48840914  0.46106007  1
  N  N2  1  0.77071155  0.23211277  0.75943132  1
  N  N3  1  0.52847019  0.27413107  0.04042538  1
  N  N4  1  0.73226502  0.76455738  0.27212292  1
  N  N5  1  0.27132822  0.50797677  0.54424289  1
  N  N6  1  0.46659895  0.72689117  0.95236018  1
  N  N7  1  0.54616653  0.03979826  0.27462110  1
  N  N8  1  0.22049132  0.77324295  0.23403138  1
  N  N9  1  0.98375238  0.45082448  0.22214614  1
  N  N10  1  0.77459289  0.04147673  0.03419880  1
  N  N11  1  0.23552505  0.46289763  0.00675808  1
  N  N12  1  0.96876867  0.00958118  0.74065709  1
  N  N13  1  0.04674583  0.77460228  0.51523528  1
  N  N14  1  0.45237756  0.96852352  0.72733018  1
  N  N15  1  0.51497970  0.73804067  0.46671448  1
  O  O0  1  0.73775081  0.72071108  0.77463441  1
  O  O1  1  0.27208906  0.24037638  0.71664532  1
  O  O2  1  0.48344485  0.25904908  0.53518475  1
  O  O3  1  0.03847091  0.99581711  0.27121811  1
  O  O4  1  0.01945541  0.54952551  0.77199640  1
  O  O5  1  0.95522125  0.22855940  0.49345279  1
  O  O6  1  0.76249450  0.53827649  0.98414394  1
  O  O7  1  0.22253579  0.94407517  0.96604463  1
loop_
_geom_bond_atom_site_label_1
_geom_bond_atom_site_label_2
_geom_bond_distance
_geom_bond_site_symmetry_2
Hf0 N15 2.065912 1_555
Hf0 N5 2.122259 1_555
Hf0 N0 2.135113 1_555
Hf0 N1 2.187711 1_555
Hf0 O0 2.214258 1_555
Hf0 O2 2.260613 1_555
Hf1 N14 2.060781 1_545
Hf1 O1 2.139441 1_555
Hf1 N3 2.144440 1_556
Hf1 O2 2.146487 1_555
Hf1 N2 2.161410 1_555
Hf1 O6 2.204592 1_555
Hf2 N6 2.079065 1_554
Hf2 O6 2.132332 1_554
Hf2 N10 2.135489 1_565
Hf2 O0 2.138124 1_554
Hf2 N4 2.142615 1_555
Hf2 O3 2.217503 1_655
Hf3 N7 2.057840 1_555
Hf3 O5 2.107117 1_555
Hf3 N1 2.116660 1_555
Hf3 N2 2.121124 1_555
Hf3 O2 2.225072 1_555
Hf3 O4 2.288879 1_655
Hf4 N13 2.071446 1_655
Hf4 O7 2.129821 1_655
Hf4 O4 2.134806 1_655
Hf4 N1 2.156024 1_555
Hf4 N12 2.165597 1_565
Hf4 O0 2.180278 1_555
Hf5 N1 2.110038 1_555
Hf5 N3 2.130341 1_555
Hf5 N9 2.156432 1_555
Hf5 N4 2.159576 1_555
Hf5 N13 2.232392 1_655
Hf5 O6 2.315873 1_554
Hf6 N10 2.092779 1_556
Hf6 N14 2.135328 1_545
Hf6 N6 2.171998 1_545
Hf6 N3 2.193937 1_556
Hf6 N7 2.201163 1_556
Hf6 O7 2.269386 1_545
Hf7 N8 2.064997 1_545
Hf7 O7 2.113680 1_544
Hf7 N7 2.115525 1_555
Hf7 O2 2.148559 1_555
Hf7 O3 2.188348 1_545
Hf7 N0 2.208525 1_555
Hf8 N13 2.060515 1_655
Hf8 N4 2.072340 1_555
Hf8 N12 2.104071 1_565
Hf8 O3 2.186166 1_655
Hf8 O1 2.227491 1_665
Hf8 O5 2.259172 1_565
Hf9 N9 2.073068 1_455
Hf9 N11 2.107966 1_555
Hf9 N8 2.121094 1_555
Hf9 N2 2.188161 1_454
Hf9 O6 2.205240 1_454
Hf9 O4 2.282981 1_554
Hf10 N2 2.107664 1_565
Hf10 N12 2.141378 1_565
Hf10 N15 2.155913 1_555
Hf10 N10 2.171210 1_566
Hf10 N14 2.204473 1_555
Hf10 O0 2.329179 1_555
Hf11 N6 2.061536 1_555
Hf11 N5 2.103502 1_555
Hf11 O4 2.110768 1_555
Hf11 O1 2.132757 1_555
Hf11 N11 2.181391 1_556
Hf11 O5 2.246911 1_455
Hf12 N9 2.082637 1_455
Hf12 N0 2.114753 1_555
Hf12 N10 2.153440 1_455
Hf12 N5 2.156712 1_555
Hf12 O5 2.221339 1_455
Hf12 O3 2.225145 1_545
Hf13 N11 2.065280 1_556
Hf13 N0 2.073870 1_556
Hf13 N3 2.128601 1_556
Hf13 N12 2.154661 1_455
Hf13 O7 2.318854 1_545
Hf13 O1 2.342681 1_555
Hf14 N14 2.133002 1_555
Hf14 N13 2.134544 1_555
Hf14 N5 2.167311 1_555
Hf14 N8 2.177087 1_555
Hf14 N15 2.217950 1_555
Hf14 N9 2.250279 1_455
Hf15 N15 2.129349 1_555
Hf15 N4 2.159321 1_555
Hf15 N11 2.176056 1_555
Hf15 N7 2.187324 1_565
Hf15 N6 2.228137 1_554
Hf15 N8 2.232865 1_555
