# generated using pymatgen
data_Na3Ni2P2(CO7)2
_symmetry_space_group_name_H-M   'P 1'
_cell_length_a   8.28425500
_cell_length_b   8.29977566
_cell_length_c   8.92845768
_cell_angle_alpha   90.14815943
_cell_angle_beta   91.70715319
_cell_angle_gamma   103.12543920
_symmetry_Int_Tables_number   1
_chemical_formula_structural   Na3Ni2P2(CO7)2
_chemical_formula_sum   'Na6 Ni4 P4 C4 O28'
_cell_volume   597.56717999
_cell_formula_units_Z   2
loop_
 _symmetry_equiv_pos_site_id
 _symmetry_equiv_pos_as_xyz
  1  'x, y, z'
loop_
 _atom_site_type_symbol
 _atom_site_label
 _atom_site_symmetry_multiplicity
 _atom_site_fract_x
 _atom_site_fract_y
 _atom_site_fract_z
 _atom_site_occupancy
  Na  Na0  1  0.90293700  0.86015200  0.25820000  1
  Na  Na1  1  0.37798200  0.37704300  0.24390600  1
  Na  Na2  1  0.61961300  0.13296300  0.24859900  1
  Na  Na3  1  0.38038700  0.86703700  0.75140100  1
  Na  Na4  1  0.62201800  0.62295700  0.75609400  1
  Na  Na5  1  0.09706300  0.13984800  0.74180000  1
  Ni  Ni0  1  0.98283900  0.23822900  0.34738100  1
  Ni  Ni1  1  0.48075100  0.73341800  0.34390400  1
  Ni  Ni2  1  0.01716100  0.76177100  0.65261900  1
  Ni  Ni3  1  0.51924900  0.26658200  0.65609600  1
  P  P0  1  0.76265700  0.51354900  0.42801100  1
  P  P1  1  0.26978500  0.02126800  0.42420600  1
  P  P2  1  0.73021500  0.97873200  0.57579400  1
  P  P3  1  0.23734300  0.48645100  0.57198900  1
  C  C0  1  0.52136800  0.76697300  0.07470000  1
  C  C1  1  0.01304400  0.26985500  0.07547300  1
  C  C2  1  0.98695600  0.73014500  0.92452700  1
  C  C3  1  0.47863200  0.23302700  0.92530000  1
  O  O0  1  0.96521700  0.71608800  0.06178400  1
  O  O1  1  0.45819000  0.21490400  0.06308100  1
  O  O2  1  0.40524100  0.65603300  0.13228900  1
  O  O3  1  0.89797800  0.15676300  0.13426400  1
  O  O4  1  0.61580300  0.85987500  0.17656000  1
  O  O5  1  0.10525600  0.36664300  0.17407200  1
  O  O6  1  0.33600000  0.89951400  0.32637000  1
  O  O7  1  0.81455000  0.37987000  0.33318700  1
  O  O8  1  0.63312700  0.56936000  0.32350100  1
  O  O9  1  0.13890200  0.07874600  0.32390700  1
  O  O10  1  0.80341600  0.05182000  0.42752900  1
  O  O11  1  0.31070100  0.55377800  0.42252000  1
  O  O12  1  0.90676800  0.66435500  0.46415400  1
  O  O13  1  0.41638500  0.17360900  0.46146100  1
  O  O14  1  0.58361500  0.82639100  0.53853900  1
  O  O15  1  0.09323200  0.33564500  0.53584600  1
  O  O16  1  0.19658400  0.94818000  0.57247100  1
  O  O17  1  0.68929900  0.44622200  0.57748000  1
  O  O18  1  0.86109800  0.92125400  0.67609300  1
  O  O19  1  0.18545000  0.62013000  0.66681300  1
  O  O20  1  0.66400000  0.10048600  0.67363000  1
  O  O21  1  0.36687300  0.43064000  0.67649900  1
  O  O22  1  0.89474400  0.63335700  0.82592800  1
  O  O23  1  0.38419700  0.14012500  0.82344000  1
  O  O24  1  0.59475900  0.34396700  0.86771100  1
  O  O25  1  0.10202200  0.84323700  0.86573600  1
  O  O26  1  0.54181000  0.78509600  0.93691900  1
  O  O27  1  0.03478300  0.28391200  0.93821600  1
loop_
_geom_bond_atom_site_label_1
_geom_bond_atom_site_label_2
_geom_bond_distance
_geom_bond_site_symmetry_2
Na0 O0 2.257117 1_555
Na0 O9 2.402592 1_665
Na0 O12 2.461430 1_555
Na0 O4 2.466516 1_555
Na0 O10 2.480635 1_565
Na0 O3 2.709973 1_565
Na0 O8 2.965776 1_555
Na1 O1 2.306042 1_555
Na1 O5 2.308248 1_555
Na1 O11 2.327606 1_555
Na1 O8 2.427523 1_555
Na1 O2 2.488733 1_555
Na1 O13 2.636141 1_555
Na1 O9 2.903266 1_555
Na2 O1 2.298117 1_555
Na2 O4 2.347508 1_545
Na2 O10 2.377115 1_555
Na2 O7 2.407103 1_555
Na2 O3 2.516624 1_555
Na2 O13 2.646806 1_555
Na2 O6 2.791636 1_545
Na3 O26 2.298117 1_555
Na3 O23 2.347508 1_565
Na3 O16 2.377115 1_555
Na3 O19 2.407103 1_555
Na3 O25 2.516624 1_555
Na3 O14 2.646806 1_555
Na3 O20 2.791636 1_565
Na4 O26 2.306042 1_555
Na4 O22 2.308248 1_555
Na4 O17 2.327606 1_555
Na4 O21 2.427523 1_555
Na4 O24 2.488733 1_555
Na4 O14 2.636141 1_555
Na4 O18 2.903266 1_555
Na5 O27 2.257117 1_555
Na5 O18 2.402592 1_445
Na5 O15 2.461430 1_555
Na5 O23 2.466516 1_555
Na5 O16 2.480635 1_545
Na5 O25 2.709973 1_545
Na5 O21 2.965776 1_555
Ni0 O15 1.971551 1_655
Ni0 O7 2.018990 1_555
Ni0 O10 2.034643 1_555
Ni0 O5 2.042042 1_655
Ni0 O9 2.063851 1_655
Ni0 O3 2.066357 1_555
Ni1 O11 1.952083 1_555
Ni1 O14 1.986886 1_555
Ni1 O6 2.025740 1_555
Ni1 O2 2.028417 1_555
Ni1 O4 2.039636 1_555
Ni1 O8 2.067311 1_555
Ni2 O12 1.971551 1_455
Ni2 O19 2.018990 1_555
Ni2 O16 2.034643 1_555
Ni2 O22 2.042042 1_455
Ni2 O18 2.063851 1_455
Ni2 O25 2.066357 1_555
Ni3 O17 1.952083 1_555
Ni3 O13 1.986886 1_555
Ni3 O20 2.025740 1_555
Ni3 O24 2.028417 1_555
Ni3 O23 2.039636 1_555
Ni3 O21 2.067311 1_555
C0 O26 1.251570 1_554
C0 O2 1.291248 1_555
C0 O4 1.309081 1_555
C1 O27 1.245883 1_554
C1 O5 1.296703 1_555
C1 O3 1.300474 1_455
C2 O0 1.245883 1_556
C2 O22 1.296703 1_555
C2 O25 1.300474 1_655
C3 O1 1.251570 1_556
C3 O24 1.291248 1_555
C3 O23 1.309081 1_555
O6 P1 1.536507 1_565
O7 P0 1.538197 1_555
O8 P0 1.550824 1_555
O9 P1 1.544164 1_555
O10 P2 1.540461 1_545
O11 P3 1.536388 1_555
O12 P0 1.546725 1_555
O13 P1 1.568639 1_555
O14 P2 1.568639 1_555
O15 P3 1.546725 1_555
O16 P1 1.540461 1_565
O17 P0 1.536388 1_555
O18 P2 1.544164 1_555
O19 P3 1.538197 1_555
O20 P2 1.536507 1_545
O21 P3 1.550824 1_555
