# generated using pymatgen
data_Ba10V10O29
_symmetry_space_group_name_H-M   'P 1'
_cell_length_a   11.62592747
_cell_length_b   10.00280805
_cell_length_c   13.23508239
_cell_angle_alpha   90.51558397
_cell_angle_beta   63.63839738
_cell_angle_gamma   90.27761460
_symmetry_Int_Tables_number   1
_chemical_formula_structural   Ba10V10O29
_chemical_formula_sum   'Ba20 V20 O58'
_cell_volume   1379.02152829
_cell_formula_units_Z   2
loop_
 _symmetry_equiv_pos_site_id
 _symmetry_equiv_pos_as_xyz
  1  'x, y, z'
loop_
 _atom_site_type_symbol
 _atom_site_label
 _atom_site_symmetry_multiplicity
 _atom_site_fract_x
 _atom_site_fract_y
 _atom_site_fract_z
 _atom_site_occupancy
  Ba  Ba0  1  0.85806200  0.16717900  0.78575900  1
  Ba  Ba1  1  0.95494400  0.83376200  0.59093700  1
  Ba  Ba2  1  0.60641300  0.66632900  0.78433000  1
  Ba  Ba3  1  0.70281300  0.33583200  0.59121800  1
  Ba  Ba4  1  0.89164500  0.33357400  0.21373900  1
  Ba  Ba5  1  0.79302800  0.66466800  0.40999900  1
  Ba  Ba6  1  0.63790900  0.83026500  0.21507500  1
  Ba  Ba7  1  0.35120300  0.16822200  0.78565500  1
  Ba  Ba8  1  0.45182300  0.83267100  0.59070500  1
  Ba  Ba9  1  0.54245600  0.16730400  0.40957900  1
  Ba  Ba10  1  0.74909400  0.49655300  0.00097800  1
  Ba  Ba11  1  0.11374600  0.66572800  0.78468200  1
  Ba  Ba12  1  0.39597900  0.33473800  0.21677300  1
  Ba  Ba13  1  0.20728500  0.33356400  0.59015700  1
  Ba  Ba14  1  0.30039800  0.66645600  0.40729800  1
  Ba  Ba15  1  0.49967700  0.99650600  0.00060900  1
  Ba  Ba16  1  0.14714800  0.83427500  0.21367300  1
  Ba  Ba17  1  0.04756700  0.16555500  0.41031100  1
  Ba  Ba18  1  0.24944000  0.50371900  0.99888300  1
  Ba  Ba19  1  0.00177000  0.00404800  0.99998600  1
  V  V0  1  0.78854600  0.84326800  0.89246000  1
  V  V1  1  0.89985400  0.50443800  0.71805200  1
  V  V2  1  0.56951000  0.34390300  0.89506200  1
  V  V3  1  0.96119400  0.65718200  0.10882600  1
  V  V4  1  0.85036700  0.99715500  0.28382300  1
  V  V5  1  0.63198100  0.00642100  0.71665800  1
  V  V6  1  0.74589300  0.99864900  0.50004000  1
  V  V7  1  0.29492900  0.83125000  0.90565800  1
  V  V8  1  0.70764800  0.16620000  0.09058300  1
  V  V9  1  0.60951500  0.49926100  0.27814400  1
  V  V10  1  0.50083300  0.49962400  0.50033800  1
  V  V11  1  0.39130400  0.49859700  0.72260000  1
  V  V12  1  0.04955300  0.33172700  0.90576100  1
  V  V13  1  0.44995200  0.66970600  0.09642500  1
  V  V14  1  0.36751400  0.00499700  0.27772900  1
  V  V15  1  0.24831400  0.00134000  0.49902400  1
  V  V16  1  0.13826200  0.99761800  0.72167300  1
  V  V17  1  0.18095600  0.15692100  0.10923200  1
  V  V18  1  0.00340200  0.49908600  0.50129100  1
  V  V19  1  0.11472700  0.49851000  0.28486300  1
  O  O0  1  0.97218300  0.41980700  0.79958500  1
  O  O1  1  0.96344000  0.90585100  0.81934800  1
  O  O2  1  0.95333200  0.34897800  0.59828500  1
  O  O3  1  0.85137800  0.66847100  0.80762500  1
  O  O4  1  0.83861400  0.57728200  0.60744200  1
  O  O5  1  0.94790500  0.42082500  0.38956200  1
  O  O6  1  0.72636600  0.91734000  0.79799900  1
  O  O7  1  0.72607300  0.41832500  0.79817700  1
  O  O8  1  0.91232900  0.92139700  0.39018700  1
  O  O9  1  0.80141400  0.07792000  0.61061100  1
  O  O10  1  0.89993700  0.82385000  0.18539400  1
  O  O11  1  0.58677900  0.17417500  0.81297500  1
  O  O12  1  0.79757700  0.14954200  0.40057000  1
  O  O13  1  0.69695300  0.85032700  0.59860800  1
  O  O14  1  0.68570400  0.92014700  0.39530800  1
  O  O15  1  0.57954900  0.07923200  0.60508900  1
  O  O16  1  0.77714800  0.58824900  0.18842000  1
  O  O17  1  0.46443300  0.41036500  0.81390000  1
  O  O18  1  0.87486700  0.25198400  0.99905900  1
  O  O19  1  0.77976700  0.07817000  0.20163600  1
  O  O20  1  0.47917700  0.92062900  0.79975600  1
  O  O21  1  0.66401800  0.42540900  0.39750200  1
  O  O22  1  0.56287500  0.57351200  0.60633200  1
  O  O23  1  0.55517000  0.64774200  0.38956900  1
  O  O24  1  0.44579400  0.35107900  0.61014300  1
  O  O25  1  0.65277300  0.33670700  0.19793700  1
  O  O26  1  0.75207900  0.99495400  0.00294800  1
  O  O27  1  0.34990700  0.65897300  0.80054900  1
  O  O28  1  0.33975200  0.57548700  0.60067300  1
  O  O29  1  0.44055000  0.42377800  0.39408100  1
  O  O30  1  0.52431600  0.08434100  0.19669400  1
  O  O31  1  0.22337600  0.91531400  0.80604600  1
  O  O32  1  0.64412100  0.75516100  0.99365800  1
  O  O33  1  0.61637500  0.25089300  0.99681300  1
  O  O34  1  0.52783600  0.58457700  0.19198100  1
  O  O35  1  0.21916200  0.41537800  0.80701000  1
  O  O36  1  0.41621200  0.92384800  0.39215800  1
  O  O37  1  0.30903400  0.07464700  0.60117600  1
  O  O38  1  0.40230100  0.83329600  0.19344600  1
  O  O39  1  0.49658800  0.48607100  0.99647800  1
  O  O40  1  0.30373300  0.15313000  0.39414700  1
  O  O41  1  0.19225500  0.85150500  0.61093300  1
  O  O42  1  0.09822700  0.15697300  0.80131900  1
  O  O43  1  0.19111800  0.92719600  0.39618900  1
  O  O44  1  0.07958400  0.07141800  0.60796500  1
  O  O45  1  0.26963400  0.57824500  0.19973800  1
  O  O46  1  0.37720700  0.74952400  0.99710300  1
  O  O47  1  0.27891200  0.08561700  0.19237800  1
  O  O48  1  0.06562200  0.57870500  0.60399200  1
  O  O49  1  0.16901800  0.42162700  0.39485300  1
  O  O50  1  0.05278400  0.65032200  0.39943800  1
  O  O51  1  0.16638100  0.32445800  0.18404000  1
  O  O52  1  0.25486200  0.02354500  0.00292100  1
  O  O53  1  0.02368900  0.08022600  0.20067600  1
  O  O54  1  0.12251500  0.75243000  0.00232000  1
  O  O55  1  0.12400400  0.25091000  0.00371700  1
  O  O56  1  0.02524500  0.58075000  0.20069700  1
  O  O57  1  0.99199800  0.52258800  0.00425900  1
loop_
_geom_bond_atom_site_label_1
_geom_bond_atom_site_label_2
_geom_bond_distance
_geom_bond_site_symmetry_2
Ba0 O44 2.772872 1_655
Ba0 O9 2.813773 1_555
Ba0 O2 2.882937 1_555
Ba0 O0 2.890373 1_555
Ba0 O42 2.891828 1_655
Ba0 O6 2.892381 1_545
Ba0 O7 2.915238 1_555
Ba0 O1 3.011183 1_545
Ba0 O11 3.012411 1_555
Ba0 O18 3.028604 1_555
Ba0 O33 3.067483 1_555
Ba0 O26 3.109983 1_546
Ba1 O44 2.837033 1_665
Ba1 O4 2.858813 1_555
Ba1 O41 2.890716 1_655
Ba1 O48 2.903754 1_655
Ba1 O50 2.908739 1_655
Ba1 O13 2.961107 1_555
Ba1 O6 2.963766 1_555
Ba1 O43 2.964724 1_655
Ba1 O9 2.972622 1_565
Ba1 O8 3.047682 1_555
Ba1 O3 3.067183 1_555
Ba1 O1 3.145432 1_555
Ba2 O22 2.771845 1_555
Ba2 O4 2.816916 1_555
Ba2 O13 2.881370 1_555
Ba2 O27 2.893821 1_555
Ba2 O7 2.896723 1_555
Ba2 O20 2.908474 1_555
Ba2 O6 2.909240 1_555
Ba2 O17 2.972647 1_555
Ba2 O3 2.997561 1_555
Ba2 O46 3.006451 1_555
Ba2 O39 3.106467 1_555
Ba2 O32 3.112521 1_555
Ba3 O22 2.842377 1_555
Ba3 O9 2.887458 1_555
Ba3 O24 2.890278 1_555
Ba3 O15 2.900795 1_555
Ba3 O12 2.918802 1_555
Ba3 O4 2.937111 1_555
Ba3 O21 2.941392 1_555
Ba3 O2 2.957495 1_555
Ba3 O7 2.978549 1_555
Ba3 O5 3.037904 1_555
Ba3 O11 3.097868 1_555
Ba3 O17 3.106337 1_555
Ba4 O5 2.813219 1_555
Ba4 O21 2.833692 1_555
Ba4 O25 2.876423 1_555
Ba4 O56 2.878836 1_655
Ba4 O12 2.891353 1_555
Ba4 O19 2.896496 1_555
Ba4 O53 2.933047 1_655
Ba4 O16 2.969536 1_555
Ba4 O55 3.003255 1_655
Ba4 O18 3.037443 1_554
Ba4 O51 3.041720 1_655
Ba4 O57 3.134144 1_555
Ba5 O21 2.860602 1_555
Ba5 O8 2.870851 1_555
Ba5 O14 2.894922 1_555
Ba5 O13 2.896255 1_555
Ba5 O23 2.899559 1_555
Ba5 O22 2.930441 1_555
Ba5 O50 2.964613 1_655
Ba5 O5 2.977034 1_555
Ba5 O56 3.000899 1_655
Ba5 O4 3.024753 1_555
Ba5 O16 3.107691 1_555
Ba5 O10 3.114753 1_555
Ba6 O36 2.762551 1_555
Ba6 O23 2.770951 1_555
Ba6 O14 2.817959 1_555
Ba6 O34 2.841491 1_555
Ba6 O16 2.849706 1_555
Ba6 O38 2.878052 1_555
Ba6 O10 2.894337 1_555
Ba6 O30 2.931089 1_565
Ba6 O19 2.934031 1_565
Ba6 O32 2.988347 1_554
Ba6 O26 3.018342 1_555
Ba7 O24 2.781945 1_555
Ba7 O15 2.810976 1_555
Ba7 O37 2.845224 1_555
Ba7 O17 2.851159 1_555
Ba7 O42 2.856804 1_555
Ba7 O35 2.861354 1_555
Ba7 O31 2.881123 1_545
Ba7 O11 2.917660 1_555
Ba7 O20 2.944947 1_545
Ba7 O52 2.969253 1_556
Ba7 O55 3.032939 1_556
Ba8 O28 2.855535 1_555
Ba8 O13 2.902304 1_555
Ba8 O37 2.908970 1_565
Ba8 O41 2.915634 1_555
Ba8 O15 2.920792 1_565
Ba8 O14 2.935962 1_555
Ba8 O22 2.951102 1_555
Ba8 O36 2.986872 1_555
Ba8 O23 3.007388 1_555
Ba8 O31 3.019384 1_555
Ba8 O20 3.043901 1_555
Ba8 O27 3.046409 1_555
Ba9 O40 2.874648 1_555
Ba9 O29 2.877852 1_555
Ba9 O36 2.897156 1_545
Ba9 O21 2.908591 1_555
Ba9 O12 2.921251 1_555
Ba9 O37 2.925813 1_555
Ba9 O14 2.945070 1_545
Ba9 O15 2.948454 1_555
Ba9 O24 2.995232 1_555
Ba9 O30 3.025832 1_555
Ba9 O19 3.036051 1_555
Ba9 O25 3.039139 1_555
Ba10 O16 2.788690 1_555
Ba10 O34 2.826599 1_555
Ba10 O25 2.840957 1_555
Ba10 O18 2.850277 1_554
Ba10 O57 2.854149 1_555
Ba10 O0 2.874702 1_554
Ba10 O3 2.876965 1_554
Ba10 O32 2.886252 1_554
Ba10 O33 2.908343 1_554
Ba10 O7 2.913143 1_554
Ba10 O39 2.963876 1_554
Ba11 O41 2.787634 1_555
Ba11 O48 2.817056 1_555
Ba11 O28 2.819647 1_555
Ba11 O27 2.846230 1_555
Ba11 O31 2.865964 1_555
Ba11 O35 2.867934 1_555
Ba11 O1 2.888262 1_455
Ba11 O0 2.912025 1_455
Ba11 O3 2.928348 1_455
Ba11 O57 2.983502 1_456
Ba11 O54 3.045413 1_556
Ba12 O29 2.757990 1_555
Ba12 O49 2.781226 1_555
Ba12 O40 2.789841 1_555
Ba12 O34 2.869499 1_555
Ba12 O30 2.870940 1_555
Ba12 O25 2.883421 1_555
Ba12 O51 2.889094 1_555
Ba12 O45 2.912042 1_555
Ba12 O47 2.917038 1_555
Ba12 O33 3.016005 1_554
Ba12 O39 3.032179 1_554
Ba13 O37 2.884067 1_555
Ba13 O28 2.897459 1_555
Ba13 O24 2.904377 1_555
Ba13 O2 2.911065 1_455
Ba13 O48 2.919254 1_555
Ba13 O40 2.932023 1_555
Ba13 O29 2.944789 1_555
Ba13 O49 2.953207 1_555
Ba13 O44 2.966188 1_555
Ba13 O0 3.024829 1_455
Ba13 O35 3.038858 1_555
Ba13 O42 3.075495 1_555
Ba14 O36 2.866695 1_555
Ba14 O23 2.872399 1_555
Ba14 O29 2.890617 1_555
Ba14 O49 2.921905 1_555
Ba14 O50 2.930046 1_555
Ba14 O43 2.939897 1_555
Ba14 O28 2.945058 1_555
Ba14 O48 2.950457 1_555
Ba14 O34 3.011754 1_555
Ba14 O41 3.032196 1_555
Ba14 O45 3.046105 1_555
Ba14 O38 3.047550 1_555
Ba15 O38 2.819896 1_555
Ba15 O47 2.831988 1_565
Ba15 O52 2.846914 1_565
Ba15 O46 2.855766 1_554
Ba15 O11 2.860000 1_564
Ba15 O30 2.864572 1_565
Ba15 O20 2.867757 1_554
Ba15 O33 2.868178 1_564
Ba15 O6 2.910225 1_554
Ba15 O32 2.924825 1_554
Ba15 O26 2.948401 1_555
Ba16 O8 2.827110 1_455
Ba16 O43 2.830555 1_555
Ba16 O38 2.857662 1_555
Ba16 O50 2.881078 1_555
Ba16 O47 2.887720 1_565
Ba16 O53 2.898868 1_565
Ba16 O45 2.900733 1_555
Ba16 O56 2.939836 1_555
Ba16 O54 3.040548 1_555
Ba16 O46 3.042723 1_554
Ba16 O10 3.059876 1_455
Ba16 O52 3.146882 1_565
Ba17 O43 2.873747 1_545
Ba17 O5 2.874319 1_455
Ba17 O2 2.876241 1_455
Ba17 O49 2.883463 1_555
Ba17 O40 2.892748 1_555
Ba17 O44 2.963272 1_555
Ba17 O12 2.969362 1_455
Ba17 O8 2.971632 1_445
Ba17 O53 3.023694 1_555
Ba17 O9 3.044010 1_455
Ba17 O47 3.046759 1_555
Ba17 O51 3.129464 1_555
Ba18 O17 2.767753 1_555
Ba18 O27 2.828323 1_555
Ba18 O35 2.846762 1_555
Ba18 O51 2.848474 1_556
Ba18 O46 2.861289 1_555
Ba18 O45 2.862598 1_556
Ba18 O39 2.865617 1_555
Ba18 O56 2.884703 1_556
Ba18 O54 2.888363 1_556
Ba18 O55 2.899984 1_556
Ba18 O57 2.968983 1_456
Ba19 O1 2.789038 1_445
Ba19 O42 2.819270 1_555
Ba19 O31 2.849972 1_545
Ba19 O55 2.854040 1_556
Ba19 O10 2.855012 1_446
Ba19 O19 2.863506 1_456
Ba19 O53 2.874629 1_556
Ba19 O26 2.886697 1_446
Ba19 O18 2.894756 1_455
Ba19 O54 2.894891 1_546
Ba19 O52 2.965340 1_556
O0 V1 1.848612 1_555
O0 V12 2.170843 1_655
O1 V0 1.927128 1_555
O1 V16 2.077163 1_655
O2 V18 1.898394 1_655
O2 V1 2.099311 1_555
O3 V1 1.948294 1_555
O3 V0 2.024860 1_555
O4 V18 1.964788 1_655
O4 V1 2.032428 1_555
O5 V19 1.975749 1_655
O5 V18 2.009319 1_655
O6 V0 1.859846 1_555
O6 V5 2.057398 1_565
O7 V2 1.855481 1_555
O7 V1 2.011289 1_555
O8 V6 1.987709 1_555
O8 V4 1.999991 1_555
O9 V5 1.977562 1_555
O9 V6 2.000004 1_545
O10 V3 1.911464 1_555
O10 V4 2.082464 1_555
O11 V2 1.969623 1_555
O11 V5 2.022877 1_555
O12 V6 1.922712 1_545
O12 V4 2.052357 1_545
O13 V6 1.895851 1_555
O13 V5 2.090219 1_565
O14 V6 1.965732 1_555
O14 V4 1.983163 1_555
O15 V5 1.976222 1_555
O15 V6 1.982386 1_545
O16 V9 1.986859 1_555
O16 V3 2.039740 1_555
O17 V11 1.975021 1_555
O17 V2 2.067433 1_555
O18 V8 1.973389 1_556
O18 V12 2.015061 1_655
O19 V4 1.824501 1_545
O19 V8 2.182549 1_555
O20 V5 1.835493 1_565
O20 V7 2.165628 1_555
O21 V10 1.924879 1_555
O21 V9 2.087391 1_555
O22 V10 1.977183 1_555
O22 V11 2.046610 1_555
O23 V9 1.980430 1_555
O23 V10 1.987717 1_555
O24 V11 1.981452 1_555
O24 V10 1.983199 1_555
O25 V9 1.877876 1_555
O25 V8 2.120525 1_555
O26 V8 1.996750 1_565
O26 V0 2.008980 1_554
O27 V11 1.845590 1_555
O27 V7 2.119260 1_555
O28 V10 1.906166 1_555
O28 V11 2.107257 1_555
O29 V10 1.973688 1_555
O29 V9 2.028054 1_555
O30 V14 1.835314 1_555
O30 V8 2.128653 1_555
O31 V16 1.977290 1_555
O31 V7 2.034177 1_555
O32 V0 1.843811 1_555
O32 V13 2.225307 1_556
O33 V2 1.911821 1_555
O33 V8 2.140342 1_556
O34 V9 1.979274 1_555
O34 V13 2.046522 1_555
O35 V11 1.990298 1_555
O35 V12 2.002885 1_555
O36 V15 1.988623 1_565
O36 V14 2.015218 1_565
O37 V15 1.920579 1_555
O37 V16 2.067414 1_545
O38 V14 1.982240 1_565
O38 V13 1.993155 1_555
O39 V2 1.873351 1_555
O39 V13 2.178727 1_556
O40 V15 1.970117 1_555
O40 V14 2.018514 1_555
O41 V16 1.957439 1_555
O41 V15 2.009486 1_565
O42 V16 1.846583 1_545
O42 V12 2.134952 1_555
O43 V15 1.904046 1_565
O43 V14 2.102498 1_565
O44 V15 1.975262 1_555
O44 V16 2.052258 1_545
O45 V19 1.830073 1_555
O45 V13 2.135342 1_555
O46 V13 2.023225 1_556
O46 V7 2.025236 1_555
O47 V14 2.011282 1_555
O47 V17 2.037538 1_555
O48 V18 1.962964 1_555
O48 V1 1.991862 1_455
O49 V18 1.969299 1_555
O49 V19 1.987411 1_555
O50 V18 1.943271 1_555
O50 V19 2.030626 1_555
O51 V17 1.908228 1_555
O51 V19 2.104529 1_555
O52 V17 1.844347 1_555
O52 V7 2.237297 1_544
O53 V17 1.853165 1_555
O53 V4 1.998197 1_445
O54 V7 2.000423 1_554
O54 V3 2.017745 1_455
O55 V12 2.026253 1_554
O55 V17 2.030596 1_555
O56 V3 1.855754 1_455
O56 V19 2.013396 1_555
O57 V3 1.840418 1_555
O57 V12 2.232700 1_654
