# generated using pymatgen
data_Li2FeBO4
_symmetry_space_group_name_H-M   'P 1'
_cell_length_a   4.82327700
_cell_length_b   6.18018700
_cell_length_c   10.25800100
_cell_angle_alpha   90.00000000
_cell_angle_beta   90.00000000
_cell_angle_gamma   90.00000000
_symmetry_Int_Tables_number   1
_chemical_formula_structural   Li2FeBO4
_chemical_formula_sum   'Li8 Fe4 B4 O16'
_cell_volume   305.77822642
_cell_formula_units_Z   4
loop_
 _symmetry_equiv_pos_site_id
 _symmetry_equiv_pos_as_xyz
  1  'x, y, z'
loop_
 _atom_site_type_symbol
 _atom_site_label
 _atom_site_symmetry_multiplicity
 _atom_site_fract_x
 _atom_site_fract_y
 _atom_site_fract_z
 _atom_site_occupancy
  Li  Li0  1  0.75805600  0.00342100  0.15763700  1
  Li  Li1  1  0.75596400  0.23492900  0.92562300  1
  Li  Li2  1  0.75596400  0.26507100  0.42562300  1
  Li  Li3  1  0.75805600  0.49657900  0.65763700  1
  Li  Li4  1  0.25805600  0.50342100  0.34236300  1
  Li  Li5  1  0.25596400  0.73492900  0.57437700  1
  Li  Li6  1  0.25596400  0.76507100  0.07437700  1
  Li  Li7  1  0.25805600  0.99657900  0.84236300  1
  Fe  Fe0  1  0.25990100  0.01054700  0.33828300  1
  Fe  Fe1  1  0.25990100  0.48945300  0.83828300  1
  Fe  Fe2  1  0.75990100  0.51054700  0.16171700  1
  Fe  Fe3  1  0.75990100  0.98945300  0.66171700  1
  B  B0  1  0.26520000  0.24381100  0.58976600  1
  B  B1  1  0.26520000  0.25618900  0.08976600  1
  B  B2  1  0.76520000  0.74381100  0.91023400  1
  B  B3  1  0.76520000  0.75618900  0.41023400  1
  O  O0  1  0.15327300  0.04255300  0.65563000  1
  O  O1  1  0.16468900  0.05590100  0.15854800  1
  O  O2  1  0.17265200  0.25091000  0.94995300  1
  O  O3  1  0.57339000  0.23788400  0.59698900  1
  O  O4  1  0.57339000  0.26211600  0.09698900  1
  O  O5  1  0.17265200  0.24909000  0.44995300  1
  O  O6  1  0.16468900  0.44409900  0.65854800  1
  O  O7  1  0.15327300  0.45744700  0.15563000  1
  O  O8  1  0.65327300  0.54255300  0.84437000  1
  O  O9  1  0.66468900  0.55590100  0.34145200  1
  O  O10  1  0.67265200  0.75091000  0.55004700  1
  O  O11  1  0.07339000  0.73788400  0.90301100  1
  O  O12  1  0.07339000  0.76211600  0.40301100  1
  O  O13  1  0.67265200  0.74909000  0.05004700  1
  O  O14  1  0.66468900  0.94409900  0.84145200  1
  O  O15  1  0.65327300  0.95744700  0.34437000  1
loop_
_geom_bond_atom_site_label_1
_geom_bond_atom_site_label_2
_geom_bond_distance
_geom_bond_site_symmetry_2
Li0 O4 1.933000 1_555
Li0 O13 1.964266 1_545
Li0 O1 1.987962 1_655
Li0 O15 2.001330 1_545
Li1 O4 1.973274 1_556
Li1 O2 2.027645 1_655
Li1 O14 2.042035 1_545
Li1 O8 2.134128 1_555
Li2 O3 1.973274 1_555
Li2 O5 2.027645 1_655
Li2 O9 2.042035 1_555
Li2 O15 2.134128 1_545
Li3 O3 1.933000 1_555
Li3 O10 1.964266 1_555
Li3 O6 1.987962 1_655
Li3 O8 2.001330 1_555
Li4 O12 1.933000 1_555
Li4 O5 1.964266 1_555
Li4 O9 1.987962 1_555
Li4 O7 2.001330 1_555
Li5 O12 1.973274 1_555
Li5 O10 2.027645 1_555
Li5 O6 2.042035 1_555
Li5 O0 2.134128 1_565
Li6 O11 1.973274 1_554
Li6 O13 2.027645 1_555
Li6 O1 2.042035 1_565
Li6 O7 2.134128 1_555
Li7 O11 1.933000 1_555
Li7 O2 1.964266 1_565
Li7 O14 1.987962 1_555
Li7 O0 2.001330 1_565
Fe0 O12 1.899326 1_545
Fe0 O5 1.913812 1_555
Fe0 O1 1.920618 1_555
Fe0 O15 1.926525 1_545
Fe1 O11 1.899326 1_555
Fe1 O2 1.913812 1_555
Fe1 O6 1.920618 1_555
Fe1 O8 1.926525 1_555
Fe2 O4 1.899326 1_555
Fe2 O13 1.913812 1_555
Fe2 O9 1.920618 1_555
Fe2 O7 1.926525 1_655
Fe3 O3 1.899326 1_565
Fe3 O10 1.913812 1_555
Fe3 O14 1.920618 1_555
Fe3 O0 1.926525 1_665
B0 O3 1.488782 1_555
B0 O5 1.502418 1_555
B0 O6 1.505004 1_555
B0 O0 1.514923 1_555
B1 O4 1.488782 1_555
B1 O2 1.502418 1_554
B1 O1 1.505004 1_555
B1 O7 1.514923 1_555
B2 O11 1.488782 1_655
B2 O13 1.502418 1_556
B2 O14 1.505004 1_555
B2 O8 1.514923 1_555
B3 O12 1.488782 1_655
B3 O10 1.502418 1_555
B3 O9 1.505004 1_555
B3 O15 1.514923 1_555
