# generated using pymatgen
data_Dy2Zr2O7
_symmetry_space_group_name_H-M   'P 1'
_cell_length_a   7.48601363
_cell_length_b   7.48601363
_cell_length_c   7.48601363
_cell_angle_alpha   60.00000000
_cell_angle_beta   60.00000000
_cell_angle_gamma   60.00000000
_symmetry_Int_Tables_number   1
_chemical_formula_structural   Dy2Zr2O7
_chemical_formula_sum   'Dy4 Zr4 O14'
_cell_volume   296.64486996
_cell_formula_units_Z   2
loop_
 _symmetry_equiv_pos_site_id
 _symmetry_equiv_pos_as_xyz
  1  'x, y, z'
loop_
 _atom_site_type_symbol
 _atom_site_label
 _atom_site_symmetry_multiplicity
 _atom_site_fract_x
 _atom_site_fract_y
 _atom_site_fract_z
 _atom_site_occupancy
  Dy  Dy0  1  0.62500000  0.62500000  0.62500000  1
  Dy  Dy1  1  0.12500000  0.62500000  0.62500000  1
  Dy  Dy2  1  0.62500000  0.12500000  0.62500000  1
  Dy  Dy3  1  0.62500000  0.62500000  0.12500000  1
  Zr  Zr0  1  0.12500000  0.12500000  0.62500000  1
  Zr  Zr1  1  0.12500000  0.62500000  0.12500000  1
  Zr  Zr2  1  0.62500000  0.12500000  0.12500000  1
  Zr  Zr3  1  0.12500000  0.12500000  0.12500000  1
  O  O0  1  0.50000000  0.50000000  0.50000000  1
  O  O1  1  0.75000000  0.75000000  0.75000000  1
  O  O2  1  0.21610800  0.78389200  0.78389200  1
  O  O3  1  0.21610800  0.21610800  0.78389200  1
  O  O4  1  0.78389200  0.21610800  0.78389200  1
  O  O5  1  0.78389200  0.78389200  0.21610800  1
  O  O6  1  0.21610800  0.78389200  0.21610800  1
  O  O7  1  0.46610800  0.03389200  0.03389200  1
  O  O8  1  0.78389200  0.21610800  0.21610800  1
  O  O9  1  0.03389200  0.46610800  0.03389200  1
  O  O10  1  0.46610800  0.03389200  0.46610800  1
  O  O11  1  0.46610800  0.46610800  0.03389200  1
  O  O12  1  0.03389200  0.03389200  0.46610800  1
  O  O13  1  0.03389200  0.46610800  0.46610800  1
loop_
_geom_bond_atom_site_label_1
_geom_bond_atom_site_label_2
_geom_bond_distance
_geom_bond_site_symmetry_2
Dy0 O0 2.292114 1_555
Dy0 O1 2.292114 1_555
Dy0 O5 2.516385 1_555
Dy0 O2 2.516385 1_555
Dy0 O4 2.516385 1_555
Dy0 O10 2.516385 1_565
Dy0 O13 2.516385 1_655
Dy0 O11 2.516385 1_556
Dy1 O0 2.292114 1_555
Dy1 O1 2.292114 1_455
Dy1 O2 2.516385 1_555
Dy1 O9 2.516385 1_556
Dy1 O3 2.516385 1_555
Dy1 O12 2.516385 1_565
Dy1 O6 2.516385 1_555
Dy1 O13 2.516385 1_555
Dy2 O1 2.292114 1_545
Dy2 O0 2.292114 1_555
Dy2 O4 2.516385 1_555
Dy2 O7 2.516385 1_556
Dy2 O12 2.516385 1_655
Dy2 O8 2.516385 1_555
Dy2 O3 2.516385 1_555
Dy2 O10 2.516385 1_555
Dy3 O0 2.292114 1_555
Dy3 O1 2.292114 1_554
Dy3 O5 2.516385 1_555
Dy3 O9 2.516385 1_655
Dy3 O6 2.516385 1_555
Dy3 O8 2.516385 1_555
Dy3 O7 2.516385 1_565
Dy3 O11 2.516385 1_555
O2 Zr1 2.105438 1_556
O2 Zr0 2.105438 1_565
O3 Zr0 2.105438 1_555
O3 Zr3 2.105438 1_556
O4 Zr2 2.105438 1_556
O4 Zr0 2.105438 1_655
O5 Zr2 2.105438 1_565
O5 Zr1 2.105438 1_655
O6 Zr1 2.105438 1_555
O6 Zr3 2.105438 1_565
O7 Zr3 2.105438 1_555
O7 Zr2 2.105438 1_555
O8 Zr2 2.105438 1_555
O8 Zr3 2.105438 1_655
O9 Zr3 2.105438 1_555
O9 Zr1 2.105438 1_555
O10 Zr0 2.105438 1_555
O10 Zr2 2.105438 1_555
O11 Zr1 2.105438 1_555
O11 Zr2 2.105438 1_555
O12 Zr3 2.105438 1_555
O12 Zr0 2.105438 1_555
O13 Zr0 2.105438 1_555
O13 Zr1 2.105438 1_555
