# generated using pymatgen
data_Li8NbS6
_symmetry_space_group_name_H-M   'P 1'
_cell_length_a   6.96355429
_cell_length_b   6.96355429
_cell_length_c   13.48645900
_cell_angle_alpha   90.00000000
_cell_angle_beta   90.00000000
_cell_angle_gamma   120.00000276
_symmetry_Int_Tables_number   1
_chemical_formula_structural   Li8NbS6
_chemical_formula_sum   'Li16 Nb2 S12'
_cell_volume   566.35728057
_cell_formula_units_Z   2
loop_
 _symmetry_equiv_pos_site_id
 _symmetry_equiv_pos_as_xyz
  1  'x, y, z'
loop_
 _atom_site_type_symbol
 _atom_site_label
 _atom_site_symmetry_multiplicity
 _atom_site_fract_x
 _atom_site_fract_y
 _atom_site_fract_z
 _atom_site_occupancy
  Li  Li0  1  0.00000000  0.68099100  0.76572300  1
  Li  Li1  1  0.00000000  0.62261200  0.13135700  1
  Li  Li2  1  0.00000000  0.37738800  0.63135700  1
  Li  Li3  1  0.00000000  0.31900900  0.26572300  1
  Li  Li4  1  0.33333300  0.66666700  0.39950500  1
  Li  Li5  1  0.33333300  0.66666700  0.89950500  1
  Li  Li6  1  0.31900900  0.31900900  0.76572300  1
  Li  Li7  1  0.37738800  0.37738800  0.13135700  1
  Li  Li8  1  0.62261200  0.62261200  0.63135700  1
  Li  Li9  1  0.31900900  0.00000000  0.26572300  1
  Li  Li10  1  0.68099100  0.68099100  0.26572300  1
  Li  Li11  1  0.37738800  0.00000000  0.63135700  1
  Li  Li12  1  0.66666700  0.33333300  0.89950500  1
  Li  Li13  1  0.66666700  0.33333300  0.39950500  1
  Li  Li14  1  0.62261200  0.00000000  0.13135700  1
  Li  Li15  1  0.68099100  0.00000000  0.76572300  1
  Nb  Nb0  1  0.00000000  0.00000000  0.99801000  1
  Nb  Nb1  1  0.00000000  0.00000000  0.49801000  1
  S  S0  1  0.00000000  0.67809800  0.94993300  1
  S  S1  1  0.00000000  0.32190200  0.44993300  1
  S  S2  1  0.33333300  0.66666700  0.21567500  1
  S  S3  1  0.00000000  0.00000000  0.17542900  1
  S  S4  1  0.00000000  0.00000000  0.67542900  1
  S  S5  1  0.33333300  0.66666700  0.71567500  1
  S  S6  1  0.32190200  0.32190200  0.94993300  1
  S  S7  1  0.32190200  0.00000000  0.44993300  1
  S  S8  1  0.67809800  0.67809800  0.44993300  1
  S  S9  1  0.66666700  0.33333300  0.71567500  1
  S  S10  1  0.66666700  0.33333300  0.21567500  1
  S  S11  1  0.67809800  0.00000000  0.94993300  1
loop_
_geom_bond_atom_site_label_1
_geom_bond_atom_site_label_2
_geom_bond_distance
_geom_bond_site_symmetry_2
Li0 S5 2.466769 1_555
Li0 S9 2.466773 1_455
Li0 S0 2.484422 1_555
Li0 S4 2.533315 1_565
Li1 S2 2.462321 1_555
Li1 S10 2.462323 1_455
Li1 S0 2.477087 1_554
Li1 S3 2.694339 1_565
Li2 S9 2.462321 1_455
Li2 S5 2.462323 1_555
Li2 S1 2.477087 1_555
Li2 S4 2.694339 1_555
Li3 S10 2.466769 1_455
Li3 S2 2.466773 1_555
Li3 S1 2.484422 1_555
Li3 S3 2.533315 1_555
Li4 S7 2.457950 1_565
Li4 S1 2.457954 1_555
Li4 S8 2.457957 1_555
Li4 S2 2.479216 1_555
Li5 S0 2.457950 1_555
Li5 S11 2.457954 1_565
Li5 S6 2.457957 1_555
Li5 S5 2.479216 1_555
Li6 S9 2.466776 1_555
Li6 S5 2.466776 1_555
Li6 S6 2.484422 1_555
Li6 S4 2.533315 1_555
Li7 S2 2.462327 1_555
Li7 S10 2.462327 1_555
Li7 S6 2.477087 1_554
Li7 S3 2.694339 1_555
Li8 S5 2.462327 1_555
Li8 S9 2.462327 1_555
Li8 S8 2.477087 1_555
Li8 S4 2.694339 1_665
Li9 S2 2.466769 1_545
Li9 S10 2.466773 1_555
Li9 S7 2.484422 1_555
Li9 S3 2.533315 1_555
Li10 S2 2.466776 1_555
Li10 S10 2.466776 1_555
Li10 S8 2.484422 1_555
Li10 S3 2.533315 1_665
Li11 S5 2.462321 1_545
Li11 S9 2.462323 1_555
Li11 S7 2.477087 1_555
Li11 S4 2.694339 1_555
Li12 S11 2.457950 1_555
Li12 S0 2.457954 1_655
Li12 S6 2.457957 1_555
Li12 S9 2.479216 1_555
Li13 S1 2.457950 1_655
Li13 S7 2.457954 1_555
Li13 S8 2.457957 1_555
Li13 S10 2.479216 1_555
Li14 S10 2.462321 1_555
Li14 S2 2.462323 1_545
Li14 S11 2.477087 1_554
Li14 S3 2.694339 1_655
Li15 S9 2.466769 1_555
Li15 S5 2.466773 1_545
Li15 S11 2.484422 1_555
Li15 S4 2.533315 1_655
Nb0 S6 2.333473 1_555
Nb0 S11 2.333473 1_455
Nb0 S0 2.333473 1_545
Nb0 S3 2.392754 1_556
Nb1 S8 2.333473 1_445
Nb1 S7 2.333473 1_555
Nb1 S1 2.333473 1_555
Nb1 S4 2.392754 1_555
