# generated using pymatgen
data_Li5Nb2Fe5O12
_symmetry_space_group_name_H-M   'P 1'
_cell_length_a   5.21769816
_cell_length_b   5.21769816
_cell_length_c   10.09267755
_cell_angle_alpha   84.57451634
_cell_angle_beta   84.57451634
_cell_angle_gamma   120.97661991
_symmetry_Int_Tables_number   1
_chemical_formula_structural   Li5Nb2Fe5O12
_chemical_formula_sum   'Li5 Nb2 Fe5 O12'
_cell_volume   231.19855434
_cell_formula_units_Z   1
loop_
 _symmetry_equiv_pos_site_id
 _symmetry_equiv_pos_as_xyz
  1  'x, y, z'
loop_
 _atom_site_type_symbol
 _atom_site_label
 _atom_site_symmetry_multiplicity
 _atom_site_fract_x
 _atom_site_fract_y
 _atom_site_fract_z
 _atom_site_occupancy
  Li  Li0  1  0.16701800  0.31613500  0.74423800  1
  Li  Li1  1  0.31563700  0.17608100  0.25839800  1
  Li  Li2  1  0.68386500  0.83298200  0.25576200  1
  Li  Li3  1  0.82391900  0.68436300  0.74160200  1
  Li  Li4  1  0.92367000  0.07633000  0.50000000  1
  Nb  Nb0  1  0.24990100  0.75009900  0.50000000  1
  Nb  Nb1  1  0.73566200  0.26433800  0.00000000  1
  Fe  Fe0  1  0.08757700  0.91242300  0.00000000  1
  Fe  Fe1  1  0.99625600  0.49952500  0.26475100  1
  Fe  Fe2  1  0.50047500  0.00374400  0.73524900  1
  Fe  Fe3  1  0.44267600  0.55732400  0.00000000  1
  Fe  Fe4  1  0.59051200  0.40948800  0.50000000  1
  O  O0  1  0.97456500  0.80438600  0.37734700  1
  O  O1  1  0.19561400  0.02543500  0.62265300  1
  O  O2  1  0.12158700  0.61819200  0.87847600  1
  O  O3  1  0.38180800  0.87841300  0.12152400  1
  O  O4  1  0.29031800  0.46700600  0.37893600  1
  O  O5  1  0.53299400  0.70968200  0.62106400  1
  O  O6  1  0.47856300  0.29580500  0.86116300  1
  O  O7  1  0.70419500  0.52143700  0.13883700  1
  O  O8  1  0.61920800  0.11213200  0.37887000  1
  O  O9  1  0.88786800  0.38079200  0.62113000  1
  O  O10  1  0.78565500  0.96773800  0.88298200  1
  O  O11  1  0.03226200  0.21434500  0.11701800  1
loop_
_geom_bond_atom_site_label_1
_geom_bond_atom_site_label_2
_geom_bond_distance
_geom_bond_site_symmetry_2
Li0 O1 2.092612 1_555
Li0 O5 2.107228 1_555
Li0 O10 2.119689 1_445
Li0 O9 2.132559 1_455
Li0 O6 2.136080 1_555
Li0 O2 2.259039 1_555
Li1 O0 1.993101 1_445
Li1 O7 2.044272 1_555
Li1 O4 2.080118 1_555
Li1 O11 2.216083 1_555
Li1 O8 2.220380 1_555
Li1 O3 2.303761 1_545
Li2 O0 2.092612 1_555
Li2 O4 2.107228 1_555
Li2 O11 2.119689 1_665
Li2 O8 2.132559 1_565
Li2 O7 2.136080 1_555
Li2 O3 2.259039 1_555
Li3 O1 1.993101 1_665
Li3 O6 2.044272 1_555
Li3 O5 2.080118 1_555
Li3 O10 2.216083 1_555
Li3 O9 2.220380 1_555
Li3 O2 2.303761 1_655
Li4 O1 2.067392 1_655
Li4 O0 2.067392 1_545
Li4 O4 2.093017 1_655
Li4 O5 2.093017 1_545
Li4 O9 2.163938 1_555
Li4 O8 2.163938 1_555
Nb0 O9 2.036380 1_455
Nb0 O8 2.036380 1_565
Nb0 O4 2.081449 1_555
Nb0 O5 2.081449 1_555
Nb0 O0 2.089347 1_455
Nb0 O1 2.089347 1_565
Nb1 O3 2.060493 1_545
Nb1 O2 2.060493 1_654
Nb1 O7 2.080534 1_555
Nb1 O6 2.080534 1_554
Nb1 O10 2.135589 1_544
Nb1 O11 2.135589 1_655
Fe0 O3 2.118491 1_555
Fe0 O2 2.118491 1_554
Fe0 O11 2.171452 1_565
Fe0 O10 2.171452 1_454
Fe0 O6 2.203495 1_564
Fe0 O7 2.203495 1_455
Fe1 O4 2.067952 1_655
Fe1 O8 2.078577 1_555
Fe1 O0 2.082610 1_555
Fe1 O7 2.113844 1_555
Fe1 O3 2.204684 1_655
Fe1 O11 2.264258 1_655
Fe2 O5 2.067952 1_545
Fe2 O9 2.078577 1_555
Fe2 O1 2.082610 1_555
Fe2 O6 2.113844 1_555
Fe2 O2 2.204684 1_545
Fe2 O10 2.264258 1_545
Fe3 O11 2.088137 1_555
Fe3 O10 2.088137 1_554
Fe3 O6 2.106045 1_554
Fe3 O7 2.106045 1_555
Fe3 O3 2.296643 1_555
Fe3 O2 2.296643 1_554
Fe4 O8 2.118344 1_555
Fe4 O9 2.118344 1_555
Fe4 O1 2.142844 1_555
Fe4 O0 2.142844 1_555
Fe4 O5 2.193814 1_555
Fe4 O4 2.193814 1_555
