# generated using pymatgen
data_Ba(MgGe)2
_symmetry_space_group_name_H-M   'P 1'
_cell_length_a   4.66698911
_cell_length_b   4.66698922
_cell_length_c   6.58286163
_cell_angle_alpha   110.76159924
_cell_angle_beta   110.76160783
_cell_angle_gamma   89.99999909
_symmetry_Int_Tables_number   1
_chemical_formula_structural   Ba(MgGe)2
_chemical_formula_sum   'Ba1 Mg2 Ge2'
_cell_volume   124.06193124
_cell_formula_units_Z   1
loop_
 _symmetry_equiv_pos_site_id
 _symmetry_equiv_pos_as_xyz
  1  'x, y, z'
loop_
 _atom_site_type_symbol
 _atom_site_label
 _atom_site_symmetry_multiplicity
 _atom_site_fract_x
 _atom_site_fract_y
 _atom_site_fract_z
 _atom_site_occupancy
  Ba  Ba0  1  0.00000000  -0.00000000  0.00000000  1
  Mg  Mg0  1  0.75000000  0.25000000  0.50000000  1
  Mg  Mg1  1  0.25000000  0.75000000  0.50000000  1
  Ge  Ge0  1  0.61633451  0.61633451  0.23267003  1
  Ge  Ge1  1  0.38366549  0.38366549  0.76732997  1
loop_
_geom_bond_atom_site_label_1
_geom_bond_atom_site_label_2
_geom_bond_distance
_geom_bond_site_symmetry_2
Ba0 Ge1 3.556223 1_444
Ba0 Ge0 3.556223 1_555
Ba0 Ge1 3.556226 1_454
Ba0 Ge0 3.556226 1_545
Ba0 Ge1 3.556226 1_544
Ba0 Ge0 3.556226 1_455
Ba0 Ge0 3.556229 1_445
Ba0 Ge1 3.556229 1_554
Ba0 Mg1 3.681862 1_444
Ba0 Mg0 3.681862 1_555
Ba0 Mg0 3.681863 1_444
Ba0 Mg1 3.681863 1_555
Ba0 Mg0 3.681863 1_454
Ba0 Mg1 3.681863 1_545
Ba0 Mg0 3.681863 1_455
Ba0 Mg1 3.681863 1_544
Ge0 Ge1 2.650546 1_554
Ge0 Mg0 2.786357 1_555
Ge0 Mg1 2.786357 1_555
Ge0 Mg1 2.786360 1_655
Ge0 Mg0 2.786360 1_565
Ge1 Mg1 2.786357 1_555
Ge1 Mg0 2.786357 1_555
Ge1 Mg0 2.786360 1_455
Ge1 Mg1 2.786360 1_545
