# generated using pymatgen
data_Eu3ReO8
_symmetry_space_group_name_H-M   'P 1'
_cell_length_a   7.42652618
_cell_length_b   7.41882117
_cell_length_c   6.29236600
_cell_angle_alpha   90.00000000
_cell_angle_beta   90.00000000
_cell_angle_gamma   111.33709323
_symmetry_Int_Tables_number   1
_chemical_formula_structural   Eu3ReO8
_chemical_formula_sum   'Eu6 Re2 O16'
_cell_volume   322.92143657
_cell_formula_units_Z   2
loop_
 _symmetry_equiv_pos_site_id
 _symmetry_equiv_pos_as_xyz
  1  'x, y, z'
loop_
 _atom_site_type_symbol
 _atom_site_label
 _atom_site_symmetry_multiplicity
 _atom_site_fract_x
 _atom_site_fract_y
 _atom_site_fract_z
 _atom_site_occupancy
  Eu  Eu0  1  0.10986500  0.33143200  0.75000000  1
  Eu  Eu1  1  0.39471000  0.60264000  0.25000000  1
  Eu  Eu2  1  0.34228400  0.11006900  0.25000000  1
  Eu  Eu3  1  0.65771600  0.88993100  0.75000000  1
  Eu  Eu4  1  0.60529000  0.39736000  0.75000000  1
  Eu  Eu5  1  0.89013500  0.66856800  0.25000000  1
  Re  Re0  1  0.17241500  0.81953400  0.75000000  1
  Re  Re1  1  0.82758500  0.18046600  0.25000000  1
  O  O0  1  0.03633600  0.42080700  0.25000000  1
  O  O1  1  0.19415200  0.80618800  0.04839100  1
  O  O2  1  0.19415200  0.80618800  0.45160900  1
  O  O3  1  0.98278400  0.03912800  0.25000000  1
  O  O4  1  0.33797600  0.65567300  0.75000000  1
  O  O5  1  0.33612600  0.33490300  0.00109800  1
  O  O6  1  0.33612600  0.33490300  0.49890200  1
  O  O7  1  0.59133100  0.96526600  0.25000000  1
  O  O8  1  0.40866900  0.03473400  0.75000000  1
  O  O9  1  0.66387400  0.66509700  0.99890200  1
  O  O10  1  0.66387400  0.66509700  0.50109800  1
  O  O11  1  0.66202400  0.34432700  0.25000000  1
  O  O12  1  0.01721600  0.96087200  0.75000000  1
  O  O13  1  0.80584800  0.19381200  0.95160900  1
  O  O14  1  0.80584800  0.19381200  0.54839100  1
  O  O15  1  0.96366400  0.57919300  0.75000000  1
loop_
_geom_bond_atom_site_label_1
_geom_bond_atom_site_label_2
_geom_bond_distance
_geom_bond_site_symmetry_2
Eu0 O5 2.299804 1_556
Eu0 O6 2.299804 1_555
Eu0 O4 2.385536 1_555
Eu0 O15 2.451488 1_455
Eu0 O13 2.464117 1_455
Eu0 O14 2.464117 1_455
Eu0 O12 2.579646 1_545
Eu1 O6 2.441045 1_555
Eu1 O5 2.441045 1_555
Eu1 O10 2.456194 1_555
Eu1 O9 2.456194 1_554
Eu1 O0 2.508091 1_555
Eu1 O7 2.551668 1_555
Eu1 O2 2.782970 1_555
Eu1 O1 2.782970 1_555
Eu2 O6 2.300601 1_555
Eu2 O5 2.300601 1_555
Eu2 O11 2.378189 1_555
Eu2 O7 2.453731 1_545
Eu2 O2 2.469263 1_545
Eu2 O1 2.469263 1_545
Eu2 O3 2.526359 1_455
Eu3 O9 2.300601 1_555
Eu3 O10 2.300601 1_555
Eu3 O4 2.378189 1_555
Eu3 O8 2.453731 1_565
Eu3 O13 2.469263 1_565
Eu3 O14 2.469263 1_565
Eu3 O12 2.526359 1_655
Eu4 O9 2.441045 1_555
Eu4 O10 2.441045 1_555
Eu4 O5 2.456194 1_556
Eu4 O6 2.456194 1_555
Eu4 O15 2.508091 1_555
Eu4 O8 2.551668 1_555
Eu4 O13 2.782970 1_555
Eu4 O14 2.782970 1_555
Eu5 O10 2.299804 1_555
Eu5 O9 2.299804 1_554
Eu5 O11 2.385536 1_555
Eu5 O0 2.451488 1_655
Eu5 O2 2.464117 1_655
Eu5 O1 2.464117 1_655
Eu5 O3 2.579646 1_565
O0 Re1 1.889736 1_455
O1 Re0 1.890191 1_554
O2 Re0 1.890191 1_555
O3 Re1 1.818632 1_555
O4 Re0 2.019233 1_555
O7 Re1 1.894438 1_565
O8 Re0 1.894438 1_545
O11 Re1 2.019233 1_555
O12 Re0 1.818632 1_555
O13 Re1 1.890191 1_556
O14 Re1 1.890191 1_555
O15 Re0 1.889736 1_655
