# generated using pymatgen
data_CeHfO4
_symmetry_space_group_name_H-M   'P 1'
_cell_length_a   6.60674302
_cell_length_b   6.60674302
_cell_length_c   6.60674302
_cell_angle_alpha   132.58705588
_cell_angle_beta   132.58705588
_cell_angle_gamma   69.30340137
_symmetry_Int_Tables_number   1
_chemical_formula_structural   CeHfO4
_chemical_formula_sum   'Ce2 Hf2 O8'
_cell_volume   153.38615472
_cell_formula_units_Z   2
loop_
 _symmetry_equiv_pos_site_id
 _symmetry_equiv_pos_as_xyz
  1  'x, y, z'
loop_
 _atom_site_type_symbol
 _atom_site_label
 _atom_site_symmetry_multiplicity
 _atom_site_fract_x
 _atom_site_fract_y
 _atom_site_fract_z
 _atom_site_occupancy
  Ce  Ce0  1  0.25000000  0.75000000  0.50000000  1
  Ce  Ce1  1  0.50000000  0.50000000  0.00000000  1
  Hf  Hf0  1  0.00000000  0.00000000  0.00000000  1
  Hf  Hf1  1  0.75000000  0.25000000  0.50000000  1
  O  O0  1  0.09573900  0.14079400  0.53431200  1
  O  O1  1  0.89079400  0.85648100  0.54505400  1
  O  O2  1  0.31142700  0.34573900  0.45494600  1
  O  O3  1  0.14351900  0.68857300  0.03431200  1
  O  O4  1  0.60648100  0.56142700  0.46568800  1
  O  O5  1  0.43857300  0.90426100  0.04505400  1
  O  O6  1  0.85920600  0.39351900  0.95494600  1
  O  O7  1  0.65426100  0.10920600  0.96568800  1
loop_
_geom_bond_atom_site_label_1
_geom_bond_atom_site_label_2
_geom_bond_distance
_geom_bond_site_symmetry_2
Ce0 O5 2.327390 1_556
Ce0 O4 2.327390 1_555
Ce0 O6 2.327392 1_454
Ce0 O0 2.327396 1_565
Ce0 O1 2.389156 1_455
Ce0 O7 2.389159 1_565
Ce0 O3 2.389162 1_555
Ce0 O2 2.389162 1_555
Ce1 O2 2.327390 1_554
Ce1 O3 2.327390 1_555
Ce1 O1 2.327392 1_555
Ce1 O7 2.327396 1_554
Ce1 O6 2.389156 1_554
Ce1 O0 2.389159 1_554
Ce1 O4 2.389162 1_555
Ce1 O5 2.389162 1_555
Hf0 O7 2.035976 1_454
Hf0 O2 2.035976 1_555
Hf0 O3 2.035976 1_545
Hf0 O1 2.035980 1_444
Hf0 O0 2.583884 1_555
Hf0 O6 2.583886 1_454
Hf0 O5 2.583887 1_545
Hf0 O4 2.583887 1_444
Hf1 O0 2.035976 1_655
Hf1 O5 2.035976 1_545
Hf1 O4 2.035976 1_555
Hf1 O6 2.035980 1_555
Hf1 O7 2.583884 1_554
Hf1 O1 2.583886 1_545
Hf1 O2 2.583887 1_555
Hf1 O3 2.583887 1_656
