# generated using pymatgen
data_Li2Fe5(Si2O7)2
_symmetry_space_group_name_H-M   'P 1'
_cell_length_a   5.54416215
_cell_length_b   7.56731535
_cell_length_c   8.11193293
_cell_angle_alpha   114.82949834
_cell_angle_beta   91.54581701
_cell_angle_gamma   104.39187850
_symmetry_Int_Tables_number   1
_chemical_formula_structural   Li2Fe5(Si2O7)2
_chemical_formula_sum   'Li2 Fe5 Si4 O14'
_cell_volume   295.82038123
_cell_formula_units_Z   1
loop_
 _symmetry_equiv_pos_site_id
 _symmetry_equiv_pos_as_xyz
  1  'x, y, z'
loop_
 _atom_site_type_symbol
 _atom_site_label
 _atom_site_symmetry_multiplicity
 _atom_site_fract_x
 _atom_site_fract_y
 _atom_site_fract_z
 _atom_site_occupancy
  Li  Li0  1  0.23051400  0.10084000  0.45525000  1
  Li  Li1  1  0.76948900  0.89916400  0.54475600  1
  Fe  Fe0  1  0.07442300  0.38773900  0.81023400  1
  Fe  Fe1  1  0.92557600  0.61225200  0.18976400  1
  Fe  Fe2  1  0.00000100  0.99999900  0.00000300  1
  Fe  Fe3  1  0.63631000  0.58307800  0.70473600  1
  Fe  Fe4  1  0.36368000  0.41692000  0.29526400  1
  Si  Si0  1  0.49964100  0.22336100  0.86257000  1
  Si  Si1  1  0.50036000  0.77663700  0.13742800  1
  Si  Si2  1  0.78949400  0.21021900  0.39173600  1
  Si  Si3  1  0.21050800  0.78978300  0.60826400  1
  O  O0  1  0.88417800  0.18027200  0.56848200  1
  O  O1  1  0.11582100  0.81973200  0.43151900  1
  O  O2  1  0.79249600  0.33902500  0.96066600  1
  O  O3  1  0.20750200  0.66097700  0.03933700  1
  O  O4  1  0.52754200  0.01892400  0.27712200  1
  O  O5  1  0.47246500  0.98107600  0.72287400  1
  O  O6  1  0.40754900  0.32577900  0.73649800  1
  O  O7  1  0.59245000  0.67421800  0.26349900  1
  O  O8  1  0.02211600  0.18639100  0.26848200  1
  O  O9  1  0.97788800  0.81361200  0.73152100  1
  O  O10  1  0.69625400  0.41235400  0.43903300  1
  O  O11  1  0.30374600  0.58764600  0.56096500  1
  O  O12  1  0.31304500  0.22731500  0.01722200  1
  O  O13  1  0.68695100  0.77268700  0.98277400  1
loop_
_geom_bond_atom_site_label_1
_geom_bond_atom_site_label_2
_geom_bond_distance
_geom_bond_site_symmetry_2
Li0 O1 1.985846 1_545
Li0 O6 2.202964 1_555
Li0 O4 2.251135 1_555
Li0 O0 2.257690 1_455
Li0 O8 2.269482 1_555
Li1 O0 1.985859 1_565
Li1 O7 2.203032 1_555
Li1 O5 2.251067 1_555
Li1 O1 2.257683 1_655
Li1 O9 2.269471 1_555
Fe0 O0 1.975508 1_455
Fe0 O3 2.052793 1_556
Fe0 O6 2.059906 1_555
Fe0 O2 2.064560 1_455
Fe1 O1 1.975548 1_655
Fe1 O2 2.052730 1_554
Fe1 O7 2.059919 1_555
Fe1 O3 2.064547 1_655
Fe2 O8 2.016786 1_565
Fe2 O9 2.016798 1_454
Fe2 O13 2.071627 1_454
Fe2 O12 2.071649 1_565
Fe3 O13 2.066940 1_555
Fe3 O10 2.082933 1_555
Fe3 O6 2.162723 1_555
Fe3 O9 2.166583 1_555
Fe3 O11 2.170355 1_555
Fe4 O12 2.066962 1_555
Fe4 O11 2.082904 1_555
Fe4 O7 2.162747 1_555
Fe4 O8 2.166516 1_555
Fe4 O10 2.170386 1_555
O0 Si2 1.635228 1_555
O1 Si3 1.635235 1_555
O2 Si0 1.635362 1_555
O3 Si1 1.635364 1_555
O4 Si1 1.666417 1_545
O4 Si2 1.679542 1_555
O5 Si0 1.666415 1_565
O5 Si3 1.679548 1_555
O6 Si0 1.655732 1_555
O7 Si1 1.655727 1_555
O8 Si2 1.652042 1_455
O9 Si3 1.652048 1_655
O10 Si2 1.632500 1_555
O11 Si3 1.632506 1_555
O12 Si0 1.642816 1_554
O13 Si1 1.642815 1_556
