# generated using pymatgen
data_LiV2P4(HO8)2
_symmetry_space_group_name_H-M   'P 1'
_cell_length_a   7.74621200
_cell_length_b   7.90114646
_cell_length_c   9.76351283
_cell_angle_alpha   90.39907748
_cell_angle_beta   112.89319221
_cell_angle_gamma   89.86959476
_symmetry_Int_Tables_number   1
_chemical_formula_structural   LiV2P4(HO8)2
_chemical_formula_sum   'Li2 V4 P8 H4 O32'
_cell_volume   550.48292472
_cell_formula_units_Z   2
loop_
 _symmetry_equiv_pos_site_id
 _symmetry_equiv_pos_as_xyz
  1  'x, y, z'
loop_
 _atom_site_type_symbol
 _atom_site_label
 _atom_site_symmetry_multiplicity
 _atom_site_fract_x
 _atom_site_fract_y
 _atom_site_fract_z
 _atom_site_occupancy
  Li  Li0  1  0.34852500  0.36734600  0.22371000  1
  Li  Li1  1  0.64976500  0.63554300  0.77652100  1
  V  V0  1  0.98543800  0.50322100  0.24724700  1
  V  V1  1  0.50656700  0.98939800  0.25692200  1
  V  V2  1  0.00659200  0.49683300  0.74967200  1
  V  V3  1  0.49627300  0.00897900  0.74840600  1
  P  P0  1  0.77294300  0.85514600  0.07021700  1
  P  P1  1  0.26317700  0.65357000  0.06762600  1
  P  P2  1  0.73228500  0.34451700  0.43268700  1
  P  P3  1  0.77434100  0.85449300  0.57746500  1
  P  P4  1  0.23179200  0.15272700  0.42847700  1
  P  P5  1  0.26007900  0.65471100  0.56739000  1
  P  P6  1  0.73071700  0.35255500  0.92834900  1
  P  P7  1  0.23356900  0.15065800  0.93098600  1
  H  H0  1  0.49002800  0.50976000  0.01002900  1
  H  H1  1  0.48621800  0.50636000  0.50843300  1
  H  H2  1  0.01018100  0.00769900  0.48922500  1
  H  H3  1  0.01266000  0.00710800  0.99069900  1
  O  O0  1  0.95062600  0.94793900  0.09652800  1
  O  O1  1  0.86699800  0.34239000  0.09828300  1
  O  O2  1  0.82637000  0.67197100  0.14475300  1
  O  O3  1  0.65227500  0.93866900  0.14898600  1
  O  O4  1  0.44134200  0.54610000  0.09661400  1
  O  O5  1  0.36184100  0.16749800  0.10048900  1
  O  O6  1  0.32492000  0.82949200  0.14319600  1
  O  O7  1  0.15791300  0.55520900  0.14979000  1
  O  O8  1  0.84838300  0.43894700  0.35261700  1
  O  O9  1  0.67825800  0.16779700  0.35492200  1
  O  O10  1  0.63552900  0.83903700  0.40530200  1
  O  O11  1  0.55331100  0.44100600  0.40520800  1
  O  O12  1  0.34944400  0.05724500  0.35188100  1
  O  O13  1  0.18245400  0.32744800  0.34825300  1
  O  O14  1  0.94711100  0.94668900  0.58980400  1
  O  O15  1  0.86489900  0.32688800  0.59590400  1
  O  O16  1  0.13288400  0.66166200  0.39927600  1
  O  O17  1  0.05097300  0.05694700  0.40246400  1
  O  O18  1  0.80891600  0.67492400  0.64447000  1
  O  O19  1  0.65234300  0.94787900  0.64937900  1
  O  O20  1  0.44380900  0.55619700  0.59278600  1
  O  O21  1  0.36075900  0.17540100  0.59374000  1
  O  O22  1  0.31498700  0.82889800  0.63675100  1
  O  O23  1  0.15071700  0.55619600  0.64454500  1
  O  O24  1  0.84383600  0.44837100  0.85004100  1
  O  O25  1  0.68442600  0.17333800  0.86770400  1
  O  O26  1  0.64205600  0.82726200  0.90486100  1
  O  O27  1  0.56276000  0.46279500  0.90851200  1
  O  O28  1  0.34777400  0.05714100  0.85374600  1
  O  O29  1  0.18437000  0.32822000  0.86541600  1
  O  O30  1  0.13766300  0.67291400  0.90302400  1
  O  O31  1  0.05444100  0.05065700  0.90511200  1
loop_
_geom_bond_atom_site_label_1
_geom_bond_atom_site_label_2
_geom_bond_distance
_geom_bond_site_symmetry_2
Li0 O11 1.948864 1_555
Li0 O5 2.005166 1_555
Li0 O7 2.019923 1_555
Li0 O13 2.111180 1_555
Li0 O4 2.185114 1_555
Li1 O26 1.974761 1_555
Li1 O20 1.979532 1_555
Li1 O24 2.031594 1_555
Li1 O18 2.126705 1_555
Li1 O27 2.163876 1_555
H0 O4 1.087889 1_555
H0 O27 1.365983 1_554
H1 O20 1.070818 1_555
H1 O11 1.396974 1_555
H2 O17 1.087302 1_555
H2 O14 1.347710 1_445
H3 O31 1.065996 1_555
H3 O0 1.382444 1_446
O0 P0 1.491578 1_555
O1 P6 1.585058 1_554
O1 V0 1.874363 1_555
O2 P0 1.604104 1_555
O2 V0 1.830072 1_555
O3 P0 1.565272 1_555
O3 V1 1.860815 1_555
O4 P1 1.549172 1_555
O5 P7 1.569070 1_554
O5 V1 2.064058 1_545
O6 P1 1.555436 1_555
O6 V1 1.892627 1_555
O7 P1 1.559773 1_555
O7 V0 1.963699 1_455
O8 P2 1.592100 1_555
O8 V0 1.817392 1_555
O9 P2 1.562664 1_555
O9 V1 1.915939 1_545
O10 P3 1.608755 1_555
O10 V1 1.844098 1_555
O11 P2 1.511247 1_555
O12 P4 1.574253 1_555
O12 V1 1.869853 1_545
O13 P4 1.563681 1_555
O13 V0 2.017144 1_455
O14 P3 1.487957 1_555
O15 P2 1.530663 1_555
O15 V2 1.989528 1_655
O16 P5 1.552641 1_555
O16 V0 1.933011 1_455
O17 P4 1.524610 1_555
O18 P3 1.545183 1_555
O18 V2 2.041165 1_655
O19 P3 1.560880 1_555
O19 V3 1.878745 1_565
O20 P5 1.554337 1_555
O21 P4 1.541523 1_555
O21 V3 1.974681 1_555
O22 P5 1.516322 1_555
O22 V3 1.995329 1_565
O23 P5 1.548762 1_555
O23 V2 1.849472 1_555
O24 P6 1.567740 1_555
O24 V2 1.914433 1_655
O25 P6 1.519778 1_555
O25 V3 1.958082 1_555
O26 P0 1.550965 1_556
O26 V3 2.085943 1_565
O27 P6 1.513279 1_555
O28 P7 1.551006 1_555
O28 V3 1.854405 1_555
O29 P7 1.530880 1_555
O29 V2 1.936533 1_555
O30 P1 1.529203 1_556
O30 V2 2.000711 1_555
O31 P7 1.530664 1_555
