# generated using pymatgen
data_K2Be2O3
_symmetry_space_group_name_H-M   'P 1'
_cell_length_a   8.18779800
_cell_length_b   4.95622900
_cell_length_c   6.43718520
_cell_angle_alpha   64.96583837
_cell_angle_beta   90.00000000
_cell_angle_gamma   90.00000000
_symmetry_Int_Tables_number   1
_chemical_formula_structural   K2Be2O3
_chemical_formula_sum   'K4 Be4 O6'
_cell_volume   236.68425035
_cell_formula_units_Z   2
loop_
 _symmetry_equiv_pos_site_id
 _symmetry_equiv_pos_as_xyz
  1  'x, y, z'
loop_
 _atom_site_type_symbol
 _atom_site_label
 _atom_site_symmetry_multiplicity
 _atom_site_fract_x
 _atom_site_fract_y
 _atom_site_fract_z
 _atom_site_occupancy
  K  K0  1  0.35424200  0.78546300  0.92068500  1
  K  K1  1  0.14575800  0.78546300  0.42068500  1
  K  K2  1  0.85424200  0.21453700  0.57931500  1
  K  K3  1  0.64575800  0.21453700  0.07931500  1
  Be  Be0  1  0.50941700  0.69717300  0.50382200  1
  Be  Be1  1  0.00941700  0.30282700  0.99617800  1
  Be  Be2  1  0.99058300  0.69717300  0.00382200  1
  Be  Be3  1  0.49058300  0.30282700  0.49617800  1
  O  O0  1  0.50000000  0.00000000  0.50000000  1
  O  O1  1  0.00000000  0.00000000  0.00000000  1
  O  O2  1  0.95888800  0.61084500  0.79693600  1
  O  O3  1  0.45888800  0.38915500  0.70306400  1
  O  O4  1  0.54111200  0.61084500  0.29693600  1
  O  O5  1  0.04111200  0.38915500  0.20306400  1
loop_
_geom_bond_atom_site_label_1
_geom_bond_atom_site_label_2
_geom_bond_distance
_geom_bond_site_symmetry_2
K0 O4 2.679955 1_556
K0 O0 2.729723 1_565
K0 O3 2.846323 1_565
K0 O3 2.980491 1_555
K0 O1 3.203654 1_566
K0 O5 3.273198 1_556
K1 O2 2.679955 1_455
K1 O1 2.729723 1_565
K1 O5 2.846323 1_565
K1 O5 2.980491 1_555
K1 O0 3.203654 1_565
K1 O3 3.273198 1_555
K2 O5 2.679955 1_655
K2 O1 2.729723 1_656
K2 O2 2.846323 1_545
K2 O2 2.980491 1_555
K2 O0 3.203654 1_555
K2 O4 3.273198 1_555
K3 O3 2.679955 1_554
K3 O0 2.729723 1_555
K3 O4 2.846323 1_545
K3 O4 2.980491 1_555
K3 O1 3.203654 1_655
K3 O2 3.273198 1_554
Be0 O0 1.492629 1_565
Be0 O3 1.577845 1_555
Be0 O4 1.583113 1_555
Be0 K1 3.024169 1_555
Be1 O1 1.492629 1_556
Be1 O2 1.577845 1_455
Be1 O5 1.583113 1_556
Be1 K3 3.024169 1_456
Be2 O1 1.492629 1_665
Be2 O5 1.577845 1_655
Be2 O2 1.583113 1_554
Be2 K0 3.024169 1_654
Be3 O0 1.492629 1_555
Be3 O4 1.577845 1_555
Be3 O3 1.583113 1_555
Be3 K2 3.024169 1_555
