# generated using pymatgen
data_Li12FeNi3P4(CO7)4
_symmetry_space_group_name_H-M   'P 1'
_cell_length_a   6.44684600
_cell_length_b   8.37766600
_cell_length_c   9.94177669
_cell_angle_alpha   85.41734966
_cell_angle_beta   90.00000000
_cell_angle_gamma   90.00000000
_symmetry_Int_Tables_number   1
_chemical_formula_structural   Li12FeNi3P4(CO7)4
_chemical_formula_sum   'Li12 Fe1 Ni3 P4 C4 O28'
_cell_volume   535.23404433
_cell_formula_units_Z   1
loop_
 _symmetry_equiv_pos_site_id
 _symmetry_equiv_pos_as_xyz
  1  'x, y, z'
loop_
 _atom_site_type_symbol
 _atom_site_label
 _atom_site_symmetry_multiplicity
 _atom_site_fract_x
 _atom_site_fract_y
 _atom_site_fract_z
 _atom_site_occupancy
  Li  Li0  1  0.00000000  0.90165300  0.61855000  1
  Li  Li1  1  0.00000000  0.90488900  0.11779500  1
  Li  Li2  1  0.22944300  0.72357300  0.87646400  1
  Li  Li3  1  0.77055700  0.72357300  0.87646400  1
  Li  Li4  1  0.23002000  0.72467900  0.37706700  1
  Li  Li5  1  0.76998000  0.72467900  0.37706700  1
  Li  Li6  1  0.72872400  0.27659500  0.62335300  1
  Li  Li7  1  0.27127600  0.27659500  0.62335300  1
  Li  Li8  1  0.72756700  0.27645800  0.12216600  1
  Li  Li9  1  0.27243300  0.27645800  0.12216600  1
  Li  Li10  1  0.50000000  0.09687100  0.88222200  1
  Li  Li11  1  0.50000000  0.09714900  0.38283200  1
  Fe  Fe0  1  0.00000000  0.33727700  0.39042400  1
  Ni  Ni0  1  0.50000000  0.66727200  0.60440200  1
  Ni  Ni1  1  0.50000000  0.66778400  0.10331600  1
  Ni  Ni2  1  0.00000000  0.33267600  0.89689500  1
  P  P0  1  0.00000000  0.58575900  0.64133700  1
  P  P1  1  0.00000000  0.58837900  0.13833000  1
  P  P2  1  0.50000000  0.41500500  0.86058500  1
  P  P3  1  0.50000000  0.41421400  0.36048900  1
  C  C0  1  0.50000000  0.96075700  0.64843100  1
  C  C1  1  0.50000000  0.96103200  0.14845200  1
  C  C2  1  0.00000000  0.03936100  0.85148800  1
  C  C3  1  0.00000000  0.03346800  0.35225300  1
  O  O0  1  0.50000000  0.92342800  0.52439200  1
  O  O1  1  0.00000000  0.89194200  0.82104700  1
  O  O2  1  0.50000000  0.92416400  0.02444500  1
  O  O3  1  0.50000000  0.84428700  0.74350500  1
  O  O4  1  0.00000000  0.88657300  0.32089700  1
  O  O5  1  0.50000000  0.84438800  0.24355500  1
  O  O6  1  0.18710800  0.69053100  0.58929700  1
  O  O7  1  0.81289200  0.69053100  0.58929700  1
  O  O8  1  0.18737200  0.69197300  0.08575400  1
  O  O9  1  0.81262800  0.69197300  0.08575400  1
  O  O10  1  0.50000000  0.58233600  0.91479300  1
  O  O11  1  0.00000000  0.56309500  0.79886400  1
  O  O12  1  0.50000000  0.58159100  0.41548400  1
  O  O13  1  0.00000000  0.56988000  0.29577000  1
  O  O14  1  0.50000000  0.43757200  0.70291500  1
  O  O15  1  0.00000000  0.41817600  0.58645800  1
  O  O16  1  0.50000000  0.43739900  0.20292000  1
  O  O17  1  0.00000000  0.41776100  0.08824300  1
  O  O18  1  0.31285400  0.30934500  0.91210400  1
  O  O19  1  0.68714600  0.30934500  0.91210400  1
  O  O20  1  0.68572100  0.30868900  0.41215500  1
  O  O21  1  0.31427900  0.30868900  0.41215500  1
  O  O22  1  0.00000000  0.15607400  0.75628900  1
  O  O23  1  0.50000000  0.10841900  0.67909400  1
  O  O24  1  0.00000000  0.14945800  0.25599300  1
  O  O25  1  0.00000000  0.07725100  0.97541900  1
  O  O26  1  0.50000000  0.10869400  0.17948100  1
  O  O27  1  0.00000000  0.07028200  0.47591100  1
loop_
_geom_bond_atom_site_label_1
_geom_bond_atom_site_label_2
_geom_bond_distance
_geom_bond_site_symmetry_2
Li0 O27 1.920055 1_565
Li0 O1 2.008318 1_555
Li0 O6 2.179487 1_555
Li0 O7 2.179487 1_455
Li1 O25 1.939603 1_564
Li1 O4 2.012755 1_555
Li1 O8 2.198444 1_555
Li1 O9 2.198444 1_455
Li1 O24 2.556480 1_565
Li2 O1 2.087334 1_555
Li2 O8 2.094039 1_556
Li2 O10 2.124989 1_555
Li2 O11 2.180918 1_555
Li2 O3 2.366173 1_555
Li3 O1 2.087334 1_655
Li3 O9 2.094039 1_556
Li3 O10 2.124989 1_555
Li3 O11 2.180918 1_655
Li3 O3 2.366173 1_555
Li4 O4 2.056539 1_555
Li4 O6 2.124566 1_555
Li4 O12 2.130518 1_555
Li4 O13 2.168311 1_555
Li4 O5 2.363116 1_555
Li5 O4 2.056539 1_655
Li5 O7 2.124566 1_555
Li5 O12 2.130518 1_555
Li5 O13 2.168311 1_655
Li5 O5 2.363116 1_555
Li6 O23 2.083672 1_555
Li6 O20 2.113672 1_555
Li6 O15 2.128488 1_655
Li6 O14 2.188416 1_555
Li6 O22 2.368855 1_655
Li7 O23 2.083672 1_555
Li7 O21 2.113672 1_555
Li7 O15 2.128488 1_555
Li7 O14 2.188416 1_555
Li7 O22 2.368855 1_555
Li8 O26 2.079523 1_555
Li8 O19 2.100772 1_554
Li8 O17 2.129791 1_655
Li8 O16 2.188107 1_555
Li8 O24 2.400145 1_655
Li9 O26 2.079523 1_555
Li9 O18 2.100772 1_554
Li9 O17 2.129791 1_555
Li9 O16 2.188107 1_555
Li9 O24 2.400145 1_555
Li10 O2 1.940569 1_546
Li10 O23 2.014034 1_555
Li10 O18 2.190190 1_555
Li10 O19 2.190190 1_555
Li11 O0 1.942030 1_545
Li11 O26 2.016249 1_555
Li11 O21 2.177576 1_555
Li11 O20 2.177576 1_555
Fe0 O21 2.049605 1_555
Fe0 O20 2.049605 1_455
Fe0 O13 2.095192 1_555
Fe0 O15 2.113935 1_555
Fe0 O24 2.144313 1_555
Fe0 O27 2.328475 1_555
Ni0 O7 2.030962 1_555
Ni0 O6 2.030962 1_555
Ni0 O12 2.063550 1_555
Ni0 O14 2.088342 1_555
Ni0 O3 2.106993 1_555
Ni0 O0 2.228279 1_555
Ni1 O8 2.031747 1_555
Ni1 O9 2.031747 1_555
Ni1 O10 2.059046 1_554
Ni1 O16 2.097716 1_555
Ni1 O5 2.112461 1_555
Ni1 O2 2.226892 1_555
Ni2 O18 2.030841 1_555
Ni2 O19 2.030841 1_455
Ni2 O17 2.084150 1_556
Ni2 O11 2.091785 1_555
Ni2 O22 2.115062 1_555
Ni2 O25 2.218451 1_555
C0 O0 1.296197 1_555
C0 O23 1.297503 1_565
C0 O3 1.303119 1_555
C1 O2 1.294668 1_555
C1 O26 1.298640 1_565
C1 O5 1.304318 1_555
C2 O1 1.294839 1_545
C2 O25 1.296655 1_555
C2 O22 1.305352 1_555
C3 O27 1.291156 1_555
C3 O4 1.293425 1_545
C3 O24 1.308240 1_555
O6 P0 1.555827 1_555
O7 P0 1.555827 1_655
O8 P1 1.553415 1_555
O9 P1 1.553415 1_655
O10 P2 1.541534 1_555
O11 P0 1.562434 1_555
O12 P3 1.545214 1_555
O13 P1 1.560516 1_555
O14 P2 1.563812 1_555
O15 P0 1.546338 1_555
O16 P3 1.563035 1_555
O17 P1 1.550749 1_555
O18 P2 1.558553 1_555
O19 P2 1.558553 1_555
O20 P3 1.551254 1_555
O21 P3 1.551254 1_555
