# generated using pymatgen
data_Co3(OF2)2
_symmetry_space_group_name_H-M   'P 1'
_cell_length_a   4.53382500
_cell_length_b   4.61806500
_cell_length_c   9.38088600
_cell_angle_alpha   90.00000000
_cell_angle_beta   90.00000000
_cell_angle_gamma   90.00000000
_symmetry_Int_Tables_number   1
_chemical_formula_structural   Co3(OF2)2
_chemical_formula_sum   'Co6 O4 F8'
_cell_volume   196.41228701
_cell_formula_units_Z   2
loop_
 _symmetry_equiv_pos_site_id
 _symmetry_equiv_pos_as_xyz
  1  'x, y, z'
loop_
 _atom_site_type_symbol
 _atom_site_label
 _atom_site_symmetry_multiplicity
 _atom_site_fract_x
 _atom_site_fract_y
 _atom_site_fract_z
 _atom_site_occupancy
  Co  Co0  1  0.99523400  0.71636800  0.82670400  1
  Co  Co1  1  0.99523400  0.71636800  0.17329600  1
  Co  Co2  1  0.02805900  0.74539900  0.50000000  1
  Co  Co3  1  0.52805900  0.25460100  0.00000000  1
  Co  Co4  1  0.49523400  0.28363200  0.67329600  1
  Co  Co5  1  0.49523400  0.28363200  0.32670400  1
  O  O0  1  0.19629200  0.55654200  0.66939900  1
  O  O1  1  0.19629200  0.55654200  0.33060100  1
  O  O2  1  0.69629200  0.44345800  0.16939900  1
  O  O3  1  0.69629200  0.44345800  0.83060100  1
  F  F0  1  0.19556500  0.52856400  0.00000000  1
  F  F1  1  0.69556500  0.47143600  0.50000000  1
  F  F2  1  0.30761300  0.08429600  0.50000000  1
  F  F3  1  0.29282000  0.03276000  0.83782800  1
  F  F4  1  0.29282000  0.03276000  0.16217200  1
  F  F5  1  0.80761300  0.91570400  0.00000000  1
  F  F6  1  0.79282000  0.96724000  0.66217200  1
  F  F7  1  0.79282000  0.96724000  0.33782800  1
loop_
_geom_bond_atom_site_label_1
_geom_bond_atom_site_label_2
_geom_bond_distance
_geom_bond_site_symmetry_2
Co0 O3 1.851137 1_555
Co0 O0 1.885017 1_655
Co0 F3 1.991508 1_665
Co0 F5 2.052754 1_556
Co0 F0 2.054250 1_656
Co0 F6 2.136977 1_555
Co1 O2 1.851137 1_555
Co1 O1 1.885017 1_655
Co1 F4 1.991508 1_665
Co1 F5 2.052754 1_555
Co1 F0 2.054250 1_655
Co1 F7 2.136977 1_555
Co2 O0 1.966647 1_555
Co2 O1 1.966647 1_555
Co2 F1 1.968030 1_455
Co2 F2 2.013902 1_565
Co2 F6 2.121662 1_455
Co2 F7 2.121662 1_455
Co3 O2 1.966647 1_555
Co3 O3 1.966647 1_554
Co3 F0 1.968030 1_555
Co3 F5 2.013902 1_545
Co3 F4 2.121662 1_555
Co3 F3 2.121662 1_554
Co4 O0 1.851137 1_555
Co4 O3 1.885017 1_555
Co4 F6 1.991508 1_545
Co4 F2 2.052754 1_555
Co4 F1 2.054250 1_555
Co4 F3 2.136977 1_555
Co5 O1 1.851137 1_555
Co5 O2 1.885017 1_555
Co5 F7 1.991508 1_545
Co5 F2 2.052754 1_555
Co5 F1 2.054250 1_555
Co5 F4 2.136977 1_555
