# generated using pymatgen
data_Mg5Ti13O30
_symmetry_space_group_name_H-M   'P 1'
_cell_length_a   10.00895445
_cell_length_b   5.21097355
_cell_length_c   10.58054538
_cell_angle_alpha   83.70805412
_cell_angle_beta   90.00000000
_cell_angle_gamma   90.00000000
_symmetry_Int_Tables_number   1
_chemical_formula_structural   Mg5Ti13O30
_chemical_formula_sum   'Mg5 Ti13 O30'
_cell_volume   548.51902617
_cell_formula_units_Z   1
loop_
 _symmetry_equiv_pos_site_id
 _symmetry_equiv_pos_as_xyz
  1  'x, y, z'
loop_
 _atom_site_type_symbol
 _atom_site_label
 _atom_site_symmetry_multiplicity
 _atom_site_fract_x
 _atom_site_fract_y
 _atom_site_fract_z
 _atom_site_occupancy
  Mg  Mg0  1  0.00000000  0.32448360  0.06555055  1
  Mg  Mg1  1  0.50000000  0.34004953  0.26820639  1
  Mg  Mg2  1  0.50000000  0.00926509  0.60040474  1
  Mg  Mg3  1  0.00000000  0.99291545  0.39747077  1
  Mg  Mg4  1  0.50000000  0.67295310  0.93511670  1
  Ti  Ti0  1  0.68327565  0.22519111  0.04524666  1
  Ti  Ti1  1  0.31672435  0.22519111  0.04524666  1
  Ti  Ti2  1  0.18231609  0.44364259  0.28885427  1
  Ti  Ti3  1  0.81768391  0.44364259  0.28885427  1
  Ti  Ti4  1  0.18757386  0.10745356  0.61933597  1
  Ti  Ti5  1  0.81242614  0.10745356  0.61933597  1
  Ti  Ti6  1  0.68329470  0.88945874  0.37680282  1
  Ti  Ti7  1  0.31800872  0.55993802  0.71285972  1
  Ti  Ti8  1  0.31670530  0.88945874  0.37680282  1
  Ti  Ti9  1  0.68199128  0.55993802  0.71285972  1
  Ti  Ti10  1  0.00000000  0.65933541  0.73187582  1
  Ti  Ti11  1  0.18684144  0.77755362  0.95751292  1
  Ti  Ti12  1  0.81315856  0.77755362  0.95751292  1
  O  O0  1  0.86366158  0.07626895  0.01528815  1
  O  O1  1  0.13633842  0.07626895  0.01528815  1
  O  O2  1  0.31158462  0.14445345  0.22914418  1
  O  O3  1  0.68841538  0.14445345  0.22914418  1
  O  O4  1  0.50000000  0.36334721  0.07344200  1
  O  O5  1  0.50000000  0.03004156  0.40644235  1
  O  O6  1  0.00000000  0.30188955  0.25965223  1
  O  O7  1  0.18562881  0.52294177  0.10373991  1
  O  O8  1  0.81437119  0.52294177  0.10373991  1
  O  O9  1  0.81597247  0.19020998  0.43828222  1
  O  O10  1  0.18402753  0.19020998  0.43828222  1
  O  O11  1  0.63695120  0.58860420  0.31783329  1
  O  O12  1  0.36304880  0.58860420  0.31783329  1
  O  O13  1  0.63838046  0.25736265  0.65180841  1
  O  O14  1  0.36161954  0.25736265  0.65180841  1
  O  O15  1  0.86361091  0.74377252  0.34929284  1
  O  O16  1  0.13638909  0.74377252  0.34929284  1
  O  O17  1  0.86864090  0.41379581  0.68325769  1
  O  O18  1  0.13135910  0.41379581  0.68325769  1
  O  O19  1  0.31366623  0.47791209  0.89559198  1
  O  O20  1  0.68928603  0.81460108  0.56280206  1
  O  O21  1  0.31071397  0.81460108  0.56280206  1
  O  O22  1  0.68633377  0.47791209  0.89559198  1
  O  O23  1  0.50000000  0.70017014  0.73879928  1
  O  O24  1  0.00000000  0.96122340  0.59682021  1
  O  O25  1  0.00000000  0.63032483  0.92155594  1
  O  O26  1  0.18250124  0.85086351  0.77107022  1
  O  O27  1  0.81749876  0.85086351  0.77107022  1
  O  O28  1  0.63662586  0.92297792  0.98360818  1
  O  O29  1  0.36337414  0.92297792  0.98360818  1
loop_
_geom_bond_atom_site_label_1
_geom_bond_atom_site_label_2
_geom_bond_distance
_geom_bond_site_symmetry_2
Mg0 O0 1.992165 1_455
Mg0 O1 1.992165 1_555
Mg0 O6 2.044151 1_555
Mg0 O25 2.080610 1_554
Mg0 O8 2.185481 1_455
Mg0 O7 2.185481 1_555
Mg1 O12 1.995313 1_555
Mg1 O11 1.995313 1_555
Mg1 O4 2.050961 1_555
Mg1 O5 2.056939 1_555
Mg1 O2 2.204180 1_555
Mg1 O3 2.204180 1_555
Mg2 O14 2.009896 1_555
Mg2 O13 2.009896 1_555
Mg2 O5 2.043198 1_555
Mg2 O23 2.054627 1_545
Mg2 O20 2.205692 1_545
Mg2 O21 2.205692 1_545
Mg3 O15 1.988456 1_455
Mg3 O16 1.988456 1_555
Mg3 O6 2.050367 1_565
Mg3 O24 2.097560 1_555
Mg3 O10 2.175644 1_565
Mg3 O9 2.175644 1_465
Mg4 O29 1.994302 1_555
Mg4 O28 1.994302 1_555
Mg4 O4 2.056049 1_556
Mg4 O23 2.066416 1_555
Mg4 O22 2.186154 1_555
Mg4 O19 2.186154 1_555
O0 Ti12 1.805756 1_544
O0 Ti0 2.004084 1_555
O1 Ti11 1.805756 1_544
O1 Ti1 2.004084 1_555
O2 Ti8 1.937535 1_545
O2 Ti1 1.945793 1_555
O2 Ti2 2.172496 1_555
O3 Ti6 1.937535 1_545
O3 Ti0 1.945793 1_555
O3 Ti3 2.172496 1_555
O4 Ti0 2.004840 1_555
O4 Ti1 2.004840 1_555
O5 Ti8 2.012730 1_545
O5 Ti6 2.012730 1_545
O6 Ti2 2.005242 1_555
O6 Ti3 2.005242 1_455
O7 Ti11 1.924643 1_554
O7 Ti2 1.957195 1_555
O7 Ti1 2.173145 1_555
O8 Ti12 1.924643 1_554
O8 Ti3 1.957195 1_555
O8 Ti0 2.173145 1_555
O9 Ti5 1.917253 1_555
O9 Ti3 1.945856 1_555
O9 Ti6 2.205949 1_545
O10 Ti4 1.917253 1_555
O10 Ti2 1.945856 1_555
O10 Ti8 2.205949 1_545
O11 Ti6 1.810158 1_555
O11 Ti3 1.996917 1_555
O12 Ti8 1.810158 1_555
O12 Ti2 1.996917 1_555
O13 Ti9 1.821278 1_555
O13 Ti5 1.954922 1_555
O14 Ti7 1.821278 1_555
O14 Ti4 1.954922 1_555
O15 Ti3 1.812580 1_555
O15 Ti6 1.991660 1_555
O16 Ti2 1.812580 1_555
O16 Ti8 1.991660 1_555
O17 Ti5 1.886517 1_555
O17 Ti10 1.942837 1_655
O17 Ti9 2.054356 1_555
O18 Ti4 1.886517 1_555
O18 Ti10 1.942837 1_555
O18 Ti7 2.054356 1_555
O19 Ti7 1.934299 1_555
O19 Ti1 1.945611 1_556
O19 Ti11 2.168602 1_555
O20 Ti9 1.955843 1_555
O20 Ti6 1.964794 1_555
O20 Ti5 2.098990 1_565
O21 Ti7 1.955843 1_555
O21 Ti8 1.964794 1_555
O21 Ti4 2.098990 1_565
O22 Ti9 1.934299 1_555
O22 Ti0 1.945611 1_556
O22 Ti12 2.168602 1_555
O23 Ti7 1.992810 1_555
O23 Ti9 1.992810 1_555
O24 Ti10 2.005978 1_555
O24 Ti4 2.049851 1_565
O24 Ti5 2.049851 1_465
O25 Ti10 1.996015 1_555
O25 Ti11 2.072329 1_555
O25 Ti12 2.072329 1_455
O26 Ti11 1.968262 1_555
O26 Ti4 1.974150 1_565
O26 Ti10 2.143696 1_555
O26 Ti7 2.172965 1_555
O27 Ti12 1.968262 1_555
O27 Ti5 1.974150 1_565
O27 Ti10 2.143696 1_655
O27 Ti9 2.172965 1_555
O28 Ti0 1.829898 1_566
O28 Ti12 1.954052 1_555
O29 Ti1 1.829898 1_566
O29 Ti11 1.954052 1_555
