# generated using pymatgen
data_LiMn3(PO4)3
_symmetry_space_group_name_H-M   'P 1'
_cell_length_a   9.04112700
_cell_length_b   9.05435852
_cell_length_c   12.26691544
_cell_angle_alpha   109.51391099
_cell_angle_beta   109.89876234
_cell_angle_gamma   84.10862943
_symmetry_Int_Tables_number   1
_chemical_formula_structural   LiMn3(PO4)3
_chemical_formula_sum   'Li4 Mn12 P12 O48'
_cell_volume   889.92912518
_cell_formula_units_Z   4
loop_
 _symmetry_equiv_pos_site_id
 _symmetry_equiv_pos_as_xyz
  1  'x, y, z'
loop_
 _atom_site_type_symbol
 _atom_site_label
 _atom_site_symmetry_multiplicity
 _atom_site_fract_x
 _atom_site_fract_y
 _atom_site_fract_z
 _atom_site_occupancy
  Li  Li0  1  0.51235100  0.50620600  0.01157700  1
  Li  Li1  1  0.36498800  0.38774500  0.37467300  1
  Li  Li2  1  0.98812500  0.99334900  0.48934800  1
  Li  Li3  1  0.25005500  0.25063300  0.75098100  1
  Mn  Mn0  1  0.48173000  0.16284200  0.09825400  1
  Mn  Mn1  1  0.01125200  0.33426200  0.39947900  1
  Mn  Mn2  1  0.08423800  0.76837400  0.15087300  1
  Mn  Mn3  1  0.85896700  0.39453100  0.12633800  1
  Mn  Mn4  1  0.64424000  0.09614800  0.37122500  1
  Mn  Mn5  1  0.41233500  0.73516600  0.34680400  1
  Mn  Mn6  1  0.58877900  0.27000700  0.65386600  1
  Mn  Mn7  1  0.36384600  0.88845100  0.62581000  1
  Mn  Mn8  1  0.13818700  0.61357700  0.87571400  1
  Mn  Mn9  1  0.98189800  0.66567000  0.59761800  1
  Mn  Mn10  1  0.91506300  0.23185400  0.84907000  1
  Mn  Mn11  1  0.51871600  0.83477100  0.90311700  1
  P  P0  1  0.20700400  0.42334600  0.07513400  1
  P  P1  1  0.83145100  0.04606300  0.17817900  1
  P  P2  1  0.29494300  0.08098400  0.42507900  1
  P  P3  1  0.41282800  0.83315000  0.12455200  1
  P  P4  1  0.08693500  0.66684400  0.37447900  1
  P  P5  1  0.66490200  0.45107600  0.32184100  1
  P  P6  1  0.32549300  0.54170000  0.67412400  1
  P  P7  1  0.91450900  0.33684200  0.62635100  1
  P  P8  1  0.58568600  0.16316100  0.87470600  1
  P  P9  1  0.70955300  0.92470100  0.57695100  1
  P  P10  1  0.17376700  0.95829500  0.82398200  1
  P  P11  1  0.79084400  0.57515900  0.92421000  1
  O  O0  1  0.03556600  0.36479700  0.03517500  1
  O  O1  1  0.66376700  0.02673800  0.07439900  1
  O  O2  1  0.45066300  0.01222400  0.18219000  1
  O  O3  1  0.31901200  0.31136300  0.13773300  1
  O  O4  1  0.19288100  0.20868100  0.37383000  1
  O  O5  1  0.23206100  0.80079900  0.06571600  1
  O  O6  1  0.05403600  0.48655100  0.31820300  1
  O  O7  1  0.22191600  0.58839300  0.17856500  1
  O  O8  1  0.48382100  0.74547300  0.02056300  1
  O  O9  1  0.00649900  0.74271400  0.27388000  1
  O  O10  1  0.74619800  0.54937200  0.02598600  1
  O  O11  1  0.82184400  0.01796600  0.29115300  1
  O  O12  1  0.25285600  0.06008000  0.52971100  1
  O  O13  1  0.60744200  0.28094300  0.29234200  1
  O  O14  1  0.88722500  0.21812300  0.21253600  1
  O  O15  1  0.46672600  0.13866600  0.46165100  1
  O  O16  1  0.67704200  0.47969400  0.21028600  1
  O  O17  1  0.49547000  0.75976800  0.22774800  1
  O  O18  1  0.01837000  0.75398600  0.47958000  1
  O  O19  1  0.15962100  0.52688000  0.56943500  1
  O  O20  1  0.27503600  0.91786200  0.32013700  1
  O  O21  1  0.27061700  0.69316100  0.43235000  1
  O  O22  1  0.54125400  0.55587000  0.37545200  1
  O  O23  1  0.05831700  0.06817200  0.88047100  1
  O  O24  1  0.94485900  0.93462100  0.12053400  1
  O  O25  1  0.43731400  0.43034300  0.61203900  1
  O  O26  1  0.73474100  0.30097800  0.56875800  1
  O  O27  1  0.83192200  0.47416800  0.42612600  1
  O  O28  1  0.72420400  0.08833000  0.68256100  1
  O  O29  1  0.98763500  0.24965100  0.52361000  1
  O  O30  1  0.49748400  0.23623300  0.77054900  1
  O  O31  1  0.30611300  0.49738100  0.77855200  1
  O  O32  1  0.53673500  0.86772100  0.53401700  1
  O  O33  1  0.11643800  0.78649200  0.78351200  1
  O  O34  1  0.38426600  0.71274100  0.71497700  1
  O  O35  1  0.75580500  0.94903400  0.47540300  1
  O  O36  1  0.19595800  0.00096400  0.71936500  1
  O  O37  1  0.25018100  0.44149000  0.96985100  1
  O  O38  1  0.00298000  0.26317800  0.72937100  1
  O  O39  1  0.51013900  0.24928700  0.97627900  1
  O  O40  1  0.77694600  0.41109000  0.81855100  1
  O  O41  1  0.95030700  0.51569200  0.68267900  1
  O  O42  1  0.76447300  0.19990900  0.93280800  1
  O  O43  1  0.81749400  0.80572600  0.63120500  1
  O  O44  1  0.68087300  0.69194000  0.86849200  1
  O  O45  1  0.55007200  0.98404600  0.81752500  1
  O  O46  1  0.33884300  0.97332800  0.92958700  1
  O  O47  1  0.96282300  0.63294100  0.96521900  1
loop_
_geom_bond_atom_site_label_1
_geom_bond_atom_site_label_2
_geom_bond_distance
_geom_bond_site_symmetry_2
Li0 O8 2.125351 1_555
Li0 O10 2.126760 1_555
Li0 O39 2.220361 1_554
Li0 O37 2.341495 1_554
Li0 O16 2.462362 1_555
Li1 O22 2.309763 1_555
Li1 O4 2.354944 1_555
Li2 O35 2.117701 1_555
Li2 O18 2.124472 1_655
Li2 O29 2.215770 1_565
Li2 O12 2.372596 1_665
Li2 O11 2.454773 1_565
Li3 O38 2.153632 1_555
Li3 O30 2.162049 1_555
Li3 O31 2.230163 1_555
Li3 O36 2.238759 1_555
Mn0 O3 1.962394 1_555
Mn0 O1 1.995887 1_555
Mn0 O39 2.000664 1_554
Mn0 O2 2.052423 1_555
Mn0 O13 2.193255 1_555
Mn0 O46 2.271100 1_544
Mn1 O4 1.953939 1_555
Mn1 O29 1.996338 1_455
Mn1 O27 2.000699 1_455
Mn1 O6 2.082163 1_555
Mn1 O14 2.121936 1_455
Mn1 O19 2.309765 1_555
Mn2 O24 1.912562 1_455
Mn2 O9 1.953065 1_555
Mn2 O7 1.996507 1_555
Mn2 O5 2.049245 1_555
Mn2 O47 2.145723 1_454
Mn2 O20 2.298383 1_555
Mn3 O10 2.127357 1_555
Mn3 O14 2.143649 1_555
Mn3 O16 2.173149 1_555
Mn3 O0 2.190528 1_655
Mn3 O6 2.347343 1_655
Mn3 O42 2.367423 1_554
Mn4 O35 2.099711 1_545
Mn4 O11 2.102397 1_555
Mn4 O13 2.143565 1_555
Mn4 O15 2.180403 1_555
Mn4 O2 2.313190 1_555
Mn4 O26 2.437249 1_555
Mn5 O17 1.935572 1_555
Mn5 O22 1.957393 1_555
Mn5 O20 2.011925 1_555
Mn5 O21 2.041938 1_555
Mn5 O32 2.157998 1_555
Mn5 O7 2.282095 1_555
Mn6 O25 1.964007 1_555
Mn6 O30 1.992992 1_555
Mn6 O28 2.002238 1_555
Mn6 O26 2.029659 1_555
Mn6 O15 2.194648 1_555
Mn6 O40 2.233769 1_555
Mn7 O34 2.174026 1_555
Mn7 O32 2.177880 1_555
Mn7 O36 2.178574 1_565
Mn7 O12 2.215849 1_565
Mn7 O45 2.314868 1_555
Mn7 O21 2.368515 1_555
Mn8 O33 2.176588 1_555
Mn8 O47 2.179294 1_455
Mn8 O37 2.206532 1_555
Mn8 O31 2.213293 1_555
Mn8 O5 2.309875 1_556
Mn8 O41 2.333880 1_455
Mn9 O43 1.915236 1_555
Mn9 O19 1.988453 1_655
Mn9 O18 1.999359 1_655
Mn9 O41 2.059972 1_555
Mn9 O33 2.143540 1_655
Mn9 O27 2.318320 1_555
Mn10 O23 1.915729 1_655
Mn10 O38 1.996812 1_655
Mn10 O40 2.001208 1_555
Mn10 O42 2.055202 1_555
Mn10 O0 2.141950 1_656
Mn10 O28 2.264110 1_555
Mn11 O44 1.915719 1_555
Mn11 O8 1.992200 1_556
Mn11 O46 1.998126 1_555
Mn11 O45 2.058858 1_555
Mn11 O34 2.165008 1_555
Mn11 O1 2.303920 1_566
O0 P0 1.549733 1_555
O1 P1 1.594224 1_555
O2 P3 1.558590 1_545
O3 P0 1.556686 1_555
O4 P2 1.566916 1_555
O5 P3 1.559440 1_555
O6 P4 1.561064 1_555
O7 P0 1.587265 1_555
O8 P3 1.563849 1_555
O9 P4 1.541595 1_555
O10 P11 1.527508 1_554
O11 P1 1.521458 1_555
O12 P2 1.528907 1_555
O13 P5 1.561318 1_555
O14 P1 1.561054 1_555
O15 P2 1.556237 1_555
O16 P5 1.515512 1_555
O17 P3 1.555112 1_555
O18 P4 1.559831 1_555
O19 P6 1.591040 1_555
O20 P2 1.580390 1_565
O21 P4 1.576180 1_555
O22 P5 1.564725 1_555
O23 P10 1.542099 1_545
O24 P1 1.540771 1_565
O25 P6 1.555823 1_555
O26 P7 1.555515 1_555
O27 P5 1.591104 1_555
O28 P9 1.591255 1_545
O29 P7 1.563361 1_555
O30 P8 1.571307 1_555
O31 P6 1.530802 1_555
O32 P9 1.551983 1_555
O33 P10 1.552203 1_555
O34 P6 1.549529 1_555
O35 P9 1.527083 1_555
O36 P10 1.535856 1_545
O37 P0 1.531484 1_556
O38 P7 1.564351 1_455
O39 P8 1.564603 1_555
O40 P11 1.594884 1_555
O41 P7 1.553186 1_555
O42 P8 1.548965 1_555
O43 P9 1.541689 1_555
O44 P11 1.542130 1_555
O45 P8 1.555413 1_565
O46 P10 1.591218 1_555
O47 P11 1.550213 1_555
