# generated using pymatgen
data_V3O5F3
_symmetry_space_group_name_H-M   'P 1'
_cell_length_a   7.26717391
_cell_length_b   7.26717391
_cell_length_c   5.01579684
_cell_angle_alpha   89.63834691
_cell_angle_beta   89.63834691
_cell_angle_gamma   102.64377930
_symmetry_Int_Tables_number   1
_chemical_formula_structural   V3O5F3
_chemical_formula_sum   'V6 O10 F6'
_cell_volume   258.45644122
_cell_formula_units_Z   2
loop_
 _symmetry_equiv_pos_site_id
 _symmetry_equiv_pos_as_xyz
  1  'x, y, z'
loop_
 _atom_site_type_symbol
 _atom_site_label
 _atom_site_symmetry_multiplicity
 _atom_site_fract_x
 _atom_site_fract_y
 _atom_site_fract_z
 _atom_site_occupancy
  V  V0  1  0.34883900  0.17108700  0.27759600  1
  V  V1  1  0.67908800  0.31929600  0.76390700  1
  V  V2  1  0.17108700  0.34883900  0.77759600  1
  V  V3  1  0.82893100  0.66918500  0.21032900  1
  V  V4  1  0.31929600  0.67908800  0.26390700  1
  V  V5  1  0.66918500  0.82893100  0.71032900  1
  O  O0  1  0.67293800  0.06065900  0.64211300  1
  O  O1  1  0.54998300  0.21398900  0.08098300  1
  O  O2  1  0.93641700  0.32691400  0.86360800  1
  O  O3  1  0.43100300  0.29452800  0.59155300  1
  O  O4  1  0.29452800  0.43100300  0.09155300  1
  O  O5  1  0.69543800  0.57015700  0.89111300  1
  O  O6  1  0.21398900  0.54998300  0.58098300  1
  O  O7  1  0.57015700  0.69543800  0.39111300  1
  O  O8  1  0.06065900  0.67293800  0.14211300  1
  O  O9  1  0.32691400  0.93641700  0.36360800  1
  F  F0  1  0.18752500  0.10373200  0.95971000  1
  F  F1  1  0.10373200  0.18752500  0.45971000  1
  F  F2  1  0.78589200  0.43081500  0.42126900  1
  F  F3  1  0.90554000  0.81336000  0.54542700  1
  F  F4  1  0.43081500  0.78589200  0.92126900  1
  F  F5  1  0.81336000  0.90554000  0.04542700  1
loop_
_geom_bond_atom_site_label_1
_geom_bond_atom_site_label_2
_geom_bond_distance
_geom_bond_site_symmetry_2
O0 V5 1.710614 1_545
O0 V1 1.971294 1_555
O1 V0 1.727673 1_555
O1 V1 1.909643 1_554
O2 V2 1.729377 1_655
O2 V1 1.927973 1_555
O3 V0 1.853724 1_555
O3 V1 1.977293 1_555
O3 V2 2.214293 1_555
O4 V2 1.853724 1_554
O4 V4 1.977293 1_555
O4 V0 2.214293 1_555
O5 V1 1.914560 1_555
O5 V3 1.936787 1_556
O5 V5 2.129050 1_555
O6 V2 1.727673 1_555
O6 V4 1.909643 1_555
O7 V4 1.914560 1_555
O7 V5 1.936787 1_555
O7 V3 2.129050 1_555
O8 V3 1.710614 1_455
O8 V4 1.971294 1_555
O9 V0 1.729377 1_565
O9 V4 1.927973 1_555
F0 V0 1.984538 1_556
F0 V2 2.023720 1_555
F1 V2 1.984538 1_555
F1 V0 2.023720 1_555
F2 V1 1.975607 1_555
F2 V3 1.988349 1_555
F3 V5 1.927569 1_555
F3 V3 2.002857 1_555
F4 V4 1.975607 1_556
F4 V5 1.988349 1_555
F5 V3 1.927569 1_555
F5 V5 2.002857 1_554
