# generated using pymatgen
data_Li4(NiO2)7
_symmetry_space_group_name_H-M   'P 1'
_cell_length_a   4.92003100
_cell_length_b   6.43202187
_cell_length_c   7.65457974
_cell_angle_alpha   87.79653127
_cell_angle_beta   79.38053730
_cell_angle_gamma   83.73046539
_symmetry_Int_Tables_number   1
_chemical_formula_structural   Li4(NiO2)7
_chemical_formula_sum   'Li4 Ni7 O14'
_cell_volume   236.62051049
_cell_formula_units_Z   1
loop_
 _symmetry_equiv_pos_site_id
 _symmetry_equiv_pos_as_xyz
  1  'x, y, z'
loop_
 _atom_site_type_symbol
 _atom_site_label
 _atom_site_symmetry_multiplicity
 _atom_site_fract_x
 _atom_site_fract_y
 _atom_site_fract_z
 _atom_site_occupancy
  Li  Li0  1  0.07215200  0.85730600  0.85892000  1
  Li  Li1  1  0.92784800  0.14269400  0.14108000  1
  Li  Li2  1  0.77965500  0.42569200  0.42658700  1
  Li  Li3  1  0.22034500  0.57430800  0.57341300  1
  Ni  Ni0  1  0.85971900  0.28844900  0.78111800  1
  Ni  Ni1  1  0.14028100  0.71155100  0.21888200  1
  Ni  Ni2  1  0.57013400  0.86202000  0.35552800  1
  Ni  Ni3  1  0.28736100  0.42381500  0.93140600  1
  Ni  Ni4  1  0.71263900  0.57618500  0.06859400  1
  Ni  Ni5  1  0.00000000  0.00000000  0.50000000  1
  Ni  Ni6  1  0.42986600  0.13798000  0.64447200  1
  O  O0  1  0.77436200  0.02284500  0.72762400  1
  O  O1  1  0.83866200  0.83260700  0.12042600  1
  O  O2  1  0.16133800  0.16739300  0.87957400  1
  O  O3  1  0.62605200  0.31050900  0.00676400  1
  O  O4  1  0.98577800  0.54433900  0.82600100  1
  O  O5  1  0.22563800  0.97715500  0.27237600  1
  O  O6  1  0.91245400  0.73381600  0.44466100  1
  O  O7  1  0.37394800  0.68949100  0.99323600  1
  O  O8  1  0.69365500  0.11541200  0.40358000  1
  O  O9  1  0.30634500  0.88458800  0.59642000  1
  O  O10  1  0.01422200  0.45566100  0.17399900  1
  O  O11  1  0.45227800  0.60561900  0.31916800  1
  O  O12  1  0.08754600  0.26618400  0.55533900  1
  O  O13  1  0.54772200  0.39438100  0.68083200  1
loop_
_geom_bond_atom_site_label_1
_geom_bond_atom_site_label_2
_geom_bond_distance
_geom_bond_site_symmetry_2
Li0 O0 2.100019 1_465
Li0 O2 2.106295 1_565
Li0 O1 2.125952 1_456
Li0 O7 2.134053 1_555
Li0 O9 2.135314 1_555
Li0 O4 2.135793 1_455
Li1 O5 2.100019 1_645
Li1 O1 2.106295 1_545
Li1 O2 2.125952 1_654
Li1 O3 2.134053 1_555
Li1 O8 2.135314 1_555
Li1 O10 2.135793 1_655
Li2 O10 2.074805 1_655
Li2 O13 2.081276 1_555
Li2 O8 2.105208 1_555
Li2 O12 2.109895 1_655
Li2 O11 2.148865 1_555
Li2 O6 2.170491 1_555
Li3 O4 2.074805 1_455
Li3 O11 2.081276 1_555
Li3 O9 2.105208 1_555
Li3 O6 2.109895 1_455
Li3 O13 2.148865 1_555
Li3 O12 2.170491 1_555
Ni0 O2 1.868458 1_655
Ni0 O12 1.879829 1_655
Ni0 O0 1.880541 1_555
Ni0 O4 1.885902 1_555
Ni0 O13 1.890903 1_555
Ni0 O3 1.891158 1_556
Ni1 O1 1.868458 1_455
Ni1 O6 1.879829 1_455
Ni1 O5 1.880541 1_555
Ni1 O10 1.885902 1_555
Ni1 O11 1.890903 1_555
Ni1 O7 1.891158 1_554
Ni2 O11 1.853947 1_555
Ni2 O8 1.872369 1_565
Ni2 O5 1.978271 1_555
Ni2 O6 2.014702 1_555
Ni2 O1 2.028581 1_555
Ni2 O9 2.050109 1_555
Ni3 O4 1.896181 1_455
Ni3 O7 1.902918 1_555
Ni3 O2 1.904319 1_555
Ni3 O3 1.922853 1_556
Ni3 O10 2.084592 1_556
Ni3 O13 2.103573 1_555
Ni4 O10 1.896181 1_655
Ni4 O3 1.902918 1_555
Ni4 O1 1.904319 1_555
Ni4 O7 1.922853 1_554
Ni4 O4 2.084592 1_554
Ni4 O11 2.103573 1_555
Ni5 O9 1.868426 1_545
Ni5 O8 1.868426 1_455
Ni5 O5 1.887060 1_545
Ni5 O0 1.887060 1_455
Ni5 O12 1.892178 1_555
Ni5 O6 1.892178 1_445
Ni6 O13 1.853947 1_555
Ni6 O9 1.872369 1_545
Ni6 O0 1.978271 1_555
Ni6 O12 2.014702 1_555
Ni6 O2 2.028581 1_555
Ni6 O8 2.050109 1_555
