# generated using pymatgen
data_Li32Mn3Cr13O48
_symmetry_space_group_name_H-M   'P 1'
_cell_length_a   5.01981900
_cell_length_b   8.72539369
_cell_length_c   19.47471164
_cell_angle_alpha   97.89058642
_cell_angle_beta   94.72778812
_cell_angle_gamma   89.36450859
_symmetry_Int_Tables_number   1
_chemical_formula_structural   Li32Mn3Cr13O48
_chemical_formula_sum   'Li32 Mn3 Cr13 O48'
_cell_volume   842.03946150
_cell_formula_units_Z   1
loop_
 _symmetry_equiv_pos_site_id
 _symmetry_equiv_pos_as_xyz
  1  'x, y, z'
loop_
 _atom_site_type_symbol
 _atom_site_label
 _atom_site_symmetry_multiplicity
 _atom_site_fract_x
 _atom_site_fract_y
 _atom_site_fract_z
 _atom_site_occupancy
  Li  Li0  1  0.98950600  0.16781700  0.24946400  1
  Li  Li1  1  0.87323300  0.37433500  0.37500900  1
  Li  Li2  1  0.75132700  0.24919200  0.99953800  1
  Li  Li3  1  0.74075500  0.92088800  0.00026600  1
  Li  Li4  1  0.99141700  0.16780800  0.74929000  1
  Li  Li5  1  0.75543700  0.57919500  0.49970200  1
  Li  Li6  1  0.87435500  0.37464000  0.87488600  1
  Li  Li7  1  0.75341200  0.25019300  0.50004800  1
  Li  Li8  1  0.73961000  0.92006700  0.50008900  1
  Li  Li9  1  0.62323500  0.12395900  0.12508300  1
  Li  Li10  1  0.75437400  0.57891500  0.99980900  1
  Li  Li11  1  0.50838600  0.33084400  0.25040200  1
  Li  Li12  1  0.62303100  0.12396500  0.62504100  1
  Li  Li13  1  0.49887700  0.00045200  0.24983500  1
  Li  Li14  1  0.48996700  0.66950600  0.25012600  1
  Li  Li15  1  0.50553500  0.33099600  0.75019800  1
  Li  Li16  1  0.37460000  0.87502200  0.37493200  1
  Li  Li17  1  0.50073300  0.00053100  0.74983300  1
  Li  Li18  1  0.25080900  0.74998100  0.00007100  1
  Li  Li19  1  0.49061300  0.66876200  0.75010900  1
  Li  Li20  1  0.24438000  0.42053800  0.99985600  1
  Li  Li21  1  0.37476800  0.87522300  0.87505500  1
  Li  Li22  1  0.25905000  0.07996000  0.50005000  1
  Li  Li23  1  0.25004900  0.75080100  0.49996300  1
  Li  Li24  1  0.12672300  0.62602000  0.12488600  1
  Li  Li25  1  0.24403600  0.42019700  0.50030200  1
  Li  Li26  1  0.01088600  0.83216200  0.25037100  1
  Li  Li27  1  0.25955400  0.07931800  0.99961000  1
  Li  Li28  1  0.12466900  0.62462600  0.62478800  1
  Li  Li29  1  0.00182900  0.50064900  0.25046200  1
  Li  Li30  1  0.01059300  0.83152300  0.75019000  1
  Li  Li31  1  0.00251000  0.50033300  0.75005800  1
  Mn  Mn0  1  0.37555800  0.54145300  0.37494500  1
  Mn  Mn1  1  0.37414900  0.54132900  0.87451900  1
  Mn  Mn2  1  0.12619100  0.29181100  0.62516700  1
  Cr  Cr0  1  0.86739600  0.70646200  0.37448100  1
  Cr  Cr1  1  0.88082200  0.03892300  0.37520500  1
  Cr  Cr2  1  0.86559200  0.70732700  0.87453400  1
  Cr  Cr3  1  0.88276400  0.03933300  0.87564000  1
  Cr  Cr4  1  0.63002500  0.78846800  0.12466800  1
  Cr  Cr5  1  0.62264700  0.45289100  0.12406300  1
  Cr  Cr6  1  0.62974500  0.78842400  0.62513100  1
  Cr  Cr7  1  0.61926900  0.45524700  0.62448800  1
  Cr  Cr8  1  0.37185400  0.21205300  0.37536000  1
  Cr  Cr9  1  0.37387600  0.21245900  0.87544300  1
  Cr  Cr10  1  0.11970900  0.96135300  0.12526100  1
  Cr  Cr11  1  0.12877200  0.29713700  0.12599700  1
  Cr  Cr12  1  0.12095900  0.96182400  0.62533900  1
  O  O0  1  0.96858400  0.10597300  0.06950800  1
  O  O1  1  0.91983400  0.78407900  0.06858700  1
  O  O2  1  0.93415200  0.42296700  0.06712300  1
  O  O3  1  0.96582400  0.10790300  0.56941800  1
  O  O4  1  0.82964300  0.96608500  0.18121800  1
  O  O5  1  0.81626700  0.32677700  0.18286900  1
  O  O6  1  0.91960600  0.78597700  0.56858900  1
  O  O7  1  0.93199900  0.42726100  0.56778200  1
  O  O8  1  0.78172500  0.64372600  0.18034600  1
  O  O9  1  0.71802900  0.85255100  0.31857600  1
  O  O10  1  0.83067300  0.96496600  0.68137600  1
  O  O11  1  0.82393700  0.32367800  0.68190500  1
  O  O12  1  0.67563700  0.53376100  0.31867200  1
  O  O13  1  0.67349900  0.17658700  0.31782800  1
  O  O14  1  0.78210900  0.64358800  0.68096700  1
  O  O15  1  0.71907900  0.85214700  0.81872900  1
  O  O16  1  0.46351700  0.60276700  0.06876800  1
  O  O17  1  0.56899800  0.71374300  0.43045000  1
  O  O18  1  0.57515800  0.07378400  0.43224300  1
  O  O19  1  0.67423800  0.53260100  0.81858800  1
  O  O20  1  0.67325900  0.17565000  0.81816900  1
  O  O21  1  0.42711900  0.92693500  0.06790900  1
  O  O22  1  0.43788200  0.28773000  0.06889300  1
  O  O23  1  0.53912500  0.39658600  0.43135300  1
  O  O24  1  0.46768200  0.60287900  0.56882000  1
  O  O25  1  0.57058000  0.71326700  0.93041400  1
  O  O26  1  0.57570300  0.07252100  0.93247200  1
  O  O27  1  0.32349900  0.82349100  0.18196000  1
  O  O28  1  0.31274000  0.46270100  0.18127100  1
  O  O29  1  0.42401200  0.92728500  0.56770900  1
  O  O30  1  0.42767700  0.28484700  0.56922600  1
  O  O31  1  0.53815400  0.39568800  0.93113800  1
  O  O32  1  0.28522100  0.14739200  0.18132600  1
  O  O33  1  0.21472700  0.35803400  0.31946900  1
  O  O34  1  0.32539200  0.82431000  0.68219500  1
  O  O35  1  0.31748200  0.46368400  0.68084400  1
  O  O36  1  0.18055100  0.67774600  0.31779700  1
  O  O37  1  0.16987200  0.03578600  0.31866300  1
  O  O38  1  0.28939100  0.14652400  0.68155100  1
  O  O39  1  0.21361700  0.35860400  0.81944200  1
  O  O40  1  0.07377000  0.57384500  0.43168900  1
  O  O41  1  0.08088200  0.21472600  0.43126700  1
  O  O42  1  0.17988100  0.67809800  0.81802400  1
  O  O43  1  0.17131500  0.03630900  0.81907600  1
  O  O44  1  0.03197700  0.89480200  0.43126300  1
  O  O45  1  0.07348500  0.57376800  0.93167500  1
  O  O46  1  0.08155300  0.21517300  0.93168500  1
  O  O47  1  0.03335300  0.89579100  0.93159800  1
loop_
_geom_bond_atom_site_label_1
_geom_bond_atom_site_label_2
_geom_bond_distance
_geom_bond_site_symmetry_2
Li0 O37 2.040836 1_655
Li0 O32 2.061568 1_655
Li0 O13 2.147607 1_555
Li0 O5 2.154809 1_555
Li0 O4 2.172989 1_545
Li0 O33 2.248953 1_655
Li1 O23 2.071774 1_555
Li1 O12 2.081264 1_555
Li1 O33 2.094458 1_655
Li1 O41 2.103527 1_655
Li1 O13 2.132889 1_555
Li1 O40 2.142500 1_655
Li2 O26 2.036401 1_555
Li2 O2 2.038988 1_556
Li2 O22 2.151039 1_556
Li2 O31 2.180728 1_555
Li2 O0 2.190919 1_556
Li2 O46 2.196501 1_655
Li3 O1 2.053893 1_555
Li3 O47 2.056668 1_654
Li3 O26 2.110693 1_564
Li3 O21 2.130216 1_555
Li3 O0 2.218826 1_565
Li3 O25 2.242371 1_554
Li4 O43 2.044966 1_655
Li4 O38 2.064936 1_655
Li4 O11 2.135749 1_555
Li4 O20 2.163394 1_555
Li4 O10 2.178506 1_545
Li4 O39 2.246684 1_655
Li5 O24 2.044162 1_555
Li5 O17 2.067680 1_555
Li5 O7 2.136268 1_555
Li5 O40 2.154150 1_655
Li5 O23 2.169645 1_555
Li5 O6 2.218196 1_555
Li6 O19 2.076885 1_555
Li6 O31 2.079593 1_555
Li6 O39 2.083778 1_655
Li6 O46 2.107655 1_655
Li6 O45 2.137714 1_655
Li6 O20 2.140605 1_555
Li7 O18 2.047271 1_555
Li7 O7 2.051075 1_555
Li7 O3 2.167287 1_555
Li7 O23 2.186302 1_555
Li7 O30 2.195542 1_555
Li7 O41 2.197745 1_655
Li8 O6 2.042367 1_555
Li8 O44 2.057932 1_655
Li8 O18 2.123300 1_565
Li8 O29 2.137029 1_555
Li8 O3 2.231488 1_565
Li8 O17 2.232954 1_555
Li9 O22 2.082576 1_555
Li9 O32 2.087517 1_555
Li9 O4 2.088375 1_545
Li9 O0 2.111391 1_555
Li9 O21 2.120278 1_545
Li9 O5 2.156058 1_555
Li10 O16 2.053858 1_556
Li10 O25 2.063324 1_555
Li10 O2 2.156841 1_556
Li10 O45 2.158956 1_655
Li10 O31 2.175931 1_555
Li10 O1 2.209023 1_556
Li11 O33 2.066388 1_555
Li11 O28 2.069539 1_555
Li11 O5 2.107273 1_555
Li11 O13 2.122240 1_555
Li11 O12 2.193166 1_555
Li11 O32 2.197035 1_555
Li12 O38 2.071695 1_555
Li12 O30 2.080005 1_555
Li12 O10 2.100497 1_545
Li12 O3 2.101024 1_555
Li12 O29 2.125514 1_545
Li12 O11 2.145941 1_555
Li13 O13 2.040452 1_555
Li13 O27 2.045572 1_545
Li13 O32 2.185736 1_555
Li13 O37 2.204428 1_555
Li13 O9 2.206315 1_545
Li13 O4 2.208432 1_545
Li14 O12 2.063511 1_555
Li14 O8 2.068611 1_555
Li14 O36 2.112667 1_555
Li14 O27 2.132543 1_555
Li14 O9 2.200665 1_555
Li14 O28 2.240589 1_555
Li15 O35 2.061721 1_555
Li15 O39 2.062170 1_555
Li15 O20 2.140549 1_555
Li15 O11 2.156943 1_555
Li15 O38 2.182678 1_555
Li15 O19 2.188443 1_555
Li16 O17 2.077232 1_555
Li16 O37 2.104534 1_565
Li16 O44 2.108030 1_555
Li16 O9 2.111944 1_555
Li16 O36 2.117191 1_555
Li16 O18 2.142206 1_565
Li17 O20 2.033939 1_555
Li17 O34 2.038830 1_545
Li17 O38 2.172336 1_555
Li17 O10 2.203586 1_545
Li17 O15 2.209278 1_545
Li17 O43 2.211533 1_555
Li18 O21 2.046974 1_555
Li18 O45 2.050158 1_554
Li18 O25 2.178927 1_554
Li18 O47 2.187107 1_554
Li18 O16 2.187653 1_555
Li18 O1 2.207894 1_455
Li19 O14 2.058869 1_555
Li19 O19 2.061003 1_555
Li19 O42 2.120539 1_555
Li19 O34 2.136881 1_555
Li19 O15 2.205092 1_555
Li19 O35 2.226053 1_555
Li20 O31 2.061853 1_555
Li20 O22 2.069171 1_556
Li20 O2 2.114154 1_456
Li20 O45 2.135592 1_555
Li20 O16 2.179188 1_556
Li20 O46 2.200442 1_555
Li21 O25 2.082836 1_555
Li21 O43 2.100571 1_565
Li21 O47 2.105237 1_555
Li21 O15 2.115482 1_555
Li21 O42 2.117243 1_555
Li21 O26 2.134330 1_565
Li22 O41 2.046608 1_555
Li22 O3 2.068922 1_455
Li22 O29 2.115211 1_545
Li22 O18 2.142105 1_555
Li22 O44 2.213333 1_545
Li22 O30 2.216235 1_555
Li23 O29 2.038773 1_555
Li23 O40 2.051237 1_555
Li23 O17 2.173986 1_555
Li23 O44 2.180976 1_555
Li23 O24 2.204539 1_555
Li23 O6 2.207573 1_455
Li24 O16 2.080847 1_555
Li24 O28 2.083146 1_555
Li24 O1 2.092454 1_455
Li24 O8 2.108608 1_455
Li24 O27 2.123878 1_555
Li24 O2 2.156478 1_455
Li25 O30 2.062362 1_555
Li25 O23 2.069985 1_555
Li25 O7 2.121144 1_455
Li25 O40 2.142774 1_555
Li25 O24 2.188705 1_555
Li25 O41 2.209465 1_555
Li26 O9 2.051420 1_455
Li26 O4 2.052664 1_455
Li26 O36 2.130935 1_555
Li26 O27 2.134857 1_555
Li26 O37 2.184058 1_565
Li26 O8 2.248127 1_455
Li27 O46 2.040978 1_555
Li27 O0 2.067309 1_456
Li27 O21 2.126234 1_546
Li27 O26 2.133151 1_555
Li27 O47 2.195004 1_545
Li27 O22 2.256557 1_556
Li28 O35 2.077775 1_555
Li28 O24 2.105747 1_555
Li28 O14 2.106055 1_455
Li28 O6 2.108246 1_455
Li28 O7 2.113888 1_455
Li28 O34 2.149244 1_555
Li29 O5 2.045229 1_455
Li29 O36 2.047609 1_555
Li29 O28 2.138660 1_555
Li29 O33 2.165536 1_555
Li29 O12 2.184464 1_455
Li29 O8 2.198313 1_455
Li30 O10 2.042776 1_455
Li30 O15 2.050753 1_455
Li30 O42 2.129480 1_555
Li30 O34 2.138787 1_555
Li30 O43 2.199734 1_565
Li30 O14 2.236450 1_455
Li31 O11 2.052765 1_455
Li31 O42 2.055047 1_555
Li31 O35 2.154250 1_555
Li31 O39 2.161434 1_555
Li31 O14 2.186915 1_455
Li31 O19 2.196581 1_455
Mn0 O23 1.920476 1_555
Mn0 O12 1.929833 1_555
Mn0 O36 1.941412 1_555
Mn0 O40 1.943390 1_555
Mn0 O17 1.945365 1_555
Mn0 O33 1.946910 1_555
Mn1 O19 1.925259 1_555
Mn1 O31 1.928817 1_555
Mn1 O42 1.934791 1_555
Mn1 O39 1.938633 1_555
Mn1 O45 1.943701 1_555
Mn1 O25 1.953302 1_555
Mn2 O38 1.922181 1_555
Mn2 O30 1.931975 1_555
Mn2 O7 1.937387 1_455
Mn2 O35 1.939225 1_555
Mn2 O11 1.944985 1_455
Mn2 O3 1.951407 1_455
Cr0 O9 1.896740 1_555
Cr0 O17 1.919329 1_555
Cr0 O12 1.946434 1_555
Cr0 O40 1.946928 1_655
Cr0 O36 1.988438 1_655
Cr0 O44 1.996626 1_655
Cr1 O44 1.888948 1_645
Cr1 O37 1.890189 1_655
Cr1 O18 1.964319 1_555
Cr1 O9 1.979137 1_545
Cr1 O13 1.980807 1_555
Cr1 O41 1.986747 1_655
Cr2 O15 1.882395 1_555
Cr2 O25 1.904869 1_555
Cr2 O45 1.955275 1_655
Cr2 O19 1.959062 1_555
Cr2 O42 1.991345 1_655
Cr2 O47 2.005742 1_655
Cr3 O47 1.882984 1_645
Cr3 O43 1.888496 1_655
Cr3 O26 1.966733 1_555
Cr3 O20 1.979179 1_555
Cr3 O46 1.983858 1_655
Cr3 O15 1.988401 1_545
Cr4 O1 1.886767 1_555
Cr4 O8 1.889224 1_555
Cr4 O21 1.967933 1_555
Cr4 O27 1.971001 1_555
Cr4 O16 1.976085 1_555
Cr4 O4 2.000670 1_555
Cr5 O22 1.879262 1_555
Cr5 O5 1.898915 1_555
Cr5 O16 1.931200 1_555
Cr5 O28 1.981229 1_555
Cr5 O2 1.985005 1_555
Cr5 O8 1.998947 1_555
Cr6 O14 1.892942 1_555
Cr6 O6 1.893965 1_555
Cr6 O34 1.959830 1_555
Cr6 O24 1.969808 1_555
Cr6 O29 1.984690 1_555
Cr6 O10 1.994750 1_555
Cr7 O24 1.907711 1_555
Cr7 O30 1.927580 1_555
Cr7 O35 1.937615 1_555
Cr7 O11 1.939243 1_555
Cr7 O7 1.986665 1_555
Cr7 O14 1.990953 1_555
Cr8 O41 1.890456 1_555
Cr8 O33 1.909488 1_555
Cr8 O13 1.953967 1_555
Cr8 O18 1.969136 1_555
Cr8 O23 1.970687 1_555
Cr8 O37 1.999102 1_555
Cr9 O46 1.900152 1_555
Cr9 O39 1.917579 1_555
Cr9 O20 1.942439 1_555
Cr9 O31 1.954013 1_555
Cr9 O26 1.977425 1_555
Cr9 O43 1.997165 1_555
Cr10 O4 1.886080 1_455
Cr10 O0 1.888354 1_465
Cr10 O27 1.965683 1_555
Cr10 O21 1.975023 1_555
Cr10 O32 1.977667 1_565
Cr10 O1 2.000137 1_455
Cr11 O28 1.880752 1_555
Cr11 O2 1.900431 1_455
Cr11 O32 1.925945 1_555
Cr11 O22 1.976799 1_555
Cr11 O5 1.988273 1_455
Cr11 O0 2.004773 1_455
Cr12 O10 1.888946 1_455
Cr12 O3 1.906926 1_465
Cr12 O29 1.960388 1_555
Cr12 O34 1.966966 1_555
Cr12 O38 1.975782 1_565
Cr12 O6 1.995476 1_455
