# generated using pymatgen
data_LiV2P2HO9
_symmetry_space_group_name_H-M   'P 1'
_cell_length_a   6.77962100
_cell_length_b   6.47820400
_cell_length_c   8.75582562
_cell_angle_alpha   71.42753299
_cell_angle_beta   90.00000000
_cell_angle_gamma   90.00000000
_symmetry_Int_Tables_number   1
_chemical_formula_structural   LiV2P2HO9
_chemical_formula_sum   'Li2 V4 P4 H2 O18'
_cell_volume   364.52687057
_cell_formula_units_Z   2
loop_
 _symmetry_equiv_pos_site_id
 _symmetry_equiv_pos_as_xyz
  1  'x, y, z'
loop_
 _atom_site_type_symbol
 _atom_site_label
 _atom_site_symmetry_multiplicity
 _atom_site_fract_x
 _atom_site_fract_y
 _atom_site_fract_z
 _atom_site_occupancy
  Li  Li0  1  0.25000000  0.09799200  0.16823700  1
  Li  Li1  1  0.75000000  0.90200800  0.83176300  1
  V  V0  1  0.25000000  0.47748800  0.70765300  1
  V  V1  1  0.75000000  0.52251200  0.29234700  1
  V  V2  1  0.50000000  0.50000000  0.00000000  1
  V  V3  1  0.00000000  0.50000000  0.00000000  1
  P  P0  1  0.25000000  0.92143300  0.80148400  1
  P  P1  1  0.75000000  0.58485700  0.65866200  1
  P  P2  1  0.25000000  0.41514300  0.34133800  1
  P  P3  1  0.75000000  0.07856700  0.19851600  1
  H  H0  1  0.75000000  0.03937400  0.46340600  1
  H  H1  1  0.25000000  0.96062600  0.53659400  1
  O  O0  1  0.43928100  0.83125500  0.89550100  1
  O  O1  1  0.06071900  0.83125500  0.89550100  1
  O  O2  1  0.75000000  0.83323000  0.61814800  1
  O  O3  1  0.25000000  0.83471300  0.64553200  1
  O  O4  1  0.75000000  0.83359900  0.26270500  1
  O  O5  1  0.25000000  0.41136400  0.95555700  1
  O  O6  1  0.56045100  0.48862000  0.76390000  1
  O  O7  1  0.93954900  0.48862000  0.76390000  1
  O  O8  1  0.25000000  0.51715100  0.47739500  1
  O  O9  1  0.75000000  0.48284900  0.52260500  1
  O  O10  1  0.43954900  0.51138000  0.23610000  1
  O  O11  1  0.06045100  0.51138000  0.23610000  1
  O  O12  1  0.75000000  0.58863600  0.04444300  1
  O  O13  1  0.25000000  0.16640100  0.73729500  1
  O  O14  1  0.75000000  0.16528700  0.35446800  1
  O  O15  1  0.25000000  0.16677000  0.38185200  1
  O  O16  1  0.93928100  0.16874500  0.10449900  1
  O  O17  1  0.56071900  0.16874500  0.10449900  1
loop_
_geom_bond_atom_site_label_1
_geom_bond_atom_site_label_2
_geom_bond_distance
_geom_bond_site_symmetry_2
Li0 O15 2.056133 1_555
Li0 O17 2.190018 1_555
Li0 O16 2.190018 1_455
Li0 O5 2.276149 1_554
Li1 O2 2.056133 1_555
Li1 O1 2.190018 1_655
Li1 O0 2.190018 1_555
Li1 O12 2.276149 1_556
H0 O14 1.039013 1_555
H0 O2 1.570527 1_545
H1 O3 1.039013 1_555
H1 O15 1.570527 1_565
O0 P0 1.536012 1_555
O0 V2 2.088285 1_556
O1 P0 1.536012 1_555
O1 V3 2.088285 1_556
O2 P1 1.533352 1_555
O3 P0 1.633654 1_555
O3 V0 2.202145 1_555
O4 P3 1.505370 1_565
O4 V1 1.948217 1_555
O5 V3 1.869805 1_556
O5 V2 1.869805 1_556
O5 V0 2.074301 1_555
O6 P1 1.588461 1_555
O6 V2 2.131667 1_556
O6 V0 2.168018 1_555
O7 P1 1.588461 1_555
O7 V3 2.131667 1_656
O7 V0 2.168018 1_655
O8 P2 1.535365 1_555
O8 V0 1.949535 1_555
O9 P1 1.535365 1_555
O9 V1 1.949535 1_555
O10 P2 1.588461 1_555
O10 V2 2.131667 1_555
O10 V1 2.168018 1_555
O11 P2 1.588461 1_555
O11 V3 2.131667 1_555
O11 V1 2.168018 1_455
O12 V2 1.869805 1_555
O12 V3 1.869805 1_655
O12 V1 2.074301 1_555
O13 P0 1.505370 1_545
O13 V0 1.948217 1_555
O14 P3 1.633654 1_555
O14 V1 2.202145 1_555
O15 P2 1.533352 1_555
O16 P3 1.536012 1_555
O16 V3 2.088285 1_655
O17 P3 1.536012 1_555
O17 V2 2.088285 1_555
