# generated using pymatgen
data_V2Fe3Sn(PO4)6
_symmetry_space_group_name_H-M   'P 1'
_cell_length_a   8.57698881
_cell_length_b   8.57698881
_cell_length_c   8.57698845
_cell_angle_alpha   60.85680117
_cell_angle_beta   60.85680117
_cell_angle_gamma   60.85679569
_symmetry_Int_Tables_number   1
_chemical_formula_structural   V2Fe3Sn(PO4)6
_chemical_formula_sum   'V2 Fe3 Sn1 P6 O24'
_cell_volume   454.77771228
_cell_formula_units_Z   1
loop_
 _symmetry_equiv_pos_site_id
 _symmetry_equiv_pos_as_xyz
  1  'x, y, z'
loop_
 _atom_site_type_symbol
 _atom_site_label
 _atom_site_symmetry_multiplicity
 _atom_site_fract_x
 _atom_site_fract_y
 _atom_site_fract_z
 _atom_site_occupancy
  V  V0  1  0.99669800  0.99669800  0.99669800  1
  V  V1  1  0.50102300  0.50102300  0.50102300  1
  Fe  Fe0  1  0.64666700  0.64666700  0.64666700  1
  Fe  Fe1  1  0.85289500  0.85289500  0.85289500  1
  Fe  Fe2  1  0.35446200  0.35446200  0.35446200  1
  Sn  Sn0  1  0.14507600  0.14507600  0.14507600  1
  P  P0  1  0.55070300  0.95073000  0.25250500  1
  P  P1  1  0.25250500  0.55070300  0.95073000  1
  P  P2  1  0.95073000  0.25250500  0.55070300  1
  P  P3  1  0.04700900  0.74601000  0.45736600  1
  P  P4  1  0.74601000  0.45736600  0.04700900  1
  P  P5  1  0.45736600  0.04700900  0.74601000  1
  O  O0  1  0.31749700  0.50302700  0.10996700  1
  O  O1  1  0.10996700  0.31749700  0.50302700  1
  O  O2  1  0.50302700  0.10996700  0.31749700  1
  O  O3  1  0.74595900  0.93723000  0.09209100  1
  O  O4  1  0.39698000  0.98407100  0.18419600  1
  O  O5  1  0.56528800  0.75343000  0.40952300  1
  O  O6  1  0.09209100  0.74595900  0.93723000  1
  O  O7  1  0.40952300  0.56528800  0.75343000  1
  O  O8  1  0.00522300  0.81887100  0.60868500  1
  O  O9  1  0.75343000  0.40952300  0.56528800  1
  O  O10  1  0.05980000  0.90666500  0.25579700  1
  O  O11  1  0.81887100  0.60868500  0.00522300  1
  O  O12  1  0.18419600  0.39698000  0.98407100  1
  O  O13  1  0.93723000  0.09209100  0.74595900  1
  O  O14  1  0.24553000  0.59076300  0.44017500  1
  O  O15  1  0.98407100  0.18419600  0.39698000  1
  O  O16  1  0.59076300  0.44017500  0.24553000  1
  O  O17  1  0.90666500  0.25579700  0.05980000  1
  O  O18  1  0.44017500  0.24553000  0.59076300  1
  O  O19  1  0.60868500  0.00522300  0.81887100  1
  O  O20  1  0.25579700  0.05980000  0.90666500  1
  O  O21  1  0.49593000  0.89172100  0.68043900  1
  O  O22  1  0.89172100  0.68043900  0.49593000  1
  O  O23  1  0.68043900  0.49593000  0.89172100  1
loop_
_geom_bond_atom_site_label_1
_geom_bond_atom_site_label_2
_geom_bond_distance
_geom_bond_site_symmetry_2
Fe0 O21 1.937682 1_555
Fe0 O23 1.937682 1_555
Fe0 O22 1.937682 1_555
Fe0 O5 2.099748 1_555
Fe0 O9 2.099748 1_555
Fe0 O7 2.099748 1_555
Fe1 O19 1.933392 1_565
Fe1 O8 1.933392 1_655
Fe1 O11 1.933392 1_556
Fe1 O3 2.130706 1_556
Fe1 O6 2.130706 1_655
Fe1 O13 2.130706 1_565
Fe2 O2 1.942475 1_555
Fe2 O0 1.942475 1_555
Fe2 O1 1.942476 1_555
Fe2 O18 2.111631 1_555
Fe2 O14 2.111631 1_555
Fe2 O16 2.111631 1_555
O0 P1 1.522773 1_554
O1 P2 1.522773 1_455
O2 P0 1.522773 1_545
O3 P0 1.559848 1_555
O3 V0 2.121961 1_554
O4 P0 1.544473 1_555
O4 Sn0 2.009090 1_565
O5 P0 1.559235 1_555
O5 V1 2.166242 1_555
O6 P1 1.559848 1_555
O6 V0 2.121961 1_455
O7 P1 1.559235 1_555
O7 V1 2.166242 1_555
O8 P3 1.523877 1_555
O9 P2 1.559235 1_555
O9 V1 2.166242 1_555
O10 P3 1.594334 1_555
O10 Sn0 2.122976 1_565
O10 V0 2.218281 1_454
O11 P4 1.523877 1_555
O12 P1 1.544473 1_555
O12 Sn0 2.009090 1_556
O13 P2 1.559848 1_555
O13 V0 2.121961 1_545
O14 P3 1.559623 1_555
O14 V1 2.178695 1_555
O15 P2 1.544473 1_555
O15 Sn0 2.009090 1_655
O16 P4 1.559623 1_555
O16 V1 2.178695 1_555
O17 P4 1.594334 1_555
O17 Sn0 2.122976 1_655
O17 V0 2.218281 1_544
O18 P5 1.559623 1_555
O18 V1 2.178695 1_555
O19 P5 1.523877 1_555
O20 P5 1.594334 1_555
O20 Sn0 2.122976 1_556
O20 V0 2.218281 1_445
O21 P5 1.522819 1_565
O22 P3 1.522819 1_655
O23 P4 1.522819 1_556
