# generated using pymatgen
data_Ti3MnV2(PO4)6
_symmetry_space_group_name_H-M   'P 1'
_cell_length_a   8.59099428
_cell_length_b   8.59099428
_cell_length_c   8.59099501
_cell_angle_alpha   60.88869350
_cell_angle_beta   60.88869350
_cell_angle_gamma   60.88869240
_symmetry_Int_Tables_number   1
_chemical_formula_structural   Ti3MnV2(PO4)6
_chemical_formula_sum   'Ti3 Mn1 V2 P6 O24'
_cell_volume   457.32973052
_cell_formula_units_Z   1
loop_
 _symmetry_equiv_pos_site_id
 _symmetry_equiv_pos_as_xyz
  1  'x, y, z'
loop_
 _atom_site_type_symbol
 _atom_site_label
 _atom_site_symmetry_multiplicity
 _atom_site_fract_x
 _atom_site_fract_y
 _atom_site_fract_z
 _atom_site_occupancy
  Ti  Ti0  1  0.64584600  0.64584600  0.64584600  1
  Ti  Ti1  1  0.85670400  0.85670400  0.85670400  1
  Ti  Ti2  1  0.35413300  0.35413300  0.35413300  1
  Mn  Mn0  1  0.14474700  0.14474700  0.14474700  1
  V  V0  1  0.00079400  0.00079400  0.00079400  1
  V  V1  1  0.50157200  0.50157200  0.50157200  1
  P  P0  1  0.54711300  0.95211400  0.24855600  1
  P  P1  1  0.24855600  0.54711300  0.95211400  1
  P  P2  1  0.95211400  0.24855600  0.54711300  1
  P  P3  1  0.04462200  0.74624300  0.45815200  1
  P  P4  1  0.74624300  0.45815200  0.04462200  1
  P  P5  1  0.45815200  0.04462200  0.74624300  1
  O  O0  1  0.31088500  0.49687800  0.11979000  1
  O  O1  1  0.11979000  0.31088500  0.49687800  1
  O  O2  1  0.49687800  0.11979000  0.31088500  1
  O  O3  1  0.74461800  0.94041600  0.09016300  1
  O  O4  1  0.40025800  0.97827900  0.18496600  1
  O  O5  1  0.57190500  0.75835900  0.41217200  1
  O  O6  1  0.09016300  0.74461800  0.94041600  1
  O  O7  1  0.41217200  0.57190500  0.75835900  1
  O  O8  1  0.99890400  0.81341200  0.61929100  1
  O  O9  1  0.75835900  0.41217200  0.57190500  1
  O  O10  1  0.04971300  0.89825300  0.26612000  1
  O  O11  1  0.81341200  0.61929100  0.99890400  1
  O  O12  1  0.18496600  0.40025800  0.97827900  1
  O  O13  1  0.94041600  0.09016300  0.74461800  1
  O  O14  1  0.23942400  0.58512800  0.44674800  1
  O  O15  1  0.97827900  0.18496600  0.40025800  1
  O  O16  1  0.58512800  0.44674800  0.23942400  1
  O  O17  1  0.89825300  0.26612000  0.04971300  1
  O  O18  1  0.44674800  0.23942400  0.58512800  1
  O  O19  1  0.61929100  0.99890400  0.81341200  1
  O  O20  1  0.26612000  0.04971300  0.89825300  1
  O  O21  1  0.51785400  0.88842700  0.66745100  1
  O  O22  1  0.88842700  0.66745100  0.51785400  1
  O  O23  1  0.66745100  0.51785400  0.88842700  1
loop_
_geom_bond_atom_site_label_1
_geom_bond_atom_site_label_2
_geom_bond_distance
_geom_bond_site_symmetry_2
Mn0 O4 2.045901 1_545
Mn0 O12 2.045901 1_554
Mn0 O15 2.045901 1_455
Mn0 O10 2.223419 1_545
Mn0 O17 2.223419 1_455
Mn0 O20 2.223419 1_554
O0 P1 1.571242 1_554
O0 Ti2 1.891367 1_555
O1 P2 1.571242 1_455
O1 Ti2 1.891367 1_555
O2 P0 1.571242 1_545
O2 Ti2 1.891367 1_555
O3 P0 1.568862 1_555
O3 Ti1 2.077865 1_554
O3 V0 2.186602 1_665
O4 P0 1.488586 1_555
O5 P0 1.568952 1_555
O5 Ti0 2.030550 1_555
O5 V1 2.240200 1_555
O6 P1 1.568862 1_555
O6 Ti1 2.077865 1_455
O6 V0 2.186602 1_566
O7 P1 1.568952 1_555
O7 Ti0 2.030550 1_555
O7 V1 2.240200 1_555
O8 P3 1.559282 1_655
O8 Ti1 1.913721 1_555
O9 P2 1.568952 1_555
O9 Ti0 2.030550 1_555
O9 V1 2.240200 1_555
O10 P3 1.522520 1_555
O10 V0 2.183218 1_565
O11 P4 1.559282 1_556
O11 Ti1 1.913721 1_555
O12 P1 1.488586 1_555
O13 P2 1.568862 1_555
O13 Ti1 2.077865 1_545
O13 V0 2.186602 1_656
O14 P3 1.563549 1_555
O14 Ti2 2.100694 1_555
O14 V1 2.222442 1_555
O15 P2 1.488586 1_555
O16 P4 1.563549 1_555
O16 Ti2 2.100694 1_555
O16 V1 2.222442 1_555
O17 P4 1.522520 1_555
O17 V0 2.183218 1_655
O18 P5 1.563549 1_555
O18 Ti2 2.100694 1_555
O18 V1 2.222442 1_555
O19 P5 1.559282 1_565
O19 Ti1 1.913721 1_555
O20 P5 1.522520 1_555
O20 V0 2.183218 1_556
O21 P5 1.548611 1_565
O21 Ti0 1.880085 1_555
O22 P3 1.548611 1_655
O22 Ti0 1.880085 1_555
O23 P4 1.548611 1_556
O23 Ti0 1.880085 1_555
