# generated using pymatgen
data_Li2TiV3O8
_symmetry_space_group_name_H-M   'P 1'
_cell_length_a   8.35539100
_cell_length_b   8.50524300
_cell_length_c   8.52062300
_cell_angle_alpha   90.00000000
_cell_angle_beta   90.00000000
_cell_angle_gamma   90.00000000
_symmetry_Int_Tables_number   1
_chemical_formula_structural   Li2TiV3O8
_chemical_formula_sum   'Li8 Ti4 V12 O32'
_cell_volume   605.51492781
_cell_formula_units_Z   4
loop_
 _symmetry_equiv_pos_site_id
 _symmetry_equiv_pos_as_xyz
  1  'x, y, z'
loop_
 _atom_site_type_symbol
 _atom_site_label
 _atom_site_symmetry_multiplicity
 _atom_site_fract_x
 _atom_site_fract_y
 _atom_site_fract_z
 _atom_site_occupancy
  Li  Li0  1  0.74901000  0.74954000  0.75075200  1
  Li  Li1  1  0.50407700  0.50300100  0.50188400  1
  Li  Li2  1  0.49592300  0.00300100  0.99811600  1
  Li  Li3  1  0.25099000  0.24954000  0.74924800  1
  Li  Li4  1  0.24901000  0.75046000  0.24924800  1
  Li  Li5  1  0.00407700  0.99699900  0.49811600  1
  Li  Li6  1  0.99592300  0.49699900  0.00188400  1
  Li  Li7  1  0.75099000  0.25046000  0.25075200  1
  Ti  Ti0  1  0.61976800  0.37395700  0.87790600  1
  Ti  Ti1  1  0.38023200  0.87395700  0.62209400  1
  Ti  Ti2  1  0.11976800  0.12604300  0.12209400  1
  Ti  Ti3  1  0.88023200  0.62604300  0.37790600  1
  V  V0  1  0.63172200  0.12702800  0.62624900  1
  V  V1  1  0.62814200  0.87834000  0.37592300  1
  V  V2  1  0.62615600  0.62619400  0.12417200  1
  V  V3  1  0.37384400  0.12619400  0.37582800  1
  V  V4  1  0.37185800  0.37834000  0.12407700  1
  V  V5  1  0.36827800  0.62702800  0.87375100  1
  V  V6  1  0.13172200  0.37297200  0.37375100  1
  V  V7  1  0.12814200  0.62166000  0.62407700  1
  V  V8  1  0.12615600  0.87380600  0.87582800  1
  V  V9  1  0.87384400  0.37380600  0.62417200  1
  V  V10  1  0.87185800  0.12166000  0.87592300  1
  V  V11  1  0.86827800  0.87297200  0.12624900  1
  O  O0  1  0.63249400  0.36149400  0.63861700  1
  O  O1  1  0.62871900  0.14186100  0.86199400  1
  O  O2  1  0.64529900  0.87168600  0.13078800  1
  O  O3  1  0.61290200  0.89014100  0.61916900  1
  O  O4  1  0.64305200  0.63787800  0.36080900  1
  O  O5  1  0.61697500  0.11429100  0.39210800  1
  O  O6  1  0.61348100  0.38289500  0.10744600  1
  O  O7  1  0.60679000  0.61084300  0.88402900  1
  O  O8  1  0.39321000  0.11084300  0.61597100  1
  O  O9  1  0.38651900  0.88289500  0.39255400  1
  O  O10  1  0.38302500  0.61429100  0.10789200  1
  O  O11  1  0.35694800  0.13787800  0.13919100  1
  O  O12  1  0.38709800  0.39014100  0.88083100  1
  O  O13  1  0.35470100  0.37168600  0.36921200  1
  O  O14  1  0.37128100  0.64186100  0.63800600  1
  O  O15  1  0.36750600  0.86149400  0.86138300  1
  O  O16  1  0.13249400  0.13850600  0.36138300  1
  O  O17  1  0.12871900  0.35813900  0.13800600  1
  O  O18  1  0.14529900  0.62831400  0.86921200  1
  O  O19  1  0.11290200  0.60985900  0.38083100  1
  O  O20  1  0.14305200  0.86212200  0.63919100  1
  O  O21  1  0.11697500  0.38570900  0.60789200  1
  O  O22  1  0.11348100  0.11710500  0.89255400  1
  O  O23  1  0.10679000  0.88915700  0.11597100  1
  O  O24  1  0.89321000  0.38915700  0.38402900  1
  O  O25  1  0.88651900  0.61710500  0.60744600  1
  O  O26  1  0.88302500  0.88570900  0.89210800  1
  O  O27  1  0.85694800  0.36212200  0.86080900  1
  O  O28  1  0.88709800  0.10985900  0.11916900  1
  O  O29  1  0.85470100  0.12831400  0.63078800  1
  O  O30  1  0.87128100  0.85813900  0.36199400  1
  O  O31  1  0.86750600  0.63850600  0.13861700  1
loop_
_geom_bond_atom_site_label_1
_geom_bond_atom_site_label_2
_geom_bond_distance
_geom_bond_site_symmetry_2
Li0 O3 1.995087 1_555
Li0 O26 2.011424 1_555
Li0 O25 2.019852 1_555
Li0 O7 2.023175 1_555
Li1 O0 1.989259 1_555
Li1 O14 1.992792 1_555
Li1 O13 2.020654 1_555
Li1 O4 2.027131 1_555
Li2 O15 1.989259 1_545
Li2 O1 1.992792 1_555
Li2 O2 2.020654 1_546
Li2 O11 2.027131 1_556
Li3 O12 1.995087 1_555
Li3 O21 2.011424 1_555
Li3 O22 2.019852 1_555
Li3 O8 2.023175 1_555
Li4 O19 1.995087 1_555
Li4 O10 2.011424 1_555
Li4 O9 2.019852 1_555
Li4 O23 2.023175 1_555
Li5 O16 1.989259 1_565
Li5 O30 1.992792 1_455
Li5 O29 2.020654 1_465
Li5 O20 2.027131 1_555
Li6 O31 1.989259 1_555
Li6 O17 1.992792 1_655
Li6 O18 2.020654 1_654
Li6 O27 2.027131 1_554
Li7 O28 1.995087 1_555
Li7 O5 2.011424 1_555
Li7 O6 2.019852 1_555
Li7 O24 2.023175 1_555
O0 V0 1.996983 1_555
O0 V9 2.023038 1_555
O0 Ti0 2.044412 1_555
O1 Ti0 1.980096 1_555
O1 V0 2.012809 1_555
O1 V10 2.042226 1_555
O2 V11 1.863510 1_555
O2 V1 2.094381 1_555
O2 V2 2.094845 1_555
O3 Ti1 1.949075 1_555
O3 V0 2.021809 1_565
O3 V1 2.078940 1_555
O4 Ti3 1.989627 1_555
O4 V2 2.023672 1_555
O4 V1 2.053021 1_555
O5 V0 2.001762 1_555
O5 V1 2.013716 1_545
O5 V3 2.038700 1_555
O6 Ti0 1.958005 1_554
O6 V4 2.024193 1_555
O6 V2 2.076921 1_555
O7 V5 1.999528 1_555
O7 Ti0 2.018363 1_555
O7 V2 2.056704 1_556
O8 V0 1.999528 1_555
O8 Ti1 2.018363 1_545
O8 V3 2.056704 1_555
O9 Ti1 1.958005 1_555
O9 V1 2.024193 1_555
O9 V3 2.076921 1_565
O10 V5 2.001762 1_554
O10 V4 2.013716 1_555
O10 V2 2.038700 1_555
O11 Ti2 1.989627 1_555
O11 V3 2.023672 1_555
O11 V4 2.053021 1_555
O12 Ti0 1.949075 1_555
O12 V5 2.021809 1_555
O12 V4 2.078940 1_556
O13 V6 1.863510 1_555
O13 V4 2.094381 1_555
O13 V3 2.094845 1_555
O14 Ti1 1.980096 1_555
O14 V5 2.012809 1_555
O14 V7 2.042226 1_555
O15 V5 1.996983 1_555
O15 V8 2.023038 1_555
O15 Ti1 2.044412 1_555
O16 V6 1.996983 1_555
O16 V3 2.023038 1_555
O16 Ti2 2.044412 1_555
O17 Ti2 1.980096 1_555
O17 V6 2.012809 1_555
O17 V4 2.042226 1_555
O18 V5 1.863510 1_555
O18 V7 2.094381 1_555
O18 V8 2.094845 1_555
O19 Ti3 1.949075 1_455
O19 V6 2.021809 1_555
O19 V7 2.078940 1_555
O20 Ti1 1.989627 1_555
O20 V8 2.023672 1_555
O20 V7 2.053021 1_555
O21 V6 2.001762 1_555
O21 V7 2.013716 1_555
O21 V9 2.038700 1_455
O22 Ti2 1.958005 1_556
O22 V10 2.024193 1_455
O22 V8 2.076921 1_545
O23 V11 1.999528 1_455
O23 Ti2 2.018363 1_565
O23 V8 2.056704 1_554
O24 V6 1.999528 1_655
O24 Ti3 2.018363 1_555
O24 V9 2.056704 1_555
O25 Ti3 1.958005 1_555
O25 V7 2.024193 1_655
O25 V9 2.076921 1_555
O26 V11 2.001762 1_556
O26 V10 2.013716 1_565
O26 V8 2.038700 1_655
O27 Ti0 1.989627 1_555
O27 V9 2.023672 1_555
O27 V10 2.053021 1_555
O28 Ti2 1.949075 1_655
O28 V11 2.021809 1_545
O28 V10 2.078940 1_554
O29 V0 1.863510 1_555
O29 V10 2.094381 1_555
O29 V9 2.094845 1_555
O30 Ti3 1.980096 1_555
O30 V11 2.012809 1_555
O30 V1 2.042226 1_555
O31 V11 1.996983 1_555
O31 V2 2.023038 1_555
O31 Ti3 2.044412 1_555
