# generated using pymatgen
data_Be(CoO2)2
_symmetry_space_group_name_H-M   'P 1'
_cell_length_a   5.42745222
_cell_length_b   5.42745222
_cell_length_c   5.42745222
_cell_angle_alpha   60.00000000
_cell_angle_beta   90.00000000
_cell_angle_gamma   120.00000000
_symmetry_Int_Tables_number   1
_chemical_formula_structural   Be(CoO2)2
_chemical_formula_sum   'Be2 Co4 O8'
_cell_volume   113.05064097
_cell_formula_units_Z   2
loop_
 _symmetry_equiv_pos_site_id
 _symmetry_equiv_pos_as_xyz
  1  'x, y, z'
loop_
 _atom_site_type_symbol
 _atom_site_label
 _atom_site_symmetry_multiplicity
 _atom_site_fract_x
 _atom_site_fract_y
 _atom_site_fract_z
 _atom_site_occupancy
  Be  Be0  1  0.00000000  -0.00000000  0.00000000  1
  Be  Be1  1  0.25000000  0.50000000  0.25000000  1
  Co  Co0  1  0.62500000  0.25000000  0.12500000  1
  Co  Co1  1  0.62500000  0.25000000  0.62500000  1
  Co  Co2  1  0.62500000  0.75000000  0.62500000  1
  Co  Co3  1  0.12500000  0.75000000  0.62500000  1
  O  O0  1  0.86698368  0.24465612  0.37767244  1
  O  O1  1  0.87232756  0.25534388  0.87232756  1
  O  O2  1  0.87232756  0.74465612  0.38301632  1
  O  O3  1  0.37767244  0.24465612  0.37767244  1
  O  O4  1  0.37767244  0.75534388  0.37767244  1
  O  O5  1  0.38301632  0.25534388  0.87232756  1
  O  O6  1  0.87232756  0.74465612  0.87232756  1
  O  O7  1  0.37767244  0.75534388  0.86698368  1
loop_
_geom_bond_atom_site_label_1
_geom_bond_atom_site_label_2
_geom_bond_distance
_geom_bond_site_symmetry_2
Be0 O6 1.697335 1_444
Be0 O5 1.697335 1_554
Be0 O1 1.697335 1_454
Be0 O2 1.697335 1_445
Be1 O4 1.697335 1_555
Be1 O0 1.697335 1_455
Be1 O7 1.697335 1_554
Be1 O3 1.697335 1_555
Co0 O1 1.898607 1_554
Co0 O5 1.898607 1_554
Co0 O3 1.898607 1_555
Co0 O0 1.898607 1_555
Co0 O4 1.898607 1_545
Co0 O6 1.898607 1_554
Co1 O3 1.898603 1_555
Co1 O1 1.898603 1_555
Co1 O0 1.898603 1_555
Co1 O5 1.898603 1_555
Co1 O2 1.898607 1_555
Co1 O7 1.898607 1_545
Co2 O2 1.898603 1_555
Co2 O6 1.898603 1_555
Co2 O7 1.898603 1_555
Co2 O4 1.898603 1_555
Co2 O0 1.898607 1_565
Co2 O5 1.898607 1_555
Co3 O3 1.898607 1_565
Co3 O2 1.898607 1_455
Co3 O1 1.898607 1_455
Co3 O7 1.898607 1_555
Co3 O4 1.898607 1_555
Co3 O6 1.898607 1_455
