# generated using pymatgen
data_Li6V3P8O29
_symmetry_space_group_name_H-M   'P 1'
_cell_length_a   9.80799800
_cell_length_b   9.82674436
_cell_length_c   13.88212152
_cell_angle_alpha   89.63486440
_cell_angle_beta   89.60572349
_cell_angle_gamma   60.31259620
_symmetry_Int_Tables_number   1
_chemical_formula_structural   Li6V3P8O29
_chemical_formula_sum   'Li12 V6 P16 O58'
_cell_volume   1162.31297006
_cell_formula_units_Z   2
loop_
 _symmetry_equiv_pos_site_id
 _symmetry_equiv_pos_as_xyz
  1  'x, y, z'
loop_
 _atom_site_type_symbol
 _atom_site_label
 _atom_site_symmetry_multiplicity
 _atom_site_fract_x
 _atom_site_fract_y
 _atom_site_fract_z
 _atom_site_occupancy
  Li  Li0  1  0.68477100  0.09100700  0.44353300  1
  Li  Li1  1  0.22776500  0.68245700  0.44053800  1
  Li  Li2  1  0.33877200  0.33256500  0.61981500  1
  Li  Li3  1  0.33766000  0.33367300  0.11478900  1
  Li  Li4  1  0.08936600  0.68294400  0.93681300  1
  Li  Li5  1  0.22574300  0.09298900  0.93588900  1
  Li  Li6  1  0.90104500  0.77344100  0.56313700  1
  Li  Li7  1  0.08486900  0.22622400  0.44038800  1
  Li  Li8  1  0.77311400  0.90942900  0.05882400  1
  Li  Li9  1  0.90187400  0.32217200  0.05606700  1
  Li  Li10  1  0.32413700  0.90450800  0.56305700  1
  Li  Li11  1  0.32066200  0.77355300  0.05742400  1
  V  V0  1  0.99782400  0.56768000  0.75190800  1
  V  V1  1  0.99668900  0.43140600  0.25173600  1
  V  V2  1  0.57086900  0.99965200  0.25192600  1
  V  V3  1  0.43328400  0.99773300  0.75206500  1
  V  V4  1  0.57310900  0.43065700  0.74909200  1
  V  V5  1  0.43864700  0.56502700  0.24933700  1
  P  P0  1  0.68435400  0.23041500  0.15715800  1
  P  P1  1  0.68124200  0.09059700  0.65813000  1
  P  P2  1  0.23151400  0.67869100  0.65811000  1
  P  P3  1  0.33284500  0.33525600  0.87286800  1
  P  P4  1  0.33309300  0.33334200  0.37411300  1
  P  P5  1  0.09053600  0.67909400  0.15657100  1
  P  P6  1  0.91399700  0.76630800  0.34203800  1
  P  P7  1  0.23134300  0.09077900  0.15755600  1
  P  P8  1  0.76814500  0.91364900  0.84286400  1
  P  P9  1  0.09183000  0.23028900  0.65677900  1
  P  P10  1  0.91279900  0.31528100  0.84109200  1
  P  P11  1  0.66400800  0.66970900  0.62581600  1
  P  P12  1  0.66941700  0.66666700  0.12591200  1
  P  P13  1  0.76683300  0.31571300  0.34485200  1
  P  P14  1  0.31828100  0.91275500  0.34242900  1
  P  P15  1  0.32133800  0.76429600  0.84257300  1
  O  O0  1  0.76037900  0.23101800  0.43198200  1
  O  O1  1  0.66407100  0.25313800  0.65921000  1
  O  O2  1  0.75858700  0.99499500  0.93437800  1
  O  O3  1  0.66362500  0.08185600  0.16045800  1
  O  O4  1  0.51642500  0.37364000  0.17332400  1
  O  O5  1  0.47734100  0.33691500  0.82680400  1
  O  O6  1  0.37426500  0.51379800  0.67121900  1
  O  O7  1  0.23822800  0.75752200  0.93257300  1
  O  O8  1  0.25363400  0.66608400  0.15599600  1
  O  O9  1  0.48716400  0.18605900  0.33622800  1
  O  O10  1  0.51530500  0.11001300  0.67436900  1
  O  O11  1  0.32947200  0.48579600  0.33311400  1
  O  O12  1  0.33032100  0.33684000  0.98114900  1
  O  O13  1  0.33104900  0.33555800  0.48251900  1
  O  O14  1  0.18222800  0.48895400  0.83607900  1
  O  O15  1  0.37464000  0.11326700  0.17365200  1
  O  O16  1  0.32736500  0.18652300  0.83636500  1
  O  O17  1  0.08019200  0.66469400  0.65877900  1
  O  O18  1  0.00191900  0.78775200  0.24948700  1
  O  O19  1  0.00239800  0.75362500  0.43259500  1
  O  O20  1  0.99765800  0.75744800  0.06761300  1
  O  O21  1  0.11188500  0.51397500  0.17460600  1
  O  O22  1  0.18607700  0.32679400  0.33508600  1
  O  O23  1  0.91478300  0.74729000  0.83938200  1
  O  O24  1  0.11439300  0.37382600  0.67452800  1
  O  O25  1  0.25877700  0.08106300  0.66112400  1
  O  O26  1  0.79024800  0.99893500  0.74981700  1
  O  O27  1  0.75847700  0.99624500  0.56920200  1
  O  O28  1  0.24360500  0.00198200  0.43306000  1
  O  O29  1  0.74999800  0.91474800  0.34213800  1
  O  O30  1  0.90339600  0.61697500  0.32290300  1
  O  O31  1  0.08137800  0.25543300  0.15836700  1
  O  O32  1  0.81275200  0.67129200  0.66619100  1
  O  O33  1  0.90642000  0.47518300  0.82176400  1
  O  O34  1  0.00399000  0.24270500  0.93148100  1
  O  O35  1  0.00941300  0.23620200  0.56649800  1
  O  O36  1  0.00502800  0.20785000  0.74956100  1
  O  O37  1  0.91583800  0.33377300  0.34084300  1
  O  O38  1  0.67301900  0.81296600  0.16733600  1
  O  O39  1  0.61681000  0.90487300  0.82238500  1
  O  O40  1  0.81332400  0.51358900  0.16714300  1
  O  O41  1  0.66493100  0.66715200  0.01860200  1
  O  O42  1  0.66160000  0.67122400  0.51860700  1
  O  O43  1  0.66076400  0.52353200  0.67290700  1
  O  O44  1  0.47697800  0.90609500  0.32119400  1
  O  O45  1  0.51142800  0.81629100  0.66677700  1
  O  O46  1  0.74907200  0.33670600  0.83944700  1
  O  O47  1  0.78864100  0.20984800  0.25034900  1
  O  O48  1  0.76708500  0.23838100  0.06935500  1
  O  O49  1  0.61918000  0.47642000  0.32690600  1
  O  O50  1  0.51495200  0.66878000  0.16851900  1
  O  O51  1  0.47972700  0.61839400  0.82731300  1
  O  O52  1  0.33240400  0.91628600  0.84157600  1
  O  O53  1  0.24262100  0.00057100  0.06808600  1
  O  O54  1  0.20988900  0.00221800  0.25002400  1
  O  O55  1  0.33537600  0.74927200  0.34203000  1
  O  O56  1  0.24095700  0.76011500  0.56820100  1
  O  O57  1  0.21161400  0.78570200  0.74992000  1
loop_
_geom_bond_atom_site_label_1
_geom_bond_atom_site_label_2
_geom_bond_distance
_geom_bond_site_symmetry_2
Li0 O0 1.864075 1_555
Li0 O27 1.939857 1_545
Li0 O29 2.076451 1_545
Li0 O9 2.253129 1_555
Li1 O56 1.964207 1_555
Li1 O19 1.964249 1_555
Li1 O55 2.017481 1_555
Li1 O11 2.249534 1_555
Li2 O13 1.907446 1_555
Li2 O6 2.106142 1_555
Li2 O10 2.144855 1_555
Li2 O24 2.163671 1_555
Li3 O12 1.856563 1_554
Li3 O4 2.143473 1_555
Li3 O15 2.166490 1_555
Li3 O21 2.199879 1_555
Li4 O7 1.931425 1_555
Li4 O20 1.996070 1_456
Li4 O23 2.027244 1_455
Li4 O14 2.171557 1_555
Li5 O34 1.931266 1_555
Li5 O52 2.008607 1_545
Li5 O53 2.013470 1_556
Li5 O16 2.149271 1_555
Li6 O27 1.929816 1_555
Li6 O19 2.024383 1_655
Li6 O17 2.036230 1_655
Li6 O32 2.151705 1_555
Li7 O35 1.880069 1_555
Li7 O28 1.972916 1_555
Li7 O37 2.013070 1_455
Li7 O22 2.243275 1_555
Li8 O2 1.891566 1_554
Li8 O20 1.959333 1_555
Li8 O3 2.054770 1_565
Li8 O38 2.239365 1_555
Li9 O48 1.879535 1_555
Li9 O34 1.955201 1_654
Li9 O31 2.103656 1_655
Li9 O40 2.251776 1_555
Li10 O56 1.956664 1_555
Li10 O28 2.011527 1_565
Li10 O25 2.047146 1_565
Li10 O45 2.154575 1_555
Li11 O7 1.957398 1_554
Li11 O53 1.973760 1_565
Li11 O8 2.019124 1_555
Li11 O50 2.268619 1_555
O0 P13 1.482566 1_555
O1 P1 1.521056 1_555
O1 V4 1.966399 1_555
O2 P8 1.482832 1_555
O3 P0 1.570863 1_555
O3 V2 1.947169 1_545
O4 P0 1.564215 1_555
O4 V5 1.955915 1_555
O5 P3 1.558193 1_555
O5 V4 1.930057 1_555
O6 P2 1.539975 1_555
O6 V4 2.019687 1_555
O7 P15 1.506167 1_555
O8 P5 1.540324 1_555
O8 V5 2.046703 1_555
O9 P4 1.577088 1_555
O9 V2 1.980774 1_545
O10 P1 1.556896 1_555
O10 V3 1.969764 1_545
O11 P4 1.583126 1_555
O11 V5 1.975469 1_555
O12 P3 1.503256 1_555
O13 P4 1.505053 1_555
O14 P3 1.585798 1_555
O14 V0 1.966363 1_455
O15 P7 1.544884 1_555
O15 V2 2.004057 1_545
O16 P3 1.575900 1_555
O16 V3 1.998093 1_545
O17 P2 1.556841 1_555
O17 V0 1.991402 1_455
O18 P6 1.612468 1_455
O18 P5 1.625473 1_555
O19 P6 1.501203 1_455
O20 P5 1.502104 1_655
O21 P5 1.548646 1_555
O21 V1 1.990398 1_455
O22 P4 1.574780 1_555
O22 V1 1.992220 1_455
O23 P8 1.553844 1_555
O23 V0 1.960330 1_555
O24 P9 1.553565 1_555
O24 V0 1.985384 1_455
O25 P9 1.567468 1_555
O25 V3 1.955011 1_545
O26 P8 1.606287 1_555
O26 P1 1.620074 1_565
O27 P1 1.504498 1_565
O28 P14 1.501147 1_545
O29 P6 1.546267 1_555
O29 V2 1.978924 1_555
O30 P6 1.546378 1_555
O30 V1 1.869850 1_555
O31 P7 1.556976 1_555
O31 V1 1.987772 1_455
O32 P11 1.573712 1_555
O32 V0 1.982706 1_555
O33 P10 1.562824 1_555
O33 V0 1.831458 1_555
O34 P10 1.501763 1_455
O35 P9 1.481226 1_555
O36 P9 1.612338 1_555
O36 P10 1.613274 1_455
O37 P13 1.557583 1_555
O37 V1 1.950496 1_555
O38 P12 1.568399 1_555
O38 V2 1.984657 1_555
O39 P8 1.557016 1_555
O39 V3 1.847036 1_555
O40 P12 1.574686 1_555
O40 V1 1.960605 1_555
O41 P12 1.490550 1_555
O42 P11 1.488501 1_555
O43 P11 1.588947 1_555
O43 V4 1.855530 1_555
O44 P14 1.551420 1_555
O44 V2 1.852850 1_555
O45 P11 1.581522 1_555
O45 V3 1.956801 1_555
O46 P10 1.512979 1_555
O46 V4 1.959840 1_555
O47 P0 1.603373 1_555
O47 P13 1.625486 1_555
O48 P0 1.482675 1_555
O49 P13 1.545264 1_555
O49 V5 1.881513 1_555
O50 P12 1.613115 1_555
O50 V5 1.894198 1_555
O51 P15 1.518856 1_555
O51 V4 1.938965 1_555
O52 P15 1.550161 1_555
O52 V3 1.979499 1_555
O53 P7 1.501897 1_555
O54 P7 1.616427 1_555
O54 P14 1.620869 1_545
O55 P14 1.530456 1_555
O55 V5 2.038381 1_555
O56 P2 1.505224 1_555
O57 P2 1.605816 1_555
O57 P15 1.627307 1_555
