# generated using pymatgen
data_KMnPCO7
_symmetry_space_group_name_H-M   'P 1'
_cell_length_a   6.21137700
_cell_length_b   5.40305700
_cell_length_c   10.00912746
_cell_angle_alpha   88.70652408
_cell_angle_beta   90.00000000
_cell_angle_gamma   90.00000000
_symmetry_Int_Tables_number   1
_chemical_formula_structural   KMnPCO7
_chemical_formula_sum   'K2 Mn2 P2 C2 O14'
_cell_volume   335.82496670
_cell_formula_units_Z   2
loop_
 _symmetry_equiv_pos_site_id
 _symmetry_equiv_pos_as_xyz
  1  'x, y, z'
loop_
 _atom_site_type_symbol
 _atom_site_label
 _atom_site_symmetry_multiplicity
 _atom_site_fract_x
 _atom_site_fract_y
 _atom_site_fract_z
 _atom_site_occupancy
  K  K0  1  0.59224100  0.75510000  0.76501700  1
  K  K1  1  0.09224100  0.24490000  0.23498300  1
  Mn  Mn0  1  0.22883700  0.22646000  0.64582400  1
  Mn  Mn1  1  0.72883700  0.77354000  0.35417600  1
  P  P0  1  0.73363500  0.27449900  0.55733900  1
  P  P1  1  0.23363500  0.72550100  0.44266100  1
  C  C0  1  0.25397300  0.28050800  0.88758200  1
  C  C1  1  0.75397300  0.71949200  0.11241800  1
  O  O0  1  0.77988600  0.68785700  0.99138900  1
  O  O1  1  0.24365100  0.06454500  0.82965900  1
  O  O2  1  0.23721000  0.46244500  0.79702500  1
  O  O3  1  0.92331900  0.22050500  0.65559900  1
  O  O4  1  0.53933900  0.22431800  0.65286000  1
  O  O5  1  0.23756400  0.89283400  0.56384100  1
  O  O6  1  0.73249700  0.55205700  0.51361900  1
  O  O7  1  0.23249700  0.44794300  0.48638100  1
  O  O8  1  0.73756400  0.10716600  0.43615900  1
  O  O9  1  0.03933900  0.77568200  0.34714000  1
  O  O10  1  0.42331900  0.77949500  0.34440100  1
  O  O11  1  0.73721000  0.53755500  0.20297500  1
  O  O12  1  0.74365100  0.93545500  0.17034100  1
  O  O13  1  0.27988600  0.31214300  0.00861100  1
loop_
_geom_bond_atom_site_label_1
_geom_bond_atom_site_label_2
_geom_bond_distance
_geom_bond_site_symmetry_2
K0 O0 2.566533 1_555
K0 O2 2.728206 1_555
K0 O4 2.768935 1_565
K0 O1 2.819764 1_565
K0 O6 2.901508 1_555
K0 O5 3.064976 1_555
K0 O4 3.120589 1_555
K1 O13 2.566533 1_555
K1 O11 2.728206 1_455
K1 O9 2.768935 1_545
K1 O12 2.819764 1_445
K1 O7 2.901508 1_555
K1 O8 3.064976 1_455
K1 O9 3.120589 1_555
Mn0 O3 1.900443 1_455
Mn0 O4 1.929955 1_555
Mn0 O7 1.973120 1_555
Mn0 O5 1.998108 1_545
Mn0 O2 2.001474 1_555
Mn0 O1 2.021592 1_555
Mn1 O10 1.900443 1_555
Mn1 O9 1.929955 1_655
Mn1 O6 1.973120 1_555
Mn1 O8 1.998108 1_565
Mn1 O11 2.001474 1_555
Mn1 O12 2.021592 1_555
C0 O13 1.237719 1_556
C0 O1 1.316182 1_555
C0 O2 1.326081 1_555
C1 O0 1.237719 1_554
C1 O12 1.316182 1_555
C1 O11 1.326081 1_555
O3 P0 1.558067 1_555
O4 P0 1.559608 1_555
O5 P1 1.529268 1_555
O6 P0 1.552707 1_555
O7 P1 1.552707 1_555
O8 P0 1.529268 1_555
O9 P1 1.559608 1_555
O10 P1 1.558067 1_555
