# generated using pymatgen
data_LiFeF4
_symmetry_space_group_name_H-M   'P 1'
_cell_length_a   5.04237200
_cell_length_b   5.12507537
_cell_length_c   5.13006033
_cell_angle_alpha   91.12019228
_cell_angle_beta   99.17554934
_cell_angle_gamma   92.41935898
_symmetry_Int_Tables_number   1
_chemical_formula_structural   LiFeF4
_chemical_formula_sum   'Li2 Fe2 F8'
_cell_volume   130.71432277
_cell_formula_units_Z   2
loop_
 _symmetry_equiv_pos_site_id
 _symmetry_equiv_pos_as_xyz
  1  'x, y, z'
loop_
 _atom_site_type_symbol
 _atom_site_label
 _atom_site_symmetry_multiplicity
 _atom_site_fract_x
 _atom_site_fract_y
 _atom_site_fract_z
 _atom_site_occupancy
  Li  Li0  1  0.75327200  0.02232600  0.68290800  1
  Li  Li1  1  0.24672800  0.97767400  0.31709200  1
  Fe  Fe0  1  0.78063100  0.45668300  0.19984100  1
  Fe  Fe1  1  0.21936900  0.54331700  0.80015900  1
  F  F0  1  0.60024900  0.15986800  0.31886800  1
  F  F1  1  0.04439000  0.26203300  0.00640800  1
  F  F2  1  0.08855400  0.28542400  0.50941700  1
  F  F3  1  0.56386800  0.35726700  0.82851200  1
  F  F4  1  0.43613200  0.64273300  0.17148800  1
  F  F5  1  0.91144600  0.71457600  0.49058300  1
  F  F6  1  0.95561000  0.73796700  0.99359200  1
  F  F7  1  0.39975100  0.84013200  0.68113200  1
loop_
_geom_bond_atom_site_label_1
_geom_bond_atom_site_label_2
_geom_bond_distance
_geom_bond_site_symmetry_2
F0 Fe0 1.900214 1_555
F0 Li1 1.975741 1_545
F0 Li0 2.053736 1_555
F1 Fe1 2.055767 1_554
F1 Fe0 2.059838 1_455
F1 Li1 2.324409 1_545
F1 Li0 2.325800 1_454
F2 Fe1 1.985506 1_555
F2 Li1 2.096090 1_545
F2 Fe0 2.255326 1_455
F2 Li0 2.408906 1_455
F3 Fe1 2.003130 1_555
F3 Fe0 2.081841 1_556
F3 Li0 2.175443 1_555
F4 Fe0 2.003130 1_555
F4 Fe1 2.081841 1_554
F4 Li1 2.175443 1_555
F5 Fe0 1.985506 1_555
F5 Li0 2.096090 1_565
F5 Fe1 2.255326 1_655
F5 Li1 2.408906 1_655
F6 Fe0 2.055767 1_556
F6 Fe1 2.059838 1_655
F6 Li0 2.324409 1_565
F6 Li1 2.325800 1_656
F7 Fe1 1.900214 1_555
F7 Li0 1.975741 1_565
F7 Li1 2.053736 1_555
