# generated using pymatgen
data_LiCo2O2F3
_symmetry_space_group_name_H-M   'P 1'
_cell_length_a   5.29636645
_cell_length_b   5.29636645
_cell_length_c   10.35343700
_cell_angle_alpha   90.00000000
_cell_angle_beta   90.00000000
_cell_angle_gamma   139.69692166
_symmetry_Int_Tables_number   1
_chemical_formula_structural   LiCo2O2F3
_chemical_formula_sum   'Li2 Co4 O4 F6'
_cell_volume   187.85867597
_cell_formula_units_Z   2
loop_
 _symmetry_equiv_pos_site_id
 _symmetry_equiv_pos_as_xyz
  1  'x, y, z'
loop_
 _atom_site_type_symbol
 _atom_site_label
 _atom_site_symmetry_multiplicity
 _atom_site_fract_x
 _atom_site_fract_y
 _atom_site_fract_z
 _atom_site_occupancy
  Li  Li0  1  0.82702700  0.17297300  0.25000000  1
  Li  Li1  1  0.17297300  0.82702700  0.75000000  1
  Co  Co0  1  0.85364700  0.14635300  0.55784900  1
  Co  Co1  1  0.85364700  0.14635300  0.94215100  1
  Co  Co2  1  0.14635300  0.85364700  0.05784900  1
  Co  Co3  1  0.14635300  0.85364700  0.44215100  1
  O  O0  1  0.67584300  0.32415700  0.45330400  1
  O  O1  1  0.67584300  0.32415700  0.04669600  1
  O  O2  1  0.32415700  0.67584300  0.95330400  1
  O  O3  1  0.32415700  0.67584300  0.54669600  1
  F  F0  1  0.96022900  0.03977100  0.11804600  1
  F  F1  1  0.96022900  0.03977100  0.38195400  1
  F  F2  1  0.76301000  0.23699000  0.75000000  1
  F  F3  1  0.23699000  0.76301000  0.25000000  1
  F  F4  1  0.03977100  0.96022900  0.61804600  1
  F  F5  1  0.03977100  0.96022900  0.88195400  1
loop_
_geom_bond_atom_site_label_1
_geom_bond_atom_site_label_2
_geom_bond_distance
_geom_bond_site_symmetry_2
Li0 O0 2.586668 1_555
Li0 O1 2.586668 1_555
Li1 O2 2.586668 1_555
Li1 O3 2.586668 1_555
Co0 O3 1.851641 1_545
Co0 O3 1.851641 1_655
Co0 F4 1.952988 1_645
Co0 O0 2.073136 1_555
Co0 F1 2.107088 1_555
Co0 F2 2.184075 1_555
Co1 O2 1.851641 1_545
Co1 O2 1.851641 1_655
Co1 F5 1.952988 1_645
Co1 O1 2.073136 1_556
Co1 F0 2.107088 1_556
Co1 F2 2.184075 1_555
Co2 O1 1.851641 1_455
Co2 O1 1.851641 1_565
Co2 F0 1.952988 1_465
Co2 O2 2.073136 1_554
Co2 F5 2.107088 1_554
Co2 F3 2.184075 1_555
Co3 O0 1.851641 1_455
Co3 O0 1.851641 1_565
Co3 F1 1.952988 1_465
Co3 O3 2.073136 1_555
Co3 F4 2.107088 1_555
Co3 F3 2.184075 1_555
F0 Li0 1.902894 1_555
F1 Li0 1.902894 1_555
F2 Li1 2.032462 1_655
F2 Li1 2.032462 1_545
F3 Li0 2.032462 1_565
F3 Li0 2.032462 1_455
F4 Li1 1.902894 1_555
F5 Li1 1.902894 1_555
