# generated using pymatgen
data_LiVCrP2(HO5)2
_symmetry_space_group_name_H-M   'P 1'
_cell_length_a   6.88595100
_cell_length_b   7.44060777
_cell_length_c   11.02001247
_cell_angle_alpha   98.67019226
_cell_angle_beta   107.20040602
_cell_angle_gamma   89.38132111
_symmetry_Int_Tables_number   1
_chemical_formula_structural   LiVCrP2(HO5)2
_chemical_formula_sum   'Li3 V3 Cr3 P6 H6 O30'
_cell_volume   532.86094523
_cell_formula_units_Z   3
loop_
 _symmetry_equiv_pos_site_id
 _symmetry_equiv_pos_as_xyz
  1  'x, y, z'
loop_
 _atom_site_type_symbol
 _atom_site_label
 _atom_site_symmetry_multiplicity
 _atom_site_fract_x
 _atom_site_fract_y
 _atom_site_fract_z
 _atom_site_occupancy
  Li  Li0  1  0.24991700  0.31166800  0.15950200  1
  Li  Li1  1  0.08419900  0.35233800  0.50638000  1
  Li  Li2  1  0.75028100  0.68909400  0.83997600  1
  V  V0  1  0.16983700  0.33227100  0.83459200  1
  V  V1  1  0.82827400  0.66529900  0.16686800  1
  V  V2  1  0.50316000  0.99913300  0.50122500  1
  Cr  Cr0  1  0.66601900  0.33176300  0.33297600  1
  Cr  Cr1  1  0.33177000  0.66909800  0.66529200  1
  Cr  Cr2  1  0.99963300  0.99861000  0.99969400  1
  P  P0  1  0.05287500  0.07294100  0.30035800  1
  P  P1  1  0.61638200  0.25737600  0.03244800  1
  P  P2  1  0.28036800  0.59312400  0.36510400  1
  P  P3  1  0.71932400  0.40596600  0.63477700  1
  P  P4  1  0.38377600  0.74159000  0.96641500  1
  P  P5  1  0.94909200  0.92430600  0.70004100  1
  H  H0  1  0.04420700  0.67162000  0.01723900  1
  H  H1  1  0.69057900  0.00082400  0.33889000  1
  H  H2  1  0.37653400  0.33760100  0.68230800  1
  H  H3  1  0.64178600  0.66534700  0.32870800  1
  H  H4  1  0.30735900  0.99892800  0.66020700  1
  H  H5  1  0.95516100  0.32832400  0.98342100  1
  O  O0  1  0.14009900  0.07664800  0.18765900  1
  O  O1  1  0.22774800  0.08846600  0.42956500  1
  O  O2  1  0.10495900  0.57981800  0.23558700  1
  O  O3  1  0.08621200  0.10019100  0.71815700  1
  O  O4  1  0.52297900  0.27051200  0.14402700  1
  O  O5  1  0.73746700  0.08748400  0.02143900  1
  O  O6  1  0.19312000  0.58814700  0.47754600  1
  O  O7  1  0.59897600  0.08681200  0.36915200  1
  O  O8  1  0.40033600  0.42073700  0.34586000  1
  O  O9  1  0.75879300  0.42901900  0.04800900  1
  O  O10  1  0.06954200  0.25203000  0.97170100  1
  O  O11  1  0.26172200  0.41343800  0.69386400  1
  O  O12  1  0.07307900  0.75639700  0.68639100  1
  O  O13  1  0.56300200  0.74541500  0.09290800  1
  O  O14  1  0.42055200  0.76460100  0.38397800  1
  O  O15  1  0.57373900  0.23811000  0.61792000  1
  O  O16  1  0.43697000  0.25525400  0.90549600  1
  O  O17  1  0.93156500  0.24477600  0.31939600  1
  O  O18  1  0.73282600  0.57918300  0.29749600  1
  O  O19  1  0.92892700  0.74705800  0.02752100  1
  O  O20  1  0.24195500  0.56913800  0.95114800  1
  O  O21  1  0.60163400  0.58005800  0.65153700  1
  O  O22  1  0.39815900  0.91260600  0.62939600  1
  O  O23  1  0.81024400  0.39582200  0.52273200  1
  O  O24  1  0.26216300  0.91122100  0.97788100  1
  O  O25  1  0.47602200  0.72699900  0.85411800  1
  O  O26  1  0.91391200  0.90030200  0.28159500  1
  O  O27  1  0.89500300  0.41911600  0.76443700  1
  O  O28  1  0.77094200  0.92094900  0.57362400  1
  O  O29  1  0.85922000  0.92405400  0.81246200  1
loop_
_geom_bond_atom_site_label_1
_geom_bond_atom_site_label_2
_geom_bond_distance
_geom_bond_site_symmetry_2
Li0 O4 1.954436 1_555
Li0 O0 2.014191 1_555
Li0 O8 2.051000 1_555
Li0 O10 2.058511 1_554
Li0 O2 2.372296 1_555
Li1 O23 1.966241 1_455
Li1 O6 2.019764 1_555
Li1 O11 2.050548 1_555
Li1 O17 2.056992 1_455
Li1 O1 2.345280 1_555
Li2 O25 1.954407 1_555
Li2 O29 2.008401 1_555
Li2 O19 2.051776 1_556
Li2 O21 2.066653 1_555
Li2 O27 2.380039 1_555
Cr0 O17 1.972799 1_555
Cr0 O8 1.975996 1_555
Cr0 O4 2.006021 1_555
Cr0 O7 2.009963 1_555
Cr0 O23 2.016858 1_555
Cr0 O18 2.023684 1_555
Cr1 O12 1.955396 1_555
Cr1 O22 1.997294 1_555
Cr1 O25 2.004689 1_555
Cr1 O6 2.005834 1_555
Cr1 O21 2.006189 1_555
Cr1 O11 2.059279 1_555
Cr2 O24 1.983205 1_655
Cr2 O5 1.983929 1_566
Cr2 O29 1.996600 1_555
Cr2 O0 2.006958 1_666
Cr2 O19 2.028639 1_556
Cr2 O10 2.040878 1_665
H0 O19 0.991180 1_455
H1 O7 0.984786 1_555
H2 O11 0.993932 1_555
H3 O18 0.987267 1_555
H4 O22 0.984827 1_555
H5 O10 0.993824 1_655
O0 P0 1.534857 1_555
O1 P0 1.558883 1_555
O1 V2 1.976697 1_545
O2 P2 1.564043 1_555
O2 V1 1.968166 1_455
O3 P5 1.574953 1_445
O3 V0 1.968841 1_555
O4 P1 1.537945 1_555
O5 P1 1.516144 1_555
O6 P2 1.533725 1_555
O7 V2 1.960293 1_545
O8 P2 1.539919 1_555
O9 P1 1.575966 1_555
O9 V1 1.997152 1_555
O10 V0 2.003599 1_555
O11 V0 2.010243 1_555
O12 P5 1.519431 1_455
O13 P4 1.561526 1_554
O13 V1 1.897035 1_555
O14 P2 1.559106 1_555
O14 V2 1.986254 1_555
O15 P3 1.564073 1_555
O15 V2 2.002829 1_545
O16 P1 1.566941 1_556
O16 V0 1.893337 1_555
O17 P0 1.541499 1_655
O18 V1 1.939465 1_555
O19 V1 2.031933 1_555
O20 P4 1.579009 1_555
O20 V0 1.990412 1_555
O21 P3 1.537052 1_555
O22 V2 1.954606 1_555
O23 P3 1.533073 1_555
O24 P4 1.517219 1_555
O25 P4 1.539357 1_555
O26 P0 1.561373 1_665
O26 V1 1.979514 1_555
O27 P3 1.566119 1_555
O27 V0 1.963584 1_655
O28 P5 1.557466 1_555
O28 V2 1.903085 1_555
O29 P5 1.540122 1_555
