# generated using pymatgen
data_CrP3H18C6(SO)6
_symmetry_space_group_name_H-M   'P 1'
_cell_length_a   9.20620972
_cell_length_b   9.20620972
_cell_length_c   13.23259330
_cell_angle_alpha   83.91734745
_cell_angle_beta   83.91734745
_cell_angle_gamma   76.00441251
_symmetry_Int_Tables_number   1
_chemical_formula_structural   CrP3H18C6(SO)6
_chemical_formula_sum   'Cr2 P6 H36 C12 S12 O12'
_cell_volume   1078.34204439
_cell_formula_units_Z   2
loop_
 _symmetry_equiv_pos_site_id
 _symmetry_equiv_pos_as_xyz
  1  'x, y, z'
loop_
 _atom_site_type_symbol
 _atom_site_label
 _atom_site_symmetry_multiplicity
 _atom_site_fract_x
 _atom_site_fract_y
 _atom_site_fract_z
 _atom_site_occupancy
  Cr  Cr0  1  0.66059500  0.33940500  0.75000000  1
  Cr  Cr1  1  0.33940500  0.66059500  0.25000000  1
  P  P0  1  0.93086500  0.06913500  0.75000000  1
  P  P1  1  0.06913500  0.93086500  0.25000000  1
  P  P2  1  0.70719700  0.64271700  0.65063900  1
  P  P3  1  0.35728300  0.29280300  0.84936100  1
  P  P4  1  0.29280300  0.35728300  0.34936100  1
  P  P5  1  0.64271700  0.70719700  0.15063900  1
  H  H0  1  0.85133600  0.99036400  0.96351300  1
  H  H1  1  0.00963600  0.14866400  0.53648700  1
  H  H2  1  0.14866400  0.00963600  0.03648700  1
  H  H3  1  0.99036400  0.85133600  0.46351300  1
  H  H4  1  0.76567500  0.88784000  0.88777300  1
  H  H5  1  0.11216000  0.23432500  0.61222700  1
  H  H6  1  0.23432500  0.11216000  0.11222700  1
  H  H7  1  0.88784000  0.76567500  0.38777300  1
  H  H8  1  0.92427800  0.79285700  0.95632100  1
  H  H9  1  0.20714300  0.07572200  0.54367900  1
  H  H10  1  0.07572200  0.20714300  0.04367900  1
  H  H11  1  0.79285700  0.92427800  0.45632100  1
  H  H12  1  0.97889600  0.59279700  0.75667100  1
  H  H13  1  0.40720300  0.02110400  0.74332900  1
  H  H14  1  0.02110400  0.40720300  0.24332900  1
  H  H15  1  0.59279700  0.97889600  0.25667100  1
  H  H16  1  0.03073200  0.51970300  0.63366700  1
  H  H17  1  0.48029700  0.96926800  0.86633300  1
  H  H18  1  0.96926800  0.48029700  0.36633300  1
  H  H19  1  0.51970300  0.03073200  0.13366700  1
  H  H20  1  0.07526600  0.69163400  0.65768200  1
  H  H21  1  0.30836600  0.92473400  0.84231800  1
  H  H22  1  0.92473400  0.30836600  0.34231800  1
  H  H23  1  0.69163400  0.07526600  0.15768200  1
  H  H24  1  0.39966000  0.88777500  0.53696300  1
  H  H25  1  0.11222500  0.60034000  0.96303700  1
  H  H26  1  0.60034000  0.11222500  0.46303700  1
  H  H27  1  0.88777500  0.39966000  0.03696300  1
  H  H28  1  0.45197700  0.68862400  0.52904200  1
  H  H29  1  0.31137600  0.54802300  0.97095800  1
  H  H30  1  0.54802300  0.31137600  0.47095800  1
  H  H31  1  0.68862400  0.45197600  0.02904200  1
  H  H32  1  0.38509900  0.76372500  0.65015700  1
  H  H33  1  0.23627500  0.61490100  0.84984300  1
  H  H34  1  0.61490100  0.23627500  0.34984300  1
  H  H35  1  0.76372500  0.38509900  0.15015700  1
  C  C0  1  0.87131600  0.89803000  0.91404300  1
  C  C1  1  0.10197000  0.12868400  0.58595700  1
  C  C2  1  0.12868400  0.10197000  0.08595700  1
  C  C3  1  0.89803000  0.87131600  0.41404300  1
  C  C4  1  0.99319400  0.62161000  0.67420100  1
  C  C5  1  0.37839000  0.00680600  0.82579900  1
  C  C6  1  0.00680600  0.37839000  0.32579900  1
  C  C7  1  0.62161000  0.99319400  0.17420100  1
  C  C8  1  0.44972700  0.77958000  0.57689600  1
  C  C9  1  0.22042000  0.55027300  0.92310400  1
  C  C10  1  0.55027300  0.22042000  0.42310400  1
  C  C11  1  0.77958000  0.44972700  0.07689600  1
  S  S0  1  0.73806400  0.08938800  0.68632600  1
  S  S1  1  0.91061200  0.26193600  0.81367400  1
  S  S2  1  0.26193600  0.91061200  0.31367400  1
  S  S3  1  0.08938800  0.73806400  0.18632600  1
  S  S4  1  0.73561700  0.45272300  0.58197500  1
  S  S5  1  0.54727700  0.26438300  0.91802500  1
  S  S6  1  0.26438300  0.54727700  0.41802500  1
  S  S7  1  0.45272300  0.73561700  0.08197500  1
  S  S8  1  0.63319300  0.59848900  0.79600600  1
  S  S9  1  0.40151100  0.36680700  0.70399400  1
  S  S10  1  0.36680700  0.40151100  0.20399400  1
  S  S11  1  0.59848900  0.63319300  0.29600600  1
  O  O0  1  0.97571300  0.92174600  0.82717300  1
  O  O1  1  0.07825400  0.02428700  0.67282700  1
  O  O2  1  0.02428700  0.07825400  0.17282700  1
  O  O3  1  0.92174600  0.97571300  0.32717300  1
  O  O4  1  0.85314200  0.71113200  0.63782700  1
  O  O5  1  0.28886800  0.14685800  0.86217300  1
  O  O6  1  0.14685800  0.28886800  0.36217300  1
  O  O7  1  0.71113200  0.85314200  0.13782700  1
  O  O8  1  0.60139300  0.78561900  0.59333400  1
  O  O9  1  0.21438100  0.39860700  0.90666600  1
  O  O10  1  0.39860700  0.21438100  0.40666600  1
  O  O11  1  0.78561900  0.60139300  0.09333400  1
loop_
_geom_bond_atom_site_label_1
_geom_bond_atom_site_label_2
_geom_bond_distance
_geom_bond_site_symmetry_2
Cr0 S0 2.450729 1_555
Cr0 S1 2.450729 1_555
Cr0 S5 2.457721 1_555
Cr0 S4 2.457721 1_555
Cr0 S9 2.471332 1_555
Cr0 S8 2.471332 1_555
Cr1 S3 2.450729 1_555
Cr1 S2 2.450729 1_555
Cr1 S6 2.457721 1_555
Cr1 S7 2.457721 1_555
Cr1 S11 2.471332 1_555
Cr1 S10 2.471332 1_555
P0 S0 2.004687 1_555
P0 S1 2.004687 1_555
P1 S3 2.004687 1_555
P1 S2 2.004687 1_555
P2 S4 2.004624 1_555
P2 S8 2.005138 1_555
P3 S5 2.004624 1_555
P3 S9 2.005138 1_555
P4 S6 2.004624 1_555
P4 S10 2.005138 1_555
P5 S7 2.004624 1_555
P5 S11 2.005138 1_555
C0 H4 1.094618 1_555
C0 H0 1.096228 1_555
C0 H8 1.096756 1_555
C0 O0 1.451532 1_555
C1 H5 1.094618 1_555
C1 H1 1.096228 1_555
C1 H9 1.096756 1_555
C1 O1 1.451532 1_555
C2 H6 1.094618 1_555
C2 H2 1.096228 1_555
C2 H10 1.096756 1_555
C2 O2 1.451532 1_555
C3 H7 1.094618 1_555
C3 H3 1.096228 1_555
C3 H11 1.096756 1_555
C3 O3 1.451532 1_555
C4 H16 1.094456 1_655
C4 H12 1.097135 1_555
C4 H20 1.097718 1_655
C4 O4 1.451479 1_555
C5 H17 1.094456 1_545
C5 H13 1.097135 1_555
C5 H21 1.097718 1_545
C5 O5 1.451479 1_555
C6 H18 1.094456 1_455
C6 H14 1.097135 1_555
C6 H22 1.097718 1_455
C6 O6 1.451479 1_555
C7 H19 1.094456 1_565
C7 H15 1.097135 1_555
C7 H23 1.097718 1_565
C7 O7 1.451479 1_555
C8 H24 1.096279 1_555
C8 H28 1.097172 1_555
C8 H32 1.097674 1_555
C8 O8 1.450671 1_555
C9 H25 1.096279 1_555
C9 H29 1.097172 1_555
C9 H33 1.097674 1_555
C9 O9 1.450671 1_555
C10 H26 1.096279 1_555
C10 H30 1.097172 1_555
C10 H34 1.097674 1_555
C10 O10 1.450671 1_555
C11 H27 1.096279 1_555
C11 H31 1.097174 1_555
C11 H35 1.097674 1_555
C11 O11 1.450671 1_555
O0 P0 1.605987 1_565
O1 P0 1.605987 1_455
O2 P1 1.605987 1_545
O3 P1 1.605987 1_655
O4 P2 1.602851 1_555
O5 P3 1.602851 1_555
O6 P4 1.602851 1_555
O7 P5 1.602851 1_555
O8 P2 1.606188 1_555
O9 P3 1.606188 1_555
O10 P4 1.606188 1_555
O11 P5 1.606188 1_555
