# generated using pymatgen
data_Fe4O3F5
_symmetry_space_group_name_H-M   'P 1'
_cell_length_a   4.80824300
_cell_length_b   6.21232479
_cell_length_c   10.05267119
_cell_angle_alpha   107.82510975
_cell_angle_beta   92.66082021
_cell_angle_gamma   90.14093559
_symmetry_Int_Tables_number   1
_chemical_formula_structural   Fe4O3F5
_chemical_formula_sum   'Fe8 O6 F10'
_cell_volume   285.51020217
_cell_formula_units_Z   2
loop_
 _symmetry_equiv_pos_site_id
 _symmetry_equiv_pos_as_xyz
  1  'x, y, z'
loop_
 _atom_site_type_symbol
 _atom_site_label
 _atom_site_symmetry_multiplicity
 _atom_site_fract_x
 _atom_site_fract_y
 _atom_site_fract_z
 _atom_site_occupancy
  Fe  Fe0  1  0.47810900  0.62633600  0.74470900  1
  Fe  Fe1  1  0.50543200  0.88227200  0.25509700  1
  Fe  Fe2  1  0.53417200  0.36379400  0.23896400  1
  Fe  Fe3  1  0.48465100  0.11616000  0.73994000  1
  Fe  Fe4  1  0.02175800  0.50099700  0.02499000  1
  Fe  Fe5  1  0.01587300  0.74915900  0.50542600  1
  Fe  Fe6  1  0.95557000  0.00581200  0.99064800  1
  Fe  Fe7  1  0.99980200  0.25223800  0.49655700  1
  O  O0  1  0.80911400  0.29561400  0.09224100  1
  O  O1  1  0.70778900  0.18437800  0.34764100  1
  O  O2  1  0.68426300  0.92039600  0.84326300  1
  O  O3  1  0.31710600  0.57204000  0.15876000  1
  O  O4  1  0.30791000  0.82798100  0.65551500  1
  O  O5  1  0.29676100  0.32771000  0.65334200  1
  F  F0  1  0.80267500  0.54056900  0.60260100  1
  F  F1  1  0.79823300  0.06104700  0.59875000  1
  F  F2  1  0.81960800  0.79699500  0.09498800  1
  F  F3  1  0.69556000  0.42877200  0.85312200  1
  F  F4  1  0.70728500  0.66142400  0.35245700  1
  F  F5  1  0.29278500  0.07948600  0.13779300  1
  F  F6  1  0.18763800  0.96271600  0.40482900  1
  F  F7  1  0.18730400  0.20437900  0.90082400  1
  F  F8  1  0.20836200  0.43880400  0.39843400  1
  F  F9  1  0.18223900  0.70092000  0.90911000  1
loop_
_geom_bond_atom_site_label_1
_geom_bond_atom_site_label_2
_geom_bond_distance
_geom_bond_site_symmetry_2
Fe0 O4 1.915060 1_555
Fe0 O5 1.979912 1_555
Fe0 O2 2.023154 1_555
Fe1 O1 2.042673 1_565
Fe1 O3 2.059003 1_555
Fe2 O1 1.948879 1_555
Fe2 O0 1.975822 1_555
Fe2 O3 1.995024 1_555
Fe3 O4 1.908625 1_545
Fe3 O5 1.983541 1_555
Fe3 O2 2.040975 1_545
Fe4 O3 1.864425 1_555
Fe4 O0 1.927752 1_455
Fe5 O4 1.958460 1_555
Fe6 O2 1.874649 1_545
Fe6 O0 1.930669 1_556
Fe7 O1 1.950824 1_555
Fe7 O5 2.019417 1_655
F0 Fe7 2.043614 1_555
F0 Fe0 2.122550 1_555
F0 Fe5 2.132069 1_655
F1 Fe7 2.058941 1_555
F1 Fe3 2.075779 1_555
F1 Fe5 2.172003 1_645
F2 Fe4 2.025177 1_655
F2 Fe6 2.025565 1_564
F2 Fe1 2.204743 1_555
F3 Fe0 2.122901 1_555
F3 Fe3 2.150556 1_555
F3 Fe4 2.217367 1_656
F4 Fe2 2.006484 1_555
F4 Fe5 2.033309 1_655
F4 Fe1 2.126656 1_555
F5 Fe2 2.069191 1_555
F5 Fe6 2.094199 1_454
F5 Fe1 2.171567 1_545
F6 Fe7 1.992712 1_465
F6 Fe5 2.087675 1_555
F6 Fe1 2.146403 1_555
F7 Fe4 2.068432 1_556
F7 Fe6 2.084980 1_455
F7 Fe3 2.153146 1_555
F8 Fe7 2.026808 1_455
F8 Fe5 2.135966 1_555
F8 Fe2 2.240679 1_555
F9 Fe4 2.111742 1_556
F9 Fe6 2.142399 1_465
F9 Fe0 2.173145 1_555
