# generated using pymatgen
data_Ho2P4O13
_symmetry_space_group_name_H-M   'P 1'
_cell_length_a   6.77256501
_cell_length_b   6.77256501
_cell_length_c   12.81985543
_cell_angle_alpha   75.29558807
_cell_angle_beta   75.29558807
_cell_angle_gamma   59.36022490
_symmetry_Int_Tables_number   1
_chemical_formula_structural   Ho2P4O13
_chemical_formula_sum   'Ho4 P8 O26'
_cell_volume   483.84839792
_cell_formula_units_Z   2
loop_
 _symmetry_equiv_pos_site_id
 _symmetry_equiv_pos_as_xyz
  1  'x, y, z'
loop_
 _atom_site_type_symbol
 _atom_site_label
 _atom_site_symmetry_multiplicity
 _atom_site_fract_x
 _atom_site_fract_y
 _atom_site_fract_z
 _atom_site_occupancy
  Ho  Ho0  1  0.68865502  0.69348521  0.45157100  1
  Ho  Ho1  1  0.69348521  0.68865502  0.95157100  1
  Ho  Ho2  1  0.30651479  0.31134498  0.04842900  1
  Ho  Ho3  1  0.31134498  0.30651479  0.54842900  1
  P  P0  1  0.75199399  0.77197176  0.16210571  1
  P  P1  1  0.77197176  0.75199399  0.66210571  1
  P  P2  1  0.83373502  0.14470479  0.36639230  1
  P  P3  1  0.85529521  0.16626498  0.13360770  1
  P  P4  1  0.14470479  0.83373502  0.86639230  1
  P  P5  1  0.16626498  0.85529521  0.63360770  1
  P  P6  1  0.22802824  0.24800601  0.33789429  1
  P  P7  1  0.24800601  0.22802824  0.83789429  1
  O  O0  1  0.87297899  0.90339415  0.39902439  1
  O  O1  1  0.88072217  0.91706325  0.15532555  1
  O  O2  1  0.90339415  0.87297899  0.89902439  1
  O  O3  1  0.91706325  0.88072217  0.65532555  1
  O  O4  1  0.68799587  0.69941601  0.28002980  1
  O  O5  1  0.92175680  0.57481989  0.09742337  1
  O  O6  1  0.55203464  0.92035724  0.09697067  1
  O  O7  1  0.66699021  0.32075214  0.44192238  1
  O  O8  1  0.69941601  0.68799587  0.78002980  1
  O  O9  1  0.57481989  0.92175680  0.59742337  1
  O  O10  1  0.92035724  0.55203464  0.59697067  1
  O  O11  1  0.74870810  0.25129190  0.25000000  1
  O  O12  1  0.67924786  0.33300979  0.05807762  1
  O  O13  1  0.32075214  0.66699021  0.94192238  1
  O  O14  1  0.25129190  0.74870810  0.75000000  1
  O  O15  1  0.07964276  0.44796536  0.40302933  1
  O  O16  1  0.42518011  0.07824320  0.40257663  1
  O  O17  1  0.30058399  0.31200413  0.21997020  1
  O  O18  1  0.33300979  0.67924786  0.55807762  1
  O  O19  1  0.44796536  0.07964276  0.90302933  1
  O  O20  1  0.07824320  0.42518011  0.90257663  1
  O  O21  1  0.31200413  0.30058399  0.71997020  1
  O  O22  1  0.08293675  0.11927783  0.34467445  1
  O  O23  1  0.09660585  0.12702101  0.10097561  1
  O  O24  1  0.11927783  0.08293675  0.84467445  1
  O  O25  1  0.12702101  0.09660585  0.60097561  1
loop_
_geom_bond_atom_site_label_1
_geom_bond_atom_site_label_2
_geom_bond_distance
_geom_bond_site_symmetry_2
Ho0 O4 2.190383 1_555
Ho0 O0 2.220129 1_555
Ho0 O15 2.316206 1_655
Ho0 O16 2.316774 1_565
Ho0 O10 2.429161 1_555
Ho0 O9 2.449783 1_555
Ho0 O18 2.485040 1_555
Ho0 O7 2.637134 1_555
Ho1 O8 2.190383 1_555
Ho1 O2 2.220129 1_555
Ho1 O19 2.316206 1_565
Ho1 O20 2.316774 1_655
Ho1 O6 2.429161 1_556
Ho1 O5 2.449783 1_556
Ho1 O12 2.485040 1_556
Ho1 O13 2.637134 1_555
Ho2 O17 2.190383 1_555
Ho2 O23 2.220129 1_555
Ho2 O6 2.316206 1_545
Ho2 O5 2.316774 1_455
Ho2 O19 2.429161 1_554
Ho2 O20 2.449783 1_554
Ho2 O13 2.485040 1_554
Ho2 O12 2.637134 1_555
Ho3 O21 2.190383 1_555
Ho3 O25 2.220129 1_555
Ho3 O10 2.316206 1_455
Ho3 O9 2.316774 1_545
Ho3 O15 2.429161 1_555
Ho3 O16 2.449783 1_555
Ho3 O7 2.485040 1_555
Ho3 O18 2.637134 1_555
O0 P2 1.477559 1_565
O1 P3 1.563704 1_565
O1 P0 1.588893 1_555
O2 P4 1.477559 1_655
O3 P5 1.563704 1_655
O3 P1 1.588893 1_555
O4 P0 1.490667 1_555
O5 P0 1.518437 1_555
O6 P0 1.517246 1_555
O7 P2 1.514266 1_555
O8 P1 1.490667 1_555
O9 P1 1.518437 1_555
O10 P1 1.517246 1_555
O11 P2 1.595257 1_555
O11 P3 1.595257 1_555
O12 P3 1.514266 1_555
O13 P4 1.514266 1_555
O14 P4 1.595257 1_555
O14 P5 1.595257 1_555
O15 P6 1.517246 1_555
O16 P6 1.518437 1_555
O17 P6 1.490667 1_555
O18 P5 1.514266 1_555
O19 P7 1.517246 1_555
O20 P7 1.518437 1_555
O21 P7 1.490667 1_555
O22 P2 1.563704 1_455
O22 P6 1.588893 1_555
O23 P3 1.477559 1_455
O24 P4 1.563704 1_545
O24 P7 1.588893 1_555
O25 P5 1.477559 1_545
