# generated using pymatgen
data_Li2Mn5(Si2O7)2
_symmetry_space_group_name_H-M   'P 1'
_cell_length_a   8.31459039
_cell_length_b   9.45657869
_cell_length_c   8.61642924
_cell_angle_alpha   109.35012648
_cell_angle_beta   106.98415944
_cell_angle_gamma   94.87712680
_symmetry_Int_Tables_number   1
_chemical_formula_structural   Li2Mn5(Si2O7)2
_chemical_formula_sum   'Li4 Mn10 Si8 O28'
_cell_volume   598.80268202
_cell_formula_units_Z   2
loop_
 _symmetry_equiv_pos_site_id
 _symmetry_equiv_pos_as_xyz
  1  'x, y, z'
loop_
 _atom_site_type_symbol
 _atom_site_label
 _atom_site_symmetry_multiplicity
 _atom_site_fract_x
 _atom_site_fract_y
 _atom_site_fract_z
 _atom_site_occupancy
  Li  Li0  1  0.93471700  0.29218000  0.83150300  1
  Li  Li1  1  0.43472700  0.79212100  0.33142800  1
  Li  Li2  1  0.56527000  0.20788100  0.66858900  1
  Li  Li3  1  0.06526400  0.70782200  0.16850200  1
  Mn  Mn0  1  0.49999400  0.50001400  0.49995200  1
  Mn  Mn1  1  0.32147800  0.77411600  0.94651500  1
  Mn  Mn2  1  0.67855000  0.22583400  0.05349200  1
  Mn  Mn3  1  0.25242500  0.37660000  0.67432700  1
  Mn  Mn4  1  0.74760200  0.62340200  0.32566000  1
  Mn  Mn5  1  0.99999900  0.99999000  0.99995800  1
  Mn  Mn6  1  0.82156200  0.27399000  0.44655900  1
  Mn  Mn7  1  0.17844500  0.72602500  0.55346700  1
  Mn  Mn8  1  0.75251200  0.87670800  0.17440500  1
  Mn  Mn9  1  0.24748800  0.12331100  0.82560200  1
  Si  Si0  1  0.93128300  0.57506000  0.71541300  1
  Si  Si1  1  0.43129300  0.07505800  0.21543500  1
  Si  Si2  1  0.56869800  0.92493600  0.78457100  1
  Si  Si3  1  0.06872200  0.42494300  0.28460100  1
  Si  Si4  1  0.30839100  0.48877000  0.09797000  1
  Si  Si5  1  0.80838000  0.98878400  0.59799700  1
  Si  Si6  1  0.19158600  0.01120300  0.40198100  1
  Si  Si7  1  0.69158900  0.51122500  0.90202200  1
  O  O0  1  0.24485800  0.63979600  0.06896600  1
  O  O1  1  0.74483800  0.13980900  0.56903000  1
  O  O2  1  0.25516600  0.86020800  0.43099300  1
  O  O3  1  0.75512800  0.36021100  0.93105300  1
  O  O4  1  0.07236400  0.72281600  0.74948600  1
  O  O5  1  0.57240200  0.22279800  0.24954700  1
  O  O6  1  0.42761200  0.77719200  0.75047500  1
  O  O7  1  0.92764900  0.27718900  0.25054500  1
  O  O8  1  0.14721600  0.38552200  0.12190500  1
  O  O9  1  0.64720000  0.88553600  0.62188100  1
  O  O10  1  0.35278600  0.11445100  0.37812500  1
  O  O11  1  0.85278100  0.61447000  0.87810600  1
  O  O12  1  0.00924600  0.41788400  0.69701800  1
  O  O13  1  0.50928500  0.91789600  0.19701100  1
  O  O14  1  0.49070700  0.08209700  0.80300600  1
  O  O15  1  0.99076200  0.58212000  0.30299800  1
  O  O16  1  0.97324300  0.05877400  0.78416700  1
  O  O17  1  0.47327200  0.55877400  0.28414600  1
  O  O18  1  0.52673000  0.44124900  0.71581800  1
  O  O19  1  0.02674900  0.94123700  0.21577800  1
  O  O20  1  0.33902500  0.36420200  0.93136000  1
  O  O21  1  0.83910100  0.86428900  0.43139600  1
  O  O22  1  0.16089800  0.13569400  0.56860500  1
  O  O23  1  0.66096900  0.63579800  0.06863500  1
  O  O24  1  0.26989500  0.02836300  0.02867800  1
  O  O25  1  0.76991100  0.52837500  0.52865000  1
  O  O26  1  0.23011000  0.47163900  0.47135300  1
  O  O27  1  0.73012400  0.97164100  0.97131400  1
loop_
_geom_bond_atom_site_label_1
_geom_bond_atom_site_label_2
_geom_bond_distance
_geom_bond_site_symmetry_2
Li0 O3 1.981225 1_555
Li0 O12 2.084929 1_655
Li0 O16 2.177330 1_555
Li0 O1 2.247491 1_555
Li0 O8 2.418747 1_656
Li1 O2 1.981214 1_555
Li1 O13 2.085031 1_555
Li1 O17 2.176887 1_555
Li1 O0 2.247298 1_555
Li1 O9 2.418941 1_555
Li2 O1 1.981204 1_555
Li2 O14 2.085110 1_555
Li2 O18 2.177115 1_555
Li2 O3 2.247287 1_555
Li2 O10 2.419038 1_555
Li3 O0 1.981185 1_555
Li3 O15 2.084902 1_455
Li3 O19 2.177441 1_555
Li3 O2 2.247685 1_555
Li3 O11 2.418654 1_454
Mn0 O17 2.068848 1_555
Mn0 O18 2.069354 1_555
Mn0 O26 2.167694 1_555
Mn0 O25 2.167770 1_555
Mn1 O0 2.067776 1_556
Mn1 O6 2.128826 1_555
Mn1 O4 2.153307 1_555
Mn1 O13 2.161226 1_556
Mn1 O24 2.385497 1_566
Mn2 O3 2.067959 1_554
Mn2 O5 2.128929 1_555
Mn2 O7 2.153247 1_555
Mn2 O14 2.161193 1_554
Mn2 O27 2.385000 1_544
Mn3 O22 2.126941 1_555
Mn3 O12 2.143234 1_555
Mn3 O20 2.166084 1_555
Mn3 O26 2.186607 1_555
Mn3 O18 2.201144 1_555
Mn4 O21 2.126743 1_555
Mn4 O15 2.142997 1_555
Mn4 O23 2.166022 1_555
Mn4 O25 2.186661 1_555
Mn4 O17 2.201271 1_555
Mn5 O16 2.068818 1_565
Mn5 O19 2.068895 1_656
Mn5 O27 2.167531 1_555
Mn5 O24 2.167553 1_666
Mn6 O1 2.067270 1_555
Mn6 O7 2.128649 1_555
Mn6 O5 2.153637 1_555
Mn6 O12 2.160911 1_655
Mn6 O25 2.386893 1_555
Mn7 O2 2.067295 1_555
Mn7 O4 2.128679 1_555
Mn7 O6 2.153691 1_555
Mn7 O15 2.160983 1_455
Mn7 O26 2.386946 1_555
Mn8 O23 2.126981 1_555
Mn8 O13 2.143192 1_555
Mn8 O21 2.165823 1_555
Mn8 O27 2.186772 1_554
Mn8 O19 2.200680 1_655
Mn9 O20 2.126815 1_555
Mn9 O14 2.143157 1_555
Mn9 O22 2.165729 1_555
Mn9 O24 2.186733 1_556
Mn9 O16 2.200630 1_455
O0 Si4 1.633680 1_555
O1 Si5 1.633587 1_545
O2 Si6 1.633563 1_565
O3 Si7 1.633671 1_555
O4 Si0 1.631811 1_455
O5 Si1 1.631733 1_555
O6 Si2 1.631690 1_555
O7 Si3 1.631804 1_655
O8 Si3 1.661231 1_555
O8 Si4 1.692374 1_555
O9 Si2 1.661233 1_555
O9 Si5 1.692168 1_555
O10 Si1 1.661262 1_555
O10 Si6 1.692166 1_555
O11 Si0 1.661254 1_555
O11 Si7 1.692380 1_555
O12 Si0 1.649937 1_455
O13 Si1 1.649915 1_565
O14 Si2 1.649894 1_545
O15 Si3 1.649931 1_655
O16 Si5 1.657653 1_545
O17 Si4 1.657761 1_555
O18 Si7 1.657809 1_555
O19 Si6 1.657710 1_565
O20 Si4 1.630157 1_556
O21 Si5 1.630141 1_555
O22 Si6 1.630130 1_555
O23 Si7 1.630141 1_554
O24 Si1 1.658937 1_555
O25 Si0 1.658873 1_555
O26 Si3 1.658866 1_555
O27 Si2 1.658964 1_555
