# generated using pymatgen
data_Fe6O7F5
_symmetry_space_group_name_H-M   'P 1'
_cell_length_a   4.69450700
_cell_length_b   5.63354225
_cell_length_c   7.74748088
_cell_angle_alpha   85.86473732
_cell_angle_beta   89.56515325
_cell_angle_gamma   88.87379188
_symmetry_Int_Tables_number   1
_chemical_formula_structural   Fe6O7F5
_chemical_formula_sum   'Fe6 O7 F5'
_cell_volume   204.31851246
_cell_formula_units_Z   1
loop_
 _symmetry_equiv_pos_site_id
 _symmetry_equiv_pos_as_xyz
  1  'x, y, z'
loop_
 _atom_site_type_symbol
 _atom_site_label
 _atom_site_symmetry_multiplicity
 _atom_site_fract_x
 _atom_site_fract_y
 _atom_site_fract_z
 _atom_site_occupancy
  Fe  Fe0  1  0.52350900  0.15999800  0.33539900  1
  Fe  Fe1  1  0.46060300  0.47928600  0.98554900  1
  Fe  Fe2  1  0.52607200  0.82371500  0.66326000  1
  Fe  Fe3  1  0.99381900  0.67376600  0.32395500  1
  Fe  Fe4  1  0.96623400  0.34939500  0.67711300  1
  Fe  Fe5  1  0.01564300  0.01385400  0.01709100  1
  O  O0  1  0.80752700  0.63110800  0.55242700  1
  O  O1  1  0.80548100  0.96226600  0.23463300  1
  O  O2  1  0.80353900  0.29574900  0.90679800  1
  O  O3  1  0.69159600  0.12932500  0.56376700  1
  O  O4  1  0.30547000  0.54015000  0.75927800  1
  O  O5  1  0.31204800  0.20139300  0.11400500  1
  O  O6  1  0.19284300  0.70044800  0.10061900  1
  F  F0  1  0.70243600  0.79616800  0.89915400  1
  F  F1  1  0.69245300  0.46634400  0.22990000  1
  F  F2  1  0.29862500  0.87100000  0.43671600  1
  F  F3  1  0.20211900  0.03749000  0.76901200  1
  F  F4  1  0.19998300  0.36854600  0.43132400  1
loop_
_geom_bond_atom_site_label_1
_geom_bond_atom_site_label_2
_geom_bond_distance
_geom_bond_site_symmetry_2
Fe0 O1 1.911626 1_545
Fe0 O3 1.937677 1_555
Fe0 O5 1.985188 1_555
Fe1 O4 1.908910 1_555
Fe1 O5 1.932703 1_556
Fe1 O6 2.002194 1_556
Fe1 O2 2.010919 1_555
Fe2 O0 1.929064 1_555
Fe2 O3 2.003550 1_565
Fe2 O4 2.014886 1_555
Fe3 O1 1.921649 1_555
Fe3 O6 1.957786 1_655
Fe3 O0 1.969567 1_555
Fe4 O0 1.936570 1_555
Fe4 O2 1.937038 1_555
Fe4 O3 2.051215 1_555
Fe4 O4 2.068228 1_655
Fe5 O5 1.950443 1_555
Fe5 O1 1.952902 1_445
Fe5 O2 1.999657 1_454
Fe5 O6 2.003429 1_545
F0 Fe2 2.006651 1_555
F0 Fe5 2.180277 1_666
F0 Fe1 2.195342 1_555
F1 Fe3 2.025198 1_555
F1 Fe0 2.028803 1_555
F1 Fe1 2.186795 1_554
F2 Fe2 2.059472 1_555
F2 Fe0 2.062043 1_565
F2 Fe3 2.065620 1_455
F3 Fe5 2.102438 1_556
F3 Fe2 2.117986 1_545
F3 Fe4 2.139096 1_455
F4 Fe0 2.068334 1_555
F4 Fe3 2.079847 1_455
F4 Fe4 2.187520 1_455
