# generated using pymatgen
data_Li3Cr3(CoO6)2
_symmetry_space_group_name_H-M   'P 1'
_cell_length_a   9.25763200
_cell_length_b   8.78147700
_cell_length_c   15.05285934
_cell_angle_alpha   55.72989020
_cell_angle_beta   90.00000000
_cell_angle_gamma   90.00000000
_symmetry_Int_Tables_number   1
_chemical_formula_structural   Li3Cr3(CoO6)2
_chemical_formula_sum   'Li12 Cr12 Co8 O48'
_cell_volume   1011.28292646
_cell_formula_units_Z   4
loop_
 _symmetry_equiv_pos_site_id
 _symmetry_equiv_pos_as_xyz
  1  'x, y, z'
loop_
 _atom_site_type_symbol
 _atom_site_label
 _atom_site_symmetry_multiplicity
 _atom_site_fract_x
 _atom_site_fract_y
 _atom_site_fract_z
 _atom_site_occupancy
  Li  Li0  1  0.91338000  0.38100800  0.69677200  1
  Li  Li1  1  0.49127500  0.71772600  0.34264600  1
  Li  Li2  1  0.22818800  0.98665800  0.17911600  1
  Li  Li3  1  0.72818800  0.01334200  0.32088400  1
  Li  Li4  1  0.41338000  0.61899200  0.80322800  1
  Li  Li5  1  0.99127500  0.28227400  0.15735400  1
  Li  Li6  1  0.00872500  0.71772600  0.84264600  1
  Li  Li7  1  0.58662000  0.38100800  0.19677200  1
  Li  Li8  1  0.27181200  0.98665800  0.67911600  1
  Li  Li9  1  0.77181200  0.01334200  0.82088400  1
  Li  Li10  1  0.50872500  0.28227400  0.65735400  1
  Li  Li11  1  0.08662000  0.61899200  0.30322800  1
  Cr  Cr0  1  0.75127400  0.55054000  0.49188000  1
  Cr  Cr1  1  0.61862200  0.26633000  0.85159900  1
  Cr  Cr2  1  0.88717000  0.97031800  0.14594200  1
  Cr  Cr3  1  0.11862200  0.73367000  0.64840100  1
  Cr  Cr4  1  0.38717000  0.02968200  0.35405800  1
  Cr  Cr5  1  0.25127400  0.44946000  0.00812000  1
  Cr  Cr6  1  0.74872600  0.55054000  0.99188000  1
  Cr  Cr7  1  0.61283000  0.97031800  0.64594200  1
  Cr  Cr8  1  0.88137800  0.26633000  0.35159900  1
  Cr  Cr9  1  0.11283000  0.02968200  0.85405800  1
  Cr  Cr10  1  0.38137800  0.73367000  0.14840100  1
  Cr  Cr11  1  0.24872600  0.44946000  0.50812000  1
  Co  Co0  1  0.96962200  0.35309400  0.88939400  1
  Co  Co1  1  0.46962200  0.64690600  0.61060600  1
  Co  Co2  1  0.03351100  0.87893900  0.38349200  1
  Co  Co3  1  0.53351100  0.12106100  0.11650800  1
  Co  Co4  1  0.46648900  0.87893900  0.88349200  1
  Co  Co5  1  0.96648900  0.12106100  0.61650800  1
  Co  Co6  1  0.53037800  0.35309400  0.38939400  1
  Co  Co7  1  0.03037800  0.64690600  0.11060600  1
  O  O0  1  0.12251600  0.61275700  0.44352200  1
  O  O1  1  0.11706500  0.15141500  0.90608700  1
  O  O2  1  0.33449700  0.45417400  0.60433000  1
  O  O3  1  0.42306100  0.87649000  0.19444600  1
  O  O4  1  0.63282800  0.51141500  0.58670300  1
  O  O5  1  0.80789600  0.28087200  0.83343900  1
  O  O6  1  0.58609600  0.14923100  0.98324300  1
  O  O7  1  0.01160500  0.87541700  0.24604200  1
  O  O8  1  0.72641900  0.97932000  0.19422300  1
  O  O9  1  0.82305500  0.75996100  0.43537200  1
  O  O10  1  0.52947100  0.47108900  0.77284500  1
  O  O11  1  0.02947100  0.52891100  0.72715500  1
  O  O12  1  0.94443100  0.18728900  0.05686200  1
  O  O13  1  0.44443100  0.81271100  0.44313800  1
  O  O14  1  0.32305500  0.24003900  0.06462800  1
  O  O15  1  0.22641900  0.02068000  0.30577700  1
  O  O16  1  0.08609600  0.85076900  0.51675700  1
  O  O17  1  0.51160500  0.12458300  0.25395800  1
  O  O18  1  0.30789600  0.71912800  0.66656100  1
  O  O19  1  0.13282800  0.48858500  0.91329700  1
  O  O20  1  0.83449700  0.54582600  0.89567000  1
  O  O21  1  0.61706500  0.84858500  0.59391300  1
  O  O22  1  0.92306100  0.12351000  0.30555400  1
  O  O23  1  0.62251600  0.38724300  0.05647800  1
  O  O24  1  0.37748400  0.61275700  0.94352200  1
  O  O25  1  0.07693900  0.87649000  0.69444600  1
  O  O26  1  0.38293500  0.15141500  0.40608700  1
  O  O27  1  0.16550300  0.45417400  0.10433000  1
  O  O28  1  0.86717200  0.51141500  0.08670300  1
  O  O29  1  0.69210400  0.28087200  0.33343900  1
  O  O30  1  0.48839500  0.87541700  0.74604200  1
  O  O31  1  0.91390400  0.14923100  0.48324300  1
  O  O32  1  0.77358100  0.97932000  0.69422300  1
  O  O33  1  0.67694500  0.75996100  0.93537200  1
  O  O34  1  0.55556900  0.18728900  0.55686200  1
  O  O35  1  0.05556900  0.81271100  0.94313800  1
  O  O36  1  0.97052900  0.47108900  0.27284500  1
  O  O37  1  0.47052900  0.52891100  0.22715500  1
  O  O38  1  0.17694500  0.24003900  0.56462800  1
  O  O39  1  0.27358100  0.02068000  0.80577700  1
  O  O40  1  0.98839500  0.12458300  0.75395800  1
  O  O41  1  0.41390400  0.85076900  0.01675700  1
  O  O42  1  0.19210400  0.71912800  0.16656100  1
  O  O43  1  0.36717200  0.48858500  0.41329700  1
  O  O44  1  0.57693900  0.12351000  0.80555400  1
  O  O45  1  0.66550300  0.54582600  0.39567000  1
  O  O46  1  0.88293500  0.84858500  0.09391300  1
  O  O47  1  0.87748400  0.38724300  0.55647800  1
loop_
_geom_bond_atom_site_label_1
_geom_bond_atom_site_label_2
_geom_bond_distance
_geom_bond_site_symmetry_2
Li0 O11 1.928750 1_655
Li0 O5 1.980344 1_555
Li0 O40 2.027526 1_555
Li0 O47 2.107847 1_555
Li1 O3 1.953584 1_555
Li1 O43 2.022356 1_555
Li1 O45 2.039715 1_555
Li1 O13 2.143131 1_555
Li2 O3 1.998102 1_555
Li2 O15 2.089545 1_565
Li2 O14 2.091344 1_565
Li2 O7 2.209315 1_555
Li2 O42 2.483260 1_555
Li3 O22 1.998102 1_555
Li3 O8 2.089545 1_545
Li3 O9 2.091344 1_545
Li3 O17 2.209315 1_555
Li3 O29 2.483260 1_555
Li4 O10 1.928750 1_555
Li4 O18 1.980344 1_555
Li4 O30 2.027526 1_555
Li4 O24 2.107847 1_555
Li5 O22 1.953584 1_555
Li5 O28 2.022356 1_555
Li5 O27 2.039715 1_655
Li5 O12 2.143131 1_555
Li6 O25 1.953584 1_555
Li6 O19 2.022356 1_555
Li6 O20 2.039715 1_455
Li6 O35 2.143131 1_555
Li7 O37 1.928750 1_555
Li7 O29 1.980344 1_555
Li7 O17 2.027526 1_555
Li7 O23 2.107847 1_555
Li8 O25 1.998102 1_555
Li8 O39 2.089545 1_565
Li8 O38 2.091344 1_565
Li8 O30 2.209315 1_555
Li8 O18 2.483260 1_555
Li9 O44 1.998102 1_555
Li9 O32 2.089545 1_545
Li9 O33 2.091344 1_545
Li9 O40 2.209315 1_555
Li9 O5 2.483260 1_555
Li10 O44 1.953584 1_555
Li10 O4 2.022356 1_555
Li10 O2 2.039715 1_555
Li10 O34 2.143131 1_555
Li11 O36 1.928750 1_455
Li11 O42 1.980344 1_555
Li11 O7 2.027526 1_555
Li11 O0 2.107847 1_555
Cr0 O9 1.668967 1_555
Cr0 O47 1.672328 1_555
Cr0 O45 1.672456 1_555
Cr0 O4 1.674957 1_555
Cr1 O6 1.667347 1_555
Cr1 O10 1.708525 1_555
Cr1 O5 1.766926 1_555
Cr1 O44 1.783598 1_555
Cr2 O46 1.643331 1_555
Cr2 O8 1.677439 1_555
Cr2 O12 1.682868 1_565
Cr2 O7 1.696406 1_655
Cr3 O16 1.667347 1_555
Cr3 O11 1.708525 1_555
Cr3 O18 1.766926 1_555
Cr3 O25 1.783598 1_555
Cr4 O26 1.643331 1_555
Cr4 O15 1.677439 1_555
Cr4 O13 1.682868 1_545
Cr4 O17 1.696406 1_555
Cr5 O14 1.668967 1_555
Cr5 O24 1.672328 1_554
Cr5 O27 1.672456 1_555
Cr5 O19 1.674957 1_554
Cr6 O33 1.668967 1_555
Cr6 O23 1.672328 1_556
Cr6 O20 1.672456 1_555
Cr6 O28 1.674957 1_556
Cr7 O21 1.643331 1_555
Cr7 O32 1.677439 1_555
Cr7 O34 1.682868 1_565
Cr7 O30 1.696406 1_555
Cr8 O31 1.667347 1_555
Cr8 O36 1.708525 1_555
Cr8 O29 1.766926 1_555
Cr8 O22 1.783598 1_555
Cr9 O1 1.643331 1_555
Cr9 O39 1.677439 1_555
Cr9 O35 1.682868 1_545
Cr9 O40 1.696406 1_455
Cr10 O41 1.667347 1_555
Cr10 O37 1.708525 1_555
Cr10 O42 1.766926 1_555
Cr10 O3 1.783598 1_555
Cr11 O38 1.668967 1_555
Cr11 O0 1.672328 1_555
Cr11 O2 1.672456 1_555
Cr11 O43 1.674957 1_555
Co0 O5 1.988687 1_555
Co0 O19 2.076069 1_655
Co0 O12 2.096560 1_556
Co0 O11 2.099649 1_655
Co0 O1 2.135812 1_655
Co0 O20 2.149022 1_555
Co1 O18 1.988687 1_555
Co1 O4 2.076069 1_555
Co1 O13 2.096560 1_555
Co1 O10 2.099649 1_555
Co1 O21 2.135812 1_555
Co1 O2 2.149022 1_555
Co2 O16 1.939958 1_555
Co2 O22 2.048628 1_465
Co2 O7 2.096420 1_555
Co2 O15 2.113595 1_565
Co2 O9 2.139756 1_455
Co2 O0 2.140213 1_555
Co3 O6 1.939958 1_554
Co3 O3 2.048628 1_545
Co3 O17 2.096420 1_555
Co3 O8 2.113595 1_545
Co3 O14 2.139756 1_555
Co3 O23 2.140213 1_555
Co4 O41 1.939958 1_556
Co4 O44 2.048628 1_565
Co4 O30 2.096420 1_555
Co4 O39 2.113595 1_565
Co4 O33 2.139756 1_555
Co4 O24 2.140213 1_555
Co5 O31 1.939958 1_555
Co5 O25 2.048628 1_645
Co5 O40 2.096420 1_555
Co5 O32 2.113595 1_545
Co5 O38 2.139756 1_655
Co5 O47 2.140213 1_555
Co6 O29 1.988687 1_555
Co6 O43 2.076069 1_555
Co6 O34 2.096560 1_555
Co6 O37 2.099649 1_555
Co6 O26 2.135812 1_555
Co6 O45 2.149022 1_555
Co7 O42 1.988687 1_555
Co7 O28 2.076069 1_455
Co7 O35 2.096560 1_554
Co7 O36 2.099649 1_455
Co7 O46 2.135812 1_455
Co7 O27 2.149022 1_555
