# generated using pymatgen
data_Na3MnSiBO7
_symmetry_space_group_name_H-M   'P 1'
_cell_length_a   5.28999063
_cell_length_b   8.95227850
_cell_length_c   12.94534105
_cell_angle_alpha   89.98989797
_cell_angle_beta   89.99927060
_cell_angle_gamma   87.42457841
_symmetry_Int_Tables_number   1
_chemical_formula_structural   Na3MnSiBO7
_chemical_formula_sum   'Na12 Mn4 Si4 B4 O28'
_cell_volume   612.43935539
_cell_formula_units_Z   4
loop_
 _symmetry_equiv_pos_site_id
 _symmetry_equiv_pos_as_xyz
  1  'x, y, z'
loop_
 _atom_site_type_symbol
 _atom_site_label
 _atom_site_symmetry_multiplicity
 _atom_site_fract_x
 _atom_site_fract_y
 _atom_site_fract_z
 _atom_site_occupancy
  Na  Na0  1  0.76776800  0.08315100  0.12505700  1
  Na  Na1  1  0.76776100  0.08320200  0.62504300  1
  Na  Na2  1  0.23226800  0.91682100  0.37493900  1
  Na  Na3  1  0.23226600  0.91681200  0.87497000  1
  Na  Na4  1  0.25431900  0.26305800  0.00538500  1
  Na  Na5  1  0.25434200  0.26310700  0.50538200  1
  Na  Na6  1  0.25426500  0.26314300  0.24462000  1
  Na  Na7  1  0.25426300  0.26319900  0.74462300  1
  Na  Na8  1  0.74575200  0.73682200  0.25540300  1
  Na  Na9  1  0.74565200  0.73679500  0.75539900  1
  Na  Na10  1  0.74557800  0.73689400  0.49459400  1
  Na  Na11  1  0.74568300  0.73688900  0.99462500  1
  Mn  Mn0  1  0.78388600  0.33455300  0.87489700  1
  Mn  Mn1  1  0.21604200  0.66551300  0.62497700  1
  Mn  Mn2  1  0.78390100  0.33452300  0.37490800  1
  Mn  Mn3  1  0.21616500  0.66552400  0.12506200  1
  Si  Si0  1  0.72184800  0.42938900  0.12501900  1
  Si  Si1  1  0.72173800  0.42937900  0.62498000  1
  Si  Si2  1  0.27821500  0.57062400  0.37497400  1
  Si  Si3  1  0.27815000  0.57062100  0.87499600  1
  B  B0  1  0.72339000  0.06837400  0.37498300  1
  B  B1  1  0.72334500  0.06837400  0.87499500  1
  B  B2  1  0.27667100  0.93161100  0.12505000  1
  B  B3  1  0.27663700  0.93161800  0.62501000  1
  O  O0  1  0.31434900  0.07810700  0.12504900  1
  O  O1  1  0.31434600  0.07816900  0.62504900  1
  O  O2  1  0.68579000  0.92185000  0.37496500  1
  O  O3  1  0.68575600  0.92185000  0.87500500  1
  O  O4  1  0.95997600  0.13378900  0.37502800  1
  O  O5  1  0.95994300  0.13378500  0.87502700  1
  O  O6  1  0.04004400  0.86621300  0.12500900  1
  O  O7  1  0.04001500  0.86623800  0.62493700  1
  O  O8  1  0.53103600  0.18255600  0.37493600  1
  O  O9  1  0.53096500  0.18254400  0.87493500  1
  O  O10  1  0.46901600  0.81742000  0.12509800  1
  O  O11  1  0.46893700  0.81742400  0.62503900  1
  O  O12  1  0.41577900  0.47859500  0.12530900  1
  O  O13  1  0.41565400  0.47858300  0.62522400  1
  O  O14  1  0.58429100  0.52145900  0.37474100  1
  O  O15  1  0.58424600  0.52142400  0.87475000  1
  O  O16  1  0.11087000  0.42263000  0.37506300  1
  O  O17  1  0.11077000  0.42260400  0.87506900  1
  O  O18  1  0.88924100  0.57737300  0.12497400  1
  O  O19  1  0.88912400  0.57736500  0.62491900  1
  O  O20  1  0.78643500  0.31784100  0.02578200  1
  O  O21  1  0.78648900  0.31784500  0.52575000  1
  O  O22  1  0.78720700  0.31765100  0.22411100  1
  O  O23  1  0.78710400  0.31766400  0.72409200  1
  O  O24  1  0.21285100  0.68237900  0.27589500  1
  O  O25  1  0.21279400  0.68232800  0.77589600  1
  O  O26  1  0.21351000  0.68215000  0.47421600  1
  O  O27  1  0.21355900  0.68216700  0.97424500  1
loop_
_geom_bond_atom_site_label_1
_geom_bond_atom_site_label_2
_geom_bond_distance
_geom_bond_site_symmetry_2
Na0 O6 2.365353 1_645
Na0 O0 2.401035 1_555
Na0 O22 2.466230 1_555
Na0 O20 2.468460 1_555
Na1 O7 2.365472 1_645
Na1 O1 2.401008 1_555
Na1 O23 2.465865 1_555
Na1 O21 2.468247 1_555
Na2 O4 2.365615 1_465
Na2 O2 2.401571 1_555
Na2 O24 2.465710 1_555
Na2 O26 2.468366 1_555
Na3 O5 2.365744 1_465
Na3 O3 2.401407 1_555
Na3 O25 2.466256 1_555
Na3 O27 2.468133 1_555
Na4 O0 2.278998 1_555
Na4 O17 2.316100 1_554
Na4 O9 2.327783 1_554
Na4 O20 2.515415 1_455
Na4 O5 2.602845 1_454
Na4 O12 2.648018 1_555
Na4 O20 2.891016 1_555
Na5 O1 2.278926 1_555
Na5 O16 2.315882 1_555
Na5 O8 2.327995 1_555
Na5 O21 2.515155 1_455
Na5 O4 2.602968 1_455
Na5 O13 2.646712 1_555
Na5 O21 2.891057 1_555
Na6 O0 2.279150 1_555
Na6 O16 2.317088 1_555
Na6 O8 2.326958 1_555
Na6 O22 2.510925 1_455
Na6 O4 2.603031 1_455
Na6 O12 2.642497 1_555
Na6 O22 2.894890 1_555
Na7 O1 2.279138 1_555
Na7 O17 2.316830 1_555
Na7 O9 2.326868 1_555
Na7 O23 2.511418 1_455
Na7 O5 2.603353 1_455
Na7 O13 2.642479 1_555
Na7 O23 2.894310 1_555
Na8 O2 2.278951 1_555
Na8 O18 2.316900 1_555
Na8 O10 2.326769 1_555
Na8 O24 2.511026 1_655
Na8 O6 2.603080 1_655
Na8 O14 2.642009 1_555
Na8 O24 2.894534 1_555
Na9 O3 2.279475 1_555
Na9 O19 2.317252 1_555
Na9 O11 2.327295 1_555
Na9 O25 2.511287 1_655
Na9 O7 2.604103 1_655
Na9 O15 2.642057 1_555
Na9 O25 2.894362 1_555
Na10 O2 2.278587 1_555
Na10 O19 2.316088 1_555
Na10 O11 2.327760 1_555
Na10 O26 2.515585 1_655
Na10 O7 2.603218 1_655
Na10 O14 2.646475 1_555
Na10 O26 2.890670 1_555
Na11 O3 2.278618 1_555
Na11 O18 2.316263 1_556
Na11 O10 2.328110 1_556
Na11 O27 2.515269 1_655
Na11 O6 2.603229 1_656
Na11 O15 2.647124 1_555
Na11 O27 2.890921 1_555
Mn0 O17 1.932364 1_655
Mn0 O15 1.937840 1_555
Mn0 O9 1.950791 1_555
Mn0 O23 1.958110 1_555
Mn0 O20 1.958953 1_556
Mn0 O5 1.986797 1_555
Mn1 O19 1.932916 1_455
Mn1 O13 1.938210 1_555
Mn1 O11 1.950054 1_555
Mn1 O26 1.957301 1_555
Mn1 O25 1.959531 1_555
Mn1 O7 1.986388 1_555
Mn2 O16 1.932999 1_655
Mn2 O14 1.938248 1_555
Mn2 O8 1.950305 1_555
Mn2 O22 1.957997 1_555
Mn2 O21 1.958376 1_555
Mn2 O4 1.986568 1_555
Mn3 O18 1.932958 1_455
Mn3 O12 1.938208 1_555
Mn3 O10 1.949789 1_555
Mn3 O27 1.958030 1_554
Mn3 O24 1.958450 1_555
Mn3 O6 1.986316 1_555
B0 O2 1.335526 1_545
B0 O4 1.405403 1_555
B0 O8 1.409541 1_555
B1 O3 1.335514 1_545
B1 O5 1.405444 1_555
B1 O9 1.409561 1_555
B2 O0 1.335358 1_565
B2 O6 1.405530 1_555
B2 O10 1.409564 1_555
B3 O1 1.335876 1_565
B3 O7 1.405433 1_555
B3 O11 1.409418 1_555
O12 Si0 1.658751 1_555
O13 Si1 1.658822 1_555
O14 Si2 1.658704 1_555
O15 Si3 1.658870 1_555
O16 Si2 1.626159 1_555
O17 Si3 1.626440 1_555
O18 Si0 1.626232 1_555
O19 Si1 1.626225 1_555
O20 Si0 1.653504 1_555
O21 Si1 1.653515 1_555
O22 Si0 1.653530 1_555
O23 Si1 1.653615 1_555
O24 Si2 1.653495 1_555
O25 Si3 1.653443 1_555
O26 Si2 1.653550 1_555
O27 Si3 1.653618 1_555
