# generated using pymatgen
data_CaH4SO6
_symmetry_space_group_name_H-M   'P 1'
_cell_length_a   8.28425580
_cell_length_b   8.28425580
_cell_length_c   6.38681172
_cell_angle_alpha   81.98821614
_cell_angle_beta   81.98821614
_cell_angle_gamma   139.87077961
_symmetry_Int_Tables_number   1
_chemical_formula_structural   CaH4SO6
_chemical_formula_sum   'Ca2 H8 S2 O12'
_cell_volume   258.14034839
_cell_formula_units_Z   2
loop_
 _symmetry_equiv_pos_site_id
 _symmetry_equiv_pos_as_xyz
  1  'x, y, z'
loop_
 _atom_site_type_symbol
 _atom_site_label
 _atom_site_symmetry_multiplicity
 _atom_site_fract_x
 _atom_site_fract_y
 _atom_site_fract_z
 _atom_site_occupancy
  Ca  Ca0  1  0.82392000  0.17608000  0.75000000  1
  Ca  Ca1  1  0.17608000  0.82392000  0.25000000  1
  H  H0  1  0.59180800  0.41063900  0.98613300  1
  H  H1  1  0.58936100  0.40819200  0.51386700  1
  H  H2  1  0.28047400  0.31155300  0.50929200  1
  H  H3  1  0.31155300  0.28047400  0.00929200  1
  H  H4  1  0.68844700  0.71952600  0.99070800  1
  H  H5  1  0.71952600  0.68844700  0.49070800  1
  H  H6  1  0.41063900  0.59180800  0.48613300  1
  H  H7  1  0.40819200  0.58936100  0.01386700  1
  S  S0  1  0.17034000  0.82966000  0.75000000  1
  S  S1  1  0.82966000  0.17034000  0.25000000  1
  O  O0  1  0.24137100  0.39181700  0.54655500  1
  O  O1  1  0.37783300  0.92641800  0.84079800  1
  O  O2  1  0.28968800  0.05648300  0.55424300  1
  O  O3  1  0.39181700  0.24137100  0.04655500  1
  O  O4  1  0.92641800  0.37783300  0.34079800  1
  O  O5  1  0.94351700  0.71031200  0.94575700  1
  O  O6  1  0.05648300  0.28968800  0.05424300  1
  O  O7  1  0.07358200  0.62216700  0.65920200  1
  O  O8  1  0.60818300  0.75862900  0.95344500  1
  O  O9  1  0.71031200  0.94351700  0.44575700  1
  O  O10  1  0.62216700  0.07358200  0.15920200  1
  O  O11  1  0.75862900  0.60818300  0.45344500  1
loop_
_geom_bond_atom_site_label_1
_geom_bond_atom_site_label_2
_geom_bond_distance
_geom_bond_site_symmetry_2
Ca0 O0 2.343243 1_655
Ca0 O8 2.343243 1_545
Ca0 O1 2.377189 1_545
Ca0 O7 2.377189 1_655
Ca0 O10 2.517620 1_556
Ca0 O4 2.517620 1_555
Ca0 O9 2.674691 1_545
Ca0 O6 2.674691 1_656
Ca1 O3 2.343243 1_565
Ca1 O11 2.343243 1_455
Ca1 O10 2.377189 1_565
Ca1 O4 2.377189 1_455
Ca1 O7 2.517620 1_555
Ca1 O1 2.517620 1_554
Ca1 O5 2.674691 1_454
Ca1 O2 2.674691 1_565
H0 O3 0.989163 1_556
H1 O11 0.989163 1_555
H2 O0 0.977603 1_555
H3 O3 0.977603 1_555
H4 O8 0.977603 1_555
H5 O11 0.977603 1_555
H6 O0 0.989163 1_555
H7 O8 0.989163 1_554
O1 S0 1.494653 1_555
O2 S0 1.493693 1_545
O4 S1 1.494653 1_555
O5 S0 1.493693 1_655
O6 S1 1.493693 1_455
O7 S0 1.494653 1_555
O9 S1 1.493693 1_565
O10 S1 1.494653 1_555
