# generated using pymatgen
data_Li4(FeO2)9
_symmetry_space_group_name_H-M   'P 1'
_cell_length_a   9.24308658
_cell_length_b   24.86314734
_cell_length_c   2.94812200
_cell_angle_alpha   90.00040425
_cell_angle_beta   90.00011472
_cell_angle_gamma   89.62035299
_symmetry_Int_Tables_number   1
_chemical_formula_structural   Li4(FeO2)9
_chemical_formula_sum   'Li8 Fe18 O36'
_cell_volume   677.49959924
_cell_formula_units_Z   2
loop_
 _symmetry_equiv_pos_site_id
 _symmetry_equiv_pos_as_xyz
  1  'x, y, z'
loop_
 _atom_site_type_symbol
 _atom_site_label
 _atom_site_symmetry_multiplicity
 _atom_site_fract_x
 _atom_site_fract_y
 _atom_site_fract_z
 _atom_site_occupancy
  Li  Li0  1  0.18966900  0.98371600  0.99999900  1
  Li  Li1  1  0.18815100  0.19473100  0.00000100  1
  Li  Li2  1  0.31481100  0.69607800  0.00000100  1
  Li  Li3  1  0.31104100  0.48659900  0.00000000  1
  Li  Li4  1  0.68836500  0.51590200  0.00000100  1
  Li  Li5  1  0.68833200  0.30495900  0.99999900  1
  Li  Li6  1  0.81267500  0.80297000  0.99999300  1
  Li  Li7  1  0.81024500  0.01488600  0.00000000  1
  Fe  Fe0  1  0.99894200  0.50155400  0.99999800  1
  Fe  Fe1  1  0.99359800  0.10460600  0.00000200  1
  Fe  Fe2  1  0.99187300  0.30999200  0.99999800  1
  Fe  Fe3  1  0.15974800  0.58738900  0.50000100  1
  Fe  Fe4  1  0.17187000  0.80489700  0.49999800  1
  Fe  Fe5  1  0.33365900  0.30694900  0.50000100  1
  Fe  Fe6  1  0.34051700  0.08452300  0.50000100  1
  Fe  Fe7  1  0.50022800  0.81294300  0.99998800  1
  Fe  Fe8  1  0.50827800  0.60609100  0.00001600  1
  Fe  Fe9  1  0.49792000  0.99738400  0.00000000  1
  Fe  Fe10  1  0.49322600  0.39532500  0.00000000  1
  Fe  Fe11  1  0.49244300  0.19082000  0.00000200  1
  Fe  Fe12  1  0.66103500  0.91137600  0.49999700  1
  Fe  Fe13  1  0.66319400  0.69675700  0.49999800  1
  Fe  Fe14  1  0.83426600  0.19369800  0.49999900  1
  Fe  Fe15  1  0.83975500  0.41526700  0.50000000  1
  Fe  Fe16  1  0.00572700  0.69089800  0.00000600  1
  Fe  Fe17  1  0.01029600  0.89324700  0.99999800  1
  O  O0  1  0.98182100  0.41899900  0.99999800  1
  O  O1  1  0.01599600  0.58507200  0.00000600  1
  O  O2  1  0.06043300  0.94118400  0.50000200  1
  O  O3  1  0.03723500  0.16165300  0.49999400  1
  O  O4  1  0.13689600  0.66459400  0.50000500  1
  O  O5  1  0.13478300  0.75431400  0.00000100  1
  O  O6  1  0.14938100  0.50654200  0.49999700  1
  O  O7  1  0.12247500  0.29055400  0.49999800  1
  O  O8  1  0.20244600  0.85724600  0.99999100  1
  O  O9  1  0.19825000  0.08405500  0.00000000  1
  O  O10  1  0.30344900  0.58462100  0.99999700  1
  O  O11  1  0.30408300  0.35824000  0.00000000  1
  O  O12  1  0.37596300  0.78827100  0.49998600  1
  O  O13  1  0.34873900  0.00207800  0.49999800  1
  O  O14  1  0.36910700  0.25582300  0.00000300  1
  O  O15  1  0.36481100  0.16393900  0.50000200  1
  O  O16  1  0.46138400  0.66228500  0.49999400  1
  O  O17  1  0.43618700  0.44210900  0.49999600  1
  O  O18  1  0.48246700  0.07950900  0.00000200  1
  O  O19  1  0.51504500  0.91425700  0.99999800  1
  O  O20  1  0.56213900  0.55836700  0.50002700  1
  O  O21  1  0.53691400  0.33801100  0.50000700  1
  O  O22  1  0.63814800  0.83589900  0.49998900  1
  O  O23  1  0.62564000  0.74762700  0.99998800  1
  O  O24  1  0.65147800  0.99153600  0.50000200  1
  O  O25  1  0.62270200  0.21009600  0.50000300  1
  O  O26  1  0.69388100  0.64448500  0.00001800  1
  O  O27  1  0.69729800  0.41570900  0.00000200  1
  O  O28  1  0.80272400  0.91059000  0.99999700  1
  O  O29  1  0.80456500  0.14232800  0.00000000  1
  O  O30  1  0.87668200  0.71396400  0.50000700  1
  O  O31  1  0.84881900  0.49686700  0.50000000  1
  O  O32  1  0.86976400  0.24471800  0.99999800  1
  O  O33  1  0.86264200  0.33597200  0.49999800  1
  O  O34  1  0.96920200  0.83733900  0.49999100  1
  O  O35  1  0.93658800  0.05758600  0.50000600  1
loop_
_geom_bond_atom_site_label_1
_geom_bond_atom_site_label_2
_geom_bond_distance
_geom_bond_site_symmetry_2
Li0 O13 2.133524 1_566
Li0 O13 2.133537 1_565
Li0 O2 2.175943 1_555
Li0 O2 2.175968 1_556
Li0 O9 2.496529 1_566
Li1 O3 2.193224 1_555
Li1 O3 2.193240 1_554
Li1 O14 2.266806 1_555
Li1 O15 2.325662 1_554
Li1 O15 2.325669 1_555
Li2 O16 2.167742 1_555
Li2 O16 2.167765 1_554
Li2 O5 2.198526 1_555
Li2 O4 2.346688 1_554
Li2 O4 2.346714 1_555
Li3 O6 2.154441 1_555
Li3 O6 2.154454 1_554
Li3 O17 2.171983 1_555
Li3 O17 2.171992 1_554
Li3 O10 2.437681 1_554
Li4 O31 2.141749 1_555
Li4 O31 2.141752 1_554
Li4 O20 2.152276 1_554
Li4 O20 2.152374 1_555
Li4 O27 2.491934 1_555
Li5 O21 2.188987 1_555
Li5 O21 2.189015 1_556
Li5 O32 2.241063 1_555
Li5 O33 2.319417 1_556
Li5 O33 2.319432 1_555
Li6 O23 2.216661 1_555
Li6 O34 2.238886 1_556
Li6 O34 2.238906 1_555
Li6 O22 2.329790 1_556
Li6 O22 2.329808 1_555
Li7 O24 2.162105 1_544
Li7 O24 2.162123 1_545
Li7 O35 2.163361 1_554
Li7 O35 2.163372 1_555
Li7 O28 2.594519 1_544
Fe0 O31 2.028296 1_555
Fe0 O31 2.028310 1_556
Fe0 O6 2.030776 1_656
Fe0 O6 2.030785 1_655
Fe0 O0 2.059714 1_555
Fe0 O1 2.083536 1_656
Fe1 O35 1.955849 1_554
Fe1 O35 1.955881 1_555
Fe1 O9 1.956141 1_655
Fe1 O29 1.977573 1_555
Fe1 O3 2.086813 1_655
Fe1 O3 2.086861 1_654
Fe2 O7 1.963655 1_655
Fe2 O7 1.963656 1_656
Fe2 O32 1.982931 1_555
Fe2 O33 2.001670 1_556
Fe2 O33 2.001673 1_555
Fe3 O4 1.929754 1_555
Fe3 O10 1.985085 1_555
Fe3 O10 1.985106 1_554
Fe3 O1 1.985601 1_555
Fe3 O1 1.985628 1_556
Fe3 O6 2.013028 1_555
Fe4 O12 1.928532 1_555
Fe4 O5 1.969192 1_555
Fe4 O5 1.969219 1_556
Fe4 O8 1.987857 1_555
Fe4 O8 1.987902 1_554
Fe4 O34 2.034642 1_455
Fe5 O11 1.967031 1_556
Fe5 O11 1.967048 1_555
Fe5 O14 1.972430 1_555
Fe5 O14 1.972451 1_556
Fe5 O7 1.996743 1_555
Fe5 O21 2.035977 1_555
Fe6 O9 1.975445 1_556
Fe6 O9 1.975445 1_555
Fe6 O18 1.976795 1_555
Fe6 O18 1.976796 1_556
Fe6 O15 1.988737 1_555
Fe6 O13 2.050747 1_555
Fe7 O12 1.969199 1_555
Fe7 O12 1.969200 1_556
Fe7 O23 1.988978 1_555
Fe7 O22 2.033073 1_556
Fe7 O22 2.033078 1_555
Fe7 O19 2.523611 1_555
Fe8 O20 1.954662 1_554
Fe8 O20 1.954722 1_555
Fe8 O26 1.968768 1_555
Fe8 O10 1.970470 1_554
Fe8 O16 2.074739 1_555
Fe8 O16 2.074844 1_554
Fe9 O13 2.021306 1_565
Fe9 O13 2.021312 1_564
Fe9 O18 2.045931 1_565
Fe9 O24 2.050806 1_554
Fe9 O24 2.050812 1_555
Fe9 O19 2.071805 1_554
Fe10 O17 1.948245 1_555
Fe10 O17 1.948274 1_554
Fe10 O27 1.956396 1_555
Fe10 O11 1.981910 1_555
Fe10 O21 2.087786 1_554
Fe10 O21 2.087828 1_555
Fe11 O25 1.964635 1_555
Fe11 O25 1.964639 1_554
Fe11 O14 1.971606 1_555
Fe11 O15 2.005416 1_554
Fe11 O15 2.005427 1_555
Fe12 O22 1.889874 1_555
Fe12 O28 1.971816 1_555
Fe12 O28 1.971820 1_554
Fe12 O24 1.994402 1_555
Fe12 O19 1.999391 1_554
Fe12 O19 1.999399 1_555
Fe13 O23 1.971574 1_555
Fe13 O23 1.971631 1_554
Fe13 O26 1.984264 1_555
Fe13 O26 1.984365 1_556
Fe13 O30 2.021901 1_555
Fe13 O16 2.057984 1_555
Fe14 O29 1.970818 1_555
Fe14 O29 1.970836 1_556
Fe14 O32 1.973608 1_555
Fe14 O32 1.973627 1_554
Fe14 O25 1.994908 1_555
Fe14 O3 2.033368 1_655
Fe15 O27 1.976505 1_555
Fe15 O27 1.976517 1_556
Fe15 O0 1.976704 1_555
Fe15 O0 1.976718 1_554
Fe15 O33 1.981446 1_555
Fe15 O31 2.031116 1_555
Fe16 O30 1.978735 1_454
Fe16 O30 1.978737 1_455
Fe16 O5 1.983413 1_555
Fe16 O4 2.014942 1_555
Fe16 O4 2.014943 1_554
Fe16 O1 2.632250 1_555
Fe17 O2 1.953322 1_555
Fe17 O2 1.953326 1_556
Fe17 O28 1.963675 1_455
Fe17 O8 1.983562 1_555
Fe17 O34 2.063088 1_456
Fe17 O34 2.063103 1_455
