# generated using pymatgen
data_H3NCl
_symmetry_space_group_name_H-M   'P 1'
_cell_length_a   8.58380800
_cell_length_b   8.58380800
_cell_length_c   8.58380800
_cell_angle_alpha   90.00000000
_cell_angle_beta   90.00000000
_cell_angle_gamma   90.00000000
_symmetry_Int_Tables_number   1
_chemical_formula_structural   H3NCl
_chemical_formula_sum   'H24 N8 Cl8'
_cell_volume   632.47007906
_cell_formula_units_Z   8
loop_
 _symmetry_equiv_pos_site_id
 _symmetry_equiv_pos_as_xyz
  1  'x, y, z'
loop_
 _atom_site_type_symbol
 _atom_site_label
 _atom_site_symmetry_multiplicity
 _atom_site_fract_x
 _atom_site_fract_y
 _atom_site_fract_z
 _atom_site_occupancy
  H  H0  1  0.16391500  0.17963100  0.72174000  1
  H  H1  1  0.16391500  0.32036900  0.22174000  1
  H  H2  1  0.17963100  0.72174000  0.16391500  1
  H  H3  1  0.17963100  0.77826000  0.66391500  1
  H  H4  1  0.22174000  0.16391500  0.32036900  1
  H  H5  1  0.22174000  0.33608500  0.82036900  1
  H  H6  1  0.27826000  0.66391500  0.32036900  1
  H  H7  1  0.27826000  0.83608500  0.82036900  1
  H  H8  1  0.32036900  0.22174000  0.16391500  1
  H  H9  1  0.32036900  0.27826000  0.66391500  1
  H  H10  1  0.33608500  0.82036900  0.22174000  1
  H  H11  1  0.33608500  0.67963100  0.72174000  1
  H  H12  1  0.66391500  0.17963100  0.77826000  1
  H  H13  1  0.66391500  0.32036900  0.27826000  1
  H  H14  1  0.67963100  0.72174000  0.33608500  1
  H  H15  1  0.67963100  0.77826000  0.83608500  1
  H  H16  1  0.72174000  0.16391500  0.17963100  1
  H  H17  1  0.72174000  0.33608500  0.67963100  1
  H  H18  1  0.77826000  0.66391500  0.17963100  1
  H  H19  1  0.77826000  0.83608500  0.67963100  1
  H  H20  1  0.82036900  0.22174000  0.33608500  1
  H  H21  1  0.82036900  0.27826000  0.83608500  1
  H  H22  1  0.83608500  0.67963100  0.77826000  1
  H  H23  1  0.83608500  0.82036900  0.27826000  1
  N  N0  1  0.24091400  0.75908600  0.25908600  1
  N  N1  1  0.24091400  0.74091400  0.75908600  1
  N  N2  1  0.25908600  0.25908600  0.25908600  1
  N  N3  1  0.25908600  0.24091400  0.75908600  1
  N  N4  1  0.74091400  0.74091400  0.74091400  1
  N  N5  1  0.74091400  0.75908600  0.24091400  1
  N  N6  1  0.75908600  0.24091400  0.74091400  1
  N  N7  1  0.75908600  0.25908600  0.24091400  1
  Cl  Cl0  1  0.07530600  0.92469400  0.42469400  1
  Cl  Cl1  1  0.07530600  0.57530600  0.92469400  1
  Cl  Cl2  1  0.42469400  0.07530600  0.92469400  1
  Cl  Cl3  1  0.42469400  0.42469400  0.42469400  1
  Cl  Cl4  1  0.57530600  0.57530600  0.57530600  1
  Cl  Cl5  1  0.57530600  0.92469400  0.07530600  1
  Cl  Cl6  1  0.92469400  0.07530600  0.57530600  1
  Cl  Cl7  1  0.92469400  0.42469400  0.07530600  1
loop_
_geom_bond_atom_site_label_1
_geom_bond_atom_site_label_2
_geom_bond_distance
_geom_bond_site_symmetry_2
H0 N3 1.023161 1_555
H1 N2 1.023161 1_555
H2 N0 1.023161 1_555
H3 N1 1.023161 1_555
H4 N2 1.023161 1_555
H5 N3 1.023161 1_555
H6 N0 1.023161 1_555
H7 N1 1.023161 1_555
H8 N2 1.023161 1_555
H9 N3 1.023161 1_555
H10 N0 1.023161 1_555
H11 N1 1.023161 1_555
H12 N6 1.023161 1_555
H13 N7 1.023161 1_555
H14 N5 1.023161 1_555
H15 N4 1.023161 1_555
H16 N7 1.023161 1_555
H17 N6 1.023161 1_555
H18 N5 1.023161 1_555
H19 N4 1.023161 1_555
H20 N7 1.023161 1_555
H21 N6 1.023161 1_555
H22 N4 1.023161 1_555
H23 N5 1.023161 1_555
Cl0 Cl6 2.239238 1_465
Cl0 N0 2.462192 1_555
Cl1 Cl7 2.239238 1_456
Cl1 N1 2.462192 1_555
Cl2 Cl5 2.239238 1_546
Cl2 N3 2.462192 1_555
Cl3 Cl4 2.239238 1_555
Cl3 N2 2.462192 1_555
Cl4 N4 2.462192 1_555
Cl5 N5 2.462192 1_555
Cl6 N6 2.462192 1_555
Cl7 N7 2.462192 1_555
