# generated using pymatgen
data_Li2MnF6
_symmetry_space_group_name_H-M   'P 1'
_cell_length_a   4.63390100
_cell_length_b   4.98838900
_cell_length_c   16.88517516
_cell_angle_alpha   89.97871748
_cell_angle_beta   90.00000000
_cell_angle_gamma   90.00000000
_symmetry_Int_Tables_number   1
_chemical_formula_structural   Li2MnF6
_chemical_formula_sum   'Li8 Mn4 F24'
_cell_volume   390.31262973
_cell_formula_units_Z   4
loop_
 _symmetry_equiv_pos_site_id
 _symmetry_equiv_pos_as_xyz
  1  'x, y, z'
loop_
 _atom_site_type_symbol
 _atom_site_label
 _atom_site_symmetry_multiplicity
 _atom_site_fract_x
 _atom_site_fract_y
 _atom_site_fract_z
 _atom_site_occupancy
  Li  Li0  1  0.51419900  0.25224300  0.77150800  1
  Li  Li1  1  0.00989200  0.25377600  0.94706500  1
  Li  Li2  1  0.98580100  0.25224300  0.27150800  1
  Li  Li3  1  0.49010800  0.25377600  0.44706500  1
  Li  Li4  1  0.50989200  0.74622400  0.55293500  1
  Li  Li5  1  0.01419900  0.74775700  0.72849200  1
  Li  Li6  1  0.99010800  0.74622400  0.05293500  1
  Li  Li7  1  0.48580100  0.74775700  0.22849200  1
  Mn  Mn0  1  0.00933600  0.24726500  0.61989600  1
  Mn  Mn1  1  0.49066400  0.24726500  0.11989600  1
  Mn  Mn2  1  0.50933600  0.75273500  0.88010400  1
  Mn  Mn3  1  0.99066400  0.75273500  0.38010400  1
  F  F0  1  0.74098400  0.05235900  0.87502100  1
  F  F1  1  0.29714000  0.91637200  0.79964400  1
  F  F2  1  0.73097400  0.09502900  0.04619800  1
  F  F3  1  0.75901600  0.05235900  0.37502100  1
  F  F4  1  0.20286000  0.91637200  0.29964400  1
  F  F5  1  0.76902600  0.09502900  0.54619800  1
  F  F6  1  0.24428300  0.40171700  0.54473900  1
  F  F7  1  0.77865100  0.54673700  0.62612500  1
  F  F8  1  0.22759900  0.41146600  0.69927300  1
  F  F9  1  0.72759900  0.58853400  0.80072700  1
  F  F10  1  0.25571700  0.40171700  0.04473900  1
  F  F11  1  0.27865100  0.45326300  0.87387500  1
  F  F12  1  0.72134900  0.54673700  0.12612500  1
  F  F13  1  0.74428300  0.59828300  0.95526100  1
  F  F14  1  0.27240100  0.41146600  0.19927300  1
  F  F15  1  0.77240100  0.58853400  0.30072700  1
  F  F16  1  0.22134900  0.45326300  0.37387500  1
  F  F17  1  0.75571700  0.59828300  0.45526100  1
  F  F18  1  0.23097400  0.90497100  0.45380200  1
  F  F19  1  0.79714000  0.08362800  0.70035600  1
  F  F20  1  0.24098400  0.94764100  0.62497900  1
  F  F21  1  0.26902600  0.90497100  0.95380200  1
  F  F22  1  0.70286000  0.08362800  0.20035600  1
  F  F23  1  0.25901600  0.94764100  0.12497900  1
loop_
_geom_bond_atom_site_label_1
_geom_bond_atom_site_label_2
_geom_bond_distance
_geom_bond_site_symmetry_2
F0 Mn2 1.842141 1_545
F0 Li1 2.010717 1_655
F0 Li0 2.269852 1_555
F1 Mn2 1.864969 1_555
F1 Li5 1.967400 1_555
F1 Li0 2.010959 1_565
F2 Mn1 1.834665 1_555
F2 Li6 2.117128 1_545
F2 Li1 2.257981 1_654
F3 Mn3 1.842141 1_545
F3 Li3 2.010717 1_555
F3 Li2 2.269852 1_555
F4 Mn3 1.864969 1_455
F4 Li7 1.967400 1_555
F4 Li2 2.010959 1_465
F5 Mn0 1.834665 1_655
F5 Li4 2.117128 1_545
F5 Li3 2.257981 1_555
F6 Mn0 1.840833 1_555
F6 Li4 2.118389 1_555
F6 Li3 2.136152 1_555
F7 Mn0 1.839990 1_655
F7 Li4 2.016839 1_555
F7 Li5 2.277251 1_655
F8 Mn0 1.868442 1_555
F8 Li0 1.970176 1_555
F8 Li5 2.008998 1_555
F9 Mn2 1.868442 1_555
F9 Li5 1.970176 1_655
F9 Li0 2.008998 1_555
F10 Mn1 1.840833 1_555
F10 Li6 2.118389 1_455
F10 Li1 2.136152 1_554
F11 Mn2 1.839990 1_555
F11 Li1 2.016839 1_555
F11 Li0 2.277251 1_555
F12 Mn1 1.839990 1_555
F12 Li6 2.016839 1_555
F12 Li7 2.277251 1_555
F13 Mn2 1.840833 1_555
F13 Li1 2.118389 1_655
F13 Li6 2.136152 1_556
F14 Mn1 1.868442 1_555
F14 Li2 1.970176 1_455
F14 Li7 2.008998 1_555
F15 Mn3 1.868442 1_555
F15 Li7 1.970176 1_555
F15 Li2 2.008998 1_555
F16 Mn3 1.839990 1_455
F16 Li3 2.016839 1_555
F16 Li2 2.277251 1_455
F17 Mn3 1.840833 1_555
F17 Li3 2.118389 1_555
F17 Li4 2.136152 1_555
F18 Mn3 1.834665 1_455
F18 Li3 2.117128 1_565
F18 Li4 2.257981 1_555
F19 Mn0 1.864969 1_655
F19 Li0 1.967400 1_555
F19 Li5 2.010959 1_645
F20 Mn0 1.842141 1_565
F20 Li4 2.010717 1_555
F20 Li5 2.269852 1_555
F21 Mn2 1.834665 1_555
F21 Li1 2.117128 1_565
F21 Li6 2.257981 1_456
F22 Mn1 1.864969 1_555
F22 Li2 1.967400 1_555
F22 Li7 2.010959 1_545
F23 Mn1 1.842141 1_565
F23 Li6 2.010717 1_455
F23 Li7 2.269852 1_555
