# generated using pymatgen
data_Li4CoO3F
_symmetry_space_group_name_H-M   'P 1'
_cell_length_a   7.75884240
_cell_length_b   5.22501567
_cell_length_c   5.34709105
_cell_angle_alpha   66.35036108
_cell_angle_beta   109.98200788
_cell_angle_gamma   97.08765438
_symmetry_Int_Tables_number   1
_chemical_formula_structural   Li4CoO3F
_chemical_formula_sum   'Li8 Co2 O6 F2'
_cell_volume   186.58874075
_cell_formula_units_Z   2
loop_
 _symmetry_equiv_pos_site_id
 _symmetry_equiv_pos_as_xyz
  1  'x, y, z'
loop_
 _atom_site_type_symbol
 _atom_site_label
 _atom_site_symmetry_multiplicity
 _atom_site_fract_x
 _atom_site_fract_y
 _atom_site_fract_z
 _atom_site_occupancy
  Li  Li0  1  0.00617900  0.73979000  0.24750400  1
  Li  Li1  1  0.21929200  0.28374600  0.40395300  1
  Li  Li2  1  0.41663700  0.24316500  0.90520800  1
  Li  Li3  1  0.44196900  0.75414400  0.51516600  1
  Li  Li4  1  0.57292200  0.24479700  0.52008100  1
  Li  Li5  1  0.57831600  0.77045100  0.09154700  1
  Li  Li6  1  0.78568600  0.72632400  0.59992000  1
  Li  Li7  1  0.99971400  0.24712900  0.74708200  1
  Co  Co0  1  0.20587400  0.74070700  0.79757900  1
  Co  Co1  1  0.75750800  0.30491200  0.15485600  1
  O  O0  1  0.01452800  0.83445100  0.85278200  1
  O  O1  1  0.19886500  0.50150700  0.61586900  1
  O  O2  1  0.39301200  0.98384900  0.70417800  1
  O  O3  1  0.62443500  0.45999600  0.78547000  1
  O  O4  1  0.60182800  0.01153200  0.30073000  1
  O  O5  1  0.80715700  0.50105600  0.38110500  1
  F  F0  1  0.37869800  0.50657200  0.19579300  1
  F  F1  1  0.99738400  0.14587200  0.18117800  1
loop_
_geom_bond_atom_site_label_1
_geom_bond_atom_site_label_2
_geom_bond_distance
_geom_bond_site_symmetry_2
Li0 O0 1.987848 1_554
Li0 O5 2.003617 1_455
Li0 O1 2.035718 1_555
Li1 O1 1.950725 1_555
Li1 O2 1.968106 1_545
Li2 O3 1.991403 1_555
Li2 O2 1.999359 1_545
Li2 O1 2.042391 1_555
Li2 O4 2.073853 1_556
Li3 O3 1.952363 1_555
Li3 O2 1.988542 1_555
Li3 O4 1.996233 1_565
Li3 O1 2.258244 1_555
Li4 O2 2.041861 1_545
Li4 O3 2.054116 1_555
Li4 O4 2.074996 1_555
Li4 O5 2.274244 1_555
Li5 O4 1.950719 1_565
Li5 O2 2.026827 1_554
Li5 O5 2.126149 1_555
Li6 O3 1.948637 1_555
Li6 O4 1.966533 1_565
Li6 O0 2.006098 1_655
Li6 O5 2.017071 1_555
Li7 O0 2.005265 1_645
Li7 O1 2.032828 1_655
Li7 O5 2.056666 1_555
Co0 O0 1.768080 1_555
Co0 O1 1.852143 1_555
Co0 O2 1.871627 1_555
Co0 F0 2.047461 1_556
Co1 O3 1.775521 1_554
Co1 O5 1.800292 1_555
Co1 O4 1.909178 1_555
Co1 F1 2.069556 1_555
F0 Li1 1.915705 1_555
F0 Li4 1.992092 1_555
F0 Li5 2.014196 1_555
F0 Li3 2.423473 1_555
F0 Li2 2.554086 1_554
F1 Li1 1.970534 1_655
F1 Li0 2.011934 1_645
F1 Li7 2.170036 1_554
