# generated using pymatgen
data_Li2Fe3WO8
_symmetry_space_group_name_H-M   'P 1'
_cell_length_a   8.62334922
_cell_length_b   8.62334922
_cell_length_c   8.61432271
_cell_angle_alpha   89.79405896
_cell_angle_beta   89.79405896
_cell_angle_gamma   89.69776433
_symmetry_Int_Tables_number   1
_chemical_formula_structural   Li2Fe3WO8
_chemical_formula_sum   'Li8 Fe12 W4 O32'
_cell_volume   640.56242773
_cell_formula_units_Z   4
loop_
 _symmetry_equiv_pos_site_id
 _symmetry_equiv_pos_as_xyz
  1  'x, y, z'
loop_
 _atom_site_type_symbol
 _atom_site_label
 _atom_site_symmetry_multiplicity
 _atom_site_fract_x
 _atom_site_fract_y
 _atom_site_fract_z
 _atom_site_occupancy
  Li  Li0  1  0.99681800  0.75154700  0.62453200  1
  Li  Li1  1  0.25376700  0.50212800  0.87883700  1
  Li  Li2  1  0.75433600  0.50182600  0.37209400  1
  Li  Li3  1  0.49817400  0.24566400  0.62790600  1
  Li  Li4  1  0.00176800  0.25075800  0.12820800  1
  Li  Li5  1  0.74924200  0.99823200  0.87179200  1
  Li  Li6  1  0.24845300  0.00318200  0.37546800  1
  Li  Li7  1  0.49787200  0.74623300  0.12116300  1
  Fe  Fe0  1  0.62563700  0.63046900  0.75814100  1
  Fe  Fe1  1  0.86921600  0.62458100  0.00560400  1
  Fe  Fe2  1  0.11145200  0.62081100  0.24790000  1
  Fe  Fe3  1  0.61648700  0.38351300  0.00000000  1
  Fe  Fe4  1  0.36953100  0.37436300  0.24185900  1
  Fe  Fe5  1  0.12316300  0.36685400  0.49215700  1
  Fe  Fe6  1  0.37541900  0.13078400  0.99439600  1
  Fe  Fe7  1  0.13184700  0.12301800  0.74305700  1
  Fe  Fe8  1  0.88007200  0.11992800  0.50000000  1
  Fe  Fe9  1  0.37918900  0.88854800  0.75210000  1
  Fe  Fe10  1  0.63314600  0.87683700  0.50784300  1
  Fe  Fe11  1  0.87698200  0.86815300  0.25694300  1
  W  W0  1  0.37466000  0.62534000  0.50000000  1
  W  W1  1  0.87817300  0.37491600  0.75285200  1
  W  W2  1  0.62508400  0.12182700  0.24714800  1
  W  W3  1  0.12451900  0.87548100  0.00000000  1
  O  O0  1  0.38540300  0.62824800  0.72634800  1
  O  O1  1  0.60315900  0.63442700  0.50645400  1
  O  O2  1  0.89207400  0.63111300  0.24766700  1
  O  O3  1  0.85977300  0.60150700  0.74576900  1
  O  O4  1  0.12175500  0.64494600  0.01151400  1
  O  O5  1  0.63102200  0.60928900  0.98708800  1
  O  O6  1  0.37175200  0.61459700  0.27365200  1
  O  O7  1  0.14823900  0.61806800  0.49285400  1
  O  O8  1  0.64483800  0.38616200  0.75816100  1
  O  O9  1  0.86515800  0.37203900  0.97595000  1
  O  O10  1  0.14012200  0.38762200  0.26235300  1
  O  O11  1  0.61383800  0.35516200  0.24183900  1
  O  O12  1  0.36557300  0.39684100  0.49354600  1
  O  O13  1  0.39071100  0.36897800  0.01291200  1
  O  O14  1  0.10101300  0.38013200  0.73778300  1
  O  O15  1  0.88366200  0.36656600  0.51988800  1
  O  O16  1  0.62796100  0.13484200  0.02405000  1
  O  O17  1  0.39849300  0.14022700  0.25423100  1
  O  O18  1  0.10851800  0.14093100  0.50356200  1
  O  O19  1  0.12832000  0.09879300  0.99682800  1
  O  O20  1  0.87186100  0.14998700  0.73616600  1
  O  O21  1  0.36888700  0.10792600  0.75233300  1
  O  O22  1  0.63343400  0.11633800  0.48011200  1
  O  O23  1  0.85001300  0.12813900  0.26383400  1
  O  O24  1  0.35505400  0.87824500  0.98848600  1
  O  O25  1  0.13835000  0.86944300  0.77267700  1
  O  O26  1  0.85906900  0.89148200  0.49643800  1
  O  O27  1  0.38193200  0.85176100  0.50714600  1
  O  O28  1  0.61986800  0.89898700  0.26221700  1
  O  O29  1  0.61237800  0.85987800  0.73764700  1
  O  O30  1  0.90120700  0.87168000  0.00317200  1
  O  O31  1  0.13055700  0.86165000  0.22732300  1
loop_
_geom_bond_atom_site_label_1
_geom_bond_atom_site_label_2
_geom_bond_distance
_geom_bond_site_symmetry_2
Li0 O26 2.017292 1_555
Li0 O3 2.039344 1_555
Li0 O25 2.045822 1_655
Li0 O7 2.073509 1_655
Li1 O13 2.008192 1_556
Li1 O4 2.026063 1_556
Li1 O0 2.046687 1_555
Li1 O14 2.086535 1_555
Li2 O2 1.949065 1_555
Li2 O15 2.052049 1_555
Li2 O1 2.080765 1_555
Li2 O11 2.088683 1_555
Li3 O21 1.949065 1_555
Li3 O22 2.052049 1_555
Li3 O12 2.080765 1_555
Li3 O8 2.088683 1_555
Li4 O19 2.043469 1_554
Li4 O10 2.046038 1_555
Li4 O9 2.046976 1_454
Li4 O23 2.047024 1_455
Li5 O30 2.043469 1_556
Li5 O29 2.046038 1_555
Li5 O16 2.046976 1_566
Li5 O20 2.047024 1_565
Li6 O18 2.017292 1_555
Li6 O17 2.039344 1_555
Li6 O31 2.045822 1_545
Li6 O27 2.073509 1_545
Li7 O5 2.008192 1_554
Li7 O24 2.026063 1_554
Li7 O6 2.046687 1_555
Li7 O28 2.086535 1_555
Fe0 O5 1.980697 1_555
Fe0 O29 1.988229 1_555
Fe0 O3 2.035575 1_555
Fe0 O0 2.090819 1_555
Fe0 O8 2.112370 1_555
Fe0 O1 2.177584 1_555
Fe1 O5 2.065728 1_554
Fe1 O2 2.096196 1_555
Fe1 O30 2.150065 1_555
Fe1 O4 2.186514 1_655
Fe1 O9 2.194077 1_554
Fe1 O3 2.249645 1_554
Fe2 O2 1.893398 1_455
Fe2 O10 2.028152 1_555
Fe2 O4 2.047827 1_555
Fe2 O31 2.091070 1_555
Fe2 O7 2.134981 1_555
Fe2 O6 2.256722 1_555
Fe3 O5 1.954379 1_554
Fe3 O13 1.954379 1_555
Fe3 O11 2.096759 1_555
Fe3 O8 2.096759 1_554
Fe3 O9 2.155407 1_554
Fe3 O16 2.155407 1_555
Fe4 O13 1.980697 1_555
Fe4 O10 1.988229 1_555
Fe4 O17 2.035575 1_555
Fe4 O6 2.090819 1_555
Fe4 O11 2.112370 1_555
Fe4 O12 2.177584 1_555
Fe5 O18 1.955061 1_555
Fe5 O10 1.991970 1_555
Fe5 O15 2.078231 1_455
Fe5 O12 2.107755 1_555
Fe5 O14 2.127261 1_555
Fe5 O7 2.178238 1_555
Fe6 O13 2.065728 1_556
Fe6 O21 2.096196 1_555
Fe6 O19 2.150065 1_555
Fe6 O24 2.186514 1_545
Fe6 O16 2.194077 1_556
Fe6 O17 2.249645 1_556
Fe7 O21 2.049359 1_555
Fe7 O18 2.078708 1_555
Fe7 O19 2.195393 1_555
Fe7 O25 2.201035 1_545
Fe7 O14 2.231997 1_555
Fe7 O20 2.253732 1_455
Fe8 O26 1.979587 1_545
Fe8 O18 1.979587 1_655
Fe8 O20 2.052703 1_555
Fe8 O23 2.052703 1_555
Fe8 O22 2.134744 1_555
Fe8 O15 2.134744 1_555
Fe9 O21 1.893398 1_565
Fe9 O29 2.028152 1_555
Fe9 O24 2.047827 1_555
Fe9 O25 2.091070 1_555
Fe9 O27 2.134981 1_555
Fe9 O0 2.256722 1_555
Fe10 O26 1.955061 1_555
Fe10 O29 1.991970 1_555
Fe10 O22 2.078231 1_565
Fe10 O1 2.107755 1_555
Fe10 O28 2.127261 1_555
Fe10 O27 2.178238 1_555
Fe11 O2 2.049359 1_555
Fe11 O26 2.078708 1_555
Fe11 O30 2.195393 1_555
Fe11 O31 2.201035 1_655
Fe11 O28 2.231997 1_555
Fe11 O23 2.253732 1_565
O0 W0 1.952624 1_555
O1 W0 1.973388 1_555
O3 W1 1.960319 1_555
O4 W3 1.990365 1_555
O6 W0 1.952624 1_555
O7 W0 1.955042 1_555
O8 W1 2.014317 1_555
O9 W1 1.924788 1_555
O11 W2 2.014317 1_555
O12 W0 1.973388 1_555
O14 W1 1.926292 1_455
O15 W1 2.008756 1_555
O16 W2 1.924788 1_555
O17 W2 1.960319 1_555
O19 W3 1.926243 1_546
O20 W1 1.946537 1_555
O22 W2 2.008756 1_555
O23 W2 1.946537 1_555
O24 W3 1.990365 1_556
O25 W3 1.962296 1_556
O27 W0 1.955042 1_555
O28 W2 1.926292 1_565
O30 W3 1.926243 1_655
O31 W3 1.962296 1_555
