# generated using pymatgen
data_Lu(BiO2)3
_symmetry_space_group_name_H-M   'P 1'
_cell_length_a   6.96675965
_cell_length_b   6.96675965
_cell_length_c   6.96675950
_cell_angle_alpha   93.17896997
_cell_angle_beta   93.17896997
_cell_angle_gamma   93.17895705
_symmetry_Int_Tables_number   1
_chemical_formula_structural   Lu(BiO2)3
_chemical_formula_sum   'Lu2 Bi6 O12'
_cell_volume   336.51549160
_cell_formula_units_Z   2
loop_
 _symmetry_equiv_pos_site_id
 _symmetry_equiv_pos_as_xyz
  1  'x, y, z'
loop_
 _atom_site_type_symbol
 _atom_site_label
 _atom_site_symmetry_multiplicity
 _atom_site_fract_x
 _atom_site_fract_y
 _atom_site_fract_z
 _atom_site_occupancy
  Lu  Lu0  1  0.00000000  0.00000000  0.00000000  1
  Lu  Lu1  1  0.50000000  0.50000000  0.50000000  1
  Bi  Bi0  1  0.55410700  0.07149300  0.25063700  1
  Bi  Bi1  1  0.07149300  0.25063700  0.55410700  1
  Bi  Bi2  1  0.74936300  0.44589300  0.92850700  1
  Bi  Bi3  1  0.25063700  0.55410700  0.07149300  1
  Bi  Bi4  1  0.92850700  0.74936300  0.44589300  1
  Bi  Bi5  1  0.44589300  0.92850700  0.74936300  1
  O  O0  1  0.69558100  0.06656600  0.92839700  1
  O  O1  1  0.93343400  0.07160300  0.30441900  1
  O  O2  1  0.40249300  0.19395400  0.52848300  1
  O  O3  1  0.07160300  0.30441900  0.93343400  1
  O  O4  1  0.52848300  0.40249300  0.19395400  1
  O  O5  1  0.80604600  0.47151700  0.59750700  1
  O  O6  1  0.19395400  0.52848300  0.40249300  1
  O  O7  1  0.47151700  0.59750700  0.80604600  1
  O  O8  1  0.92839700  0.69558100  0.06656600  1
  O  O9  1  0.59750700  0.80604600  0.47151700  1
  O  O10  1  0.06656600  0.92839700  0.69558100  1
  O  O11  1  0.30441900  0.93343400  0.07160300  1
loop_
_geom_bond_atom_site_label_1
_geom_bond_atom_site_label_2
_geom_bond_distance
_geom_bond_site_symmetry_2
Lu0 O11 2.231403 1_545
Lu0 O0 2.231403 1_454
Lu0 O1 2.231403 1_455
Lu0 O10 2.231403 1_544
Lu0 O3 2.231403 1_554
Lu0 O8 2.231403 1_445
Lu1 O7 2.224439 1_555
Lu1 O4 2.224439 1_555
Lu1 O5 2.224439 1_555
Lu1 O6 2.224439 1_555
Lu1 O9 2.224439 1_555
Lu1 O2 2.224439 1_555
Bi0 O11 2.224295 1_545
Bi0 O4 2.375768 1_555
Bi0 O2 2.394575 1_555
Bi0 O9 2.491053 1_545
Bi0 O0 2.500623 1_554
Bi0 O1 2.648409 1_555
Bi1 O1 2.224295 1_455
Bi1 O2 2.375768 1_555
Bi1 O6 2.394575 1_555
Bi1 O5 2.491053 1_455
Bi1 O10 2.500623 1_545
Bi1 O3 2.648409 1_555
Bi2 O8 2.224295 1_556
Bi2 O5 2.375768 1_555
Bi2 O7 2.394575 1_555
Bi2 O4 2.491053 1_556
Bi2 O3 2.500622 1_655
Bi2 O0 2.648409 1_555
Bi3 O3 2.224295 1_554
Bi3 O6 2.375768 1_555
Bi3 O4 2.394575 1_555
Bi3 O7 2.491053 1_554
Bi3 O8 2.500622 1_455
Bi3 O11 2.648409 1_555
Bi4 O10 2.224295 1_655
Bi4 O9 2.375768 1_555
Bi4 O5 2.394575 1_555
Bi4 O6 2.491053 1_655
Bi4 O1 2.500623 1_565
Bi4 O8 2.648409 1_555
Bi5 O0 2.224295 1_565
Bi5 O7 2.375768 1_555
Bi5 O9 2.394575 1_555
Bi5 O2 2.491053 1_565
Bi5 O11 2.500623 1_556
Bi5 O10 2.648409 1_555
