# generated using pymatgen
data_Sc2Sb
_symmetry_space_group_name_H-M   'P 1'
_cell_length_a   4.22397718
_cell_length_b   4.22397718
_cell_length_c   7.85316371
_cell_angle_alpha   90.00000000
_cell_angle_beta   90.00000000
_cell_angle_gamma   90.00000000
_symmetry_Int_Tables_number   1
_chemical_formula_structural   Sc2Sb
_chemical_formula_sum   'Sc4 Sb2'
_cell_volume   140.11601512
_cell_formula_units_Z   2
loop_
 _symmetry_equiv_pos_site_id
 _symmetry_equiv_pos_as_xyz
  1  'x, y, z'
loop_
 _atom_site_type_symbol
 _atom_site_label
 _atom_site_symmetry_multiplicity
 _atom_site_fract_x
 _atom_site_fract_y
 _atom_site_fract_z
 _atom_site_occupancy
  Sc  Sc0  1  0.75000000  0.25000000  -0.00000000  1
  Sc  Sc1  1  0.25000000  0.75000000  -0.00000000  1
  Sc  Sc2  1  0.25000000  0.25000000  0.34447842  1
  Sc  Sc3  1  0.75000000  0.75000000  0.65552158  1
  Sb  Sb0  1  0.25000000  0.25000000  0.71920951  1
  Sb  Sb1  1  0.75000000  0.75000000  0.28079049  1
loop_
_geom_bond_atom_site_label_1
_geom_bond_atom_site_label_2
_geom_bond_distance
_geom_bond_site_symmetry_2
Sb0 Sc2 2.942825 1_555
Sb0 Sc3 3.028390 1_445
Sb0 Sc3 3.028390 1_455
Sb0 Sc3 3.028390 1_555
Sb0 Sc3 3.028390 1_545
Sb0 Sc1 3.053348 1_546
Sb0 Sc1 3.053348 1_556
Sb0 Sc0 3.053348 1_456
Sb0 Sc0 3.053348 1_556
Sb1 Sc3 2.942825 1_555
Sb1 Sc2 3.028390 1_555
Sb1 Sc2 3.028390 1_655
Sb1 Sc2 3.028390 1_665
Sb1 Sc2 3.028390 1_565
Sb1 Sc1 3.053348 1_655
Sb1 Sc1 3.053348 1_555
Sb1 Sc0 3.053348 1_565
Sb1 Sc0 3.053348 1_555
