# generated using pymatgen
data_Sm2Pt2O7
_symmetry_space_group_name_H-M   'P 1'
_cell_length_a   7.31388766
_cell_length_b   7.31388766
_cell_length_c   7.31388766
_cell_angle_alpha   60.00000000
_cell_angle_beta   60.00000000
_cell_angle_gamma   60.00000000
_symmetry_Int_Tables_number   1
_chemical_formula_structural   Sm2Pt2O7
_chemical_formula_sum   'Sm4 Pt4 O14'
_cell_volume   276.64947983
_cell_formula_units_Z   2
loop_
 _symmetry_equiv_pos_site_id
 _symmetry_equiv_pos_as_xyz
  1  'x, y, z'
loop_
 _atom_site_type_symbol
 _atom_site_label
 _atom_site_symmetry_multiplicity
 _atom_site_fract_x
 _atom_site_fract_y
 _atom_site_fract_z
 _atom_site_occupancy
  Sm  Sm0  1  0.12500000  0.12500000  0.12500000  1
  Sm  Sm1  1  0.62500000  0.12500000  0.12500000  1
  Sm  Sm2  1  0.12500000  0.62500000  0.12500000  1
  Sm  Sm3  1  0.12500000  0.12500000  0.62500000  1
  Pt  Pt0  1  0.62500000  0.62500000  0.12500000  1
  Pt  Pt1  1  0.62500000  0.62500000  0.62500000  1
  Pt  Pt2  1  0.62500000  0.12500000  0.62500000  1
  Pt  Pt3  1  0.12500000  0.62500000  0.62500000  1
  O  O0  1  0.71165244  0.28834756  0.28834756  1
  O  O1  1  0.71165244  0.28834756  0.71165244  1
  O  O2  1  0.00000000  0.00000000  0.00000000  1
  O  O3  1  0.28834756  0.71165244  0.28834756  1
  O  O4  1  0.71165244  0.71165244  0.28834756  1
  O  O5  1  0.96165244  0.53834756  0.53834756  1
  O  O6  1  0.28834756  0.71165244  0.71165244  1
  O  O7  1  0.25000000  0.25000000  0.25000000  1
  O  O8  1  0.96165244  0.53834756  0.96165244  1
  O  O9  1  0.53834756  0.96165244  0.53834756  1
  O  O10  1  0.53834756  0.53834756  0.96165244  1
  O  O11  1  0.96165244  0.96165244  0.53834756  1
  O  O12  1  0.53834756  0.96165244  0.96165244  1
  O  O13  1  0.28834756  0.28834756  0.71165244  1
loop_
_geom_bond_atom_site_label_1
_geom_bond_atom_site_label_2
_geom_bond_distance
_geom_bond_site_symmetry_2
O0 Pt0 2.036327 1_555
O0 Pt2 2.036327 1_555
O0 Sm0 2.489569 1_655
O0 Sm1 2.489569 1_555
O1 Pt1 2.036327 1_555
O1 Pt2 2.036327 1_555
O1 Sm3 2.489569 1_655
O1 Sm1 2.489569 1_556
O2 Sm0 2.239412 1_555
O2 Sm1 2.239412 1_455
O2 Sm3 2.239412 1_554
O2 Sm2 2.239412 1_545
O3 Pt3 2.036327 1_555
O3 Pt0 2.036327 1_555
O3 Sm0 2.489569 1_565
O3 Sm2 2.489569 1_555
O4 Pt1 2.036327 1_555
O4 Pt0 2.036327 1_555
O4 Sm1 2.489569 1_565
O4 Sm2 2.489569 1_655
O5 Pt3 2.036327 1_655
O5 Pt1 2.036327 1_555
O5 Sm2 2.489569 1_655
O5 Sm3 2.489569 1_655
O6 Pt1 2.036327 1_555
O6 Pt3 2.036327 1_555
O6 Sm3 2.489569 1_565
O6 Sm2 2.489569 1_556
O7 Sm0 2.239412 1_555
O7 Sm2 2.239412 1_555
O7 Sm1 2.239412 1_555
O7 Sm3 2.239412 1_555
O8 Pt3 2.036327 1_655
O8 Pt0 2.036327 1_556
O8 Sm2 2.489569 1_656
O8 Sm0 2.489569 1_656
O9 Pt2 2.036327 1_565
O9 Pt1 2.036327 1_555
O9 Sm1 2.489569 1_565
O9 Sm3 2.489569 1_565
O10 Pt0 2.036327 1_556
O10 Pt1 2.036327 1_555
O10 Sm2 2.489569 1_556
O10 Sm1 2.489569 1_556
O11 Pt3 2.036327 1_655
O11 Pt2 2.036327 1_565
O11 Sm3 2.489569 1_665
O11 Sm0 2.489569 1_665
O12 Pt2 2.036327 1_565
O12 Pt0 2.036327 1_556
O12 Sm1 2.489569 1_566
O12 Sm0 2.489569 1_566
O13 Pt3 2.036327 1_555
O13 Pt2 2.036327 1_555
O13 Sm0 2.489569 1_556
O13 Sm3 2.489569 1_555
