# generated using pymatgen
data_Li4NbNi3O8
_symmetry_space_group_name_H-M   'P 1'
_cell_length_a   5.95117422
_cell_length_b   5.95117422
_cell_length_c   5.95117473
_cell_angle_alpha   59.98520386
_cell_angle_beta   59.98520386
_cell_angle_gamma   59.98521245
_symmetry_Int_Tables_number   1
_chemical_formula_structural   Li4NbNi3O8
_chemical_formula_sum   'Li4 Nb1 Ni3 O8'
_cell_volume   148.98664208
_cell_formula_units_Z   1
loop_
 _symmetry_equiv_pos_site_id
 _symmetry_equiv_pos_as_xyz
  1  'x, y, z'
loop_
 _atom_site_type_symbol
 _atom_site_label
 _atom_site_symmetry_multiplicity
 _atom_site_fract_x
 _atom_site_fract_y
 _atom_site_fract_z
 _atom_site_occupancy
  Li  Li0  1  0.50000000  0.50000000  0.50000000  1
  Li  Li1  1  0.00000000  0.50000000  0.00000000  1
  Li  Li2  1  0.00000000  0.00000000  0.50000000  1
  Li  Li3  1  0.50000000  0.00000000  0.00000000  1
  Nb  Nb0  1  0.00000000  0.00000000  0.00000000  1
  Ni  Ni0  1  0.50000000  0.00000000  0.50000000  1
  Ni  Ni1  1  0.50000000  0.50000000  0.00000000  1
  Ni  Ni2  1  0.00000000  0.50000000  0.50000000  1
  O  O0  1  0.26190700  0.26190700  0.26190700  1
  O  O1  1  0.75963900  0.24105700  0.75963900  1
  O  O2  1  0.75963900  0.75963900  0.24105700  1
  O  O3  1  0.73809300  0.73809300  0.73809300  1
  O  O4  1  0.24105700  0.75963900  0.75963900  1
  O  O5  1  0.24036100  0.75894300  0.24036100  1
  O  O6  1  0.24036100  0.24036100  0.75894300  1
  O  O7  1  0.75894300  0.24036100  0.24036100  1
loop_
_geom_bond_atom_site_label_1
_geom_bond_atom_site_label_2
_geom_bond_distance
_geom_bond_site_symmetry_2
Li0 O2 2.184943 1_555
Li0 O6 2.184943 1_555
Li0 O4 2.184943 1_555
Li0 O1 2.184943 1_555
Li0 O7 2.184943 1_555
Li0 O5 2.184943 1_555
Li1 O7 2.108333 1_455
Li1 O4 2.108333 1_554
Li1 O6 2.108333 1_554
Li1 O2 2.108333 1_455
Li1 O0 2.208620 1_555
Li1 O3 2.208620 1_454
Li2 O1 2.108333 1_455
Li2 O7 2.108333 1_455
Li2 O5 2.108333 1_545
Li2 O4 2.108333 1_545
Li2 O0 2.208620 1_555
Li2 O3 2.208620 1_445
Li3 O5 2.108333 1_545
Li3 O1 2.108333 1_554
Li3 O2 2.108333 1_545
Li3 O6 2.108333 1_554
Li3 O0 2.208620 1_555
Li3 O3 2.208620 1_544
Nb0 O6 2.022710 1_554
Nb0 O2 2.022710 1_445
Nb0 O7 2.022711 1_455
Nb0 O5 2.022711 1_545
Nb0 O1 2.022711 1_454
Nb0 O4 2.022711 1_544
Ni0 O3 2.008583 1_545
Ni0 O0 2.008583 1_555
Ni0 O4 2.102443 1_545
Ni0 O7 2.102443 1_555
Ni0 O6 2.102443 1_555
Ni0 O2 2.102443 1_545
Ni1 O3 2.008583 1_554
Ni1 O0 2.008583 1_555
Ni1 O4 2.102443 1_554
Ni1 O5 2.102443 1_555
Ni1 O1 2.102443 1_554
Ni1 O7 2.102443 1_555
Ni2 O3 2.008583 1_455
Ni2 O0 2.008583 1_555
Ni2 O1 2.102443 1_455
Ni2 O5 2.102443 1_555
Ni2 O6 2.102443 1_555
Ni2 O2 2.102443 1_455
