# generated using pymatgen
data_LiNiPO4
_symmetry_space_group_name_H-M   'P 1'
_cell_length_a   5.10515625
_cell_length_b   7.97059733
_cell_length_c   8.27530500
_cell_angle_alpha   90.00298387
_cell_angle_beta   89.99879635
_cell_angle_gamma   89.96575765
_symmetry_Int_Tables_number   1
_chemical_formula_structural   LiNiPO4
_chemical_formula_sum   'Li4 Ni4 P4 O16'
_cell_volume   336.73157311
_cell_formula_units_Z   4
loop_
 _symmetry_equiv_pos_site_id
 _symmetry_equiv_pos_as_xyz
  1  'x, y, z'
loop_
 _atom_site_type_symbol
 _atom_site_label
 _atom_site_symmetry_multiplicity
 _atom_site_fract_x
 _atom_site_fract_y
 _atom_site_fract_z
 _atom_site_occupancy
  Li  Li0  1  0.34444800  0.52993200  0.19602700  1
  Li  Li1  1  0.34444800  0.02995700  0.30397900  1
  Li  Li2  1  0.84466000  0.97018200  0.69607400  1
  Li  Li3  1  0.84465200  0.47017100  0.80395000  1
  Ni  Ni0  1  0.46533700  0.66319900  0.55382500  1
  Ni  Ni1  1  0.46528000  0.16300300  0.94600200  1
  Ni  Ni2  1  0.96471500  0.83691400  0.05410000  1
  Ni  Ni3  1  0.96470800  0.33690900  0.44593800  1
  P  P0  1  0.00446800  0.25032700  0.07289800  1
  P  P1  1  0.00453600  0.75033900  0.42711900  1
  P  P2  1  0.50432000  0.24966300  0.57316100  1
  P  P3  1  0.50429900  0.74962700  0.92681100  1
  O  O0  1  0.25081900  0.36057400  0.04686700  1
  O  O1  1  0.25082000  0.86058000  0.45312000  1
  O  O2  1  0.75106700  0.13968800  0.54690600  1
  O  O3  1  0.75107700  0.63969300  0.95311000  1
  O  O4  1  0.32458300  0.74140900  0.07766000  1
  O  O5  1  0.32462400  0.24142800  0.42232100  1
  O  O6  1  0.82480400  0.75868100  0.57793400  1
  O  O7  1  0.82476400  0.25866200  0.92208400  1
  O  O8  1  0.13711100  0.06765300  0.08302500  1
  O  O9  1  0.13712400  0.56767000  0.41696100  1
  O  O10  1  0.63711700  0.43223700  0.58332300  1
  O  O11  1  0.63708500  0.93223500  0.91676000  1
  O  O12  1  0.84242100  0.29116100  0.22322100  1
  O  O13  1  0.84243000  0.79125900  0.27684200  1
  O  O14  1  0.34284300  0.20842400  0.72338200  1
  O  O15  1  0.34289500  0.70842400  0.77659800  1
loop_
_geom_bond_atom_site_label_1
_geom_bond_atom_site_label_2
_geom_bond_distance
_geom_bond_site_symmetry_2
Li0 O0 1.890738 1_555
Li0 O4 1.952169 1_555
Li0 O9 2.133748 1_555
Li1 O1 1.890821 1_545
Li1 O5 1.951923 1_555
Li1 O8 2.133941 1_555
Li2 O2 1.891262 1_565
Li2 O6 1.951406 1_555
Li2 O11 2.133068 1_555
Li3 O3 1.891181 1_555
Li3 O7 1.951531 1_555
Li3 O10 2.132545 1_555
Ni0 O15 1.979603 1_555
Ni0 O6 1.997095 1_555
Ni0 O10 2.053220 1_555
Ni0 O1 2.089748 1_555
Ni0 O9 2.161390 1_555
Ni1 O14 1.978761 1_555
Ni1 O7 1.997557 1_555
Ni1 O11 2.051610 1_545
Ni1 O0 2.091183 1_556
Ni1 O8 2.161408 1_556
Ni2 O13 1.979910 1_555
Ni2 O4 1.997770 1_655
Ni2 O8 2.053332 1_665
Ni2 O3 2.088301 1_554
Ni2 O11 2.159906 1_554
Ni3 O12 1.979847 1_555
Ni3 O5 1.997953 1_655
Ni3 O9 2.053602 1_655
Ni3 O2 2.088283 1_555
Ni3 O10 2.159889 1_555
O0 P0 1.549715 1_555
O1 P1 1.549370 1_555
O2 P2 1.549523 1_555
O3 P3 1.549538 1_555
O4 P3 1.550611 1_554
O5 P2 1.550522 1_555
O6 P1 1.550423 1_655
O7 P0 1.550366 1_656
O8 P0 1.607609 1_555
O9 P1 1.607459 1_555
O10 P2 1.607959 1_555
O11 P3 1.608139 1_555
O12 P0 1.528845 1_655
O13 P1 1.528900 1_655
O14 P2 1.527516 1_555
O15 P3 1.527199 1_555
