# generated using pymatgen
data_P3H4N5Cl4
_symmetry_space_group_name_H-M   'P 1'
_cell_length_a   23.62587500
_cell_length_b   8.45642300
_cell_length_c   11.66127065
_cell_angle_alpha   75.59043309
_cell_angle_beta   90.00000000
_cell_angle_gamma   90.00000000
_symmetry_Int_Tables_number   1
_chemical_formula_structural   P3H4N5Cl4
_chemical_formula_sum   'P24 H32 N40 Cl32'
_cell_volume   2256.51780637
_cell_formula_units_Z   8
loop_
 _symmetry_equiv_pos_site_id
 _symmetry_equiv_pos_as_xyz
  1  'x, y, z'
loop_
 _atom_site_type_symbol
 _atom_site_label
 _atom_site_symmetry_multiplicity
 _atom_site_fract_x
 _atom_site_fract_y
 _atom_site_fract_z
 _atom_site_occupancy
  P  P0  1  0.13706500  0.30735800  0.49048700  1
  P  P1  1  0.63706500  0.69264200  0.00951300  1
  P  P2  1  0.86293500  0.69264200  0.50951300  1
  P  P3  1  0.36293500  0.30735800  0.99048700  1
  P  P4  1  0.21877700  0.49692700  0.34071600  1
  P  P5  1  0.71877700  0.50307300  0.15928400  1
  P  P6  1  0.78122300  0.50307300  0.65928400  1
  P  P7  1  0.28122300  0.49692700  0.84071600  1
  P  P8  1  0.19148800  0.19212900  0.31434400  1
  P  P9  1  0.69148800  0.80787100  0.18565600  1
  P  P10  1  0.80851200  0.80787100  0.68565600  1
  P  P11  1  0.30851200  0.19212900  0.81434400  1
  P  P12  1  0.91834200  0.22853100  0.38873200  1
  P  P13  1  0.41834200  0.77146900  0.11126800  1
  P  P14  1  0.08165800  0.77146900  0.61126800  1
  P  P15  1  0.58165800  0.22853100  0.88873200  1
  P  P16  1  0.94711500  0.15055100  0.17383100  1
  P  P17  1  0.44711500  0.84944900  0.32616900  1
  P  P18  1  0.05288500  0.84944900  0.82616900  1
  P  P19  1  0.55288500  0.15055100  0.67383100  1
  P  P20  1  0.97349600  0.45390400  0.20119600  1
  P  P21  1  0.47349600  0.54609600  0.29880400  1
  P  P22  1  0.02650400  0.54609600  0.79880400  1
  P  P23  1  0.52650400  0.45390400  0.70119600  1
  H  H0  1  0.04496000  0.37275400  0.43214400  1
  H  H1  1  0.54496000  0.62724600  0.06785600  1
  H  H2  1  0.95504000  0.62724600  0.56785600  1
  H  H3  1  0.45504000  0.37275400  0.93214400  1
  H  H4  1  0.05989400  0.40218800  0.56718100  1
  H  H5  1  0.55989400  0.59781200  0.93281900  1
  H  H6  1  0.94010600  0.59781200  0.43281900  1
  H  H7  1  0.44010600  0.40218800  0.06718100  1
  H  H8  1  0.19138800  0.27992300  0.66171900  1
  H  H9  1  0.69138800  0.72007700  0.83828100  1
  H  H10  1  0.80861200  0.72007700  0.33828100  1
  H  H11  1  0.30861200  0.27992300  0.16171900  1
  H  H12  1  0.14165500  0.12227700  0.67265200  1
  H  H13  1  0.64165500  0.87772300  0.82734800  1
  H  H14  1  0.85834500  0.87772300  0.32734800  1
  H  H15  1  0.35834500  0.12227700  0.17265200  1
  H  H16  1  0.92274700  0.04937300  0.56966500  1
  H  H17  1  0.42274700  0.95062700  0.93033500  1
  H  H18  1  0.07725300  0.95062700  0.43033500  1
  H  H19  1  0.57725300  0.04937300  0.06966500  1
  H  H20  1  0.98525500  0.15926500  0.53974900  1
  H  H21  1  0.48525500  0.84073500  0.96025100  1
  H  H22  1  0.01474500  0.84073500  0.46025100  1
  H  H23  1  0.51474500  0.15926500  0.03974900  1
  H  H24  1  0.82313700  0.25733800  0.34811300  1
  H  H25  1  0.32313700  0.74266200  0.15188700  1
  H  H26  1  0.17686300  0.74266200  0.65188700  1
  H  H27  1  0.67686300  0.25733800  0.84811300  1
  H  H28  1  0.84030800  0.32210800  0.47252500  1
  H  H29  1  0.34030800  0.67789200  0.02747500  1
  H  H30  1  0.15969200  0.67789200  0.52747500  1
  H  H31  1  0.65969200  0.32210800  0.97252500  1
  N  N0  1  0.13975200  0.18707300  0.40088300  1
  N  N1  1  0.63975200  0.81292700  0.09911700  1
  N  N2  1  0.86024800  0.81292700  0.59911700  1
  N  N3  1  0.36024800  0.18707300  0.90088300  1
  N  N4  1  0.17347300  0.47591500  0.44272100  1
  N  N5  1  0.67347300  0.52408500  0.05727900  1
  N  N6  1  0.82652700  0.52408500  0.55727900  1
  N  N7  1  0.32652700  0.47591500  0.94272100  1
  N  N8  1  0.23139500  0.35052900  0.27969600  1
  N  N9  1  0.73139500  0.64947100  0.22030400  1
  N  N10  1  0.76860500  0.64947100  0.72030400  1
  N  N11  1  0.26860500  0.35052900  0.77969600  1
  N  N12  1  0.06880900  0.33521300  0.50710500  1
  N  N13  1  0.56880900  0.66478700  0.99289500  1
  N  N14  1  0.93119100  0.66478700  0.49289500  1
  N  N15  1  0.43119100  0.33521300  0.00710500  1
  N  N16  1  0.15943600  0.22802500  0.62509000  1
  N  N17  1  0.65943600  0.77197500  0.87491000  1
  N  N18  1  0.84056400  0.77197500  0.37491000  1
  N  N19  1  0.34056400  0.22802500  0.12509000  1
  N  N20  1  0.95673400  0.39279200  0.33711500  1
  N  N21  1  0.45673400  0.60720800  0.16288500  1
  N  N22  1  0.04326600  0.60720800  0.66288500  1
  N  N23  1  0.54326600  0.39279200  0.83711500  1
  N  N24  1  0.91743200  0.10755700  0.29903000  1
  N  N25  1  0.41743200  0.89244300  0.20097000  1
  N  N26  1  0.08256800  0.89244300  0.70097000  1
  N  N27  1  0.58256800  0.10755700  0.79903000  1
  N  N28  1  0.97028900  0.33038100  0.11778900  1
  N  N29  1  0.47028900  0.66961900  0.38221100  1
  N  N30  1  0.02971100  0.66961900  0.88221100  1
  N  N31  1  0.52971100  0.33038100  0.61778900  1
  N  N32  1  0.94306800  0.15178800  0.52266600  1
  N  N33  1  0.44306800  0.84821200  0.97733400  1
  N  N34  1  0.05693200  0.84821200  0.47733400  1
  N  N35  1  0.55693200  0.15178800  0.02266600  1
  N  N36  1  0.85112500  0.25338300  0.41491700  1
  N  N37  1  0.35112500  0.74661700  0.08508300  1
  N  N38  1  0.14887500  0.74661700  0.58508300  1
  N  N39  1  0.64887500  0.25338300  0.91491700  1
  Cl  Cl0  1  0.20074000  0.69847900  0.20848000  1
  Cl  Cl1  1  0.70074000  0.30152100  0.29152000  1
  Cl  Cl2  1  0.79926000  0.30152100  0.79152000  1
  Cl  Cl3  1  0.29926000  0.69847900  0.70848000  1
  Cl  Cl4  1  0.29398600  0.56614500  0.39699600  1
  Cl  Cl5  1  0.79398600  0.43385500  0.10300400  1
  Cl  Cl6  1  0.70601400  0.43385500  0.60300400  1
  Cl  Cl7  1  0.20601400  0.56614500  0.89699600  1
  Cl  Cl8  1  0.24435300  0.99953300  0.37345900  1
  Cl  Cl9  1  0.74435300  0.00046700  0.12654100  1
  Cl  Cl10  1  0.75564700  0.00046700  0.62654100  1
  Cl  Cl11  1  0.25564700  0.99953300  0.87345900  1
  Cl  Cl12  1  0.16177300  0.14737600  0.16317600  1
  Cl  Cl13  1  0.66177300  0.85262400  0.33682400  1
  Cl  Cl14  1  0.83822700  0.85262400  0.83682400  1
  Cl  Cl15  1  0.33822700  0.14737600  0.66317600  1
  Cl  Cl16  1  0.89290900  0.09534600  0.05405300  1
  Cl  Cl17  1  0.39290900  0.90465400  0.44594700  1
  Cl  Cl18  1  0.10709100  0.90465400  0.94594700  1
  Cl  Cl19  1  0.60709100  0.09534600  0.55405300  1
  Cl  Cl20  1  0.01093100  0.99132300  0.17038300  1
  Cl  Cl21  1  0.51093100  0.00867700  0.32961700  1
  Cl  Cl22  1  0.98906900  0.00867700  0.82961700  1
  Cl  Cl23  1  0.48906900  0.99132300  0.67038300  1
  Cl  Cl24  1  0.92868700  0.65525800  0.12095400  1
  Cl  Cl25  1  0.42868700  0.34474200  0.37904600  1
  Cl  Cl26  1  0.07131300  0.34474200  0.87904600  1
  Cl  Cl27  1  0.57131300  0.65525800  0.62095400  1
  Cl  Cl28  1  0.05295000  0.54574300  0.19322900  1
  Cl  Cl29  1  0.55295000  0.45425700  0.30677100  1
  Cl  Cl30  1  0.94705000  0.45425700  0.80677100  1
  Cl  Cl31  1  0.44705000  0.54574300  0.69322900  1
loop_
_geom_bond_atom_site_label_1
_geom_bond_atom_site_label_2
_geom_bond_distance
_geom_bond_site_symmetry_2
H0 N12 1.021894 1_555
H1 N13 1.021894 1_554
H2 N14 1.021894 1_555
H3 N15 1.021894 1_556
H4 N12 1.026353 1_555
H5 N13 1.026353 1_555
H6 N14 1.026353 1_555
H7 N15 1.026353 1_555
H8 N16 1.018932 1_555
H9 N17 1.018932 1_555
H10 N18 1.018932 1_555
H11 N19 1.018932 1_555
H12 N16 1.018296 1_555
H13 N17 1.018296 1_555
H14 N18 1.018296 1_555
H15 N19 1.018296 1_555
H16 N32 1.022107 1_555
H17 N33 1.022107 1_555
H18 N34 1.022107 1_555
H19 N35 1.022107 1_555
H20 N32 1.021456 1_555
H21 N33 1.021456 1_555
H22 N34 1.021456 1_555
H23 N35 1.021456 1_555
H24 N36 1.016003 1_555
H25 N37 1.016003 1_555
H26 N38 1.016003 1_555
H27 N39 1.016003 1_555
H28 N36 1.024047 1_555
H29 N37 1.024047 1_555
H30 N38 1.024047 1_555
H31 N39 1.024047 1_555
N0 P8 1.578855 1_555
N0 P0 1.630791 1_555
N1 P9 1.578855 1_555
N1 P1 1.630791 1_555
N2 P10 1.578855 1_555
N2 P2 1.630791 1_555
N3 P11 1.578855 1_555
N3 P3 1.630791 1_555
N4 P4 1.577006 1_555
N4 P0 1.639126 1_555
N5 P5 1.577006 1_555
N5 P1 1.639126 1_555
N6 P6 1.577006 1_555
N6 P2 1.639126 1_555
N7 P7 1.577006 1_555
N7 P3 1.639126 1_555
N8 P4 1.601966 1_555
N8 P8 1.605329 1_555
N9 P5 1.601966 1_555
N9 P9 1.605329 1_555
N10 P6 1.601966 1_555
N10 P10 1.605329 1_555
N11 P7 1.601966 1_555
N11 P11 1.605329 1_555
N12 P0 1.648108 1_555
N13 P1 1.648108 1_556
N14 P2 1.648108 1_555
N15 P3 1.648108 1_554
N16 P0 1.633738 1_555
N17 P1 1.633738 1_556
N18 P2 1.633738 1_555
N19 P3 1.633738 1_554
N20 P20 1.590100 1_555
N20 P12 1.642679 1_555
N21 P21 1.590100 1_555
N21 P13 1.642679 1_555
N22 P22 1.590100 1_555
N22 P14 1.642679 1_555
N23 P23 1.590100 1_555
N23 P15 1.642679 1_555
N24 P16 1.578399 1_555
N24 P12 1.635176 1_555
N25 P17 1.578399 1_555
N25 P13 1.635176 1_555
N26 P18 1.578399 1_555
N26 P14 1.635176 1_555
N27 P19 1.578399 1_555
N27 P15 1.635176 1_555
N28 P16 1.595246 1_555
N28 P20 1.596408 1_555
N29 P17 1.595246 1_555
N29 P21 1.596408 1_555
N30 P18 1.595246 1_555
N30 P22 1.596408 1_555
N31 P19 1.595246 1_555
N31 P23 1.596408 1_555
N32 P12 1.642346 1_555
N33 P13 1.642346 1_556
N34 P14 1.642346 1_555
N35 P15 1.642346 1_554
N36 P12 1.640512 1_555
N37 P13 1.640512 1_555
N38 P14 1.640512 1_555
N39 P15 1.640512 1_555
Cl0 P4 2.038724 1_555
Cl1 P5 2.038724 1_555
Cl2 P6 2.038724 1_555
Cl3 P7 2.038724 1_555
Cl4 P4 2.030230 1_555
Cl5 P5 2.030230 1_555
Cl6 P6 2.030230 1_555
Cl7 P7 2.030230 1_555
Cl8 P8 2.031983 1_565
Cl9 P9 2.031983 1_545
Cl10 P10 2.031983 1_545
Cl11 P11 2.031983 1_565
Cl12 P8 2.018818 1_555
Cl13 P9 2.018818 1_555
Cl14 P10 2.018818 1_555
Cl15 P11 2.018818 1_555
Cl16 P16 2.033106 1_555
Cl17 P17 2.033106 1_555
Cl18 P18 2.033106 1_555
Cl19 P19 2.033106 1_555
Cl20 P16 2.028499 1_465
Cl21 P17 2.028499 1_545
Cl22 P18 2.028499 1_645
Cl23 P19 2.028499 1_565
Cl24 P20 2.025498 1_555
Cl25 P21 2.025498 1_555
Cl26 P22 2.025498 1_555
Cl27 P23 2.025498 1_555
Cl28 P20 2.024757 1_455
Cl29 P21 2.024757 1_555
Cl30 P22 2.024757 1_655
Cl31 P23 2.024757 1_555
