# generated using pymatgen
data_Na4Sn2H26Se6O13
_symmetry_space_group_name_H-M   'P 1'
_cell_length_a   7.27960200
_cell_length_b   10.48225307
_cell_length_c   18.99876399
_cell_angle_alpha   78.68198122
_cell_angle_beta   86.42117076
_cell_angle_gamma   72.70909496
_symmetry_Int_Tables_number   1
_chemical_formula_structural   Na4Sn2H26Se6O13
_chemical_formula_sum   'Na8 Sn4 H52 Se12 O26'
_cell_volume   1357.28356934
_cell_formula_units_Z   2
loop_
 _symmetry_equiv_pos_site_id
 _symmetry_equiv_pos_as_xyz
  1  'x, y, z'
loop_
 _atom_site_type_symbol
 _atom_site_label
 _atom_site_symmetry_multiplicity
 _atom_site_fract_x
 _atom_site_fract_y
 _atom_site_fract_z
 _atom_site_occupancy
  Na  Na0  1  0.51168200  0.49323100  0.90559300  1
  Na  Na1  1  0.48831800  0.50676900  0.09440700  1
  Na  Na2  1  0.20544400  0.81721800  0.79363700  1
  Na  Na3  1  0.79455600  0.18278200  0.20636300  1
  Na  Na4  1  0.83191200  0.08879600  0.70505700  1
  Na  Na5  1  0.16808800  0.91120400  0.29494300  1
  Na  Na6  1  0.38400200  0.99498500  0.59117300  1
  Na  Na7  1  0.61599800  0.00501500  0.40882700  1
  Sn  Sn0  1  0.88604600  0.86690400  0.01198200  1
  Sn  Sn1  1  0.11395400  0.13309600  0.98801800  1
  Sn  Sn2  1  0.31525800  0.56492000  0.56054900  1
  Sn  Sn3  1  0.68474200  0.43508000  0.43945100  1
  H  H0  1  0.22064800  0.43298400  0.02119500  1
  H  H1  1  0.77935200  0.56701600  0.97880500  1
  H  H2  1  0.15666000  0.58088700  0.97572500  1
  H  H3  1  0.84334000  0.41911300  0.02427500  1
  H  H4  1  0.76149800  0.38634800  0.79644000  1
  H  H5  1  0.23850200  0.61365200  0.20356000  1
  H  H6  1  0.91772800  0.38341100  0.85115300  1
  H  H7  1  0.08227200  0.61658900  0.14884700  1
  H  H8  1  0.31560800  0.52773700  0.75777100  1
  H  H9  1  0.68439200  0.47226300  0.24222900  1
  H  H10  1  0.18868200  0.52845300  0.82472200  1
  H  H11  1  0.81131800  0.47154700  0.17527800  1
  H  H12  1  0.57088400  0.75522300  0.88960600  1
  H  H13  1  0.42911600  0.24477700  0.11039400  1
  H  H14  1  0.37556200  0.78434900  0.93041800  1
  H  H15  1  0.62443800  0.21565100  0.06958200  1
  H  H16  1  0.91154200  0.78218200  0.71149900  1
  H  H17  1  0.08845800  0.21781800  0.28850100  1
  H  H18  1  0.04039400  0.84185100  0.65350100  1
  H  H19  1  0.95960600  0.15814900  0.34649900  1
  H  H20  1  0.55991500  0.78842900  0.70919500  1
  H  H21  1  0.44008500  0.21157100  0.29080500  1
  H  H22  1  0.50192300  0.92595400  0.73746800  1
  H  H23  1  0.49807700  0.07404600  0.26253200  1
  H  H24  1  0.12187700  0.10837000  0.81544300  1
  H  H25  1  0.87812300  0.89163000  0.18455700  1
  H  H26  1  0.94886200  0.05763300  0.84419200  1
  H  H27  1  0.05113800  0.94236700  0.15580800  1
  H  H28  1  0.50413100  0.07853500  0.81821300  1
  H  H29  1  0.49586900  0.92146500  0.18178700  1
  H  H30  1  0.67949500  0.94582000  0.83026400  1
  H  H31  1  0.32050500  0.05418000  0.16973600  1
  H  H32  1  0.72240400  0.37407900  0.67678900  1
  H  H33  1  0.27759600  0.62592100  0.32321100  1
  H  H34  1  0.55091200  0.33811600  0.71847300  1
  H  H35  1  0.44908800  0.66188400  0.28152700  1
  H  H36  1  0.99824300  0.18829100  0.57066000  1
  H  H37  1  0.00175700  0.81170900  0.42934000  1
  H  H38  1  0.09768100  0.24280200  0.62521200  1
  H  H39  1  0.90231900  0.75719800  0.37478800  1
  H  H40  1  0.62918200  0.16544100  0.56854100  1
  H  H41  1  0.37081800  0.83455900  0.43145900  1
  H  H42  1  0.47599400  0.22531500  0.62580200  1
  H  H43  1  0.52400600  0.77468500  0.37419800  1
  H  H44  1  0.80363600  0.85361900  0.54348400  1
  H  H45  1  0.19636400  0.14638100  0.45651600  1
  H  H46  1  0.66558200  0.76974300  0.53460000  1
  H  H47  1  0.33441800  0.23025700  0.46540000  1
  H  H48  1  0.84541000  0.60397700  0.68152900  1
  H  H49  1  0.15459000  0.39602300  0.31847100  1
  H  H50  1  0.78323900  0.57762500  0.76228000  1
  H  H51  1  0.21676100  0.42237500  0.23772000  1
  Se  Se0  1  0.23866900  0.86986400  0.03566500  1
  Se  Se1  1  0.76133100  0.13013600  0.96433500  1
  Se  Se2  1  0.75446700  0.76028800  0.12601200  1
  Se  Se3  1  0.24553300  0.23971200  0.87398800  1
  Se  Se4  1  0.89105000  0.74500600  0.90927700  1
  Se  Se5  1  0.10895000  0.25499400  0.09072300  1
  Se  Se6  1  0.69035700  0.52845000  0.55793700  1
  Se  Se7  1  0.30964300  0.47155000  0.44206300  1
  Se  Se8  1  0.22942900  0.41242700  0.66797200  1
  Se  Se9  1  0.77057100  0.58757300  0.33202800  1
  Se  Se10  1  0.14934300  0.81613000  0.53636000  1
  Se  Se11  1  0.85065700  0.18387000  0.46364000  1
  O  O0  1  0.27102900  0.50991600  0.99840700  1
  O  O1  1  0.72897100  0.49008400  0.00159300  1
  O  O2  1  0.79094300  0.43970400  0.82990700  1
  O  O3  1  0.20905700  0.56029600  0.17009300  1
  O  O4  1  0.29159200  0.56526000  0.80245800  1
  O  O5  1  0.70840800  0.43474000  0.19754200  1
  O  O6  1  0.44138200  0.74234600  0.88981600  1
  O  O7  1  0.55861800  0.25765400  0.11018400  1
  O  O8  1  0.98163400  0.85140600  0.70135800  1
  O  O9  1  0.01836600  0.14859400  0.29864200  1
  O  O10  1  0.44957800  0.86948200  0.71235800  1
  O  O11  1  0.55042200  0.13051800  0.28764200  1
  O  O12  1  0.04596100  0.04855700  0.80581300  1
  O  O13  1  0.95403900  0.95144300  0.19418700  1
  O  O14  1  0.60495900  0.01792000  0.79228800  1
  O  O15  1  0.39504100  0.98208000  0.20771200  1
  O  O16  1  0.69112900  0.32379100  0.72344100  1
  O  O17  1  0.30887100  0.67620900  0.27655900  1
  O  O18  1  0.06566100  0.16148600  0.61751800  1
  O  O19  1  0.93433900  0.83851400  0.38248200  1
  O  O20  1  0.56871800  0.14060000  0.61533500  1
  O  O21  1  0.43128200  0.85940000  0.38466500  1
  O  O22  1  0.66781200  0.86413300  0.53298000  1
  O  O23  1  0.33218800  0.13586700  0.46702000  1
  O  O24  1  0.77655600  0.65180700  0.71935700  1
  O  O25  1  0.22344400  0.34819300  0.28064300  1
loop_
_geom_bond_atom_site_label_1
_geom_bond_atom_site_label_2
_geom_bond_distance
_geom_bond_site_symmetry_2
Na0 O0 2.400471 1_555
Na0 O2 2.406013 1_555
Na0 O4 2.463443 1_555
Na0 O6 2.467408 1_555
Na0 O1 2.476931 1_556
Na1 O1 2.400471 1_555
Na1 O3 2.406013 1_555
Na1 O5 2.463443 1_555
Na1 O7 2.467408 1_555
Na1 O0 2.476931 1_554
Na2 O8 2.370539 1_455
Na2 O10 2.397337 1_555
Na2 O12 2.407255 1_565
Na2 O6 2.435664 1_555
Na2 O4 2.500306 1_555
Na2 Se4 3.222910 1_455
Na3 O9 2.370539 1_655
Na3 O11 2.397337 1_555
Na3 O13 2.407255 1_545
Na3 O7 2.435664 1_555
Na3 O5 2.500306 1_555
Na3 Se5 3.222910 1_655
Na4 O8 2.414904 1_545
Na4 O14 2.435693 1_555
Na4 O12 2.436175 1_655
Na4 O16 2.456089 1_555
Na4 O18 2.482347 1_655
Na4 O20 2.509454 1_555
Na5 O9 2.414904 1_565
Na5 O15 2.435693 1_555
Na5 O13 2.436175 1_455
Na5 O17 2.456089 1_555
Na5 O19 2.482347 1_455
Na5 O21 2.509454 1_555
Na6 O10 2.415467 1_555
Na6 O20 2.433270 1_565
Na6 O22 2.449012 1_555
Na6 O23 2.509887 1_565
Na6 O18 2.541798 1_565
Na6 Se10 3.226386 1_555
Na7 O11 2.415467 1_555
Na7 O21 2.433270 1_545
Na7 O23 2.449012 1_555
Na7 O22 2.509887 1_545
Na7 O19 2.541798 1_545
Na7 Se11 3.226386 1_555
H0 O0 0.995597 1_554
H1 O1 0.995597 1_556
H2 O0 0.991501 1_555
H3 O1 0.991501 1_555
H4 O2 0.995437 1_555
H5 O3 0.995437 1_555
H6 O2 0.996107 1_555
H7 O3 0.996107 1_555
H8 O4 0.988803 1_555
H9 O5 0.988803 1_555
H10 O4 0.978362 1_555
H11 O5 0.978362 1_555
H12 O6 0.990921 1_555
H13 O7 0.990921 1_555
H14 O6 0.990066 1_555
H15 O7 0.990066 1_555
H16 O8 0.988403 1_555
H17 O9 0.988403 1_555
H18 O8 0.990662 1_455
H19 O9 0.990662 1_655
H20 O10 0.989423 1_555
H21 O11 0.989423 1_555
H22 O10 0.995398 1_555
H23 O11 0.995398 1_555
H24 O12 0.997797 1_555
H25 O13 0.997797 1_555
H26 O12 0.981454 1_655
H27 O13 0.981454 1_455
H28 O14 0.992735 1_555
H29 O15 0.992735 1_555
H30 O14 0.988549 1_565
H31 O15 0.988549 1_545
H32 O16 0.988962 1_555
H33 O17 0.988962 1_555
H34 O16 0.994328 1_555
H35 O17 0.994328 1_555
H36 O18 0.993346 1_655
H37 O19 0.993346 1_455
H38 O18 0.986665 1_555
H39 O19 0.986665 1_555
H40 O20 0.990113 1_555
H41 O21 0.990113 1_555
H42 O20 0.989929 1_555
H43 O21 0.989929 1_555
H44 O22 0.990359 1_555
H45 O23 0.990359 1_555
H46 O22 0.988785 1_555
H47 O23 0.988785 1_555
H48 O24 0.982946 1_555
H49 O25 0.982946 1_555
H50 O24 1.002798 1_555
H51 O25 1.002798 1_555
Se0 Sn1 2.624938 1_564
Se0 Sn0 2.643803 1_455
Se1 Sn0 2.624938 1_546
Se1 Sn1 2.643803 1_655
Se2 Sn0 2.507349 1_555
Se3 Sn1 2.507349 1_555
Se4 Sn0 2.526568 1_556
Se5 Sn1 2.526568 1_554
Se6 Sn3 2.631923 1_555
Se6 Sn2 2.640953 1_555
Se7 Sn2 2.631923 1_555
Se7 Sn3 2.640953 1_555
Se8 Sn2 2.502953 1_555
Se9 Sn3 2.502953 1_555
Se10 Sn2 2.511507 1_555
Se11 Sn3 2.511507 1_555
