# generated using pymatgen
data_Li32Mn3Cr13O48
_symmetry_space_group_name_H-M   'P 1'
_cell_length_a   5.01578900
_cell_length_b   8.71760228
_cell_length_c   19.45281275
_cell_angle_alpha   98.06877447
_cell_angle_beta   94.62709196
_cell_angle_gamma   89.57460251
_symmetry_Int_Tables_number   1
_chemical_formula_structural   Li32Mn3Cr13O48
_chemical_formula_sum   'Li32 Mn3 Cr13 O48'
_cell_volume   839.41509619
_cell_formula_units_Z   1
loop_
 _symmetry_equiv_pos_site_id
 _symmetry_equiv_pos_as_xyz
  1  'x, y, z'
loop_
 _atom_site_type_symbol
 _atom_site_label
 _atom_site_symmetry_multiplicity
 _atom_site_fract_x
 _atom_site_fract_y
 _atom_site_fract_z
 _atom_site_occupancy
  Li  Li0  1  0.98950200  0.16782700  0.24964600  1
  Li  Li1  1  0.87367600  0.37408900  0.37499000  1
  Li  Li2  1  0.74826000  0.24969000  0.99937400  1
  Li  Li3  1  0.73952700  0.91894800  0.00010800  1
  Li  Li4  1  0.99633400  0.16882200  0.74966300  1
  Li  Li5  1  0.75586600  0.58011600  0.49974700  1
  Li  Li6  1  0.87450100  0.37620900  0.87494200  1
  Li  Li7  1  0.75448600  0.24965100  0.49996700  1
  Li  Li8  1  0.73911800  0.91978600  0.50037400  1
  Li  Li9  1  0.62337600  0.12304900  0.12498500  1
  Li  Li10  1  0.75845600  0.58125300  0.00001100  1
  Li  Li11  1  0.50834900  0.33052500  0.25061600  1
  Li  Li12  1  0.62308700  0.12327100  0.62514000  1
  Li  Li13  1  0.49924200  0.00051000  0.24994200  1
  Li  Li14  1  0.49070200  0.66930200  0.25028300  1
  Li  Li15  1  0.50417300  0.33070800  0.74984300  1
  Li  Li16  1  0.37477700  0.87513200  0.37500200  1
  Li  Li17  1  0.50057800  0.00008100  0.75012600  1
  Li  Li18  1  0.25096000  0.75030600  0.00024200  1
  Li  Li19  1  0.48949900  0.66834700  0.75000700  1
  Li  Li20  1  0.24415600  0.42079700  0.99991100  1
  Li  Li21  1  0.37474800  0.87476000  0.87491100  1
  Li  Li22  1  0.25954200  0.07974700  0.50000600  1
  Li  Li23  1  0.24944800  0.75107700  0.50014900  1
  Li  Li24  1  0.12561200  0.62638900  0.12480000  1
  Li  Li25  1  0.24364500  0.42029900  0.50021500  1
  Li  Li26  1  0.01103400  0.83225500  0.25032500  1
  Li  Li27  1  0.25828300  0.07821300  0.99944300  1
  Li  Li28  1  0.12432600  0.62486600  0.62466300  1
  Li  Li29  1  0.00259900  0.50067700  0.25066600  1
  Li  Li30  1  0.01001800  0.83066500  0.75007800  1
  Li  Li31  1  0.99957000  0.50126400  0.74969900  1
  Mn  Mn0  1  0.37492300  0.54190200  0.37484300  1
  Mn  Mn1  1  0.37624100  0.20808500  0.87562700  1
  Mn  Mn2  1  0.12813100  0.29265500  0.62573400  1
  Cr  Cr0  1  0.86740400  0.70575200  0.37446800  1
  Cr  Cr1  1  0.88094900  0.03796200  0.37531000  1
  Cr  Cr2  1  0.86866900  0.71210800  0.87425200  1
  Cr  Cr3  1  0.88226300  0.04491400  0.87550800  1
  Cr  Cr4  1  0.62693900  0.78681400  0.12459800  1
  Cr  Cr5  1  0.62528000  0.45189500  0.12462800  1
  Cr  Cr6  1  0.62483300  0.78678900  0.62435200  1
  Cr  Cr7  1  0.62477200  0.45356900  0.62491800  1
  Cr  Cr8  1  0.37206500  0.21245400  0.37527700  1
  Cr  Cr9  1  0.37455000  0.53734800  0.87477800  1
  Cr  Cr10  1  0.11832200  0.96205900  0.12481300  1
  Cr  Cr11  1  0.12968300  0.29768900  0.12624400  1
  Cr  Cr12  1  0.11953600  0.96199500  0.62500100  1
  O  O0  1  0.96805000  0.10725100  0.06964900  1
  O  O1  1  0.91882000  0.78473300  0.06831800  1
  O  O2  1  0.93626500  0.42273400  0.06727200  1
  O  O3  1  0.96617600  0.10784500  0.56944900  1
  O  O4  1  0.82912800  0.96434600  0.18115900  1
  O  O5  1  0.81589200  0.32604200  0.18321800  1
  O  O6  1  0.91952600  0.78576200  0.56835000  1
  O  O7  1  0.93260200  0.42687100  0.56776500  1
  O  O8  1  0.78288500  0.64142000  0.18032100  1
  O  O9  1  0.71855500  0.85203300  0.31857800  1
  O  O10  1  0.82992500  0.96391000  0.68126200  1
  O  O11  1  0.82385800  0.32272800  0.68206700  1
  O  O12  1  0.67576500  0.53360000  0.31864100  1
  O  O13  1  0.67292900  0.17661300  0.31775800  1
  O  O14  1  0.78049700  0.64062800  0.68077700  1
  O  O15  1  0.71746000  0.85661300  0.81886900  1
  O  O16  1  0.46464400  0.60330000  0.06918000  1
  O  O17  1  0.56832300  0.71391000  0.43038900  1
  O  O18  1  0.57602600  0.07400800  0.43221300  1
  O  O19  1  0.66939700  0.53497600  0.81846800  1
  O  O20  1  0.67697400  0.17619300  0.81840000  1
  O  O21  1  0.42419500  0.92767500  0.06744600  1
  O  O22  1  0.43877000  0.28868100  0.06875300  1
  O  O23  1  0.53883600  0.39681200  0.43119400  1
  O  O24  1  0.46640900  0.60504300  0.56878400  1
  O  O25  1  0.57843400  0.71289100  0.93103700  1
  O  O26  1  0.56794800  0.07225800  0.93234900  1
  O  O27  1  0.32572100  0.82432600  0.18195000  1
  O  O28  1  0.31295900  0.46278500  0.18171000  1
  O  O29  1  0.42317000  0.92843900  0.56735900  1
  O  O30  1  0.42917200  0.28723300  0.56938500  1
  O  O31  1  0.53789700  0.39060300  0.93114700  1
  O  O32  1  0.28566700  0.14754000  0.18114700  1
  O  O33  1  0.21391200  0.35813600  0.31930200  1
  O  O34  1  0.32668900  0.82507800  0.68187700  1
  O  O35  1  0.31570900  0.46445300  0.68114500  1
  O  O36  1  0.18138300  0.67779300  0.31775600  1
  O  O37  1  0.16976300  0.03590800  0.31857500  1
  O  O38  1  0.29028200  0.14671600  0.68140200  1
  O  O39  1  0.21258300  0.35494300  0.81946800  1
  O  O40  1  0.07314300  0.57406100  0.43160600  1
  O  O41  1  0.08138600  0.21491900  0.43147500  1
  O  O42  1  0.17223900  0.67712700  0.81749500  1
  O  O43  1  0.18251200  0.03654500  0.81934200  1
  O  O44  1  0.03217800  0.89452000  0.43113400  1
  O  O45  1  0.07865300  0.57414100  0.93224700  1
  O  O46  1  0.07377800  0.21566300  0.93132700  1
  O  O47  1  0.03090300  0.89757400  0.93125900  1
loop_
_geom_bond_atom_site_label_1
_geom_bond_atom_site_label_2
_geom_bond_distance
_geom_bond_site_symmetry_2
Li0 O37 2.039555 1_655
Li0 O32 2.064667 1_655
Li0 O13 2.142864 1_555
Li0 O5 2.152064 1_555
Li0 O4 2.180242 1_545
Li0 O33 2.237408 1_655
Li1 O23 2.070216 1_555
Li1 O12 2.086247 1_555
Li1 O33 2.087493 1_655
Li1 O41 2.107126 1_655
Li1 O13 2.126924 1_555
Li1 O40 2.135903 1_655
Li2 O2 2.042123 1_556
Li2 O26 2.043238 1_555
Li2 O22 2.132640 1_556
Li2 O31 2.143902 1_555
Li2 O46 2.176528 1_655
Li2 O0 2.199791 1_556
Li3 O1 2.041075 1_555
Li3 O47 2.050876 1_654
Li3 O21 2.127850 1_555
Li3 O26 2.135109 1_564
Li3 O25 2.203140 1_554
Li3 O0 2.234476 1_565
Li4 O38 2.052800 1_655
Li4 O43 2.063392 1_655
Li4 O11 2.138242 1_555
Li4 O20 2.162836 1_555
Li4 O39 2.196130 1_655
Li4 O10 2.198607 1_545
Li5 O24 2.046125 1_555
Li5 O17 2.070348 1_555
Li5 O7 2.147237 1_555
Li5 O40 2.147513 1_655
Li5 O23 2.170315 1_555
Li5 O6 2.200501 1_555
Li6 O39 2.075778 1_655
Li6 O31 2.077929 1_555
Li6 O46 2.096244 1_655
Li6 O19 2.098623 1_555
Li6 O20 2.131472 1_555
Li6 O45 2.137901 1_655
Li7 O18 2.036267 1_555
Li7 O7 2.045182 1_555
Li7 O3 2.168066 1_555
Li7 O41 2.187968 1_655
Li7 O30 2.194694 1_555
Li7 O23 2.198476 1_555
Li8 O6 2.038971 1_555
Li8 O44 2.062696 1_655
Li8 O29 2.125742 1_555
Li8 O18 2.131639 1_565
Li8 O3 2.225467 1_565
Li8 O17 2.226470 1_555
Li9 O32 2.082331 1_555
Li9 O4 2.096302 1_545
Li9 O22 2.097364 1_555
Li9 O0 2.102755 1_555
Li9 O21 2.112220 1_545
Li9 O5 2.152516 1_555
Li10 O25 2.038107 1_554
Li10 O16 2.064535 1_555
Li10 O45 2.153605 1_654
Li10 O2 2.172101 1_555
Li10 O1 2.178586 1_555
Li10 O31 2.223476 1_554
Li11 O33 2.060834 1_555
Li11 O28 2.071641 1_555
Li11 O5 2.100240 1_555
Li11 O13 2.118767 1_555
Li11 O12 2.185273 1_555
Li11 O32 2.190007 1_555
Li12 O38 2.062280 1_555
Li12 O3 2.099891 1_555
Li12 O30 2.099945 1_555
Li12 O10 2.102338 1_545
Li12 O29 2.112152 1_545
Li12 O11 2.137600 1_555
Li13 O13 2.030270 1_555
Li13 O27 2.032169 1_545
Li13 O32 2.193450 1_555
Li13 O37 2.200354 1_555
Li13 O4 2.204214 1_545
Li13 O9 2.212495 1_545
Li14 O12 2.062887 1_555
Li14 O8 2.069469 1_555
Li14 O36 2.105920 1_555
Li14 O27 2.142039 1_555
Li14 O9 2.190129 1_555
Li14 O28 2.230066 1_555
Li15 O39 2.062228 1_555
Li15 O35 2.063030 1_555
Li15 O11 2.151258 1_555
Li15 O20 2.155147 1_555
Li15 O38 2.166070 1_555
Li15 O19 2.194530 1_555
Li16 O17 2.077189 1_555
Li16 O44 2.102473 1_555
Li16 O36 2.110274 1_555
Li16 O37 2.110707 1_565
Li16 O9 2.111093 1_555
Li16 O18 2.136911 1_565
Li17 O34 2.028583 1_545
Li17 O20 2.040089 1_555
Li17 O43 2.162868 1_555
Li17 O15 2.179553 1_545
Li17 O38 2.183142 1_555
Li17 O10 2.203080 1_545
Li18 O45 2.029774 1_554
Li18 O21 2.030792 1_555
Li18 O16 2.195365 1_555
Li18 O25 2.200502 1_554
Li18 O1 2.203652 1_455
Li18 O47 2.211523 1_554
Li19 O19 2.040787 1_555
Li19 O14 2.054988 1_555
Li19 O42 2.137450 1_555
Li19 O34 2.146467 1_555
Li19 O35 2.209041 1_555
Li19 O15 2.226880 1_555
Li20 O31 2.059785 1_555
Li20 O22 2.068357 1_556
Li20 O2 2.102887 1_456
Li20 O45 2.123637 1_555
Li20 O16 2.180339 1_556
Li20 O46 2.208435 1_555
Li21 O43 2.080146 1_565
Li21 O15 2.101967 1_555
Li21 O47 2.110496 1_555
Li21 O25 2.111436 1_555
Li21 O26 2.112302 1_565
Li21 O42 2.133142 1_555
Li22 O41 2.048767 1_555
Li22 O3 2.067000 1_455
Li22 O29 2.103731 1_545
Li22 O18 2.139998 1_555
Li22 O44 2.208253 1_545
Li22 O30 2.229205 1_555
Li23 O29 2.031743 1_555
Li23 O40 2.047824 1_555
Li23 O17 2.173401 1_555
Li23 O44 2.183739 1_555
Li23 O24 2.193106 1_555
Li23 O6 2.196397 1_455
Li24 O16 2.081715 1_555
Li24 O8 2.096486 1_455
Li24 O28 2.097200 1_555
Li24 O1 2.099794 1_455
Li24 O27 2.127911 1_555
Li24 O2 2.145257 1_455
Li25 O30 2.059665 1_555
Li25 O23 2.067831 1_555
Li25 O7 2.114774 1_455
Li25 O40 2.147193 1_555
Li25 O24 2.191945 1_555
Li25 O41 2.197727 1_555
Li26 O4 2.046958 1_455
Li26 O9 2.047172 1_455
Li26 O36 2.135829 1_555
Li26 O27 2.139289 1_555
Li26 O37 2.176514 1_565
Li26 O8 2.252216 1_455
Li27 O0 2.065592 1_456
Li27 O46 2.068660 1_555
Li27 O26 2.103683 1_555
Li27 O21 2.111440 1_546
Li27 O47 2.176245 1_545
Li27 O22 2.266512 1_556
Li28 O35 2.079781 1_555
Li28 O24 2.097438 1_555
Li28 O14 2.107764 1_455
Li28 O7 2.108475 1_455
Li28 O6 2.109730 1_455
Li28 O34 2.148020 1_555
Li29 O36 2.038990 1_555
Li29 O5 2.044107 1_455
Li29 O28 2.129937 1_555
Li29 O33 2.160559 1_555
Li29 O12 2.180477 1_455
Li29 O8 2.190971 1_455
Li30 O10 2.045260 1_455
Li30 O15 2.054773 1_455
Li30 O42 2.116111 1_555
Li30 O34 2.146178 1_555
Li30 O43 2.222913 1_565
Li30 O14 2.244597 1_455
Li31 O42 2.026727 1_655
Li31 O11 2.046584 1_555
Li31 O35 2.146921 1_655
Li31 O14 2.163502 1_555
Li31 O39 2.200548 1_655
Li31 O19 2.204174 1_555
Mn0 O23 1.925031 1_555
Mn0 O12 1.928680 1_555
Mn0 O17 1.937699 1_555
Mn0 O36 1.938366 1_555
Mn0 O40 1.940488 1_555
Mn0 O33 1.943832 1_555
Mn1 O26 1.929467 1_555
Mn1 O46 1.929657 1_555
Mn1 O39 1.933560 1_555
Mn1 O31 1.936754 1_555
Mn1 O43 1.941540 1_555
Mn1 O20 1.941569 1_555
Mn2 O38 1.918862 1_555
Mn2 O35 1.922029 1_555
Mn2 O30 1.932662 1_555
Mn2 O7 1.943545 1_455
Mn2 O11 1.944741 1_455
Mn2 O3 1.958335 1_455
Cr0 O9 1.899931 1_555
Cr0 O17 1.918014 1_555
Cr0 O12 1.936765 1_555
Cr0 O40 1.942643 1_655
Cr0 O36 1.988910 1_655
Cr0 O44 1.992523 1_655
Cr1 O44 1.884813 1_645
Cr1 O37 1.889159 1_655
Cr1 O18 1.957432 1_555
Cr1 O9 1.970022 1_545
Cr1 O41 1.989181 1_655
Cr1 O13 1.993913 1_555
Cr2 O15 1.886220 1_555
Cr2 O25 1.896487 1_555
Cr2 O42 1.949425 1_655
Cr2 O47 1.968919 1_655
Cr2 O19 1.984579 1_555
Cr2 O45 1.999761 1_655
Cr3 O47 1.904784 1_645
Cr3 O43 1.925753 1_655
Cr3 O46 1.927875 1_655
Cr3 O20 1.938805 1_555
Cr3 O15 1.989309 1_545
Cr3 O26 1.991628 1_555
Cr4 O1 1.896019 1_555
Cr4 O8 1.904602 1_555
Cr4 O16 1.943654 1_555
Cr4 O27 1.948457 1_555
Cr4 O21 1.990066 1_555
Cr4 O4 1.999888 1_555
Cr5 O22 1.871520 1_555
Cr5 O5 1.891146 1_555
Cr5 O16 1.948936 1_555
Cr5 O8 1.976649 1_555
Cr5 O2 1.984403 1_555
Cr5 O28 1.986177 1_555
Cr6 O6 1.904879 1_555
Cr6 O14 1.917676 1_555
Cr6 O24 1.926007 1_555
Cr6 O34 1.938467 1_555
Cr6 O29 1.990473 1_555
Cr6 O10 2.006973 1_555
Cr7 O30 1.908550 1_555
Cr7 O11 1.921980 1_555
Cr7 O24 1.953531 1_555
Cr7 O14 1.958207 1_555
Cr7 O35 1.962318 1_555
Cr7 O7 1.968042 1_555
Cr8 O41 1.889811 1_555
Cr8 O33 1.913552 1_555
Cr8 O13 1.947858 1_555
Cr8 O23 1.961700 1_555
Cr8 O18 1.975865 1_555
Cr8 O37 1.995249 1_555
Cr9 O19 1.908395 1_555
Cr9 O45 1.927522 1_555
Cr9 O31 1.934802 1_555
Cr9 O39 1.934946 1_555
Cr9 O42 1.984094 1_555
Cr9 O25 1.989442 1_555
Cr10 O4 1.885687 1_455
Cr10 O0 1.886355 1_465
Cr10 O21 1.965818 1_555
Cr10 O32 1.973394 1_565
Cr10 O27 1.982112 1_555
Cr10 O1 1.991832 1_455
Cr11 O28 1.871988 1_555
Cr11 O2 1.897702 1_455
Cr11 O32 1.925754 1_555
Cr11 O22 1.978294 1_555
Cr11 O5 1.991327 1_455
Cr11 O0 1.997085 1_455
Cr12 O10 1.886585 1_455
Cr12 O3 1.900837 1_465
Cr12 O29 1.959369 1_555
Cr12 O34 1.973624 1_555
Cr12 O38 1.975669 1_565
Cr12 O6 1.987565 1_455
