# generated using pymatgen
data_Li2MnSi4O11
_symmetry_space_group_name_H-M   'P 1'
_cell_length_a   8.40620485
_cell_length_b   8.40620485
_cell_length_c   8.40620501
_cell_angle_alpha   102.42461795
_cell_angle_beta   102.42460921
_cell_angle_gamma   124.72862062
_symmetry_Int_Tables_number   1
_chemical_formula_structural   Li2MnSi4O11
_chemical_formula_sum   'Li4 Mn2 Si8 O22'
_cell_volume   432.50340459
_cell_formula_units_Z   2
loop_
 _symmetry_equiv_pos_site_id
 _symmetry_equiv_pos_as_xyz
  1  'x, y, z'
loop_
 _atom_site_type_symbol
 _atom_site_label
 _atom_site_symmetry_multiplicity
 _atom_site_fract_x
 _atom_site_fract_y
 _atom_site_fract_z
 _atom_site_occupancy
  Li  Li0  1  0.65105300  0.61795200  0.26900600  1
  Li  Li1  1  0.38204800  0.65105300  0.03310100  1
  Li  Li2  1  0.61795200  0.34894700  0.96689900  1
  Li  Li3  1  0.34894700  0.38204800  0.73099400  1
  Mn  Mn0  1  0.24373600  0.24373600  0.00000000  1
  Mn  Mn1  1  0.75626400  0.75626400  0.00000000  1
  Si  Si0  1  0.49697600  0.17621700  0.28578000  1
  Si  Si1  1  0.10956300  0.78880500  0.28578000  1
  Si  Si2  1  0.17621700  0.89043700  0.67924200  1
  Si  Si3  1  0.78880500  0.50302400  0.67924200  1
  Si  Si4  1  0.82378300  0.10956300  0.32075800  1
  Si  Si5  1  0.21119500  0.49697600  0.32075800  1
  Si  Si6  1  0.50302400  0.82378300  0.71422000  1
  Si  Si7  1  0.89043700  0.21119500  0.71422000  1
  O  O0  1  0.00000000  0.00000000  0.00000000  1
  O  O1  1  0.50000000  0.50000000  0.00000000  1
  O  O2  1  0.44822900  0.21103900  0.10548100  1
  O  O3  1  0.89444200  0.65725200  0.10548100  1
  O  O4  1  0.28952100  0.03868300  0.32820400  1
  O  O5  1  0.67530600  0.40978300  0.45910200  1
  O  O6  1  0.04931900  0.78379500  0.45910200  1
  O  O7  1  0.59021700  0.04931900  0.26552400  1
  O  O8  1  0.21620500  0.67530600  0.26552400  1
  O  O9  1  0.21103900  0.10555800  0.76281000  1
  O  O10  1  0.65725200  0.55177100  0.76281000  1
  O  O11  1  0.96131700  0.28952100  0.25083800  1
  O  O12  1  0.03868300  0.71047900  0.74916200  1
  O  O13  1  0.78896100  0.89444200  0.23719000  1
  O  O14  1  0.34274800  0.44822900  0.23719000  1
  O  O15  1  0.78379500  0.32469400  0.73447600  1
  O  O16  1  0.40978300  0.95068100  0.73447600  1
  O  O17  1  0.95068100  0.21620500  0.54089800  1
  O  O18  1  0.32469400  0.59021700  0.54089800  1
  O  O19  1  0.71047900  0.96131700  0.67179600  1
  O  O20  1  0.10555800  0.34274800  0.89451900  1
  O  O21  1  0.55177100  0.78896100  0.89451900  1
loop_
_geom_bond_atom_site_label_1
_geom_bond_atom_site_label_2
_geom_bond_distance
_geom_bond_site_symmetry_2
Li0 O1 2.018446 1_555
Li0 O14 2.036764 1_555
Li0 O13 2.036770 1_555
Li1 O1 2.018438 1_555
Li1 O21 2.036766 1_554
Li1 O20 2.036766 1_554
Li2 O1 2.018438 1_556
Li2 O2 2.036766 1_556
Li2 O3 2.036766 1_556
Li3 O1 2.018446 1_556
Li3 O10 2.036764 1_555
Li3 O9 2.036770 1_555
Mn0 O0 1.900751 1_555
Mn0 O9 1.950407 1_554
Mn0 O20 1.950407 1_554
Mn0 O2 1.950407 1_555
Mn0 O14 1.950407 1_555
Mn0 O1 1.998450 1_555
Mn1 O0 1.900751 1_665
Mn1 O13 1.950407 1_555
Mn1 O3 1.950407 1_555
Mn1 O21 1.950407 1_554
Mn1 O10 1.950407 1_554
Mn1 O1 1.998450 1_555
O2 Si0 1.615879 1_555
O3 Si1 1.615878 1_655
O4 Si1 1.628759 1_545
O4 Si0 1.628765 1_555
O5 Si0 1.643361 1_555
O5 Si3 1.647178 1_555
O6 Si1 1.643361 1_555
O6 Si2 1.647177 1_555
O7 Si4 1.643362 1_555
O7 Si0 1.647170 1_555
O8 Si5 1.643345 1_555
O8 Si1 1.647184 1_555
O9 Si2 1.615877 1_545
O10 Si3 1.615882 1_555
O11 Si4 1.628759 1_555
O11 Si5 1.628762 1_655
O12 Si2 1.628759 1_555
O12 Si3 1.628762 1_455
O13 Si4 1.615877 1_565
O14 Si5 1.615882 1_555
O15 Si3 1.643345 1_555
O15 Si7 1.647184 1_555
O16 Si2 1.643362 1_555
O16 Si6 1.647170 1_555
O17 Si7 1.643361 1_555
O17 Si4 1.647177 1_555
O18 Si6 1.643361 1_555
O18 Si5 1.647178 1_555
O19 Si7 1.628759 1_565
O19 Si6 1.628765 1_555
O20 Si7 1.615878 1_455
O21 Si6 1.615879 1_555
