# generated using pymatgen
data_Li8Co3NiO8
_symmetry_space_group_name_H-M   'P 1'
_cell_length_a   5.33016800
_cell_length_b   5.37879700
_cell_length_c   7.02039320
_cell_angle_alpha   89.85261021
_cell_angle_beta   89.82979511
_cell_angle_gamma   89.99862587
_symmetry_Int_Tables_number   1
_chemical_formula_structural   Li8Co3NiO8
_chemical_formula_sum   'Li8 Co3 Ni1 O8'
_cell_volume   201.27235846
_cell_formula_units_Z   1
loop_
 _symmetry_equiv_pos_site_id
 _symmetry_equiv_pos_as_xyz
  1  'x, y, z'
loop_
 _atom_site_type_symbol
 _atom_site_label
 _atom_site_symmetry_multiplicity
 _atom_site_fract_x
 _atom_site_fract_y
 _atom_site_fract_z
 _atom_site_occupancy
  Li  Li0  1  0.81024400  0.03267300  0.59386100  1
  Li  Li1  1  0.65235900  0.28333300  0.25759700  1
  Li  Li2  1  0.14976700  0.21625600  0.75174300  1
  Li  Li3  1  0.31382900  0.46668700  0.09178500  1
  Li  Li4  1  0.81550700  0.55104300  0.90542300  1
  Li  Li5  1  0.65799400  0.78100700  0.24128400  1
  Li  Li6  1  0.15577300  0.72231900  0.74188600  1
  Li  Li7  1  0.31807300  0.94854600  0.40561900  1
  Co  Co0  1  0.05299800  0.05127300  0.11259200  1
  Co  Co1  1  0.55019100  0.44964000  0.61215500  1
  Co  Co2  1  0.05103000  0.54654200  0.38848600  1
  Ni  Ni0  1  0.54859900  0.95883200  0.89087000  1
  O  O0  1  0.43315700  0.05688200  0.14388400  1
  O  O1  1  0.45032300  0.08870700  0.63400900  1
  O  O2  1  0.95019600  0.41059000  0.13639600  1
  O  O3  1  0.93105500  0.44284100  0.63942800  1
  O  O4  1  0.43163200  0.56000000  0.36043500  1
  O  O5  1  0.45233700  0.59589200  0.86017900  1
  O  O6  1  0.95240600  0.90714800  0.36322400  1
  O  O7  1  0.92871000  0.93951400  0.86331000  1
loop_
_geom_bond_atom_site_label_1
_geom_bond_atom_site_label_2
_geom_bond_distance
_geom_bond_site_symmetry_2
Li0 O6 1.910507 1_545
Li0 O1 1.961603 1_555
Li0 O7 2.056770 1_545
Li0 O3 2.321483 1_555
Li1 O0 1.869930 1_555
Li1 O2 1.924000 1_555
Li1 O4 2.029866 1_555
Li2 O3 1.861870 1_455
Li2 O1 1.927509 1_555
Li2 O7 2.050889 1_445
Li3 O5 1.912816 1_554
Li3 O2 1.985392 1_455
Li3 O4 2.053098 1_555
Li3 O0 2.322551 1_555
Li4 O2 1.927707 1_556
Li4 O5 1.977239 1_555
Li4 O3 2.050348 1_555
Li4 O7 2.193935 1_555
Li5 O4 1.886148 1_555
Li5 O6 1.914891 1_555
Li5 O0 2.026135 1_565
Li6 O7 1.885518 1_455
Li6 O5 1.911981 1_555
Li6 O3 2.054901 1_455
Li7 O1 1.910256 1_565
Li7 O6 1.985154 1_455
Li7 O0 2.019900 1_565
Li7 O4 2.199302 1_555
Co0 O7 1.968566 1_444
Co0 O6 1.992939 1_445
Co0 O2 2.016072 1_455
Co0 O0 2.039066 1_555
Co1 O4 1.968714 1_555
Co1 O5 1.981004 1_555
Co1 O1 2.018392 1_555
Co1 O3 2.039963 1_555
Co2 O3 1.952425 1_455
Co2 O2 1.991989 1_455
Co2 O6 2.017097 1_455
Co2 O4 2.038895 1_555
Ni0 O0 1.951965 1_566
Ni0 O1 2.003316 1_565
Ni0 O5 2.030657 1_555
Ni0 O7 2.037375 1_555
