# generated using pymatgen
data_Li2CoNi3O8
_symmetry_space_group_name_H-M   'P 1'
_cell_length_a   8.20923445
_cell_length_b   8.09635601
_cell_length_c   8.14900039
_cell_angle_alpha   90.04238601
_cell_angle_beta   90.05684779
_cell_angle_gamma   89.81740195
_symmetry_Int_Tables_number   1
_chemical_formula_structural   Li2CoNi3O8
_chemical_formula_sum   'Li8 Co4 Ni12 O32'
_cell_volume   541.61920734
_cell_formula_units_Z   4
loop_
 _symmetry_equiv_pos_site_id
 _symmetry_equiv_pos_as_xyz
  1  'x, y, z'
loop_
 _atom_site_type_symbol
 _atom_site_label
 _atom_site_symmetry_multiplicity
 _atom_site_fract_x
 _atom_site_fract_y
 _atom_site_fract_z
 _atom_site_occupancy
  Li  Li0  1  0.99928100  0.00075400  0.99807400  1
  Li  Li1  1  0.25003100  0.24903300  0.25230500  1
  Li  Li2  1  0.24807300  0.74831000  0.74784100  1
  Li  Li3  1  0.49913100  0.00107700  0.49800800  1
  Li  Li4  1  0.50252700  0.49935400  0.00135700  1
  Li  Li5  1  0.75038100  0.24927200  0.75314500  1
  Li  Li6  1  0.74781700  0.75042200  0.24886900  1
  Li  Li7  1  0.00270100  0.50160900  0.50093000  1
  Co  Co0  1  0.12372700  0.87466400  0.37462300  1
  Co  Co1  1  0.37478600  0.12501000  0.87506000  1
  Co  Co2  1  0.62501300  0.62518900  0.62441900  1
  Co  Co3  1  0.87702600  0.37509600  0.12635000  1
  Ni  Ni0  1  0.12613200  0.12357000  0.62454900  1
  Ni  Ni1  1  0.12567900  0.37470200  0.87745900  1
  Ni  Ni2  1  0.12342200  0.62488400  0.12713300  1
  Ni  Ni3  1  0.37706100  0.37493100  0.62682600  1
  Ni  Ni4  1  0.37544200  0.62612500  0.37566300  1
  Ni  Ni5  1  0.37202400  0.87642400  0.12362800  1
  Ni  Ni6  1  0.62826000  0.37610000  0.37580900  1
  Ni  Ni7  1  0.62537000  0.12604800  0.12346000  1
  Ni  Ni8  1  0.62258300  0.87455100  0.87239900  1
  Ni  Ni9  1  0.87668100  0.12500000  0.37314600  1
  Ni  Ni10  1  0.87375100  0.87371200  0.62286700  1
  Ni  Ni11  1  0.87287100  0.62401100  0.87577100  1
  O  O0  1  0.10906500  0.10938200  0.38712000  1
  O  O1  1  0.11602200  0.88950500  0.60851900  1
  O  O2  1  0.11022500  0.60955500  0.89210700  1
  O  O3  1  0.14093900  0.14053800  0.86277500  1
  O  O4  1  0.11010700  0.39054600  0.11593500  1
  O  O5  1  0.14271200  0.35953000  0.63755800  1
  O  O6  1  0.13298300  0.64082300  0.35872800  1
  O  O7  1  0.13642900  0.86009000  0.13925600  1
  O  O8  1  0.36243100  0.13898100  0.64078600  1
  O  O9  1  0.36785700  0.36000500  0.85973400  1
  O  O10  1  0.35831200  0.64083900  0.13775900  1
  O  O11  1  0.39184800  0.61121800  0.61200400  1
  O  O12  1  0.35754100  0.86159800  0.36211900  1
  O  O13  1  0.39134600  0.38959200  0.39122100  1
  O  O14  1  0.37976100  0.10909300  0.10794300  1
  O  O15  1  0.38898500  0.88974600  0.88522900  1
  O  O16  1  0.61151200  0.39022900  0.61415400  1
  O  O17  1  0.61838100  0.60863100  0.39070700  1
  O  O18  1  0.60822400  0.88938500  0.10786100  1
  O  O19  1  0.64336300  0.36145400  0.13760000  1
  O  O20  1  0.60725700  0.10975800  0.88602000  1
  O  O21  1  0.64359800  0.14095700  0.36260000  1
  O  O22  1  0.63143000  0.85984900  0.64041200  1
  O  O23  1  0.63723400  0.63989300  0.85921600  1
  O  O24  1  0.86390500  0.36021700  0.36112700  1
  O  O25  1  0.87031900  0.14110300  0.14186100  1
  O  O26  1  0.85643300  0.85987200  0.86176200  1
  O  O27  1  0.89059700  0.88971600  0.38535700  1
  O  O28  1  0.85815700  0.63978600  0.63503300  1
  O  O29  1  0.88867400  0.10920100  0.60892400  1
  O  O30  1  0.88390700  0.38986100  0.89283800  1
  O  O31  1  0.89067300  0.60933900  0.11618200  1
loop_
_geom_bond_atom_site_label_1
_geom_bond_atom_site_label_2
_geom_bond_distance
_geom_bond_site_symmetry_2
Li0 O25 1.943648 1_556
Li0 O3 1.965091 1_655
Li0 O7 1.969632 1_646
Li0 O26 1.978423 1_545
Li1 O14 1.947984 1_555
Li1 O0 1.958879 1_555
Li1 O4 1.964195 1_555
Li1 O13 1.981482 1_555
Li2 O1 1.939724 1_555
Li2 O11 1.960300 1_555
Li2 O15 1.976576 1_555
Li2 O2 1.984292 1_555
Li3 O22 1.955808 1_545
Li3 O8 1.962744 1_555
Li3 O12 1.963800 1_545
Li3 O21 1.979821 1_555
Li4 O19 1.951139 1_555
Li4 O9 1.957166 1_554
Li4 O23 1.967685 1_554
Li4 O10 1.985299 1_555
Li5 O30 1.948484 1_555
Li5 O20 1.960005 1_555
Li5 O16 1.968748 1_555
Li5 O29 1.987124 1_555
Li6 O17 1.948095 1_555
Li6 O31 1.959938 1_555
Li6 O27 1.971494 1_555
Li6 O18 1.972434 1_555
Li7 O6 1.941437 1_555
Li7 O28 1.961146 1_455
Li7 O5 1.968469 1_555
Li7 O24 1.977483 1_455
Co0 O6 1.898875 1_555
Co0 O0 1.906439 1_565
Co0 O1 1.910811 1_555
Co0 O27 1.919384 1_455
Co0 O7 1.924455 1_555
Co0 O12 1.924806 1_555
Co1 O14 1.902618 1_556
Co1 O9 1.907454 1_555
Co1 O15 1.909828 1_545
Co1 O20 1.914008 1_555
Co1 O8 1.915099 1_555
Co1 O3 1.925927 1_555
Co2 O22 1.905152 1_555
Co2 O16 1.907667 1_555
Co2 O17 1.909867 1_555
Co2 O23 1.919517 1_555
Co2 O28 1.919815 1_555
Co2 O11 1.920367 1_555
Co3 O25 1.899773 1_555
Co3 O31 1.902049 1_555
Co3 O30 1.907633 1_554
Co3 O4 1.919864 1_655
Co3 O24 1.920227 1_555
Co3 O19 1.924003 1_555
Ni0 O1 1.901544 1_545
Ni0 O5 1.918537 1_555
Ni0 O0 1.943077 1_555
Ni0 O8 1.948600 1_555
Ni0 O3 1.949757 1_555
Ni0 O29 1.957201 1_455
Ni1 O3 1.903296 1_555
Ni1 O2 1.908933 1_555
Ni1 O4 1.951766 1_556
Ni1 O5 1.963813 1_555
Ni1 O30 1.992228 1_455
Ni1 O9 1.996643 1_555
Ni2 O6 1.893146 1_555
Ni2 O4 1.902894 1_555
Ni2 O7 1.910120 1_555
Ni2 O31 1.917217 1_455
Ni2 O2 1.922123 1_554
Ni2 O10 1.934848 1_555
Ni3 O9 1.903490 1_555
Ni3 O8 1.917957 1_555
Ni3 O11 1.921194 1_555
Ni3 O13 1.927409 1_555
Ni3 O5 1.930332 1_555
Ni3 O16 1.931907 1_555
Ni4 O12 1.914918 1_555
Ni4 O13 1.923354 1_555
Ni4 O11 1.934344 1_555
Ni4 O10 1.947342 1_555
Ni4 O6 1.998219 1_555
Ni4 O17 2.002557 1_555
Ni5 O14 1.889471 1_565
Ni5 O10 1.914615 1_555
Ni5 O7 1.943301 1_555
Ni5 O18 1.946570 1_555
Ni5 O15 1.950923 1_554
Ni5 O12 1.951022 1_555
Ni6 O17 1.887964 1_555
Ni6 O21 1.910523 1_555
Ni6 O24 1.942127 1_555
Ni6 O19 1.948743 1_555
Ni6 O16 1.950517 1_555
Ni6 O13 1.951764 1_555
Ni7 O19 1.915490 1_555
Ni7 O18 1.925815 1_545
Ni7 O20 1.944869 1_554
Ni7 O21 1.958005 1_555
Ni7 O25 2.020340 1_555
Ni7 O14 2.025186 1_555
Ni8 O22 1.895567 1_555
Ni8 O23 1.906252 1_555
Ni8 O20 1.911222 1_565
Ni8 O15 1.924153 1_555
Ni8 O26 1.925061 1_555
Ni8 O18 1.926150 1_556
Ni9 O25 1.890000 1_555
Ni9 O24 1.909533 1_555
Ni9 O27 1.910663 1_545
Ni9 O0 1.914761 1_655
Ni9 O21 1.919223 1_555
Ni9 O29 1.928100 1_555
Ni10 O28 1.901343 1_555
Ni10 O29 1.914390 1_565
Ni10 O27 1.944986 1_555
Ni10 O26 1.955402 1_555
Ni10 O1 1.996919 1_655
Ni10 O22 1.998060 1_555
Ni11 O30 1.902823 1_555
Ni11 O26 1.917425 1_555
Ni11 O23 1.942822 1_555
Ni11 O2 1.956043 1_655
Ni11 O31 1.968056 1_556
Ni11 O28 1.969584 1_555
