# generated using pymatgen
data_Li5Cr2Fe3(PO4)6
_symmetry_space_group_name_H-M   'P 1'
_cell_length_a   8.43117600
_cell_length_b   8.60434314
_cell_length_c   8.81815754
_cell_angle_alpha   60.94257976
_cell_angle_beta   61.57223961
_cell_angle_gamma   62.22003478
_symmetry_Int_Tables_number   1
_chemical_formula_structural   Li5Cr2Fe3(PO4)6
_chemical_formula_sum   'Li5 Cr2 Fe3 P6 O24'
_cell_volume   468.24981474
_cell_formula_units_Z   1
loop_
 _symmetry_equiv_pos_site_id
 _symmetry_equiv_pos_as_xyz
  1  'x, y, z'
loop_
 _atom_site_type_symbol
 _atom_site_label
 _atom_site_symmetry_multiplicity
 _atom_site_fract_x
 _atom_site_fract_y
 _atom_site_fract_z
 _atom_site_occupancy
  Li  Li0  1  0.24632000  0.64372400  0.85680700  1
  Li  Li1  1  0.80547900  0.33015400  0.15002200  1
  Li  Li2  1  0.33653100  0.14782300  0.81896200  1
  Li  Li3  1  0.14257500  0.81485600  0.32992100  1
  Li  Li4  1  0.15372900  0.16037900  0.16927600  1
  Cr  Cr0  1  0.99457000  0.00465600  0.00257900  1
  Cr  Cr1  1  0.50599300  0.50127700  0.49432900  1
  Fe  Fe0  1  0.85252100  0.85958800  0.85038600  1
  Fe  Fe1  1  0.64793400  0.64455500  0.64322800  1
  Fe  Fe2  1  0.35516200  0.34412100  0.34421200  1
  P  P0  1  0.94334200  0.54714100  0.24976900  1
  P  P1  1  0.55490200  0.24189100  0.95230800  1
  P  P2  1  0.24832800  0.94293600  0.54491700  1
  P  P3  1  0.74472800  0.04491100  0.46141500  1
  P  P4  1  0.44603100  0.74234100  0.03427000  1
  P  P5  1  0.05225800  0.46404900  0.74595100  1
  O  O0  1  0.89615800  0.53391700  0.66638300  1
  O  O1  1  0.66100800  0.89550200  0.51360400  1
  O  O2  1  0.94838900  0.73785800  0.08460400  1
  O  O3  1  0.47027800  0.67476500  0.89007200  1
  O  O4  1  0.96250000  0.40001700  0.18972300  1
  O  O5  1  0.74833100  0.57688200  0.40716600  1
  O  O6  1  0.75355100  0.08695300  0.93337100  1
  O  O7  1  0.56953900  0.40965100  0.76745600  1
  O  O8  1  0.80361500  0.01061400  0.61708900  1
  O  O9  1  0.40344600  0.74343100  0.58109200  1
  O  O10  1  0.90705600  0.05088600  0.27556000  1
  O  O11  1  0.61468300  0.80244100  0.98254600  1
  O  O12  1  0.39982800  0.17704200  0.98218900  1
  O  O13  1  0.09720700  0.92152000  0.74141500  1
  O  O14  1  0.59596100  0.24803100  0.42389300  1
  O  O15  1  0.18794400  0.96555700  0.39801400  1
  O  O16  1  0.42468500  0.59103400  0.23046000  1
  O  O17  1  0.25469900  0.90554700  0.05074300  1
  O  O18  1  0.25511400  0.42789700  0.59751900  1
  O  O19  1  0.03409200  0.61032100  0.81092100  1
  O  O20  1  0.51641200  0.29854300  0.11165200  1
  O  O21  1  0.04738700  0.27160900  0.90290200  1
  O  O22  1  0.31049100  0.10598600  0.50126100  1
  O  O23  1  0.10722400  0.49659200  0.31501100  1
loop_
_geom_bond_atom_site_label_1
_geom_bond_atom_site_label_2
_geom_bond_distance
_geom_bond_site_symmetry_2
Li0 O9 2.090190 1_555
Li0 O13 2.093687 1_555
Li0 O19 2.174793 1_555
Li0 O3 2.190059 1_555
Li0 O2 2.424997 1_456
Li0 O7 2.546460 1_555
Li1 O4 1.903698 1_555
Li1 O10 2.033078 1_555
Li1 O14 2.212755 1_555
Li1 O21 2.244822 1_654
Li2 O12 1.904651 1_555
Li2 O21 2.062214 1_555
Li2 O17 2.204191 1_546
Li2 O18 2.292354 1_555
Li3 O15 1.904098 1_555
Li3 O17 2.041813 1_555
Li3 O10 2.121033 1_465
Li3 O16 2.349494 1_555
Li4 O15 1.944364 1_545
Li4 O12 1.958547 1_554
Li4 O4 1.966978 1_455
Li4 O10 2.281273 1_455
Li4 O21 2.501772 1_554
Li4 O17 2.502819 1_545
Cr0 O6 2.103058 1_554
Cr0 O17 2.123524 1_645
Cr0 O21 2.206022 1_654
Cr0 O2 2.212869 1_545
Cr0 O10 2.337237 1_555
Cr0 O13 2.385384 1_644
Cr1 O5 2.108716 1_555
Cr1 O18 2.134253 1_555
Cr1 O9 2.216670 1_555
Cr1 O14 2.243803 1_555
Cr1 O7 2.387416 1_555
Cr1 O16 2.400037 1_555
Fe0 O11 1.938678 1_555
Fe0 O8 1.949949 1_565
Fe0 O13 2.025635 1_655
Fe0 O19 2.054731 1_655
Fe0 O6 2.084839 1_565
Fe0 O2 2.171418 1_556
Fe1 O1 1.919753 1_555
Fe1 O0 1.920610 1_555
Fe1 O7 2.031576 1_555
Fe1 O3 2.032646 1_555
Fe1 O9 2.064192 1_555
Fe1 O5 2.104536 1_555
Fe2 O22 1.929896 1_555
Fe2 O23 1.945561 1_555
Fe2 O20 1.958930 1_555
Fe2 O16 2.096263 1_555
Fe2 O14 2.127973 1_555
Fe2 O18 2.328923 1_555
O0 P5 1.522431 1_655
O1 P3 1.524662 1_565
O2 P0 1.581266 1_555
O3 P4 1.535129 1_556
O4 P0 1.512627 1_555
O5 P0 1.573303 1_555
O6 P1 1.574451 1_555
O7 P1 1.563603 1_555
O8 P3 1.528685 1_555
O9 P2 1.591068 1_555
O10 P3 1.552386 1_555
O11 P4 1.528453 1_556
O12 P1 1.516389 1_555
O13 P2 1.570505 1_555
O14 P3 1.589722 1_555
O15 P2 1.505257 1_555
O16 P4 1.566673 1_555
O17 P4 1.568051 1_555
O18 P5 1.582189 1_555
O19 P5 1.540417 1_555
O20 P1 1.549519 1_554
O21 P5 1.562730 1_555
O22 P2 1.536166 1_545
O23 P0 1.543662 1_455
