# generated using pymatgen
data_Li9Co15O28
_symmetry_space_group_name_H-M   'P 1'
_cell_length_a   8.25661108
_cell_length_b   8.67027760
_cell_length_c   7.84697980
_cell_angle_alpha   104.24673700
_cell_angle_beta   75.68877006
_cell_angle_gamma   74.65304273
_symmetry_Int_Tables_number   1
_chemical_formula_structural   Li9Co15O28
_chemical_formula_sum   'Li9 Co15 O28'
_cell_volume   494.87139014
_cell_formula_units_Z   1
loop_
 _symmetry_equiv_pos_site_id
 _symmetry_equiv_pos_as_xyz
  1  'x, y, z'
loop_
 _atom_site_type_symbol
 _atom_site_label
 _atom_site_symmetry_multiplicity
 _atom_site_fract_x
 _atom_site_fract_y
 _atom_site_fract_z
 _atom_site_occupancy
  Li  Li0  1  0.00000000  0.50000000  0.50000000  1
  Li  Li1  1  0.14411167  0.64393055  0.78417280  1
  Li  Li2  1  0.28600655  0.28583699  0.56500827  1
  Li  Li3  1  0.58405094  0.07286672  0.65814264  1
  Li  Li4  1  0.43224222  0.43169315  0.86511774  1
  Li  Li5  1  0.56775778  0.56830685  0.13488226  1
  Li  Li6  1  0.41594906  0.92713328  0.34185736  1
  Li  Li7  1  0.71399345  0.71416301  0.43499173  1
  Li  Li8  1  0.85588833  0.35606945  0.21582720  1
  Co  Co0  1  0.00000000  0.00000000  0.00000000  1
  Co  Co1  1  0.06579460  0.07846867  0.64231587  1
  Co  Co2  1  0.07407899  0.56747637  0.13395144  1
  Co  Co3  1  0.21633626  0.21489012  0.92668081  1
  Co  Co4  1  0.50000000  0.00000000  0.00000000  1
  Co  Co5  1  0.35836922  0.35405137  0.21092906  1
  Co  Co6  1  0.21641289  0.70776967  0.42539979  1
  Co  Co7  1  0.63860040  0.14430611  0.28795139  1
  Co  Co8  1  0.50000000  0.50000000  0.50000000  1
  Co  Co9  1  0.36139960  0.85569389  0.71204861  1
  Co  Co10  1  0.78358711  0.29223033  0.57460021  1
  Co  Co11  1  0.64163078  0.64594863  0.78907094  1
  Co  Co12  1  0.78366374  0.78510988  0.07331919  1
  Co  Co13  1  0.92592101  0.43252363  0.86604856  1
  Co  Co14  1  0.93420540  0.92153133  0.35768413  1
  O  O0  1  0.02319276  0.29738164  0.60698077  1
  O  O1  1  0.01389527  0.77623590  0.07251922  1
  O  O2  1  0.12444815  0.35814402  0.18255004  1
  O  O3  1  0.25958290  0.00454789  0.97147399  1
  O  O4  1  0.16174218  0.42489515  0.87577089  1
  O  O5  1  0.31235185  0.07822001  0.66774109  1
  O  O6  1  0.16944952  0.91872052  0.38142566  1
  O  O7  1  0.30821555  0.55334562  0.15019571  1
  O  O8  1  0.12728793  0.86944863  0.71521351  1
  O  O9  1  0.25854018  0.51014962  0.50102320  1
  O  O10  1  0.41197042  0.15194613  0.27508142  1
  O  O11  1  0.44632680  0.20366415  0.92883621  1
  O  O12  1  0.58428904  0.36535244  0.24374685  1
  O  O13  1  0.45804049  0.71171601  0.44791118  1
  O  O14  1  0.54195951  0.28828399  0.55208882  1
  O  O15  1  0.41571096  0.63464756  0.75625315  1
  O  O16  1  0.55367320  0.79633585  0.07116379  1
  O  O17  1  0.58802958  0.84805387  0.72491858  1
  O  O18  1  0.74145982  0.48985038  0.49897680  1
  O  O19  1  0.87271207  0.13055137  0.28478649  1
  O  O20  1  0.69178445  0.44665438  0.84980429  1
  O  O21  1  0.83055048  0.08127948  0.61857434  1
  O  O22  1  0.68764815  0.92177999  0.33225891  1
  O  O23  1  0.83825782  0.57510485  0.12422911  1
  O  O24  1  0.74041710  0.99545211  0.02852601  1
  O  O25  1  0.87555185  0.64185598  0.81744996  1
  O  O26  1  0.98610473  0.22376410  0.92748078  1
  O  O27  1  0.97680724  0.70261836  0.39301923  1
loop_
_geom_bond_atom_site_label_1
_geom_bond_atom_site_label_2
_geom_bond_distance
_geom_bond_site_symmetry_2
Li0 O27 2.110654 1_455
Li0 O0 2.110654 1_555
Li0 O9 2.161519 1_555
Li0 O18 2.161519 1_455
Li0 O25 2.308980 1_455
Li0 O2 2.308980 1_555
Li1 O9 2.070841 1_555
Li1 O1 2.111493 1_556
Li1 O8 2.132953 1_555
Li1 O4 2.172933 1_555
Li1 O25 2.173135 1_455
Li1 O15 2.176266 1_555
Li2 O0 2.083905 1_555
Li2 O9 2.095097 1_555
Li2 O14 2.096582 1_555
Li2 O10 2.120470 1_555
Li2 O5 2.128662 1_555
Li2 O4 2.261425 1_555
Li3 O21 2.005315 1_555
Li3 O11 2.007160 1_555
Li3 O17 2.133614 1_545
Li3 O14 2.205941 1_555
Li3 O5 2.213575 1_555
Li3 O22 2.379849 1_545
Li4 O7 2.073588 1_556
Li4 O15 2.124904 1_555
Li4 O11 2.136807 1_555
Li4 O20 2.156609 1_555
Li4 O4 2.231233 1_555
Li4 O14 2.280499 1_555
Li5 O20 2.073588 1_554
Li5 O12 2.124904 1_555
Li5 O16 2.136807 1_555
Li5 O7 2.156609 1_555
Li5 O23 2.231233 1_555
Li5 O13 2.280499 1_555
Li6 O6 2.005315 1_555
Li6 O16 2.007160 1_555
Li6 O10 2.133614 1_565
Li6 O13 2.205941 1_555
Li6 O22 2.213575 1_555
Li6 O5 2.379849 1_565
Li7 O27 2.083905 1_555
Li7 O18 2.095097 1_555
Li7 O13 2.096582 1_555
Li7 O17 2.120470 1_555
Li7 O22 2.128662 1_555
Li7 O23 2.261425 1_555
Li8 O18 2.070841 1_555
Li8 O26 2.111493 1_554
Li8 O19 2.132953 1_555
Li8 O23 2.172933 1_555
Li8 O2 2.173135 1_655
Li8 O12 2.176266 1_555
Co0 O19 2.084204 1_455
Co0 O8 2.084204 1_544
Co0 O24 2.111205 1_445
Co0 O3 2.111205 1_554
Co0 O26 2.135139 1_454
Co0 O1 2.135139 1_545
Co1 O0 1.938299 1_555
Co1 O6 1.988119 1_545
Co1 O21 1.990974 1_455
Co1 O8 2.008996 1_545
Co1 O5 2.093484 1_555
Co1 O26 2.114953 1_455
Co2 O2 1.905790 1_555
Co2 O27 1.916491 1_455
Co2 O4 1.930095 1_554
Co2 O7 1.942309 1_555
Co2 O23 1.951687 1_455
Co2 O1 1.956325 1_555
Co3 O11 1.880052 1_555
Co3 O26 1.880411 1_455
Co3 O3 1.899969 1_555
Co3 O2 1.915788 1_556
Co3 O5 1.918996 1_555
Co3 O4 1.921119 1_555
Co4 O11 1.954437 1_554
Co4 O16 1.954437 1_545
Co4 O3 2.043181 1_554
Co4 O24 2.043181 1_545
Co4 O10 2.059391 1_555
Co4 O17 2.059391 1_544
Co5 O7 1.873098 1_555
Co5 O10 1.911460 1_555
Co5 O12 1.969058 1_555
Co5 O2 1.990322 1_555
Co5 O11 2.100211 1_554
Co5 O9 2.158349 1_555
Co6 O6 1.901593 1_555
Co6 O9 1.922489 1_555
Co6 O13 2.054235 1_555
Co6 O7 2.064258 1_555
Co6 O27 2.066408 1_455
Co6 O8 2.176218 1_555
Co7 O10 1.883366 1_555
Co7 O19 1.898420 1_555
Co7 O24 1.950123 1_545
Co7 O14 1.967903 1_555
Co7 O12 1.985874 1_555
Co7 O22 1.998379 1_545
Co8 O12 1.900863 1_555
Co8 O15 1.900863 1_555
Co8 O13 1.938899 1_555
Co8 O14 1.938899 1_555
Co8 O18 1.970097 1_555
Co8 O9 1.970097 1_555
Co9 O17 1.883366 1_555
Co9 O8 1.898420 1_555
Co9 O3 1.950123 1_565
Co9 O13 1.967903 1_555
Co9 O15 1.985874 1_555
Co9 O5 1.998379 1_565
Co10 O21 1.901593 1_555
Co10 O18 1.922489 1_555
Co10 O14 2.054235 1_555
Co10 O20 2.064258 1_555
Co10 O0 2.066408 1_655
Co10 O19 2.176218 1_555
Co11 O20 1.873098 1_555
Co11 O17 1.911460 1_555
Co11 O15 1.969058 1_555
Co11 O25 1.990322 1_555
Co11 O16 2.100211 1_556
Co11 O18 2.158349 1_555
Co12 O16 1.880052 1_555
Co12 O1 1.880411 1_655
Co12 O24 1.899969 1_555
Co12 O25 1.915788 1_554
Co12 O22 1.918996 1_555
Co12 O23 1.921119 1_555
Co13 O25 1.905790 1_555
Co13 O0 1.916491 1_655
Co13 O23 1.930095 1_556
Co13 O20 1.942309 1_555
Co13 O4 1.951687 1_655
Co13 O26 1.956325 1_555
Co14 O27 1.938299 1_555
Co14 O21 1.988119 1_565
Co14 O6 1.990974 1_655
Co14 O19 2.008996 1_565
Co14 O22 2.093484 1_555
Co14 O1 2.114953 1_655
