# generated using pymatgen
data_Na4TeMo6H40(NO20)2
_symmetry_space_group_name_H-M   'P 1'
_cell_length_a   10.90948100
_cell_length_b   11.41878376
_cell_length_c   11.48613629
_cell_angle_alpha   99.28792625
_cell_angle_beta   108.86068947
_cell_angle_gamma   117.45437819
_symmetry_Int_Tables_number   1
_chemical_formula_structural   Na4TeMo6H40(NO20)2
_chemical_formula_sum   'Na4 Te1 Mo6 H40 N2 O40'
_cell_volume   1116.42138831
_cell_formula_units_Z   1
loop_
 _symmetry_equiv_pos_site_id
 _symmetry_equiv_pos_as_xyz
  1  'x, y, z'
loop_
 _atom_site_type_symbol
 _atom_site_label
 _atom_site_symmetry_multiplicity
 _atom_site_fract_x
 _atom_site_fract_y
 _atom_site_fract_z
 _atom_site_occupancy
  Na  Na0  1  0.37943100  0.54704100  0.88354400  1
  Na  Na1  1  0.62056900  0.45295900  0.11645600  1
  Na  Na2  1  0.65755600  0.09640600  0.34536000  1
  Na  Na3  1  0.34244400  0.90359400  0.65464000  1
  Te  Te0  1  0.00000000  0.00000000  0.00000000  1
  Mo  Mo0  1  0.28572800  0.28141400  0.45002200  1
  Mo  Mo1  1  0.71427200  0.71858600  0.54997800  1
  Mo  Mo2  1  0.89101900  0.09101300  0.71921000  1
  Mo  Mo3  1  0.10898100  0.90898700  0.28079000  1
  Mo  Mo4  1  0.09186800  0.36898000  0.05590800  1
  Mo  Mo5  1  0.90813200  0.63102000  0.94409200  1
  H  H0  1  0.33540500  0.65582200  0.36971700  1
  H  H1  1  0.66459500  0.34417800  0.63028300  1
  H  H2  1  0.15788800  0.66883600  0.55229200  1
  H  H3  1  0.84211200  0.33116400  0.44770800  1
  H  H4  1  0.60339500  0.10370200  0.59975200  1
  H  H5  1  0.39660500  0.89629800  0.40024800  1
  H  H6  1  0.19684800  0.54754900  0.11713300  1
  H  H7  1  0.80315200  0.45245100  0.88286700  1
  H  H8  1  0.26453100  0.26607400  0.95422100  1
  H  H9  1  0.73546900  0.73392600  0.04577900  1
  H  H10  1  0.35159900  0.24057200  0.78389800  1
  H  H11  1  0.64840100  0.75942800  0.21610200  1
  H  H12  1  0.19676800  0.41743900  0.35286900  1
  H  H13  1  0.80323200  0.58256100  0.64713100  1
  H  H14  1  0.58412200  0.63536500  0.68687600  1
  H  H15  1  0.41587800  0.36463500  0.31312400  1
  H  H16  1  0.41843500  0.90966500  0.94025800  1
  H  H17  1  0.58156500  0.09033500  0.05974200  1
  H  H18  1  0.08446100  0.56259000  0.85572800  1
  H  H19  1  0.91553900  0.43741000  0.14427200  1
  H  H20  1  0.77458000  0.04698900  0.05680100  1
  H  H21  1  0.22542000  0.95301100  0.94319900  1
  H  H22  1  0.28369300  0.62349500  0.67402300  1
  H  H23  1  0.71630700  0.37650500  0.32597700  1
  H  H24  1  0.39551300  0.66962000  0.59520500  1
  H  H25  1  0.60448700  0.33038000  0.40479500  1
  H  H26  1  0.72722700  0.98720900  0.86458600  1
  H  H27  1  0.27277300  0.01279100  0.13541400  1
  H  H28  1  0.88988800  0.54947600  0.35317400  1
  H  H29  1  0.11011200  0.45052400  0.64682600  1
  H  H30  1  0.04026700  0.64358200  0.60617500  1
  H  H31  1  0.95973300  0.35641800  0.39382500  1
  H  H32  1  0.13284200  0.02328500  0.64764800  1
  H  H33  1  0.86715800  0.97671500  0.35235200  1
  H  H34  1  0.91638300  0.07986300  0.19744500  1
  H  H35  1  0.08361700  0.92013700  0.80255500  1
  H  H36  1  0.78185900  0.19888200  0.84363300  1
  H  H37  1  0.21814100  0.80111800  0.15636700  1
  H  H38  1  0.85387700  0.63369300  0.13550300  1
  H  H39  1  0.14612300  0.36630700  0.86449700  1
  N  N0  1  0.56306700  0.65346100  0.59930000  1
  N  N1  1  0.43693300  0.34653900  0.40070000  1
  O  O0  1  0.11899400  0.08692900  0.33565400  1
  O  O1  1  0.88100600  0.91307100  0.66434600  1
  O  O2  1  0.21981500  0.39374200  0.20970900  1
  O  O3  1  0.78018500  0.60625800  0.79029100  1
  O  O4  1  0.19585400  0.38843500  0.43021900  1
  O  O5  1  0.80414600  0.61156500  0.56978100  1
  O  O6  1  0.37329400  0.29911100  0.61369900  1
  O  O7  1  0.62670600  0.70088900  0.38630100  1
  O  O8  1  0.79243900  0.96612100  0.83309600  1
  O  O9  1  0.20756100  0.03387900  0.16690400  1
  O  O10  1  0.89120300  0.08691700  0.10970000  1
  O  O11  1  0.10879700  0.91308300  0.89030000  1
  O  O12  1  0.10500900  0.19478000  0.97593600  1
  O  O13  1  0.89499100  0.80522000  0.02406400  1
  O  O14  1  0.88313300  0.23401400  0.84489900  1
  O  O15  1  0.11686700  0.76598600  0.15510100  1
  O  O16  1  0.07425900  0.21063200  0.73692200  1
  O  O17  1  0.92574100  0.78936800  0.26307800  1
  O  O18  1  0.77484100  0.07434300  0.56704000  1
  O  O19  1  0.22515900  0.92565700  0.43296000  1
  O  O20  1  0.94516300  0.38788300  0.08970600  1
  O  O21  1  0.05483700  0.61211700  0.91029400  1
  O  O22  1  0.19052500  0.44627300  0.94749700  1
  O  O23  1  0.80947500  0.55372700  0.05250300  1
  O  O24  1  0.36741400  0.32467300  0.95198700  1
  O  O25  1  0.63258600  0.67532700  0.04801300  1
  O  O26  1  0.62814900  0.78155100  0.13489000  1
  O  O27  1  0.37185100  0.21844900  0.86511000  1
  O  O28  1  0.81479100  0.46526800  0.27237200  1
  O  O29  1  0.18520900  0.53473200  0.72762800  1
  O  O30  1  0.08102600  0.69324900  0.55275300  1
  O  O31  1  0.91897400  0.30675100  0.44724700  1
  O  O32  1  0.47533800  0.90296900  0.88484900  1
  O  O33  1  0.52466200  0.09703100  0.11515100  1
  O  O34  1  0.66474300  0.30607200  0.37075000  1
  O  O35  1  0.33525700  0.69392800  0.62925000  1
  O  O36  1  0.37575000  0.96639700  0.04325400  1
  O  O37  1  0.62425000  0.03360300  0.95674600  1
  O  O38  1  0.45853000  0.97512800  0.37900100  1
  O  O39  1  0.54147000  0.02487200  0.62099900  1
loop_
_geom_bond_atom_site_label_1
_geom_bond_atom_site_label_2
_geom_bond_distance
_geom_bond_site_symmetry_2
Na0 O29 2.215251 1_555
Na0 O22 2.275036 1_555
Na0 O25 2.311963 1_556
Na0 O24 2.736172 1_555
Na1 O28 2.215251 1_555
Na1 O23 2.275036 1_555
Na1 O24 2.311963 1_554
Na1 O25 2.736172 1_555
Na2 O38 2.173499 1_545
Na2 O34 2.325900 1_555
Na2 O31 2.427067 1_555
Na2 O18 2.565524 1_555
Na2 O33 2.575057 1_555
Na3 O39 2.173499 1_565
Na3 O35 2.325900 1_555
Na3 O30 2.427067 1_555
Na3 O19 2.565524 1_555
Na3 O32 2.575057 1_555
Mo0 O6 1.739567 1_555
Mo0 N1 1.789999 1_555
Mo0 O4 1.885962 1_555
Mo0 O0 1.937739 1_555
Mo1 O7 1.739567 1_555
Mo1 N0 1.789999 1_555
Mo1 O5 1.885962 1_555
Mo1 O1 1.937739 1_555
Mo2 O18 1.713325 1_555
Mo2 O16 1.741520 1_655
Mo2 O1 1.968530 1_545
Mo2 O14 2.051064 1_555
Mo2 O8 2.235860 1_545
Mo3 O19 1.713325 1_555
Mo3 O17 1.741520 1_455
Mo3 O0 1.968530 1_565
Mo3 O15 2.051064 1_555
Mo3 O9 2.235860 1_565
Mo4 O2 1.740599 1_555
Mo4 O20 1.857961 1_455
Mo4 O22 1.957885 1_554
Mo4 O12 2.139940 1_554
Mo4 O14 2.329131 1_454
Mo5 O3 1.740599 1_555
Mo5 O21 1.857961 1_655
Mo5 O23 1.957885 1_556
Mo5 O13 2.139940 1_556
Mo5 O15 2.329131 1_656
H2 O30 0.999398 1_555
H2 Na3 2.257755 1_555
H3 O31 0.999398 1_555
H3 Na2 2.257755 1_555
H4 O39 0.971075 1_555
H5 O38 0.971075 1_555
H6 Mo4 1.681367 1_555
H7 Mo5 1.681367 1_555
H8 O24 1.019718 1_555
H8 O12 1.671351 1_555
H9 O25 1.019718 1_555
H9 O13 1.671351 1_555
H10 O27 0.988458 1_555
H11 O26 0.988458 1_555
H12 O4 0.998398 1_555
H12 O2 1.739757 1_555
H13 O5 0.998398 1_555
H13 O3 1.739757 1_555
H14 N0 1.033822 1_555
H15 N1 1.033822 1_555
H16 O32 1.039117 1_555
H16 O36 1.556605 1_556
H17 O33 1.039117 1_555
H17 O37 1.556605 1_554
H18 O21 1.001087 1_555
H19 O20 1.001087 1_555
H20 O10 1.035222 1_555
H20 O37 1.589769 1_554
H21 O11 1.035222 1_555
H21 O36 1.589769 1_556
H22 O35 1.063544 1_555
H22 O29 1.478440 1_555
H23 O34 1.063544 1_555
H23 O28 1.478440 1_555
H24 O35 0.980557 1_555
H25 O34 0.980557 1_555
H26 O8 0.995570 1_555
H27 O9 0.995570 1_555
H28 O28 0.975243 1_555
H29 O29 0.975243 1_555
H30 O30 0.975752 1_555
H31 O31 0.975752 1_555
H34 O10 0.982507 1_555
H35 O11 0.982507 1_555
H36 O14 0.980239 1_555
H37 O15 0.980239 1_555
H38 O23 0.994926 1_555
H38 Na1 2.331536 1_555
H39 O22 0.994926 1_555
H39 Na0 2.331536 1_555
O8 Te0 2.257994 1_666
O9 Te0 2.257994 1_555
O10 Te0 2.372963 1_655
O11 Te0 2.372963 1_566
O12 Te0 2.095076 1_556
O13 Te0 2.095076 1_665
O32 O37 1.430644 1_565
O33 O36 1.430644 1_545
