# generated using pymatgen
data_MgMnO3
_symmetry_space_group_name_H-M   'P 1'
_cell_length_a   5.38128356
_cell_length_b   5.38125029
_cell_length_c   5.38113230
_cell_angle_alpha   54.57638601
_cell_angle_beta   54.57836698
_cell_angle_gamma   54.57589179
_symmetry_Int_Tables_number   1
_chemical_formula_structural   MgMnO3
_chemical_formula_sum   'Mg2 Mn2 O6'
_cell_volume   96.25948703
_cell_formula_units_Z   2
loop_
 _symmetry_equiv_pos_site_id
 _symmetry_equiv_pos_as_xyz
  1  'x, y, z'
loop_
 _atom_site_type_symbol
 _atom_site_label
 _atom_site_symmetry_multiplicity
 _atom_site_fract_x
 _atom_site_fract_y
 _atom_site_fract_z
 _atom_site_occupancy
  Mg  Mg0  1  0.14064229  0.14063361  0.14065386  1
  Mg  Mg1  1  0.85935771  0.85936639  0.85934614  1
  Mn  Mn0  1  0.34212898  0.34214790  0.34213911  1
  Mn  Mn1  1  0.65787102  0.65785210  0.65786089  1
  O  O0  1  0.06029791  0.72001012  0.45318789  1
  O  O1  1  0.45310285  0.06028236  0.72005987  1
  O  O2  1  0.72001505  0.45312187  0.06033410  1
  O  O3  1  0.27998495  0.54687813  0.93966590  1
  O  O4  1  0.54689715  0.93971764  0.27994013  1
  O  O5  1  0.93970209  0.27998988  0.54681211  1
loop_
_geom_bond_atom_site_label_1
_geom_bond_atom_site_label_2
_geom_bond_distance
_geom_bond_site_symmetry_2
Mg0 O1 2.004224 1_554
Mg0 O2 2.004272 1_455
Mg0 O0 2.004354 1_545
Mg0 O5 2.174598 1_455
Mg0 O4 2.174862 1_545
Mg0 O3 2.174947 1_554
Mg1 O4 2.004224 1_556
Mg1 O3 2.004272 1_655
Mg1 O5 2.004354 1_565
Mg1 O0 2.174598 1_655
Mg1 O1 2.174862 1_565
Mg1 O2 2.174947 1_556
Mn0 O2 1.890714 1_555
Mn0 O0 1.890738 1_555
Mn0 O1 1.890745 1_555
Mn0 O4 1.913738 1_545
Mn0 O5 1.913768 1_455
Mn0 O3 1.913791 1_554
Mn1 O3 1.890714 1_555
Mn1 O5 1.890738 1_555
Mn1 O4 1.890745 1_555
Mn1 O1 1.913738 1_565
Mn1 O0 1.913768 1_655
Mn1 O2 1.913791 1_556
