# generated using pymatgen
data_Li4Co5Te3O16
_symmetry_space_group_name_H-M   'P 1'
_cell_length_a   6.17039700
_cell_length_b   6.18917449
_cell_length_c   9.86318450
_cell_angle_alpha   89.62661056
_cell_angle_beta   91.72547457
_cell_angle_gamma   119.87815780
_symmetry_Int_Tables_number   1
_chemical_formula_structural   Li4Co5Te3O16
_chemical_formula_sum   'Li4 Co5 Te3 O16'
_cell_volume   326.44329668
_cell_formula_units_Z   1
loop_
 _symmetry_equiv_pos_site_id
 _symmetry_equiv_pos_as_xyz
  1  'x, y, z'
loop_
 _atom_site_type_symbol
 _atom_site_label
 _atom_site_symmetry_multiplicity
 _atom_site_fract_x
 _atom_site_fract_y
 _atom_site_fract_z
 _atom_site_occupancy
  Li  Li0  1  0.67638600  0.33180900  0.13097900  1
  Li  Li1  1  0.03922200  0.02081800  0.01174000  1
  Li  Li2  1  0.01922100  0.01198500  0.49275400  1
  Li  Li3  1  0.35509000  0.67468800  0.59673400  1
  Co  Co0  1  0.64466200  0.32932300  0.48048200  1
  Co  Co1  1  0.33791300  0.16740500  0.78347300  1
  Co  Co2  1  0.29615000  0.65049400  0.02794700  1
  Co  Co3  1  0.15937100  0.82479800  0.28694000  1
  Co  Co4  1  0.16156000  0.33373400  0.28574500  1
  Te  Te0  1  0.83077100  0.66290000  0.78507400  1
  Te  Te1  1  0.83251500  0.16938700  0.78341100  1
  Te  Te2  1  0.65346200  0.82739900  0.28351800  1
  O  O0  1  0.82172800  0.68493700  0.39988000  1
  O  O1  1  0.97188900  0.47491000  0.66746000  1
  O  O2  1  0.69053300  0.33184700  0.89865500  1
  O  O3  1  0.98261100  0.00243700  0.67813700  1
  O  O4  1  0.96864700  0.98598000  0.18843300  1
  O  O5  1  0.82023500  0.14105000  0.39675800  1
  O  O6  1  0.52230700  0.48872000  0.66981600  1
  O  O7  1  0.53000100  0.03356300  0.67242400  1
  O  O8  1  0.69573600  0.86022500  0.89537200  1
  O  O9  1  0.31266900  0.17677500  0.39189800  1
  O  O10  1  0.49002400  0.96126500  0.16291500  1
  O  O11  1  0.49602000  0.53001600  0.16400200  1
  O  O12  1  0.35627400  0.67643100  0.39600700  1
  O  O13  1  0.15390200  0.83849000  0.89813200  1
  O  O14  1  0.03783200  0.49816500  0.17108300  1
  O  O15  1  0.14326700  0.31074600  0.89238900  1
loop_
_geom_bond_atom_site_label_1
_geom_bond_atom_site_label_2
_geom_bond_distance
_geom_bond_site_symmetry_2
Li0 O14 1.963411 1_655
Li0 O10 2.016427 1_545
Li0 O11 2.058365 1_555
Li0 O2 2.295736 1_554
Li1 O4 1.794598 1_445
Li1 O15 1.971816 1_554
Li1 O13 1.972197 1_544
Li1 O8 2.137019 1_444
Li2 O3 1.846071 1_455
Li2 O9 1.887771 1_555
Li2 O0 1.980080 1_445
Li2 O5 1.984799 1_455
Li3 O12 1.979980 1_555
Li3 O6 2.009120 1_555
Li3 O7 2.059206 1_565
Li3 O1 2.186682 1_455
Co0 O9 1.956336 1_555
Co0 O0 2.074512 1_555
Co0 O5 2.130152 1_555
Co0 O6 2.425191 1_555
Co0 O7 2.486072 1_555
Co0 O1 2.504914 1_555
Co1 O6 2.073518 1_555
Co1 O7 2.087806 1_555
Co1 O13 2.111089 1_545
Co1 O15 2.129626 1_555
Co1 O3 2.138874 1_455
Co1 O2 2.172677 1_555
Co2 O14 2.010853 1_555
Co2 O10 2.132546 1_555
Co2 O11 2.163627 1_555
Co2 O13 2.166573 1_554
Co2 O15 2.254668 1_554
Co2 O8 2.541130 1_554
Co3 O4 2.100549 1_455
Co3 O14 2.103106 1_555
Co3 O12 2.120513 1_555
Co3 O9 2.151618 1_565
Co3 O0 2.158961 1_455
Co3 O10 2.189156 1_555
Co4 O14 1.898594 1_555
Co4 O9 1.933830 1_555
Co4 O4 2.091928 1_445
Co4 O12 2.130114 1_555
Co4 O5 2.162463 1_455
Co4 O11 2.192964 1_555
O0 Te2 1.999947 1_555
O1 Te1 2.008481 1_555
O1 Te0 2.132013 1_555
O2 Te1 2.005763 1_555
O2 Te0 2.112809 1_555
O3 Te1 2.007217 1_555
O3 Te0 2.115511 1_545
O4 Te2 1.954799 1_555
O5 Te2 2.010874 1_545
O6 Te0 1.979540 1_555
O7 Te1 1.927403 1_555
O8 Te1 2.003173 1_565
O8 Te0 2.110694 1_555
O10 Te2 1.966171 1_555
O11 Te2 1.974550 1_555
O12 Te2 1.966889 1_555
O13 Te0 2.030517 1_455
O15 Te1 1.952996 1_455
