# generated using pymatgen
data_Li4Mn3Co2Sn3O16
_symmetry_space_group_name_H-M   'P 1'
_cell_length_a   6.08543148
_cell_length_b   6.08543148
_cell_length_c   9.76504512
_cell_angle_alpha   89.61758451
_cell_angle_beta   89.61758451
_cell_angle_gamma   60.03927838
_symmetry_Int_Tables_number   1
_chemical_formula_structural   Li4Mn3Co2Sn3O16
_chemical_formula_sum   'Li4 Mn3 Co2 Sn3 O16'
_cell_volume   313.28997088
_cell_formula_units_Z   1
loop_
 _symmetry_equiv_pos_site_id
 _symmetry_equiv_pos_as_xyz
  1  'x, y, z'
loop_
 _atom_site_type_symbol
 _atom_site_label
 _atom_site_symmetry_multiplicity
 _atom_site_fract_x
 _atom_site_fract_y
 _atom_site_fract_z
 _atom_site_occupancy
  Li  Li0  1  0.67307800  0.67307800  0.88263900  1
  Li  Li1  1  0.98661300  0.98661300  0.99504100  1
  Li  Li2  1  0.98949600  0.98949600  0.50205100  1
  Li  Li3  1  0.33801100  0.33801100  0.39125800  1
  Mn  Mn0  1  0.83168800  0.83168800  0.21629700  1
  Mn  Mn1  1  0.66248700  0.17030800  0.71524000  1
  Mn  Mn2  1  0.17030800  0.66248700  0.71524000  1
  Co  Co0  1  0.66856400  0.66856400  0.49745100  1
  Co  Co1  1  0.33656600  0.33656600  0.99039300  1
  Sn  Sn0  1  0.83219900  0.33923000  0.21463000  1
  Sn  Sn1  1  0.33923000  0.83219900  0.21463000  1
  Sn  Sn2  1  0.16987700  0.16987700  0.71457100  1
  O  O0  1  0.83323600  0.31411800  0.60253900  1
  O  O1  1  0.51770600  0.51770600  0.34100000  1
  O  O2  1  0.67879800  0.67879800  0.09968700  1
  O  O3  1  0.98998400  0.98998400  0.31805100  1
  O  O4  1  0.98965600  0.98965600  0.81111900  1
  O  O5  1  0.31411800  0.83323600  0.60253900  1
  O  O6  1  0.96730200  0.52978300  0.33505000  1
  O  O7  1  0.52978300  0.96730200  0.33505000  1
  O  O8  1  0.15650700  0.15650700  0.09263000  1
  O  O9  1  0.84000000  0.84000000  0.61193100  1
  O  O10  1  0.49491600  0.03823500  0.83294100  1
  O  O11  1  0.03823500  0.49491600  0.83294100  1
  O  O12  1  0.34562000  0.34562000  0.60659900  1
  O  O13  1  0.68074200  0.14949700  0.10452100  1
  O  O14  1  0.48256200  0.48256200  0.82710200  1
  O  O15  1  0.14949700  0.68074200  0.10452100  1
loop_
_geom_bond_atom_site_label_1
_geom_bond_atom_site_label_2
_geom_bond_distance
_geom_bond_site_symmetry_2
Li0 O10 1.983722 1_565
Li0 O11 1.983722 1_655
Li0 O14 2.083683 1_555
Li0 O2 2.120805 1_556
Li1 O4 1.796046 1_555
Li1 O13 1.932577 1_566
Li1 O15 1.932577 1_656
Li1 O8 2.034670 1_666
Li2 O3 1.796736 1_555
Li2 O9 1.899256 1_555
Li2 O5 1.976549 1_655
Li2 O0 1.976549 1_565
Li3 O1 1.952557 1_555
Li3 O7 2.032434 1_545
Li3 O6 2.032434 1_455
Li3 O12 2.104960 1_555
Mn0 O3 1.948229 1_555
Mn0 O7 1.967518 1_555
Mn0 O6 1.967518 1_555
Mn0 O2 1.980111 1_555
Mn0 O13 1.996574 1_565
Mn0 O15 1.996574 1_655
Mn1 O10 1.948717 1_555
Mn1 O4 1.968267 1_545
Mn1 O14 1.984051 1_555
Mn1 O0 1.984158 1_555
Mn1 O12 1.984778 1_555
Mn1 O9 2.017113 1_545
Mn2 O11 1.948717 1_555
Mn2 O4 1.968267 1_455
Mn2 O14 1.984051 1_555
Mn2 O5 1.984158 1_555
Mn2 O12 1.984778 1_555
Mn2 O9 2.017113 1_455
Co0 O5 2.129552 1_555
Co0 O0 2.129552 1_555
Co0 O9 2.131839 1_555
Co0 O1 2.213332 1_555
Co0 O6 2.231368 1_555
Co0 O7 2.231368 1_555
Co1 O15 2.134823 1_556
Co1 O13 2.134823 1_556
Co1 O8 2.137285 1_556
Co1 O11 2.204229 1_555
Co1 O10 2.204229 1_555
Co1 O14 2.207223 1_555
O0 Sn2 2.094069 1_655
O1 Sn0 2.067692 1_555
O1 Sn1 2.067692 1_555
O2 Sn1 2.111315 1_555
O2 Sn0 2.111315 1_555
O3 Sn1 2.098774 1_655
O3 Sn0 2.098774 1_565
O4 Sn2 2.113819 1_665
O5 Sn2 2.094069 1_565
O6 Sn0 2.094450 1_555
O7 Sn1 2.094450 1_555
O8 Sn0 2.084476 1_455
O8 Sn1 2.084476 1_545
O10 Sn2 2.079855 1_555
O11 Sn2 2.079855 1_555
O12 Sn2 2.124031 1_555
O13 Sn0 2.105095 1_555
O15 Sn1 2.105095 1_555
