# generated using pymatgen
data_Li4Ti3Mn2V3O16
_symmetry_space_group_name_H-M   'P 1'
_cell_length_a   5.94495700
_cell_length_b   5.95316686
_cell_length_c   9.93486100
_cell_angle_alpha   90.35649639
_cell_angle_beta   90.14773711
_cell_angle_gamma   119.93728035
_symmetry_Int_Tables_number   1
_chemical_formula_structural   Li4Ti3Mn2V3O16
_chemical_formula_sum   'Li4 Ti3 Mn2 V3 O16'
_cell_volume   304.68114626
_cell_formula_units_Z   1
loop_
 _symmetry_equiv_pos_site_id
 _symmetry_equiv_pos_as_xyz
  1  'x, y, z'
loop_
 _atom_site_type_symbol
 _atom_site_label
 _atom_site_symmetry_multiplicity
 _atom_site_fract_x
 _atom_site_fract_y
 _atom_site_fract_z
 _atom_site_occupancy
  Li  Li0  1  0.66778400  0.32855300  0.10683500  1
  Li  Li1  1  0.99721400  0.00286000  0.00265900  1
  Li  Li2  1  0.99575300  0.99803900  0.50131300  1
  Li  Li3  1  0.33186300  0.66443800  0.60681100  1
  Ti  Ti0  1  0.33837900  0.16562100  0.78117100  1
  Ti  Ti1  1  0.83263400  0.66246800  0.78335700  1
  Ti  Ti2  1  0.17260000  0.82972300  0.28135100  1
  Mn  Mn0  1  0.67180400  0.33668800  0.50319600  1
  Mn  Mn1  1  0.33810000  0.67320600  0.00346000  1
  V  V0  1  0.83469400  0.17086000  0.78873500  1
  V  V1  1  0.66306300  0.82240800  0.28537100  1
  V  V2  1  0.16709300  0.33156100  0.28804200  1
  O  O0  1  0.31021900  0.16731500  0.39164500  1
  O  O1  1  0.51136500  0.48176200  0.67575700  1
  O  O2  1  0.66191100  0.33695100  0.89459900  1
  O  O3  1  0.99970900  0.00086000  0.68482600  1
  O  O4  1  0.00170300  0.99645600  0.18568700  1
  O  O5  1  0.84998000  0.68805100  0.39248800  1
  O  O6  1  0.52213300  0.03575000  0.67686800  1
  O  O7  1  0.96653700  0.48835200  0.67297800  1
  O  O8  1  0.15550500  0.84870300  0.89231300  1
  O  O9  1  0.83480600  0.14344400  0.38908700  1
  O  O10  1  0.03706500  0.50371300  0.17634900  1
  O  O11  1  0.47665700  0.96723400  0.17294900  1
  O  O12  1  0.33226400  0.66902500  0.39522600  1
  O  O13  1  0.14275300  0.31214200  0.89136400  1
  O  O14  1  0.49771300  0.52702400  0.17535000  1
  O  O15  1  0.68840000  0.84649100  0.89236800  1
loop_
_geom_bond_atom_site_label_1
_geom_bond_atom_site_label_2
_geom_bond_distance
_geom_bond_site_symmetry_2
Li0 O11 1.982741 1_545
Li0 O14 2.016800 1_555
Li0 O10 2.020452 1_655
Li0 O2 2.110051 1_554
Li1 O4 1.819401 1_645
Li1 O15 1.925828 1_544
Li1 O8 1.945338 1_644
Li1 O13 1.949734 1_654
Li2 O3 1.823132 1_565
Li2 O5 1.923430 1_555
Li2 O9 1.934193 1_565
Li2 O0 1.959947 1_665
Li3 O1 1.988571 1_555
Li3 O7 1.997870 1_455
Li3 O6 2.032562 1_565
Li3 O12 2.102407 1_555
Mn0 O5 2.128428 1_555
Mn0 O9 2.156336 1_555
Mn0 O0 2.162442 1_555
Mn0 O7 2.262139 1_555
Mn0 O1 2.325272 1_555
Mn0 O6 2.331023 1_555
Mn1 O15 2.121549 1_554
Mn1 O8 2.151590 1_554
Mn1 O13 2.163606 1_554
Mn1 O11 2.257172 1_555
Mn1 O10 2.325133 1_555
Mn1 O14 2.325578 1_555
O0 V2 1.891528 1_555
O0 Ti2 2.058139 1_545
O1 Ti0 1.948005 1_555
O1 Ti1 1.967808 1_555
O2 Ti0 2.006508 1_555
O2 Ti1 2.018950 1_555
O2 V0 2.036000 1_555
O3 Ti0 1.984753 1_655
O3 V0 2.008840 1_555
O3 Ti1 2.008841 1_545
O4 Ti2 1.983434 1_555
O4 V2 1.998099 1_565
O4 V1 2.012063 1_455
O5 V1 1.974506 1_555
O5 Ti2 2.004239 1_655
O6 Ti0 1.924513 1_555
O6 V0 1.954832 1_555
O7 Ti1 1.929915 1_555
O7 V0 2.015536 1_555
O8 Ti1 1.983817 1_455
O8 Ti0 1.986339 1_565
O9 V1 1.944027 1_545
O9 V2 1.995090 1_655
O10 V2 1.918239 1_555
O10 Ti2 1.978326 1_555
O11 Ti2 1.908269 1_555
O11 V1 2.044036 1_555
O12 Ti2 2.002587 1_555
O12 V1 2.030649 1_555
O12 V2 2.033017 1_555
O13 V0 1.882364 1_455
O13 Ti0 2.078235 1_555
O14 V1 1.870426 1_555
O14 V2 2.053174 1_555
O15 V0 1.974435 1_565
O15 Ti1 2.008963 1_555
