# generated using pymatgen
data_Ni6OF11
_symmetry_space_group_name_H-M   'P 1'
_cell_length_a   4.69589845
_cell_length_b   4.69589845
_cell_length_c   9.33444800
_cell_angle_alpha   90.00000000
_cell_angle_beta   90.00000000
_cell_angle_gamma   90.43241528
_symmetry_Int_Tables_number   1
_chemical_formula_structural   Ni6OF11
_chemical_formula_sum   'Ni6 O1 F11'
_cell_volume   205.83236608
_cell_formula_units_Z   1
loop_
 _symmetry_equiv_pos_site_id
 _symmetry_equiv_pos_as_xyz
  1  'x, y, z'
loop_
 _atom_site_type_symbol
 _atom_site_label
 _atom_site_symmetry_multiplicity
 _atom_site_fract_x
 _atom_site_fract_y
 _atom_site_fract_z
 _atom_site_occupancy
  Ni  Ni0  1  0.00012200  0.00012200  0.50000000  1
  Ni  Ni1  1  0.00535800  0.00535800  0.16270800  1
  Ni  Ni2  1  0.00535800  0.00535800  0.83729200  1
  Ni  Ni3  1  0.48668100  0.48668100  0.00000000  1
  Ni  Ni4  1  0.50280100  0.50280100  0.66671400  1
  Ni  Ni5  1  0.50280100  0.50280100  0.33328600  1
  O  O0  1  0.19297100  0.19297100  0.00000000  1
  F  F0  1  0.19790900  0.19790900  0.66697000  1
  F  F1  1  0.19790900  0.19790900  0.33303000  1
  F  F2  1  0.30259700  0.69531300  0.83342900  1
  F  F3  1  0.30259700  0.69531300  0.16657100  1
  F  F4  1  0.30468100  0.69756600  0.50000000  1
  F  F5  1  0.69531300  0.30259700  0.83342900  1
  F  F6  1  0.69531300  0.30259700  0.16657100  1
  F  F7  1  0.69756600  0.30468100  0.50000000  1
  F  F8  1  0.80785300  0.80785300  0.67002800  1
  F  F9  1  0.79428900  0.79428900  0.00000000  1
  F  F10  1  0.80785300  0.80785300  0.32997200  1
loop_
_geom_bond_atom_site_label_1
_geom_bond_atom_site_label_2
_geom_bond_distance
_geom_bond_site_symmetry_2
Ni1 O0 1.961471 1_555
Ni2 O0 1.961471 1_556
Ni3 O0 1.943155 1_555
F0 Ni4 2.017135 1_555
F0 Ni0 2.035048 1_555
F0 Ni2 2.037272 1_555
F1 Ni5 2.017135 1_555
F1 Ni0 2.035048 1_555
F1 Ni1 2.037272 1_555
F2 Ni2 2.024847 1_565
F2 Ni4 2.033634 1_555
F2 Ni3 2.034068 1_556
F3 Ni1 2.024847 1_565
F3 Ni5 2.033634 1_555
F3 Ni3 2.034068 1_555
F4 Ni0 2.023530 1_565
F4 Ni4 2.033861 1_555
F4 Ni5 2.033861 1_555
F5 Ni2 2.024847 1_655
F5 Ni4 2.033634 1_555
F5 Ni3 2.034068 1_556
F6 Ni1 2.024847 1_655
F6 Ni5 2.033634 1_555
F6 Ni3 2.034068 1_555
F7 Ni0 2.023530 1_655
F7 Ni4 2.033861 1_555
F7 Ni5 2.033861 1_555
F8 Ni4 2.018429 1_555
F8 Ni0 2.033963 1_665
F8 Ni2 2.035953 1_665
F9 Ni3 2.035103 1_555
F9 Ni1 2.063173 1_665
F9 Ni2 2.063173 1_664
F10 Ni5 2.018429 1_555
F10 Ni0 2.033963 1_665
F10 Ni1 2.035953 1_665
