# generated using pymatgen
data_NaPH3C2N3O4
_symmetry_space_group_name_H-M   'P 1'
_cell_length_a   12.47153300
_cell_length_b   6.97589300
_cell_length_c   8.63720643
_cell_angle_alpha   52.69658843
_cell_angle_beta   90.00000000
_cell_angle_gamma   90.00000000
_symmetry_Int_Tables_number   1
_chemical_formula_structural   NaPH3C2N3O4
_chemical_formula_sum   'Na4 P4 H12 C8 N12 O16'
_cell_volume   597.72160694
_cell_formula_units_Z   4
loop_
 _symmetry_equiv_pos_site_id
 _symmetry_equiv_pos_as_xyz
  1  'x, y, z'
loop_
 _atom_site_type_symbol
 _atom_site_label
 _atom_site_symmetry_multiplicity
 _atom_site_fract_x
 _atom_site_fract_y
 _atom_site_fract_z
 _atom_site_occupancy
  Na  Na0  1  0.55293200  0.35164600  0.89813300  1
  Na  Na1  1  0.05293200  0.64835400  0.60186700  1
  Na  Na2  1  0.94706800  0.35164600  0.39813300  1
  Na  Na3  1  0.44706800  0.64835400  0.10186700  1
  P  P0  1  0.57875900  0.82136200  0.38392400  1
  P  P1  1  0.07875900  0.17863800  0.11607600  1
  P  P2  1  0.92124100  0.82136200  0.88392400  1
  P  P3  1  0.42124100  0.17863800  0.61607600  1
  H  H0  1  0.92475500  0.17970600  0.85637800  1
  H  H1  1  0.69213400  0.54923300  0.38570000  1
  H  H2  1  0.37965600  0.06331400  0.01201900  1
  H  H3  1  0.87965600  0.93668600  0.48798100  1
  H  H4  1  0.42475500  0.82029400  0.64362200  1
  H  H5  1  0.80786600  0.54923300  0.88570000  1
  H  H6  1  0.19213400  0.45076700  0.11430000  1
  H  H7  1  0.57524500  0.17970600  0.35637800  1
  H  H8  1  0.12034400  0.06331400  0.51201900  1
  H  H9  1  0.30786600  0.45076700  0.61430000  1
  H  H10  1  0.62034400  0.93668600  0.98798100  1
  H  H11  1  0.07524500  0.82029400  0.14362200  1
  C  C0  1  0.23144200  0.90787700  0.09870600  1
  C  C1  1  0.79622300  0.72588800  0.43955300  1
  C  C2  1  0.29622300  0.27411200  0.06044700  1
  C  C3  1  0.26855800  0.90787700  0.59870600  1
  C  C4  1  0.73144200  0.09212300  0.40129400  1
  C  C5  1  0.70377700  0.72588800  0.93955300  1
  C  C6  1  0.20377700  0.27411200  0.56044700  1
  C  C7  1  0.76855800  0.09212300  0.90129400  1
  N  N0  1  0.69685300  0.68664400  0.39802100  1
  N  N1  1  0.13007200  0.93540300  0.13929600  1
  N  N2  1  0.30571900  0.08268200  0.05283000  1
  N  N3  1  0.80571900  0.91731800  0.44717000  1
  N  N4  1  0.63007200  0.06459700  0.36070400  1
  N  N5  1  0.80314700  0.68664400  0.89802100  1
  N  N6  1  0.19685300  0.31335600  0.10197900  1
  N  N7  1  0.36992800  0.93540300  0.63929600  1
  N  N8  1  0.19428100  0.08268200  0.55283000  1
  N  N9  1  0.69428100  0.91731800  0.94717000  1
  N  N10  1  0.86992800  0.06459700  0.86070400  1
  N  N11  1  0.30314700  0.31335600  0.60197900  1
  O  O0  1  0.73953100  0.26505900  0.89958300  1
  O  O1  1  0.87740400  0.60400100  0.46801200  1
  O  O2  1  0.01675600  0.32882500  0.92858200  1
  O  O3  1  0.52508700  0.90474300  0.19611500  1
  O  O4  1  0.51675600  0.67117500  0.57141800  1
  O  O5  1  0.23953100  0.73494100  0.60041700  1
  O  O6  1  0.62259600  0.60400100  0.96801200  1
  O  O7  1  0.02508700  0.09525700  0.30388500  1
  O  O8  1  0.97491300  0.90474300  0.69611500  1
  O  O9  1  0.37740400  0.39599900  0.03198800  1
  O  O10  1  0.76046900  0.26505900  0.39958300  1
  O  O11  1  0.48324400  0.32882500  0.42858200  1
  O  O12  1  0.47491300  0.09525700  0.80388500  1
  O  O13  1  0.98324400  0.67117500  0.07141800  1
  O  O14  1  0.12259600  0.39599900  0.53198800  1
  O  O15  1  0.26046900  0.73494100  0.10041700  1
loop_
_geom_bond_atom_site_label_1
_geom_bond_atom_site_label_2
_geom_bond_distance
_geom_bond_site_symmetry_2
Na0 O6 2.346481 1_555
Na0 O4 2.347591 1_555
Na0 O0 2.402410 1_555
Na0 O12 2.563789 1_555
Na0 O9 2.580333 1_556
Na0 O3 2.595854 1_546
Na1 O14 2.346481 1_555
Na1 O2 2.347591 1_555
Na1 O5 2.402410 1_555
Na1 O8 2.563789 1_455
Na1 O1 2.580333 1_455
Na1 O7 2.595854 1_565
Na2 O1 2.346481 1_555
Na2 O13 2.347591 1_555
Na2 O10 2.402410 1_555
Na2 O7 2.563789 1_655
Na2 O14 2.580333 1_655
Na2 O8 2.595854 1_545
Na3 O9 2.346481 1_555
Na3 O11 2.347591 1_555
Na3 O15 2.402410 1_555
Na3 O3 2.563789 1_555
Na3 O6 2.580333 1_554
Na3 O12 2.595854 1_564
H0 N10 1.037965 1_555
H1 N0 1.028240 1_555
H2 N2 1.024946 1_555
H3 N3 1.024946 1_555
H4 N7 1.037965 1_555
H5 N5 1.028240 1_555
H6 N6 1.028240 1_555
H7 N4 1.037965 1_555
H8 N8 1.024946 1_555
H9 N11 1.028240 1_555
H10 N9 1.024946 1_555
H11 N1 1.037965 1_555
C0 O15 1.251008 1_555
C0 N1 1.356347 1_555
C0 N2 1.384363 1_565
C1 O1 1.247042 1_555
C1 N0 1.363272 1_555
C1 N3 1.381347 1_555
C2 O9 1.247042 1_555
C2 N6 1.363272 1_555
C2 N2 1.381347 1_555
C3 O5 1.251008 1_555
C3 N7 1.356347 1_555
C3 N8 1.384363 1_565
C4 O10 1.251008 1_555
C4 N4 1.356347 1_555
C4 N3 1.384363 1_545
C5 O6 1.247042 1_555
C5 N5 1.363272 1_555
C5 N9 1.381347 1_555
C6 O14 1.247042 1_555
C6 N11 1.363272 1_555
C6 N8 1.381347 1_555
C7 O0 1.251008 1_555
C7 N10 1.356347 1_555
C7 N9 1.384363 1_545
N0 P0 1.711284 1_555
N1 P1 1.707735 1_565
N4 P0 1.707735 1_545
N5 P2 1.711284 1_555
N6 P1 1.711284 1_555
N7 P3 1.707735 1_565
N10 P2 1.707735 1_545
N11 P3 1.711284 1_555
O2 P1 1.503886 1_556
O3 P0 1.508015 1_555
O4 P0 1.503886 1_555
O7 P1 1.508015 1_555
O8 P2 1.508015 1_555
O11 P3 1.503886 1_555
O12 P3 1.508015 1_555
O13 P2 1.503886 1_554
