# generated using pymatgen
data_Li4MnV3(P2O7)4
_symmetry_space_group_name_H-M   'P 1'
_cell_length_a   4.86733300
_cell_length_b   7.05407793
_cell_length_c   16.58686502
_cell_angle_alpha   89.38960699
_cell_angle_beta   89.58795191
_cell_angle_gamma   71.20394104
_symmetry_Int_Tables_number   1
_chemical_formula_structural   Li4MnV3(P2O7)4
_chemical_formula_sum   'Li4 Mn1 V3 P8 O28'
_cell_volume   539.09688398
_cell_formula_units_Z   1
loop_
 _symmetry_equiv_pos_site_id
 _symmetry_equiv_pos_as_xyz
  1  'x, y, z'
loop_
 _atom_site_type_symbol
 _atom_site_label
 _atom_site_symmetry_multiplicity
 _atom_site_fract_x
 _atom_site_fract_y
 _atom_site_fract_z
 _atom_site_occupancy
  Li  Li0  1  0.17410400  0.32590800  0.93121500  1
  Li  Li1  1  0.17642800  0.32538900  0.43080000  1
  Li  Li2  1  0.82347900  0.67548100  0.18011300  1
  Li  Li3  1  0.82247100  0.67442200  0.68064600  1
  Mn  Mn0  1  0.78422600  0.73140400  0.99978100  1
  V  V0  1  0.21617600  0.27368600  0.24982000  1
  V  V1  1  0.21381400  0.27100900  0.74972500  1
  V  V2  1  0.78386300  0.72841300  0.49984300  1
  P  P0  1  0.40220200  0.47802100  0.08866000  1
  P  P1  1  0.39986400  0.47728900  0.58990900  1
  P  P2  1  0.21331600  0.91434100  0.39187600  1
  P  P3  1  0.21336400  0.91158000  0.89233900  1
  P  P4  1  0.79004200  0.08672800  0.14349600  1
  P  P5  1  0.78756200  0.08560400  0.64228200  1
  P  P6  1  0.60124100  0.51731400  0.84025600  1
  P  P7  1  0.60036400  0.52274600  0.34026500  1
  O  O0  1  0.04961100  0.15357500  0.16309500  1
  O  O1  1  0.04983200  0.14866100  0.66242400  1
  O  O2  1  0.13275700  0.11563700  0.34820700  1
  O  O3  1  0.13113000  0.11183900  0.84755300  1
  O  O4  1  0.18945500  0.51781000  0.01773200  1
  O  O5  1  0.18676000  0.51794400  0.51906500  1
  O  O6  1  0.24674600  0.49314300  0.67153700  1
  O  O7  1  0.25019600  0.49456800  0.17081600  1
  O  O8  1  0.39662500  0.39584500  0.33881000  1
  O  O9  1  0.39224800  0.39415400  0.83735200  1
  O  O10  1  0.60053200  0.08677900  0.21817500  1
  O  O11  1  0.60025200  0.08346600  0.71703600  1
  O  O12  1  0.59853100  0.24721800  0.07663000  1
  O  O13  1  0.59634900  0.24716400  0.57634900  1
  O  O14  1  0.40549700  0.75401900  0.32652700  1
  O  O15  1  0.40516800  0.75068900  0.82778900  1
  O  O16  1  0.39745800  0.91556600  0.46663200  1
  O  O17  1  0.39575900  0.91604700  0.96712100  1
  O  O18  1  0.60302300  0.60475000  0.58860000  1
  O  O19  1  0.60388800  0.60831400  0.08762600  1
  O  O20  1  0.75216700  0.50584300  0.42180000  1
  O  O21  1  0.75426600  0.49436000  0.92093100  1
  O  O22  1  0.81173400  0.48193000  0.76812700  1
  O  O23  1  0.81418100  0.48377300  0.26912100  1
  O  O24  1  0.87457600  0.88543500  0.10204300  1
  O  O25  1  0.86740900  0.88593600  0.59866900  1
  O  O26  1  0.94969200  0.85148900  0.41202900  1
  O  O27  1  0.94164400  0.85470900  0.91275800  1
loop_
_geom_bond_atom_site_label_1
_geom_bond_atom_site_label_2
_geom_bond_distance
_geom_bond_site_symmetry_2
Li0 O4 2.001382 1_556
Li0 O21 2.013179 1_455
Li0 O9 2.018091 1_555
Li0 O3 2.121810 1_555
Li1 O8 2.006845 1_555
Li1 O5 2.019495 1_555
Li1 O20 2.052668 1_455
Li1 O2 2.088361 1_555
Li2 O23 2.001603 1_555
Li2 O19 2.021296 1_555
Li2 O24 2.030772 1_555
Li2 O7 2.063436 1_655
Li3 O22 1.988633 1_555
Li3 O18 2.022657 1_555
Li3 O6 2.054401 1_655
Li3 O25 2.070195 1_555
Mn0 O27 1.952933 1_555
Mn0 O17 1.994433 1_555
Mn0 O19 2.023175 1_556
Mn0 O4 2.081581 1_656
Mn0 O24 2.146857 1_556
Mn0 O21 2.175839 1_555
O0 P4 1.522272 1_455
O0 V0 1.982374 1_555
O1 P5 1.521274 1_455
O1 V1 1.991458 1_555
O2 P2 1.522520 1_545
O2 V0 2.077125 1_555
O3 P3 1.524849 1_545
O3 V1 2.073316 1_555
O4 P0 1.535691 1_555
O5 P1 1.535449 1_555
O5 V2 2.067434 1_455
O6 P1 1.528442 1_555
O6 V1 2.068460 1_555
O7 P0 1.533375 1_555
O7 V0 2.071717 1_555
O8 P7 1.535629 1_555
O8 V0 2.055775 1_555
O9 P6 1.537193 1_555
O9 V1 2.037803 1_555
O10 P4 1.539010 1_555
O10 V0 1.981126 1_555
O11 P5 1.536576 1_555
O11 V1 1.994782 1_555
O12 P0 1.614099 1_555
O12 P4 1.639742 1_555
O13 P1 1.613891 1_555
O13 P5 1.632669 1_555
O14 P7 1.615899 1_555
O14 P2 1.630562 1_555
O15 P3 1.623189 1_555
O15 P6 1.626912 1_555
O16 P2 1.536918 1_555
O16 V2 1.995747 1_555
O17 P3 1.537019 1_555
O18 P1 1.535872 1_555
O18 V2 2.037618 1_555
O19 P0 1.545817 1_555
O20 P7 1.530795 1_555
O20 V2 2.089675 1_555
O21 P6 1.517767 1_555
O22 P6 1.538598 1_555
O22 V1 2.064377 1_655
O23 P7 1.534954 1_555
O23 V0 2.063908 1_655
O24 P4 1.516088 1_565
O25 P5 1.524165 1_565
O25 V2 2.103967 1_555
O26 P2 1.520541 1_655
O26 V2 1.983560 1_555
O27 P3 1.535368 1_655
