# generated using pymatgen
data_SrP
_symmetry_space_group_name_H-M   'P 1'
_cell_length_a   8.08553955
_cell_length_b   8.08554020
_cell_length_c   6.04697283
_cell_angle_alpha   90.00000000
_cell_angle_beta   90.00000000
_cell_angle_gamma   120.00000161
_symmetry_Int_Tables_number   1
_chemical_formula_structural   SrP
_chemical_formula_sum   'Sr6 P6'
_cell_volume   342.36289376
_cell_formula_units_Z   6
loop_
 _symmetry_equiv_pos_site_id
 _symmetry_equiv_pos_as_xyz
  1  'x, y, z'
loop_
 _atom_site_type_symbol
 _atom_site_label
 _atom_site_symmetry_multiplicity
 _atom_site_fract_x
 _atom_site_fract_y
 _atom_site_fract_z
 _atom_site_occupancy
  Sr  Sr0  1  -0.00000000  0.63985189  0.50000000  1
  Sr  Sr1  1  0.36014811  0.36014811  0.50000000  1
  Sr  Sr2  1  0.63985189  0.00000000  0.50000000  1
  Sr  Sr3  1  -0.00000000  0.30490625  0.00000000  1
  Sr  Sr4  1  0.69509375  0.69509375  0.00000000  1
  Sr  Sr5  1  0.30490625  0.00000000  0.00000000  1
  P  P0  1  0.66666700  0.33333300  0.19071642  1
  P  P1  1  0.66666700  0.33333300  0.80928358  1
  P  P2  1  0.33333300  0.66666700  0.80928358  1
  P  P3  1  0.33333300  0.66666700  0.19071642  1
  P  P4  1  0.00000000  0.00000000  0.68563537  1
  P  P5  1  0.00000000  0.00000000  0.31436463  1
loop_
_geom_bond_atom_site_label_1
_geom_bond_atom_site_label_2
_geom_bond_distance
_geom_bond_site_symmetry_2
P0 P1 2.306514 1_554
P0 Sr3 3.044057 1_655
P0 Sr5 3.044062 1_555
P0 Sr4 3.044065 1_555
P0 Sr2 3.197561 1_555
P0 Sr0 3.197563 1_655
P0 Sr1 3.197567 1_555
P1 Sr3 3.044057 1_656
P1 Sr5 3.044062 1_556
P1 Sr4 3.044065 1_556
P1 Sr2 3.197561 1_555
P1 Sr0 3.197563 1_655
P1 Sr1 3.197567 1_555
P2 P3 2.306514 1_556
P2 Sr5 3.044058 1_566
P2 Sr3 3.044062 1_556
P2 Sr4 3.044065 1_556
P2 Sr0 3.197560 1_555
P2 Sr2 3.197563 1_565
P2 Sr1 3.197567 1_555
P3 Sr5 3.044058 1_565
P3 Sr3 3.044062 1_555
P3 Sr4 3.044065 1_555
P3 Sr0 3.197560 1_555
P3 Sr2 3.197563 1_565
P3 Sr1 3.197567 1_555
P4 P5 2.245064 1_555
P4 Sr5 3.113115 1_556
P4 Sr4 3.113115 1_446
P4 Sr3 3.113116 1_556
P4 Sr2 3.120861 1_455
P4 Sr1 3.120861 1_555
P4 Sr0 3.120861 1_545
P5 Sr5 3.113115 1_555
P5 Sr4 3.113115 1_445
P5 Sr3 3.113116 1_555
P5 Sr2 3.120861 1_455
P5 Sr1 3.120861 1_555
P5 Sr0 3.120861 1_545
