# generated using pymatgen
data_LiCrPO4F
_symmetry_space_group_name_H-M   'P 1'
_cell_length_a   6.29672600
_cell_length_b   10.57567800
_cell_length_c   12.70753600
_cell_angle_alpha   90.00000000
_cell_angle_beta   90.00000000
_cell_angle_gamma   90.00000000
_symmetry_Int_Tables_number   1
_chemical_formula_structural   LiCrPO4F
_chemical_formula_sum   'Li8 Cr8 P8 O32 F8'
_cell_volume   846.22210062
_cell_formula_units_Z   8
loop_
 _symmetry_equiv_pos_site_id
 _symmetry_equiv_pos_as_xyz
  1  'x, y, z'
loop_
 _atom_site_type_symbol
 _atom_site_label
 _atom_site_symmetry_multiplicity
 _atom_site_fract_x
 _atom_site_fract_y
 _atom_site_fract_z
 _atom_site_occupancy
  Li  Li0  1  0.40751000  0.70512800  0.40128500  1
  Li  Li1  1  0.30569100  0.44797300  0.64100100  1
  Li  Li2  1  0.19430900  0.44797300  0.14100100  1
  Li  Li3  1  0.09249000  0.70512800  0.90128500  1
  Li  Li4  1  0.90751000  0.20512800  0.09871500  1
  Li  Li5  1  0.80569100  0.94797300  0.85899900  1
  Li  Li6  1  0.69430900  0.94797300  0.35899900  1
  Li  Li7  1  0.59249000  0.20512800  0.59871500  1
  Cr  Cr0  1  0.00353000  0.24717400  0.88084000  1
  Cr  Cr1  1  0.25751800  0.00131600  0.74541700  1
  Cr  Cr2  1  0.24248200  0.00131600  0.24541700  1
  Cr  Cr3  1  0.49647000  0.24717400  0.38084000  1
  Cr  Cr4  1  0.50353000  0.74717400  0.61916000  1
  Cr  Cr5  1  0.75751800  0.50131600  0.75458300  1
  Cr  Cr6  1  0.74248200  0.50131600  0.25458300  1
  Cr  Cr7  1  0.99647000  0.74717400  0.11916000  1
  P  P0  1  0.00168100  0.25181700  0.31257700  1
  P  P1  1  0.16974300  0.98857600  0.99257400  1
  P  P2  1  0.33025700  0.98857600  0.49257400  1
  P  P3  1  0.49831900  0.25181700  0.81257700  1
  P  P4  1  0.50168100  0.75181700  0.18742300  1
  P  P5  1  0.66974300  0.48857600  0.50742600  1
  P  P6  1  0.83025700  0.48857600  0.00742600  1
  P  P7  1  0.99831900  0.75181700  0.68742300  1
  O  O0  1  0.99932800  0.09667900  0.97926800  1
  O  O1  1  0.03189100  0.86336300  0.99280600  1
  O  O2  1  0.03118700  0.86816400  0.76294200  1
  O  O3  1  0.03593100  0.14260900  0.23075100  1
  O  O4  1  0.20280600  0.00630600  0.59305300  1
  O  O5  1  0.19424500  0.72407500  0.62049000  1
  O  O6  1  0.18960100  0.27103700  0.38664400  1
  O  O7  1  0.17823700  0.98579300  0.39813900  1
  O  O8  1  0.32176300  0.98579300  0.89813900  1
  O  O9  1  0.31039900  0.27103700  0.88664400  1
  O  O10  1  0.30575500  0.72407500  0.12049000  1
  O  O11  1  0.29719400  0.00630600  0.09305300  1
  O  O12  1  0.46406900  0.14260900  0.73075100  1
  O  O13  1  0.46881300  0.86816400  0.26294200  1
  O  O14  1  0.46810900  0.86336300  0.49280600  1
  O  O15  1  0.50067200  0.09667900  0.47926800  1
  O  O16  1  0.49932800  0.59667900  0.52073200  1
  O  O17  1  0.53189100  0.36336300  0.50719400  1
  O  O18  1  0.53118700  0.36816400  0.73705800  1
  O  O19  1  0.53593100  0.64260900  0.26924900  1
  O  O20  1  0.70280600  0.50630600  0.90694700  1
  O  O21  1  0.69424500  0.22407500  0.87951000  1
  O  O22  1  0.68960100  0.77103700  0.11335600  1
  O  O23  1  0.67823700  0.48579300  0.10186100  1
  O  O24  1  0.82176300  0.48579300  0.60186100  1
  O  O25  1  0.81039900  0.77103700  0.61335600  1
  O  O26  1  0.80575500  0.22407500  0.37951000  1
  O  O27  1  0.79719400  0.50630600  0.40694700  1
  O  O28  1  0.96406900  0.64260900  0.76924900  1
  O  O29  1  0.96881300  0.36816400  0.23705800  1
  O  O30  1  0.96810900  0.36336300  0.00719400  1
  O  O31  1  0.00067200  0.59667900  0.02073200  1
  F  F0  1  0.02049800  0.12176100  0.76543200  1
  F  F1  1  0.00332400  0.88199800  0.22792900  1
  F  F2  1  0.49667600  0.88199800  0.72792900  1
  F  F3  1  0.47950200  0.12176100  0.26543200  1
  F  F4  1  0.52049800  0.62176100  0.73456800  1
  F  F5  1  0.50332400  0.38199800  0.27207100  1
  F  F6  1  0.99667600  0.38199800  0.77207100  1
  F  F7  1  0.97950200  0.62176100  0.23456800  1
loop_
_geom_bond_atom_site_label_1
_geom_bond_atom_site_label_2
_geom_bond_distance
_geom_bond_site_symmetry_2
Li0 O19 1.976419 1_555
Li0 O16 1.988376 1_555
Li0 O14 2.073305 1_555
Li0 O13 2.492485 1_555
Li1 O18 2.053887 1_555
Li1 O17 2.391774 1_555
Li1 O16 2.509122 1_555
Li2 O29 2.053887 1_455
Li2 O30 2.391774 1_455
Li2 O31 2.509122 1_555
Li3 O28 1.976419 1_455
Li3 O31 1.988376 1_556
Li3 O1 2.073305 1_555
Li3 O2 2.492485 1_555
Li4 O3 1.976419 1_655
Li4 O0 1.988376 1_554
Li4 O30 2.073305 1_555
Li4 O29 2.492485 1_555
Li5 O2 2.053887 1_655
Li5 O1 2.391774 1_655
Li5 O0 2.509122 1_565
Li6 O13 2.053887 1_555
Li6 O14 2.391774 1_555
Li6 O15 2.509122 1_565
Li7 O12 1.976419 1_555
Li7 O15 1.988376 1_555
Li7 O17 2.073305 1_555
Li7 O18 2.492485 1_555
Cr0 O9 1.950076 1_555
Cr0 O21 1.962817 1_455
Cr0 F0 1.980236 1_555
Cr0 F6 1.986294 1_455
Cr0 O0 2.024424 1_455
Cr0 O30 2.034145 1_456
Cr1 O4 1.967289 1_555
Cr1 F2 1.977238 1_545
Cr1 F0 1.978543 1_555
Cr1 O8 1.989219 1_545
Cr1 O12 1.989754 1_555
Cr1 O2 2.015833 1_545
Cr2 O11 1.967289 1_555
Cr2 F1 1.977238 1_545
Cr2 F3 1.978543 1_555
Cr2 O7 1.989219 1_545
Cr2 O3 1.989754 1_555
Cr2 O13 2.015833 1_545
Cr3 O6 1.950076 1_555
Cr3 O26 1.962817 1_555
Cr3 F3 1.980236 1_555
Cr3 F5 1.986294 1_555
Cr3 O15 2.024424 1_555
Cr3 O17 2.034145 1_555
Cr4 O25 1.950076 1_555
Cr4 O5 1.962817 1_555
Cr4 F4 1.980236 1_555
Cr4 F2 1.986294 1_555
Cr4 O16 2.024424 1_555
Cr4 O14 2.034145 1_555
Cr5 O20 1.967289 1_555
Cr5 F6 1.977238 1_555
Cr5 F4 1.978543 1_555
Cr5 O24 1.989219 1_555
Cr5 O28 1.989754 1_555
Cr5 O18 2.015833 1_555
Cr6 O27 1.967289 1_555
Cr6 F5 1.977238 1_555
Cr6 F7 1.978543 1_555
Cr6 O23 1.989219 1_555
Cr6 O19 1.989754 1_555
Cr6 O29 2.015833 1_555
Cr7 O22 1.950076 1_555
Cr7 O10 1.962817 1_655
Cr7 F7 1.980236 1_555
Cr7 F1 1.986294 1_655
Cr7 O31 2.024424 1_655
Cr7 O1 2.034145 1_654
O0 P1 1.577051 1_645
O1 P1 1.583351 1_555
O2 P7 1.574098 1_455
O3 P0 1.568954 1_555
O4 P2 1.519712 1_545
O5 P7 1.526930 1_455
O6 P0 1.525564 1_555
O7 P2 1.535330 1_555
O8 P1 1.535330 1_555
O9 P3 1.525564 1_555
O10 P4 1.526930 1_555
O11 P1 1.519712 1_544
O12 P3 1.568954 1_555
O13 P4 1.574098 1_555
O14 P2 1.583351 1_555
O15 P2 1.577051 1_545
O16 P5 1.577051 1_555
O17 P5 1.583351 1_555
O18 P3 1.574098 1_555
O19 P4 1.568954 1_555
O20 P6 1.519712 1_556
O21 P3 1.526930 1_555
O22 P4 1.525564 1_555
O23 P6 1.535330 1_555
O24 P5 1.535330 1_555
O25 P7 1.525564 1_555
O26 P0 1.526930 1_655
O27 P5 1.519712 1_555
O28 P7 1.568954 1_555
O29 P0 1.574098 1_655
O30 P6 1.583351 1_555
O31 P6 1.577051 1_455
