# generated using pymatgen
data_LiV5O10
_symmetry_space_group_name_H-M   'P 1'
_cell_length_a   5.11187700
_cell_length_b   5.14822253
_cell_length_c   7.81421273
_cell_angle_alpha   74.17476020
_cell_angle_beta   74.87321754
_cell_angle_gamma   78.96813037
_symmetry_Int_Tables_number   1
_chemical_formula_structural   LiV5O10
_chemical_formula_sum   'Li1 V5 O10'
_cell_volume   189.39129319
_cell_formula_units_Z   1
loop_
 _symmetry_equiv_pos_site_id
 _symmetry_equiv_pos_as_xyz
  1  'x, y, z'
loop_
 _atom_site_type_symbol
 _atom_site_label
 _atom_site_symmetry_multiplicity
 _atom_site_fract_x
 _atom_site_fract_y
 _atom_site_fract_z
 _atom_site_occupancy
  Li  Li0  1  0.49587800  0.29424500  0.55165400  1
  V  V0  1  0.03761200  0.89718600  0.68181800  1
  V  V1  1  0.49889800  0.99152600  0.99886500  1
  V  V2  1  0.98540100  0.31551500  0.88680100  1
  V  V3  1  0.97842400  0.65376700  0.14026900  1
  V  V4  1  0.99997400  0.07726700  0.31880000  1
  O  O0  1  0.23078000  0.98062900  0.85001400  1
  O  O1  1  0.78843900  0.91672200  0.51804600  1
  O  O2  1  0.78839400  0.66122400  0.94793200  1
  O  O3  1  0.24629600  0.79444300  0.21456200  1
  O  O4  1  0.18571300  0.53347500  0.69203700  1
  O  O5  1  0.79648100  0.45259200  0.33073700  1
  O  O6  1  0.75343600  0.18677900  0.77827200  1
  O  O7  1  0.20168200  0.32389300  0.06719800  1
  O  O8  1  0.22814800  0.09924700  0.47857500  1
  O  O9  1  0.78998000  0.03484200  0.12649400  1
loop_
_geom_bond_atom_site_label_1
_geom_bond_atom_site_label_2
_geom_bond_distance
_geom_bond_site_symmetry_2
Li0 O4 2.077476 1_555
Li0 O5 2.081663 1_555
Li0 O8 2.110300 1_555
Li0 O1 2.245898 1_545
Li0 O6 2.362018 1_555
O0 V2 1.970509 1_465
O0 V0 2.008649 1_555
O0 V1 2.032641 1_555
O1 V4 1.742995 1_565
O1 V0 2.000454 1_655
O2 V3 1.979963 1_556
O2 V2 1.984110 1_555
O2 V1 2.082944 1_555
O2 V0 2.292332 1_655
O3 V3 1.939162 1_455
O3 V4 1.943947 1_465
O3 V1 1.992620 1_554
O4 V2 1.821773 1_455
O4 V0 1.868994 1_555
O5 V3 1.719984 1_555
O5 V4 2.025540 1_555
O6 V2 1.922682 1_555
O6 V1 2.014881 1_545
O6 V0 2.028217 1_645
O7 V3 1.989885 1_455
O7 V2 2.018956 1_454
O7 V1 2.145069 1_544
O7 V4 2.149936 1_455
O8 V0 1.797909 1_545
O8 V4 1.954402 1_455
O9 V3 2.001025 1_545
O9 V1 2.069118 1_544
O9 V4 2.137484 1_555
O9 V2 2.166523 1_554
