# generated using pymatgen
data_K2B10H13O2
_symmetry_space_group_name_H-M   'P 1'
_cell_length_a   7.11785700
_cell_length_b   7.81455470
_cell_length_c   11.10562244
_cell_angle_alpha   107.07655215
_cell_angle_beta   92.38193647
_cell_angle_gamma   95.76212887
_symmetry_Int_Tables_number   1
_chemical_formula_structural   K2B10H13O2
_chemical_formula_sum   'K4 B20 H26 O4'
_cell_volume   585.86827141
_cell_formula_units_Z   2
loop_
 _symmetry_equiv_pos_site_id
 _symmetry_equiv_pos_as_xyz
  1  'x, y, z'
loop_
 _atom_site_type_symbol
 _atom_site_label
 _atom_site_symmetry_multiplicity
 _atom_site_fract_x
 _atom_site_fract_y
 _atom_site_fract_z
 _atom_site_occupancy
  K  K0  1  0.68897300  0.74881700  0.93226600  1
  K  K1  1  0.31102700  0.25118300  0.06773400  1
  K  K2  1  0.70910900  0.05727900  0.37655400  1
  K  K3  1  0.29089100  0.94272100  0.62344600  1
  B  B0  1  0.26586800  0.97679500  0.33829100  1
  B  B1  1  0.73413200  0.02320500  0.66170900  1
  B  B2  1  0.08561700  0.96342700  0.22926700  1
  B  B3  1  0.91438300  0.03657300  0.77073300  1
  B  B4  1  0.08265300  0.81501300  0.32927200  1
  B  B5  1  0.91734700  0.18498700  0.67072800  1
  B  B6  1  0.31890700  0.76041100  0.28467200  1
  B  B7  1  0.68109300  0.23958900  0.71532800  1
  B  B8  1  0.32088100  0.90808100  0.18492600  1
  B  B9  1  0.67911900  0.09191900  0.81507400  1
  B  B10  1  0.94751000  0.74405300  0.17782700  1
  B  B11  1  0.05249000  0.25594700  0.82217300  1
  B  B12  1  0.11185900  0.60133000  0.21671400  1
  B  B13  1  0.88814100  0.39867000  0.78328600  1
  B  B14  1  0.27957100  0.66809500  0.11462400  1
  B  B15  1  0.72042900  0.33190500  0.88537600  1
  B  B16  1  0.11591400  0.81011000  0.07583400  1
  B  B17  1  0.88408600  0.18989000  0.92416600  1
  B  B18  1  0.04738200  0.58694700  0.06212300  1
  B  B19  1  0.95261800  0.41305300  0.93787700  1
  H  H0  1  0.33324100  0.10331500  0.42507700  1
  H  H1  1  0.66675900  0.89668500  0.57492300  1
  H  H2  1  0.00735100  0.09507200  0.23473700  1
  H  H3  1  0.99264900  0.90492800  0.76526300  1
  H  H4  1  0.99835500  0.81375200  0.42099900  1
  H  H5  1  0.00164500  0.18624800  0.57900100  1
  H  H6  1  0.44546400  0.71098500  0.33678600  1
  H  H7  1  0.55453600  0.28901500  0.66321400  1
  H  H8  1  0.45099000  0.98923500  0.15068300  1
  H  H9  1  0.54901000  0.01076500  0.84931700  1
  H  H10  1  0.77696800  0.73788400  0.17823800  1
  H  H11  1  0.22303200  0.26211600  0.82176200  1
  H  H12  1  0.08741400  0.46642200  0.25014000  1
  H  H13  1  0.91258600  0.53357800  0.74986000  1
  H  H14  1  0.40466400  0.59447600  0.05849900  1
  H  H15  1  0.59533600  0.40552400  0.94150100  1
  H  H16  1  0.90442100  0.13768900  0.01523100  1
  H  H17  1  0.09557900  0.86231100  0.98476900  1
  H  H18  1  0.76028000  0.40339300  0.18771600  1
  H  H19  1  0.23972000  0.59660700  0.81228400  1
  H  H20  1  0.64902600  0.43908600  0.30780900  1
  H  H21  1  0.35097400  0.56091400  0.69219100  1
  H  H22  1  0.11944300  0.55096600  0.54403100  1
  H  H23  1  0.88055700  0.44903400  0.45596900  1
  H  H24  1  0.22513300  0.51894400  0.42076700  1
  H  H25  1  0.77486700  0.48105600  0.57923300  1
  O  O0  1  0.34348400  0.64933700  0.77446400  1
  O  O1  1  0.65651600  0.35066300  0.22553600  1
  O  O2  1  0.75709400  0.46586400  0.48828300  1
  O  O3  1  0.24290600  0.53413600  0.51171700  1
loop_
_geom_bond_atom_site_label_1
_geom_bond_atom_site_label_2
_geom_bond_distance
_geom_bond_site_symmetry_2
K0 O0 2.860197 1_555
K1 O1 2.860197 1_555
K2 O2 3.044665 1_555
K2 O1 3.253871 1_555
K3 O3 3.044665 1_555
K3 O0 3.253871 1_555
B0 H0 1.201314 1_565
B1 H1 1.201314 1_545
B2 H2 1.205630 1_565
B3 H3 1.205630 1_545
B4 H4 1.205553 1_455
B5 H5 1.205553 1_655
B6 H6 1.205581 1_555
B7 H7 1.205581 1_555
B8 H8 1.207248 1_555
B9 H9 1.207248 1_555
B10 H10 1.210257 1_555
B10 B18 1.728707 1_655
B11 H11 1.210257 1_555
B11 B19 1.728707 1_455
B12 H12 1.215684 1_555
B12 B18 1.726725 1_555
B13 H13 1.215684 1_555
B13 B19 1.726725 1_555
B14 H14 1.204437 1_555
B14 B18 1.722143 1_555
B15 H15 1.204437 1_555
B15 B19 1.722143 1_555
B16 H17 1.205043 1_554
B16 B18 1.723208 1_555
B17 H16 1.205043 1_556
B17 B19 1.723208 1_555
B18 B19 1.686087 1_454
H0 K2 2.788670 1_555
H0 K3 2.849917 1_545
H1 K3 2.788670 1_555
H1 K2 2.849917 1_565
H2 K2 2.738504 1_455
H3 K3 2.738504 1_655
H4 K3 2.874888 1_655
H4 K2 3.059066 1_565
H5 K2 2.874888 1_455
H5 K3 3.059066 1_545
H6 K2 3.041263 1_565
H7 K3 3.041263 1_545
H8 K1 2.733498 1_565
H8 K2 2.930514 1_565
H9 K0 2.733498 1_545
H9 K3 2.930514 1_545
H10 K0 2.804857 1_554
H10 K2 2.900982 1_565
H11 K1 2.804857 1_556
H11 K3 2.900982 1_545
H12 K1 2.875851 1_555
H13 K0 2.875851 1_555
H14 K1 2.731256 1_555
H14 K0 2.872975 1_554
H15 K0 2.731256 1_555
H15 K1 2.872975 1_556
H16 K1 2.922903 1_655
H17 K0 2.922903 1_455
H18 O1 0.978787 1_555
H19 O0 0.978787 1_555
H20 O1 0.977648 1_555
H21 O0 0.977648 1_555
H22 O3 0.969567 1_555
H22 K3 3.035433 1_555
H23 O2 0.969567 1_555
H23 K2 3.035433 1_555
H24 O3 0.982980 1_555
H25 O2 0.982980 1_555
