# generated using pymatgen
data_Ti3Co3(SbO8)2
_symmetry_space_group_name_H-M   'P 1'
_cell_length_a   5.79539100
_cell_length_b   5.79752546
_cell_length_c   9.32416836
_cell_angle_alpha   88.92158009
_cell_angle_beta   88.98210445
_cell_angle_gamma   60.61177421
_symmetry_Int_Tables_number   1
_chemical_formula_structural   Ti3Co3(SbO8)2
_chemical_formula_sum   'Ti3 Co3 Sb2 O16'
_cell_volume   272.90581771
_cell_formula_units_Z   1
loop_
 _symmetry_equiv_pos_site_id
 _symmetry_equiv_pos_as_xyz
  1  'x, y, z'
loop_
 _atom_site_type_symbol
 _atom_site_label
 _atom_site_symmetry_multiplicity
 _atom_site_fract_x
 _atom_site_fract_y
 _atom_site_fract_z
 _atom_site_occupancy
  Ti  Ti0  1  0.33164300  0.82634000  0.21370400  1
  Ti  Ti1  1  0.82754600  0.33148600  0.21373200  1
  Ti  Ti2  1  0.16258000  0.15182100  0.71122100  1
  Co  Co0  1  0.82650200  0.82505800  0.21106300  1
  Co  Co1  1  0.16538200  0.65450800  0.71453800  1
  Co  Co2  1  0.65587200  0.17175300  0.71181000  1
  Sb  Sb0  1  0.67903700  0.67200300  0.49088800  1
  Sb  Sb1  1  0.33970400  0.33499500  0.98508300  1
  O  O0  1  0.33355500  0.83633900  0.60022700  1
  O  O1  1  0.52184400  0.51992900  0.34400500  1
  O  O2  1  0.66288500  0.66249400  0.10422300  1
  O  O3  1  0.99483300  0.99377900  0.30883000  1
  O  O4  1  0.99422100  0.98729100  0.80894800  1
  O  O5  1  0.83830200  0.33415200  0.60146600  1
  O  O6  1  0.52580300  0.96161400  0.33763800  1
  O  O7  1  0.96482400  0.52356100  0.33713900  1
  O  O8  1  0.17164100  0.17188400  0.10474400  1
  O  O9  1  0.84105000  0.84328400  0.60150700  1
  O  O10  1  0.03454300  0.48992500  0.83680500  1
  O  O11  1  0.47857600  0.04093500  0.83719200  1
  O  O12  1  0.33162500  0.34950200  0.61238600  1
  O  O13  1  0.16961300  0.66497800  0.10062600  1
  O  O14  1  0.48115200  0.48406400  0.82753900  1
  O  O15  1  0.66706500  0.16850200  0.10041100  1
loop_
_geom_bond_atom_site_label_1
_geom_bond_atom_site_label_2
_geom_bond_distance
_geom_bond_site_symmetry_2
Co0 O7 1.913309 1_555
Co0 O6 1.914312 1_555
Co0 O2 1.930227 1_555
Co0 O3 1.934218 1_555
Co0 O13 2.006906 1_655
Co0 O15 2.008410 1_565
Co1 O12 1.822367 1_555
Co1 O10 1.850279 1_555
Co1 O4 1.906770 1_455
Co1 O14 1.920957 1_555
Co1 O9 1.962024 1_455
Co1 O0 2.031350 1_555
Co2 O12 1.891536 1_555
Co2 O11 1.920021 1_555
Co2 O14 1.924431 1_555
Co2 O4 1.943593 1_545
Co2 O9 1.965867 1_545
Co2 O5 1.991139 1_555
O0 Ti2 1.911626 1_565
O0 Sb0 2.011901 1_555
O1 Ti1 1.970195 1_555
O1 Ti0 1.972653 1_555
O1 Sb0 2.088297 1_555
O2 Ti1 1.949221 1_555
O2 Ti0 1.951088 1_555
O3 Ti0 1.910592 1_655
O3 Ti1 1.913551 1_565
O4 Ti2 1.881838 1_665
O5 Ti2 1.942787 1_655
O5 Sb0 1.983669 1_555
O6 Sb0 2.034939 1_555
O6 Ti0 2.040339 1_555
O7 Sb0 2.025364 1_555
O7 Ti1 2.036479 1_555
O8 Sb1 1.978232 1_554
O8 Ti1 2.004496 1_455
O8 Ti0 2.009711 1_545
O9 Sb0 1.979779 1_555
O10 Sb1 2.080157 1_555
O10 Ti2 2.095718 1_555
O11 Ti2 2.009772 1_555
O11 Sb1 2.039147 1_555
O12 Ti2 2.037795 1_555
O13 Ti0 1.950147 1_555
O13 Sb1 1.995313 1_554
O14 Sb1 2.044867 1_555
O15 Ti1 1.951741 1_555
O15 Sb1 1.980782 1_554
