# generated using pymatgen
data_Li(Bi3O5)4
_symmetry_space_group_name_H-M   'P 1'
_cell_length_a   8.80141098
_cell_length_b   8.80141098
_cell_length_c   8.80141098
_cell_angle_alpha   109.47122063
_cell_angle_beta   109.47122063
_cell_angle_gamma   109.47122063
_symmetry_Int_Tables_number   1
_chemical_formula_structural   Li(Bi3O5)4
_chemical_formula_sum   'Li1 Bi12 O20'
_cell_volume   524.84977079
_cell_formula_units_Z   1
loop_
 _symmetry_equiv_pos_site_id
 _symmetry_equiv_pos_as_xyz
  1  'x, y, z'
loop_
 _atom_site_type_symbol
 _atom_site_label
 _atom_site_symmetry_multiplicity
 _atom_site_fract_x
 _atom_site_fract_y
 _atom_site_fract_z
 _atom_site_occupancy
  Li  Li0  1  0.00000000  0.00000000  0.00000000  1
  Bi  Bi0  1  0.82213500  0.13925700  0.30886000  1
  Bi  Bi1  1  0.86074300  0.68287700  0.16960300  1
  Bi  Bi2  1  0.48672500  0.31712300  0.17786500  1
  Bi  Bi3  1  0.31712300  0.17786500  0.48672500  1
  Bi  Bi4  1  0.68287700  0.16960300  0.86074300  1
  Bi  Bi5  1  0.83039700  0.51327500  0.69114000  1
  Bi  Bi6  1  0.17786500  0.48672500  0.31712300  1
  Bi  Bi7  1  0.69114000  0.83039700  0.51327500  1
  Bi  Bi8  1  0.30886000  0.82213500  0.13925700  1
  Bi  Bi9  1  0.13925700  0.30886000  0.82213500  1
  Bi  Bi10  1  0.51327500  0.69114000  0.83039700  1
  Bi  Bi11  1  0.16960300  0.86074300  0.68287700  1
  O  O0  1  0.62205600  0.00000000  0.00000000  1
  O  O1  1  0.75817800  0.38034600  0.11885000  1
  O  O2  1  0.23852500  0.00000000  0.00000000  1
  O  O3  1  0.62216800  0.24182200  0.36067200  1
  O  O4  1  0.88115000  0.26149600  0.63932800  1
  O  O5  1  0.00000000  0.23852500  0.00000000  1
  O  O6  1  0.00000000  0.00000000  0.23852500  1
  O  O7  1  0.73850400  0.61965400  0.37783200  1
  O  O8  1  0.37794400  0.37794400  0.37794400  1
  O  O9  1  0.36067200  0.62216800  0.24182200  1
  O  O10  1  0.63932800  0.88115000  0.26149600  1
  O  O11  1  0.38034600  0.11885000  0.75817800  1
  O  O12  1  0.61965400  0.37783200  0.73850400  1
  O  O13  1  0.00000000  0.62205600  0.00000000  1
  O  O14  1  0.00000000  0.00000000  0.62205600  1
  O  O15  1  0.24182200  0.36067200  0.62216800  1
  O  O16  1  0.76147500  0.76147500  0.76147500  1
  O  O17  1  0.37783200  0.73850400  0.61965400  1
  O  O18  1  0.11885000  0.75817800  0.38034600  1
  O  O19  1  0.26149600  0.63932800  0.88115000  1
loop_
_geom_bond_atom_site_label_1
_geom_bond_atom_site_label_2
_geom_bond_distance
_geom_bond_site_symmetry_2
Li0 O5 2.099357 1_555
Li0 O2 2.099357 1_555
Li0 O6 2.099357 1_555
Li0 O16 2.099357 1_444
Bi0 O10 2.099516 1_545
Bi0 O0 2.267489 1_555
Bi0 O3 2.332429 1_555
Bi0 O6 2.399066 1_655
Bi0 O4 2.534020 1_555
Bi1 O18 2.099513 1_655
Bi1 O13 2.267487 1_655
Bi1 O1 2.332421 1_555
Bi1 O6 2.399074 1_665
Bi1 O7 2.534017 1_555
Bi2 O3 2.099523 1_555
Bi2 O8 2.267488 1_555
Bi2 O7 2.332424 1_555
Bi2 O2 2.399071 1_555
Bi2 O1 2.534020 1_555
Bi3 O15 2.099523 1_555
Bi3 O8 2.267488 1_555
Bi3 O12 2.332424 1_555
Bi3 O6 2.399071 1_555
Bi3 O11 2.534020 1_555
Bi4 O1 2.099513 1_556
Bi4 O0 2.267487 1_556
Bi4 O11 2.332421 1_555
Bi4 O5 2.399074 1_656
Bi4 O12 2.534017 1_555
Bi5 O12 2.099516 1_555
Bi5 O13 2.267489 1_656
Bi5 O4 2.332429 1_555
Bi5 O16 2.399066 1_555
Bi5 O3 2.534020 1_555
Bi6 O9 2.099523 1_555
Bi6 O8 2.267488 1_555
Bi6 O17 2.332424 1_555
Bi6 O5 2.399071 1_555
Bi6 O18 2.534020 1_555
Bi7 O7 2.099516 1_555
Bi7 O14 2.267489 1_665
Bi7 O10 2.332429 1_555
Bi7 O16 2.399066 1_555
Bi7 O9 2.534020 1_555
Bi8 O19 2.099516 1_554
Bi8 O13 2.267489 1_555
Bi8 O9 2.332429 1_555
Bi8 O2 2.399066 1_565
Bi8 O10 2.534020 1_555
Bi9 O4 2.099516 1_455
Bi9 O14 2.267489 1_555
Bi9 O15 2.332429 1_555
Bi9 O5 2.399066 1_556
Bi9 O19 2.534020 1_555
Bi10 O17 2.099516 1_555
Bi10 O0 2.267489 1_566
Bi10 O19 2.332429 1_555
Bi10 O16 2.399066 1_555
Bi10 O15 2.534020 1_555
Bi11 O11 2.099513 1_565
Bi11 O14 2.267487 1_565
Bi11 O18 2.332421 1_555
Bi11 O2 2.399074 1_566
Bi11 O17 2.534017 1_555
