# generated using pymatgen
data_Li12MnV7(PO4)12
_symmetry_space_group_name_H-M   'P 1'
_cell_length_a   8.73467500
_cell_length_b   8.74860814
_cell_length_c   12.16786729
_cell_angle_alpha   89.82786113
_cell_angle_beta   89.15237501
_cell_angle_gamma   89.66432238
_symmetry_Int_Tables_number   1
_chemical_formula_structural   Li12MnV7(PO4)12
_chemical_formula_sum   'Li12 Mn1 V7 P12 O48'
_cell_volume   929.70111301
_cell_formula_units_Z   1
loop_
 _symmetry_equiv_pos_site_id
 _symmetry_equiv_pos_as_xyz
  1  'x, y, z'
loop_
 _atom_site_type_symbol
 _atom_site_label
 _atom_site_symmetry_multiplicity
 _atom_site_fract_x
 _atom_site_fract_y
 _atom_site_fract_z
 _atom_site_occupancy
  Li  Li0  1  0.07317700  0.08126100  0.30254600  1
  Li  Li1  1  0.08069500  0.69765400  0.23656200  1
  Li  Li2  1  0.20684500  0.78366000  0.82551400  1
  Li  Li3  1  0.29203700  0.28171400  0.67416400  1
  Li  Li4  1  0.41639400  0.19775600  0.26206300  1
  Li  Li5  1  0.42717400  0.58065000  0.19743400  1
  Li  Li6  1  0.57425900  0.41779400  0.80350600  1
  Li  Li7  1  0.58399800  0.80256100  0.73736600  1
  Li  Li8  1  0.70898300  0.71765300  0.32427200  1
  Li  Li9  1  0.79198500  0.21842700  0.17338700  1
  Li  Li10  1  0.91623400  0.30256300  0.76312100  1
  Li  Li11  1  0.92659600  0.91924600  0.69751400  1
  Mn  Mn0  1  0.75299300  0.53896100  0.10837500  1
  V  V0  1  0.24694100  0.53015100  0.39004200  1
  V  V1  1  0.25334300  0.02927800  0.10977600  1
  V  V2  1  0.24692700  0.46211300  0.89094300  1
  V  V3  1  0.25288400  0.96203600  0.61047100  1
  V  V4  1  0.74730400  0.03792000  0.38971800  1
  V  V5  1  0.74662600  0.96967200  0.89103100  1
  V  V6  1  0.75319700  0.47009200  0.60939700  1
  P  P0  1  0.03637400  0.24791700  0.50695400  1
  P  P1  1  0.10341700  0.38280900  0.14872200  1
  P  P2  1  0.10514400  0.10480200  0.85124400  1
  P  P3  1  0.39413700  0.60477600  0.64863000  1
  P  P4  1  0.39735200  0.88261300  0.35199300  1
  P  P5  1  0.46291300  0.74767700  0.99194400  1
  P  P6  1  0.53558200  0.24863100  0.00698200  1
  P  P7  1  0.60272300  0.11722800  0.64806600  1
  P  P8  1  0.60585100  0.39571500  0.35075600  1
  P  P9  1  0.89566800  0.89731300  0.15015500  1
  P  P10  1  0.89654400  0.61681600  0.85222900  1
  P  P11  1  0.96432000  0.75249100  0.49317400  1
  O  O0  1  0.04935200  0.86708000  0.56613100  1
  O  O1  1  0.07436800  0.88870700  0.14788800  1
  O  O2  1  0.06998100  0.68176300  0.40303600  1
  O  O3  1  0.07051300  0.59458200  0.83066400  1
  O  O4  1  0.10802500  0.36564900  0.42824400  1
  O  O5  1  0.14358400  0.21535400  0.18194200  1
  O  O6  1  0.14585900  0.41171200  0.02793000  1
  O  O7  1  0.14495600  0.98272900  0.76075500  1
  O  O8  1  0.15958900  0.26581300  0.81263000  1
  O  O9  1  0.16941200  0.16861200  0.56855500  1
  O  O10  1  0.17293200  0.05096900  0.95753300  1
  O  O11  1  0.19437900  0.50107900  0.21847200  1
  O  O12  1  0.30518100  0.00109000  0.28146200  1
  O  O13  1  0.32690600  0.55181200  0.54192700  1
  O  O14  1  0.32984500  0.66941500  0.93075900  1
  O  O15  1  0.33909000  0.76585000  0.68654400  1
  O  O16  1  0.35539800  0.91066600  0.47267400  1
  O  O17  1  0.35848400  0.71480400  0.31864000  1
  O  O18  1  0.35444400  0.48265000  0.73934000  1
  O  O19  1  0.39240200  0.86529400  0.07084200  1
  O  O20  1  0.42757000  0.17875400  0.09623400  1
  O  O21  1  0.42741300  0.38644000  0.35197200  1
  O  O22  1  0.42939300  0.09538600  0.66908200  1
  O  O23  1  0.45001900  0.36627100  0.93426400  1
  O  O24  1  0.54692300  0.63122500  0.06617200  1
  O  O25  1  0.57056600  0.90399400  0.33050500  1
  O  O26  1  0.57274200  0.61469200  0.64741500  1
  O  O27  1  0.56933200  0.81770600  0.90237900  1
  O  O28  1  0.60378200  0.13146900  0.92528800  1
  O  O29  1  0.64551600  0.51906200  0.26023800  1
  O  O30  1  0.64115800  0.28518200  0.68140200  1
  O  O31  1  0.64469600  0.08870100  0.52747300  1
  O  O32  1  0.65997600  0.23442000  0.31350700  1
  O  O33  1  0.66825200  0.32278600  0.06774000  1
  O  O34  1  0.67290000  0.44803900  0.45803400  1
  O  O35  1  0.69504200  0.99902900  0.71872200  1
  O  O36  1  0.80495800  0.49934000  0.78202900  1
  O  O37  1  0.82738100  0.94888500  0.04230200  1
  O  O38  1  0.83077500  0.83226100  0.43193300  1
  O  O39  1  0.84386600  0.73873100  0.19153000  1
  O  O40  1  0.85627400  0.02170300  0.23920500  1
  O  O41  1  0.85985600  0.59176100  0.97459400  1
  O  O42  1  0.85787200  0.78465800  0.81756400  1
  O  O43  1  0.89254600  0.63472000  0.57215700  1
  O  O44  1  0.92939500  0.40315200  0.17030800  1
  O  O45  1  0.93014900  0.31873500  0.59734300  1
  O  O46  1  0.92644000  0.11434700  0.85220200  1
  O  O47  1  0.95188900  0.13297900  0.43438700  1
loop_
_geom_bond_atom_site_label_1
_geom_bond_atom_site_label_2
_geom_bond_distance
_geom_bond_site_symmetry_2
Li0 O47 1.961904 1_455
Li0 O5 1.969613 1_555
Li0 O40 2.124174 1_455
Li0 O12 2.152538 1_555
Li0 O1 2.529342 1_545
Li1 O1 1.987667 1_555
Li1 O11 1.991946 1_555
Li1 O2 2.030795 1_555
Li1 O39 2.175370 1_455
Li2 O14 1.952849 1_555
Li2 O7 1.984831 1_555
Li2 O15 2.039517 1_555
Li2 O3 2.044137 1_555
Li3 O9 1.959187 1_555
Li3 O18 2.012142 1_555
Li3 O22 2.018911 1_555
Li3 O8 2.034509 1_555
Li4 O21 1.986659 1_555
Li4 O12 1.992490 1_555
Li4 O20 2.025986 1_555
Li4 O32 2.251676 1_555
Li5 O24 1.947447 1_555
Li5 O17 1.971933 1_555
Li5 O29 2.130755 1_555
Li5 O11 2.164467 1_555
Li5 O21 2.530535 1_555
Li6 O23 1.965349 1_555
Li6 O30 1.967642 1_555
Li6 O36 2.153589 1_555
Li6 O18 2.155669 1_555
Li7 O26 1.981137 1_555
Li7 O35 1.989287 1_555
Li7 O27 2.014756 1_555
Li7 O15 2.260550 1_555
Li8 O38 1.978576 1_555
Li8 O29 1.991267 1_555
Li8 O39 1.993827 1_555
Li8 O25 2.024862 1_555
Li9 O33 1.917451 1_555
Li9 O40 1.977996 1_555
Li9 O44 2.018596 1_555
Li9 O32 2.048752 1_555
Li10 O46 1.970949 1_555
Li10 O36 1.984299 1_555
Li10 O45 2.023605 1_555
Li10 O8 2.239036 1_655
Li11 O42 1.962790 1_555
Li11 O0 1.965092 1_655
Li11 O7 2.144017 1_655
Li11 O35 2.147926 1_555
Li11 O46 2.544670 1_565
Mn0 O41 1.920949 1_554
Mn0 O24 2.040322 1_555
Mn0 O29 2.067562 1_555
Mn0 O44 2.088351 1_555
Mn0 O33 2.098082 1_555
Mn0 O39 2.181500 1_555
O0 P11 1.542169 1_455
O0 V3 2.046974 1_555
O1 P9 1.562100 1_455
O1 V1 2.041810 1_565
O2 P11 1.550816 1_455
O2 V0 2.035553 1_555
O3 P10 1.549454 1_455
O3 V2 2.064681 1_555
O4 P0 1.534181 1_555
O4 V0 1.938898 1_555
O5 P1 1.557985 1_555
O5 V1 2.075010 1_555
O6 P1 1.531134 1_555
O6 V2 1.925803 1_554
O7 P2 1.570095 1_565
O7 V3 2.052896 1_555
O8 P2 1.558330 1_555
O8 V2 2.118013 1_555
O9 P0 1.551368 1_555
O9 V3 2.011940 1_545
O10 P2 1.503588 1_555
O10 V1 1.998950 1_556
O11 P1 1.567493 1_555
O11 V0 2.160239 1_555
O12 P4 1.569827 1_545
O12 V1 2.157210 1_555
O13 P3 1.508186 1_555
O13 V0 1.995282 1_555
O14 P5 1.553062 1_555
O14 V2 2.019773 1_555
O15 P3 1.555374 1_555
O15 V3 2.089403 1_555
O16 P4 1.528398 1_555
O16 V3 1.941768 1_555
O17 P4 1.564852 1_555
O17 V0 2.073340 1_555
O18 P3 1.570332 1_555
O18 V2 2.065389 1_555
O19 P5 1.529963 1_554
O19 V1 1.929917 1_565
O20 P6 1.554246 1_555
O20 V1 2.016873 1_555
O21 P8 1.561033 1_555
O21 V0 2.058861 1_555
O22 P7 1.544567 1_555
O22 V3 2.074904 1_545
O23 P6 1.551055 1_556
O23 V2 2.033561 1_555
O24 P5 1.548382 1_554
O25 P4 1.543937 1_555
O25 V4 2.081886 1_565
O26 P3 1.562823 1_555
O26 V6 2.063342 1_555
O27 P5 1.549119 1_555
O27 V5 2.049753 1_555
O28 P6 1.541125 1_556
O28 V5 1.923953 1_545
O29 P8 1.575937 1_555
O30 P7 1.565139 1_555
O30 V6 2.080138 1_555
O31 P7 1.528088 1_555
O31 V4 1.940512 1_555
O32 P8 1.552367 1_555
O32 V4 2.095963 1_555
O33 P6 1.532110 1_555
O34 P8 1.511889 1_555
O34 V6 1.990773 1_555
O35 P7 1.569744 1_565
O35 V5 2.165226 1_555
O36 P10 1.568754 1_555
O36 V6 2.171389 1_555
O37 P9 1.515923 1_555
O37 V5 1.988339 1_554
O38 P11 1.554357 1_555
O38 V4 2.005695 1_565
O39 P9 1.542533 1_555
O40 P9 1.571117 1_545
O40 V4 2.056355 1_555
O41 P10 1.533744 1_555
O42 P10 1.562961 1_555
O42 V5 2.080336 1_555
O43 P11 1.536891 1_555
O43 V6 1.939457 1_555
O44 P1 1.548044 1_655
O45 P0 1.556136 1_655
O45 V6 2.033306 1_555
O46 P2 1.562538 1_655
O46 V5 2.071187 1_545
O47 P0 1.539047 1_655
O47 V4 2.056505 1_555
