# generated using pymatgen
data_Li7(Cu6S5)2
_symmetry_space_group_name_H-M   'P 1'
_cell_length_a   3.75458800
_cell_length_b   14.98176400
_cell_length_c   15.44943948
_cell_angle_alpha   87.54226969
_cell_angle_beta   90.00000000
_cell_angle_gamma   90.00000000
_symmetry_Int_Tables_number   1
_chemical_formula_structural   Li7(Cu6S5)2
_chemical_formula_sum   'Li14 Cu24 S20'
_cell_volume   868.23699791
_cell_formula_units_Z   2
loop_
 _symmetry_equiv_pos_site_id
 _symmetry_equiv_pos_as_xyz
  1  'x, y, z'
loop_
 _atom_site_type_symbol
 _atom_site_label
 _atom_site_symmetry_multiplicity
 _atom_site_fract_x
 _atom_site_fract_y
 _atom_site_fract_z
 _atom_site_occupancy
  Li  Li0  1  0.50000000  0.00000000  0.00000000  1
  Li  Li1  1  0.00000000  0.87564500  0.70543900  1
  Li  Li2  1  0.00000000  0.80021300  0.92097100  1
  Li  Li3  1  0.50000000  0.79838000  0.38474600  1
  Li  Li4  1  0.50000000  0.72523300  0.59885200  1
  Li  Li5  1  0.00000000  0.68488500  0.10289400  1
  Li  Li6  1  0.00000000  0.60298700  0.30368300  1
  Li  Li7  1  0.50000000  0.50000000  0.00000000  1
  Li  Li8  1  0.00000000  0.39701300  0.69631700  1
  Li  Li9  1  0.00000000  0.31511500  0.89710600  1
  Li  Li10  1  0.50000000  0.27476700  0.40114800  1
  Li  Li11  1  0.50000000  0.20162000  0.61525400  1
  Li  Li12  1  0.00000000  0.19978700  0.07902900  1
  Li  Li13  1  0.00000000  0.12435500  0.29456100  1
  Cu  Cu0  1  0.50000000  0.00457500  0.19461400  1
  Cu  Cu1  1  0.00000000  0.94784300  0.43452600  1
  Cu  Cu2  1  0.50000000  0.91615300  0.55360800  1
  Cu  Cu3  1  0.00000000  0.91348000  0.26998100  1
  Cu  Cu4  1  0.00000000  0.88677000  0.09464500  1
  Cu  Cu5  1  0.50000000  0.80363300  0.19143500  1
  Cu  Cu6  1  0.00000000  0.68597200  0.75304800  1
  Cu  Cu7  1  0.50000000  0.65800600  0.87040100  1
  Cu  Cu8  1  0.00000000  0.60220100  0.49910000  1
  Cu  Cu9  1  0.50000000  0.55103200  0.73842700  1
  Cu  Cu10  1  0.00000000  0.51537500  0.85647700  1
  Cu  Cu11  1  0.50000000  0.51045300  0.58099400  1
  Cu  Cu12  1  0.50000000  0.48954700  0.41900600  1
  Cu  Cu13  1  0.00000000  0.48462500  0.14352300  1
  Cu  Cu14  1  0.50000000  0.44896800  0.26157300  1
  Cu  Cu15  1  0.00000000  0.39779900  0.50090000  1
  Cu  Cu16  1  0.50000000  0.34199400  0.12959900  1
  Cu  Cu17  1  0.00000000  0.31402800  0.24695200  1
  Cu  Cu18  1  0.50000000  0.19636700  0.80856500  1
  Cu  Cu19  1  0.00000000  0.11323000  0.90535500  1
  Cu  Cu20  1  0.00000000  0.08652000  0.73001900  1
  Cu  Cu21  1  0.50000000  0.08384700  0.44639200  1
  Cu  Cu22  1  0.00000000  0.05215700  0.56547400  1
  Cu  Cu23  1  0.50000000  0.99542500  0.80538600  1
  S  S0  1  0.00000000  0.96417700  0.87730300  1
  S  S1  1  0.50000000  0.97864000  0.34362900  1
  S  S2  1  0.00000000  0.83037300  0.53363100  1
  S  S3  1  0.50000000  0.81796100  0.04331000  1
  S  S4  1  0.50000000  0.77324200  0.76359100  1
  S  S5  1  0.00000000  0.76392200  0.26684600  1
  S  S6  1  0.00000000  0.62767400  0.95052700  1
  S  S7  1  0.50000000  0.63873500  0.42727000  1
  S  S8  1  0.00000000  0.58148700  0.64748600  1
  S  S9  1  0.50000000  0.56945300  0.16791500  1
  S  S10  1  0.50000000  0.43054700  0.83208500  1
  S  S11  1  0.00000000  0.41851300  0.35251400  1
  S  S12  1  0.50000000  0.36126500  0.57273000  1
  S  S13  1  0.00000000  0.37232600  0.04947300  1
  S  S14  1  0.00000000  0.23607800  0.73315400  1
  S  S15  1  0.50000000  0.22675800  0.23640900  1
  S  S16  1  0.50000000  0.18203900  0.95669000  1
  S  S17  1  0.00000000  0.16962700  0.46636900  1
  S  S18  1  0.50000000  0.02136000  0.65637100  1
  S  S19  1  0.00000000  0.03582300  0.12269700  1
loop_
_geom_bond_atom_site_label_1
_geom_bond_atom_site_label_2
_geom_bond_distance
_geom_bond_site_symmetry_2
Li0 S19 2.737302 1_655
Li0 S19 2.737302 1_555
Li0 S0 2.737302 1_544
Li0 S0 2.737302 1_644
Li0 S16 2.780141 1_554
Li0 S3 2.780141 1_545
Li1 S4 2.562591 1_455
Li1 S4 2.562591 1_555
Li1 S2 2.767659 1_555
Li1 S18 2.953432 1_565
Li1 S18 2.953432 1_465
Li2 S0 2.519377 1_555
Li2 S6 2.605606 1_555
Li2 S3 2.685218 1_456
Li2 S3 2.685218 1_556
Li3 S7 2.453035 1_555
Li3 S5 2.681270 1_655
Li3 S5 2.681270 1_555
Li3 S1 2.747672 1_555
Li3 S2 3.023144 1_555
Li3 S2 3.023144 1_655
Li4 S2 2.623856 1_555
Li4 S2 2.623856 1_655
Li4 S4 2.674322 1_555
Li4 S8 2.930506 1_555
Li4 S8 2.930506 1_655
Li5 S6 2.539477 1_554
Li5 S9 2.715709 1_555
Li5 S9 2.715709 1_455
Li5 S5 2.841704 1_555
Li5 S3 2.861663 1_455
Li5 S3 2.861663 1_555
Li6 S5 2.453479 1_555
Li6 S7 2.746704 1_455
Li6 S7 2.746704 1_555
Li6 S11 2.833480 1_555
Li6 S9 2.875185 1_455
Li6 S9 2.875185 1_555
Li7 S13 2.764377 1_655
Li7 S13 2.764377 1_555
Li7 S6 2.764377 1_554
Li7 S6 2.764377 1_654
Li7 S9 2.836202 1_555
Li7 S10 2.836202 1_554
Li8 S14 2.453479 1_555
Li8 S12 2.746704 1_455
Li8 S12 2.746704 1_555
Li8 S8 2.833480 1_555
Li8 S10 2.875185 1_455
Li8 S10 2.875185 1_555
Li9 S13 2.539477 1_556
Li9 S10 2.715709 1_455
Li9 S10 2.715709 1_555
Li9 S14 2.841704 1_555
Li9 S16 2.861663 1_455
Li9 S16 2.861663 1_555
Li10 S17 2.623856 1_555
Li10 S17 2.623856 1_655
Li10 S15 2.674322 1_555
Li10 S11 2.930506 1_555
Li10 S11 2.930506 1_655
Li11 S12 2.453035 1_555
Li11 S14 2.681270 1_555
Li11 S14 2.681270 1_655
Li11 S18 2.747672 1_555
Li11 S17 3.023144 1_655
Li11 S17 3.023144 1_555
Li12 S19 2.519377 1_555
Li12 S13 2.605606 1_555
Li12 S16 2.685218 1_554
Li12 S16 2.685218 1_454
Li13 S15 2.562591 1_455
Li13 S15 2.562591 1_555
Li13 S17 2.767659 1_555
Li13 S1 2.953432 1_545
Li13 S1 2.953432 1_445
Cu0 S19 2.221099 1_555
Cu0 S19 2.221099 1_655
Cu0 S1 2.318269 1_545
Cu0 Li0 3.010395 1_555
Cu1 S2 2.282650 1_555
Cu1 S1 2.377736 1_455
Cu1 S1 2.377736 1_555
Cu2 S18 2.284634 1_565
Cu2 S2 2.303276 1_555
Cu2 S2 2.303276 1_655
Cu3 S5 2.243242 1_555
Cu3 S1 2.422214 1_555
Cu3 S1 2.422214 1_455
Cu4 S19 2.292915 1_565
Cu4 S3 2.299145 1_455
Cu4 S3 2.299145 1_555
Cu4 Li0 2.885703 1_465
Cu4 Li0 2.885703 1_565
Cu4 Li5 3.021812 1_555
Cu5 S5 2.275104 1_655
Cu5 S5 2.275104 1_555
Cu5 S3 2.289311 1_555
Cu5 Li5 2.961276 1_555
Cu5 Li5 2.961276 1_655
Cu6 S4 2.297493 1_555
Cu6 S4 2.297493 1_455
Cu6 S8 2.308480 1_555
Cu7 S6 2.283614 1_655
Cu7 S6 2.283614 1_555
Cu7 S4 2.336507 1_555
Cu7 Li7 3.034157 1_556
Cu8 S7 2.236791 1_455
Cu8 S7 2.236791 1_555
Cu8 S8 2.300165 1_555
Cu9 S10 2.264509 1_555
Cu9 S8 2.377273 1_555
Cu9 S8 2.377273 1_655
Cu10 S6 2.269697 1_555
Cu10 S10 2.307041 1_455
Cu10 S10 2.307041 1_555
Cu10 Li7 2.906910 1_456
Cu10 Li7 2.906910 1_556
Cu10 Li9 3.038745 1_555
Cu11 S12 2.244202 1_555
Cu11 S8 2.409526 1_655
Cu11 S8 2.409526 1_555
Cu12 S7 2.244202 1_555
Cu12 S11 2.409526 1_555
Cu12 S11 2.409526 1_655
Cu13 S13 2.269697 1_555
Cu13 S9 2.307041 1_555
Cu13 S9 2.307041 1_455
Cu13 Li7 2.906910 1_455
Cu13 Li7 2.906910 1_555
Cu13 Li5 3.038745 1_555
Cu14 S9 2.264509 1_555
Cu14 S11 2.377273 1_555
Cu14 S11 2.377273 1_655
Cu15 S12 2.236791 1_555
Cu15 S12 2.236791 1_455
Cu15 S11 2.300165 1_555
Cu16 S13 2.283614 1_555
Cu16 S13 2.283614 1_655
Cu16 S15 2.336507 1_555
Cu16 Li7 3.034157 1_555
Cu17 S15 2.297493 1_555
Cu17 S15 2.297493 1_455
Cu17 S11 2.308480 1_555
Cu18 S14 2.275104 1_555
Cu18 S14 2.275104 1_655
Cu18 S16 2.289311 1_555
Cu18 Li9 2.961276 1_655
Cu18 Li9 2.961276 1_555
Cu19 S0 2.292915 1_545
Cu19 S16 2.299145 1_455
Cu19 S16 2.299145 1_555
Cu19 Li0 2.885703 1_556
Cu19 Li0 2.885703 1_456
Cu19 Li9 3.021812 1_555
Cu20 S14 2.243242 1_555
Cu20 S18 2.422214 1_555
Cu20 S18 2.422214 1_455
Cu21 S1 2.284634 1_545
Cu21 S17 2.303276 1_655
Cu21 S17 2.303276 1_555
Cu22 S17 2.282650 1_555
Cu22 S18 2.377736 1_455
Cu22 S18 2.377736 1_555
Cu23 S0 2.221099 1_555
Cu23 S0 2.221099 1_655
Cu23 S18 2.318269 1_565
Cu23 Li0 3.010395 1_566
