# generated using pymatgen
data_Sr2C2N3
_symmetry_space_group_name_H-M   'P 1'
_cell_length_a   10.19065465
_cell_length_b   10.19065465
_cell_length_c   6.93190200
_cell_angle_alpha   90.00000000
_cell_angle_beta   90.00000000
_cell_angle_gamma   120.00000424
_symmetry_Int_Tables_number   1
_chemical_formula_structural   Sr2C2N3
_chemical_formula_sum   'Sr8 C8 N12'
_cell_volume   623.42928046
_cell_formula_units_Z   4
loop_
 _symmetry_equiv_pos_site_id
 _symmetry_equiv_pos_as_xyz
  1  'x, y, z'
loop_
 _atom_site_type_symbol
 _atom_site_label
 _atom_site_symmetry_multiplicity
 _atom_site_fract_x
 _atom_site_fract_y
 _atom_site_fract_z
 _atom_site_occupancy
  Sr  Sr0  1  0.33333300  0.66666700  0.75000000  1
  Sr  Sr1  1  0.66666700  0.33333300  0.25000000  1
  Sr  Sr2  1  0.19792400  0.80207600  0.25000000  1
  Sr  Sr3  1  0.19792400  0.39584800  0.25000000  1
  Sr  Sr4  1  0.60415200  0.80207600  0.25000000  1
  Sr  Sr5  1  0.80207600  0.19792400  0.75000000  1
  Sr  Sr6  1  0.80207600  0.60415200  0.75000000  1
  Sr  Sr7  1  0.39584800  0.19792400  0.75000000  1
  C  C0  1  0.50000000  0.50000000  0.50000000  1
  C  C1  1  0.50000000  0.00000000  0.50000000  1
  C  C2  1  0.00000000  0.50000000  0.50000000  1
  C  C3  1  0.50000000  0.50000000  0.00000000  1
  C  C4  1  0.50000000  0.00000000  0.00000000  1
  C  C5  1  0.00000000  0.50000000  0.00000000  1
  C  C6  1  0.00000000  0.00000000  0.25000000  1
  C  C7  1  0.00000000  0.00000000  0.75000000  1
  N  N0  1  0.56933800  0.43066200  0.52895800  1
  N  N1  1  0.56933800  0.13867600  0.52895800  1
  N  N2  1  0.86132400  0.43066200  0.52895800  1
  N  N3  1  0.43066200  0.56933800  0.47104200  1
  N  N4  1  0.43066200  0.86132400  0.47104200  1
  N  N5  1  0.13867600  0.56933800  0.47104200  1
  N  N6  1  0.43066200  0.56933800  0.02895800  1
  N  N7  1  0.43066200  0.86132400  0.02895800  1
  N  N8  1  0.13867600  0.56933800  0.02895800  1
  N  N9  1  0.56933800  0.43066200  0.97104200  1
  N  N10  1  0.56933800  0.13867600  0.97104200  1
  N  N11  1  0.86132400  0.43066200  0.97104200  1
loop_
_geom_bond_atom_site_label_1
_geom_bond_atom_site_label_2
_geom_bond_distance
_geom_bond_site_symmetry_2
C0 N0 1.240219 1_555
C0 N3 1.240219 1_555
C1 N1 1.240219 1_555
C1 N4 1.240219 1_545
C2 N2 1.240219 1_455
C2 N5 1.240219 1_555
C3 N6 1.240219 1_555
C3 N9 1.240219 1_554
C4 N7 1.240219 1_545
C4 N10 1.240219 1_554
C5 N8 1.240219 1_555
C5 N11 1.240219 1_454
N0 Sr1 2.586602 1_555
N0 Sr7 2.627834 1_555
N0 Sr6 2.627834 1_555
N1 Sr1 2.586596 1_555
N1 Sr5 2.627834 1_555
N1 Sr7 2.627834 1_555
N2 Sr1 2.586596 1_555
N2 Sr5 2.627834 1_555
N2 Sr6 2.627834 1_555
N3 Sr0 2.586602 1_555
N3 Sr4 2.627834 1_555
N3 Sr3 2.627834 1_555
N4 Sr0 2.586596 1_555
N4 Sr2 2.627834 1_555
N4 Sr4 2.627834 1_555
N5 Sr0 2.586596 1_555
N5 Sr2 2.627834 1_555
N5 Sr3 2.627834 1_555
N6 Sr0 2.586602 1_554
N6 Sr3 2.627834 1_555
N6 Sr4 2.627834 1_555
N7 Sr0 2.586596 1_554
N7 Sr2 2.627834 1_555
N7 Sr4 2.627834 1_555
N8 Sr0 2.586596 1_554
N8 Sr2 2.627834 1_555
N8 Sr3 2.627834 1_555
N9 Sr1 2.586602 1_556
N9 Sr7 2.627834 1_555
N9 Sr6 2.627834 1_555
N10 Sr1 2.586596 1_556
N10 Sr5 2.627834 1_555
N10 Sr7 2.627834 1_555
N11 Sr1 2.586596 1_556
N11 Sr5 2.627834 1_555
N11 Sr6 2.627834 1_555
