# generated using pymatgen
data_Li4V3Ni3(WO8)2
_symmetry_space_group_name_H-M   'P 1'
_cell_length_a   5.95142260
_cell_length_b   5.95142260
_cell_length_c   9.72156881
_cell_angle_alpha   89.84806814
_cell_angle_beta   89.84806814
_cell_angle_gamma   60.51834890
_symmetry_Int_Tables_number   1
_chemical_formula_structural   Li4V3Ni3(WO8)2
_chemical_formula_sum   'Li4 V3 Ni3 W2 O16'
_cell_volume   299.74456885
_cell_formula_units_Z   1
loop_
 _symmetry_equiv_pos_site_id
 _symmetry_equiv_pos_as_xyz
  1  'x, y, z'
loop_
 _atom_site_type_symbol
 _atom_site_label
 _atom_site_symmetry_multiplicity
 _atom_site_fract_x
 _atom_site_fract_y
 _atom_site_fract_z
 _atom_site_occupancy
  Li  Li0  1  0.66344500  0.66344500  0.09672000  1
  Li  Li1  1  0.00198200  0.00198200  0.01310100  1
  Li  Li2  1  0.99935200  0.99935200  0.51056400  1
  Li  Li3  1  0.33208100  0.33208100  0.59515300  1
  V  V0  1  0.34476800  0.83669900  0.78278200  1
  V  V1  1  0.83669900  0.34476800  0.78278200  1
  V  V2  1  0.17503800  0.17503800  0.27620400  1
  Ni  Ni0  1  0.82915100  0.82915100  0.78865200  1
  Ni  Ni1  1  0.16811500  0.65928400  0.28875800  1
  Ni  Ni2  1  0.65928400  0.16811500  0.28875800  1
  W  W0  1  0.66629100  0.66629100  0.51020500  1
  W  W1  1  0.34040100  0.34040100  0.01053400  1
  O  O0  1  0.34632600  0.83050500  0.40973700  1
  O  O1  1  0.51975100  0.51975100  0.64719900  1
  O  O2  1  0.65865000  0.65865000  0.89480300  1
  O  O3  1  0.00168300  0.00168300  0.69893800  1
  O  O4  1  0.00938700  0.00938700  0.20263600  1
  O  O5  1  0.83050500  0.34632600  0.40973700  1
  O  O6  1  0.51568400  0.95971900  0.64970000  1
  O  O7  1  0.95971900  0.51568400  0.64970000  1
  O  O8  1  0.17770800  0.17770800  0.90812500  1
  O  O9  1  0.82838100  0.82838100  0.41408300  1
  O  O10  1  0.03802300  0.46851700  0.14849500  1
  O  O11  1  0.46851700  0.03802300  0.14849500  1
  O  O12  1  0.31666500  0.31666500  0.39078300  1
  O  O13  1  0.17540800  0.65969600  0.91285600  1
  O  O14  1  0.47712100  0.47712100  0.14975100  1
  O  O15  1  0.65969600  0.17540800  0.91285600  1
loop_
_geom_bond_atom_site_label_1
_geom_bond_atom_site_label_2
_geom_bond_distance
_geom_bond_site_symmetry_2
Li0 O2 1.963720 1_554
Li0 O14 1.982255 1_555
Li0 O10 2.006523 1_655
Li0 O11 2.006523 1_565
Li1 O4 1.844383 1_555
Li1 O13 2.024953 1_544
Li1 O15 2.024953 1_454
Li1 O8 2.072244 1_554
Li2 O3 1.831521 1_665
Li2 O9 1.994905 1_555
Li2 O5 2.046160 1_565
Li2 O0 2.046160 1_655
Li3 O12 1.993594 1_555
Li3 O1 1.996201 1_555
Li3 O6 1.999897 1_545
Li3 O7 1.999897 1_455
Ni0 O3 1.974240 1_665
Ni0 O2 2.031413 1_555
Ni0 O6 2.118925 1_555
Ni0 O7 2.118925 1_555
Ni0 O15 2.163966 1_565
Ni0 O13 2.163966 1_655
Ni1 O4 1.998087 1_565
Ni1 O12 2.035363 1_555
Ni1 O14 2.101359 1_555
Ni1 O9 2.139130 1_455
Ni1 O0 2.150176 1_555
Ni1 O10 2.150994 1_555
Ni2 O4 1.998087 1_655
Ni2 O12 2.035363 1_555
Ni2 O14 2.101359 1_555
Ni2 O9 2.139130 1_545
Ni2 O5 2.150176 1_555
Ni2 O11 2.150994 1_555
O0 W0 1.925681 1_555
O0 V2 2.205507 1_565
O1 W0 2.007785 1_555
O1 V1 2.110054 1_555
O1 V0 2.110054 1_555
O2 V0 1.963340 1_555
O2 V1 1.963340 1_555
O3 V0 1.956739 1_545
O3 V1 1.956739 1_455
O4 V2 1.849181 1_555
O5 W0 1.925681 1_555
O5 V2 2.205507 1_655
O6 V0 1.991375 1_555
O6 W0 2.038991 1_555
O7 V1 1.991375 1_555
O7 W0 2.038991 1_555
O8 W1 1.949159 1_556
O8 V0 2.147730 1_545
O8 V1 2.147730 1_455
O9 W0 1.908080 1_555
O10 V2 1.961887 1_555
O10 W1 2.064149 1_555
O11 V2 1.961887 1_555
O11 W1 2.064149 1_555
O12 V2 1.835999 1_555
O13 W1 1.906738 1_556
O13 V0 2.180805 1_555
O14 W1 1.954280 1_555
O15 W1 1.906738 1_556
O15 V1 2.180805 1_555
