# generated using pymatgen
data_Ba2Mg3H10
_symmetry_space_group_name_H-M   'P 1'
_cell_length_a   9.44990165
_cell_length_b   9.44990165
_cell_length_c   7.86371561
_cell_angle_alpha   69.16747279
_cell_angle_beta   69.16747279
_cell_angle_gamma   36.07487587
_symmetry_Int_Tables_number   1
_chemical_formula_structural   Ba2Mg3H10
_chemical_formula_sum   'Ba4 Mg6 H20'
_cell_volume   383.49358070
_cell_formula_units_Z   2
loop_
 _symmetry_equiv_pos_site_id
 _symmetry_equiv_pos_as_xyz
  1  'x, y, z'
loop_
 _atom_site_type_symbol
 _atom_site_label
 _atom_site_symmetry_multiplicity
 _atom_site_fract_x
 _atom_site_fract_y
 _atom_site_fract_z
 _atom_site_occupancy
  Ba  Ba0  1  0.28557460  0.28557460  0.30551687  1
  Ba  Ba1  1  0.71442540  0.71442540  0.69448313  1
  Ba  Ba2  1  0.38509961  0.38509961  0.72354572  1
  Ba  Ba3  1  0.61490039  0.61490039  0.27645428  1
  Mg  Mg0  1  0.07339689  0.07339689  0.55459286  1
  Mg  Mg1  1  0.92660311  0.92660311  0.44540714  1
  Mg  Mg2  1  0.17314252  0.17314252  0.98822887  1
  Mg  Mg3  1  0.82685748  0.82685748  0.01177113  1
  Mg  Mg4  1  0.74532363  0.25467637  0.00000000  1
  Mg  Mg5  1  0.25467637  0.74532363  0.00000000  1
  H  H0  1  0.85054417  0.36797822  0.98350039  1
  H  H1  1  0.36797822  0.85054417  0.98350039  1
  H  H2  1  0.14945583  0.63202178  0.01649961  1
  H  H3  1  0.63202178  0.14945583  0.01649961  1
  H  H4  1  0.91453991  0.38559544  0.51561083  1
  H  H5  1  0.38559544  0.91453991  0.51561083  1
  H  H6  1  0.08546009  0.61440456  0.48438917  1
  H  H7  1  0.61440456  0.08546009  0.48438917  1
  H  H8  1  0.02323982  0.02323982  0.82307043  1
  H  H9  1  0.97676018  0.97676018  0.17692957  1
  H  H10  1  0.13473084  0.13473084  0.25487774  1
  H  H11  1  0.86526916  0.86526916  0.74512226  1
  H  H12  1  0.23211973  0.23211973  0.72744684  1
  H  H13  1  0.76788027  0.76788027  0.27255316  1
  H  H14  1  0.52346593  0.52346593  0.82003512  1
  H  H15  1  0.47653407  0.47653407  0.17996488  1
  H  H16  1  0.78189989  0.21810011  0.50000000  1
  H  H17  1  0.21810011  0.78189989  0.50000000  1
  H  H18  1  -0.00000000  0.50000000  0.00000000  1
  H  H19  1  0.50000000  0.00000000  0.00000000  1
loop_
_geom_bond_atom_site_label_1
_geom_bond_atom_site_label_2
_geom_bond_distance
_geom_bond_site_symmetry_2
Ba0 H7 2.632213 1_555
Ba0 H6 2.632213 1_555
Ba0 H2 2.741874 1_555
Ba0 H3 2.741874 1_555
Ba0 H5 2.747713 1_545
Ba0 H4 2.747713 1_455
Ba0 H10 2.883494 1_555
Ba0 H13 2.965088 1_455
Ba0 H13 2.965088 1_545
Ba0 H18 3.077353 1_555
Ba0 H19 3.077353 1_555
Ba0 H12 3.089868 1_555
Ba0 H15 3.196410 1_555
Ba1 H5 2.632213 1_555
Ba1 H4 2.632213 1_555
Ba1 H0 2.741874 1_555
Ba1 H1 2.741874 1_555
Ba1 H6 2.747713 1_655
Ba1 H7 2.747713 1_565
Ba1 H11 2.883494 1_555
Ba1 H12 2.965088 1_565
Ba1 H12 2.965088 1_655
Ba1 H19 3.077353 1_566
Ba1 H18 3.077353 1_656
Ba1 H13 3.089868 1_555
Ba1 H14 3.196410 1_555
Ba2 H6 2.687157 1_555
Ba2 H7 2.687157 1_555
Ba2 H16 2.712966 1_555
Ba2 H17 2.712966 1_555
Ba2 H3 2.736010 1_556
Ba2 H2 2.736010 1_556
Ba2 H12 2.737869 1_555
Ba2 H14 2.858343 1_555
Ba2 H11 2.944884 1_545
Ba2 H11 2.944884 1_455
Ba2 H19 2.968650 1_556
Ba2 H18 2.968650 1_556
Ba3 H5 2.687157 1_555
Ba3 H4 2.687157 1_555
Ba3 H16 2.712966 1_555
Ba3 H17 2.712966 1_555
Ba3 H1 2.736010 1_554
Ba3 H0 2.736010 1_554
Ba3 H13 2.737869 1_555
Ba3 H15 2.858343 1_555
Ba3 H10 2.944884 1_655
Ba3 H10 2.944884 1_565
Ba3 H19 2.968650 1_565
Ba3 H18 2.968650 1_655
H0 Mg2 1.908809 1_655
H0 Mg4 1.918923 1_556
H1 Mg2 1.908809 1_565
H1 Mg5 1.918923 1_556
H2 Mg3 1.908809 1_455
H2 Mg5 1.918923 1_555
H3 Mg3 1.908809 1_545
H3 Mg4 1.918923 1_555
H4 Mg0 1.891107 1_655
H5 Mg0 1.891107 1_565
H6 Mg1 1.891107 1_455
H7 Mg1 1.891107 1_545
H8 Mg0 1.961186 1_555
H8 Mg5 1.974034 1_546
H8 Mg4 1.974034 1_456
H9 Mg1 1.961186 1_555
H9 Mg5 1.974034 1_655
H9 Mg4 1.974034 1_565
H10 Mg2 1.946933 1_554
H10 Mg0 2.196930 1_555
H11 Mg3 1.946933 1_556
H11 Mg1 2.196930 1_555
H12 Mg2 1.924294 1_555
H13 Mg3 1.924294 1_555
H14 Mg4 1.948153 1_556
H14 Mg5 1.948153 1_556
H15 Mg5 1.948153 1_555
H15 Mg4 1.948153 1_555
H16 Mg0 1.994174 1_655
H16 Mg1 1.994174 1_545
H17 Mg0 1.994174 1_565
H17 Mg1 1.994174 1_455
H18 Mg2 2.037737 1_554
H18 Mg3 2.037737 1_455
H19 Mg2 2.037737 1_554
H19 Mg3 2.037737 1_545
