# generated using pymatgen
data_Li3LaO3
_symmetry_space_group_name_H-M   'P 1'
_cell_length_a   6.07280887
_cell_length_b   6.07280887
_cell_length_c   11.15924500
_cell_angle_alpha   90.00000000
_cell_angle_beta   90.00000000
_cell_angle_gamma   120.00000943
_symmetry_Int_Tables_number   1
_chemical_formula_structural   Li3LaO3
_chemical_formula_sum   'Li12 La4 O12'
_cell_volume   356.40568916
_cell_formula_units_Z   4
loop_
 _symmetry_equiv_pos_site_id
 _symmetry_equiv_pos_as_xyz
  1  'x, y, z'
loop_
 _atom_site_type_symbol
 _atom_site_label
 _atom_site_symmetry_multiplicity
 _atom_site_fract_x
 _atom_site_fract_y
 _atom_site_fract_z
 _atom_site_occupancy
  Li  Li0  1  0.05845600  0.36478800  0.55761600  1
  Li  Li1  1  0.94154400  0.30633200  0.05761600  1
  Li  Li2  1  0.36478800  0.05845600  0.05761600  1
  Li  Li3  1  0.05845600  0.69366800  0.94238400  1
  Li  Li4  1  0.30633200  0.94154400  0.55761600  1
  Li  Li5  1  0.94154400  0.63521200  0.44238400  1
  Li  Li6  1  0.36478800  0.30633200  0.44238400  1
  Li  Li7  1  0.63521200  0.69366800  0.55761600  1
  Li  Li8  1  0.69366800  0.63521200  0.05761600  1
  Li  Li9  1  0.30633200  0.36478800  0.94238400  1
  Li  Li10  1  0.63521200  0.94154400  0.94238400  1
  Li  Li11  1  0.69366800  0.05845600  0.44238400  1
  La  La0  1  0.33333300  0.66666700  0.25000000  1
  La  La1  1  0.66666700  0.33333300  0.75000000  1
  La  La2  1  0.00000000  0.00000000  0.75000000  1
  La  La3  1  0.00000000  0.00000000  0.25000000  1
  O  O0  1  0.03555700  0.33259400  0.38278100  1
  O  O1  1  0.96444300  0.29703700  0.88278100  1
  O  O2  1  0.03555700  0.70296300  0.11721900  1
  O  O3  1  0.96444300  0.66740600  0.61721900  1
  O  O4  1  0.29703700  0.96444300  0.38278100  1
  O  O5  1  0.33259400  0.03555700  0.88278100  1
  O  O6  1  0.70296300  0.66740600  0.88278100  1
  O  O7  1  0.33259400  0.29703700  0.61721900  1
  O  O8  1  0.66740600  0.70296300  0.38278100  1
  O  O9  1  0.29703700  0.33259400  0.11721900  1
  O  O10  1  0.66740600  0.96444300  0.11721900  1
  O  O11  1  0.70296300  0.03555700  0.61721900  1
loop_
_geom_bond_atom_site_label_1
_geom_bond_atom_site_label_2
_geom_bond_distance
_geom_bond_site_symmetry_2
Li0 O0 1.958795 1_555
Li0 O7 2.016965 1_555
Li0 O11 2.187263 1_455
Li0 O3 2.279220 1_455
Li1 O1 1.958795 1_554
Li1 O10 2.016965 1_545
Li1 O9 2.187263 1_655
Li1 O2 2.279220 1_655
Li2 O5 1.958795 1_554
Li2 O9 2.016965 1_555
Li2 O2 2.187263 1_545
Li2 O10 2.279220 1_545
Li3 O2 1.958795 1_556
Li3 O5 2.016965 1_565
Li3 O6 2.187263 1_455
Li3 O1 2.279220 1_455
Li4 O4 1.958795 1_555
Li4 O3 2.016965 1_455
Li4 O7 2.187263 1_565
Li4 O11 2.279220 1_565
Li5 O3 1.958795 1_555
Li5 O8 2.016965 1_555
Li5 O4 2.187263 1_655
Li5 O0 2.279220 1_655
Li6 O7 1.958795 1_555
Li6 O4 2.016965 1_545
Li6 O0 2.187263 1_555
Li6 O8 2.279220 1_555
Li7 O8 1.958795 1_555
Li7 O11 2.016965 1_565
Li7 O3 2.187263 1_555
Li7 O7 2.279220 1_555
Li8 O6 1.958795 1_554
Li8 O2 2.016965 1_655
Li8 O10 2.187263 1_555
Li8 O9 2.279220 1_555
Li9 O9 1.958795 1_556
Li9 O1 2.016965 1_455
Li9 O5 2.187263 1_555
Li9 O6 2.279220 1_555
Li10 O10 1.958795 1_556
Li10 O6 2.016965 1_555
Li10 O1 2.187263 1_565
Li10 O5 2.279220 1_565
Li11 O11 1.958795 1_555
Li11 O0 2.016965 1_655
Li11 O8 2.187263 1_545
Li11 O4 2.279220 1_545
La0 O2 2.431625 1_555
La0 O4 2.431625 1_555
La0 O10 2.431627 1_555
La0 O0 2.431627 1_555
La0 O9 2.431629 1_555
La0 O8 2.431629 1_555
La1 O11 2.431625 1_555
La1 O1 2.431625 1_555
La1 O5 2.431627 1_555
La1 O3 2.431627 1_555
La1 O7 2.431629 1_555
La1 O6 2.431629 1_555
La2 O6 2.426014 1_445
La2 O7 2.426014 1_555
La2 O3 2.426014 1_445
La2 O5 2.426014 1_555
La2 O11 2.426014 1_455
La2 O1 2.426014 1_455
La3 O8 2.426014 1_445
La3 O9 2.426014 1_555
La3 O0 2.426014 1_555
La3 O10 2.426014 1_445
La3 O4 2.426014 1_545
La3 O2 2.426014 1_545
