# generated using pymatgen
data_Li4V3P8O29
_symmetry_space_group_name_H-M   'P 1'
_cell_length_a   9.77579869
_cell_length_b   9.77579869
_cell_length_c   14.01746580
_cell_angle_alpha   89.85289135
_cell_angle_beta   89.85289135
_cell_angle_gamma   60.30953350
_symmetry_Int_Tables_number   1
_chemical_formula_structural   Li4V3P8O29
_chemical_formula_sum   'Li8 V6 P16 O58'
_cell_volume   1163.72102815
_cell_formula_units_Z   2
loop_
 _symmetry_equiv_pos_site_id
 _symmetry_equiv_pos_as_xyz
  1  'x, y, z'
loop_
 _atom_site_type_symbol
 _atom_site_label
 _atom_site_symmetry_multiplicity
 _atom_site_fract_x
 _atom_site_fract_y
 _atom_site_fract_z
 _atom_site_occupancy
  Li  Li0  1  0.91210500  0.77124700  0.06034600  1
  Li  Li1  1  0.77124700  0.91210500  0.56034600  1
  Li  Li2  1  0.90620300  0.31824300  0.55581900  1
  Li  Li3  1  0.31824300  0.90620300  0.05581900  1
  Li  Li4  1  0.67985700  0.09519200  0.94184100  1
  Li  Li5  1  0.09519200  0.67985700  0.44184100  1
  Li  Li6  1  0.22580600  0.08734300  0.44116800  1
  Li  Li7  1  0.08734300  0.22580600  0.94116800  1
  V  V0  1  0.99752500  0.43456300  0.75039000  1
  V  V1  1  0.56691700  0.00274300  0.74973200  1
  V  V2  1  0.56763000  0.43263100  0.25035800  1
  V  V3  1  0.43263100  0.56763000  0.75035800  1
  V  V4  1  0.43456300  0.99752500  0.25039000  1
  V  V5  1  0.00274300  0.56691700  0.24973200  1
  P  P0  1  0.91150400  0.77048800  0.84352800  1
  P  P1  1  0.77048800  0.91150400  0.34352800  1
  P  P2  1  0.91116500  0.31971600  0.33886600  1
  P  P3  1  0.66794300  0.66626200  0.62838700  1
  P  P4  1  0.66626200  0.66794300  0.12838700  1
  P  P5  1  0.76741100  0.31604300  0.84322600  1
  P  P6  1  0.68345400  0.23312300  0.65647800  1
  P  P7  1  0.31971600  0.91116500  0.83886600  1
  P  P8  1  0.68203400  0.08943200  0.16058400  1
  P  P9  1  0.31604300  0.76741100  0.34322600  1
  P  P10  1  0.23312300  0.68345400  0.15647800  1
  P  P11  1  0.33270800  0.33366600  0.87114500  1
  P  P12  1  0.33366600  0.33270800  0.37114500  1
  P  P13  1  0.08943200  0.68203400  0.66058400  1
  P  P14  1  0.23062100  0.09005100  0.65718800  1
  P  P15  1  0.09005100  0.23062100  0.15718800  1
  O  O0  1  0.00105200  0.75551300  0.57039900  1
  O  O1  1  0.91789300  0.74606200  0.34036200  1
  O  O2  1  0.79185600  0.99935800  0.25101200  1
  O  O3  1  0.75551300  0.00105200  0.07039900  1
  O  O4  1  0.90134500  0.61896400  0.82050100  1
  O  O5  1  0.74606200  0.91789300  0.84036200  1
  O  O6  1  0.81255500  0.67433600  0.16609000  1
  O  O7  1  0.90250800  0.48039300  0.32233900  1
  O  O8  1  0.01196500  0.23180200  0.06639500  1
  O  O9  1  0.91506600  0.33873600  0.84037500  1
  O  O10  1  0.67433600  0.81255500  0.66609000  1
  O  O11  1  0.81887000  0.51151700  0.67163300  1
  O  O12  1  0.61896400  0.90134500  0.32050100  1
  O  O13  1  0.67677100  0.65406200  0.52252800  1
  O  O14  1  0.65406200  0.67677100  0.02252800  1
  O  O15  1  0.48039300  0.90250800  0.82233900  1
  O  O16  1  0.66366400  0.52245900  0.17542700  1
  O  O17  1  0.51151700  0.81887000  0.17163300  1
  O  O18  1  0.74413900  0.34086000  0.33394700  1
  O  O19  1  0.79002000  0.21058900  0.74987600  1
  O  O20  1  0.76063200  0.23349400  0.93017900  1
  O  O21  1  0.76484800  0.24314000  0.56974000  1
  O  O22  1  0.61676400  0.47697200  0.82468000  1
  O  O23  1  0.52245900  0.66366400  0.67542700  1
  O  O24  1  0.33873600  0.91506600  0.34037500  1
  O  O25  1  0.65855500  0.25659600  0.16446300  1
  O  O26  1  0.47697200  0.61676400  0.32468000  1
  O  O27  1  0.75434400  0.99569300  0.43427000  1
  O  O28  1  0.23180200  0.01196500  0.56639500  1
  O  O29  1  0.52256900  0.38285000  0.67666700  1
  O  O30  1  0.34086000  0.74413900  0.83394700  1
  O  O31  1  0.20897900  0.00110400  0.74898600  1
  O  O32  1  0.66250300  0.08534000  0.65925900  1
  O  O33  1  0.48155500  0.33210300  0.32482800  1
  O  O34  1  0.38285000  0.52256900  0.17666700  1
  O  O35  1  0.24314000  0.76484800  0.06974000  1
  O  O36  1  0.23349400  0.76063200  0.43017900  1
  O  O37  1  0.21058900  0.79002000  0.24987600  1
  O  O38  1  0.25659600  0.65855500  0.66446300  1
  O  O39  1  0.48579800  0.18626700  0.83233200  1
  O  O40  1  0.52083200  0.09676100  0.17843200  1
  O  O41  1  0.33210300  0.48155500  0.82482800  1
  O  O42  1  0.33416200  0.32722900  0.47736400  1
  O  O43  1  0.32722900  0.33416200  0.97736400  1
  O  O44  1  0.37766500  0.10308600  0.67689800  1
  O  O45  1  0.18626700  0.48579800  0.33233200  1
  O  O46  1  0.33131900  0.18128900  0.32930400  1
  O  O47  1  0.08534000  0.66250300  0.15925900  1
  O  O48  1  0.99935800  0.79185600  0.75101200  1
  O  O49  1  0.99569300  0.75434400  0.93427000  1
  O  O50  1  0.09676100  0.52083200  0.67843200  1
  O  O51  1  0.18128900  0.33131900  0.82930400  1
  O  O52  1  0.25801800  0.07933800  0.16372600  1
  O  O53  1  0.10308600  0.37766500  0.17689800  1
  O  O54  1  0.24263600  0.99816100  0.92894900  1
  O  O55  1  0.07933800  0.25801800  0.66372600  1
  O  O56  1  0.99816100  0.24263600  0.42894900  1
  O  O57  1  0.00110400  0.20897900  0.24898600  1
loop_
_geom_bond_atom_site_label_1
_geom_bond_atom_site_label_2
_geom_bond_distance
_geom_bond_site_symmetry_2
Li0 O49 1.917961 1_554
Li0 O3 2.000966 1_565
Li0 O47 2.035077 1_655
Li0 O6 2.222708 1_555
Li1 O27 1.917961 1_555
Li1 O0 2.000966 1_655
Li1 O32 2.035077 1_565
Li1 O10 2.222708 1_555
Li2 O21 1.868039 1_555
Li2 O56 1.964039 1_555
Li2 O55 2.126179 1_655
Li2 O11 2.311906 1_555
Li3 O35 1.868039 1_555
Li3 O54 1.964039 1_554
Li3 O52 2.126179 1_565
Li3 O17 2.311906 1_555
Li4 O20 1.879892 1_555
Li4 O3 1.991335 1_556
Li4 O5 2.084016 1_545
Li4 O39 2.254481 1_555
Li5 O36 1.879892 1_555
Li5 O0 1.991335 1_555
Li5 O1 2.084016 1_455
Li5 O45 2.254481 1_555
Li6 O28 1.891780 1_555
Li6 O56 1.985024 1_455
Li6 O24 2.052722 1_545
Li6 O46 2.299760 1_555
Li7 O8 1.891780 1_556
Li7 O54 1.985024 1_545
Li7 O9 2.052722 1_455
Li7 O51 2.299760 1_555
O0 P13 1.498903 1_555
O1 P1 1.544511 1_555
O1 V5 1.983919 1_655
O2 P8 1.612288 1_565
O2 P1 1.622853 1_555
O3 P8 1.498903 1_555
O4 P0 1.567340 1_555
O4 V0 1.850624 1_555
O5 P0 1.544511 1_555
O5 V1 1.983919 1_565
O6 P4 1.555984 1_555
O6 V5 2.001225 1_655
O7 P2 1.547456 1_555
O7 V5 1.876957 1_655
O8 P15 1.482821 1_555
O9 P5 1.565637 1_555
O9 V0 1.963461 1_555
O10 P3 1.555984 1_555
O10 V1 2.001225 1_565
O11 P3 1.619148 1_555
O11 V0 1.881229 1_555
O12 P1 1.567340 1_555
O12 V4 1.850624 1_555
O13 P3 1.487821 1_555
O14 P4 1.487821 1_555
O15 P7 1.547456 1_555
O15 V1 1.876957 1_565
O16 P4 1.577665 1_555
O16 V2 1.887483 1_555
O17 P4 1.619148 1_555
O17 V4 1.881229 1_555
O18 P2 1.542635 1_555
O18 V2 1.904370 1_555
O19 P5 1.613561 1_555
O19 P6 1.620495 1_555
O20 P5 1.479441 1_555
O21 P6 1.480745 1_555
O22 P5 1.554388 1_555
O22 V3 1.880297 1_555
O23 P3 1.577665 1_555
O23 V3 1.887483 1_555
O24 P9 1.565637 1_555
O24 V4 1.963461 1_555
O25 P8 1.534584 1_555
O25 V2 1.921212 1_555
O26 P9 1.554388 1_555
O26 V2 1.880297 1_555
O27 P1 1.481840 1_555
O28 P14 1.482821 1_555
O29 P6 1.554182 1_555
O29 V3 1.880059 1_555
O30 P7 1.542635 1_555
O30 V3 1.904370 1_555
O31 P7 1.609564 1_545
O31 P14 1.622260 1_555
O32 P6 1.556729 1_555
O32 V1 1.967121 1_555
O33 P12 1.580642 1_555
O33 V2 1.890214 1_555
O34 P10 1.554182 1_555
O34 V2 1.880059 1_555
O35 P10 1.480745 1_555
O36 P9 1.479441 1_555
O37 P9 1.613561 1_555
O37 P10 1.620495 1_555
O38 P13 1.534584 1_555
O38 V3 1.921212 1_555
O39 P11 1.573414 1_555
O39 V1 1.945454 1_555
O40 P8 1.561197 1_555
O40 V4 1.863021 1_545
O41 P11 1.580642 1_555
O41 V3 1.890214 1_555
O42 P12 1.489681 1_555
O43 P11 1.489681 1_555
O44 P14 1.530547 1_555
O44 V1 1.906344 1_555
O45 P12 1.573414 1_555
O45 V5 1.945454 1_555
O46 P12 1.604307 1_555
O46 V4 1.917764 1_545
O47 P10 1.556729 1_555
O47 V5 1.967121 1_555
O48 P13 1.612288 1_655
O48 P0 1.622853 1_555
O49 P0 1.481840 1_555
O50 P13 1.561197 1_555
O50 V0 1.863021 1_455
O51 P11 1.604307 1_555
O51 V0 1.917764 1_455
O52 P15 1.576777 1_555
O52 V4 1.931950 1_545
O53 P15 1.530547 1_555
O53 V5 1.906344 1_555
O54 P7 1.500455 1_555
O55 P14 1.576777 1_555
O55 V0 1.931950 1_455
O56 P2 1.500455 1_555
O57 P2 1.609564 1_455
O57 P15 1.622260 1_555
