# generated using pymatgen
data_Li4Nb2Fe3Te3O16
_symmetry_space_group_name_H-M   'P 1'
_cell_length_a   6.36254200
_cell_length_b   6.38756118
_cell_length_c   10.13643282
_cell_angle_alpha   89.49692794
_cell_angle_beta   89.29806563
_cell_angle_gamma   61.11182092
_symmetry_Int_Tables_number   1
_chemical_formula_structural   Li4Nb2Fe3Te3O16
_chemical_formula_sum   'Li4 Nb2 Fe3 Te3 O16'
_cell_volume   360.66497845
_cell_formula_units_Z   1
loop_
 _symmetry_equiv_pos_site_id
 _symmetry_equiv_pos_as_xyz
  1  'x, y, z'
loop_
 _atom_site_type_symbol
 _atom_site_label
 _atom_site_symmetry_multiplicity
 _atom_site_fract_x
 _atom_site_fract_y
 _atom_site_fract_z
 _atom_site_occupancy
  Li  Li0  1  0.32899200  0.33430700  0.10391900  1
  Li  Li1  1  0.02322700  0.02844300  0.01795500  1
  Li  Li2  1  0.01059900  0.00710700  0.49186200  1
  Li  Li3  1  0.66866700  0.65510700  0.58409700  1
  Nb  Nb0  1  0.33725700  0.33211200  0.49322000  1
  Nb  Nb1  1  0.64694900  0.64266300  0.01532500  1
  Fe  Fe0  1  0.17322400  0.14512200  0.78790600  1
  Fe  Fe1  1  0.33639800  0.82497700  0.28635700  1
  Fe  Fe2  1  0.82569800  0.33360900  0.28483100  1
  Te  Te0  1  0.13671400  0.63713300  0.79797200  1
  Te  Te1  1  0.65948800  0.16931200  0.76441600  1
  Te  Te2  1  0.82056300  0.81889800  0.27649600  1
  O  O0  1  0.20128900  0.64707700  0.42510200  1
  O  O1  1  0.50577800  0.45290000  0.65234500  1
  O  O2  1  0.28377700  0.34673500  0.90116200  1
  O  O3  1  0.96848200  0.04555700  0.67478800  1
  O  O4  1  0.01214400  0.00803100  0.19806400  1
  O  O5  1  0.63754800  0.19437600  0.41031900  1
  O  O6  1  0.04044700  0.48358700  0.66378100  1
  O  O7  1  0.49741200  0.03967700  0.65186200  1
  O  O8  1  0.85138800  0.78997500  0.90939700  1
  O  O9  1  0.17668300  0.18043500  0.41627800  1
  O  O10  1  0.54430200  0.95521900  0.15632100  1
  O  O11  1  0.95365000  0.53848700  0.15562800  1
  O  O12  1  0.65632600  0.66012000  0.38284900  1
  O  O13  1  0.36169500  0.85058700  0.92366400  1
  O  O14  1  0.51147500  0.52611100  0.14577800  1
  O  O15  1  0.82953100  0.35263500  0.92046600  1
loop_
_geom_bond_atom_site_label_1
_geom_bond_atom_site_label_2
_geom_bond_distance
_geom_bond_site_symmetry_2
Li0 O2 2.074271 1_554
Li0 O14 2.103497 1_555
Li0 O11 2.156578 1_455
Li0 O10 2.193717 1_545
Li1 O4 1.832093 1_555
Li1 O15 2.076447 1_454
Li1 O13 2.108689 1_544
Li1 O8 2.528732 1_444
Li2 O3 1.871492 1_455
Li2 O9 2.006258 1_555
Li2 O0 2.128374 1_545
Li2 O5 2.243938 1_455
Li3 O12 2.041784 1_555
Li3 O1 2.116847 1_555
Li3 O6 2.230566 1_655
Li3 O7 2.262400 1_565
Nb0 O5 1.865511 1_555
Nb0 O9 1.892060 1_555
Nb0 O0 1.892440 1_555
Nb0 O1 2.282566 1_555
Nb0 O7 2.293850 1_555
Nb0 O6 2.382316 1_555
Nb1 O13 1.900481 1_554
Nb1 O14 1.902785 1_555
Nb1 O15 1.905418 1_554
Nb1 O8 2.204746 1_554
Nb1 O11 2.251681 1_555
Nb1 O10 2.285268 1_555
Fe0 O3 2.065440 1_455
Fe0 O2 2.095745 1_555
Fe0 O13 2.164791 1_545
Fe0 O6 2.276925 1_555
Fe0 O7 2.283452 1_555
Fe0 O15 2.345860 1_455
Fe1 O4 2.029918 1_565
Fe1 O12 2.041726 1_555
Fe1 O14 2.206804 1_555
Fe1 O0 2.212309 1_555
Fe1 O10 2.276092 1_555
Fe1 O9 2.390105 1_565
Fe2 O4 2.031900 1_655
Fe2 O12 2.082498 1_555
Fe2 O5 2.193976 1_555
Fe2 O11 2.250276 1_555
Fe2 O14 2.271355 1_555
Fe2 O9 2.378757 1_655
O0 Te2 2.614030 1_455
O1 Te1 1.951320 1_555
O1 Te0 2.520603 1_555
O2 Te0 1.929584 1_555
O2 Te1 2.499780 1_555
O3 Te1 1.944902 1_555
O3 Te0 2.605440 1_645
O4 Te2 2.227017 1_445
O5 Te2 2.503654 1_545
O6 Te0 1.952322 1_555
O7 Te1 1.980196 1_555
O8 Te0 1.944517 1_655
O8 Te1 2.577701 1_565
O10 Te2 1.971471 1_555
O11 Te2 1.993475 1_555
O12 Te2 2.063958 1_555
O15 Te1 2.518398 1_555
