# generated using pymatgen
data_Li2MnPCO7
_symmetry_space_group_name_H-M   'P 1'
_cell_length_a   5.28468394
_cell_length_b   6.34063820
_cell_length_c   8.45773579
_cell_angle_alpha   88.71534641
_cell_angle_beta   87.68070925
_cell_angle_gamma   91.52631372
_symmetry_Int_Tables_number   1
_chemical_formula_structural   Li2MnPCO7
_chemical_formula_sum   'Li4 Mn2 P2 C2 O14'
_cell_volume   282.99311666
_cell_formula_units_Z   2
loop_
 _symmetry_equiv_pos_site_id
 _symmetry_equiv_pos_as_xyz
  1  'x, y, z'
loop_
 _atom_site_type_symbol
 _atom_site_label
 _atom_site_symmetry_multiplicity
 _atom_site_fract_x
 _atom_site_fract_y
 _atom_site_fract_z
 _atom_site_occupancy
  Li  Li0  1  0.09493800  0.12129600  0.19465800  1
  Li  Li1  1  0.65065800  0.98282300  0.81087500  1
  Li  Li2  1  0.07338100  0.61788100  0.27036700  1
  Li  Li3  1  0.67223500  0.48615500  0.73516400  1
  Mn  Mn0  1  0.09902700  0.79300900  0.65679500  1
  Mn  Mn1  1  0.64642200  0.31077600  0.34857300  1
  P  P0  1  0.58140600  0.79909300  0.43763200  1
  P  P1  1  0.16378100  0.30457300  0.56755300  1
  C  C0  1  0.60197000  0.28915100  0.05147400  1
  C  C1  1  0.14376600  0.81477400  0.95424900  1
  O  O0  1  0.12897500  0.83485700  0.10284400  1
  O  O1  1  0.61655200  0.26874800  0.90279500  1
  O  O2  1  0.81218200  0.30679100  0.13317300  1
  O  O3  1  0.93362300  0.79700200  0.87225600  1
  O  O4  1  0.39628400  0.29442600  0.13812200  1
  O  O5  1  0.34954600  0.81015200  0.86749600  1
  O  O6  1  0.67248500  0.00434900  0.35113100  1
  O  O7  1  0.07296000  0.09948500  0.65449000  1
  O  O8  1  0.68376600  0.62023300  0.33163900  1
  O  O9  1  0.06134400  0.48347600  0.67344700  1
  O  O10  1  0.28259100  0.78194500  0.45046100  1
  O  O11  1  0.46250400  0.32160300  0.55505000  1
  O  O12  1  0.06246500  0.32354600  0.39917000  1
  O  O13  1  0.68298700  0.77971400  0.60573900  1
loop_
_geom_bond_atom_site_label_1
_geom_bond_atom_site_label_2
_geom_bond_distance
_geom_bond_site_symmetry_2
Li0 O4 1.947184 1_555
Li0 O0 2.000827 1_545
Li0 O2 2.003927 1_455
Li0 O12 2.180146 1_555
Li1 O5 1.944787 1_555
Li1 O1 1.998232 1_565
Li1 O3 2.005779 1_555
Li1 O13 2.187651 1_555
Li2 O0 1.960594 1_555
Li2 O8 2.103294 1_455
Li2 O12 2.138005 1_555
Li2 O10 2.184196 1_555
Li3 O1 1.963145 1_555
Li3 O9 2.101567 1_655
Li3 O13 2.136369 1_555
Li3 O11 2.187238 1_555
Mn0 O7 1.951505 1_565
Mn0 O10 1.965581 1_555
Mn0 O9 1.968744 1_555
Mn0 O3 1.989938 1_455
Mn0 O13 2.257475 1_455
Mn0 O5 2.265447 1_555
Mn1 O6 1.951173 1_555
Mn1 O11 1.967387 1_555
Mn1 O8 1.968247 1_555
Mn1 O2 1.990230 1_555
Mn1 O12 2.256545 1_655
Mn1 O4 2.262247 1_555
C0 O1 1.266464 1_554
C0 O4 1.287743 1_555
C0 O2 1.335312 1_555
C1 O0 1.265531 1_556
C1 O5 1.288380 1_555
C1 O3 1.336440 1_455
O6 P0 1.534970 1_545
O7 P1 1.535363 1_555
O8 P0 1.556094 1_555
O9 P1 1.555955 1_555
O10 P0 1.579159 1_555
O11 P1 1.578574 1_555
O12 P1 1.544923 1_555
O13 P0 1.543458 1_555
