# generated using pymatgen
data_Li5CoHO4
_symmetry_space_group_name_H-M   'P 1'
_cell_length_a   8.80857200
_cell_length_b   8.94509300
_cell_length_c   10.69823000
_cell_angle_alpha   90.00000000
_cell_angle_beta   90.00000000
_cell_angle_gamma   90.00000000
_symmetry_Int_Tables_number   1
_chemical_formula_structural   Li5CoHO4
_chemical_formula_sum   'Li40 Co8 H8 O32'
_cell_volume   842.95093990
_cell_formula_units_Z   8
loop_
 _symmetry_equiv_pos_site_id
 _symmetry_equiv_pos_as_xyz
  1  'x, y, z'
loop_
 _atom_site_type_symbol
 _atom_site_label
 _atom_site_symmetry_multiplicity
 _atom_site_fract_x
 _atom_site_fract_y
 _atom_site_fract_z
 _atom_site_occupancy
  Li  Li0  1  0.97217500  0.58393900  0.20044900  1
  Li  Li1  1  0.97217500  0.91606100  0.20044900  1
  Li  Li2  1  0.07732300  0.43522700  0.42722700  1
  Li  Li3  1  0.07732300  0.06477300  0.42722700  1
  Li  Li4  1  0.07625700  0.75000000  0.43843600  1
  Li  Li5  1  0.12070200  0.25000000  0.98203900  1
  Li  Li6  1  0.11331800  0.56864900  0.98573900  1
  Li  Li7  1  0.11331800  0.93135100  0.98573900  1
  Li  Li8  1  0.20700200  0.58258800  0.64314200  1
  Li  Li9  1  0.20700200  0.91741200  0.64314200  1
  Li  Li10  1  0.29299800  0.08258800  0.14314200  1
  Li  Li11  1  0.29299800  0.41741200  0.14314200  1
  Li  Li12  1  0.38668200  0.06864900  0.48573900  1
  Li  Li13  1  0.38668200  0.43135100  0.48573900  1
  Li  Li14  1  0.37929800  0.75000000  0.48203900  1
  Li  Li15  1  0.42374300  0.25000000  0.93843600  1
  Li  Li16  1  0.42267700  0.56477300  0.92722700  1
  Li  Li17  1  0.42267700  0.93522700  0.92722700  1
  Li  Li18  1  0.52782500  0.08393900  0.70044900  1
  Li  Li19  1  0.52782500  0.41606100  0.70044900  1
  Li  Li20  1  0.47217500  0.58393900  0.29955100  1
  Li  Li21  1  0.47217500  0.91606100  0.29955100  1
  Li  Li22  1  0.57732300  0.06477300  0.07277300  1
  Li  Li23  1  0.57732300  0.43522700  0.07277300  1
  Li  Li24  1  0.57625700  0.75000000  0.06156400  1
  Li  Li25  1  0.62070200  0.25000000  0.51796100  1
  Li  Li26  1  0.61331800  0.56864900  0.51426100  1
  Li  Li27  1  0.61331800  0.93135100  0.51426100  1
  Li  Li28  1  0.70700200  0.58258800  0.85685800  1
  Li  Li29  1  0.70700200  0.91741200  0.85685800  1
  Li  Li30  1  0.79299800  0.08258800  0.35685800  1
  Li  Li31  1  0.79299800  0.41741200  0.35685800  1
  Li  Li32  1  0.88668200  0.06864900  0.01426100  1
  Li  Li33  1  0.88668200  0.43135100  0.01426100  1
  Li  Li34  1  0.87929800  0.75000000  0.01796100  1
  Li  Li35  1  0.92374300  0.25000000  0.56156400  1
  Li  Li36  1  0.92267700  0.93522700  0.57277300  1
  Li  Li37  1  0.92267700  0.56477300  0.57277300  1
  Li  Li38  1  0.02782500  0.08393900  0.79955100  1
  Li  Li39  1  0.02782500  0.41606100  0.79955100  1
  Co  Co0  1  0.01977700  0.25000000  0.21846100  1
  Co  Co1  1  0.21394300  0.25000000  0.62023700  1
  Co  Co2  1  0.28605700  0.75000000  0.12023700  1
  Co  Co3  1  0.48022300  0.75000000  0.71846100  1
  Co  Co4  1  0.51977700  0.25000000  0.28153900  1
  Co  Co5  1  0.71394300  0.25000000  0.87976300  1
  Co  Co6  1  0.78605700  0.75000000  0.37976300  1
  Co  Co7  1  0.98022300  0.75000000  0.78153900  1
  H  H0  1  0.20970300  0.90420400  0.31111200  1
  H  H1  1  0.20970300  0.59579600  0.31111200  1
  H  H2  1  0.29029700  0.09579600  0.81111200  1
  H  H3  1  0.29029700  0.40420400  0.81111200  1
  H  H4  1  0.70970300  0.59579600  0.18888800  1
  H  H5  1  0.70970300  0.90420400  0.18888800  1
  H  H6  1  0.79029700  0.09579600  0.68888800  1
  H  H7  1  0.79029700  0.40420400  0.68888800  1
  O  O0  1  0.05973500  0.75000000  0.62420500  1
  O  O1  1  0.07427700  0.08649400  0.11785400  1
  O  O2  1  0.07427700  0.41350600  0.11785400  1
  O  O3  1  0.07640900  0.41119800  0.61630200  1
  O  O4  1  0.07640900  0.08880200  0.61630200  1
  O  O5  1  0.08072500  0.75000000  0.10917700  1
  O  O6  1  0.24152700  0.07240600  0.89132200  1
  O  O7  1  0.24152700  0.42759400  0.89132200  1
  O  O8  1  0.25847300  0.57240600  0.39132200  1
  O  O9  1  0.25847300  0.92759400  0.39132200  1
  O  O10  1  0.41927500  0.25000000  0.60917700  1
  O  O11  1  0.42359100  0.58880200  0.11630200  1
  O  O12  1  0.42359100  0.91119800  0.11630200  1
  O  O13  1  0.42572300  0.58649400  0.61785400  1
  O  O14  1  0.42572300  0.91350600  0.61785400  1
  O  O15  1  0.44026500  0.25000000  0.12420500  1
  O  O16  1  0.55973500  0.75000000  0.87579500  1
  O  O17  1  0.57427700  0.08649400  0.38214600  1
  O  O18  1  0.57427700  0.41350600  0.38214600  1
  O  O19  1  0.57640900  0.08880200  0.88369800  1
  O  O20  1  0.57640900  0.41119800  0.88369800  1
  O  O21  1  0.58072500  0.75000000  0.39082300  1
  O  O22  1  0.74152700  0.07240600  0.60867800  1
  O  O23  1  0.74152700  0.42759400  0.60867800  1
  O  O24  1  0.75847300  0.57240600  0.10867800  1
  O  O25  1  0.75847300  0.92759400  0.10867800  1
  O  O26  1  0.91927500  0.25000000  0.89082300  1
  O  O27  1  0.92359100  0.91119800  0.38369800  1
  O  O28  1  0.92359100  0.58880200  0.38369800  1
  O  O29  1  0.92572300  0.91350600  0.88214600  1
  O  O30  1  0.92572300  0.58649400  0.88214600  1
  O  O31  1  0.94026500  0.25000000  0.37579500  1
loop_
_geom_bond_atom_site_label_1
_geom_bond_atom_site_label_2
_geom_bond_distance
_geom_bond_site_symmetry_2
Li0 O2 1.978352 1_655
Li0 O28 2.007078 1_555
Li0 O5 2.018470 1_655
Li0 O24 2.125562 1_555
Li1 O1 1.978352 1_665
Li1 O27 2.007078 1_555
Li1 O5 2.018470 1_655
Li1 O25 2.125562 1_555
Li2 O28 1.984383 1_455
Li2 O3 2.034172 1_555
Li2 O8 2.049254 1_555
Li2 O31 2.122621 1_455
Li3 O27 1.984383 1_445
Li3 O4 2.034172 1_555
Li3 O9 2.049254 1_545
Li3 O31 2.122621 1_455
Li4 O0 1.992721 1_555
Li4 O27 2.056817 1_455
Li4 O28 2.056817 1_455
Li5 O26 2.024936 1_455
Li5 O1 2.101788 1_556
Li5 O2 2.101788 1_556
Li5 O7 2.144353 1_555
Li5 O6 2.144353 1_555
Li6 O7 1.971728 1_555
Li6 O30 1.996070 1_455
Li6 O2 2.010437 1_556
Li6 O5 2.111365 1_556
Li7 O6 1.971728 1_565
Li7 O29 1.996070 1_455
Li7 O1 2.010437 1_566
Li7 O5 2.111365 1_556
Li8 O3 1.938071 1_555
Li8 O13 1.945835 1_555
Li8 O0 1.991571 1_555
Li9 O4 1.938071 1_565
Li9 O14 1.945835 1_555
Li9 O0 1.991571 1_555
Li10 O12 1.938071 1_545
Li10 O1 1.945835 1_555
Li10 O15 1.991571 1_555
Li11 O11 1.938071 1_555
Li11 O2 1.945835 1_555
Li11 O15 1.991571 1_555
Li12 O9 1.971728 1_545
Li12 O17 1.996070 1_555
Li12 O14 2.010437 1_545
Li12 O10 2.111365 1_555
Li13 O8 1.971728 1_555
Li13 O18 1.996070 1_555
Li13 O13 2.010437 1_555
Li13 O10 2.111365 1_555
Li14 O21 2.024936 1_555
Li14 O13 2.101788 1_555
Li14 O14 2.101788 1_555
Li14 O9 2.144353 1_555
Li14 O8 2.144353 1_555
Li15 O15 1.992721 1_556
Li15 O19 2.056817 1_555
Li15 O20 2.056817 1_555
Li16 O20 1.984383 1_555
Li16 O11 2.034172 1_556
Li16 O7 2.049254 1_555
Li16 O16 2.122621 1_555
Li17 O19 1.984383 1_565
Li17 O12 2.034172 1_556
Li17 O6 2.049254 1_565
Li17 O16 2.122621 1_555
Li18 O14 1.978352 1_545
Li18 O19 2.007078 1_555
Li18 O10 2.018470 1_555
Li18 O22 2.125562 1_555
Li19 O13 1.978352 1_555
Li19 O20 2.007078 1_555
Li19 O10 2.018470 1_555
Li19 O23 2.125562 1_555
Li20 O18 1.978352 1_555
Li20 O11 2.007078 1_555
Li20 O21 2.018470 1_555
Li20 O8 2.125562 1_555
Li21 O17 1.978352 1_565
Li21 O12 2.007078 1_555
Li21 O21 2.018470 1_555
Li21 O9 2.125562 1_555
Li22 O12 1.984383 1_545
Li22 O19 2.034172 1_554
Li22 O25 2.049254 1_545
Li22 O15 2.122621 1_555
Li23 O11 1.984383 1_555
Li23 O20 2.034172 1_554
Li23 O24 2.049254 1_555
Li23 O15 2.122621 1_555
Li24 O16 1.992721 1_554
Li24 O11 2.056817 1_555
Li24 O12 2.056817 1_555
Li25 O10 2.024936 1_555
Li25 O17 2.101788 1_555
Li25 O18 2.101788 1_555
Li25 O23 2.144353 1_555
Li25 O22 2.144353 1_555
Li26 O23 1.971728 1_555
Li26 O13 1.996070 1_555
Li26 O18 2.010437 1_555
Li26 O21 2.111365 1_555
Li27 O22 1.971728 1_565
Li27 O14 1.996070 1_555
Li27 O17 2.010437 1_565
Li27 O21 2.111365 1_555
Li28 O20 1.938071 1_555
Li28 O30 1.945835 1_555
Li28 O16 1.991571 1_555
Li29 O19 1.938071 1_565
Li29 O29 1.945835 1_555
Li29 O16 1.991571 1_555
Li30 O27 1.938071 1_545
Li30 O17 1.945835 1_555
Li30 O31 1.991571 1_555
Li31 O28 1.938071 1_555
Li31 O18 1.945835 1_555
Li31 O31 1.991571 1_555
Li32 O25 1.971728 1_545
Li32 O1 1.996070 1_655
Li32 O29 2.010437 1_544
Li32 O26 2.111365 1_554
Li33 O24 1.971728 1_555
Li33 O2 1.996070 1_655
Li33 O30 2.010437 1_554
Li33 O26 2.111365 1_554
Li34 O5 2.024936 1_655
Li34 O30 2.101788 1_554
Li34 O29 2.101788 1_554
Li34 O25 2.144353 1_555
Li34 O24 2.144353 1_555
Li35 O31 1.992721 1_555
Li35 O3 2.056817 1_655
Li35 O4 2.056817 1_655
Li36 O4 1.984383 1_665
Li36 O27 2.034172 1_555
Li36 O22 2.049254 1_565
Li36 O0 2.122621 1_655
Li37 O3 1.984383 1_655
Li37 O28 2.034172 1_555
Li37 O23 2.049254 1_555
Li37 O0 2.122621 1_655
Li38 O29 1.978352 1_445
Li38 O4 2.007078 1_555
Li38 O26 2.018470 1_455
Li38 O6 2.125562 1_555
Li39 O30 1.978352 1_455
Li39 O3 2.007078 1_555
Li39 O26 2.018470 1_455
Li39 O7 2.125562 1_555
Co0 O31 1.823099 1_455
Co0 O2 1.878311 1_555
Co0 O1 1.878311 1_555
Co1 O10 1.812548 1_555
Co1 O3 1.883777 1_555
Co1 O4 1.883777 1_555
Co2 O5 1.812548 1_555
Co2 O12 1.883777 1_555
Co2 O11 1.883777 1_555
Co3 O16 1.823099 1_555
Co3 O13 1.878311 1_555
Co3 O14 1.878311 1_555
Co4 O15 1.823099 1_555
Co4 O18 1.878311 1_555
Co4 O17 1.878311 1_555
Co5 O26 1.812548 1_555
Co5 O19 1.883777 1_555
Co5 O20 1.883777 1_555
Co6 O21 1.812548 1_555
Co6 O27 1.883777 1_555
Co6 O28 1.883777 1_555
Co7 O0 1.823099 1_655
Co7 O29 1.878311 1_555
Co7 O30 1.878311 1_555
H0 O9 0.982177 1_555
H1 O8 0.982177 1_555
H2 O6 0.982177 1_555
H3 O7 0.982177 1_555
H4 O24 0.982177 1_555
H5 O25 0.982177 1_555
H6 O22 0.982177 1_555
H7 O23 0.982177 1_555
