# generated using pymatgen
data_Li2Mn3(FeO4)3
_symmetry_space_group_name_H-M   'P 1'
_cell_length_a   5.10997600
_cell_length_b   6.06183365
_cell_length_c   7.98117651
_cell_angle_alpha   76.07642235
_cell_angle_beta   77.45674332
_cell_angle_gamma   73.38974580
_symmetry_Int_Tables_number   1
_chemical_formula_structural   Li2Mn3(FeO4)3
_chemical_formula_sum   'Li2 Mn3 Fe3 O12'
_cell_volume   227.00103318
_cell_formula_units_Z   1
loop_
 _symmetry_equiv_pos_site_id
 _symmetry_equiv_pos_as_xyz
  1  'x, y, z'
loop_
 _atom_site_type_symbol
 _atom_site_label
 _atom_site_symmetry_multiplicity
 _atom_site_fract_x
 _atom_site_fract_y
 _atom_site_fract_z
 _atom_site_occupancy
  Li  Li0  1  0.50000000  0.00000000  0.50000000  1
  Li  Li1  1  0.00000000  0.50000000  0.00000000  1
  Mn  Mn0  1  0.00231400  0.66270900  0.33290400  1
  Mn  Mn1  1  0.99768600  0.33729100  0.66709600  1
  Mn  Mn2  1  0.00000000  0.00000000  0.00000000  1
  Fe  Fe0  1  0.50000000  0.50000000  0.50000000  1
  Fe  Fe1  1  0.50248500  0.16817100  0.83661200  1
  Fe  Fe2  1  0.49751500  0.83182900  0.16338800  1
  O  O0  1  0.76152600  0.63893600  0.55794500  1
  O  O1  1  0.27336200  0.78747300  0.40425100  1
  O  O2  1  0.74871200  0.52722000  0.27296600  1
  O  O3  1  0.72663800  0.21252700  0.59574900  1
  O  O4  1  0.21452900  0.69448200  0.09999000  1
  O  O5  1  0.23847400  0.36106400  0.44205500  1
  O  O6  1  0.78547100  0.30551800  0.90001000  1
  O  O7  1  0.77937000  0.96079900  0.23766700  1
  O  O8  1  0.25128800  0.47278000  0.72703400  1
  O  O9  1  0.24722000  0.14002700  0.06414200  1
  O  O10  1  0.75278000  0.85997300  0.93585800  1
  O  O11  1  0.22063000  0.03920100  0.76233300  1
loop_
_geom_bond_atom_site_label_1
_geom_bond_atom_site_label_2
_geom_bond_distance
_geom_bond_site_symmetry_2
Li0 O5 2.213441 1_555
Li0 O0 2.213441 1_545
Li0 O7 2.285904 1_545
Li0 O11 2.285904 1_555
Li0 O3 2.301339 1_555
Li0 O1 2.301339 1_545
Li1 O10 2.187877 1_454
Li1 O9 2.187877 1_555
Li1 O4 2.190910 1_555
Li1 O6 2.190910 1_454
Li1 O8 2.293273 1_554
Li1 O2 2.293273 1_455
Mn0 O2 1.910394 1_455
Mn0 O7 1.918064 1_455
Mn0 O4 1.933953 1_555
Mn0 O0 1.943595 1_455
Mn0 O1 1.990807 1_555
Mn0 O5 1.996788 1_555
Mn1 O8 1.910394 1_655
Mn1 O11 1.918064 1_655
Mn1 O6 1.933953 1_555
Mn1 O5 1.943595 1_655
Mn1 O3 1.990807 1_555
Mn1 O0 1.996788 1_555
Mn2 O9 1.918736 1_555
Mn2 O10 1.918736 1_444
Mn2 O4 1.943320 1_545
Mn2 O6 1.943320 1_454
Mn2 O11 1.983172 1_554
Mn2 O7 1.983172 1_445
Fe0 O1 1.884578 1_555
Fe0 O3 1.884578 1_555
Fe0 O5 1.951540 1_555
Fe0 O0 1.951540 1_555
Fe0 O8 1.975226 1_555
Fe0 O2 1.975226 1_555
Fe1 O9 1.994373 1_556
Fe1 O3 2.012634 1_555
Fe1 O10 2.028633 1_545
Fe1 O8 2.043869 1_555
Fe1 O6 2.061345 1_555
Fe1 O11 2.067538 1_555
Fe2 O10 1.994373 1_554
Fe2 O1 2.012634 1_555
Fe2 O9 2.028633 1_565
Fe2 O2 2.043869 1_555
Fe2 O4 2.061345 1_555
Fe2 O7 2.067538 1_555
