# generated using pymatgen
data_LiV2P4(HO8)2
_symmetry_space_group_name_H-M   'P 1'
_cell_length_a   7.89122700
_cell_length_b   7.75770000
_cell_length_c   9.75632659
_cell_angle_alpha   66.78340536
_cell_angle_beta   90.00000000
_cell_angle_gamma   90.00000000
_symmetry_Int_Tables_number   1
_chemical_formula_structural   LiV2P4(HO8)2
_chemical_formula_sum   'Li2 V4 P8 H4 O32'
_cell_volume   548.89513106
_cell_formula_units_Z   2
loop_
 _symmetry_equiv_pos_site_id
 _symmetry_equiv_pos_as_xyz
  1  'x, y, z'
loop_
 _atom_site_type_symbol
 _atom_site_label
 _atom_site_symmetry_multiplicity
 _atom_site_fract_x
 _atom_site_fract_y
 _atom_site_fract_z
 _atom_site_occupancy
  Li  Li0  1  0.13077400  0.40108800  0.72614600  1
  Li  Li1  1  0.63077400  0.59891200  0.27385400  1
  V  V0  1  0.50493700  0.24527100  0.75273800  1
  V  V1  1  0.99311300  0.76259100  0.74876800  1
  V  V2  1  0.49311300  0.23740900  0.25123200  1
  V  V3  1  0.00493700  0.75472900  0.24726200  1
  P  P0  1  0.15491300  0.01736600  0.93089700  1
  P  P1  1  0.34962800  0.51629000  0.92833200  1
  P  P2  1  0.64105000  0.97723200  0.57010400  1
  P  P3  1  0.14105000  0.02276800  0.42989600  1
  P  P4  1  0.84390800  0.48787400  0.56875400  1
  P  P5  1  0.34390800  0.51212600  0.43124600  1
  P  P6  1  0.65491300  0.98263400  0.06910300  1
  P  P7  1  0.84962800  0.48371000  0.07166800  1
  H  H0  1  0.48847200  0.74058800  0.98759500  1
  H  H1  1  0.49324800  0.73551000  0.48918800  1
  H  H2  1  0.99324800  0.26449000  0.51081200  1
  H  H3  1  0.98847200  0.25941200  0.01240500  1
  O  O0  1  0.05684500  0.19580100  0.90465600  1
  O  O1  1  0.67190700  0.11412800  0.90358600  1
  O  O2  1  0.32976300  0.06305600  0.85798700  1
  O  O3  1  0.05583700  0.89819000  0.85437800  1
  O  O4  1  0.44453200  0.69854700  0.90365500  1
  O  O5  1  0.83702500  0.61121100  0.90122700  1
  O  O6  1  0.17224300  0.56519500  0.85340900  1
  O  O7  1  0.44298800  0.40071500  0.85447100  1
  O  O8  1  0.55817200  0.09482500  0.64727100  1
  O  O9  1  0.82592300  0.92546600  0.63957200  1
  O  O10  1  0.15946400  0.88854500  0.59885600  1
  O  O11  1  0.54843900  0.79994500  0.59109400  1
  O  O12  1  0.94728100  0.59670400  0.64583400  1
  O  O13  1  0.66974800  0.43317400  0.63926100  1
  O  O14  1  0.04843900  0.20005500  0.40890600  1
  O  O15  1  0.65946400  0.11145500  0.40114400  1
  O  O16  1  0.32466500  0.38934700  0.59951800  1
  O  O17  1  0.95239100  0.30995900  0.59756900  1
  O  O18  1  0.32592300  0.07453400  0.36042800  1
  O  O19  1  0.05817200  0.90517500  0.35272900  1
  O  O20  1  0.45239100  0.69004100  0.40243100  1
  O  O21  1  0.82466500  0.61065300  0.40048200  1
  O  O22  1  0.16974800  0.56682600  0.36073900  1
  O  O23  1  0.44728100  0.40329600  0.35416600  1
  O  O24  1  0.55583700  0.10181000  0.14562200  1
  O  O25  1  0.82976300  0.93694400  0.14201300  1
  O  O26  1  0.17190700  0.88587200  0.09641400  1
  O  O27  1  0.55684500  0.80419900  0.09534400  1
  O  O28  1  0.94298800  0.59928500  0.14552900  1
  O  O29  1  0.67224300  0.43480500  0.14659100  1
  O  O30  1  0.33702500  0.38878900  0.09877300  1
  O  O31  1  0.94453200  0.30145300  0.09634500  1
loop_
_geom_bond_atom_site_label_1
_geom_bond_atom_site_label_2
_geom_bond_distance
_geom_bond_site_symmetry_2
Li0 O0 1.929509 1_555
Li0 O16 1.991056 1_555
Li0 O12 2.018919 1_455
Li0 O6 2.125022 1_555
Li0 O17 2.180389 1_455
Li1 O27 1.929509 1_555
Li1 O21 1.991056 1_555
Li1 O23 2.018919 1_555
Li1 O29 2.125022 1_555
Li1 O20 2.180389 1_555
H0 O4 1.052544 1_555
H0 O27 1.431335 1_556
H1 O20 1.086374 1_555
H1 O11 1.349025 1_555
H2 O17 1.086374 1_555
H2 O14 1.349025 1_655
H3 O31 1.052544 1_555
H3 O0 1.431335 1_654
O0 P0 1.516957 1_555
O1 P6 1.538677 1_546
O1 V0 1.938192 1_555
O2 P0 1.528608 1_555
O2 V0 1.954238 1_555
O3 P0 1.602347 1_565
O3 V1 1.807696 1_455
O4 P1 1.532823 1_555
O5 P7 1.567365 1_556
O5 V1 1.931722 1_555
O6 P1 1.555317 1_555
O6 V1 2.037847 1_455
O7 P1 1.541209 1_555
O7 V0 1.903137 1_555
O8 P2 1.538904 1_545
O8 V0 1.882616 1_555
O9 P2 1.591963 1_555
O9 V1 1.846847 1_555
O10 P3 1.571428 1_565
O10 V1 1.921041 1_455
O11 P2 1.498509 1_555
O12 P4 1.563434 1_555
O12 V1 1.953046 1_555
O13 P4 1.520500 1_555
O13 V0 1.941563 1_555
O14 P3 1.498509 1_555
O15 P2 1.571428 1_545
O15 V2 1.921041 1_555
O16 P5 1.546824 1_555
O16 V0 2.047016 1_555
O17 P4 1.552721 1_555
O18 P3 1.591963 1_555
O18 V2 1.846847 1_555
O19 P3 1.538904 1_565
O19 V3 1.882616 1_555
O20 P5 1.552721 1_555
O21 P4 1.546824 1_555
O21 V3 2.047016 1_655
O22 P5 1.520500 1_555
O22 V3 1.941563 1_555
O23 P5 1.563434 1_555
O23 V2 1.953046 1_555
O24 P6 1.602347 1_545
O24 V2 1.807696 1_555
O25 P6 1.528608 1_555
O25 V3 1.954238 1_655
O26 P0 1.538677 1_564
O26 V3 1.938192 1_555
O27 P6 1.516957 1_555
O28 P7 1.541209 1_555
O28 V3 1.903137 1_655
O29 P7 1.555317 1_555
O29 V2 2.037847 1_555
O30 P1 1.567365 1_554
O30 V2 1.931722 1_555
O31 P7 1.532823 1_555
