# generated using pymatgen
data_LiFeSiO4
_symmetry_space_group_name_H-M   'P 1'
_cell_length_a   6.16756100
_cell_length_b   5.42022900
_cell_length_c   10.69410099
_cell_angle_alpha   70.22951976
_cell_angle_beta   90.00000000
_cell_angle_gamma   90.00000000
_symmetry_Int_Tables_number   1
_chemical_formula_structural   LiFeSiO4
_chemical_formula_sum   'Li4 Fe4 Si4 O16'
_cell_volume   336.42669874
_cell_formula_units_Z   4
loop_
 _symmetry_equiv_pos_site_id
 _symmetry_equiv_pos_as_xyz
  1  'x, y, z'
loop_
 _atom_site_type_symbol
 _atom_site_label
 _atom_site_symmetry_multiplicity
 _atom_site_fract_x
 _atom_site_fract_y
 _atom_site_fract_z
 _atom_site_occupancy
  Li  Li0  1  0.58027400  0.46510100  0.27906200  1
  Li  Li1  1  0.08027400  0.53489900  0.22093800  1
  Li  Li2  1  0.91972600  0.46510100  0.77906200  1
  Li  Li3  1  0.41972600  0.53489900  0.72093800  1
  Fe  Fe0  1  0.64911000  0.94337100  0.89517800  1
  Fe  Fe1  1  0.14911000  0.05662900  0.60482200  1
  Fe  Fe2  1  0.85089000  0.94337100  0.39517800  1
  Fe  Fe3  1  0.35089000  0.05662900  0.10482200  1
  Si  Si0  1  0.63841500  0.11562800  0.63061000  1
  Si  Si1  1  0.13841500  0.88437200  0.86939000  1
  Si  Si2  1  0.86158500  0.11562800  0.13061000  1
  Si  Si3  1  0.36158500  0.88437200  0.36939000  1
  O  O0  1  0.66009200  0.27551000  0.73965800  1
  O  O1  1  0.12943900  0.18620800  0.75889900  1
  O  O2  1  0.42075900  0.21162200  0.54026200  1
  O  O3  1  0.85355600  0.15214300  0.53156500  1
  O  O4  1  0.35355600  0.84785700  0.96843500  1
  O  O5  1  0.92075900  0.78837800  0.95973800  1
  O  O6  1  0.83990800  0.27551000  0.23965800  1
  O  O7  1  0.37056100  0.18620800  0.25889900  1
  O  O8  1  0.62943900  0.81379200  0.74110100  1
  O  O9  1  0.16009200  0.72449000  0.76034200  1
  O  O10  1  0.07924100  0.21162200  0.04026200  1
  O  O11  1  0.64644400  0.15214300  0.03156500  1
  O  O12  1  0.14644400  0.84785700  0.46843500  1
  O  O13  1  0.57924100  0.78837800  0.45973800  1
  O  O14  1  0.87056100  0.81379200  0.24110100  1
  O  O15  1  0.33990800  0.72449000  0.26034200  1
loop_
_geom_bond_atom_site_label_1
_geom_bond_atom_site_label_2
_geom_bond_distance
_geom_bond_site_symmetry_2
Li0 O15 2.006011 1_555
Li0 O6 2.022554 1_555
Li0 O7 2.055495 1_555
Li0 O14 2.534402 1_555
Li1 O6 2.006011 1_455
Li1 O15 2.022554 1_555
Li1 O14 2.055495 1_455
Li1 O7 2.534402 1_555
Li2 O9 2.006011 1_655
Li2 O0 2.022554 1_555
Li2 O1 2.055495 1_655
Li2 O8 2.534402 1_555
Li3 O0 2.006011 1_555
Li3 O9 2.022554 1_555
Li3 O8 2.055495 1_555
Li3 O1 2.534402 1_555
Fe0 O5 1.896590 1_555
Fe0 O4 1.982463 1_555
Fe0 O0 1.996517 1_565
Fe0 O8 2.001468 1_555
Fe0 O11 2.127123 1_566
Fe1 O2 1.896590 1_555
Fe1 O3 1.982463 1_455
Fe1 O9 1.996517 1_545
Fe1 O1 2.001468 1_555
Fe1 O12 2.127123 1_545
Fe2 O13 1.896590 1_555
Fe2 O12 1.982463 1_655
Fe2 O6 1.996517 1_565
Fe2 O14 2.001468 1_555
Fe2 O3 2.127123 1_565
Fe3 O10 1.896590 1_555
Fe3 O11 1.982463 1_555
Fe3 O15 1.996517 1_545
Fe3 O7 2.001468 1_555
Fe3 O4 2.127123 1_544
O0 Si0 1.677049 1_555
O1 Si1 1.663743 1_545
O2 Si0 1.632853 1_555
O3 Si0 1.667304 1_555
O4 Si1 1.667304 1_555
O5 Si1 1.632853 1_655
O6 Si2 1.677049 1_555
O7 Si3 1.663743 1_545
O8 Si0 1.663743 1_565
O9 Si1 1.677049 1_555
O10 Si2 1.632853 1_455
O11 Si2 1.667304 1_555
O12 Si3 1.667304 1_555
O13 Si3 1.632853 1_555
O14 Si2 1.663743 1_565
O15 Si3 1.677049 1_555
