# generated using pymatgen
data_Li5Nb2V3O10
_symmetry_space_group_name_H-M   'P 1'
_cell_length_a   5.24002820
_cell_length_b   7.91992783
_cell_length_c   10.51719333
_cell_angle_alpha   107.55248950
_cell_angle_beta   79.00652925
_cell_angle_gamma   108.12277642
_symmetry_Int_Tables_number   1
_chemical_formula_structural   Li5Nb2V3O10
_chemical_formula_sum   'Li10 Nb4 V6 O20'
_cell_volume   393.23707372
_cell_formula_units_Z   2
loop_
 _symmetry_equiv_pos_site_id
 _symmetry_equiv_pos_as_xyz
  1  'x, y, z'
loop_
 _atom_site_type_symbol
 _atom_site_label
 _atom_site_symmetry_multiplicity
 _atom_site_fract_x
 _atom_site_fract_y
 _atom_site_fract_z
 _atom_site_occupancy
  Li  Li0  1  0.49985800  0.49997900  0.50002600  1
  Li  Li1  1  0.50014300  0.50002200  0.99997300  1
  Li  Li2  1  0.22853800  0.40362300  0.24111100  1
  Li  Li3  1  0.22844000  0.40367900  0.74113800  1
  Li  Li4  1  0.77156200  0.59632100  0.75886200  1
  Li  Li5  1  0.77146400  0.59637800  0.25889000  1
  Li  Li6  1  0.39583100  0.78608700  0.74442700  1
  Li  Li7  1  0.39612700  0.78624800  0.24446400  1
  Li  Li8  1  0.60387300  0.21375100  0.25553500  1
  Li  Li9  1  0.60417200  0.21391200  0.75557300  1
  Nb  Nb0  1  0.09108700  0.67661700  0.49576700  1
  Nb  Nb1  1  0.09131500  0.67673500  0.99580200  1
  Nb  Nb2  1  0.90868700  0.32326700  0.50419800  1
  Nb  Nb3  1  0.90891400  0.32338300  0.00423300  1
  V  V0  1  0.00001500  0.99999600  0.24999300  1
  V  V1  1  0.69405100  0.90136700  0.50247300  1
  V  V2  1  0.30595400  0.09863400  0.99752600  1
  V  V3  1  0.99996700  0.99998800  0.75001400  1
  V  V4  1  0.69394000  0.90136600  0.00239400  1
  V  V5  1  0.30604400  0.09863500  0.49760500  1
  O  O0  1  0.04937200  0.85482400  0.87549700  1
  O  O1  1  0.04925400  0.85475700  0.37547400  1
  O  O2  1  0.95074700  0.14524300  0.12452500  1
  O  O3  1  0.95063100  0.14517800  0.62450200  1
  O  O4  1  0.32820300  0.93772600  0.62544700  1
  O  O5  1  0.32845000  0.93789000  0.12552300  1
  O  O6  1  0.67155100  0.06211000  0.37447700  1
  O  O7  1  0.67180000  0.06227500  0.87455200  1
  O  O8  1  0.16093300  0.54598500  0.62609500  1
  O  O9  1  0.16114000  0.54607200  0.12604800  1
  O  O10  1  0.83886100  0.45392800  0.37395200  1
  O  O11  1  0.83906800  0.45401500  0.87390400  1
  O  O12  1  0.22748900  0.24641200  0.37445200  1
  O  O13  1  0.22769000  0.24649700  0.87441400  1
  O  O14  1  0.77231300  0.75350500  0.62558600  1
  O  O15  1  0.77251200  0.75358800  0.12554700  1
  O  O16  1  0.43183200  0.65563000  0.38328700  1
  O  O17  1  0.43206900  0.65568000  0.88326000  1
  O  O18  1  0.56793200  0.34432100  0.61673900  1
  O  O19  1  0.56817000  0.34437100  0.11671300  1
loop_
_geom_bond_atom_site_label_1
_geom_bond_atom_site_label_2
_geom_bond_distance
_geom_bond_site_symmetry_2
Li0 O8 2.063476 1_555
Li0 O10 2.063911 1_555
Li0 O18 2.122988 1_555
Li0 O16 2.123043 1_555
Li0 O14 2.269396 1_555
Li0 O12 2.269418 1_555
Li1 O11 2.063478 1_555
Li1 O9 2.063914 1_556
Li1 O17 2.122988 1_555
Li1 O19 2.123054 1_556
Li1 O13 2.269383 1_555
Li1 O15 2.269414 1_556
Li2 O9 2.023935 1_555
Li2 O19 2.088154 1_555
Li2 O12 2.136101 1_555
Li2 O16 2.199765 1_555
Li2 O2 2.263646 1_455
Li2 O10 2.315690 1_455
Li3 O8 2.023134 1_555
Li3 O18 2.087822 1_555
Li3 O13 2.135830 1_555
Li3 O17 2.200038 1_555
Li3 O3 2.264414 1_455
Li3 O11 2.314141 1_455
Li4 O11 2.023123 1_555
Li4 O17 2.087824 1_555
Li4 O14 2.135841 1_555
Li4 O18 2.200041 1_555
Li4 O0 2.264421 1_655
Li4 O8 2.314141 1_655
Li5 O10 2.023930 1_555
Li5 O16 2.088149 1_555
Li5 O15 2.136114 1_555
Li5 O19 2.199770 1_555
Li5 O1 2.263631 1_655
Li5 O9 2.315692 1_655
Li6 O17 2.090956 1_555
Li6 O8 2.092995 1_555
Li6 O4 2.115201 1_555
Li6 O0 2.167996 1_555
Li6 O14 2.168495 1_555
Li6 O7 2.393773 1_565
Li7 O16 2.091037 1_555
Li7 O9 2.093893 1_555
Li7 O5 2.115011 1_555
Li7 O15 2.168504 1_555
Li7 O1 2.168890 1_555
Li7 O6 2.390634 1_565
Li8 O19 2.091035 1_555
Li8 O10 2.093904 1_555
Li8 O6 2.115016 1_555
Li8 O12 2.168501 1_555
Li8 O2 2.168892 1_555
Li8 O5 2.390623 1_545
Li9 O18 2.090981 1_555
Li9 O11 2.092990 1_555
Li9 O7 2.115180 1_555
Li9 O3 2.167993 1_555
Li9 O13 2.168500 1_555
Li9 O4 2.393768 1_545
Nb0 O16 1.968643 1_555
Nb0 O14 2.070418 1_455
Nb0 O10 2.081234 1_455
Nb0 O8 2.089344 1_555
Nb0 O1 2.239180 1_555
Nb0 O4 2.242116 1_555
Nb1 O17 1.969044 1_555
Nb1 O15 2.070115 1_456
Nb1 O11 2.081821 1_455
Nb1 O9 2.088754 1_556
Nb1 O0 2.239174 1_555
Nb1 O5 2.242549 1_556
Nb2 O18 1.969043 1_555
Nb2 O12 2.070121 1_655
Nb2 O8 2.081807 1_655
Nb2 O10 2.088745 1_555
Nb2 O3 2.239168 1_555
Nb2 O6 2.242560 1_555
Nb3 O19 1.968641 1_555
Nb3 O13 2.070421 1_654
Nb3 O9 2.081234 1_655
Nb3 O11 2.089353 1_554
Nb3 O2 2.239172 1_555
Nb3 O7 2.242112 1_554
O0 V3 2.088328 1_455
O0 V4 2.137334 1_456
O0 V2 2.175237 1_565
O1 V0 2.088413 1_555
O1 V1 2.136940 1_455
O1 V5 2.176483 1_565
O2 V0 2.088413 1_645
O2 V2 2.136955 1_654
O2 V4 2.176520 1_545
O3 V3 2.088589 1_545
O3 V5 2.137255 1_655
O3 V1 2.175236 1_545
O4 V3 2.048503 1_455
O4 V1 2.145672 1_555
O4 V5 2.151841 1_565
O5 V0 2.048533 1_555
O5 V4 2.145075 1_555
O5 V2 2.152758 1_564
O6 V0 2.048733 1_645
O6 V5 2.145145 1_555
O6 V1 2.152751 1_545
O7 V3 2.048154 1_545
O7 V2 2.145664 1_555
O7 V4 2.151806 1_546
O12 V0 2.133069 1_545
O12 V5 2.152725 1_555
O13 V3 2.133713 1_445
O13 V2 2.152190 1_555
O14 V3 2.133588 1_555
O14 V1 2.152187 1_555
O15 V0 2.133032 1_655
O15 V4 2.152774 1_555
O16 V1 2.183763 1_555
O17 V4 2.182478 1_556
O18 V5 2.182519 1_555
O19 V2 2.183760 1_554
