# generated using pymatgen
data_Co2OF3
_symmetry_space_group_name_H-M   'P 1'
_cell_length_a   4.69430800
_cell_length_b   4.69430800
_cell_length_c   12.68742800
_cell_angle_alpha   90.00000000
_cell_angle_beta   90.00000000
_cell_angle_gamma   93.39304253
_symmetry_Int_Tables_number   1
_chemical_formula_structural   Co2OF3
_chemical_formula_sum   'Co8 O4 F12'
_cell_volume   279.09674733
_cell_formula_units_Z   4
loop_
 _symmetry_equiv_pos_site_id
 _symmetry_equiv_pos_as_xyz
  1  'x, y, z'
loop_
 _atom_site_type_symbol
 _atom_site_label
 _atom_site_symmetry_multiplicity
 _atom_site_fract_x
 _atom_site_fract_y
 _atom_site_fract_z
 _atom_site_occupancy
  Co  Co0  1  0.97503400  0.97503400  0.62451500  1
  Co  Co1  1  0.97503400  0.97503400  0.87548500  1
  Co  Co2  1  0.02496600  0.02496600  0.12451500  1
  Co  Co3  1  0.02496600  0.02496600  0.37548500  1
  Co  Co4  1  0.52018100  0.52018100  0.75000000  1
  Co  Co5  1  0.47981900  0.47981900  0.25000000  1
  Co  Co6  1  0.50000000  0.50000000  0.00000000  1
  Co  Co7  1  0.50000000  0.50000000  0.50000000  1
  O  O0  1  0.30151500  0.30151500  0.37756800  1
  O  O1  1  0.30151500  0.30151500  0.12243200  1
  O  O2  1  0.69848500  0.69848500  0.62243200  1
  O  O3  1  0.69848500  0.69848500  0.87756800  1
  F  F0  1  0.79998000  0.19027700  0.75000000  1
  F  F1  1  0.80972300  0.20002000  0.25000000  1
  F  F2  1  0.80495600  0.19504400  0.00000000  1
  F  F3  1  0.80495600  0.19504400  0.50000000  1
  F  F4  1  0.28727300  0.28727300  0.62585000  1
  F  F5  1  0.28727300  0.28727300  0.87415000  1
  F  F6  1  0.71272700  0.71272700  0.12585000  1
  F  F7  1  0.71272700  0.71272700  0.37415000  1
  F  F8  1  0.19027700  0.79998000  0.75000000  1
  F  F9  1  0.20002000  0.80972300  0.25000000  1
  F  F10  1  0.19504400  0.80495600  0.00000000  1
  F  F11  1  0.19504400  0.80495600  0.50000000  1
loop_
_geom_bond_atom_site_label_1
_geom_bond_atom_site_label_2
_geom_bond_distance
_geom_bond_site_symmetry_2
Co0 O2 1.780978 1_555
Co0 F4 2.010672 1_665
Co0 F3 2.073017 1_565
Co0 F11 2.073017 1_655
Co0 F0 2.080682 1_565
Co0 F8 2.080682 1_655
Co1 O3 1.780978 1_555
Co1 F5 2.010672 1_665
Co1 F10 2.073017 1_656
Co1 F2 2.073017 1_566
Co1 F0 2.080682 1_565
Co1 F8 2.080682 1_655
Co2 O1 1.780978 1_555
Co2 F6 2.010672 1_445
Co2 F10 2.073017 1_545
Co2 F2 2.073017 1_455
Co2 F9 2.080682 1_545
Co2 F1 2.080682 1_455
Co3 O0 1.780978 1_555
Co3 F7 2.010672 1_445
Co3 F3 2.073017 1_455
Co3 F11 2.073017 1_545
Co3 F9 2.080682 1_545
Co3 F1 2.080682 1_455
Co4 O2 1.984396 1_555
Co4 O3 1.984396 1_555
Co4 F0 2.089102 1_555
Co4 F8 2.089102 1_555
Co4 F4 2.174942 1_555
Co4 F5 2.174942 1_555
Co5 O1 1.984396 1_555
Co5 O0 1.984396 1_555
Co5 F1 2.089102 1_555
Co5 F9 2.089102 1_555
Co5 F7 2.174942 1_555
Co5 F6 2.174942 1_555
Co6 O3 2.011576 1_554
Co6 O1 2.011576 1_555
Co6 F10 2.083578 1_555
Co6 F2 2.083578 1_555
Co6 F6 2.103777 1_555
Co6 F5 2.103777 1_554
Co7 O2 2.011576 1_555
Co7 O0 2.011576 1_555
Co7 F11 2.083578 1_555
Co7 F3 2.083578 1_555
Co7 F7 2.103777 1_555
Co7 F4 2.103777 1_555
