# generated using pymatgen
data_CuPO3
_symmetry_space_group_name_H-M   'P 1'
_cell_length_a   4.73416700
_cell_length_b   10.85654200
_cell_length_c   12.18082849
_cell_angle_alpha   59.57009080
_cell_angle_beta   90.00000000
_cell_angle_gamma   90.00000000
_symmetry_Int_Tables_number   1
_chemical_formula_structural   CuPO3
_chemical_formula_sum   'Cu8 P8 O24'
_cell_volume   539.81483728
_cell_formula_units_Z   8
loop_
 _symmetry_equiv_pos_site_id
 _symmetry_equiv_pos_as_xyz
  1  'x, y, z'
loop_
 _atom_site_type_symbol
 _atom_site_label
 _atom_site_symmetry_multiplicity
 _atom_site_fract_x
 _atom_site_fract_y
 _atom_site_fract_z
 _atom_site_occupancy
  Cu  Cu0  1  0.17148800  0.54290000  0.16512400  1
  Cu  Cu1  1  0.53037700  0.14155900  0.00973600  1
  Cu  Cu2  1  0.67148800  0.45710000  0.33487600  1
  Cu  Cu3  1  0.03037700  0.85844100  0.49026400  1
  Cu  Cu4  1  0.96962300  0.14155900  0.50973600  1
  Cu  Cu5  1  0.32851200  0.54290000  0.66512400  1
  Cu  Cu6  1  0.46962300  0.85844100  0.99026400  1
  Cu  Cu7  1  0.82851200  0.45710000  0.83487600  1
  P  P0  1  0.81431000  0.79318000  0.20171300  1
  P  P1  1  0.81289600  0.29526700  0.13905200  1
  P  P2  1  0.31431000  0.20682000  0.29828700  1
  P  P3  1  0.31289600  0.70473300  0.36094800  1
  P  P4  1  0.68710400  0.29526700  0.63905200  1
  P  P5  1  0.68569000  0.79318000  0.70171300  1
  P  P6  1  0.18710400  0.70473300  0.86094800  1
  P  P7  1  0.18569000  0.20682000  0.79828700  1
  O  O0  1  0.81971000  0.65507800  0.20123700  1
  O  O1  1  0.81125500  0.43406000  0.13485800  1
  O  O2  1  0.72626400  0.28994000  0.02087700  1
  O  O3  1  0.31125500  0.56594000  0.36514200  1
  O  O4  1  0.11823900  0.21781300  0.18313400  1
  O  O5  1  0.61627400  0.17538900  0.25625100  1
  O  O6  1  0.72550700  0.92608900  0.07906800  1
  O  O7  1  0.31971000  0.34492200  0.29876300  1
  O  O8  1  0.22550700  0.07391100  0.42093200  1
  O  O9  1  0.11627400  0.82461100  0.24374900  1
  O  O10  1  0.61823900  0.78218700  0.31686600  1
  O  O11  1  0.77373600  0.28994000  0.52087700  1
  O  O12  1  0.22626400  0.71006000  0.47912300  1
  O  O13  1  0.38176100  0.21781300  0.68313400  1
  O  O14  1  0.88372600  0.17538900  0.75625100  1
  O  O15  1  0.77449300  0.92608900  0.57906800  1
  O  O16  1  0.68029000  0.65507800  0.70123700  1
  O  O17  1  0.27449300  0.07391100  0.92093200  1
  O  O18  1  0.38372600  0.82461100  0.74374900  1
  O  O19  1  0.88176100  0.78218700  0.81686600  1
  O  O20  1  0.68874500  0.43406000  0.63485800  1
  O  O21  1  0.27373600  0.71006000  0.97912300  1
  O  O22  1  0.18874500  0.56594000  0.86514200  1
  O  O23  1  0.18029000  0.34492200  0.79876300  1
loop_
_geom_bond_atom_site_label_1
_geom_bond_atom_site_label_2
_geom_bond_distance
_geom_bond_site_symmetry_2
Cu0 O7 2.053729 1_555
Cu0 O21 2.120359 1_554
Cu0 O1 2.209486 1_455
Cu0 O0 2.234467 1_455
Cu1 O2 1.922206 1_555
Cu1 O17 1.995415 1_554
Cu1 O6 2.244447 1_545
Cu2 O0 2.053729 1_555
Cu2 O11 2.120359 1_555
Cu2 O3 2.209486 1_555
Cu2 O7 2.234467 1_555
Cu3 O12 1.922206 1_555
Cu3 O15 1.995415 1_455
Cu3 O8 2.244447 1_565
Cu4 O11 1.922206 1_555
Cu4 O8 1.995415 1_655
Cu4 O15 2.244447 1_545
Cu5 O23 2.053729 1_555
Cu5 O12 2.120359 1_555
Cu5 O20 2.209486 1_555
Cu5 O16 2.234467 1_555
Cu6 O21 1.922206 1_555
Cu6 O6 1.995415 1_556
Cu6 O17 2.244447 1_565
Cu7 O16 2.053729 1_555
Cu7 O2 2.120359 1_556
Cu7 O22 2.209486 1_655
Cu7 O23 2.234467 1_655
O0 P0 1.502473 1_555
O1 P1 1.481613 1_555
O2 P1 1.525763 1_555
O3 P3 1.481613 1_555
O4 P1 1.620997 1_455
O4 P2 1.635157 1_555
O5 P2 1.612207 1_555
O5 P1 1.648095 1_555
O6 P0 1.518885 1_555
O7 P2 1.502473 1_555
O8 P2 1.518885 1_555
O9 P0 1.612207 1_455
O9 P3 1.648095 1_555
O10 P3 1.620997 1_555
O10 P0 1.635157 1_555
O11 P4 1.525763 1_555
O12 P3 1.525763 1_555
O13 P4 1.620997 1_555
O13 P7 1.635157 1_555
O14 P7 1.612207 1_655
O14 P4 1.648095 1_555
O15 P5 1.518885 1_555
O16 P5 1.502473 1_555
O17 P7 1.518885 1_555
O18 P5 1.612207 1_555
O18 P6 1.648095 1_555
O19 P6 1.620997 1_655
O19 P5 1.635157 1_555
O20 P4 1.481613 1_555
O21 P6 1.525763 1_555
O22 P6 1.481613 1_555
O23 P7 1.502473 1_555
