# generated using pymatgen
data_Li2V(CO3)2
_symmetry_space_group_name_H-M   'P 1'
_cell_length_a   6.19953002
_cell_length_b   9.23188246
_cell_length_c   8.37975340
_cell_angle_alpha   98.65516149
_cell_angle_beta   77.01791823
_cell_angle_gamma   105.18732257
_symmetry_Int_Tables_number   1
_chemical_formula_structural   Li2V(CO3)2
_chemical_formula_sum   'Li8 V4 C8 O24'
_cell_volume   448.87427204
_cell_formula_units_Z   4
loop_
 _symmetry_equiv_pos_site_id
 _symmetry_equiv_pos_as_xyz
  1  'x, y, z'
loop_
 _atom_site_type_symbol
 _atom_site_label
 _atom_site_symmetry_multiplicity
 _atom_site_fract_x
 _atom_site_fract_y
 _atom_site_fract_z
 _atom_site_occupancy
  Li  Li0  1  0.98298900  0.33875200  0.89238800  1
  Li  Li1  1  0.23312700  0.58923200  0.39237000  1
  Li  Li2  1  0.48297100  0.83873000  0.89235100  1
  Li  Li3  1  0.73306000  0.08925500  0.39238100  1
  Li  Li4  1  0.76673400  0.41088900  0.60772000  1
  Li  Li5  1  0.01717600  0.66113700  0.10754900  1
  Li  Li6  1  0.26671400  0.91087000  0.60768800  1
  Li  Li7  1  0.51723900  0.16112200  0.10754200  1
  V  V0  1  0.50001600  0.50005300  0.00008800  1
  V  V1  1  0.74999700  0.74994900  0.49990900  1
  V  V2  1  0.00002700  0.00011000  0.00005300  1
  V  V3  1  0.24995900  0.24989200  0.49994900  1
  C  C0  1  0.67734600  0.44099200  0.29435900  1
  C  C1  1  0.92742300  0.69063400  0.79419400  1
  C  C2  1  0.17737400  0.94102000  0.29431100  1
  C  C3  1  0.42743600  0.19061300  0.79420000  1
  C  C4  1  0.07262900  0.30949200  0.20577100  1
  C  C5  1  0.32257100  0.55886700  0.70571800  1
  C  C6  1  0.57263900  0.80951300  0.20572100  1
  C  C7  1  0.82256600  0.05888200  0.70572100  1
  O  O0  1  0.14473500  0.38314700  0.07606200  1
  O  O1  1  0.39487600  0.63239700  0.57588000  1
  O  O2  1  0.64472400  0.88316200  0.07606000  1
  O  O3  1  0.89483500  0.13238000  0.57589800  1
  O  O4  1  0.61748500  0.37987000  0.15598100  1
  O  O5  1  0.86785500  0.62945900  0.65559300  1
  O  O6  1  0.11747900  0.87988500  0.15594500  1
  O  O7  1  0.36789900  0.12944600  0.65562800  1
  O  O8  1  0.81291000  0.57464700  0.30214700  1
  O  O9  1  0.06269100  0.82434700  0.80226700  1
  O  O10  1  0.31289400  0.07462900  0.30211600  1
  O  O11  1  0.56269800  0.32433700  0.80228100  1
  O  O12  1  0.93714600  0.17586200  0.19779300  1
  O  O13  1  0.18725500  0.42515800  0.69782400  1
  O  O14  1  0.43713100  0.67584200  0.19776700  1
  O  O15  1  0.68728500  0.92517400  0.69782400  1
  O  O16  1  0.13252100  0.37053500  0.34425600  1
  O  O17  1  0.38213400  0.62011600  0.84419800  1
  O  O18  1  0.63250000  0.87054700  0.34422400  1
  O  O19  1  0.88212300  0.12013900  0.84416800  1
  O  O20  1  0.60518300  0.36744100  0.42414700  1
  O  O21  1  0.85520100  0.61699200  0.92392200  1
  O  O22  1  0.10519100  0.86746600  0.42412600  1
  O  O23  1  0.35525600  0.11701600  0.92391200  1
loop_
_geom_bond_atom_site_label_1
_geom_bond_atom_site_label_2
_geom_bond_distance
_geom_bond_site_symmetry_2
Li0 O0 1.957212 1_656
Li0 O13 1.957724 1_655
Li0 O19 1.958139 1_555
Li1 O1 1.956550 1_555
Li1 O14 1.958081 1_555
Li1 O16 1.958587 1_555
Li2 O2 1.957480 1_556
Li2 O15 1.957724 1_555
Li2 O17 1.958061 1_555
Li3 O3 1.956722 1_555
Li3 O12 1.958156 1_555
Li3 O18 1.958697 1_545
Li4 O20 1.956104 1_555
Li4 O5 1.957571 1_555
Li4 O11 1.957692 1_555
Li5 O21 1.957871 1_454
Li5 O8 1.958219 1_455
Li5 O6 1.959132 1_555
Li6 O22 1.955933 1_555
Li6 O9 1.957679 1_555
Li6 O7 1.957729 1_565
Li7 O23 1.957941 1_554
Li7 O10 1.958251 1_555
Li7 O4 1.959143 1_555
C0 O4 1.299011 1_555
C0 O20 1.299444 1_555
C0 O8 1.300052 1_555
C1 O21 1.299499 1_555
C1 O9 1.299843 1_655
C1 O5 1.300112 1_555
C2 O6 1.299027 1_555
C2 O10 1.299620 1_565
C2 O22 1.299652 1_555
C3 O23 1.299150 1_555
C3 O7 1.299807 1_555
C3 O11 1.299910 1_555
C4 O0 1.299419 1_555
C4 O16 1.299718 1_555
C4 O12 1.299753 1_455
C5 O17 1.299351 1_555
C5 O1 1.299705 1_555
C5 O13 1.299855 1_555
C6 O2 1.299049 1_555
C6 O18 1.299762 1_555
C6 O14 1.300097 1_555
C7 O19 1.299107 1_555
C7 O3 1.299430 1_555
C7 O15 1.299761 1_545
O0 V0 2.180074 1_555
O1 V1 2.180907 1_555
O2 V2 2.180330 1_665
O3 V3 2.180794 1_655
O4 V0 2.180582 1_555
O5 V1 2.182667 1_555
O6 V2 2.180779 1_565
O7 V3 2.182663 1_555
O8 V1 2.179601 1_555
O9 V2 2.182285 1_566
O10 V3 2.179748 1_555
O11 V0 2.182122 1_556
O12 V2 2.182255 1_655
O13 V3 2.179691 1_555
O14 V0 2.182181 1_555
O15 V1 2.179650 1_555
O16 V3 2.182127 1_555
O17 V0 2.181345 1_556
O18 V1 2.182011 1_555
O19 V2 2.181181 1_656
O20 V3 2.181221 1_555
O21 V0 2.179898 1_556
O22 V1 2.180966 1_455
O23 V2 2.180007 1_556
