# generated using pymatgen
data_Mg7Si4(HO8)2
_symmetry_space_group_name_H-M   'P 1'
_cell_length_a   5.82850000
_cell_length_b   8.28279600
_cell_length_c   11.58392700
_cell_angle_alpha   90.00000000
_cell_angle_beta   90.00000000
_cell_angle_gamma   90.00000000
_symmetry_Int_Tables_number   1
_chemical_formula_structural   Mg7Si4(HO8)2
_chemical_formula_sum   'Mg14 Si8 H4 O32'
_cell_volume   559.22886265
_cell_formula_units_Z   2
loop_
 _symmetry_equiv_pos_site_id
 _symmetry_equiv_pos_as_xyz
  1  'x, y, z'
loop_
 _atom_site_type_symbol
 _atom_site_label
 _atom_site_symmetry_multiplicity
 _atom_site_fract_x
 _atom_site_fract_y
 _atom_site_fract_z
 _atom_site_occupancy
  Mg  Mg0  1  0.00000000  0.00000000  0.50000000  1
  Mg  Mg1  1  0.00000000  0.00000000  0.00000000  1
  Mg  Mg2  1  0.50000000  0.50000000  0.00000000  1
  Mg  Mg3  1  0.50000000  0.50000000  0.50000000  1
  Mg  Mg4  1  0.00000000  0.04581900  0.75000000  1
  Mg  Mg5  1  0.00000000  0.95418100  0.25000000  1
  Mg  Mg6  1  0.25380100  0.74831200  0.61381000  1
  Mg  Mg7  1  0.25380100  0.25168800  0.38619000  1
  Mg  Mg8  1  0.25380100  0.74831200  0.88619000  1
  Mg  Mg9  1  0.25380100  0.25168800  0.11381000  1
  Mg  Mg10  1  0.74619900  0.25168800  0.38619000  1
  Mg  Mg11  1  0.74619900  0.74831200  0.61381000  1
  Mg  Mg12  1  0.74619900  0.25168800  0.11381000  1
  Mg  Mg13  1  0.74619900  0.74831200  0.88619000  1
  Si  Si0  1  0.00000000  0.39193600  0.61898800  1
  Si  Si1  1  0.00000000  0.60806400  0.38101200  1
  Si  Si2  1  0.00000000  0.39193600  0.88101200  1
  Si  Si3  1  0.00000000  0.60806400  0.11898800  1
  Si  Si4  1  0.50000000  0.88797000  0.12406000  1
  Si  Si5  1  0.50000000  0.11203000  0.87594000  1
  Si  Si6  1  0.50000000  0.88797000  0.37594000  1
  Si  Si7  1  0.50000000  0.11203000  0.62406000  1
  H  H0  1  0.00000000  0.64365700  0.75000000  1
  H  H1  1  0.00000000  0.35634300  0.25000000  1
  H  H2  1  0.50000000  0.40328900  0.25000000  1
  H  H3  1  0.50000000  0.59671100  0.75000000  1
  O  O0  1  0.00000000  0.76294000  0.75000000  1
  O  O1  1  0.00000000  0.23706000  0.25000000  1
  O  O2  1  0.50000000  0.28403400  0.25000000  1
  O  O3  1  0.50000000  0.71596600  0.75000000  1
  O  O4  1  0.00000000  0.29163600  0.75000000  1
  O  O5  1  0.00000000  0.70836400  0.25000000  1
  O  O6  1  0.50000000  0.79456400  0.25000000  1
  O  O7  1  0.50000000  0.20543600  0.75000000  1
  O  O8  1  0.00000000  0.75132300  0.48421900  1
  O  O9  1  0.00000000  0.24867700  0.51578100  1
  O  O10  1  0.00000000  0.75132300  0.01578100  1
  O  O11  1  0.00000000  0.24867700  0.98421900  1
  O  O12  1  0.50000000  0.23920800  0.98644800  1
  O  O13  1  0.50000000  0.76079200  0.01355200  1
  O  O14  1  0.50000000  0.23920800  0.51355200  1
  O  O15  1  0.50000000  0.76079200  0.48644800  1
  O  O16  1  0.26042200  0.99919900  0.62462800  1
  O  O17  1  0.26042200  0.00080100  0.37537200  1
  O  O18  1  0.26042200  0.99919900  0.87537200  1
  O  O19  1  0.26042200  0.00080100  0.12462800  1
  O  O20  1  0.73957800  0.00080100  0.37537200  1
  O  O21  1  0.73957800  0.99919900  0.62462800  1
  O  O22  1  0.73957800  0.00080100  0.12462800  1
  O  O23  1  0.73957800  0.99919900  0.87537200  1
  O  O24  1  0.77102500  0.49476700  0.11703400  1
  O  O25  1  0.77102500  0.50523300  0.88296600  1
  O  O26  1  0.77102500  0.49476700  0.38296600  1
  O  O27  1  0.77102500  0.50523300  0.61703400  1
  O  O28  1  0.22897500  0.50523300  0.88296600  1
  O  O29  1  0.22897500  0.49476700  0.11703400  1
  O  O30  1  0.22897500  0.50523300  0.61703400  1
  O  O31  1  0.22897500  0.49476700  0.38296600  1
loop_
_geom_bond_atom_site_label_1
_geom_bond_atom_site_label_2
_geom_bond_distance
_geom_bond_site_symmetry_2
Mg0 O9 2.067837 1_555
Mg0 O8 2.067837 1_545
Mg0 O16 2.094800 1_545
Mg0 O21 2.094800 1_445
Mg0 O20 2.094800 1_455
Mg0 O17 2.094800 1_555
Mg1 O11 2.067837 1_554
Mg1 O10 2.067837 1_545
Mg1 O19 2.094800 1_555
Mg1 O22 2.094800 1_455
Mg1 O18 2.094800 1_544
Mg1 O23 2.094800 1_444
Mg2 O24 2.082112 1_555
Mg2 O29 2.082112 1_555
Mg2 O25 2.082112 1_554
Mg2 O28 2.082112 1_554
Mg2 O13 2.165784 1_555
Mg2 O12 2.165784 1_554
Mg3 O27 2.082112 1_555
Mg3 O26 2.082112 1_555
Mg3 O30 2.082112 1_555
Mg3 O31 2.082112 1_555
Mg3 O15 2.165784 1_555
Mg3 O14 2.165784 1_555
Mg4 O4 2.036052 1_555
Mg4 O18 2.135933 1_545
Mg4 O23 2.135933 1_445
Mg4 O16 2.135933 1_545
Mg4 O21 2.135933 1_445
Mg4 O0 2.343029 1_545
Mg5 O5 2.036052 1_555
Mg5 O17 2.135933 1_565
Mg5 O20 2.135933 1_465
Mg5 O19 2.135933 1_565
Mg5 O22 2.135933 1_465
Mg5 O1 2.343029 1_565
Mg6 O30 2.018912 1_555
Mg6 O15 2.060701 1_555
Mg6 O16 2.082179 1_555
Mg6 O8 2.107702 1_555
Mg6 O3 2.149369 1_555
Mg6 O0 2.166060 1_555
Mg7 O31 2.018912 1_555
Mg7 O14 2.060701 1_555
Mg7 O17 2.082179 1_555
Mg7 O9 2.107702 1_555
Mg7 O2 2.149369 1_555
Mg7 O1 2.166060 1_555
Mg8 O28 2.018912 1_555
Mg8 O13 2.060701 1_556
Mg8 O18 2.082179 1_555
Mg8 O10 2.107702 1_556
Mg8 O3 2.149369 1_555
Mg8 O0 2.166060 1_555
Mg9 O29 2.018912 1_555
Mg9 O12 2.060701 1_554
Mg9 O19 2.082179 1_555
Mg9 O11 2.107702 1_554
Mg9 O2 2.149369 1_555
Mg9 O1 2.166060 1_555
Mg10 O26 2.018912 1_555
Mg10 O14 2.060701 1_555
Mg10 O20 2.082179 1_555
Mg10 O9 2.107702 1_655
Mg10 O2 2.149369 1_555
Mg10 O1 2.166060 1_655
Mg11 O27 2.018912 1_555
Mg11 O15 2.060701 1_555
Mg11 O21 2.082179 1_555
Mg11 O8 2.107702 1_655
Mg11 O3 2.149369 1_555
Mg11 O0 2.166060 1_655
Mg12 O24 2.018912 1_555
Mg12 O12 2.060701 1_554
Mg12 O22 2.082179 1_555
Mg12 O11 2.107702 1_654
Mg12 O2 2.149369 1_555
Mg12 O1 2.166060 1_655
Mg13 O25 2.018912 1_555
Mg13 O13 2.060701 1_556
Mg13 O23 2.082179 1_555
Mg13 O10 2.107702 1_656
Mg13 O3 2.149369 1_555
Mg13 O0 2.166060 1_655
H0 O0 0.987997 1_555
H1 O1 0.987997 1_555
H2 O2 0.987765 1_555
H3 O3 0.987765 1_555
O4 Si2 1.730139 1_555
O4 Si0 1.730139 1_555
O5 Si1 1.730139 1_555
O5 Si3 1.730139 1_555
O6 Si4 1.651328 1_555
O6 Si6 1.651328 1_555
O7 Si7 1.651328 1_555
O7 Si5 1.651328 1_555
O8 Si1 1.684430 1_555
O9 Si0 1.684430 1_555
O10 Si3 1.684430 1_555
O11 Si2 1.684430 1_555
O12 Si5 1.657808 1_555
O13 Si4 1.657808 1_555
O14 Si7 1.657808 1_555
O15 Si6 1.657808 1_555
O16 Si7 1.680273 1_565
O17 Si6 1.680273 1_545
O18 Si5 1.680273 1_565
O19 Si4 1.680273 1_545
O20 Si6 1.680273 1_545
O21 Si7 1.680273 1_565
O22 Si4 1.680273 1_545
O23 Si5 1.680273 1_565
O24 Si3 1.631638 1_655
O25 Si2 1.631638 1_655
O26 Si1 1.631638 1_655
O27 Si0 1.631638 1_655
O28 Si2 1.631638 1_555
O29 Si3 1.631638 1_555
O30 Si0 1.631638 1_555
O31 Si1 1.631638 1_555
