# generated using pymatgen
data_Li10Ti2Mn3Co3O16
_symmetry_space_group_name_H-M   'P 1'
_cell_length_a   5.92243200
_cell_length_b   6.03745960
_cell_length_c   9.95723273
_cell_angle_alpha   90.88491513
_cell_angle_beta   90.79029360
_cell_angle_gamma   118.67951077
_symmetry_Int_Tables_number   1
_chemical_formula_structural   Li10Ti2Mn3Co3O16
_chemical_formula_sum   'Li10 Ti2 Mn3 Co3 O16'
_cell_volume   312.22754795
_cell_formula_units_Z   1
loop_
 _symmetry_equiv_pos_site_id
 _symmetry_equiv_pos_as_xyz
  1  'x, y, z'
loop_
 _atom_site_type_symbol
 _atom_site_label
 _atom_site_symmetry_multiplicity
 _atom_site_fract_x
 _atom_site_fract_y
 _atom_site_fract_z
 _atom_site_occupancy
  Li  Li0  1  0.99893100  0.02099200  0.97151100  1
  Li  Li1  1  0.99680200  0.97721100  0.48335600  1
  Li  Li2  1  0.81594200  0.59832600  0.54152300  1
  Li  Li3  1  0.68244600  0.35598900  0.75872600  1
  Li  Li4  1  0.39689800  0.21505200  0.54503900  1
  Li  Li5  1  0.19072800  0.81243300  0.04446700  1
  Li  Li6  1  0.82602700  0.19432400  0.55528600  1
  Li  Li7  1  0.60369100  0.81820900  0.04129000  1
  Li  Li8  1  0.20758800  0.41380200  0.04021200  1
  Li  Li9  1  0.34025600  0.67974600  0.26670000  1
  Ti  Ti0  1  0.68085900  0.36980300  0.01682900  1
  Ti  Ti1  1  0.35814300  0.69990100  0.53403400  1
  Mn  Mn0  1  0.83963700  0.17674100  0.27813400  1
  Mn  Mn1  1  0.34253800  0.18122700  0.27629100  1
  Mn  Mn2  1  0.18321700  0.35518700  0.77867500  1
  Co  Co0  1  0.83353400  0.66568100  0.27972100  1
  Co  Co1  1  0.17577600  0.84874200  0.78001500  1
  Co  Co2  1  0.66480800  0.84499700  0.78076600  1
  O  O0  1  0.83037000  0.67269500  0.91458800  1
  O  O1  1  0.51880000  0.51275000  0.14801700  1
  O  O2  1  0.00758700  0.01919500  0.17049300  1
  O  O3  1  0.98552900  0.50577900  0.14688000  1
  O  O4  1  0.34457000  0.19675600  0.91681000  1
  O  O5  1  0.66463100  0.31619800  0.39317400  1
  O  O6  1  0.99925500  0.00838200  0.67102900  1
  O  O7  1  0.51675000  0.03643900  0.16046100  1
  O  O8  1  0.15870000  0.79608100  0.41509100  1
  O  O9  1  0.81223900  0.18446300  0.91406000  1
  O  O10  1  0.49640500  0.99711100  0.64506400  1
  O  O11  1  0.03191000  0.51836700  0.64816400  1
  O  O12  1  0.64632900  0.80648600  0.41579100  1
  O  O13  1  0.33721600  0.68886800  0.89815500  1
  O  O14  1  0.50564000  0.52120100  0.64651200  1
  O  O15  1  0.15831200  0.30404500  0.40125200  1
loop_
_geom_bond_atom_site_label_1
_geom_bond_atom_site_label_2
_geom_bond_distance
_geom_bond_site_symmetry_2
Li0 O9 1.889764 1_555
Li0 O4 1.891218 1_655
Li0 O0 1.916356 1_545
Li0 O2 1.981598 1_656
Li1 O6 1.874419 1_565
Li1 O8 1.891746 1_655
Li1 O12 1.926118 1_555
Li1 O15 1.933074 1_665
Li2 O11 1.888803 1_655
Li2 O14 1.983348 1_555
Li2 O5 2.075344 1_555
Li2 O8 2.218502 1_655
Li2 O12 2.319803 1_555
Li2 O6 2.500720 1_565
Li3 O14 2.084344 1_555
Li3 O11 2.146001 1_655
Li3 O10 2.188145 1_545
Li3 O9 2.199163 1_555
Li3 O0 2.257254 1_555
Li3 O4 2.386070 1_555
Li4 O14 1.906281 1_555
Li4 O10 1.959384 1_545
Li4 O5 2.083034 1_555
Li4 O15 2.243156 1_555
Li4 O6 2.446676 1_455
Li4 O8 2.546826 1_545
Li5 O3 1.969122 1_455
Li5 O13 2.013497 1_554
Li5 O7 2.067613 1_565
Li5 O0 2.258536 1_454
Li5 O2 2.366046 1_565
Li5 O4 2.433866 1_564
Li6 O11 1.947533 1_655
Li6 O10 1.969212 1_545
Li6 O5 2.174826 1_555
Li6 O6 2.180324 1_555
Li6 O15 2.351038 1_655
Li6 O12 2.451873 1_545
Li7 O13 1.962760 1_554
Li7 O1 1.992112 1_555
Li7 O7 2.007198 1_565
Li7 O0 2.304401 1_554
Li7 O9 2.351239 1_564
Li7 O2 2.435227 1_665
Li8 O1 1.942953 1_555
Li8 O3 1.971623 1_455
Li8 O13 2.055943 1_554
Li8 O4 2.209811 1_554
Li8 O9 2.393894 1_454
Li8 O2 2.488185 1_555
Li9 O1 2.133577 1_555
Li9 O8 2.137600 1_555
Li9 O12 2.152808 1_555
Li9 O3 2.171269 1_455
Li9 O7 2.188511 1_565
Li9 O15 2.426704 1_555
Mn0 O5 1.983896 1_555
Mn0 O2 1.987183 1_655
Mn0 O7 2.024844 1_555
Mn0 O15 2.042153 1_655
Mn0 O3 2.205645 1_555
Mn0 O12 2.422401 1_545
Mn1 O7 2.006548 1_555
Mn1 O2 2.012416 1_555
Mn1 O15 2.018399 1_555
Mn1 O5 2.018625 1_555
Mn1 O1 2.199457 1_555
Mn1 O8 2.492657 1_545
Mn2 O11 2.077780 1_555
Mn2 O6 2.104490 1_455
Mn2 O13 2.106707 1_555
Mn2 O4 2.145147 1_555
Mn2 O14 2.157718 1_555
Mn2 O9 2.378632 1_455
Co0 O1 2.071239 1_555
Co0 O3 2.078330 1_555
Co0 O8 2.141422 1_655
Co0 O12 2.167516 1_555
Co0 O2 2.189008 1_665
Co0 O5 2.192672 1_555
Co1 O13 2.029647 1_555
Co1 O6 2.041488 1_465
Co1 O11 2.164527 1_555
Co1 O10 2.165365 1_555
Co1 O4 2.264370 1_565
Co1 O0 2.267730 1_455
Co2 O6 2.075562 1_565
Co2 O13 2.088108 1_555
Co2 O10 2.131721 1_555
Co2 O14 2.147800 1_555
Co2 O0 2.192018 1_555
Co2 O9 2.211524 1_565
O0 Ti0 1.921658 1_556
O1 Ti0 2.041364 1_555
O3 Ti0 2.021776 1_555
O4 Ti0 1.991479 1_556
O7 Ti0 2.300126 1_555
O8 Ti1 1.943207 1_555
O9 Ti0 1.930533 1_556
O10 Ti1 1.901594 1_555
O11 Ti1 2.071762 1_555
O12 Ti1 1.933391 1_555
O14 Ti1 2.023942 1_555
O15 Ti1 2.450514 1_555
