# generated using pymatgen
data_TiMn2Fe3(PO4)6
_symmetry_space_group_name_H-M   'P 1'
_cell_length_a   8.61820090
_cell_length_b   8.61820090
_cell_length_c   8.61820130
_cell_angle_alpha   60.29158849
_cell_angle_beta   60.29158849
_cell_angle_gamma   60.29158499
_symmetry_Int_Tables_number   1
_chemical_formula_structural   TiMn2Fe3(PO4)6
_chemical_formula_sum   'Ti1 Mn2 Fe3 P6 O24'
_cell_volume   455.60790469
_cell_formula_units_Z   1
loop_
 _symmetry_equiv_pos_site_id
 _symmetry_equiv_pos_as_xyz
  1  'x, y, z'
loop_
 _atom_site_type_symbol
 _atom_site_label
 _atom_site_symmetry_multiplicity
 _atom_site_fract_x
 _atom_site_fract_y
 _atom_site_fract_z
 _atom_site_occupancy
  Ti  Ti0  1  0.14517800  0.14517800  0.14517800  1
  Mn  Mn0  1  0.99890400  0.99890400  0.99890400  1
  Mn  Mn1  1  0.49935200  0.49935200  0.49935200  1
  Fe  Fe0  1  0.85450000  0.85450000  0.85450000  1
  Fe  Fe1  1  0.64530600  0.64530600  0.64530600  1
  Fe  Fe2  1  0.35474500  0.35474500  0.35474500  1
  P  P0  1  0.75006300  0.45622900  0.04446300  1
  P  P1  1  0.45622900  0.04446300  0.75006300  1
  P  P2  1  0.04446300  0.75006300  0.45622900  1
  P  P3  1  0.95610700  0.25054800  0.54432300  1
  P  P4  1  0.54432300  0.95610700  0.25054800  1
  P  P5  1  0.25054800  0.54432300  0.95610700  1
  O  O0  1  0.88771200  0.68862800  0.49191600  1
  O  O1  1  0.68862800  0.49191600  0.88771200  1
  O  O2  1  0.94012900  0.08803900  0.73744300  1
  O  O3  1  0.49191600  0.88771200  0.68862800  1
  O  O4  1  0.00621100  0.18472000  0.38138900  1
  O  O5  1  0.76105400  0.41187300  0.55245000  1
  O  O6  1  0.73744300  0.94012900  0.08803900  1
  O  O7  1  0.55245000  0.76105400  0.41187300  1
  O  O8  1  0.81282500  0.61259800  0.00605700  1
  O  O9  1  0.41187300  0.55245000  0.76105400  1
  O  O10  1  0.91363200  0.25986900  0.06319500  1
  O  O11  1  0.61259800  0.00605700  0.81282500  1
  O  O12  1  0.38138900  0.00621100  0.18472000  1
  O  O13  1  0.08803900  0.73744300  0.94012900  1
  O  O14  1  0.58857500  0.43913500  0.24116700  1
  O  O15  1  0.18472000  0.38138900  0.00621100  1
  O  O16  1  0.43913500  0.24116700  0.58857500  1
  O  O17  1  0.25986900  0.06319500  0.91363200  1
  O  O18  1  0.24116700  0.58857500  0.43913500  1
  O  O19  1  0.00605700  0.81282500  0.61259800  1
  O  O20  1  0.50434700  0.11054600  0.31677700  1
  O  O21  1  0.06319500  0.91363200  0.25986900  1
  O  O22  1  0.31677700  0.50434700  0.11054600  1
  O  O23  1  0.11054600  0.31677700  0.50434700  1
loop_
_geom_bond_atom_site_label_1
_geom_bond_atom_site_label_2
_geom_bond_distance
_geom_bond_site_symmetry_2
Mn0 O13 2.225780 1_655
Mn0 O6 2.225780 1_556
Mn0 O2 2.225781 1_565
Mn0 O10 2.258011 1_566
Mn0 O17 2.258011 1_665
Mn0 O21 2.258011 1_656
Mn1 O5 2.204606 1_555
Mn1 O7 2.204606 1_555
Mn1 O9 2.204606 1_555
Mn1 O18 2.205623 1_555
Mn1 O16 2.205623 1_555
Mn1 O14 2.205623 1_555
Fe0 O11 1.938932 1_565
Fe0 O8 1.938932 1_556
Fe0 O19 1.938932 1_655
Fe0 O13 2.082063 1_655
Fe0 O2 2.082063 1_565
Fe0 O6 2.082063 1_556
Fe1 O3 1.948816 1_555
Fe1 O0 1.948816 1_555
Fe1 O1 1.948816 1_555
Fe1 O5 2.120869 1_555
Fe1 O9 2.120869 1_555
Fe1 O7 2.120869 1_555
Fe2 O20 1.942545 1_555
Fe2 O23 1.942545 1_555
Fe2 O22 1.942545 1_555
Fe2 O18 2.083272 1_555
Fe2 O14 2.083272 1_555
Fe2 O16 2.083272 1_555
O0 P2 1.528268 1_655
O1 P0 1.528268 1_556
O2 P3 1.550518 1_555
O3 P1 1.528268 1_565
O4 P3 1.557523 1_455
O4 Ti0 1.887102 1_555
O5 P3 1.557885 1_555
O6 P4 1.550518 1_555
O7 P4 1.557885 1_555
O8 P0 1.523524 1_555
O9 P5 1.557885 1_555
O10 P0 1.570766 1_555
O10 Ti0 2.051467 1_655
O11 P1 1.523524 1_555
O12 P4 1.557523 1_545
O12 Ti0 1.887102 1_555
O13 P5 1.550518 1_555
O14 P0 1.565134 1_555
O15 P5 1.557523 1_554
O15 Ti0 1.887102 1_555
O16 P1 1.565134 1_555
O17 P1 1.570766 1_555
O17 Ti0 2.051467 1_556
O18 P2 1.565134 1_555
O19 P2 1.523524 1_555
O20 P4 1.523016 1_545
O21 P2 1.570766 1_555
O21 Ti0 2.051467 1_565
O22 P5 1.523016 1_554
O23 P3 1.523016 1_455
