# generated using pymatgen
data_Rb5FeO4
_symmetry_space_group_name_H-M   'P 1'
_cell_length_a   7.16102800
_cell_length_b   7.37527200
_cell_length_c   8.76387200
_cell_angle_alpha   90.00000000
_cell_angle_beta   90.00000000
_cell_angle_gamma   90.00000000
_symmetry_Int_Tables_number   1
_chemical_formula_structural   Rb5FeO4
_chemical_formula_sum   'Rb10 Fe2 O8'
_cell_volume   462.85977452
_cell_formula_units_Z   2
loop_
 _symmetry_equiv_pos_site_id
 _symmetry_equiv_pos_as_xyz
  1  'x, y, z'
loop_
 _atom_site_type_symbol
 _atom_site_label
 _atom_site_symmetry_multiplicity
 _atom_site_fract_x
 _atom_site_fract_y
 _atom_site_fract_z
 _atom_site_occupancy
  Rb  Rb0  1  0.92208300  0.06110800  0.31127400  1
  Rb  Rb1  1  0.92208300  0.06110800  0.68872600  1
  Rb  Rb2  1  0.74629500  0.62415400  0.70188200  1
  Rb  Rb3  1  0.74629500  0.62415400  0.29811800  1
  Rb  Rb4  1  0.75180700  0.31085400  0.00000000  1
  Rb  Rb5  1  0.42208300  0.93889200  0.81127400  1
  Rb  Rb6  1  0.42208300  0.93889200  0.18872600  1
  Rb  Rb7  1  0.24629500  0.37584600  0.79811800  1
  Rb  Rb8  1  0.24629500  0.37584600  0.20188200  1
  Rb  Rb9  1  0.25180700  0.68914600  0.50000000  1
  Fe  Fe0  1  0.00238800  0.82060500  0.00000000  1
  Fe  Fe1  1  0.50238800  0.17939500  0.50000000  1
  O  O0  1  0.73368200  0.78483200  0.00000000  1
  O  O1  1  0.57266700  0.91914700  0.50000000  1
  O  O2  1  0.59736900  0.27957700  0.30806700  1
  O  O3  1  0.59736900  0.27957700  0.69193300  1
  O  O4  1  0.23368200  0.21516800  0.50000000  1
  O  O5  1  0.07266700  0.08085300  0.00000000  1
  O  O6  1  0.09736900  0.72042300  0.80806700  1
  O  O7  1  0.09736900  0.72042300  0.19193300  1
loop_
_geom_bond_atom_site_label_1
_geom_bond_atom_site_label_2
_geom_bond_distance
_geom_bond_site_symmetry_2
Fe0 O0 1.942215 1_455
Fe0 O6 1.959063 1_554
Fe0 O7 1.959063 1_555
Fe0 O5 1.984282 1_565
Fe1 O4 1.942215 1_555
Fe1 O2 1.959063 1_555
Fe1 O3 1.959063 1_555
Fe1 O1 1.984282 1_545
O0 Rb3 2.870282 1_555
O0 Rb2 2.870282 1_554
O0 Rb5 3.000942 1_554
O0 Rb6 3.000942 1_555
O1 Rb9 2.856023 1_555
O1 Rb6 2.936973 1_555
O1 Rb5 2.936973 1_555
O1 Rb3 3.067525 1_555
O1 Rb2 3.067525 1_555
O1 Rb0 3.176905 1_565
O1 Rb1 3.176905 1_565
O2 Rb3 2.757427 1_555
O2 Rb8 2.773187 1_555
O2 Rb0 2.829122 1_555
O2 Rb4 2.926695 1_555
O2 Rb6 2.997143 1_545
O3 Rb2 2.757427 1_555
O3 Rb7 2.773187 1_555
O3 Rb1 2.829122 1_555
O3 Rb4 2.926695 1_556
O3 Rb5 2.997143 1_545
O4 Rb8 2.870282 1_555
O4 Rb7 2.870282 1_555
O4 Rb1 3.000942 1_455
O4 Rb0 3.000942 1_455
O5 Rb4 2.856023 1_455
O5 Rb0 2.936973 1_455
O5 Rb1 2.936973 1_454
O5 Rb7 3.067525 1_554
O5 Rb8 3.067525 1_555
O5 Rb6 3.176905 1_545
O5 Rb5 3.176905 1_544
O6 Rb7 2.757427 1_555
O6 Rb2 2.773187 1_455
O6 Rb5 2.829122 1_555
O6 Rb9 2.926695 1_555
O6 Rb1 2.997143 1_465
O7 Rb8 2.757427 1_555
O7 Rb3 2.773187 1_455
O7 Rb6 2.829122 1_555
O7 Rb9 2.926695 1_555
O7 Rb0 2.997143 1_465
