# generated using pymatgen
data_Mg(IO3)2
_symmetry_space_group_name_H-M   'P 1'
_cell_length_a   5.30392300
_cell_length_b   6.75060000
_cell_length_c   14.78055200
_cell_angle_alpha   90.00000000
_cell_angle_beta   90.00000000
_cell_angle_gamma   90.00000000
_symmetry_Int_Tables_number   1
_chemical_formula_structural   Mg(IO3)2
_chemical_formula_sum   'Mg4 I8 O24'
_cell_volume   529.21267746
_cell_formula_units_Z   4
loop_
 _symmetry_equiv_pos_site_id
 _symmetry_equiv_pos_as_xyz
  1  'x, y, z'
loop_
 _atom_site_type_symbol
 _atom_site_label
 _atom_site_symmetry_multiplicity
 _atom_site_fract_x
 _atom_site_fract_y
 _atom_site_fract_z
 _atom_site_occupancy
  Mg  Mg0  1  0.75000000  0.13923500  0.00000000  1
  Mg  Mg1  1  0.25000000  0.86076500  0.00000000  1
  Mg  Mg2  1  0.25000000  0.36076500  0.50000000  1
  Mg  Mg3  1  0.75000000  0.63923500  0.50000000  1
  I  I0  1  0.25175800  0.28557100  0.14977400  1
  I  I1  1  0.75175800  0.71442900  0.14977400  1
  I  I2  1  0.75175800  0.21442900  0.35022600  1
  I  I3  1  0.25175800  0.78557100  0.35022600  1
  I  I4  1  0.74824200  0.21442900  0.64977400  1
  I  I5  1  0.24824200  0.78557100  0.64977400  1
  I  I6  1  0.24824200  0.28557100  0.85022600  1
  I  I7  1  0.74824200  0.71442900  0.85022600  1
  O  O0  1  0.41983100  0.10271400  0.07689300  1
  O  O1  1  0.91983100  0.89728600  0.07689300  1
  O  O2  1  0.96640900  0.33377500  0.08108500  1
  O  O3  1  0.46640900  0.66622500  0.08108500  1
  O  O4  1  0.63041800  0.37665300  0.26293100  1
  O  O5  1  0.13041800  0.62334700  0.26293100  1
  O  O6  1  0.13041800  0.12334700  0.23706900  1
  O  O7  1  0.63041800  0.87665300  0.23706900  1
  O  O8  1  0.46640900  0.16622500  0.41891500  1
  O  O9  1  0.96640900  0.83377500  0.41891500  1
  O  O10  1  0.91983100  0.39728600  0.42310700  1
  O  O11  1  0.41983100  0.60271400  0.42310700  1
  O  O12  1  0.58016900  0.39728600  0.57689300  1
  O  O13  1  0.08016900  0.60271400  0.57689300  1
  O  O14  1  0.03359100  0.16622500  0.58108500  1
  O  O15  1  0.53359100  0.83377500  0.58108500  1
  O  O16  1  0.36958200  0.12334700  0.76293100  1
  O  O17  1  0.86958200  0.87665300  0.76293100  1
  O  O18  1  0.86958200  0.37665300  0.73706900  1
  O  O19  1  0.36958200  0.62334700  0.73706900  1
  O  O20  1  0.53359100  0.33377500  0.91891500  1
  O  O21  1  0.03359100  0.66622500  0.91891500  1
  O  O22  1  0.08016900  0.10271400  0.92310700  1
  O  O23  1  0.58016900  0.89728600  0.92310700  1
loop_
_geom_bond_atom_site_label_1
_geom_bond_atom_site_label_2
_geom_bond_distance
_geom_bond_site_symmetry_2
Mg0 O22 2.102173 1_654
Mg0 O0 2.102173 1_555
Mg0 O20 2.116246 1_554
Mg0 O2 2.116246 1_555
Mg0 O1 2.184202 1_545
Mg0 O23 2.184202 1_544
Mg1 O23 2.102173 1_554
Mg1 O1 2.102173 1_455
Mg1 O21 2.116246 1_554
Mg1 O3 2.116246 1_555
Mg1 O22 2.184202 1_564
Mg1 O0 2.184202 1_565
Mg2 O10 2.102173 1_455
Mg2 O12 2.102173 1_555
Mg2 O14 2.116246 1_555
Mg2 O8 2.116246 1_555
Mg2 O11 2.184202 1_555
Mg2 O13 2.184202 1_555
Mg3 O13 2.102173 1_655
Mg3 O11 2.102173 1_555
Mg3 O15 2.116246 1_555
Mg3 O9 2.116246 1_555
Mg3 O10 2.184202 1_555
Mg3 O12 2.184202 1_555
I0 O6 1.810594 1_555
I0 O2 1.851279 1_455
I0 O0 1.865157 1_555
I1 O7 1.810594 1_555
I1 O3 1.851279 1_555
I1 O1 1.865157 1_555
I2 O4 1.810594 1_555
I2 O8 1.851279 1_555
I2 O10 1.865157 1_555
I3 O5 1.810594 1_555
I3 O9 1.851279 1_455
I3 O11 1.865157 1_555
I4 O18 1.810594 1_555
I4 O14 1.851279 1_655
I4 O12 1.865157 1_555
I5 O19 1.810594 1_555
I5 O15 1.851279 1_555
I5 O13 1.865157 1_555
I6 O16 1.810594 1_555
I6 O20 1.851279 1_555
I6 O22 1.865157 1_555
I7 O17 1.810594 1_555
I7 O21 1.851279 1_655
I7 O23 1.865157 1_555
