# generated using pymatgen
data_BaYF5
_symmetry_space_group_name_H-M   'P 1'
_cell_length_a   8.39188943
_cell_length_b   8.39188943
_cell_length_c   5.87785539
_cell_angle_alpha   89.31846987
_cell_angle_beta   90.68153013
_cell_angle_gamma   30.58196459
_symmetry_Int_Tables_number   1
_chemical_formula_structural   BaYF5
_chemical_formula_sum   'Ba2 Y2 F10'
_cell_volume   210.38660667
_cell_formula_units_Z   2
loop_
 _symmetry_equiv_pos_site_id
 _symmetry_equiv_pos_as_xyz
  1  'x, y, z'
loop_
 _atom_site_type_symbol
 _atom_site_label
 _atom_site_symmetry_multiplicity
 _atom_site_fract_x
 _atom_site_fract_y
 _atom_site_fract_z
 _atom_site_occupancy
  Ba  Ba0  1  0.67255423  0.67255423  0.75000000  1
  Ba  Ba1  1  0.32744577  0.32744577  0.25000000  1
  Y  Y0  1  0.92615080  0.92615080  0.75000000  1
  Y  Y1  1  0.07384920  0.07384920  0.25000000  1
  F  F0  1  0.26077003  0.80757334  0.59244534  1
  F  F1  1  0.19242666  0.73922997  0.09244534  1
  F  F2  1  0.19533652  0.17167361  0.01197291  1
  F  F3  1  0.38216513  0.38216513  0.75000000  1
  F  F4  1  0.17167361  0.19533652  0.48802709  1
  F  F5  1  0.82832639  0.80466348  0.51197291  1
  F  F6  1  0.61783487  0.61783487  0.25000000  1
  F  F7  1  0.80466348  0.82832639  0.98802709  1
  F  F8  1  0.80757334  0.26077003  0.90755466  1
  F  F9  1  0.73922997  0.19242666  0.40755466  1
loop_
_geom_bond_atom_site_label_1
_geom_bond_atom_site_label_2
_geom_bond_distance
_geom_bond_site_symmetry_2
Ba0 F2 2.687060 1_656
Ba0 F4 2.687060 1_565
Ba0 F0 2.690761 1_555
Ba0 F8 2.690761 1_555
Ba0 F2 2.715053 1_566
Ba0 F4 2.715053 1_655
Ba0 F7 2.719799 1_555
Ba0 F5 2.719799 1_555
Ba0 F6 3.069542 1_555
Ba0 F6 3.069542 1_556
Ba1 F7 2.687060 1_454
Ba1 F5 2.687060 1_545
Ba1 F9 2.690761 1_555
Ba1 F1 2.690761 1_555
Ba1 F7 2.715053 1_544
Ba1 F5 2.715053 1_455
Ba1 F2 2.719799 1_555
Ba1 F4 2.719799 1_555
Ba1 F3 3.069542 1_554
Ba1 F3 3.069542 1_555
F0 Y0 2.237352 1_455
F0 Y1 2.299571 1_565
F1 Y1 2.237352 1_565
F1 Y0 2.299571 1_454
F2 Y1 2.262398 1_555
F3 Y0 2.324866 1_545
F3 Y0 2.324866 1_455
F4 Y1 2.262398 1_555
F5 Y0 2.262398 1_555
F6 Y1 2.324866 1_655
F6 Y1 2.324866 1_565
F7 Y0 2.262398 1_555
F8 Y0 2.237352 1_545
F8 Y1 2.299571 1_656
F9 Y1 2.237352 1_655
F9 Y0 2.299571 1_545
