# generated using pymatgen
data_Fe5O3F7
_symmetry_space_group_name_H-M   'P 1'
_cell_length_a   4.77664600
_cell_length_b   4.79276300
_cell_length_c   15.84445600
_cell_angle_alpha   90.00000000
_cell_angle_beta   90.00000000
_cell_angle_gamma   90.00000000
_symmetry_Int_Tables_number   1
_chemical_formula_structural   Fe5O3F7
_chemical_formula_sum   'Fe10 O6 F14'
_cell_volume   362.73239494
_cell_formula_units_Z   2
loop_
 _symmetry_equiv_pos_site_id
 _symmetry_equiv_pos_as_xyz
  1  'x, y, z'
loop_
 _atom_site_type_symbol
 _atom_site_label
 _atom_site_symmetry_multiplicity
 _atom_site_fract_x
 _atom_site_fract_y
 _atom_site_fract_z
 _atom_site_occupancy
  Fe  Fe0  1  0.78357500  0.01497000  0.79200700  1
  Fe  Fe1  1  0.75736900  0.00895900  0.00000000  1
  Fe  Fe2  1  0.78357500  0.01497000  0.20799300  1
  Fe  Fe3  1  0.77134200  0.97021100  0.40462400  1
  Fe  Fe4  1  0.77134200  0.97021100  0.59537600  1
  Fe  Fe5  1  0.22865800  0.47021100  0.90462400  1
  Fe  Fe6  1  0.21642500  0.51497000  0.29200700  1
  Fe  Fe7  1  0.22865800  0.47021100  0.09537600  1
  Fe  Fe8  1  0.24263100  0.50895900  0.50000000  1
  Fe  Fe9  1  0.21642500  0.51497000  0.70799300  1
  O  O0  1  0.94352100  0.80801800  0.29950300  1
  O  O1  1  0.95220300  0.79988100  0.50000000  1
  O  O2  1  0.94352100  0.80801800  0.70049700  1
  O  O3  1  0.05647900  0.30801800  0.79950300  1
  O  O4  1  0.04779700  0.29988100  0.00000000  1
  O  O5  1  0.05647900  0.30801800  0.20049700  1
  F  F0  1  0.94744000  0.80288200  0.89246800  1
  F  F1  1  0.94744000  0.80288200  0.10753200  1
  F  F2  1  0.05256000  0.30288200  0.39246800  1
  F  F3  1  0.05256000  0.30288200  0.60753200  1
  F  F4  1  0.45219500  0.70689800  0.79832500  1
  F  F5  1  0.45114700  0.70211300  0.00000000  1
  F  F6  1  0.45219500  0.70689800  0.20167500  1
  F  F7  1  0.44481600  0.69154600  0.39055200  1
  F  F8  1  0.44481600  0.69154600  0.60944800  1
  F  F9  1  0.55518400  0.19154600  0.89055200  1
  F  F10  1  0.54780500  0.20689800  0.29832500  1
  F  F11  1  0.55518400  0.19154600  0.10944800  1
  F  F12  1  0.54780500  0.20689800  0.70167500  1
  F  F13  1  0.54885300  0.20211300  0.50000000  1
loop_
_geom_bond_atom_site_label_1
_geom_bond_atom_site_label_2
_geom_bond_distance
_geom_bond_site_symmetry_2
Fe0 O2 1.915672 1_545
Fe0 O3 1.919906 1_655
Fe1 O4 1.966889 1_655
Fe2 O0 1.915672 1_545
Fe2 O5 1.919906 1_655
Fe3 O1 1.922612 1_555
Fe3 O0 2.013667 1_555
Fe4 O1 1.922612 1_555
Fe4 O2 2.013667 1_555
Fe5 O4 1.922612 1_556
Fe5 O3 2.013667 1_555
Fe6 O5 1.915672 1_555
Fe6 O0 1.919906 1_455
Fe7 O4 1.922612 1_555
Fe7 O5 2.013667 1_555
Fe8 O1 1.966889 1_455
Fe9 O3 1.915672 1_555
Fe9 O2 1.919906 1_455
F0 Fe0 2.044400 1_565
F0 Fe5 2.093716 1_655
F0 Fe1 2.168567 1_566
F1 Fe2 2.044400 1_565
F1 Fe7 2.093716 1_655
F1 Fe1 2.168567 1_565
F2 Fe6 2.044400 1_555
F2 Fe3 2.093716 1_445
F2 Fe8 2.168567 1_555
F3 Fe9 2.044400 1_555
F3 Fe4 2.093716 1_445
F3 Fe8 2.168567 1_555
F4 Fe9 2.040335 1_555
F4 Fe0 2.166944 1_565
F4 Fe5 2.294261 1_555
F5 Fe1 2.074202 1_565
F5 Fe7 2.156022 1_555
F5 Fe5 2.156022 1_554
F6 Fe6 2.040335 1_555
F6 Fe2 2.166944 1_565
F6 Fe7 2.294261 1_555
F7 Fe3 2.065462 1_555
F7 Fe6 2.084299 1_555
F7 Fe8 2.169275 1_555
F8 Fe4 2.065462 1_555
F8 Fe9 2.084299 1_555
F8 Fe8 2.169275 1_555
F9 Fe5 2.065462 1_555
F9 Fe0 2.084299 1_555
F9 Fe1 2.169275 1_556
F10 Fe2 2.040335 1_555
F10 Fe6 2.166944 1_555
F10 Fe3 2.294261 1_545
F11 Fe7 2.065462 1_555
F11 Fe2 2.084299 1_555
F11 Fe1 2.169275 1_555
F12 Fe0 2.040335 1_555
F12 Fe9 2.166944 1_555
F12 Fe4 2.294261 1_545
F13 Fe8 2.074202 1_555
F13 Fe4 2.156022 1_545
F13 Fe3 2.156022 1_545
