# generated using pymatgen
data_NbVO5
_symmetry_space_group_name_H-M   'P 1'
_cell_length_a   6.87996500
_cell_length_b   6.87996500
_cell_length_c   4.29901400
_cell_angle_alpha   90.00000000
_cell_angle_beta   90.00000000
_cell_angle_gamma   90.00000000
_symmetry_Int_Tables_number   1
_chemical_formula_structural   NbVO5
_chemical_formula_sum   'Nb2 V2 O10'
_cell_volume   203.48917788
_cell_formula_units_Z   2
loop_
 _symmetry_equiv_pos_site_id
 _symmetry_equiv_pos_as_xyz
  1  'x, y, z'
loop_
 _atom_site_type_symbol
 _atom_site_label
 _atom_site_symmetry_multiplicity
 _atom_site_fract_x
 _atom_site_fract_y
 _atom_site_fract_z
 _atom_site_occupancy
  Nb  Nb0  1  0.00000000  0.50000000  0.79794300  1
  Nb  Nb1  1  0.50000000  0.00000000  0.20205700  1
  V  V0  1  0.50000000  0.50000000  0.50000000  1
  V  V1  1  0.00000000  0.00000000  0.50000000  1
  O  O0  1  0.49230700  0.28990500  0.27602600  1
  O  O1  1  0.71009500  0.49230700  0.72397400  1
  O  O2  1  0.00000000  0.50000000  0.21171900  1
  O  O3  1  0.28990500  0.50769300  0.72397400  1
  O  O4  1  0.50769300  0.71009500  0.27602600  1
  O  O5  1  0.99230700  0.78990500  0.72397400  1
  O  O6  1  0.21009500  0.99230700  0.27602600  1
  O  O7  1  0.50000000  0.00000000  0.78828100  1
  O  O8  1  0.78990500  0.00769300  0.27602600  1
  O  O9  1  0.00769300  0.21009500  0.72397400  1
loop_
_geom_bond_atom_site_label_1
_geom_bond_atom_site_label_2
_geom_bond_distance
_geom_bond_site_symmetry_2
Nb0 O2 1.778829 1_556
Nb0 O1 2.020420 1_455
Nb0 O5 2.020420 1_455
Nb0 O9 2.020420 1_555
Nb0 O3 2.020420 1_555
Nb0 O2 2.520185 1_555
Nb1 O7 1.778829 1_554
Nb1 O6 2.020420 1_545
Nb1 O8 2.020420 1_555
Nb1 O4 2.020420 1_545
Nb1 O0 2.020420 1_555
Nb1 O7 2.520185 1_555
O0 V0 1.737593 1_555
O1 V0 1.737593 1_555
O3 V0 1.737593 1_555
O4 V0 1.737593 1_555
O5 V1 1.737593 1_665
O6 V1 1.737593 1_565
O8 V1 1.737593 1_655
O9 V1 1.737593 1_555
