# generated using pymatgen
data_LiVP2O7
_symmetry_space_group_name_H-M   'P 1'
_cell_length_a   6.30702076
_cell_length_b   6.30702076
_cell_length_c   13.79415320
_cell_angle_alpha   77.44014479
_cell_angle_beta   77.44014479
_cell_angle_gamma   81.07109479
_symmetry_Int_Tables_number   1
_chemical_formula_structural   LiVP2O7
_chemical_formula_sum   'Li4 V4 P8 O28'
_cell_volume   519.39832139
_cell_formula_units_Z   4
loop_
 _symmetry_equiv_pos_site_id
 _symmetry_equiv_pos_as_xyz
  1  'x, y, z'
loop_
 _atom_site_type_symbol
 _atom_site_label
 _atom_site_symmetry_multiplicity
 _atom_site_fract_x
 _atom_site_fract_y
 _atom_site_fract_z
 _atom_site_occupancy
  Li  Li0  1  0.21039700  0.21395600  0.66513400  1
  Li  Li1  1  0.78604400  0.78960300  0.83486600  1
  Li  Li2  1  0.21395600  0.21039700  0.16513400  1
  Li  Li3  1  0.78960300  0.78604400  0.33486600  1
  V  V0  1  0.40977100  0.14890100  0.35706200  1
  V  V1  1  0.14890100  0.40977100  0.85706200  1
  V  V2  1  0.85109900  0.59022900  0.14293800  1
  V  V3  1  0.59022900  0.85109900  0.64293800  1
  P  P0  1  0.27674400  0.86965100  0.86258700  1
  P  P1  1  0.34422900  0.73748500  0.08501500  1
  P  P2  1  0.26251500  0.65577100  0.41498500  1
  P  P3  1  0.86965100  0.27674400  0.36258700  1
  P  P4  1  0.13034900  0.72325600  0.63741300  1
  P  P5  1  0.73748500  0.34422900  0.58501500  1
  P  P6  1  0.65577100  0.26251500  0.91498500  1
  P  P7  1  0.72325600  0.13034900  0.13741300  1
  O  O0  1  0.09200200  0.72672000  0.87834100  1
  O  O1  1  0.17267100  0.56852700  0.10785600  1
  O  O2  1  0.27328000  0.90799800  0.62165900  1
  O  O3  1  0.48617600  0.79364400  0.78890200  1
  O  O4  1  0.08415900  0.71373500  0.35471400  1
  O  O5  1  0.20228600  0.10811800  0.82340000  1
  O  O6  1  0.35249900  0.85172500  0.96604400  1
  O  O7  1  0.38080600  0.41814900  0.41427800  1
  O  O8  1  0.58185100  0.61919400  0.08572200  1
  O  O9  1  0.28626500  0.91584100  0.14528600  1
  O  O10  1  0.14827500  0.64750100  0.53395600  1
  O  O11  1  0.56852700  0.17267100  0.60785600  1
  O  O12  1  0.89188200  0.79771400  0.67660000  1
  O  O13  1  0.20635600  0.51382400  0.71109800  1
  O  O14  1  0.79364400  0.48617600  0.28890200  1
  O  O15  1  0.10811800  0.20228600  0.32340000  1
  O  O16  1  0.43147300  0.82732900  0.39214400  1
  O  O17  1  0.85172500  0.35249900  0.46604400  1
  O  O18  1  0.71373500  0.08415900  0.85471400  1
  O  O19  1  0.41814900  0.38080600  0.91427800  1
  O  O20  1  0.61919400  0.58185100  0.58572200  1
  O  O21  1  0.64750100  0.14827500  0.03395600  1
  O  O22  1  0.79771400  0.89188200  0.17660000  1
  O  O23  1  0.91584100  0.28626500  0.64528600  1
  O  O24  1  0.51382400  0.20635600  0.21109800  1
  O  O25  1  0.72672000  0.09200200  0.37834100  1
  O  O26  1  0.82732900  0.43147300  0.89214400  1
  O  O27  1  0.90799800  0.27328000  0.12165900  1
loop_
_geom_bond_atom_site_label_1
_geom_bond_atom_site_label_2
_geom_bond_distance
_geom_bond_site_symmetry_2
Li0 O23 1.907398 1_455
Li0 O2 2.098310 1_545
Li0 O13 2.116388 1_555
Li0 O5 2.131326 1_555
Li0 O11 2.219161 1_555
Li1 O18 1.907398 1_565
Li1 O0 2.098310 1_655
Li1 O3 2.116388 1_555
Li1 O12 2.131326 1_555
Li1 O26 2.219161 1_555
Li2 O9 1.907398 1_545
Li2 O27 2.098310 1_455
Li2 O24 2.116388 1_555
Li2 O15 2.131326 1_555
Li2 O1 2.219161 1_555
Li3 O4 1.907398 1_655
Li3 O25 2.098310 1_565
Li3 O14 2.116388 1_555
Li3 O22 2.131326 1_555
Li3 O16 2.219161 1_555
O0 P0 1.532391 1_555
O0 V1 2.048817 1_555
O1 P1 1.571373 1_555
O1 V2 1.970312 1_455
O2 P4 1.532391 1_555
O2 V3 2.048817 1_555
O3 P0 1.561766 1_555
O3 V3 1.948792 1_555
O4 P2 1.495709 1_555
O5 P0 1.520645 1_545
O5 V1 2.016426 1_555
O6 P0 1.577115 1_555
O6 P1 1.635621 1_556
O7 P2 1.568081 1_555
O7 V0 1.990956 1_555
O8 P1 1.568081 1_555
O8 V2 1.990956 1_555
O9 P1 1.495709 1_555
O10 P4 1.577115 1_555
O10 P2 1.635621 1_555
O11 P5 1.571373 1_555
O11 V3 1.970312 1_545
O12 P4 1.520645 1_655
O12 V3 2.016426 1_555
O13 P4 1.561766 1_555
O13 V1 1.948792 1_555
O14 P3 1.561766 1_555
O14 V2 1.948792 1_555
O15 P3 1.520645 1_455
O15 V0 2.016426 1_555
O16 P2 1.571373 1_555
O16 V0 1.970312 1_565
O17 P3 1.577115 1_555
O17 P5 1.635621 1_555
O18 P6 1.495709 1_555
O19 P6 1.568081 1_555
O19 V1 1.990956 1_555
O20 P5 1.568081 1_555
O20 V3 1.990956 1_555
O21 P7 1.577115 1_555
O21 P6 1.635621 1_554
O22 P7 1.520645 1_565
O22 V2 2.016426 1_555
O23 P5 1.495709 1_555
O24 P7 1.561766 1_555
O24 V0 1.948792 1_555
O25 P3 1.532391 1_555
O25 V0 2.048817 1_555
O26 P6 1.571373 1_555
O26 V1 1.970312 1_655
O27 P7 1.532391 1_555
O27 V2 2.048817 1_555
