# generated using pymatgen
data_LiVSiO4
_symmetry_space_group_name_H-M   'P 1'
_cell_length_a   5.79555000
_cell_length_b   5.79555000
_cell_length_c   8.01811000
_cell_angle_alpha   90.00000000
_cell_angle_beta   90.00000000
_cell_angle_gamma   90.00000000
_symmetry_Int_Tables_number   1
_chemical_formula_structural   LiVSiO4
_chemical_formula_sum   'Li4 V4 Si4 O16'
_cell_volume   269.31548434
_cell_formula_units_Z   4
loop_
 _symmetry_equiv_pos_site_id
 _symmetry_equiv_pos_as_xyz
  1  'x, y, z'
loop_
 _atom_site_type_symbol
 _atom_site_label
 _atom_site_symmetry_multiplicity
 _atom_site_fract_x
 _atom_site_fract_y
 _atom_site_fract_z
 _atom_site_occupancy
  Li  Li0  1  0.78654100  0.00000000  0.25000000  1
  Li  Li1  1  0.00000000  0.78654100  0.00000000  1
  Li  Li2  1  0.00000000  0.21345900  0.50000000  1
  Li  Li3  1  0.21345900  0.00000000  0.75000000  1
  V  V0  1  0.50000000  0.77366900  0.00000000  1
  V  V1  1  0.50000000  0.22633100  0.50000000  1
  V  V2  1  0.77366900  0.50000000  0.25000000  1
  V  V3  1  0.22633100  0.50000000  0.75000000  1
  Si  Si0  1  0.74291500  0.74291500  0.62500000  1
  Si  Si1  1  0.74291500  0.25708500  0.87500000  1
  Si  Si2  1  0.25708500  0.74291500  0.37500000  1
  Si  Si3  1  0.25708500  0.25708500  0.12500000  1
  O  O0  1  0.49430200  0.73757900  0.24993300  1
  O  O1  1  0.49430200  0.26242100  0.25006700  1
  O  O2  1  0.73757900  0.49430200  0.00006700  1
  O  O3  1  0.73757900  0.50569800  0.49993300  1
  O  O4  1  0.73962400  0.02277300  0.98990000  1
  O  O5  1  0.73962400  0.97722700  0.51010000  1
  O  O6  1  0.02277300  0.73962400  0.26010000  1
  O  O7  1  0.02277300  0.26037600  0.23990000  1
  O  O8  1  0.97722700  0.73962400  0.73990000  1
  O  O9  1  0.97722700  0.26037600  0.76010000  1
  O  O10  1  0.26037600  0.97722700  0.48990000  1
  O  O11  1  0.26037600  0.02277300  0.01010000  1
  O  O12  1  0.26242100  0.50569800  0.50006700  1
  O  O13  1  0.26242100  0.49430200  0.99993300  1
  O  O14  1  0.50569800  0.73757900  0.75006700  1
  O  O15  1  0.50569800  0.26242100  0.74993300  1
loop_
_geom_bond_atom_site_label_1
_geom_bond_atom_site_label_2
_geom_bond_distance
_geom_bond_site_symmetry_2
Li0 O6 2.039148 1_645
Li0 O7 2.039148 1_655
Li0 O5 2.107299 1_545
Li0 O4 2.107299 1_554
Li0 O1 2.276319 1_555
Li0 O0 2.276319 1_545
Li1 O4 2.039148 1_464
Li1 O11 2.039148 1_565
Li1 O8 2.107299 1_454
Li1 O6 2.107299 1_555
Li1 O2 2.276319 1_455
Li1 O13 2.276319 1_554
Li2 O10 2.039148 1_545
Li2 O5 2.039148 1_445
Li2 O7 2.107299 1_555
Li2 O9 2.107299 1_455
Li2 O12 2.276319 1_555
Li2 O3 2.276319 1_455
Li3 O8 2.039148 1_445
Li3 O9 2.039148 1_455
Li3 O10 2.107299 1_545
Li3 O11 2.107299 1_556
Li3 O15 2.276319 1_555
Li3 O14 2.276319 1_545
O0 Si2 1.701955 1_555
O0 V0 2.015147 1_555
O0 V2 2.125393 1_555
O1 Si3 1.701955 1_555
O1 V1 2.015147 1_555
O1 V2 2.125393 1_555
O2 Si1 1.701955 1_554
O2 V2 2.015147 1_555
O2 V0 2.125393 1_555
O3 Si0 1.701955 1_555
O3 V2 2.015147 1_555
O3 V1 2.125393 1_555
O4 Si1 1.641096 1_555
O4 V0 2.004856 1_546
O5 Si0 1.641096 1_555
O5 V1 2.004856 1_565
O6 Si2 1.641096 1_555
O6 V2 2.004856 1_455
O7 Si3 1.641096 1_555
O7 V2 2.004856 1_455
O8 Si0 1.641096 1_555
O8 V3 2.004856 1_655
O9 Si1 1.641096 1_555
O9 V3 2.004856 1_655
O10 Si2 1.641096 1_555
O10 V1 2.004856 1_565
O11 Si3 1.641096 1_555
O11 V0 2.004856 1_545
O12 Si2 1.701955 1_555
O12 V3 2.015147 1_555
O12 V1 2.125393 1_555
O13 Si3 1.701955 1_556
O13 V3 2.015147 1_555
O13 V0 2.125393 1_556
O14 Si0 1.701955 1_555
O14 V0 2.015147 1_556
O14 V3 2.125393 1_555
O15 Si1 1.701955 1_555
O15 V1 2.015147 1_555
O15 V3 2.125393 1_555
