# generated using pymatgen
data_Li5Cr2Co5O12
_symmetry_space_group_name_H-M   'P 1'
_cell_length_a   5.14431658
_cell_length_b   5.14431658
_cell_length_c   9.85505947
_cell_angle_alpha   84.89023914
_cell_angle_beta   84.89023914
_cell_angle_gamma   120.54789048
_symmetry_Int_Tables_number   1
_chemical_formula_structural   Li5Cr2Co5O12
_chemical_formula_sum   'Li5 Cr2 Co5 O12'
_cell_volume   220.95293837
_cell_formula_units_Z   1
loop_
 _symmetry_equiv_pos_site_id
 _symmetry_equiv_pos_as_xyz
  1  'x, y, z'
loop_
 _atom_site_type_symbol
 _atom_site_label
 _atom_site_symmetry_multiplicity
 _atom_site_fract_x
 _atom_site_fract_y
 _atom_site_fract_z
 _atom_site_occupancy
  Li  Li0  1  0.82877400  0.67084300  0.75484400  1
  Li  Li1  1  0.67540300  0.82541200  0.24132900  1
  Li  Li2  1  0.32915700  0.17122600  0.24515600  1
  Li  Li3  1  0.17458800  0.32459700  0.75867100  1
  Li  Li4  1  0.08651100  0.91348900  0.00000000  1
  Cr  Cr0  1  0.75298900  0.24701100  0.00000000  1
  Cr  Cr1  1  0.24478500  0.75521500  0.50000000  1
  Co  Co0  1  0.91431800  0.08568200  0.50000000  1
  Co  Co1  1  0.00376500  0.50851900  0.24377900  1
  Co  Co2  1  0.49148100  0.99623500  0.75622100  1
  Co  Co3  1  0.57780400  0.42219600  0.50000000  1
  Co  Co4  1  0.42236900  0.57763100  0.00000000  1
  O  O0  1  0.04790100  0.23266800  0.11920100  1
  O  O1  1  0.76733200  0.95209900  0.88079900  1
  O  O2  1  0.86466900  0.38657300  0.61510000  1
  O  O3  1  0.61342700  0.13533100  0.38490000  1
  O  O4  1  0.70434100  0.52639100  0.11626300  1
  O  O5  1  0.47360900  0.29565900  0.88373700  1
  O  O6  1  0.52772600  0.70965000  0.61537000  1
  O  O7  1  0.29035000  0.47227400  0.38463000  1
  O  O8  1  0.39695500  0.86747900  0.11550000  1
  O  O9  1  0.13252100  0.60304500  0.88450000  1
  O  O10  1  0.21911300  0.03989000  0.62084900  1
  O  O11  1  0.96011000  0.78088700  0.37915100  1
loop_
_geom_bond_atom_site_label_1
_geom_bond_atom_site_label_2
_geom_bond_distance
_geom_bond_site_symmetry_2
Li0 O5 2.059651 1_555
Li0 O1 2.109278 1_555
Li0 O10 2.141530 1_665
Li0 O2 2.158059 1_555
Li0 O6 2.229839 1_555
Li0 O9 2.241922 1_655
Li1 O8 2.054291 1_555
Li1 O4 2.108401 1_555
Li1 O0 2.137503 1_665
Li1 O7 2.145959 1_555
Li1 O11 2.163876 1_555
Li1 O3 2.341714 1_565
Li2 O4 2.059651 1_555
Li2 O0 2.109278 1_555
Li2 O11 2.141530 1_445
Li2 O3 2.158059 1_555
Li2 O7 2.229839 1_555
Li2 O8 2.241922 1_545
Li3 O9 2.054291 1_555
Li3 O5 2.108401 1_555
Li3 O1 2.137503 1_445
Li3 O6 2.145959 1_555
Li3 O10 2.163876 1_555
Li3 O2 2.341714 1_455
Li4 O4 2.087132 1_455
Li4 O5 2.087132 1_564
Li4 O9 2.135929 1_554
Li4 O8 2.135929 1_555
Li4 O1 2.179223 1_454
Li4 O0 2.179223 1_565
Cr0 O5 2.012191 1_554
Cr0 O4 2.012191 1_555
Cr0 O8 2.014929 1_545
Cr0 O9 2.014929 1_654
Cr0 O1 2.025564 1_544
Cr0 O0 2.025564 1_655
Cr1 O11 2.014884 1_455
Cr1 O10 2.014884 1_565
Cr1 O6 2.015039 1_555
Cr1 O7 2.015039 1_555
Cr1 O2 2.039349 1_455
Cr1 O3 2.039349 1_565
Co0 O6 2.069945 1_545
Co0 O7 2.069945 1_655
Co0 O2 2.100205 1_555
Co0 O3 2.100205 1_555
Co0 O11 2.142555 1_545
Co0 O10 2.142555 1_655
Co1 O0 2.039805 1_555
Co1 O11 2.095932 1_455
Co1 O4 2.104398 1_455
Co1 O8 2.105066 1_555
Co1 O7 2.175533 1_555
Co1 O3 2.181802 1_455
Co2 O1 2.039805 1_555
Co2 O10 2.095932 1_565
Co2 O5 2.104398 1_565
Co2 O9 2.105066 1_555
Co2 O6 2.175533 1_555
Co2 O2 2.181802 1_565
Co3 O3 2.008500 1_555
Co3 O2 2.008500 1_555
Co3 O6 2.044593 1_555
Co3 O7 2.044593 1_555
Co3 O10 2.047817 1_555
Co3 O11 2.047817 1_555
Co4 O0 1.997670 1_555
Co4 O1 1.997670 1_554
Co4 O8 2.002496 1_555
Co4 O9 2.002496 1_554
Co4 O4 2.029119 1_555
Co4 O5 2.029119 1_554
