# generated using pymatgen
data_Ba4Ta2O9
_symmetry_space_group_name_H-M   'P 1'
_cell_length_a   6.26482646
_cell_length_b   6.26482646
_cell_length_c   15.93120200
_cell_angle_alpha   90.00000000
_cell_angle_beta   90.00000000
_cell_angle_gamma   120.00000488
_symmetry_Int_Tables_number   1
_chemical_formula_structural   Ba4Ta2O9
_chemical_formula_sum   'Ba8 Ta4 O18'
_cell_volume   541.49848442
_cell_formula_units_Z   2
loop_
 _symmetry_equiv_pos_site_id
 _symmetry_equiv_pos_as_xyz
  1  'x, y, z'
loop_
 _atom_site_type_symbol
 _atom_site_label
 _atom_site_symmetry_multiplicity
 _atom_site_fract_x
 _atom_site_fract_y
 _atom_site_fract_z
 _atom_site_occupancy
  Ba  Ba0  1  0.33333300  0.66666700  0.53217400  1
  Ba  Ba1  1  0.33333300  0.66666700  0.79471800  1
  Ba  Ba2  1  0.33333300  0.66666700  0.29471800  1
  Ba  Ba3  1  0.33333300  0.66666700  0.03217400  1
  Ba  Ba4  1  0.66666700  0.33333300  0.70528200  1
  Ba  Ba5  1  0.66666700  0.33333300  0.20528200  1
  Ba  Ba6  1  0.66666700  0.33333300  0.96782600  1
  Ba  Ba7  1  0.66666700  0.33333300  0.46782600  1
  Ta  Ta0  1  0.00000000  0.00000000  0.65253800  1
  Ta  Ta1  1  0.00000000  0.00000000  0.84746200  1
  Ta  Ta2  1  0.00000000  0.00000000  0.15253800  1
  Ta  Ta3  1  0.00000000  0.00000000  0.34746200  1
  O  O0  1  0.00000000  0.76494900  0.25000000  1
  O  O1  1  0.03633700  0.74229500  0.90245900  1
  O  O2  1  0.25770500  0.96366300  0.40245900  1
  O  O3  1  0.03633700  0.29404200  0.40245900  1
  O  O4  1  0.00000000  0.23505100  0.75000000  1
  O  O5  1  0.23505100  0.23505100  0.25000000  1
  O  O6  1  0.25770500  0.29404200  0.90245900  1
  O  O7  1  0.70595800  0.96366300  0.90245900  1
  O  O8  1  0.29404200  0.25770500  0.59754100  1
  O  O9  1  0.23505100  0.00000000  0.75000000  1
  O  O10  1  0.70595800  0.74229500  0.40245900  1
  O  O11  1  0.29404200  0.03633700  0.09754100  1
  O  O12  1  0.74229500  0.70595800  0.09754100  1
  O  O13  1  0.76494900  0.76494900  0.75000000  1
  O  O14  1  0.96366300  0.70595800  0.59754100  1
  O  O15  1  0.74229500  0.03633700  0.59754100  1
  O  O16  1  0.76494900  0.00000000  0.25000000  1
  O  O17  1  0.96366300  0.25770500  0.09754100  1
loop_
_geom_bond_atom_site_label_1
_geom_bond_atom_site_label_2
_geom_bond_distance
_geom_bond_site_symmetry_2
Ba0 O14 2.660563 1_455
Ba0 O15 2.660566 1_565
Ba0 O8 2.660569 1_555
Ba0 O2 2.972956 1_555
Ba0 O3 2.972959 1_555
Ba0 O10 2.972960 1_555
Ba1 O9 2.556036 1_565
Ba1 O4 2.556039 1_555
Ba1 O13 2.556041 1_555
Ba1 O1 2.741197 1_555
Ba1 O7 2.741200 1_555
Ba1 O6 2.741201 1_555
Ba2 O0 2.556036 1_555
Ba2 O16 2.556039 1_565
Ba2 O5 2.556041 1_555
Ba2 O2 2.741197 1_555
Ba2 O3 2.741200 1_555
Ba2 O10 2.741201 1_555
Ba3 O11 2.660563 1_565
Ba3 O17 2.660566 1_455
Ba3 O12 2.660569 1_555
Ba3 O1 2.972956 1_554
Ba3 O7 2.972959 1_554
Ba3 O6 2.972960 1_554
Ba4 O4 2.556036 1_655
Ba4 O9 2.556039 1_555
Ba4 O13 2.556041 1_555
Ba4 O15 2.741197 1_555
Ba4 O14 2.741200 1_555
Ba4 O8 2.741201 1_555
Ba5 O16 2.556036 1_555
Ba5 O0 2.556039 1_655
Ba5 O5 2.556041 1_555
Ba5 O17 2.741197 1_555
Ba5 O11 2.741200 1_555
Ba5 O12 2.741201 1_555
Ba6 O7 2.660563 1_545
Ba6 O1 2.660566 1_655
Ba6 O6 2.660569 1_555
Ba6 O17 2.972956 1_556
Ba6 O11 2.972959 1_556
Ba6 O12 2.972960 1_556
Ba7 O3 2.660563 1_655
Ba7 O2 2.660566 1_545
Ba7 O10 2.660569 1_555
Ba7 O15 2.972956 1_555
Ba7 O14 2.972959 1_555
Ba7 O8 2.972960 1_555
O0 Ta2 2.139918 1_565
O0 Ta3 2.139918 1_565
O1 Ta1 1.947706 1_565
O2 Ta3 1.947706 1_565
O3 Ta3 1.947706 1_555
O4 Ta1 2.139918 1_555
O4 Ta0 2.139918 1_555
O5 Ta2 2.139918 1_555
O5 Ta3 2.139918 1_555
O6 Ta1 1.947705 1_555
O7 Ta1 1.947706 1_665
O8 Ta0 1.947705 1_555
O9 Ta1 2.139918 1_555
O9 Ta0 2.139918 1_555
O10 Ta3 1.947705 1_665
O11 Ta2 1.947706 1_555
O12 Ta2 1.947705 1_665
O13 Ta1 2.139918 1_665
O13 Ta0 2.139918 1_665
O14 Ta0 1.947706 1_665
O15 Ta0 1.947706 1_655
O16 Ta3 2.139918 1_655
O16 Ta2 2.139918 1_655
O17 Ta2 1.947706 1_655
