# generated using pymatgen
data_Li3MnF5
_symmetry_space_group_name_H-M   'P 1'
_cell_length_a   6.62387400
_cell_length_b   6.71801000
_cell_length_c   10.60101600
_cell_angle_alpha   90.00000000
_cell_angle_beta   90.00000000
_cell_angle_gamma   90.00000000
_symmetry_Int_Tables_number   1
_chemical_formula_structural   Li3MnF5
_chemical_formula_sum   'Li12 Mn4 F20'
_cell_volume   471.73728001
_cell_formula_units_Z   4
loop_
 _symmetry_equiv_pos_site_id
 _symmetry_equiv_pos_as_xyz
  1  'x, y, z'
loop_
 _atom_site_type_symbol
 _atom_site_label
 _atom_site_symmetry_multiplicity
 _atom_site_fract_x
 _atom_site_fract_y
 _atom_site_fract_z
 _atom_site_occupancy
  Li  Li0  1  0.25000000  0.76273700  0.04516300  1
  Li  Li1  1  0.96075900  0.23088200  0.17289500  1
  Li  Li2  1  0.53924100  0.23088200  0.17289500  1
  Li  Li3  1  0.03924100  0.73088200  0.32710500  1
  Li  Li4  1  0.46075900  0.73088200  0.32710500  1
  Li  Li5  1  0.75000000  0.26273700  0.45483700  1
  Li  Li6  1  0.25000000  0.73726300  0.54516300  1
  Li  Li7  1  0.96075900  0.26911800  0.67289500  1
  Li  Li8  1  0.53924100  0.26911800  0.67289500  1
  Li  Li9  1  0.46075900  0.76911800  0.82710500  1
  Li  Li10  1  0.03924100  0.76911800  0.82710500  1
  Li  Li11  1  0.75000000  0.23726300  0.95483700  1
  Mn  Mn0  1  0.75000000  0.73358400  0.07915200  1
  Mn  Mn1  1  0.25000000  0.23358400  0.42084800  1
  Mn  Mn2  1  0.75000000  0.76641600  0.57915200  1
  Mn  Mn3  1  0.25000000  0.26641600  0.92084800  1
  F  F0  1  0.25000000  0.94975300  0.90401800  1
  F  F1  1  0.03474400  0.73834200  0.15221600  1
  F  F2  1  0.46525600  0.73834200  0.15221600  1
  F  F3  1  0.25000000  0.24003800  0.11852100  1
  F  F4  1  0.75000000  0.41996000  0.09853800  1
  F  F5  1  0.25000000  0.91996000  0.40146200  1
  F  F6  1  0.75000000  0.74003800  0.38147900  1
  F  F7  1  0.96525600  0.23834200  0.34778400  1
  F  F8  1  0.53474400  0.23834200  0.34778400  1
  F  F9  1  0.75000000  0.44975300  0.59598200  1
  F  F10  1  0.25000000  0.55024700  0.40401800  1
  F  F11  1  0.46525600  0.76165800  0.65221600  1
  F  F12  1  0.03474400  0.76165800  0.65221600  1
  F  F13  1  0.25000000  0.25996200  0.61852100  1
  F  F14  1  0.75000000  0.08004000  0.59853800  1
  F  F15  1  0.25000000  0.58004000  0.90146200  1
  F  F16  1  0.75000000  0.75996200  0.88147900  1
  F  F17  1  0.96525600  0.26165800  0.84778400  1
  F  F18  1  0.53474400  0.26165800  0.84778400  1
  F  F19  1  0.75000000  0.05024700  0.09598200  1
loop_
_geom_bond_atom_site_label_1
_geom_bond_atom_site_label_2
_geom_bond_distance
_geom_bond_site_symmetry_2
F0 Li0 1.953800 1_556
F0 Li10 2.021469 1_555
F0 Li9 2.021469 1_555
F0 Mn3 2.134814 1_565
F1 Li0 1.829693 1_555
F1 Li3 1.854918 1_555
F1 Mn0 2.039205 1_455
F2 Li0 1.829693 1_555
F2 Li4 1.854918 1_555
F2 Mn0 2.039205 1_555
F3 Li2 2.001674 1_555
F3 Li1 2.001674 1_455
F3 Mn3 2.103014 1_554
F4 Li11 1.956295 1_554
F4 Li1 2.045425 1_555
F4 Li2 2.045425 1_555
F4 Mn0 2.116928 1_555
F5 Li6 1.956295 1_555
F5 Li4 2.045425 1_555
F5 Li3 2.045425 1_555
F5 Mn1 2.116928 1_565
F6 Li4 2.001674 1_555
F6 Li3 2.001674 1_655
F6 Mn2 2.103014 1_555
F7 Li5 1.829693 1_555
F7 Li1 1.854918 1_555
F7 Mn1 2.039205 1_655
F8 Li5 1.829693 1_555
F8 Li2 1.854918 1_555
F8 Mn1 2.039205 1_555
F9 Li5 1.953800 1_555
F9 Li7 2.021469 1_555
F9 Li8 2.021469 1_555
F9 Mn2 2.134814 1_555
F10 Li6 1.953800 1_555
F10 Li4 2.021469 1_555
F10 Li3 2.021469 1_555
F10 Mn1 2.134814 1_555
F11 Li6 1.829693 1_555
F11 Li9 1.854918 1_555
F11 Mn2 2.039205 1_555
F12 Li6 1.829693 1_555
F12 Li10 1.854918 1_555
F12 Mn2 2.039205 1_455
F13 Li8 2.001674 1_555
F13 Li7 2.001674 1_455
F13 Mn1 2.103014 1_555
F14 Li5 1.956295 1_555
F14 Li7 2.045425 1_555
F14 Li8 2.045425 1_555
F14 Mn2 2.116928 1_545
F15 Li0 1.956295 1_556
F15 Li9 2.045425 1_555
F15 Li10 2.045425 1_555
F15 Mn3 2.116928 1_555
F16 Li9 2.001674 1_555
F16 Li10 2.001674 1_655
F16 Mn0 2.103014 1_556
F17 Li11 1.829693 1_555
F17 Li7 1.854918 1_555
F17 Mn3 2.039205 1_655
F18 Li11 1.829693 1_555
F18 Li8 1.854918 1_555
F18 Mn3 2.039205 1_555
F19 Li11 1.953800 1_554
F19 Li1 2.021469 1_555
F19 Li2 2.021469 1_555
F19 Mn0 2.134814 1_545
