# generated using pymatgen
data_Li4Sn(PO3)6
_symmetry_space_group_name_H-M   'P 1'
_cell_length_a   7.41576803
_cell_length_b   7.41576803
_cell_length_c   14.49811633
_cell_angle_alpha   86.68332565
_cell_angle_beta   86.68332565
_cell_angle_gamma   66.23079869
_symmetry_Int_Tables_number   1
_chemical_formula_structural   Li4Sn(PO3)6
_chemical_formula_sum   'Li8 Sn2 P12 O36'
_cell_volume   727.93089385
_cell_formula_units_Z   2
loop_
 _symmetry_equiv_pos_site_id
 _symmetry_equiv_pos_as_xyz
  1  'x, y, z'
loop_
 _atom_site_type_symbol
 _atom_site_label
 _atom_site_symmetry_multiplicity
 _atom_site_fract_x
 _atom_site_fract_y
 _atom_site_fract_z
 _atom_site_occupancy
  Li  Li0  1  0.96734200  0.67918400  0.93064300  1
  Li  Li1  1  0.67918400  0.96734200  0.43064300  1
  Li  Li2  1  0.76695800  0.57117200  0.55123700  1
  Li  Li3  1  0.57117200  0.76695800  0.05123700  1
  Li  Li4  1  0.42882800  0.23304200  0.94876300  1
  Li  Li5  1  0.23304200  0.42882800  0.44876300  1
  Li  Li6  1  0.32081600  0.03265800  0.56935700  1
  Li  Li7  1  0.03265800  0.32081600  0.06935700  1
  Sn  Sn0  1  0.37120400  0.62879600  0.75000000  1
  Sn  Sn1  1  0.62879600  0.37120400  0.25000000  1
  P  P0  1  0.95848800  0.85631900  0.60832800  1
  P  P1  1  0.85631900  0.95848800  0.10832800  1
  P  P2  1  0.63413400  0.93079400  0.74300900  1
  P  P3  1  0.93079400  0.63413400  0.24300900  1
  P  P4  1  0.76998100  0.38335500  0.89785700  1
  P  P5  1  0.38335500  0.76998100  0.39785700  1
  P  P6  1  0.61664500  0.23001900  0.60214300  1
  P  P7  1  0.23001900  0.61664500  0.10214300  1
  P  P8  1  0.06920600  0.36586600  0.75699100  1
  P  P9  1  0.36586600  0.06920600  0.25699100  1
  P  P10  1  0.14368100  0.04151200  0.89167200  1
  P  P11  1  0.04151200  0.14368100  0.39167200  1
  O  O0  1  0.86726300  0.83324300  0.71044100  1
  O  O1  1  0.89933900  0.75169100  0.53822400  1
  O  O2  1  0.83324300  0.86726300  0.21044100  1
  O  O3  1  0.75169100  0.89933900  0.03822400  1
  O  O4  1  0.62278600  0.91454000  0.84524400  1
  O  O5  1  0.91454000  0.62278600  0.34524400  1
  O  O6  1  0.82121100  0.50323200  0.96415400  1
  O  O7  1  0.52351900  0.84925900  0.68408300  1
  O  O8  1  0.83847600  0.42519000  0.79241100  1
  O  O9  1  0.50323200  0.82121100  0.46415400  1
  O  O10  1  0.84925900  0.52351900  0.18408300  1
  O  O11  1  0.42519000  0.83847600  0.29241100  1
  O  O12  1  0.90823600  0.15124600  0.91309900  1
  O  O13  1  0.18258200  0.82802100  0.87935700  1
  O  O14  1  0.56276900  0.39922900  0.89552800  1
  O  O15  1  0.15124600  0.90823600  0.41309900  1
  O  O16  1  0.60077100  0.43723100  0.60447200  1
  O  O17  1  0.82802100  0.18258200  0.37935700  1
  O  O18  1  0.17197900  0.81741800  0.62064300  1
  O  O19  1  0.39922900  0.56276900  0.39552800  1
  O  O20  1  0.84875400  0.09176400  0.58690100  1
  O  O21  1  0.43723100  0.60077100  0.10447200  1
  O  O22  1  0.81741800  0.17197900  0.12064300  1
  O  O23  1  0.09176400  0.84875400  0.08690100  1
  O  O24  1  0.57481000  0.16152400  0.70758900  1
  O  O25  1  0.15074100  0.47648100  0.81591700  1
  O  O26  1  0.49676800  0.17878900  0.53584600  1
  O  O27  1  0.16152400  0.57481000  0.20758900  1
  O  O28  1  0.47648100  0.15074100  0.31591700  1
  O  O29  1  0.17878900  0.49676800  0.03584600  1
  O  O30  1  0.08546000  0.37721400  0.65475600  1
  O  O31  1  0.37721400  0.08546000  0.15475600  1
  O  O32  1  0.24830900  0.10066100  0.96177600  1
  O  O33  1  0.16675700  0.13273700  0.78955900  1
  O  O34  1  0.10066100  0.24830900  0.46177600  1
  O  O35  1  0.13273700  0.16675700  0.28955900  1
loop_
_geom_bond_atom_site_label_1
_geom_bond_atom_site_label_2
_geom_bond_distance
_geom_bond_site_symmetry_2
Li0 O6 2.029411 1_555
Li0 O29 2.223325 1_656
Li0 O25 2.292480 1_655
Li0 O13 2.346646 1_655
Li0 O3 2.357335 1_556
Li1 O9 2.029411 1_555
Li1 O26 2.223325 1_565
Li1 O28 2.292480 1_565
Li1 O17 2.346646 1_565
Li1 O1 2.357335 1_555
Li2 O1 1.949399 1_555
Li2 O16 1.972082 1_555
Li2 O9 2.438984 1_555
Li3 O3 1.949399 1_555
Li3 O21 1.972082 1_555
Li3 O6 2.438984 1_554
Li4 O32 1.949399 1_555
Li4 O14 1.972082 1_555
Li4 O29 2.438984 1_556
Li5 O34 1.949399 1_555
Li5 O19 1.972082 1_555
Li5 O26 2.438984 1_555
Li6 O26 2.029411 1_555
Li6 O9 2.223325 1_545
Li6 O7 2.292480 1_545
Li6 O18 2.346646 1_545
Li6 O34 2.357335 1_555
Li7 O29 2.029411 1_555
Li7 O6 2.223325 1_454
Li7 O10 2.292480 1_455
Li7 O22 2.346646 1_455
Li7 O32 2.357335 1_554
O0 P0 1.620735 1_555
O0 P2 1.634636 1_555
O1 P0 1.498205 1_555
O2 P1 1.620735 1_555
O2 P3 1.634636 1_555
O3 P1 1.498205 1_555
O4 P2 1.480420 1_555
O5 P3 1.480420 1_555
O6 P4 1.507268 1_555
O7 P2 1.519543 1_555
O7 Sn0 2.458655 1_555
O8 P4 1.635141 1_555
O8 P8 1.643954 1_655
O9 P5 1.507268 1_555
O10 P3 1.519543 1_555
O10 Sn1 2.458655 1_555
O11 P5 1.635141 1_555
O11 P9 1.643954 1_565
O12 P4 1.619378 1_555
O12 P10 1.621233 1_655
O13 P10 1.510034 1_565
O13 Sn0 2.451071 1_555
O14 P4 1.495318 1_555
O14 Sn0 2.711014 1_555
O15 P5 1.619378 1_555
O15 P11 1.621233 1_565
O16 P6 1.495318 1_555
O16 Sn0 2.711014 1_555
O17 P11 1.510034 1_655
O17 Sn1 2.451071 1_555
O18 P0 1.510034 1_455
O18 Sn0 2.451071 1_555
O19 P5 1.495318 1_555
O19 Sn1 2.711014 1_555
O20 P6 1.619378 1_555
O20 P0 1.621233 1_545
O21 P7 1.495318 1_555
O21 Sn1 2.711014 1_555
O22 P1 1.510034 1_545
O22 Sn1 2.451071 1_555
O23 P7 1.619378 1_555
O23 P1 1.621233 1_455
O24 P6 1.635141 1_555
O24 P2 1.643954 1_545
O25 P8 1.519543 1_555
O25 Sn0 2.458655 1_555
O26 P6 1.507268 1_555
O27 P7 1.635141 1_555
O27 P3 1.643954 1_455
O28 P9 1.519543 1_555
O28 Sn1 2.458655 1_555
O29 P7 1.507268 1_555
O30 P8 1.480420 1_555
O31 P9 1.480420 1_555
O32 P10 1.498205 1_555
O33 P10 1.620735 1_555
O33 P8 1.634636 1_555
O34 P11 1.498205 1_555
O35 P11 1.620735 1_555
O35 P9 1.634636 1_555
