# generated using pymatgen
data_P3N4Cl5
_symmetry_space_group_name_H-M   'P 1'
_cell_length_a   6.32497900
_cell_length_b   8.64844813
_cell_length_c   11.58966166
_cell_angle_alpha   100.25243427
_cell_angle_beta   104.74057114
_cell_angle_gamma   98.44764079
_symmetry_Int_Tables_number   1
_chemical_formula_structural   P3N4Cl5
_chemical_formula_sum   'P6 N8 Cl10'
_cell_volume   590.88258102
_cell_formula_units_Z   2
loop_
 _symmetry_equiv_pos_site_id
 _symmetry_equiv_pos_as_xyz
  1  'x, y, z'
loop_
 _atom_site_type_symbol
 _atom_site_label
 _atom_site_symmetry_multiplicity
 _atom_site_fract_x
 _atom_site_fract_y
 _atom_site_fract_z
 _atom_site_occupancy
  P  P0  1  0.50761500  0.34335700  0.71268700  1
  P  P1  1  0.49238500  0.65664300  0.28731300  1
  P  P2  1  0.43866100  0.01521500  0.70048100  1
  P  P3  1  0.56133900  0.98478500  0.29951900  1
  P  P4  1  0.40769900  0.22556800  0.90582000  1
  P  P5  1  0.59230100  0.77443200  0.09418000  1
  N  N0  1  0.48935100  0.16464800  0.64111400  1
  N  N1  1  0.51064900  0.83535200  0.35888600  1
  N  N2  1  0.40060900  0.04824600  0.83319100  1
  N  N3  1  0.59939100  0.95175400  0.16680900  1
  N  N4  1  0.45343200  0.37196500  0.84136700  1
  N  N5  1  0.54656800  0.62803500  0.15863300  1
  N  N6  1  0.60625700  0.26495900  0.04194700  1
  N  N7  1  0.39374300  0.73504100  0.95805300  1
  Cl  Cl0  1  0.81352600  0.47161500  0.73379200  1
  Cl  Cl1  1  0.18647400  0.52838500  0.26620800  1
  Cl  Cl2  1  0.30859500  0.45206800  0.60173200  1
  Cl  Cl3  1  0.69140500  0.54793200  0.39826800  1
  Cl  Cl4  1  0.16902500  0.85914500  0.58318900  1
  Cl  Cl5  1  0.83097500  0.14085500  0.41681100  1
  Cl  Cl6  1  0.68184600  0.88932100  0.70339200  1
  Cl  Cl7  1  0.31815400  0.11067900  0.29660800  1
  Cl  Cl8  1  0.12560100  0.22949300  0.95678400  1
  Cl  Cl9  1  0.87439900  0.77050700  0.04321600  1
loop_
_geom_bond_atom_site_label_1
_geom_bond_atom_site_label_2
_geom_bond_distance
_geom_bond_site_symmetry_2
N0 P0 1.591407 1_555
N0 P2 1.597951 1_555
N1 P1 1.591407 1_555
N1 P3 1.597951 1_555
N2 P2 1.599171 1_555
N2 P4 1.601071 1_555
N3 P3 1.599171 1_555
N3 P5 1.601071 1_555
N4 P0 1.598895 1_555
N4 P4 1.607392 1_555
N5 P1 1.598895 1_555
N5 P5 1.607392 1_555
N6 P4 1.690267 1_554
N7 P5 1.690267 1_556
Cl0 P0 2.016428 1_555
Cl1 P1 2.016428 1_555
Cl2 P0 2.019029 1_555
Cl3 P1 2.019029 1_555
Cl4 P2 2.017187 1_565
Cl5 P3 2.017187 1_545
Cl6 P2 2.007782 1_565
Cl7 P3 2.007782 1_545
Cl8 P4 2.020047 1_555
Cl9 P5 2.020047 1_555
