# generated using pymatgen
data_MnV(PO4)2
_symmetry_space_group_name_H-M   'P 1'
_cell_length_a   8.63496821
_cell_length_b   8.63496821
_cell_length_c   8.63496794
_cell_angle_alpha   60.25229231
_cell_angle_beta   60.25229231
_cell_angle_gamma   60.25229374
_symmetry_Int_Tables_number   1
_chemical_formula_structural   MnV(PO4)2
_chemical_formula_sum   'Mn3 V3 P6 O24'
_cell_volume   457.86810519
_cell_formula_units_Z   3
loop_
 _symmetry_equiv_pos_site_id
 _symmetry_equiv_pos_as_xyz
  1  'x, y, z'
loop_
 _atom_site_type_symbol
 _atom_site_label
 _atom_site_symmetry_multiplicity
 _atom_site_fract_x
 _atom_site_fract_y
 _atom_site_fract_z
 _atom_site_occupancy
  Mn  Mn0  1  0.99769300  0.99769300  0.99769300  1
  Mn  Mn1  1  0.85503800  0.85503800  0.85503800  1
  Mn  Mn2  1  0.49909600  0.49909600  0.49909600  1
  V  V0  1  0.35494400  0.35494400  0.35494400  1
  V  V1  1  0.14338800  0.14338800  0.14338800  1
  V  V2  1  0.64526800  0.64526800  0.64526800  1
  P  P0  1  0.45426500  0.75111800  0.04536200  1
  P  P1  1  0.75111800  0.04536200  0.45426500  1
  P  P2  1  0.04536200  0.45426500  0.75111800  1
  P  P3  1  0.95867300  0.53937400  0.25416500  1
  P  P4  1  0.25416500  0.95867300  0.53937400  1
  P  P5  1  0.53937400  0.25416500  0.95867300  1
  O  O0  1  0.69533800  0.87886700  0.49521600  1
  O  O1  1  0.87886700  0.49521600  0.69533800  1
  O  O2  1  0.49521600  0.69533800  0.87886700  1
  O  O3  1  0.25850100  0.91438900  0.06112700  1
  O  O4  1  0.60697500  0.80542800  0.02102600  1
  O  O5  1  0.42795600  0.58544700  0.23887200  1
  O  O6  1  0.91438900  0.06112700  0.25850100  1
  O  O7  1  0.58544700  0.23887200  0.42795600  1
  O  O8  1  0.99670100  0.37851500  0.19325700  1
  O  O9  1  0.23887200  0.42795600  0.58544700  1
  O  O10  1  0.95097300  0.72984000  0.09614300  1
  O  O11  1  0.19325700  0.99670100  0.37851500  1
  O  O12  1  0.80542800  0.02102600  0.60697500  1
  O  O13  1  0.06112700  0.25850100  0.91438900  1
  O  O14  1  0.76427700  0.55341400  0.41947700  1
  O  O15  1  0.02102600  0.60697500  0.80542800  1
  O  O16  1  0.41947700  0.76427700  0.55341400  1
  O  O17  1  0.09614300  0.95097300  0.72984000  1
  O  O18  1  0.55341400  0.41947700  0.76427700  1
  O  O19  1  0.37851500  0.19325700  0.99670100  1
  O  O20  1  0.72984000  0.09614300  0.95097300  1
  O  O21  1  0.48848700  0.32720000  0.11418900  1
  O  O22  1  0.11418900  0.48848700  0.32720000  1
  O  O23  1  0.32720000  0.11418900  0.48848700  1
loop_
_geom_bond_atom_site_label_1
_geom_bond_atom_site_label_2
_geom_bond_distance
_geom_bond_site_symmetry_2
Mn0 O17 2.206664 1_655
Mn0 O10 2.206664 1_556
Mn0 O20 2.206665 1_565
Mn0 O6 2.261597 1_566
Mn0 O13 2.261597 1_665
Mn0 O3 2.261597 1_656
Mn1 O12 2.020066 1_565
Mn1 O4 2.020066 1_556
Mn1 O15 2.020066 1_655
Mn1 O10 2.186011 1_556
Mn1 O17 2.186011 1_655
Mn1 O20 2.186011 1_565
Mn2 O18 2.262638 1_555
Mn2 O14 2.262638 1_555
Mn2 O16 2.262638 1_555
Mn2 O5 2.288019 1_555
Mn2 O9 2.288019 1_555
Mn2 O7 2.288019 1_555
O0 P1 1.561289 1_565
O0 V2 1.910613 1_555
O1 P2 1.561289 1_655
O1 V2 1.910613 1_555
O2 P0 1.561289 1_556
O2 V2 1.910613 1_555
O3 P0 1.568683 1_555
O3 V1 2.036018 1_565
O4 P0 1.497935 1_555
O5 P0 1.569669 1_555
O5 V0 2.000547 1_555
O6 P1 1.568683 1_555
O6 V1 2.036018 1_655
O7 P1 1.569669 1_555
O7 V0 2.000547 1_555
O8 P3 1.553943 1_555
O8 V1 1.919970 1_655
O9 P2 1.569669 1_555
O9 V0 2.000547 1_555
O10 P3 1.525035 1_555
O11 P4 1.553943 1_555
O11 V1 1.919970 1_565
O12 P1 1.497935 1_555
O13 P2 1.568683 1_555
O13 V1 2.036018 1_556
O14 P3 1.569076 1_555
O14 V2 2.055220 1_555
O15 P2 1.497935 1_555
O16 P4 1.569076 1_555
O16 V2 2.055220 1_555
O17 P4 1.525035 1_555
O18 P5 1.569076 1_555
O18 V2 2.055220 1_555
O19 P5 1.553943 1_555
O19 V1 1.919970 1_556
O20 P5 1.525035 1_555
O21 P5 1.540773 1_554
O21 V0 1.884177 1_555
O22 P3 1.540773 1_455
O22 V0 1.884177 1_555
O23 P4 1.540773 1_545
O23 V0 1.884177 1_555
