# generated using pymatgen
data_LiMn2(PO5)2
_symmetry_space_group_name_H-M   'P 1'
_cell_length_a   6.69799800
_cell_length_b   6.97364056
_cell_length_c   7.97266262
_cell_angle_alpha   89.85291493
_cell_angle_beta   91.02688795
_cell_angle_gamma   116.69209856
_symmetry_Int_Tables_number   1
_chemical_formula_structural   LiMn2(PO5)2
_chemical_formula_sum   'Li2 Mn4 P4 O20'
_cell_volume   332.65356204
_cell_formula_units_Z   2
loop_
 _symmetry_equiv_pos_site_id
 _symmetry_equiv_pos_as_xyz
  1  'x, y, z'
loop_
 _atom_site_type_symbol
 _atom_site_label
 _atom_site_symmetry_multiplicity
 _atom_site_fract_x
 _atom_site_fract_y
 _atom_site_fract_z
 _atom_site_occupancy
  Li  Li0  1  0.22063700  0.27242600  0.07052200  1
  Li  Li1  1  0.70321700  0.20010100  0.56921800  1
  Mn  Mn0  1  0.24556900  0.99581400  0.75260600  1
  Mn  Mn1  1  0.24892300  0.49823900  0.74679000  1
  Mn  Mn2  1  0.75534400  0.50354200  0.24933100  1
  Mn  Mn3  1  0.75145100  0.00046900  0.24906100  1
  P  P0  1  0.24054000  0.75415200  0.08425400  1
  P  P1  1  0.26187500  0.24414000  0.41885100  1
  P  P2  1  0.74048300  0.75465300  0.58390900  1
  P  P3  1  0.75990400  0.24627900  0.91811600  1
  O  O0  1  0.14667000  0.87732000  0.97075000  1
  O  O1  1  0.07305400  0.63865300  0.22411400  1
  O  O2  1  0.23011300  0.74171300  0.67007500  1
  O  O3  1  0.28393400  0.58591500  0.98428400  1
  O  O4  1  0.19145100  0.39068200  0.52022800  1
  O  O5  1  0.06074100  0.08458500  0.31097100  1
  O  O6  1  0.45292300  0.92278400  0.17368200  1
  O  O7  1  0.26527900  0.25508300  0.82991100  1
  O  O8  1  0.65418800  0.88750600  0.47224700  1
  O  O9  1  0.42998300  0.36952100  0.27911800  1
  O  O10  1  0.56609800  0.63228600  0.71771400  1
  O  O11  1  0.36314400  0.12882600  0.53275300  1
  O  O12  1  0.73366800  0.74475300  0.16955300  1
  O  O13  1  0.55518600  0.08017200  0.81674400  1
  O  O14  1  0.94731900  0.92026800  0.68112100  1
  O  O15  1  0.79457600  0.59695800  0.48148500  1
  O  O16  1  0.69957800  0.39972400  0.01927800  1
  O  O17  1  0.76784900  0.25731400  0.32910400  1
  O  O18  1  0.92295900  0.36127700  0.77306200  1
  O  O19  1  0.86724500  0.13544700  0.03204900  1
loop_
_geom_bond_atom_site_label_1
_geom_bond_atom_site_label_2
_geom_bond_distance
_geom_bond_site_symmetry_2
Li0 O7 1.959130 1_554
Li0 O9 2.063892 1_555
Li0 O19 2.133893 1_455
Li0 O3 2.145184 1_554
Li0 O5 2.310459 1_555
Li1 O17 1.970262 1_555
Li1 O11 2.116567 1_555
Li1 O18 2.123265 1_555
Li1 O8 2.194092 1_545
Li1 O13 2.212173 1_555
Mn0 O2 1.849980 1_555
Mn0 O7 1.858680 1_565
Mn0 O14 1.899556 1_455
Mn0 O0 1.920563 1_555
Mn0 O13 1.943134 1_565
Mn0 O11 1.984391 1_565
Mn1 O2 1.859276 1_555
Mn1 O7 1.866822 1_555
Mn1 O10 1.916566 1_555
Mn1 O4 1.922536 1_555
Mn1 O18 1.965931 1_455
Mn1 O3 1.968561 1_555
Mn2 O12 1.861654 1_555
Mn2 O17 1.865920 1_555
Mn2 O1 1.915646 1_655
Mn2 O15 1.937571 1_555
Mn2 O16 1.940887 1_555
Mn2 O9 1.966392 1_555
Mn3 O12 1.846168 1_545
Mn3 O17 1.858527 1_555
Mn3 O6 1.907417 1_545
Mn3 O5 1.937125 1_655
Mn3 O8 1.945378 1_545
Mn3 O19 1.965932 1_555
O0 P0 1.553306 1_556
O1 P0 1.542416 1_555
O3 P0 1.554234 1_556
O4 P1 1.539829 1_555
O5 P1 1.552238 1_555
O6 P0 1.542705 1_555
O8 P2 1.563131 1_555
O9 P1 1.558501 1_555
O10 P2 1.541119 1_555
O11 P1 1.547779 1_555
O13 P3 1.553488 1_555
O14 P2 1.543540 1_555
O15 P2 1.542927 1_555
O16 P3 1.537324 1_554
O18 P3 1.557875 1_555
O19 P3 1.552937 1_554
