# generated using pymatgen
data_Li3Mn3NiO8
_symmetry_space_group_name_H-M   'P 1'
_cell_length_a   5.69685462
_cell_length_b   5.69685462
_cell_length_c   9.53955900
_cell_angle_alpha   90.00000000
_cell_angle_beta   90.00000000
_cell_angle_gamma   120.00000718
_symmetry_Int_Tables_number   1
_chemical_formula_structural   Li3Mn3NiO8
_chemical_formula_sum   'Li6 Mn6 Ni2 O16'
_cell_volume   268.11997596
_cell_formula_units_Z   2
loop_
 _symmetry_equiv_pos_site_id
 _symmetry_equiv_pos_as_xyz
  1  'x, y, z'
loop_
 _atom_site_type_symbol
 _atom_site_label
 _atom_site_symmetry_multiplicity
 _atom_site_fract_x
 _atom_site_fract_y
 _atom_site_fract_z
 _atom_site_occupancy
  Li  Li0  1  0.82760600  0.17239400  0.55495600  1
  Li  Li1  1  0.82760600  0.65521100  0.55495600  1
  Li  Li2  1  0.34478900  0.17239400  0.55495600  1
  Li  Li3  1  0.65521100  0.82760600  0.05495600  1
  Li  Li4  1  0.17239400  0.34478900  0.05495600  1
  Li  Li5  1  0.17239400  0.82760600  0.05495600  1
  Mn  Mn0  1  0.83322700  0.16677300  0.28615300  1
  Mn  Mn1  1  0.83322700  0.66645400  0.28615300  1
  Mn  Mn2  1  0.33354600  0.16677300  0.28615300  1
  Mn  Mn3  1  0.66645400  0.83322700  0.78615300  1
  Mn  Mn4  1  0.16677300  0.33354600  0.78615300  1
  Mn  Mn5  1  0.16677300  0.83322700  0.78615300  1
  Ni  Ni0  1  0.66666700  0.33333300  0.01102500  1
  Ni  Ni1  1  0.33333300  0.66666700  0.51102500  1
  O  O0  1  0.84088800  0.15911200  0.89882700  1
  O  O1  1  0.97190500  0.48595300  0.16404700  1
  O  O2  1  0.84088800  0.68177600  0.89882700  1
  O  O3  1  0.66666700  0.33333300  0.39741600  1
  O  O4  1  0.51404700  0.02809500  0.16404700  1
  O  O5  1  0.51404700  0.48595300  0.16404700  1
  O  O6  1  0.68177600  0.84088800  0.39882700  1
  O  O7  1  0.31822400  0.15911200  0.89882700  1
  O  O8  1  0.48595300  0.51404700  0.66404700  1
  O  O9  1  0.48595300  0.97190500  0.66404700  1
  O  O10  1  0.00000000  0.00000000  0.67780600  1
  O  O11  1  0.33333300  0.66666700  0.89741600  1
  O  O12  1  0.00000000  0.00000000  0.17780600  1
  O  O13  1  0.15911200  0.31822400  0.39882700  1
  O  O14  1  0.02809500  0.51404700  0.66404700  1
  O  O15  1  0.15911200  0.84088800  0.39882700  1
loop_
_geom_bond_atom_site_label_1
_geom_bond_atom_site_label_2
_geom_bond_distance
_geom_bond_site_symmetry_2
Li0 O14 1.988158 1_655
Li0 O9 1.988158 1_545
Li0 O10 2.065675 1_655
Li0 O3 2.186416 1_555
Li0 O13 2.214981 1_655
Li0 O6 2.214981 1_545
Li1 O8 1.988158 1_555
Li1 O14 1.988158 1_655
Li1 O10 2.065679 1_665
Li1 O3 2.186416 1_555
Li1 O15 2.214981 1_655
Li1 O6 2.214985 1_555
Li2 O8 1.988158 1_555
Li2 O9 1.988158 1_545
Li2 O10 2.065679 1_555
Li2 O3 2.186416 1_555
Li2 O15 2.214981 1_545
Li2 O13 2.214985 1_555
Li3 O5 1.988158 1_555
Li3 O4 1.988158 1_565
Li3 O12 2.065679 1_665
Li3 O11 2.186416 1_554
Li3 O0 2.214981 1_564
Li3 O2 2.214985 1_554
Li4 O5 1.988158 1_555
Li4 O1 1.988158 1_455
Li4 O12 2.065679 1_555
Li4 O11 2.186416 1_554
Li4 O0 2.214981 1_454
Li4 O7 2.214985 1_554
Li5 O4 1.988158 1_565
Li5 O1 1.988158 1_455
Li5 O12 2.065675 1_565
Li5 O11 2.186416 1_554
Li5 O7 2.214981 1_564
Li5 O2 2.214981 1_454
Mn0 O6 1.935099 1_545
Mn0 O13 1.935099 1_655
Mn0 O12 1.943260 1_655
Mn0 O3 1.956431 1_555
Mn0 O1 1.962335 1_555
Mn0 O4 1.962335 1_555
Mn1 O15 1.935099 1_655
Mn1 O6 1.935099 1_555
Mn1 O12 1.943259 1_665
Mn1 O3 1.956435 1_555
Mn1 O1 1.962331 1_555
Mn1 O5 1.962335 1_555
Mn2 O15 1.935099 1_545
Mn2 O13 1.935099 1_555
Mn2 O12 1.943259 1_555
Mn2 O3 1.956435 1_555
Mn2 O4 1.962331 1_555
Mn2 O5 1.962335 1_555
Mn3 O0 1.935099 1_565
Mn3 O2 1.935099 1_555
Mn3 O10 1.943259 1_665
Mn3 O11 1.956435 1_555
Mn3 O9 1.962331 1_555
Mn3 O8 1.962335 1_555
Mn4 O0 1.935099 1_455
Mn4 O7 1.935099 1_555
Mn4 O10 1.943259 1_555
Mn4 O11 1.956435 1_555
Mn4 O14 1.962331 1_555
Mn4 O8 1.962335 1_555
Mn5 O2 1.935099 1_455
Mn5 O7 1.935099 1_565
Mn5 O10 1.943260 1_565
Mn5 O11 1.956431 1_555
Mn5 O9 1.962335 1_555
Mn5 O14 1.962335 1_555
Ni0 O0 2.025049 1_554
Ni0 O2 2.025053 1_554
Ni0 O7 2.025053 1_554
Ni0 O1 2.097314 1_555
Ni0 O4 2.097314 1_555
Ni0 O5 2.097321 1_555
Ni1 O15 2.025049 1_555
Ni1 O6 2.025053 1_555
Ni1 O13 2.025053 1_555
Ni1 O9 2.097314 1_555
Ni1 O14 2.097314 1_555
Ni1 O8 2.097321 1_555
