# generated using pymatgen
data_Li3Mn5O10
_symmetry_space_group_name_H-M   'P 1'
_cell_length_a   5.25931757
_cell_length_b   5.16370513
_cell_length_c   7.73990219
_cell_angle_alpha   110.32924384
_cell_angle_beta   101.56394162
_cell_angle_gamma   100.60210820
_symmetry_Int_Tables_number   1
_chemical_formula_structural   Li3Mn5O10
_chemical_formula_sum   'Li3 Mn5 O10'
_cell_volume   185.59804923
_cell_formula_units_Z   1
loop_
 _symmetry_equiv_pos_site_id
 _symmetry_equiv_pos_as_xyz
  1  'x, y, z'
loop_
 _atom_site_type_symbol
 _atom_site_label
 _atom_site_symmetry_multiplicity
 _atom_site_fract_x
 _atom_site_fract_y
 _atom_site_fract_z
 _atom_site_occupancy
  Li  Li0  1  0.21749300  0.92412500  0.42327800  1
  Li  Li1  1  0.49999900  0.49999800  0.49999800  1
  Li  Li2  1  0.78250800  0.07587400  0.57671800  1
  Mn  Mn0  1  0.10990800  0.69879800  0.69630400  1
  Mn  Mn1  1  0.00000100  0.50000100  0.00000800  1
  Mn  Mn2  1  0.69158900  0.87648400  0.89841500  1
  Mn  Mn3  1  0.30840600  0.12351700  0.10159000  1
  Mn  Mn4  1  0.89009500  0.30121100  0.30369800  1
  O  O0  1  0.06672200  0.07709800  0.85376800  1
  O  O1  1  0.10712800  0.31307400  0.53296200  1
  O  O2  1  0.31162700  0.72359400  0.94892900  1
  O  O3  1  0.20669600  0.47588500  0.23459300  1
  O  O4  1  0.45065800  0.85647500  0.66613800  1
  O  O5  1  0.54934200  0.14352200  0.33385900  1
  O  O6  1  0.79330800  0.52411400  0.76540900  1
  O  O7  1  0.68837200  0.27640400  0.05107000  1
  O  O8  1  0.89287000  0.68692400  0.46703300  1
  O  O9  1  0.93327900  0.92290100  0.14623100  1
loop_
_geom_bond_atom_site_label_1
_geom_bond_atom_site_label_2
_geom_bond_distance
_geom_bond_site_symmetry_2
Li0 O8 2.068890 1_455
Li0 O1 2.129130 1_565
Li0 O4 2.202011 1_555
Li0 O3 2.250110 1_555
Li0 O5 2.260537 1_565
Li0 O9 2.352556 1_455
Li1 O5 1.942705 1_555
Li1 O4 1.942707 1_555
Li1 O1 2.216902 1_555
Li1 O8 2.216909 1_555
Li1 O3 2.257428 1_555
Li1 O6 2.257473 1_555
Li2 O1 2.068879 1_655
Li2 O8 2.129127 1_545
Li2 O5 2.202001 1_555
Li2 O6 2.250119 1_555
Li2 O4 2.260551 1_545
Li2 O0 2.352574 1_655
Mn0 O8 1.882083 1_455
Mn0 O4 1.921462 1_555
Mn0 O1 1.948821 1_555
Mn0 O2 1.977240 1_555
Mn0 O0 1.993206 1_565
Mn0 O6 2.002969 1_455
Mn1 O3 1.977237 1_555
Mn1 O6 1.977315 1_454
Mn1 O7 2.013919 1_455
Mn1 O2 2.013971 1_554
Mn1 O9 2.212839 1_455
Mn1 O0 2.212876 1_554
Mn2 O4 1.938511 1_555
Mn2 O6 1.983472 1_555
Mn2 O9 1.985741 1_556
Mn2 O7 1.996583 1_566
Mn2 O2 2.171791 1_555
Mn2 O0 2.203415 1_665
Mn3 O5 1.938483 1_555
Mn3 O3 1.983433 1_555
Mn3 O0 1.985761 1_554
Mn3 O2 1.996614 1_544
Mn3 O7 2.171829 1_555
Mn3 O9 2.203369 1_445
Mn4 O1 1.882051 1_655
Mn4 O5 1.921477 1_555
Mn4 O8 1.948768 1_555
Mn4 O7 1.977245 1_555
Mn4 O9 1.993249 1_545
Mn4 O3 2.002953 1_655
