# generated using pymatgen
data_Li3Fe8O3F13
_symmetry_space_group_name_H-M   'P 1'
_cell_length_a   6.31150868
_cell_length_b   6.31150868
_cell_length_c   10.45076976
_cell_angle_alpha   72.02306054
_cell_angle_beta   72.02306054
_cell_angle_gamma   59.37014013
_symmetry_Int_Tables_number   1
_chemical_formula_structural   Li3Fe8O3F13
_chemical_formula_sum   'Li3 Fe8 O3 F13'
_cell_volume   334.85569231
_cell_formula_units_Z   1
loop_
 _symmetry_equiv_pos_site_id
 _symmetry_equiv_pos_as_xyz
  1  'x, y, z'
loop_
 _atom_site_type_symbol
 _atom_site_label
 _atom_site_symmetry_multiplicity
 _atom_site_fract_x
 _atom_site_fract_y
 _atom_site_fract_z
 _atom_site_occupancy
  Li  Li0  1  0.00923100  0.00923100  0.98945000  1
  Li  Li1  1  0.18610500  0.18610500  0.42998000  1
  Li  Li2  1  0.80681400  0.80681400  0.57184100  1
  Fe  Fe0  1  0.51874500  0.00144700  0.99156700  1
  Fe  Fe1  1  0.00144700  0.51874500  0.99156700  1
  Fe  Fe2  1  0.26253900  0.74173000  0.24972400  1
  Fe  Fe3  1  0.74449700  0.74449700  0.26557800  1
  Fe  Fe4  1  0.74173000  0.26253900  0.24972400  1
  Fe  Fe5  1  0.23929500  0.75151500  0.75280300  1
  Fe  Fe6  1  0.75151500  0.23929500  0.75280300  1
  Fe  Fe7  1  0.26371100  0.26371100  0.73368200  1
  O  O0  1  0.64378600  0.64378600  0.12351900  1
  O  O1  1  0.89622200  0.89622200  0.87750900  1
  O  O2  1  0.36000700  0.36000700  0.88077100  1
  F  F0  1  0.10115100  0.66582600  0.13459100  1
  F  F1  1  0.11705000  0.11705000  0.12157000  1
  F  F2  1  0.66582600  0.10115100  0.13459100  1
  F  F3  1  0.37058700  0.87152200  0.36500800  1
  F  F4  1  0.88167100  0.88167100  0.36772800  1
  F  F5  1  0.37868200  0.37868200  0.36317100  1
  F  F6  1  0.87152200  0.37058700  0.36500800  1
  F  F7  1  0.61584800  0.61584800  0.65079800  1
  F  F8  1  0.11729400  0.63176500  0.63044000  1
  F  F9  1  0.12622400  0.12622400  0.62701400  1
  F  F10  1  0.63176500  0.11729400  0.63044000  1
  F  F11  1  0.34575100  0.91439800  0.87051500  1
  F  F12  1  0.91439800  0.34575100  0.87051500  1
loop_
_geom_bond_atom_site_label_1
_geom_bond_atom_site_label_2
_geom_bond_distance
_geom_bond_site_symmetry_2
Li0 O1 1.983577 1_445
Fe0 O2 2.062563 1_555
Fe0 O0 2.134285 1_546
Fe0 O1 2.159026 1_545
Fe1 O2 2.062563 1_555
Fe1 O0 2.134285 1_456
Fe1 O1 2.159026 1_455
Fe2 O0 2.222679 1_555
Fe3 O0 2.142173 1_555
Fe4 O0 2.222679 1_555
Fe5 O1 2.049120 1_455
Fe5 O2 2.268398 1_555
Fe6 O1 2.049120 1_545
Fe6 O2 2.268398 1_555
Fe7 O2 2.152097 1_555
F0 Fe2 2.079519 1_555
F0 Fe3 2.136853 1_455
F0 Li0 2.137190 1_564
F0 Fe1 2.350371 1_554
F1 Li0 2.112935 1_554
F1 Fe4 2.198324 1_455
F1 Fe2 2.198324 1_545
F1 Fe1 2.325240 1_554
F1 Fe0 2.325240 1_554
F2 Fe4 2.079519 1_555
F2 Fe3 2.136853 1_545
F2 Li0 2.137190 1_654
F2 Fe0 2.350371 1_554
F3 Li1 1.935826 1_565
F3 Fe2 2.067193 1_555
F3 Fe3 2.089125 1_555
F4 Li2 1.994988 1_555
F4 Fe3 2.131574 1_555
F4 Fe2 2.181389 1_655
F4 Fe4 2.181389 1_565
F5 Li1 1.974798 1_555
F5 Fe4 2.083611 1_555
F5 Fe2 2.083611 1_555
F6 Li1 1.935826 1_655
F6 Fe4 2.067193 1_555
F6 Fe3 2.089125 1_555
F7 Li2 1.959279 1_555
F7 Fe6 2.108044 1_555
F7 Fe5 2.108044 1_555
F8 Li2 1.884865 1_455
F8 Fe7 2.072502 1_555
F8 Fe5 2.144034 1_555
F9 Li1 1.926290 1_555
F9 Fe7 2.170293 1_555
F9 Fe6 2.184214 1_455
F9 Fe5 2.184214 1_545
F10 Li2 1.884865 1_545
F10 Fe7 2.072502 1_555
F10 Fe6 2.144034 1_555
F11 Li0 1.987111 1_565
F11 Fe7 2.126367 1_565
F11 Fe0 2.233240 1_565
F11 Fe5 2.239721 1_555
F12 Li0 1.987111 1_655
F12 Fe7 2.126367 1_655
F12 Fe1 2.233240 1_655
F12 Fe6 2.239721 1_555
