# generated using pymatgen
data_MgAl10O16
_symmetry_space_group_name_H-M   'P 1'
_cell_length_a   9.70639787
_cell_length_b   9.70639787
_cell_length_c   9.70639845
_cell_angle_alpha   34.26748009
_cell_angle_beta   34.26748009
_cell_angle_gamma   34.26747930
_symmetry_Int_Tables_number   1
_chemical_formula_structural   MgAl10O16
_chemical_formula_sum   'Mg1 Al10 O16'
_cell_volume   258.54381907
_cell_formula_units_Z   1
loop_
 _symmetry_equiv_pos_site_id
 _symmetry_equiv_pos_as_xyz
  1  'x, y, z'
loop_
 _atom_site_type_symbol
 _atom_site_label
 _atom_site_symmetry_multiplicity
 _atom_site_fract_x
 _atom_site_fract_y
 _atom_site_fract_z
 _atom_site_occupancy
  Mg  Mg0  1  0.80998100  0.80998100  0.80998100  1
  Al  Al0  1  0.30979200  0.30979200  0.30979200  1
  Al  Al1  1  0.24340000  0.75950600  0.75950600  1
  Al  Al2  1  0.18925600  0.18925600  0.18925600  1
  Al  Al3  1  0.75950600  0.24340000  0.75950600  1
  Al  Al4  1  0.24558900  0.24558900  0.74929200  1
  Al  Al5  1  0.75950600  0.75950600  0.24340000  1
  Al  Al6  1  0.24558900  0.74929200  0.24558900  1
  Al  Al7  1  0.74929200  0.24558900  0.24558900  1
  Al  Al8  1  0.49778400  0.49778400  0.49778400  1
  Al  Al9  1  0.69177700  0.69177700  0.69177700  1
  O  O0  1  0.38834100  0.38834100  0.85080300  1
  O  O1  1  0.38834100  0.85080300  0.38834100  1
  O  O2  1  0.12049300  0.12049300  0.61834000  1
  O  O3  1  0.12049300  0.61834000  0.12049300  1
  O  O4  1  0.61834000  0.12049300  0.12049300  1
  O  O5  1  0.37541400  0.37541400  0.37541400  1
  O  O6  1  0.16253200  0.60138300  0.60138300  1
  O  O7  1  0.88270700  0.88270700  0.88270700  1
  O  O8  1  0.62298200  0.62298200  0.62298200  1
  O  O9  1  0.85080300  0.38834100  0.38834100  1
  O  O10  1  0.37784400  0.88227500  0.88227500  1
  O  O11  1  0.12262900  0.12262900  0.12262900  1
  O  O12  1  0.88227500  0.88227500  0.37784400  1
  O  O13  1  0.88227500  0.37784400  0.88227500  1
  O  O14  1  0.60138300  0.16253200  0.60138300  1
  O  O15  1  0.60138300  0.60138300  0.16253200  1
loop_
_geom_bond_atom_site_label_1
_geom_bond_atom_site_label_2
_geom_bond_distance
_geom_bond_site_symmetry_2
Mg0 O15 1.944545 1_556
Mg0 O14 1.944545 1_565
Mg0 O6 1.944545 1_655
Mg0 O7 1.991424 1_555
Al0 O2 1.763812 1_555
Al0 O4 1.763812 1_555
Al0 O3 1.763812 1_555
Al0 O5 1.796898 1_555
Al1 O2 1.853465 1_565
Al1 O3 1.853465 1_556
Al1 O7 1.908174 1_455
Al1 O8 1.962044 1_555
Al1 O0 2.037231 1_555
Al1 O1 2.037231 1_555
Al2 O11 1.824417 1_555
Al2 O9 1.856710 1_455
Al2 O1 1.856710 1_545
Al2 O0 1.856710 1_554
Al3 O2 1.853465 1_655
Al3 O4 1.853465 1_556
Al3 O7 1.908174 1_545
Al3 O8 1.962044 1_555
Al3 O0 2.037231 1_555
Al3 O9 2.037231 1_555
Al4 O10 1.866241 1_545
Al4 O13 1.866241 1_455
Al4 O14 1.937535 1_555
Al4 O6 1.937535 1_555
Al4 O5 1.962963 1_555
Al4 O11 2.009477 1_556
Al5 O4 1.853465 1_565
Al5 O3 1.853465 1_655
Al5 O7 1.908175 1_554
Al5 O8 1.962044 1_555
Al5 O1 2.037231 1_555
Al5 O9 2.037231 1_555
Al6 O12 1.866241 1_455
Al6 O10 1.866241 1_554
Al6 O15 1.937535 1_555
Al6 O6 1.937535 1_555
Al6 O5 1.962962 1_555
Al6 O11 2.009476 1_565
Al7 O12 1.866241 1_545
Al7 O13 1.866241 1_554
Al7 O15 1.937535 1_555
Al7 O14 1.937535 1_555
Al7 O5 1.962962 1_555
Al7 O11 2.009476 1_655
Al8 O14 1.861682 1_555
Al8 O6 1.861682 1_555
Al8 O15 1.861682 1_555
Al8 O1 1.957208 1_555
Al8 O9 1.957208 1_555
Al8 O0 1.957208 1_555
Al9 O12 1.774503 1_555
Al9 O13 1.774503 1_555
Al9 O10 1.774503 1_555
Al9 O8 1.883783 1_555
