# generated using pymatgen
data_LiMn2(BO3)2
_symmetry_space_group_name_H-M   'P 1'
_cell_length_a   5.23663000
_cell_length_b   9.08575485
_cell_length_c   10.34468400
_cell_angle_alpha   88.52475038
_cell_angle_beta   89.33548330
_cell_angle_gamma   88.50569848
_symmetry_Int_Tables_number   1
_chemical_formula_structural   LiMn2(BO3)2
_chemical_formula_sum   'Li4 Mn8 B8 O24'
_cell_volume   491.82712658
_cell_formula_units_Z   4
loop_
 _symmetry_equiv_pos_site_id
 _symmetry_equiv_pos_as_xyz
  1  'x, y, z'
loop_
 _atom_site_type_symbol
 _atom_site_label
 _atom_site_symmetry_multiplicity
 _atom_site_fract_x
 _atom_site_fract_y
 _atom_site_fract_z
 _atom_site_occupancy
  Li  Li0  1  0.05517200  0.06673100  0.31830500  1
  Li  Li1  1  0.11112900  0.07406000  0.85076700  1
  Li  Li2  1  0.41343000  0.42093700  0.06168100  1
  Li  Li3  1  0.40908300  0.43704700  0.59906700  1
  Mn  Mn0  1  0.09199600  0.72370400  0.37894700  1
  Mn  Mn1  1  0.03195100  0.41784900  0.86837700  1
  Mn  Mn2  1  0.45190400  0.07635000  0.11871700  1
  Mn  Mn3  1  0.41217300  0.77676600  0.62049600  1
  Mn  Mn4  1  0.56492700  0.26812800  0.36516200  1
  Mn  Mn5  1  0.61810500  0.88999900  0.87574600  1
  Mn  Mn6  1  0.89253100  0.60481900  0.12203700  1
  Mn  Mn7  1  0.92759200  0.23323200  0.61177000  1
  B  B0  1  0.07169600  0.41942700  0.37939200  1
  B  B1  1  0.11853900  0.75139900  0.86567400  1
  B  B2  1  0.39049700  0.74271300  0.13252900  1
  B  B3  1  0.43812700  0.08278300  0.63339500  1
  B  B4  1  0.57830100  0.92557500  0.37129200  1
  B  B5  1  0.57765200  0.24031200  0.88270300  1
  B  B6  1  0.91373500  0.25865300  0.11415600  1
  B  B7  1  0.91347100  0.57643500  0.62239100  1
  O  O0  1  0.06505900  0.14010400  0.13999800  1
  O  O1  1  0.08147700  0.68037000  0.56734000  1
  O  O2  1  0.01603800  0.38985100  0.06075000  1
  O  O3  1  0.04068800  0.44983500  0.67870900  1
  O  O4  1  0.15363600  0.75858400  0.19524400  1
  O  O5  1  0.18686200  0.07969400  0.66483300  1
  O  O6  1  0.32199100  0.43759600  0.40590400  1
  O  O7  1  0.35650200  0.73998600  0.80355300  1
  O  O8  1  0.45004700  0.04829200  0.30876000  1
  O  O9  1  0.47293000  0.10475500  0.92823600  1
  O  O10  1  0.40867000  0.82879300  0.43436700  1
  O  O11  1  0.43035100  0.36378300  0.87577100  1
  O  O12  1  0.50425500  0.60954100  0.11463100  1
  O  O13  1  0.54736000  0.20761900  0.57780900  1
  O  O14  1  0.50510800  0.86824800  0.08142800  1
  O  O15  1  0.59243700  0.95626000  0.66087900  1
  O  O16  1  0.64756700  0.26353300  0.14330300  1
  O  O17  1  0.65988700  0.59066300  0.61718900  1
  O  O18  1  0.83195100  0.90861800  0.37161500  1
  O  O19  1  0.83863300  0.23436500  0.84770100  1
  O  O20  1  0.92426400  0.54096600  0.33362100  1
  O  O21  1  0.00601000  0.62410000  0.91391000  1
  O  O22  1  0.95413100  0.28451400  0.40276000  1
  O  O23  1  0.00146100  0.88233900  0.88717600  1
loop_
_geom_bond_atom_site_label_1
_geom_bond_atom_site_label_2
_geom_bond_distance
_geom_bond_site_symmetry_2
Li0 O18 1.940644 1_445
Li0 O0 1.945677 1_555
Li0 O8 2.071647 1_555
Li0 O22 2.232101 1_455
Li1 O23 1.875997 1_545
Li1 O5 1.959024 1_555
Li1 O19 2.012179 1_455
Li1 O9 2.093769 1_555
Li2 O12 1.886685 1_555
Li2 O11 2.005294 1_554
Li2 O16 2.032706 1_555
Li2 O2 2.107526 1_555
Li3 O17 1.955222 1_555
Li3 O6 2.054598 1_555
Li3 O3 2.090514 1_555
Li3 O13 2.204342 1_555
Mn0 O4 1.943206 1_555
Mn0 O20 1.968168 1_455
Mn0 O1 1.978702 1_555
Mn0 O10 2.030551 1_555
Mn0 O18 2.135259 1_455
Mn1 O21 1.944911 1_555
Mn1 O3 1.976225 1_555
Mn1 O19 1.990267 1_455
Mn1 O2 2.000774 1_556
Mn1 O11 2.132607 1_555
Mn2 O14 1.951665 1_545
Mn2 O8 1.975820 1_555
Mn2 O9 1.982859 1_554
Mn2 O16 2.031280 1_555
Mn2 O0 2.103031 1_555
Mn3 O7 1.934510 1_555
Mn3 O15 1.962080 1_555
Mn3 O10 1.970946 1_555
Mn3 O1 2.048008 1_555
Mn3 O17 2.104878 1_555
Mn4 O6 2.021303 1_555
Mn4 O22 2.089152 1_555
Mn4 O8 2.196055 1_555
Mn4 O13 2.255073 1_555
Mn4 O16 2.331798 1_555
Mn5 O23 2.011629 1_655
Mn5 O7 2.113208 1_555
Mn5 O9 2.155844 1_565
Mn5 O14 2.207172 1_556
Mn5 O15 2.292346 1_555
Mn6 O12 2.034881 1_555
Mn6 O4 2.138452 1_655
Mn6 O2 2.150208 1_655
Mn6 O21 2.230604 1_654
Mn6 O20 2.256752 1_555
Mn7 O5 1.992433 1_655
Mn7 O13 2.046166 1_555
Mn7 O3 2.200854 1_655
Mn7 O22 2.203589 1_555
Mn7 O19 2.479611 1_555
B0 O6 1.357337 1_555
B0 O22 1.400234 1_455
B0 O20 1.405972 1_455
B1 O23 1.346529 1_555
B1 O21 1.390317 1_555
B1 O7 1.398091 1_555
B2 O12 1.350761 1_555
B2 O14 1.392076 1_555
B2 O4 1.398925 1_555
B3 O5 1.352540 1_555
B3 O13 1.391743 1_555
B3 O15 1.412564 1_545
B4 O18 1.333212 1_555
B4 O10 1.409184 1_555
B4 O8 1.430585 1_565
B5 O11 1.345602 1_555
B5 O19 1.409775 1_555
B5 O9 1.427897 1_555
B6 O0 1.343554 1_655
B6 O2 1.416225 1_655
B6 O16 1.422441 1_555
B7 O17 1.332419 1_555
B7 O1 1.412129 1_655
B7 O3 1.428580 1_655
