# generated using pymatgen
data_Mn5O9F
_symmetry_space_group_name_H-M   'P 1'
_cell_length_a   5.07527745
_cell_length_b   5.11510827
_cell_length_c   7.92404417
_cell_angle_alpha   109.76943269
_cell_angle_beta   78.26181952
_cell_angle_gamma   80.14996462
_symmetry_Int_Tables_number   1
_chemical_formula_structural   Mn5O9F
_chemical_formula_sum   'Mn5 O9 F1'
_cell_volume   183.00366271
_cell_formula_units_Z   1
loop_
 _symmetry_equiv_pos_site_id
 _symmetry_equiv_pos_as_xyz
  1  'x, y, z'
loop_
 _atom_site_type_symbol
 _atom_site_label
 _atom_site_symmetry_multiplicity
 _atom_site_fract_x
 _atom_site_fract_y
 _atom_site_fract_z
 _atom_site_occupancy
  Mn  Mn0  1  0.99679400  0.19425300  0.40128800  1
  Mn  Mn1  1  0.98432600  0.00649200  0.00993300  1
  Mn  Mn2  1  0.99420100  0.59907600  0.20069700  1
  Mn  Mn3  1  0.00066600  0.79327700  0.59054900  1
  Mn  Mn4  1  0.00200100  0.41347200  0.79793500  1
  O  O0  1  0.18775600  0.21228000  0.16912800  1
  O  O1  1  0.19791100  0.80703600  0.36083700  1
  O  O2  1  0.19880900  0.41868500  0.56104300  1
  O  O3  1  0.19028600  0.61636100  0.96813600  1
  O  O4  1  0.80805400  0.38702700  0.02825800  1
  O  O5  1  0.78483200  0.98244000  0.26390700  1
  O  O6  1  0.79958000  0.58628300  0.44171800  1
  O  O7  1  0.80922000  0.18528100  0.63935200  1
  O  O8  1  0.80971400  0.78622000  0.82902700  1
  F  F0  1  0.23298900  0.01205300  0.73491700  1
loop_
_geom_bond_atom_site_label_1
_geom_bond_atom_site_label_2
_geom_bond_distance
_geom_bond_site_symmetry_2
Mn0 O5 1.895682 1_545
Mn0 O0 1.937008 1_655
Mn0 O7 1.951876 1_555
Mn0 O1 1.952773 1_645
Mn0 O6 1.968205 1_555
Mn0 O2 1.979728 1_655
Mn1 O0 1.941344 1_655
Mn1 O4 1.941744 1_555
Mn1 O8 1.968680 1_544
Mn1 O3 1.970524 1_644
Mn1 O5 2.114584 1_545
Mn2 O5 1.905629 1_555
Mn2 O3 1.946365 1_654
Mn2 O1 1.951324 1_655
Mn2 O4 1.951760 1_555
Mn2 O0 1.960176 1_655
Mn2 O6 1.991633 1_555
Mn3 O6 1.888964 1_455
Mn3 O2 1.918160 1_555
Mn3 O1 1.920873 1_555
Mn3 O7 1.941704 1_465
Mn3 O8 1.955630 1_455
Mn4 O8 1.896358 1_455
Mn4 O3 1.930284 1_555
Mn4 O7 1.948736 1_455
Mn4 O4 1.949299 1_456
Mn4 O2 1.949914 1_555
F0 Mn4 2.020985 1_555
F0 Mn3 2.021273 1_545
F0 Mn1 2.297348 1_456
