# generated using pymatgen
data_Ce(WO4)2
_symmetry_space_group_name_H-M   'P 1'
_cell_length_a   9.68151600
_cell_length_b   9.68151600
_cell_length_c   9.68151600
_cell_angle_alpha   90.00000000
_cell_angle_beta   90.00000000
_cell_angle_gamma   90.00000000
_symmetry_Int_Tables_number   1
_chemical_formula_structural   Ce(WO4)2
_chemical_formula_sum   'Ce4 W8 O32'
_cell_volume   907.46545726
_cell_formula_units_Z   4
loop_
 _symmetry_equiv_pos_site_id
 _symmetry_equiv_pos_as_xyz
  1  'x, y, z'
loop_
 _atom_site_type_symbol
 _atom_site_label
 _atom_site_symmetry_multiplicity
 _atom_site_fract_x
 _atom_site_fract_y
 _atom_site_fract_z
 _atom_site_occupancy
  Ce  Ce0  1  0.24784800  0.25215200  0.74784800  1
  Ce  Ce1  1  0.25215200  0.74784800  0.24784800  1
  Ce  Ce2  1  0.74784800  0.24784800  0.25215200  1
  Ce  Ce3  1  0.75215200  0.75215200  0.75215200  1
  W  W0  1  0.09134800  0.09134800  0.09134800  1
  W  W1  1  0.15032000  0.65032000  0.84968000  1
  W  W2  1  0.34968000  0.34968000  0.34968000  1
  W  W3  1  0.40865200  0.90865200  0.59134800  1
  W  W4  1  0.59134800  0.40865200  0.90865200  1
  W  W5  1  0.65032000  0.84968000  0.15032000  1
  W  W6  1  0.84968000  0.15032000  0.65032000  1
  W  W7  1  0.90865200  0.59134800  0.40865200  1
  O  O0  1  0.01322600  0.48677400  0.51322600  1
  O  O1  1  0.03140000  0.19204000  0.67937400  1
  O  O2  1  0.03804800  0.69513600  0.31382800  1
  O  O3  1  0.17937400  0.46860000  0.80796000  1
  O  O4  1  0.18617200  0.96195200  0.19513600  1
  O  O5  1  0.19204000  0.67937400  0.03140000  1
  O  O6  1  0.19513600  0.18617200  0.96195200  1
  O  O7  1  0.24376800  0.24376800  0.24376800  1
  O  O8  1  0.25623200  0.75623200  0.74376800  1
  O  O9  1  0.30486400  0.81382800  0.46195200  1
  O  O10  1  0.30796000  0.32062600  0.53140000  1
  O  O11  1  0.31382800  0.03804800  0.69513600  1
  O  O12  1  0.32062600  0.53140000  0.30796000  1
  O  O13  1  0.46195200  0.30486400  0.81382800  1
  O  O14  1  0.46860000  0.80796000  0.17937400  1
  O  O15  1  0.48677400  0.51322600  0.01322600  1
  O  O16  1  0.51322600  0.01322600  0.48677400  1
  O  O17  1  0.53140000  0.30796000  0.32062600  1
  O  O18  1  0.53804800  0.80486400  0.68617200  1
  O  O19  1  0.67937400  0.03140000  0.19204000  1
  O  O20  1  0.68617200  0.53804800  0.80486400  1
  O  O21  1  0.69204000  0.82062600  0.96860000  1
  O  O22  1  0.69513600  0.31382800  0.03804800  1
  O  O23  1  0.74376800  0.25623200  0.75623200  1
  O  O24  1  0.75623200  0.74376800  0.25623200  1
  O  O25  1  0.80486400  0.68617200  0.53804800  1
  O  O26  1  0.80796000  0.17937400  0.46860000  1
  O  O27  1  0.81382800  0.46195200  0.30486400  1
  O  O28  1  0.82062600  0.96860000  0.69204000  1
  O  O29  1  0.96195200  0.19513600  0.18617200  1
  O  O30  1  0.96860000  0.69204000  0.82062600  1
  O  O31  1  0.98677400  0.98677400  0.98677400  1
loop_
_geom_bond_atom_site_label_1
_geom_bond_atom_site_label_2
_geom_bond_distance
_geom_bond_site_symmetry_2
Ce0 O11 2.228273 1_555
Ce0 O13 2.228273 1_555
Ce0 O6 2.228273 1_555
Ce0 O10 2.273650 1_555
Ce0 O1 2.273650 1_555
Ce0 O3 2.273650 1_555
Ce1 O9 2.228273 1_555
Ce1 O2 2.228273 1_555
Ce1 O4 2.228273 1_555
Ce1 O5 2.273650 1_555
Ce1 O12 2.273650 1_555
Ce1 O14 2.273650 1_555
Ce2 O22 2.228273 1_555
Ce2 O27 2.228273 1_555
Ce2 O29 2.228273 1_555
Ce2 O17 2.273650 1_555
Ce2 O19 2.273650 1_555
Ce2 O26 2.273650 1_555
Ce3 O20 2.228273 1_555
Ce3 O25 2.228273 1_555
Ce3 O18 2.228273 1_555
Ce3 O21 2.273650 1_555
Ce3 O30 2.273650 1_555
Ce3 O28 2.273650 1_555
O0 W7 1.753589 1_455
O1 W6 1.826881 1_455
O2 W7 1.849825 1_455
O3 W1 1.826881 1_555
O4 W0 1.849825 1_565
O5 W1 1.826881 1_554
O6 W0 1.849825 1_556
O7 W2 1.776025 1_555
O8 W1 1.776025 1_555
O9 W3 1.849825 1_555
O10 W2 1.826881 1_555
O11 W3 1.849825 1_545
O12 W2 1.826881 1_555
O13 W4 1.849825 1_555
O14 W5 1.826881 1_555
O15 W4 1.753589 1_554
O16 W3 1.753589 1_545
O17 W2 1.826881 1_555
O18 W3 1.849825 1_555
O19 W5 1.826881 1_545
O20 W4 1.849825 1_555
O21 W5 1.826881 1_556
O22 W4 1.849825 1_554
O23 W6 1.776025 1_555
O24 W5 1.776025 1_555
O25 W7 1.849825 1_555
O26 W6 1.826881 1_555
O27 W7 1.849825 1_555
O28 W6 1.826881 1_565
O29 W0 1.849825 1_655
O30 W1 1.826881 1_655
O31 W0 1.753589 1_666
