# generated using pymatgen
data_H9C2N7O6
_symmetry_space_group_name_H-M   'P 1'
_cell_length_a   6.86812116
_cell_length_b   8.87900415
_cell_length_c   13.99234626
_cell_angle_alpha   90.00000000
_cell_angle_beta   90.00000000
_cell_angle_gamma   90.00000000
_symmetry_Int_Tables_number   1
_chemical_formula_structural   H9C2N7O6
_chemical_formula_sum   'H36 C8 N28 O24'
_cell_volume   853.28232700
_cell_formula_units_Z   4
loop_
 _symmetry_equiv_pos_site_id
 _symmetry_equiv_pos_as_xyz
  1  'x, y, z'
loop_
 _atom_site_type_symbol
 _atom_site_label
 _atom_site_symmetry_multiplicity
 _atom_site_fract_x
 _atom_site_fract_y
 _atom_site_fract_z
 _atom_site_occupancy
  H  H0  1  0.86414449  0.64014126  0.24703567  1
  H  H1  1  0.13585551  0.14014126  0.75296433  1
  H  H2  1  0.86414449  0.14014126  0.25296433  1
  H  H3  1  0.13585551  0.64014126  0.74703567  1
  H  H4  1  0.93631809  0.61043452  0.12736823  1
  H  H5  1  0.06368191  0.11043452  0.87263177  1
  H  H6  1  0.93631809  0.11043452  0.37263177  1
  H  H7  1  0.06368191  0.61043452  0.62736823  1
  H  H8  1  0.06635399  0.79341038  0.34005800  1
  H  H9  1  0.93364601  0.29341038  0.65994200  1
  H  H10  1  0.06635399  0.29341038  0.15994200  1
  H  H11  1  0.93364601  0.79341038  0.84005800  1
  H  H12  1  0.31010975  0.82188826  0.30716471  1
  H  H13  1  0.68989025  0.32188826  0.69283529  1
  H  H14  1  0.31010975  0.32188826  0.19283529  1
  H  H15  1  0.68989025  0.82188826  0.80716471  1
  H  H16  1  0.24710058  0.61044910  0.09025049  1
  H  H17  1  0.75289942  0.11044910  0.90974951  1
  H  H18  1  0.24710058  0.11044910  0.40974951  1
  H  H19  1  0.75289942  0.61044910  0.59025049  1
  H  H20  1  0.67380010  0.80873748  0.04478114  1
  H  H21  1  0.32619990  0.30873748  0.95521886  1
  H  H22  1  0.67380010  0.30873748  0.45521886  1
  H  H23  1  0.32619990  0.80873748  0.54478114  1
  H  H24  1  0.59119501  0.62406699  0.07206583  1
  H  H25  1  0.40880499  0.12406699  0.92793417  1
  H  H26  1  0.59119501  0.12406699  0.42793417  1
  H  H27  1  0.40880499  0.62406699  0.57206583  1
  H  H28  1  0.26966471  0.98151285  0.15014140  1
  H  H29  1  0.73033529  0.48151285  0.84985860  1
  H  H30  1  0.26966471  0.48151285  0.34985860  1
  H  H31  1  0.73033529  0.98151285  0.65014140  1
  H  H32  1  0.52008343  0.00898727  0.13496018  1
  H  H33  1  0.47991657  0.50898727  0.86503982  1
  H  H34  1  0.52008343  0.50898727  0.36503982  1
  H  H35  1  0.47991657  0.00898727  0.63496018  1
  C  C0  1  0.13610321  0.71014450  0.21075085  1
  C  C1  1  0.86389679  0.21014450  0.78924915  1
  C  C2  1  0.13610321  0.21014450  0.28924915  1
  C  C3  1  0.86389679  0.71014450  0.71075085  1
  C  C4  1  0.42030420  0.79376686  0.11827891  1
  C  C5  1  0.57969580  0.29376686  0.88172109  1
  C  C6  1  0.42030420  0.29376686  0.38172109  1
  C  C7  1  0.57969580  0.79376686  0.61827891  1
  N  N0  1  0.96974901  0.63980851  0.19599338  1
  N  N1  1  0.03025099  0.13980851  0.80400662  1
  N  N2  1  0.96974901  0.13980851  0.30400662  1
  N  N3  1  0.03025099  0.63980851  0.69599338  1
  N  N4  1  0.17504802  0.78153884  0.29114730  1
  N  N5  1  0.82495198  0.28153784  0.70885270  1
  N  N6  1  0.17504802  0.28153784  0.20885270  1
  N  N7  1  0.82495198  0.78153884  0.79114730  1
  N  N8  1  0.27139568  0.69682056  0.13902812  1
  N  N9  1  0.72860432  0.19682056  0.86097188  1
  N  N10  1  0.27139568  0.19682056  0.36097188  1
  N  N11  1  0.72860432  0.69682056  0.63902812  1
  N  N12  1  0.57130807  0.73758341  0.07227196  1
  N  N13  1  0.42869193  0.23758341  0.92772804  1
  N  N14  1  0.57130807  0.23758341  0.42772804  1
  N  N15  1  0.42869193  0.73758341  0.57227196  1
  N  N16  1  0.40543747  0.93767688  0.14095761  1
  N  N17  1  0.59456253  0.43767688  0.85904239  1
  N  N18  1  0.40543747  0.43767688  0.35904239  1
  N  N19  1  0.59456253  0.93767688  0.64095761  1
  N  N20  1  0.04020152  0.02265901  0.54244784  1
  N  N21  1  0.95979848  0.52265901  0.45755216  1
  N  N22  1  0.04020152  0.52265901  0.95755216  1
  N  N23  1  0.95979848  0.02265901  0.04244784  1
  N  N24  1  0.34114951  0.81753091  0.86164476  1
  N  N25  1  0.65885049  0.31753091  0.13835524  1
  N  N26  1  0.34114951  0.31753091  0.63835524  1
  N  N27  1  0.65885049  0.81753091  0.36164476  1
  O  O0  1  0.01412873  0.97321571  0.62505921  1
  O  O1  1  0.98587127  0.47321571  0.37494079  1
  O  O2  1  0.01412873  0.47321571  0.87494079  1
  O  O3  1  0.98587127  0.97321571  0.12505921  1
  O  O4  1  0.91996425  0.10964139  0.50432268  1
  O  O5  1  0.08003575  0.60964139  0.49567732  1
  O  O6  1  0.91996425  0.60964139  0.99567732  1
  O  O7  1  0.08003575  0.10964139  0.00432268  1
  O  O8  1  0.19371175  0.98378109  0.49681661  1
  O  O9  1  0.80628825  0.48378109  0.50318339  1
  O  O10  1  0.19371175  0.48378109  0.00318339  1
  O  O11  1  0.80628825  0.98378109  0.99681661  1
  O  O12  1  0.46965325  0.91796592  0.87161238  1
  O  O13  1  0.53034675  0.41796592  0.12838762  1
  O  O14  1  0.46965325  0.41796592  0.62838762  1
  O  O15  1  0.53034675  0.91796592  0.37161238  1
  O  O16  1  0.17955263  0.82953036  0.90223065  1
  O  O17  1  0.82044737  0.32953036  0.09776935  1
  O  O18  1  0.17955263  0.32953036  0.59776935  1
  O  O19  1  0.82044737  0.82953036  0.40223065  1
  O  O20  1  0.37861410  0.70380694  0.80990430  1
  O  O21  1  0.62138590  0.20380694  0.19009570  1
  O  O22  1  0.37861410  0.20380694  0.69009570  1
  O  O23  1  0.62138590  0.70380694  0.30990430  1
loop_
_geom_bond_atom_site_label_1
_geom_bond_atom_site_label_2
_geom_bond_distance
_geom_bond_site_symmetry_2
H0 N0 1.017919 1_555
H1 N1 1.017919 1_555
H2 N2 1.017919 1_555
H3 N3 1.017919 1_555
H4 N0 1.021165 1_555
H5 N1 1.021165 1_555
H6 N2 1.021165 1_555
H7 N3 1.021165 1_555
H8 N4 1.018223 1_555
H9 N5 1.018224 1_555
H10 N6 1.018224 1_555
H11 N7 1.018223 1_555
H12 N4 1.019344 1_555
H13 N5 1.019347 1_555
H14 N6 1.019347 1_555
H15 N7 1.019344 1_555
H16 N8 1.040092 1_555
H16 O10 1.698105 1_555
H17 N9 1.040092 1_555
H17 O11 1.698105 1_545
H18 N10 1.040092 1_555
H18 O8 1.698105 1_545
H19 N11 1.040092 1_555
H19 O9 1.698105 1_555
H20 N12 1.021088 1_555
H21 N13 1.021088 1_555
H22 N14 1.021088 1_555
H23 N15 1.021088 1_555
H24 N12 1.017129 1_555
H25 N13 1.017129 1_555
H26 N14 1.017129 1_555
H27 N15 1.017129 1_555
H28 N16 1.018611 1_555
H29 N17 1.018611 1_555
H30 N18 1.018611 1_555
H31 N19 1.018611 1_555
H32 N16 1.013875 1_545
H33 N17 1.013875 1_555
H34 N18 1.013875 1_555
H35 N19 1.013875 1_545
C0 N0 1.318353 1_455
C0 N4 1.318661 1_555
C0 N8 1.372796 1_555
C1 N1 1.318353 1_655
C1 N5 1.318656 1_555
C1 N9 1.372796 1_555
C2 N2 1.318353 1_455
C2 N6 1.318656 1_555
C2 N10 1.372796 1_555
C3 N3 1.318353 1_655
C3 N7 1.318661 1_555
C3 N11 1.372796 1_555
C4 N12 1.318660 1_555
C4 N16 1.320545 1_555
C4 N8 1.367920 1_555
C5 N13 1.318660 1_555
C5 N17 1.320545 1_555
C5 N9 1.367920 1_555
C6 N14 1.318660 1_555
C6 N18 1.320545 1_555
C6 N10 1.367920 1_555
C7 N15 1.318660 1_555
C7 N19 1.320545 1_555
C7 N11 1.367920 1_555
N20 O0 1.249384 1_545
N20 O4 1.250202 1_455
N20 O8 1.280013 1_545
N21 O1 1.249384 1_555
N21 O5 1.250202 1_655
N21 O9 1.280013 1_555
N22 O2 1.249384 1_555
N22 O6 1.250202 1_455
N22 O10 1.280013 1_556
N23 O3 1.249384 1_545
N23 O7 1.250202 1_655
N23 O11 1.280013 1_544
N24 O16 1.251262 1_555
N24 O12 1.262394 1_555
N24 O20 1.268838 1_555
N25 O17 1.251262 1_555
N25 O13 1.262394 1_555
N25 O21 1.268838 1_555
N26 O18 1.251262 1_555
N26 O14 1.262394 1_555
N26 O22 1.268838 1_555
N27 O19 1.251262 1_555
N27 O15 1.262394 1_555
N27 O23 1.268838 1_555
