# generated using pymatgen
data_Li4VF8
_symmetry_space_group_name_H-M   'P 1'
_cell_length_a   5.66736600
_cell_length_b   9.45151400
_cell_length_c   9.47623100
_cell_angle_alpha   90.00000000
_cell_angle_beta   90.00000000
_cell_angle_gamma   90.00000000
_symmetry_Int_Tables_number   1
_chemical_formula_structural   Li4VF8
_chemical_formula_sum   'Li16 V4 F32'
_cell_volume   507.59610540
_cell_formula_units_Z   4
loop_
 _symmetry_equiv_pos_site_id
 _symmetry_equiv_pos_as_xyz
  1  'x, y, z'
loop_
 _atom_site_type_symbol
 _atom_site_label
 _atom_site_symmetry_multiplicity
 _atom_site_fract_x
 _atom_site_fract_y
 _atom_site_fract_z
 _atom_site_occupancy
  Li  Li0  1  0.12243400  0.57812800  0.10914300  1
  Li  Li1  1  0.12243400  0.92187200  0.10914300  1
  Li  Li2  1  0.61288800  0.56384900  0.13101400  1
  Li  Li3  1  0.61288800  0.93615100  0.13101400  1
  Li  Li4  1  0.11288800  0.06384900  0.36898600  1
  Li  Li5  1  0.11288800  0.43615100  0.36898600  1
  Li  Li6  1  0.62243400  0.07812800  0.39085700  1
  Li  Li7  1  0.62243400  0.42187200  0.39085700  1
  Li  Li8  1  0.37756600  0.57812800  0.60914300  1
  Li  Li9  1  0.37756600  0.92187200  0.60914300  1
  Li  Li10  1  0.88711200  0.56384900  0.63101400  1
  Li  Li11  1  0.88711200  0.93615100  0.63101400  1
  Li  Li12  1  0.38711200  0.06384900  0.86898600  1
  Li  Li13  1  0.38711200  0.43615100  0.86898600  1
  Li  Li14  1  0.87756600  0.07812800  0.89085700  1
  Li  Li15  1  0.87756600  0.42187200  0.89085700  1
  V  V0  1  0.37215800  0.25000000  0.13382800  1
  V  V1  1  0.87215800  0.75000000  0.36617200  1
  V  V2  1  0.12784200  0.25000000  0.63382800  1
  V  V3  1  0.62784200  0.75000000  0.86617200  1
  F  F0  1  0.15909200  0.12039100  0.02312500  1
  F  F1  1  0.15909200  0.37960900  0.02312500  1
  F  F2  1  0.59308700  0.12530900  0.02807000  1
  F  F3  1  0.59308700  0.37469100  0.02807000  1
  F  F4  1  0.11509100  0.75000000  0.22472000  1
  F  F5  1  0.61830700  0.75000000  0.23467000  1
  F  F6  1  0.37080400  0.03723200  0.23702000  1
  F  F7  1  0.37080400  0.46276800  0.23702000  1
  F  F8  1  0.87080400  0.53723200  0.26298000  1
  F  F9  1  0.87080400  0.96276800  0.26298000  1
  F  F10  1  0.11830700  0.25000000  0.26533000  1
  F  F11  1  0.61509100  0.25000000  0.27528000  1
  F  F12  1  0.09308700  0.62530900  0.47193000  1
  F  F13  1  0.09308700  0.87469100  0.47193000  1
  F  F14  1  0.65909200  0.62039100  0.47687500  1
  F  F15  1  0.65909200  0.87960900  0.47687500  1
  F  F16  1  0.34090800  0.12039100  0.52312500  1
  F  F17  1  0.34090800  0.37960900  0.52312500  1
  F  F18  1  0.90691300  0.12530900  0.52807000  1
  F  F19  1  0.90691300  0.37469100  0.52807000  1
  F  F20  1  0.38490900  0.75000000  0.72472000  1
  F  F21  1  0.88169300  0.75000000  0.73467000  1
  F  F22  1  0.12919600  0.03723200  0.73702000  1
  F  F23  1  0.12919600  0.46276800  0.73702000  1
  F  F24  1  0.62919600  0.53723200  0.76298000  1
  F  F25  1  0.62919600  0.96276800  0.76298000  1
  F  F26  1  0.38169300  0.25000000  0.76533000  1
  F  F27  1  0.88490900  0.25000000  0.77528000  1
  F  F28  1  0.40691300  0.62530900  0.97193000  1
  F  F29  1  0.40691300  0.87469100  0.97193000  1
  F  F30  1  0.84090800  0.62039100  0.97687500  1
  F  F31  1  0.84090800  0.87960900  0.97687500  1
loop_
_geom_bond_atom_site_label_1
_geom_bond_atom_site_label_2
_geom_bond_distance
_geom_bond_site_symmetry_2
F0 V0 2.014756 1_555
F0 Li12 2.022147 1_554
F0 Li1 2.056238 1_545
F0 Li14 2.067905 1_454
F1 V0 2.014756 1_555
F1 Li13 2.022147 1_554
F1 Li0 2.056238 1_555
F1 Li15 2.067905 1_454
F2 V0 1.990227 1_555
F2 Li12 1.993166 1_554
F2 Li3 2.039747 1_545
F2 Li14 2.118697 1_554
F3 V0 1.990227 1_555
F3 Li13 1.993166 1_554
F3 Li2 2.039747 1_555
F3 Li15 2.118697 1_554
F4 V1 1.921538 1_455
F4 Li1 1.959620 1_555
F4 Li0 1.959620 1_555
F5 V1 1.903322 1_555
F5 Li3 2.015270 1_555
F5 Li2 2.015270 1_555
F6 Li4 1.940031 1_555
F6 Li3 1.950423 1_545
F6 Li6 2.075638 1_555
F6 Li1 2.153741 1_545
F6 V0 2.236142 1_555
F7 Li5 1.940031 1_555
F7 Li2 1.950423 1_555
F7 Li7 2.075638 1_555
F7 Li0 2.153741 1_555
F7 V0 2.236142 1_555
F8 Li2 1.940031 1_555
F8 Li5 1.950423 1_655
F8 Li0 2.075638 1_655
F8 Li7 2.153741 1_555
F8 V1 2.236142 1_555
F9 Li3 1.940031 1_555
F9 Li4 1.950423 1_665
F9 Li1 2.075638 1_655
F9 Li6 2.153741 1_565
F9 V1 2.236142 1_555
F10 V0 1.903322 1_555
F10 Li5 2.015270 1_555
F10 Li4 2.015270 1_555
F11 V0 1.921538 1_555
F11 Li7 1.959620 1_555
F11 Li6 1.959620 1_555
F12 V1 1.990227 1_455
F12 Li10 1.993166 1_455
F12 Li5 2.039747 1_555
F12 Li8 2.118697 1_555
F13 V1 1.990227 1_455
F13 Li11 1.993166 1_455
F13 Li4 2.039747 1_565
F13 Li9 2.118697 1_555
F14 V1 2.014756 1_555
F14 Li10 2.022147 1_555
F14 Li7 2.056238 1_555
F14 Li8 2.067905 1_555
F15 V1 2.014756 1_555
F15 Li11 2.022147 1_555
F15 Li6 2.056238 1_565
F15 Li9 2.067905 1_555
F16 V2 2.014756 1_555
F16 Li4 2.022147 1_555
F16 Li9 2.056238 1_545
F16 Li6 2.067905 1_555
F17 V2 2.014756 1_555
F17 Li5 2.022147 1_555
F17 Li8 2.056238 1_555
F17 Li7 2.067905 1_555
F18 V2 1.990227 1_655
F18 Li4 1.993166 1_655
F18 Li11 2.039747 1_545
F18 Li6 2.118697 1_555
F19 V2 1.990227 1_655
F19 Li5 1.993166 1_655
F19 Li10 2.039747 1_555
F19 Li7 2.118697 1_555
F20 V3 1.921538 1_555
F20 Li9 1.959620 1_555
F20 Li8 1.959620 1_555
F21 V3 1.903322 1_555
F21 Li11 2.015270 1_555
F21 Li10 2.015270 1_555
F22 Li12 1.940031 1_555
F22 Li11 1.950423 1_445
F22 Li14 2.075638 1_455
F22 Li9 2.153741 1_545
F22 V2 2.236142 1_555
F23 Li13 1.940031 1_555
F23 Li10 1.950423 1_455
F23 Li15 2.075638 1_455
F23 Li8 2.153741 1_555
F23 V2 2.236142 1_555
F24 Li10 1.940031 1_555
F24 Li13 1.950423 1_555
F24 Li8 2.075638 1_555
F24 Li15 2.153741 1_555
F24 V3 2.236142 1_555
F25 Li11 1.940031 1_555
F25 Li12 1.950423 1_565
F25 Li9 2.075638 1_555
F25 Li14 2.153741 1_565
F25 V3 2.236142 1_555
F26 V2 1.903322 1_555
F26 Li13 2.015270 1_555
F26 Li12 2.015270 1_555
F27 V2 1.921538 1_655
F27 Li15 1.959620 1_555
F27 Li14 1.959620 1_555
F28 V3 1.990227 1_555
F28 Li2 1.993166 1_556
F28 Li13 2.039747 1_555
F28 Li0 2.118697 1_556
F29 V3 1.990227 1_555
F29 Li3 1.993166 1_556
F29 Li12 2.039747 1_565
F29 Li1 2.118697 1_556
F30 V3 2.014756 1_555
F30 Li2 2.022147 1_556
F30 Li15 2.056238 1_555
F30 Li0 2.067905 1_656
F31 V3 2.014756 1_555
F31 Li3 2.022147 1_556
F31 Li14 2.056238 1_565
F31 Li1 2.067905 1_656
