# generated using pymatgen
data_V4O5F7
_symmetry_space_group_name_H-M   'P 1'
_cell_length_a   5.26916700
_cell_length_b   5.35433602
_cell_length_c   17.32967853
_cell_angle_alpha   83.57841712
_cell_angle_beta   81.67176754
_cell_angle_gamma   60.73340849
_symmetry_Int_Tables_number   1
_chemical_formula_structural   V4O5F7
_chemical_formula_sum   'V8 O10 F14'
_cell_volume   421.53694788
_cell_formula_units_Z   2
loop_
 _symmetry_equiv_pos_site_id
 _symmetry_equiv_pos_as_xyz
  1  'x, y, z'
loop_
 _atom_site_type_symbol
 _atom_site_label
 _atom_site_symmetry_multiplicity
 _atom_site_fract_x
 _atom_site_fract_y
 _atom_site_fract_z
 _atom_site_occupancy
  V  V0  1  0.35869800  0.39635700  0.87970500  1
  V  V1  1  0.86061900  0.90927600  0.38017600  1
  V  V2  1  0.70345600  0.78971900  0.74819100  1
  V  V3  1  0.20601200  0.29444000  0.24770600  1
  V  V4  1  0.12602600  0.14778100  0.63124100  1
  V  V5  1  0.63055200  0.65442400  0.13103600  1
  V  V6  1  0.98268600  0.98093700  0.00303300  1
  V  V7  1  0.47813400  0.52833100  0.50535800  1
  O  O0  1  0.26695900  0.67858600  0.93301600  1
  O  O1  1  0.76444000  0.18525400  0.43534800  1
  O  O2  1  0.49594400  0.05303900  0.80999400  1
  O  O3  1  0.01664200  0.42582400  0.68665500  1
  O  O4  1  0.99971500  0.55565400  0.30938900  1
  O  O5  1  0.50777100  0.90728100  0.67000800  1
  O  O6  1  0.01398700  0.40511400  0.16903400  1
  O  O7  1  0.80460400  0.79960300  0.04227200  1
  O  O8  1  0.52190500  0.92496100  0.18929600  1
  O  O9  1  0.24614000  0.80360400  0.56121300  1
  F  F0  1  0.75661600  0.16390600  0.91283400  1
  F  F1  1  0.97047400  0.93556200  0.71030400  1
  F  F2  1  0.26202400  0.66755900  0.41239500  1
  F  F3  1  0.47420200  0.43567000  0.20881100  1
  F  F4  1  0.21399000  0.19209700  0.95774000  1
  F  F5  1  0.99395500  0.56471600  0.83111500  1
  F  F6  1  0.49883400  0.06907300  0.33207800  1
  F  F7  1  0.29076800  0.28603500  0.53806600  1
  F  F8  1  0.73278500  0.69155400  0.46006500  1
  F  F9  1  0.75283800  0.30971800  0.58385300  1
  F  F10  1  0.54143700  0.53821700  0.78773300  1
  F  F11  1  0.04331500  0.04210300  0.28829200  1
  F  F12  1  0.73064000  0.32919900  0.06058200  1
  F  F13  1  0.25383000  0.83440200  0.08346100  1
loop_
_geom_bond_atom_site_label_1
_geom_bond_atom_site_label_2
_geom_bond_distance
_geom_bond_site_symmetry_2
O0 V0 1.685069 1_555
O0 V6 1.969433 1_456
O1 V1 1.672717 1_545
O1 V7 2.093079 1_555
O2 V2 1.679794 1_545
O2 V0 2.074949 1_555
O3 V4 1.670692 1_555
O3 V2 2.113761 1_455
O4 V3 1.670846 1_655
O4 V1 2.128208 1_555
O5 V2 1.695416 1_555
O5 V4 1.954733 1_565
O6 V3 1.693022 1_555
O6 V5 1.961962 1_455
O7 V6 1.686369 1_555
O7 V5 1.957665 1_555
O8 V5 1.671603 1_555
O8 V3 2.109290 1_565
O9 V7 1.678793 1_555
O9 V4 2.099221 1_565
F0 V6 1.969238 1_546
F0 V0 1.977922 1_555
F1 V2 1.926750 1_555
F1 V4 2.019224 1_665
F2 V7 1.969921 1_555
F2 V1 1.991053 1_455
F3 V3 1.917810 1_555
F3 V5 2.033689 1_555
F4 V0 1.947336 1_555
F4 V6 2.061916 1_446
F5 V0 1.954586 1_655
F5 V2 2.075191 1_555
F6 V1 1.940836 1_545
F6 V3 2.100724 1_555
F7 V4 1.965606 1_555
F7 V7 1.976046 1_555
F8 V1 1.966214 1_555
F8 V7 1.966808 1_555
F9 V7 1.968071 1_555
F9 V4 1.983523 1_655
F10 V2 1.939057 1_555
F10 V0 2.011005 1_555
F11 V3 1.949445 1_555
F11 V1 1.984953 1_445
F12 V6 1.961244 1_545
F12 V5 2.047514 1_555
F13 V6 1.958487 1_455
F13 V5 1.993666 1_555
