# generated using pymatgen
data_Li2MnFe(BO3)2
_symmetry_space_group_name_H-M   'P 1'
_cell_length_a   5.23969178
_cell_length_b   8.20273029
_cell_length_c   5.99169676
_cell_angle_alpha   77.13265952
_cell_angle_beta   89.01432680
_cell_angle_gamma   90.75553767
_symmetry_Int_Tables_number   1
_chemical_formula_structural   Li2MnFe(BO3)2
_chemical_formula_sum   'Li4 Mn2 Fe2 B4 O12'
_cell_volume   250.97958220
_cell_formula_units_Z   2
loop_
 _symmetry_equiv_pos_site_id
 _symmetry_equiv_pos_as_xyz
  1  'x, y, z'
loop_
 _atom_site_type_symbol
 _atom_site_label
 _atom_site_symmetry_multiplicity
 _atom_site_fract_x
 _atom_site_fract_y
 _atom_site_fract_z
 _atom_site_occupancy
  Li  Li0  1  0.65550000  0.27856600  0.04519500  1
  Li  Li1  1  0.84450800  0.22155900  0.45486700  1
  Li  Li2  1  0.15130100  0.77793700  0.54507800  1
  Li  Li3  1  0.34862100  0.72195000  0.95494400  1
  Mn  Mn0  1  0.32894800  0.07874000  0.68290600  1
  Mn  Mn1  1  0.17108600  0.42124900  0.81719000  1
  Fe  Fe0  1  0.83811900  0.58370700  0.17807400  1
  Fe  Fe1  1  0.66189300  0.91663800  0.32194800  1
  B  B0  1  0.17095700  0.09280100  0.16828200  1
  B  B1  1  0.32909600  0.40707700  0.33175000  1
  B  B2  1  0.67284800  0.59622600  0.66364700  1
  B  B3  1  0.82714000  0.90381600  0.83623700  1
  O  O0  1  0.91162300  0.11598400  0.18120800  1
  O  O1  1  0.58844400  0.38393200  0.31878900  1
  O  O2  1  0.67775700  0.81028500  0.01831300  1
  O  O3  1  0.82220800  0.68978900  0.48161500  1
  O  O4  1  0.20644800  0.52094900  0.15953100  1
  O  O5  1  0.29344900  0.97882300  0.34048800  1
  O  O6  1  0.18094400  0.31187400  0.51248000  1
  O  O7  1  0.31911800  0.18806500  0.98765000  1
  O  O8  1  0.71190500  0.01813100  0.66181600  1
  O  O9  1  0.78811600  0.48188100  0.83801900  1
  O  O10  1  0.41390500  0.62413600  0.67346500  1
  O  O11  1  0.08606500  0.87588500  0.82650800  1
loop_
_geom_bond_atom_site_label_1
_geom_bond_atom_site_label_2
_geom_bond_distance
_geom_bond_site_symmetry_2
Li0 O9 1.955201 1_554
Li0 O0 1.960719 1_555
Li0 O7 1.968989 1_554
Li0 O1 2.043759 1_555
Li1 O8 1.955238 1_555
Li1 O1 1.959587 1_555
Li1 O6 1.968737 1_655
Li1 O0 2.045193 1_555
Li2 O10 1.930438 1_555
Li2 O3 1.937241 1_455
Li2 O5 1.951736 1_555
Li2 O11 2.048559 1_555
Li3 O11 1.930964 1_555
Li3 O2 1.937897 1_556
Li3 O4 1.952436 1_556
Li3 O10 2.048231 1_555
Mn0 O8 2.082079 1_555
Mn0 O11 2.097023 1_545
Mn0 O6 2.120793 1_555
Mn0 O7 2.206388 1_555
Mn0 O5 2.381953 1_545
Mn1 O9 2.082043 1_455
Mn1 O10 2.097172 1_555
Mn1 O7 2.121236 1_555
Mn1 O6 2.206445 1_555
Mn1 O4 2.380505 1_556
Fe0 O4 2.011537 1_655
Fe0 O2 2.086393 1_555
Fe0 O1 2.097090 1_555
Fe0 O3 2.184824 1_555
Fe0 O9 2.385014 1_554
Fe1 O5 2.010800 1_555
Fe1 O3 2.087904 1_555
Fe1 O0 2.094894 1_565
Fe1 O2 2.186635 1_555
Fe1 O8 2.382502 1_565
B0 O0 1.377800 1_455
B0 O5 1.399861 1_545
B0 O7 1.401095 1_554
B1 O1 1.377836 1_555
B1 O4 1.399857 1_555
B1 O6 1.401256 1_555
B2 O10 1.381367 1_555
B2 O9 1.391502 1_555
B2 O3 1.404647 1_555
B3 O11 1.381273 1_655
B3 O8 1.391476 1_565
B3 O2 1.404786 1_556
