# generated using pymatgen
data_Li6VO4F
_symmetry_space_group_name_H-M   'P 1'
_cell_length_a   5.26944083
_cell_length_b   9.05555474
_cell_length_c   10.81923028
_cell_angle_alpha   66.86541531
_cell_angle_beta   101.49143027
_cell_angle_gamma   84.01124432
_symmetry_Int_Tables_number   1
_chemical_formula_structural   Li6VO4F
_chemical_formula_sum   'Li24 V4 O16 F4'
_cell_volume   455.58447212
_cell_formula_units_Z   4
loop_
 _symmetry_equiv_pos_site_id
 _symmetry_equiv_pos_as_xyz
  1  'x, y, z'
loop_
 _atom_site_type_symbol
 _atom_site_label
 _atom_site_symmetry_multiplicity
 _atom_site_fract_x
 _atom_site_fract_y
 _atom_site_fract_z
 _atom_site_occupancy
  Li  Li0  1  0.74446900  0.84664200  0.74129300  1
  Li  Li1  1  0.24458000  0.34677900  0.74121200  1
  Li  Li2  1  0.24641400  0.16220400  0.24144800  1
  Li  Li3  1  0.74630700  0.66210600  0.24114500  1
  Li  Li4  1  0.64764800  0.97698300  0.24342800  1
  Li  Li5  1  0.14786500  0.47692900  0.24324800  1
  Li  Li6  1  0.34542700  0.02995000  0.74305800  1
  Li  Li7  1  0.84539200  0.52993100  0.74304500  1
  Li  Li8  1  0.15524400  0.36156300  0.00102200  1
  Li  Li9  1  0.65516000  0.86154500  0.00109500  1
  Li  Li10  1  0.59629800  0.88749100  0.50124700  1
  Li  Li11  1  0.09611800  0.38721400  0.50105600  1
  Li  Li12  1  0.41325200  0.13929400  0.50412900  1
  Li  Li13  1  0.91248000  0.63957700  0.50389600  1
  Li  Li14  1  0.34120800  0.10632400  0.00412200  1
  Li  Li15  1  0.84110800  0.60633000  0.00411300  1
  Li  Li16  1  0.07238300  0.91044600  0.45018400  1
  Li  Li17  1  0.57198300  0.41048700  0.45002500  1
  Li  Li18  1  0.12726400  0.88933700  0.94987500  1
  Li  Li19  1  0.62718100  0.38947200  0.94984400  1
  Li  Li20  1  0.85914900  0.13529300  0.06164100  1
  Li  Li21  1  0.35905500  0.63523800  0.06150300  1
  Li  Li22  1  0.95261900  0.05385700  0.56125400  1
  Li  Li23  1  0.45237300  0.55410900  0.56119700  1
  V  V0  1  0.28091500  0.72053700  0.74145900  1
  V  V1  1  0.71041900  0.28788200  0.24180600  1
  V  V2  1  0.78130900  0.22055200  0.74144800  1
  V  V3  1  0.21008900  0.78790200  0.24174600  1
  O  O0  1  0.49669200  0.22362600  0.09939300  1
  O  O1  1  0.99657800  0.72358300  0.09945800  1
  O  O2  1  0.35156500  0.92718000  0.59868600  1
  O  O3  1  0.85141700  0.42714700  0.59866600  1
  O  O4  1  0.64547300  0.10005400  0.39283300  1
  O  O5  1  0.14524400  0.60003500  0.39280400  1
  O  O6  1  0.49840400  0.75779500  0.89218800  1
  O  O7  1  0.99828800  0.25784300  0.89211100  1
  O  O8  1  0.93042100  0.76542300  0.61788100  1
  O  O9  1  0.43054000  0.26536600  0.61793100  1
  O  O10  1  0.93698900  0.36563500  0.11762400  1
  O  O11  1  0.43681400  0.86564700  0.11768700  1
  O  O12  1  0.03753100  0.98004300  0.25283300  1
  O  O13  1  0.53757800  0.48029700  0.25260600  1
  O  O14  1  0.96477100  0.01745400  0.75213500  1
  O  O15  1  0.46483300  0.51738400  0.75215300  1
  F  F0  1  0.07815600  0.58833000  0.89586400  1
  F  F1  1  0.57818500  0.08833700  0.89585600  1
  F  F2  1  0.06923300  0.26582700  0.39537300  1
  F  F3  1  0.56757700  0.76702400  0.39537500  1
loop_
_geom_bond_atom_site_label_1
_geom_bond_atom_site_label_2
_geom_bond_distance
_geom_bond_site_symmetry_2
Li0 O14 2.053524 1_565
Li0 O8 2.103918 1_555
Li0 O2 2.174133 1_555
Li0 O6 2.241165 1_555
Li1 O15 2.052054 1_555
Li1 O9 2.103683 1_555
Li1 O3 2.175002 1_455
Li1 O7 2.242214 1_455
Li2 O12 2.054510 1_545
Li2 O10 2.100125 1_455
Li2 O0 2.167894 1_555
Li2 O4 2.253359 1_555
Li3 O13 2.051214 1_555
Li3 O11 2.100325 1_555
Li3 O1 2.164984 1_555
Li3 O5 2.254280 1_655
Li4 O12 2.040282 1_655
Li4 O0 2.109519 1_565
Li4 O11 2.193353 1_555
Li4 O4 2.296822 1_565
Li5 O13 2.039849 1_555
Li5 O1 2.109147 1_455
Li5 O10 2.192275 1_455
Li5 O5 2.298750 1_555
Li6 O14 2.040338 1_455
Li6 O2 2.112597 1_545
Li6 O9 2.179949 1_555
Li6 O6 2.295548 1_545
Li7 O15 2.039966 1_555
Li7 O3 2.112690 1_555
Li7 O8 2.180389 1_555
Li7 O7 2.294898 1_555
Li8 O10 1.876523 1_455
Li8 O7 1.896876 1_454
Li8 O0 1.911454 1_555
Li9 O11 1.876853 1_555
Li9 O6 1.896674 1_554
Li9 O1 1.911400 1_555
Li10 O8 1.877951 1_555
Li10 O4 1.897146 1_565
Li10 O2 1.909536 1_555
Li11 O9 1.879334 1_555
Li11 O5 1.898457 1_555
Li11 O3 1.911556 1_455
Li12 O2 1.886915 1_545
Li12 O4 1.976404 1_555
Li12 O9 1.977170 1_555
Li13 O3 1.888409 1_555
Li13 O8 1.977084 1_555
Li13 O5 1.977669 1_655
Li14 O0 1.888797 1_555
Li14 O7 1.979902 1_454
Li14 O11 1.983318 1_545
Li15 O1 1.888949 1_555
Li15 O6 1.978762 1_554
Li15 O10 1.983397 1_555
Li16 O12 1.937045 1_555
Li16 O2 2.016102 1_555
Li16 O8 2.109408 1_455
Li16 O4 2.488855 1_465
Li17 O13 1.937897 1_555
Li17 O3 2.017583 1_555
Li17 O9 2.109631 1_555
Li17 O5 2.488164 1_555
Li18 O14 1.941294 1_465
Li18 O1 2.024175 1_456
Li18 O11 2.108082 1_556
Li18 O6 2.493522 1_555
Li19 O15 1.940540 1_555
Li19 O0 2.023750 1_556
Li19 O10 2.108234 1_556
Li19 O7 2.494071 1_555
Li20 O12 1.950206 1_645
Li20 O7 2.059004 1_554
Li20 O0 2.168717 1_555
Li20 O10 2.440959 1_555
Li21 O13 1.948986 1_555
Li21 O6 2.057927 1_554
Li21 O1 2.169966 1_455
Li21 O11 2.442656 1_555
Li22 O14 1.945691 1_555
Li22 O4 2.049270 1_555
Li22 O2 2.166052 1_645
Li22 O8 2.458879 1_545
Li23 O15 1.945444 1_555
Li23 O5 2.049580 1_555
Li23 O3 2.167336 1_555
Li23 O9 2.461008 1_555
O0 V1 2.032447 1_555
O1 V3 2.031293 1_655
O2 V0 2.032112 1_555
O3 V2 2.030647 1_555
O4 V1 1.959711 1_555
O5 V3 1.959856 1_555
O6 V0 1.963424 1_555
O7 V2 1.961862 1_555
O8 V0 1.948415 1_655
O9 V2 1.949390 1_555
O10 V1 1.948710 1_555
O11 V3 1.948452 1_555
O12 V3 1.935437 1_555
O13 V1 1.936608 1_555
O14 V2 1.935934 1_555
O15 V0 1.937273 1_555
F0 Li8 1.866078 1_556
F0 Li15 1.910209 1_456
F0 Li7 2.128881 1_455
F0 V0 2.184507 1_555
F0 Li21 2.292466 1_556
F0 Li0 2.501275 1_455
F1 Li9 1.866397 1_546
F1 Li14 1.910035 1_556
F1 Li6 2.128627 1_555
F1 V2 2.185894 1_555
F1 Li20 2.294030 1_556
F1 Li1 2.501904 1_555
F2 Li11 1.868510 1_555
F2 Li12 1.908111 1_555
F2 Li5 2.121237 1_555
F2 V1 2.187258 1_455
F2 Li22 2.293822 1_455
F2 Li2 2.488024 1_555
F3 Li10 1.863409 1_555
F3 Li13 1.913352 1_555
F3 Li4 2.117359 1_555
F3 V3 2.185916 1_555
F3 Li23 2.294498 1_555
F3 Li3 2.501855 1_555
