# generated using pymatgen
data_Hf2N2O
_symmetry_space_group_name_H-M   'P 1'
_cell_length_a   8.65368151
_cell_length_b   8.66576200
_cell_length_c   8.68222284
_cell_angle_alpha   109.42688712
_cell_angle_beta   109.40124983
_cell_angle_gamma   109.44666201
_symmetry_Int_Tables_number   1
_chemical_formula_structural   Hf2N2O
_chemical_formula_sum   'Hf16 N16 O8'
_cell_volume   502.06355779
_cell_formula_units_Z   8
loop_
 _symmetry_equiv_pos_site_id
 _symmetry_equiv_pos_as_xyz
  1  'x, y, z'
loop_
 _atom_site_type_symbol
 _atom_site_label
 _atom_site_symmetry_multiplicity
 _atom_site_fract_x
 _atom_site_fract_y
 _atom_site_fract_z
 _atom_site_occupancy
  Hf  Hf0  1  0.99137615  0.99275085  0.49318263  1
  Hf  Hf1  1  0.25112155  0.71515928  0.46397056  1
  Hf  Hf2  1  0.28594353  0.03481113  0.25047375  1
  Hf  Hf3  1  0.78254459  0.53911077  0.25927525  1
  Hf  Hf4  1  0.73856723  0.78732152  0.03219837  1
  Hf  Hf5  1  0.97050018  0.74441055  0.71183787  1
  Hf  Hf6  1  0.03309540  0.25212875  0.28746463  1
  Hf  Hf7  1  0.54467193  0.25478972  0.78653197  1
  Hf  Hf8  1  0.01190134  0.50201245  0.99580403  1
  Hf  Hf9  1  0.48909459  0.49199803  0.49020403  1
  Hf  Hf10  1  0.49872702  0.00056904  0.00110780  1
  Hf  Hf11  1  0.45931981  0.74120241  0.21301076  1
  Hf  Hf12  1  0.25943096  0.21547447  0.97502214  1
  Hf  Hf13  1  0.71719360  0.96947883  0.75089215  1
  Hf  Hf14  1  0.21100762  0.46342996  0.74564236  1
  Hf  Hf15  1  0.75385106  0.29042071  0.54080055  1
  N  N0  1  0.73067908  0.76214294  0.27054049  1
  N  N1  1  0.05242498  0.77842206  0.51630216  1
  N  N2  1  0.51922128  0.74646220  0.47336109  1
  N  N3  1  0.53572331  0.27393073  0.04145382  1
  N  N4  1  0.22366387  0.77207159  0.23635636  1
  N  N5  1  0.22812013  0.95427249  0.96649119  1
  N  N6  1  0.48464696  0.25911764  0.53560640  1
  N  N7  1  0.72659973  0.48924144  0.45528847  1
  N  N8  1  0.01088882  0.54373831  0.77259077  1
  N  N9  1  0.25812174  0.27156471  0.22725211  1
  N  N10  1  0.77376947  0.04512948  0.03350214  1
  N  N11  1  0.46583377  0.72846272  0.95282911  1
  N  N12  1  0.23836894  0.46269373  0.01027922  1
  N  N13  1  0.77309454  0.22756041  0.76804302  1
  N  N14  1  0.26918417  0.51297815  0.54316787  1
  N  N15  1  0.94961249  0.21943727  0.48576039  1
  O  O0  1  0.96365235  0.00922952  0.73524593  1
  O  O1  1  0.03708749  0.99215032  0.26671007  1
  O  O2  1  0.45436339  0.96639004  0.72838015  1
  O  O3  1  0.26856316  0.23122629  0.72457425  1
  O  O4  1  0.98536498  0.45549163  0.22640671  1
  O  O5  1  0.74700143  0.72995283  0.77877745  1
  O  O6  1  0.76140379  0.53687782  0.98345641  1
  O  O7  1  0.54426659  0.03639119  0.27020655  1
loop_
_geom_bond_atom_site_label_1
_geom_bond_atom_site_label_2
_geom_bond_distance
_geom_bond_site_symmetry_2
Hf0 N0 2.085871 1_555
Hf0 O1 2.129341 1_655
Hf0 N15 2.129588 1_565
Hf0 N1 2.144747 1_655
Hf0 O0 2.157087 1_565
Hf0 O3 2.190087 1_665
Hf1 N1 2.108202 1_555
Hf1 N14 2.116429 1_555
Hf1 O2 2.132256 1_555
Hf1 N4 2.149291 1_555
Hf1 N2 2.214368 1_555
Hf1 O4 2.218577 1_455
Hf2 N4 2.107814 1_545
Hf2 O1 2.121423 1_545
Hf2 N6 2.146850 1_555
Hf2 N5 2.149367 1_544
Hf2 O7 2.179535 1_555
Hf2 N9 2.209004 1_555
Hf3 N7 2.052964 1_555
Hf3 N0 2.104172 1_555
Hf3 N3 2.139307 1_555
Hf3 O4 2.174649 1_555
Hf3 N1 2.229134 1_655
Hf3 O6 2.333300 1_554
Hf4 N11 2.046811 1_554
Hf4 O5 2.120572 1_554
Hf4 N10 2.147525 1_565
Hf4 O6 2.158349 1_554
Hf4 N0 2.172259 1_555
Hf4 O1 2.240084 1_655
Hf5 N8 2.077695 1_655
Hf5 N1 2.113041 1_655
Hf5 N5 2.125262 1_655
Hf5 O5 2.174405 1_555
Hf5 N7 2.190519 1_555
Hf5 O0 2.258206 1_565
Hf6 N10 2.125269 1_455
Hf6 O4 2.125553 1_455
Hf6 N15 2.140264 1_455
Hf6 N9 2.147133 1_555
Hf6 N14 2.187628 1_555
Hf6 O1 2.212506 1_545
Hf7 N6 2.081583 1_555
Hf7 O6 2.110223 1_555
Hf7 N13 2.117773 1_555
Hf7 O2 2.170174 1_545
Hf7 O3 2.188206 1_555
Hf7 N3 2.193254 1_556
Hf8 N12 2.069324 1_556
Hf8 N8 2.084128 1_555
Hf8 N4 2.132441 1_556
Hf8 N13 2.172872 1_455
Hf8 O4 2.237087 1_456
Hf8 O6 2.259440 1_455
Hf9 N9 2.093133 1_555
Hf9 N14 2.149930 1_555
Hf9 N6 2.171885 1_555
Hf9 N7 2.181400 1_555
Hf9 N2 2.192937 1_555
Hf9 O5 2.300960 1_555
Hf10 O7 2.129484 1_555
Hf10 N5 2.135812 1_544
Hf10 N11 2.152498 1_544
Hf10 O2 2.166977 1_544
Hf10 N3 2.169179 1_555
Hf10 N10 2.182720 1_555
Hf11 N12 2.108190 1_555
Hf11 N2 2.125454 1_555
Hf11 N0 2.161815 1_555
Hf11 N4 2.207518 1_555
Hf11 O7 2.234033 1_565
Hf11 N11 2.245237 1_554
Hf12 N9 2.084274 1_556
Hf12 N3 2.094968 1_556
Hf12 N12 2.139483 1_556
Hf12 N5 2.160825 1_545
Hf12 O0 2.240184 1_455
Hf12 O3 2.248891 1_555
Hf13 N13 2.065968 1_565
Hf13 O0 2.102442 1_565
Hf13 N2 2.105047 1_555
Hf13 N10 2.146670 1_566
Hf13 O2 2.207414 1_555
Hf13 O5 2.254527 1_555
Hf14 N14 2.115246 1_555
Hf14 N8 2.121659 1_555
Hf14 N11 2.148852 1_555
Hf14 O3 2.193989 1_555
Hf14 N15 2.220230 1_455
Hf14 N12 2.232613 1_556
Hf15 N15 2.124317 1_555
Hf15 N7 2.140200 1_555
Hf15 N8 2.156980 1_655
Hf15 O7 2.173768 1_555
Hf15 N13 2.184977 1_555
Hf15 N6 2.236955 1_555
