# generated using pymatgen
data_Ti17(NO4)6
_symmetry_space_group_name_H-M   'P 1'
_cell_length_a   10.39994800
_cell_length_b   10.71063744
_cell_length_c   11.29936822
_cell_angle_alpha   87.53686949
_cell_angle_beta   62.61063889
_cell_angle_gamma   84.74225714
_symmetry_Int_Tables_number   1
_chemical_formula_structural   Ti17(NO4)6
_chemical_formula_sum   'Ti34 N12 O48'
_cell_volume   1112.84272873
_cell_formula_units_Z   2
loop_
 _symmetry_equiv_pos_site_id
 _symmetry_equiv_pos_as_xyz
  1  'x, y, z'
loop_
 _atom_site_type_symbol
 _atom_site_label
 _atom_site_symmetry_multiplicity
 _atom_site_fract_x
 _atom_site_fract_y
 _atom_site_fract_z
 _atom_site_occupancy
  Ti  Ti0  1  0.24295100  0.87710800  0.92202900  1
  Ti  Ti1  1  0.93218100  0.78733500  0.07341700  1
  Ti  Ti2  1  0.73351600  0.87849100  0.92996300  1
  Ti  Ti3  1  0.74678300  0.78729600  0.44505200  1
  Ti  Ti4  1  0.12228000  0.89946300  0.24971000  1
  Ti  Ti5  1  0.91212200  0.87866700  0.57086400  1
  Ti  Ti6  1  0.40516500  0.55261700  0.92359400  1
  Ti  Ti7  1  0.57680900  0.55117400  0.57736500  1
  Ti  Ti8  1  0.44233600  0.78854200  0.05512800  1
  Ti  Ti9  1  0.25545900  0.78887000  0.42642000  1
  Ti  Ti10  1  0.41643800  0.87649400  0.57668600  1
  Ti  Ti11  1  0.62508500  0.89637600  0.25047200  1
  Ti  Ti12  1  0.78734200  0.56568000  0.25094100  1
  Ti  Ti13  1  0.04450600  0.76873700  0.74981700  1
  Ti  Ti14  1  0.28889200  0.56931000  0.24934700  1
  Ti  Ti15  1  0.91918000  0.45233300  0.42809800  1
  Ti  Ti16  1  0.08082000  0.54766700  0.57190200  1
  Ti  Ti17  1  0.71110800  0.43069000  0.75065300  1
  Ti  Ti18  1  0.09931500  0.45320000  0.07195000  1
  Ti  Ti19  1  0.90068500  0.54680000  0.92805000  1
  Ti  Ti20  1  0.74454100  0.21113000  0.57358000  1
  Ti  Ti21  1  0.95549400  0.23126300  0.25018300  1
  Ti  Ti22  1  0.37491500  0.10362400  0.74952800  1
  Ti  Ti23  1  0.58356200  0.12350600  0.42331400  1
  Ti  Ti24  1  0.59483500  0.44738300  0.07640600  1
  Ti  Ti25  1  0.42319100  0.44882600  0.42263500  1
  Ti  Ti26  1  0.55766400  0.21145800  0.94487200  1
  Ti  Ti27  1  0.21265800  0.43432000  0.74905900  1
  Ti  Ti28  1  0.08787800  0.12133300  0.42913600  1
  Ti  Ti29  1  0.26648400  0.12150900  0.07003700  1
  Ti  Ti30  1  0.25321700  0.21270400  0.55494800  1
  Ti  Ti31  1  0.87772000  0.10053700  0.75029000  1
  Ti  Ti32  1  0.06781900  0.21266500  0.92658300  1
  Ti  Ti33  1  0.75704900  0.12289200  0.07797100  1
  N  N0  1  0.38603800  0.91956500  0.74930800  1
  N  N1  1  0.76756200  0.75607300  0.25022200  1
  N  N2  1  0.90243900  0.91196000  0.75037600  1
  N  N3  1  0.26764800  0.75707200  0.24992400  1
  N  N4  1  0.56485100  0.55926700  0.75043200  1
  N  N5  1  0.93163300  0.42380500  0.25009800  1
  N  N6  1  0.06836700  0.57619500  0.74990200  1
  N  N7  1  0.73235200  0.24292800  0.75007600  1
  N  N8  1  0.43514900  0.44073300  0.24956800  1
  N  N9  1  0.09756100  0.08804000  0.24962400  1
  N  N10  1  0.23243800  0.24392700  0.74977800  1
  N  N11  1  0.61396200  0.08043500  0.25069200  1
  O  O0  1  0.62281100  0.93529100  0.43913300  1
  O  O1  1  0.74214100  0.81876100  0.61015200  1
  O  O2  1  0.53853200  0.72463900  0.55051500  1
  O  O3  1  0.93529400  0.84996800  0.37782200  1
  O  O4  1  0.31163700  0.93628100  0.06199200  1
  O  O5  1  0.06183700  0.85133000  0.11979900  1
  O  O6  1  0.33848900  0.72568700  0.94916200  1
  O  O7  1  0.12794800  0.93710000  0.43358800  1
  O  O8  1  0.60259800  0.81865600  0.89005600  1
  O  O9  1  0.39852800  0.48718900  0.62031800  1
  O  O10  1  0.26777400  0.48460600  0.88232100  1
  O  O11  1  0.97769600  0.60438100  0.06487400  1
  O  O12  1  0.56313400  0.84959300  0.12222400  1
  O  O13  1  0.04039900  0.72945100  0.56453400  1
  O  O14  1  0.85529200  0.72858400  0.93595400  1
  O  O15  1  0.10262100  0.81650100  0.88136200  1
  O  O16  1  0.79074400  0.60422600  0.43731800  1
  O  O17  1  0.81227600  0.93586800  0.06496600  1
  O  O18  1  0.43166500  0.85108600  0.38051100  1
  O  O19  1  0.23419300  0.81621500  0.61844700  1
  O  O20  1  0.28887900  0.60500200  0.43709500  1
  O  O21  1  0.71112100  0.39499800  0.56290500  1
  O  O22  1  0.09844800  0.51599000  0.38173500  1
  O  O23  1  0.47646100  0.60460700  0.06117700  1
  O  O24  1  0.90155200  0.48401000  0.61826500  1
  O  O25  1  0.22927000  0.51307200  0.12082700  1
  O  O26  1  0.77073000  0.48692800  0.87917300  1
  O  O27  1  0.52353900  0.39539300  0.93882300  1
  O  O28  1  0.89737900  0.18349900  0.11863800  1
  O  O29  1  0.18772400  0.06413200  0.93503400  1
  O  O30  1  0.14470800  0.27141600  0.06404600  1
  O  O31  1  0.43686600  0.15040700  0.87777600  1
  O  O32  1  0.76580700  0.18378500  0.38155300  1
  O  O33  1  0.95960100  0.27054900  0.43546600  1
  O  O34  1  0.60147200  0.51281100  0.37968200  1
  O  O35  1  0.73222600  0.51539400  0.11767900  1
  O  O36  1  0.20925600  0.39577400  0.56268200  1
  O  O37  1  0.56833500  0.14891400  0.61948900  1
  O  O38  1  0.02230400  0.39561900  0.93512600  1
  O  O39  1  0.68836300  0.06371900  0.93800800  1
  O  O40  1  0.87205200  0.06290000  0.56641200  1
  O  O41  1  0.39740200  0.18134400  0.10994400  1
  O  O42  1  0.66151100  0.27431300  0.05083800  1
  O  O43  1  0.25785900  0.18123900  0.38984800  1
  O  O44  1  0.06470600  0.15003200  0.62217800  1
  O  O45  1  0.46146800  0.27536100  0.44948500  1
  O  O46  1  0.93816300  0.14867000  0.88020100  1
  O  O47  1  0.37718900  0.06470900  0.56086700  1
loop_
_geom_bond_atom_site_label_1
_geom_bond_atom_site_label_2
_geom_bond_distance
_geom_bond_site_symmetry_2
N0 Ti10 1.897505 1_555
N0 Ti0 1.898884 1_555
N0 Ti22 1.964211 1_565
N1 Ti1 1.983679 1_555
N1 Ti11 2.010531 1_555
N1 Ti12 2.030782 1_555
N1 Ti3 2.148783 1_555
N2 Ti31 2.012585 1_565
N2 Ti2 2.026197 1_555
N2 Ti13 2.028069 1_655
N2 Ti5 2.029592 1_555
N3 Ti9 1.981700 1_555
N3 Ti14 2.002886 1_555
N3 Ti4 2.047440 1_555
N3 Ti8 2.151323 1_555
N4 Ti6 1.900385 1_555
N4 Ti7 1.906825 1_555
N4 Ti17 1.956900 1_555
N5 Ti15 1.990307 1_555
N5 Ti18 2.002156 1_655
N5 Ti12 2.032541 1_555
N5 Ti21 2.054435 1_555
N6 Ti16 1.990307 1_555
N6 Ti19 2.002156 1_455
N6 Ti27 2.032541 1_555
N6 Ti13 2.054435 1_555
N7 Ti20 1.981700 1_555
N7 Ti17 2.002886 1_555
N7 Ti31 2.047440 1_555
N7 Ti26 2.151323 1_555
N8 Ti24 1.900385 1_555
N8 Ti25 1.906825 1_555
N8 Ti14 1.956900 1_555
N9 Ti4 2.012585 1_545
N9 Ti29 2.026197 1_555
N9 Ti21 2.028069 1_455
N9 Ti28 2.029592 1_555
N10 Ti32 1.983679 1_555
N10 Ti22 2.010531 1_555
N10 Ti27 2.030782 1_555
N10 Ti30 2.148783 1_555
N11 Ti23 1.897505 1_555
N11 Ti33 1.898884 1_555
N11 Ti11 1.964211 1_545
O0 Ti3 1.968515 1_555
O0 Ti23 2.036610 1_565
O0 Ti10 2.124416 1_555
O0 Ti11 2.178721 1_555
O1 Ti5 1.787514 1_555
O1 Ti3 1.887932 1_555
O2 Ti7 1.905125 1_555
O2 Ti10 1.913769 1_555
O2 Ti3 2.093836 1_555
O3 Ti4 1.921228 1_655
O3 Ti3 1.923104 1_555
O3 Ti5 2.114436 1_555
O4 Ti8 1.968982 1_555
O4 Ti29 1.992526 1_565
O4 Ti0 2.149792 1_554
O4 Ti4 2.181727 1_555
O5 Ti1 1.847476 1_455
O5 Ti4 1.946562 1_555
O5 Ti0 2.188014 1_554
O6 Ti6 1.904365 1_555
O6 Ti0 1.911467 1_555
O6 Ti8 2.108457 1_556
O7 Ti9 1.952457 1_555
O7 Ti28 1.982415 1_565
O7 Ti4 2.161450 1_555
O7 Ti5 2.192374 1_455
O8 Ti2 1.793732 1_555
O8 Ti8 1.883482 1_556
O9 Ti7 1.875978 1_555
O9 Ti27 1.927696 1_555
O9 Ti25 2.180927 1_555
O10 Ti6 1.903368 1_555
O10 Ti27 1.951006 1_555
O10 Ti18 2.089458 1_556
O11 Ti1 1.969125 1_555
O11 Ti18 1.983610 1_655
O11 Ti19 2.173417 1_554
O11 Ti12 2.181100 1_555
O12 Ti8 1.910528 1_555
O12 Ti11 1.935649 1_555
O12 Ti2 2.110935 1_554
O13 Ti16 1.960308 1_555
O13 Ti5 1.967329 1_455
O13 Ti13 2.173303 1_555
O13 Ti9 2.192481 1_555
O14 Ti19 1.956894 1_555
O14 Ti2 1.970616 1_555
O14 Ti13 2.179502 1_655
O14 Ti1 2.183337 1_556
O15 Ti0 1.891755 1_555
O15 Ti13 1.945481 1_555
O15 Ti1 2.110200 1_456
O16 Ti3 1.968516 1_555
O16 Ti15 1.982424 1_555
O16 Ti7 2.166165 1_555
O16 Ti12 2.180058 1_555
O17 Ti1 1.956520 1_555
O17 Ti33 2.025059 1_565
O17 Ti11 2.163961 1_555
O17 Ti2 2.167496 1_554
O18 Ti9 1.841409 1_555
O18 Ti11 1.959287 1_555
O18 Ti10 2.175700 1_555
O19 Ti10 1.899214 1_555
O19 Ti13 1.943817 1_555
O19 Ti9 2.108052 1_555
O20 Ti9 1.976455 1_555
O20 Ti25 2.039904 1_555
O20 Ti16 2.123675 1_555
O20 Ti14 2.171648 1_555
O21 Ti20 1.976455 1_555
O21 Ti7 2.039904 1_555
O21 Ti15 2.123675 1_555
O21 Ti17 2.171648 1_555
O22 Ti15 1.875858 1_455
O22 Ti14 1.973466 1_555
O22 Ti16 2.110625 1_555
O23 Ti8 1.973416 1_555
O23 Ti24 2.042300 1_555
O23 Ti6 2.118322 1_554
O23 Ti14 2.172305 1_555
O24 Ti16 1.875858 1_655
O24 Ti17 1.973466 1_555
O24 Ti15 2.110625 1_555
O25 Ti18 1.849026 1_555
O25 Ti14 1.956601 1_555
O25 Ti6 2.191429 1_554
O26 Ti19 1.849026 1_555
O26 Ti17 1.956601 1_555
O26 Ti24 2.191429 1_556
O27 Ti26 1.973416 1_555
O27 Ti6 2.042300 1_555
O27 Ti24 2.118322 1_556
O27 Ti17 2.172305 1_555
O28 Ti33 1.891755 1_555
O28 Ti21 1.945481 1_555
O28 Ti32 2.110200 1_654
O29 Ti32 1.956520 1_555
O29 Ti0 2.025059 1_545
O29 Ti22 2.163961 1_555
O29 Ti29 2.167496 1_556
O30 Ti18 1.956894 1_555
O30 Ti29 1.970616 1_555
O30 Ti21 2.179502 1_455
O30 Ti32 2.183337 1_554
O31 Ti26 1.910528 1_555
O31 Ti22 1.935649 1_555
O31 Ti29 2.110935 1_556
O32 Ti23 1.899214 1_555
O32 Ti21 1.943817 1_555
O32 Ti20 2.108052 1_555
O33 Ti15 1.960308 1_555
O33 Ti28 1.967329 1_655
O33 Ti21 2.173303 1_555
O33 Ti20 2.192481 1_555
O34 Ti25 1.875978 1_555
O34 Ti12 1.927696 1_555
O34 Ti7 2.180927 1_555
O35 Ti24 1.903368 1_555
O35 Ti12 1.951006 1_555
O35 Ti19 2.089458 1_554
O36 Ti30 1.968516 1_555
O36 Ti16 1.982424 1_555
O36 Ti25 2.166165 1_555
O36 Ti27 2.180058 1_555
O37 Ti20 1.841409 1_555
O37 Ti22 1.959287 1_555
O37 Ti23 2.175700 1_555
O38 Ti32 1.969125 1_555
O38 Ti19 1.983610 1_455
O38 Ti18 2.173417 1_556
O38 Ti27 2.181100 1_555
O39 Ti26 1.968982 1_555
O39 Ti2 1.992526 1_545
O39 Ti33 2.149792 1_556
O39 Ti31 2.181727 1_555
O40 Ti20 1.952457 1_555
O40 Ti5 1.982415 1_545
O40 Ti31 2.161450 1_555
O40 Ti28 2.192374 1_655
O41 Ti29 1.793732 1_555
O41 Ti26 1.883482 1_554
O42 Ti24 1.904365 1_555
O42 Ti33 1.911467 1_555
O42 Ti26 2.108457 1_554
O43 Ti28 1.787514 1_555
O43 Ti30 1.887932 1_555
O44 Ti31 1.921228 1_455
O44 Ti30 1.923104 1_555
O44 Ti28 2.114436 1_555
O45 Ti25 1.905125 1_555
O45 Ti23 1.913769 1_555
O45 Ti30 2.093836 1_555
O46 Ti32 1.847476 1_655
O46 Ti31 1.946562 1_555
O46 Ti33 2.188014 1_556
O47 Ti30 1.968515 1_555
O47 Ti10 2.036610 1_545
O47 Ti23 2.124416 1_555
O47 Ti22 2.178721 1_555
