# generated using pymatgen
data_Li3SbS4
_symmetry_space_group_name_H-M   'P 1'
_cell_length_a   5.62778013
_cell_length_b   5.62778013
_cell_length_c   6.76562429
_cell_angle_alpha   65.42337495
_cell_angle_beta   65.42337495
_cell_angle_gamma   90.00000000
_symmetry_Int_Tables_number   1
_chemical_formula_structural   Li3SbS4
_chemical_formula_sum   'Li3 Sb1 S4'
_cell_volume   173.29404042
_cell_formula_units_Z   1
loop_
 _symmetry_equiv_pos_site_id
 _symmetry_equiv_pos_as_xyz
  1  'x, y, z'
loop_
 _atom_site_type_symbol
 _atom_site_label
 _atom_site_symmetry_multiplicity
 _atom_site_fract_x
 _atom_site_fract_y
 _atom_site_fract_z
 _atom_site_occupancy
  Li  Li0  1  0.50000000  0.50000000  -0.00000000  1
  Li  Li1  1  0.75000000  0.25000000  0.50000000  1
  Li  Li2  1  0.25000000  0.75000000  0.50000000  1
  Sb  Sb0  1  0.00000000  0.00000000  -0.00000000  1
  S  S0  1  0.63487341  0.11460646  0.25052113  1
  S  S1  1  0.11460646  0.63487341  0.25052113  1
  S  S2  1  0.36512659  0.36512659  0.74947887  1
  S  S3  1  0.88539354  0.88539354  0.74947887  1
loop_
_geom_bond_atom_site_label_1
_geom_bond_atom_site_label_2
_geom_bond_distance
_geom_bond_site_symmetry_2
Li0 S3 2.483010 1_554
Li0 S0 2.483014 1_555
Li0 S1 2.483014 1_555
Li0 S2 2.483017 1_554
Li1 S0 2.414289 1_555
Li1 S3 2.414292 1_545
Li1 S2 2.414293 1_555
Li1 S1 2.414296 1_655
Li2 S1 2.414289 1_555
Li2 S3 2.414292 1_455
Li2 S2 2.414293 1_555
Li2 S0 2.414296 1_565
S0 Sb0 2.350205 1_655
S1 Sb0 2.350205 1_565
S2 Sb0 2.350202 1_556
S3 Sb0 2.350208 1_666
