# generated using pymatgen
data_Rb14Na3Al17Si31O96
_symmetry_space_group_name_H-M   'P 1'
_cell_length_a   17.60675400
_cell_length_b   17.69619532
_cell_length_c   17.86837826
_cell_angle_alpha   60.48014613
_cell_angle_beta   60.58391090
_cell_angle_gamma   60.75125401
_symmetry_Int_Tables_number   1
_chemical_formula_structural   Rb14Na3Al17Si31O96
_chemical_formula_sum   'Rb14 Na3 Al17 Si31 O96'
_cell_volume   3990.42629023
_cell_formula_units_Z   1
loop_
 _symmetry_equiv_pos_site_id
 _symmetry_equiv_pos_as_xyz
  1  'x, y, z'
loop_
 _atom_site_type_symbol
 _atom_site_label
 _atom_site_symmetry_multiplicity
 _atom_site_fract_x
 _atom_site_fract_y
 _atom_site_fract_z
 _atom_site_occupancy
  Rb  Rb0  1  0.25693200  0.25653200  0.24992300  1
  Rb  Rb1  1  0.24985200  0.73456100  0.26103600  1
  Rb  Rb2  1  0.73814700  0.25421700  0.26338100  1
  Rb  Rb3  1  0.26372200  0.26526700  0.74328100  1
  Rb  Rb4  1  0.73977500  0.73841400  0.27493700  1
  Rb  Rb5  1  0.75226100  0.25369900  0.74227600  1
  Rb  Rb6  1  0.25662500  0.75327900  0.74297100  1
  Rb  Rb7  1  0.97732400  0.41326700  0.68500900  1
  Rb  Rb8  1  0.41674200  0.97929500  0.68538600  1
  Rb  Rb9  1  0.69968000  0.40732000  0.96198700  1
  Rb  Rb10  1  0.40947300  0.70290000  0.96289600  1
  Rb  Rb11  1  0.75186700  0.75316800  0.74346800  1
  Rb  Rb12  1  0.91205200  0.73898700  0.89429200  1
  Rb  Rb13  1  0.93383500  0.94678800  0.90269800  1
  Na  Na0  1  0.01452400  0.47795600  0.00181100  1
  Na  Na1  1  0.52771100  0.00736500  0.97408200  1
  Na  Na2  1  0.97755300  0.97676400  0.56897300  1
  Al  Al0  1  0.85086500  0.39955900  0.21958400  1
  Al  Al1  1  0.21742100  0.40081500  0.85507900  1
  Al  Al2  1  0.40131400  0.21599600  0.85451200  1
  Al  Al3  1  0.15391700  0.96928000  0.59771200  1
  Al  Al4  1  0.97085400  0.15299100  0.59711400  1
  Al  Al5  1  0.15355200  0.96543900  0.77662900  1
  Al  Al6  1  0.96602100  0.15364900  0.77605000  1
  Al  Al7  1  0.15037300  0.60250900  0.96420700  1
  Al  Al8  1  0.60116700  0.15139000  0.96492500  1
  Al  Al9  1  0.14736900  0.78294800  0.96415300  1
  Al  Al10  1  0.78257800  0.14790700  0.96378200  1
  Al  Al11  1  0.78038900  0.96505800  0.59950900  1
  Al  Al12  1  0.96793000  0.77821200  0.59811500  1
  Al  Al13  1  0.60325400  0.96138800  0.78204000  1
  Al  Al14  1  0.96227900  0.60075200  0.78119300  1
  Al  Al15  1  0.59938900  0.77824200  0.96961900  1
  Al  Al16  1  0.77755000  0.60006500  0.96937400  1
  Si  Si0  1  0.39168500  0.21022100  0.03476100  1
  Si  Si1  1  0.21213600  0.39216700  0.03491500  1
  Si  Si2  1  0.39623200  0.03429300  0.21285400  1
  Si  Si3  1  0.03374500  0.39947300  0.21006900  1
  Si  Si4  1  0.03652300  0.21669500  0.38685600  1
  Si  Si5  1  0.21487000  0.03824100  0.38721600  1
  Si  Si6  1  0.86729600  0.20556800  0.03611300  1
  Si  Si7  1  0.20470100  0.86776500  0.03740700  1
  Si  Si8  1  0.38843300  0.86345800  0.04074200  1
  Si  Si9  1  0.86070900  0.38964900  0.03860200  1
  Si  Si10  1  0.03003200  0.85734500  0.21420000  1
  Si  Si11  1  0.85664000  0.03204400  0.21413100  1
  Si  Si12  1  0.03609700  0.85924100  0.38690900  1
  Si  Si13  1  0.86058100  0.03334900  0.38861600  1
  Si  Si14  1  0.60226700  0.78701200  0.14478200  1
  Si  Si15  1  0.78099400  0.60602600  0.14701000  1
  Si  Si16  1  0.39636400  0.85524500  0.21853000  1
  Si  Si17  1  0.21452900  0.85855600  0.39227400  1
  Si  Si18  1  0.85659800  0.21285500  0.39546600  1
  Si  Si19  1  0.60373400  0.96668100  0.14438300  1
  Si  Si20  1  0.96467600  0.60551500  0.14378700  1
  Si  Si21  1  0.03364800  0.20896600  0.86524500  1
  Si  Si22  1  0.20924500  0.03324700  0.86522100  1
  Si  Si23  1  0.78368200  0.96422300  0.14453100  1
  Si  Si24  1  0.96315100  0.78482300  0.14363600  1
  Si  Si25  1  0.03092200  0.39257300  0.86486700  1
  Si  Si26  1  0.39269400  0.03191200  0.86516200  1
  Si  Si27  1  0.14692000  0.78543300  0.59903000  1
  Si  Si28  1  0.78706700  0.14188700  0.60188500  1
  Si  Si29  1  0.14446400  0.60845800  0.78103300  1
  Si  Si30  1  0.60851100  0.14168300  0.78228200  1
  O  O0  1  0.22456400  0.48954400  0.99866000  1
  O  O1  1  0.60541500  0.03369600  0.04253000  1
  O  O2  1  0.03146000  0.60914700  0.04065600  1
  O  O3  1  0.30720000  0.30609800  0.04599600  1
  O  O4  1  0.36891500  0.13698000  0.14183700  1
  O  O5  1  0.14030500  0.37374400  0.14216500  1
  O  O6  1  0.03113800  0.81375600  0.04196000  1
  O  O7  1  0.81172400  0.03225500  0.04282400  1
  O  O8  1  0.49982200  0.99967800  0.21762500  1
  O  O9  1  0.99957100  0.50266500  0.21664300  1
  O  O10  1  0.22160100  0.79282300  0.00005100  1
  O  O11  1  0.79243300  0.22108300  0.99895100  1
  O  O12  1  0.03900800  0.31899400  0.30828200  1
  O  O13  1  0.31824300  0.04060400  0.31043300  1
  O  O14  1  0.14197000  0.14283200  0.35448500  1
  O  O15  1  0.99507600  0.78534500  0.21690300  1
  O  O16  1  0.78463700  0.99638500  0.21698700  1
  O  O17  1  0.22349300  0.00907300  0.48246900  1
  O  O18  1  0.83967200  0.30655000  0.04110200  1
  O  O19  1  0.30320700  0.84068500  0.04930700  1
  O  O20  1  0.13373500  0.85280100  0.14187300  1
  O  O21  1  0.85260000  0.13522500  0.14118600  1
  O  O22  1  0.48027500  0.78525500  0.00635200  1
  O  O23  1  0.78740200  0.48358400  0.99683600  1
  O  O24  1  0.03990000  0.03873300  0.60400200  1
  O  O25  1  0.04310900  0.82658500  0.31010800  1
  O  O26  1  0.82779600  0.04250300  0.31050000  1
  O  O27  1  0.84390500  0.37117600  0.14225500  1
  O  O28  1  0.36880100  0.84986200  0.14628800  1
  O  O29  1  0.59719400  0.82046500  0.04557000  1
  O  O30  1  0.81421400  0.60675400  0.04454900  1
  O  O31  1  0.04746200  0.04730800  0.80283900  1
  O  O32  1  0.49905200  0.78253300  0.22255700  1
  O  O33  1  0.77273800  0.50891800  0.22453800  1
  O  O34  1  0.39522100  0.96012500  0.18339200  1
  O  O35  1  0.96421800  0.40387700  0.17256600  1
  O  O36  1  0.68187300  0.68877300  0.17341200  1
  O  O37  1  0.85682900  0.13768500  0.36495500  1
  O  O38  1  0.14316100  0.85541900  0.35962900  1
  O  O39  1  0.82397400  0.31277000  0.32308600  1
  O  O40  1  0.31837700  0.82681200  0.31762000  1
  O  O41  1  0.85618700  0.63304500  0.15347500  1
  O  O42  1  0.62686800  0.85941600  0.15602800  1
  O  O43  1  0.78831800  0.99961100  0.48442200  1
  O  O44  1  0.00638400  0.78516900  0.48277100  1
  O  O45  1  0.23139500  0.99097100  0.79262700  1
  O  O46  1  0.18617200  0.96501100  0.38177500  1
  O  O47  1  0.96400700  0.18339700  0.38669000  1
  O  O48  1  0.14040300  0.13978500  0.84925900  1
  O  O49  1  0.03570700  0.30938600  0.84394000  1
  O  O50  1  0.31013500  0.03368500  0.84491600  1
  O  O51  1  0.21765100  0.78367600  0.49226400  1
  O  O52  1  0.78259700  0.21218000  0.49705400  1
  O  O53  1  0.95514700  0.68254500  0.17868100  1
  O  O54  1  0.68068000  0.95604400  0.18010900  1
  O  O55  1  0.85515300  0.85670700  0.15508300  1
  O  O56  1  0.48541900  0.98638200  0.79453000  1
  O  O57  1  0.04406900  0.81893100  0.59743800  1
  O  O58  1  0.82156400  0.03949700  0.59996600  1
  O  O59  1  0.01119200  0.22360300  0.48206100  1
  O  O60  1  0.13419300  0.37912100  0.84703500  1
  O  O61  1  0.37446900  0.13579400  0.84797500  1
  O  O62  1  0.68618000  0.16722700  0.67959200  1
  O  O63  1  0.17241200  0.68413200  0.67669000  1
  O  O64  1  0.16211000  0.85606500  0.61797800  1
  O  O65  1  0.85786900  0.15810100  0.62020600  1
  O  O66  1  0.31886200  0.31840800  0.82515400  1
  O  O67  1  0.04095100  0.60390400  0.81486600  1
  O  O68  1  0.60243000  0.03916100  0.81831900  1
  O  O69  1  0.22216000  0.51010800  0.77946000  1
  O  O70  1  0.51035100  0.21949700  0.77646100  1
  O  O71  1  0.96066000  0.96146700  0.18616000  1
  O  O72  1  0.20311900  0.95443800  0.66964700  1
  O  O73  1  0.95576300  0.20243100  0.66885700  1
  O  O74  1  0.14131200  0.64117900  0.85464100  1
  O  O75  1  0.63545600  0.14363300  0.85709600  1
  O  O76  1  0.16985100  0.39228300  0.97221100  1
  O  O77  1  0.39539800  0.16785100  0.97073900  1
  O  O78  1  0.96960500  0.96683500  0.37256000  1
  O  O79  1  0.48801800  0.22263900  0.00454100  1
  O  O80  1  0.14632400  0.85773800  0.85679200  1
  O  O81  1  0.85830200  0.14556400  0.85693300  1
  O  O82  1  0.67071200  0.19226700  0.96642600  1
  O  O83  1  0.19101700  0.67116100  0.96760900  1
  O  O84  1  0.99120600  0.23133400  0.79234100  1
  O  O85  1  0.86052400  0.85743900  0.62645300  1
  O  O86  1  0.66969700  0.96501400  0.67131000  1
  O  O87  1  0.96566700  0.66848700  0.67086100  1
  O  O88  1  0.98308900  0.48514900  0.79511300  1
  O  O89  1  0.97380600  0.17032400  0.97317600  1
  O  O90  1  0.17094300  0.97340000  0.97344200  1
  O  O91  1  0.85544300  0.63577100  0.86208600  1
  O  O92  1  0.63095100  0.85230600  0.86097800  1
  O  O93  1  0.66345700  0.66458600  0.97971300  1
  O  O94  1  0.96821300  0.38688400  0.97325400  1
  O  O95  1  0.38689800  0.96837900  0.97413700  1
loop_
_geom_bond_atom_site_label_1
_geom_bond_atom_site_label_2
_geom_bond_distance
_geom_bond_site_symmetry_2
Na0 O76 2.318422 1_554
Na0 O94 2.454753 1_454
Na0 O35 2.520077 1_455
Na0 O2 2.903133 1_555
Na0 O67 2.914143 1_554
Na1 O68 2.318854 1_555
Na1 O1 2.532377 1_556
Na1 O77 2.645837 1_555
Na1 O29 2.735886 1_546
Na1 O95 2.879426 1_545
Na2 O58 2.283525 1_565
Na2 O24 2.308029 1_665
Na2 O57 2.328103 1_655
Al0 O39 1.747763 1_555
Al0 O27 1.756956 1_555
Al0 O33 1.758694 1_555
Al0 O35 1.770175 1_555
Al1 O66 1.699292 1_555
Al1 O69 1.744988 1_555
Al1 O60 1.768154 1_555
Al1 O76 1.787458 1_555
Al2 O66 1.705086 1_555
Al2 O70 1.742273 1_555
Al2 O61 1.767626 1_555
Al2 O77 1.783356 1_555
Al3 O72 1.735035 1_555
Al3 O24 1.748311 1_565
Al3 O17 1.781282 1_565
Al3 O64 1.794381 1_555
Al4 O73 1.738646 1_555
Al4 O24 1.755273 1_655
Al4 O65 1.786179 1_555
Al4 O59 1.787091 1_655
Al5 O31 1.723999 1_565
Al5 O72 1.736573 1_555
Al5 O80 1.751590 1_555
Al5 O45 1.811506 1_555
Al6 O31 1.725167 1_655
Al6 O73 1.733353 1_555
Al6 O81 1.753604 1_555
Al6 O84 1.813307 1_555
Al7 O83 1.719532 1_555
Al7 O0 1.762648 1_555
Al7 O74 1.790663 1_555
Al7 O2 1.836219 1_556
Al8 O82 1.714704 1_555
Al8 O79 1.760487 1_556
Al8 O75 1.769928 1_555
Al8 O1 1.835715 1_556
Al9 O80 1.714928 1_555
Al9 O83 1.717073 1_555
Al9 O6 1.811069 1_556
Al9 O10 1.818612 1_556
Al10 O82 1.712315 1_555
Al10 O81 1.716968 1_555
Al10 O11 1.797349 1_555
Al10 O7 1.812132 1_556
Al11 O85 1.728392 1_555
Al11 O86 1.728779 1_555
Al11 O43 1.784523 1_555
Al11 O58 1.791787 1_565
Al12 O85 1.722297 1_555
Al12 O87 1.731753 1_555
Al12 O44 1.783822 1_655
Al12 O57 1.798861 1_655
Al13 O86 1.721041 1_555
Al13 O92 1.739587 1_555
Al13 O68 1.779056 1_565
Al13 O56 1.815356 1_555
Al14 O87 1.718314 1_555
Al14 O91 1.756249 1_555
Al14 O67 1.791938 1_655
Al14 O88 1.799101 1_555
Al15 O92 1.714592 1_555
Al15 O93 1.724973 1_555
Al15 O22 1.821615 1_556
Al15 O29 1.822386 1_556
Al16 O93 1.724845 1_555
Al16 O91 1.739468 1_555
Al16 O23 1.804764 1_555
Al16 O30 1.821588 1_556
O0 Si1 1.601912 1_556
O1 Si19 1.604358 1_545
O2 Si20 1.615940 1_455
O2 Rb12 3.361241 1_454
O3 Si1 1.642462 1_555
O3 Si0 1.645505 1_555
O3 Rb0 3.044891 1_555
O4 Si2 1.617644 1_555
O4 Si0 1.676841 1_555
O4 Rb0 2.881506 1_555
O5 Si3 1.634940 1_555
O5 Si1 1.668765 1_555
O5 Rb0 2.830590 1_555
O6 Si24 1.594283 1_455
O6 Rb13 3.023698 1_454
O7 Si23 1.593510 1_545
O7 Rb13 2.906088 1_544
O8 Si2 1.648804 1_565
O8 Si19 1.660751 1_555
O9 Si20 1.656148 1_555
O9 Si3 1.666957 1_655
O10 Si7 1.607632 1_555
O10 Rb10 2.766734 1_554
O11 Si6 1.606280 1_556
O11 Rb9 2.760391 1_555
O12 Si3 1.638415 1_555
O12 Si4 1.662135 1_555
O12 Rb0 3.176854 1_555
O13 Si2 1.621199 1_555
O13 Si5 1.661827 1_555
O13 Rb0 3.159038 1_555
O14 Si5 1.662639 1_555
O14 Si4 1.675924 1_555
O14 Rb0 2.862966 1_555
O15 Si10 1.637370 1_655
O15 Si24 1.664266 1_555
O16 Si11 1.641470 1_565
O16 Si23 1.660498 1_555
O17 Si5 1.580459 1_555
O18 Si6 1.644058 1_555
O18 Si9 1.659197 1_555
O18 Rb9 2.810157 1_554
O18 Rb2 3.293454 1_555
O19 Si7 1.653045 1_555
O19 Si8 1.655916 1_555
O19 Rb10 2.871245 1_554
O19 Rb1 3.154947 1_555
O20 Si10 1.628343 1_555
O20 Si7 1.631210 1_555
O20 Rb1 2.965967 1_555
O21 Si11 1.629956 1_555
O21 Si6 1.635815 1_555
O21 Rb2 3.053574 1_555
O22 Si8 1.607090 1_555
O22 Rb10 2.849945 1_554
O23 Si9 1.616520 1_556
O23 Rb9 2.899033 1_555
O25 Si10 1.622344 1_555
O25 Si12 1.666669 1_555
O25 Rb1 3.024922 1_555
O26 Si11 1.618799 1_555
O26 Si13 1.668824 1_555
O26 Rb2 3.107238 1_555
O27 Si9 1.607578 1_555
O27 Rb2 2.797908 1_555
O28 Si16 1.640906 1_555
O28 Si8 1.651634 1_555
O28 Rb1 2.930588 1_555
O29 Si14 1.603365 1_555
O30 Si15 1.620612 1_555
O30 Rb12 2.975952 1_554
O31 Rb13 2.682104 1_445
O32 Si16 1.641004 1_555
O32 Si14 1.670783 1_555
O33 Si15 1.610467 1_555
O34 Si16 1.633046 1_555
O34 Si2 1.647123 1_565
O35 Si3 1.617024 1_655
O36 Si14 1.641727 1_555
O36 Si15 1.669500 1_555
O36 Rb4 3.060085 1_555
O37 Si13 1.652608 1_555
O37 Si18 1.665512 1_555
O37 Rb2 2.781960 1_555
O38 Si17 1.656002 1_555
O38 Si12 1.673587 1_555
O38 Rb1 2.782568 1_555
O39 Si18 1.616368 1_555
O39 Rb2 2.949289 1_555
O40 Si16 1.637862 1_555
O40 Si17 1.666436 1_555
O40 Rb1 3.145224 1_555
O41 Si20 1.662792 1_555
O41 Si15 1.678664 1_555
O41 Rb4 2.876080 1_555
O42 Si19 1.658552 1_555
O42 Si14 1.658676 1_555
O42 Rb4 2.925276 1_555
O43 Si13 1.581590 1_565
O44 Si12 1.582140 1_555
O45 Si22 1.602692 1_565
O45 Rb8 2.820064 1_555
O46 Si17 1.630330 1_555
O46 Si5 1.660231 1_565
O47 Si18 1.642736 1_555
O47 Si4 1.648634 1_655
O48 Si22 1.637539 1_555
O48 Si21 1.637640 1_555
O48 Rb3 3.124097 1_555
O49 Si21 1.639174 1_555
O49 Si25 1.644474 1_555
O49 Rb7 2.894318 1_455
O49 Rb3 3.345090 1_555
O50 Si22 1.632392 1_555
O50 Si26 1.644869 1_555
O50 Rb8 2.873616 1_545
O50 Rb3 3.407567 1_555
O51 Si17 1.625821 1_555
O51 Si27 1.696523 1_555
O52 Si18 1.631984 1_555
O52 Si28 1.677869 1_555
O53 Si24 1.653335 1_555
O53 Si20 1.669237 1_555
O53 Rb4 3.149686 1_555
O54 Si23 1.657505 1_555
O54 Si19 1.661402 1_555
O54 Rb4 3.189194 1_555
O55 Si23 1.667017 1_555
O55 Si24 1.669235 1_555
O55 Rb4 2.925645 1_555
O56 Si26 1.612464 1_565
O56 Rb8 2.826104 1_555
O57 Si27 1.617546 1_555
O58 Si28 1.618163 1_555
O59 Si4 1.585615 1_555
O60 Si25 1.595922 1_555
O60 Rb3 2.781188 1_555
O61 Si26 1.593960 1_555
O61 Rb3 2.746776 1_555
O62 Si28 1.642167 1_555
O62 Si30 1.662271 1_555
O62 Rb5 3.107842 1_555
O63 Si27 1.647658 1_555
O63 Si29 1.671492 1_555
O63 Rb6 3.166133 1_555
O64 Si27 1.606578 1_555
O64 Rb6 2.784879 1_555
O65 Si28 1.608244 1_555
O65 Rb5 2.766836 1_555
O66 Rb3 2.758633 1_555
O67 Si29 1.645236 1_555
O67 Rb12 2.785125 1_455
O68 Si30 1.639652 1_555
O69 Si29 1.607815 1_555
O70 Si30 1.613616 1_555
O71 Si10 1.621752 1_655
O71 Si11 1.626231 1_565
O72 Rb6 2.935161 1_555
O73 Rb5 2.959920 1_555
O74 Si29 1.647926 1_555
O74 Rb6 2.845066 1_555
O74 Rb12 3.370935 1_455
O75 Si30 1.642478 1_555
O75 Rb5 2.839748 1_555
O76 Si1 1.620263 1_556
O77 Si0 1.612146 1_556
O78 Si12 1.642280 1_655
O78 Si13 1.654195 1_565
O79 Si0 1.601343 1_555
O80 Rb6 2.764391 1_555
O80 Rb13 3.106624 1_455
O81 Rb5 2.783455 1_555
O81 Rb13 2.910833 1_545
O82 Rb5 3.297064 1_555
O83 Rb6 3.300809 1_555
O84 Si21 1.603460 1_655
O84 Rb7 2.776684 1_555
O85 Rb11 2.674856 1_555
O88 Si25 1.617801 1_655
O88 Rb7 2.878796 1_555
O89 Si6 1.626979 1_556
O89 Si21 1.644846 1_655
O90 Si7 1.621764 1_556
O90 Si22 1.647581 1_565
O91 Rb11 2.808792 1_555
O91 Rb12 2.835318 1_555
O92 Rb11 2.758300 1_555
O94 Si9 1.656287 1_556
O94 Si25 1.672126 1_655
O95 Si8 1.633852 1_556
O95 Si26 1.680955 1_565
