# generated using pymatgen
data_Ca5W3O14
_symmetry_space_group_name_H-M   'P 1'
_cell_length_a   10.52300300
_cell_length_b   10.53165400
_cell_length_c   10.65665500
_cell_angle_alpha   90.00000000
_cell_angle_beta   90.00000000
_cell_angle_gamma   90.00000000
_symmetry_Int_Tables_number   1
_chemical_formula_structural   Ca5W3O14
_chemical_formula_sum   'Ca20 W12 O56'
_cell_volume   1181.01981157
_cell_formula_units_Z   4
loop_
 _symmetry_equiv_pos_site_id
 _symmetry_equiv_pos_as_xyz
  1  'x, y, z'
loop_
 _atom_site_type_symbol
 _atom_site_label
 _atom_site_symmetry_multiplicity
 _atom_site_fract_x
 _atom_site_fract_y
 _atom_site_fract_z
 _atom_site_occupancy
  Ca  Ca0  1  0.50000000  0.00000000  0.00000000  1
  Ca  Ca1  1  0.00000000  0.50000000  0.00000000  1
  Ca  Ca2  1  0.77733100  0.74417900  0.00420700  1
  Ca  Ca3  1  0.27733100  0.75582100  0.00420700  1
  Ca  Ca4  1  0.74246600  0.48081100  0.23721400  1
  Ca  Ca5  1  0.24246600  0.01918900  0.23721400  1
  Ca  Ca6  1  0.24246600  0.51918900  0.26278600  1
  Ca  Ca7  1  0.74246600  0.98081100  0.26278600  1
  Ca  Ca8  1  0.77733100  0.24417900  0.49579300  1
  Ca  Ca9  1  0.27733100  0.25582100  0.49579300  1
  Ca  Ca10  1  0.50000000  0.50000000  0.50000000  1
  Ca  Ca11  1  0.00000000  0.00000000  0.50000000  1
  Ca  Ca12  1  0.72266900  0.74417900  0.50420700  1
  Ca  Ca13  1  0.22266900  0.75582100  0.50420700  1
  Ca  Ca14  1  0.25753400  0.01918900  0.73721400  1
  Ca  Ca15  1  0.75753400  0.48081100  0.73721400  1
  Ca  Ca16  1  0.75753400  0.98081100  0.76278600  1
  Ca  Ca17  1  0.25753400  0.51918900  0.76278600  1
  Ca  Ca18  1  0.22266900  0.25582100  0.99579300  1
  Ca  Ca19  1  0.72266900  0.24417900  0.99579300  1
  W  W0  1  0.00000000  0.00000000  0.00000000  1
  W  W1  1  0.50000000  0.50000000  0.00000000  1
  W  W2  1  0.99763900  0.25570500  0.24673000  1
  W  W3  1  0.49763900  0.24429500  0.24673000  1
  W  W4  1  0.99763900  0.75570500  0.25327000  1
  W  W5  1  0.49763900  0.74429500  0.25327000  1
  W  W6  1  0.50000000  0.00000000  0.50000000  1
  W  W7  1  0.00000000  0.50000000  0.50000000  1
  W  W8  1  0.00236100  0.24429500  0.74673000  1
  W  W9  1  0.50236100  0.25570500  0.74673000  1
  W  W10  1  0.00236100  0.74429500  0.75327000  1
  W  W11  1  0.50236100  0.75570500  0.75327000  1
  O  O0  1  0.66859300  0.55753800  0.01499900  1
  O  O1  1  0.16859300  0.94246200  0.01499900  1
  O  O2  1  0.55154000  0.37107900  0.12116600  1
  O  O3  1  0.05154000  0.12892100  0.12116600  1
  O  O4  1  0.93666500  0.88564600  0.13231800  1
  O  O5  1  0.43666500  0.61435400  0.13231800  1
  O  O6  1  0.86646500  0.32326100  0.13689900  1
  O  O7  1  0.36646500  0.17673900  0.13689900  1
  O  O8  1  0.63170400  0.81173000  0.15095300  1
  O  O9  1  0.13170400  0.68827000  0.15095300  1
  O  O10  1  0.61049700  0.12422000  0.16076100  1
  O  O11  1  0.11049700  0.37578000  0.16076100  1
  O  O12  1  0.88817400  0.63379500  0.16936200  1
  O  O13  1  0.38817400  0.86620500  0.16936200  1
  O  O14  1  0.38817400  0.36620500  0.33063800  1
  O  O15  1  0.88817400  0.13379500  0.33063800  1
  O  O16  1  0.11049700  0.87578000  0.33923900  1
  O  O17  1  0.61049700  0.62422000  0.33923900  1
  O  O18  1  0.13170400  0.18827000  0.34904700  1
  O  O19  1  0.63170400  0.31173000  0.34904700  1
  O  O20  1  0.36646500  0.67673900  0.36310100  1
  O  O21  1  0.86646500  0.82326100  0.36310100  1
  O  O22  1  0.93666500  0.38564600  0.36768200  1
  O  O23  1  0.43666500  0.11435400  0.36768200  1
  O  O24  1  0.55154000  0.87107900  0.37883400  1
  O  O25  1  0.05154000  0.62892100  0.37883400  1
  O  O26  1  0.16859300  0.44246200  0.48500100  1
  O  O27  1  0.66859300  0.05753800  0.48500100  1
  O  O28  1  0.83140700  0.55753800  0.51499900  1
  O  O29  1  0.33140700  0.94246200  0.51499900  1
  O  O30  1  0.94846000  0.37107900  0.62116600  1
  O  O31  1  0.44846000  0.12892100  0.62116600  1
  O  O32  1  0.56333500  0.88564600  0.63231800  1
  O  O33  1  0.06333500  0.61435400  0.63231800  1
  O  O34  1  0.63353500  0.32326100  0.63689900  1
  O  O35  1  0.13353500  0.17673900  0.63689900  1
  O  O36  1  0.86829600  0.81173000  0.65095300  1
  O  O37  1  0.36829600  0.68827000  0.65095300  1
  O  O38  1  0.38950300  0.37578000  0.66076100  1
  O  O39  1  0.88950300  0.12422000  0.66076100  1
  O  O40  1  0.61182600  0.63379500  0.66936200  1
  O  O41  1  0.11182600  0.86620500  0.66936200  1
  O  O42  1  0.11182600  0.36620500  0.83063800  1
  O  O43  1  0.61182600  0.13379500  0.83063800  1
  O  O44  1  0.38950300  0.87578000  0.83923900  1
  O  O45  1  0.88950300  0.62422000  0.83923900  1
  O  O46  1  0.86829600  0.31173000  0.84904700  1
  O  O47  1  0.36829600  0.18827000  0.84904700  1
  O  O48  1  0.63353500  0.82326100  0.86310100  1
  O  O49  1  0.13353500  0.67673900  0.86310100  1
  O  O50  1  0.56333500  0.38564600  0.86768200  1
  O  O51  1  0.06333500  0.11435400  0.86768200  1
  O  O52  1  0.94846000  0.87107900  0.87883400  1
  O  O53  1  0.44846000  0.62892100  0.87883400  1
  O  O54  1  0.83140700  0.05753800  0.98500100  1
  O  O55  1  0.33140700  0.44246200  0.98500100  1
loop_
_geom_bond_atom_site_label_1
_geom_bond_atom_site_label_2
_geom_bond_distance
_geom_bond_site_symmetry_2
Ca0 O10 2.449179 1_555
Ca0 O44 2.449179 1_544
Ca0 O13 2.574425 1_545
Ca0 O43 2.574425 1_554
Ca0 O48 2.750917 1_544
Ca0 O7 2.750917 1_555
Ca0 O8 2.905171 1_545
Ca0 O47 2.905171 1_554
Ca1 O11 2.449179 1_555
Ca1 O45 2.449179 1_454
Ca1 O42 2.574425 1_554
Ca1 O12 2.574425 1_455
Ca1 O6 2.750917 1_455
Ca1 O49 2.750917 1_554
Ca1 O9 2.905171 1_555
Ca1 O46 2.905171 1_454
Ca2 O0 2.277338 1_555
Ca2 O48 2.290088 1_554
Ca2 O8 2.302176 1_555
Ca2 O12 2.410303 1_555
Ca2 O45 2.465765 1_554
Ca2 O52 2.610372 1_554
Ca2 O4 2.625803 1_555
Ca3 O1 2.277338 1_555
Ca3 O49 2.290088 1_554
Ca3 O9 2.302176 1_555
Ca3 O13 2.410303 1_555
Ca3 O44 2.465765 1_554
Ca3 O53 2.610372 1_554
Ca3 O5 2.625803 1_555
Ca4 O17 2.322009 1_555
Ca4 O12 2.338736 1_555
Ca4 O6 2.366130 1_555
Ca4 O19 2.439203 1_555
Ca4 O0 2.620117 1_555
Ca4 O2 2.627066 1_555
Ca4 O22 2.667152 1_555
Ca5 O16 2.322009 1_545
Ca5 O13 2.338736 1_545
Ca5 O7 2.366130 1_555
Ca5 O18 2.439203 1_555
Ca5 O1 2.620117 1_545
Ca5 O3 2.627066 1_555
Ca5 O23 2.667152 1_555
Ca6 O11 2.322009 1_555
Ca6 O14 2.338736 1_555
Ca6 O20 2.366130 1_555
Ca6 O9 2.439203 1_555
Ca6 O26 2.620117 1_555
Ca6 O25 2.627066 1_555
Ca6 O5 2.667152 1_555
Ca7 O10 2.322009 1_565
Ca7 O15 2.338736 1_565
Ca7 O21 2.366130 1_555
Ca7 O8 2.439203 1_555
Ca7 O27 2.620117 1_565
Ca7 O24 2.627066 1_555
Ca7 O4 2.667152 1_555
Ca8 O27 2.277338 1_555
Ca8 O34 2.290088 1_555
Ca8 O19 2.302176 1_555
Ca8 O15 2.410303 1_555
Ca8 O39 2.465765 1_555
Ca8 O30 2.610372 1_555
Ca8 O22 2.625803 1_555
Ca9 O26 2.277338 1_555
Ca9 O35 2.290088 1_555
Ca9 O18 2.302176 1_555
Ca9 O14 2.410303 1_555
Ca9 O38 2.465765 1_555
Ca9 O31 2.610372 1_555
Ca9 O23 2.625803 1_555
Ca10 O17 2.449179 1_555
Ca10 O38 2.449179 1_555
Ca10 O14 2.574425 1_555
Ca10 O40 2.574425 1_555
Ca10 O34 2.750917 1_555
Ca10 O20 2.750917 1_555
Ca10 O37 2.905171 1_555
Ca10 O19 2.905171 1_555
Ca11 O16 2.449179 1_545
Ca11 O39 2.449179 1_455
Ca11 O41 2.574425 1_545
Ca11 O15 2.574425 1_455
Ca11 O21 2.750917 1_445
Ca11 O35 2.750917 1_555
Ca11 O36 2.905171 1_445
Ca11 O18 2.905171 1_555
Ca12 O28 2.277338 1_555
Ca12 O21 2.290088 1_555
Ca12 O36 2.302176 1_555
Ca12 O40 2.410303 1_555
Ca12 O17 2.465765 1_555
Ca12 O24 2.610372 1_555
Ca12 O32 2.625803 1_555
Ca13 O29 2.277338 1_555
Ca13 O20 2.290088 1_555
Ca13 O37 2.302176 1_555
Ca13 O41 2.410303 1_555
Ca13 O16 2.465765 1_555
Ca13 O25 2.610372 1_555
Ca13 O33 2.625803 1_555
Ca14 O44 2.322009 1_545
Ca14 O41 2.338736 1_545
Ca14 O35 2.366130 1_555
Ca14 O47 2.439203 1_555
Ca14 O29 2.620117 1_545
Ca14 O31 2.627066 1_555
Ca14 O51 2.667152 1_555
Ca15 O45 2.322009 1_555
Ca15 O40 2.338736 1_555
Ca15 O34 2.366130 1_555
Ca15 O46 2.439203 1_555
Ca15 O28 2.620117 1_555
Ca15 O30 2.627066 1_555
Ca15 O50 2.667152 1_555
Ca16 O39 2.322009 1_565
Ca16 O43 2.338736 1_565
Ca16 O48 2.366130 1_555
Ca16 O36 2.439203 1_555
Ca16 O54 2.620117 1_565
Ca16 O52 2.627066 1_555
Ca16 O32 2.667152 1_555
Ca17 O38 2.322009 1_555
Ca17 O42 2.338736 1_555
Ca17 O49 2.366130 1_555
Ca17 O37 2.439203 1_555
Ca17 O55 2.620117 1_555
Ca17 O53 2.627066 1_555
Ca17 O33 2.667152 1_555
Ca18 O55 2.277338 1_555
Ca18 O7 2.290088 1_556
Ca18 O47 2.302176 1_555
Ca18 O42 2.410303 1_555
Ca18 O11 2.465765 1_556
Ca18 O3 2.610372 1_556
Ca18 O51 2.625803 1_555
Ca19 O54 2.277338 1_555
Ca19 O6 2.290088 1_556
Ca19 O46 2.302176 1_555
Ca19 O43 2.410303 1_555
Ca19 O10 2.465765 1_556
Ca19 O2 2.610372 1_556
Ca19 O50 2.625803 1_555
O0 W1 1.881541 1_555
O1 W0 1.881541 1_565
O2 W1 1.950615 1_555
O2 W3 1.973597 1_555
O3 W0 1.950615 1_555
O3 W2 1.973597 1_455
O4 W0 1.970509 1_665
O4 W4 1.986414 1_555
O5 W1 1.970509 1_555
O5 W5 1.986414 1_555
O6 W2 1.944597 1_555
O7 W3 1.944597 1_555
O8 W5 1.919252 1_555
O9 W4 1.919252 1_455
O10 W3 1.961863 1_555
O11 W2 1.961863 1_455
O12 W4 1.942901 1_555
O13 W5 1.942901 1_555
O14 W3 1.942901 1_555
O15 W2 1.942901 1_555
O16 W4 1.961863 1_455
O17 W5 1.961863 1_555
O18 W2 1.919252 1_455
O19 W3 1.919252 1_555
O20 W5 1.944597 1_555
O21 W4 1.944597 1_555
O22 W7 1.970509 1_655
O22 W2 1.986414 1_555
O23 W6 1.970509 1_555
O23 W3 1.986414 1_555
O24 W6 1.950615 1_565
O24 W5 1.973597 1_555
O25 W7 1.950615 1_555
O25 W4 1.973597 1_455
O26 W7 1.881541 1_555
O27 W6 1.881541 1_555
O28 W7 1.881541 1_655
O29 W6 1.881541 1_565
O30 W7 1.950615 1_655
O30 W8 1.973597 1_655
O31 W6 1.950615 1_555
O31 W9 1.973597 1_555
O32 W6 1.970509 1_565
O32 W11 1.986414 1_555
O33 W7 1.970509 1_555
O33 W10 1.986414 1_555
O34 W9 1.944597 1_555
O35 W8 1.944597 1_555
O36 W10 1.919252 1_655
O37 W11 1.919252 1_555
O38 W9 1.961863 1_555
O39 W8 1.961863 1_655
O40 W11 1.942901 1_555
O41 W10 1.942901 1_555
O42 W8 1.942901 1_555
O43 W9 1.942901 1_555
O44 W11 1.961863 1_555
O45 W10 1.961863 1_655
O46 W8 1.919252 1_655
O47 W9 1.919252 1_555
O48 W11 1.944597 1_555
O49 W10 1.944597 1_555
O50 W1 1.970509 1_556
O50 W9 1.986414 1_555
O51 W0 1.970509 1_556
O51 W8 1.986414 1_555
O52 W0 1.950615 1_666
O52 W10 1.973597 1_655
O53 W1 1.950615 1_556
O53 W11 1.973597 1_555
O54 W0 1.881541 1_656
O55 W1 1.881541 1_556
