# generated using pymatgen
data_Nb2O5
_symmetry_space_group_name_H-M   'P 1'
_cell_length_a   9.93537735
_cell_length_b   9.64628495
_cell_length_c   5.31936257
_cell_angle_alpha   90.00000000
_cell_angle_beta   90.00000000
_cell_angle_gamma   90.00000000
_symmetry_Int_Tables_number   1
_chemical_formula_structural   Nb2O5
_chemical_formula_sum   'Nb8 O20'
_cell_volume   509.80494798
_cell_formula_units_Z   4
loop_
 _symmetry_equiv_pos_site_id
 _symmetry_equiv_pos_as_xyz
  1  'x, y, z'
loop_
 _atom_site_type_symbol
 _atom_site_label
 _atom_site_symmetry_multiplicity
 _atom_site_fract_x
 _atom_site_fract_y
 _atom_site_fract_z
 _atom_site_occupancy
  Nb  Nb0  1  0.03283971  0.71908460  0.86124542  1
  Nb  Nb1  1  0.15096969  0.40572306  0.13815952  1
  Nb  Nb2  1  0.34903031  0.59427694  0.63815952  1
  Nb  Nb3  1  0.46716029  0.28091540  0.36124542  1
  Nb  Nb4  1  0.53283971  0.78091540  0.13875458  1
  Nb  Nb5  1  0.65096969  0.09427694  0.86184048  1
  Nb  Nb6  1  0.84903031  0.90572306  0.36184048  1
  Nb  Nb7  1  0.96716029  0.21908460  0.63875458  1
  O  O0  1  0.01810829  0.53544090  0.97326141  1
  O  O1  1  0.98944012  0.84359705  0.11869473  1
  O  O2  1  0.07936782  0.24864063  0.90898361  1
  O  O3  1  0.22094303  0.54257388  0.35941303  1
  O  O4  1  0.21401285  0.73316262  0.76688536  1
  O  O5  1  0.28598715  0.26683738  0.26688536  1
  O  O6  1  0.27905697  0.45742612  0.85941303  1
  O  O7  1  0.42063218  0.75135937  0.40898361  1
  O  O8  1  0.51055988  0.15640295  0.61869473  1
  O  O9  1  0.48189171  0.46455910  0.47326141  1
  O  O10  1  0.51810829  0.96455910  0.02673859  1
  O  O11  1  0.48944012  0.65640295  0.88130527  1
  O  O12  1  0.57936782  0.25135937  0.09101639  1
  O  O13  1  0.72094303  0.95742612  0.64058697  1
  O  O14  1  0.71401285  0.76683738  0.23311464  1
  O  O15  1  0.78598715  0.23316262  0.73311464  1
  O  O16  1  0.77905697  0.04257388  0.14058697  1
  O  O17  1  0.92063218  0.74864063  0.59101639  1
  O  O18  1  0.01055988  0.34359705  0.38130527  1
  O  O19  1  0.98189171  0.03544090  0.52673859  1
loop_
_geom_bond_atom_site_label_1
_geom_bond_atom_site_label_2
_geom_bond_distance
_geom_bond_site_symmetry_2
Nb0 O17 1.841296 1_455
Nb0 O1 1.871888 1_456
Nb0 O4 1.873624 1_555
Nb0 O0 1.874727 1_555
Nb1 O3 1.900302 1_555
Nb1 O18 1.994510 1_555
Nb1 O5 2.015746 1_555
Nb1 O6 2.016631 1_554
Nb1 O0 2.019310 1_554
Nb1 O2 2.070804 1_554
Nb2 O6 1.900302 1_555
Nb2 O11 1.994510 1_555
Nb2 O4 2.015746 1_555
Nb2 O3 2.016631 1_555
Nb2 O9 2.019310 1_555
Nb2 O7 2.070804 1_555
Nb3 O12 1.841296 1_555
Nb3 O8 1.871888 1_555
Nb3 O5 1.873624 1_555
Nb3 O9 1.874727 1_555
Nb4 O7 1.841296 1_555
Nb4 O11 1.871888 1_554
Nb4 O14 1.873624 1_555
Nb4 O10 1.874727 1_555
Nb5 O13 1.900302 1_545
Nb5 O8 1.994510 1_555
Nb5 O15 2.015746 1_555
Nb5 O16 2.016631 1_556
Nb5 O10 2.019310 1_546
Nb5 O12 2.070804 1_556
Nb6 O16 1.900302 1_565
Nb6 O1 1.994510 1_555
Nb6 O14 2.015746 1_555
Nb6 O13 2.016631 1_555
Nb6 O19 2.019310 1_565
Nb6 O17 2.070804 1_555
Nb7 O2 1.841296 1_655
Nb7 O18 1.871888 1_655
Nb7 O15 1.873624 1_555
Nb7 O19 1.874727 1_555
