# generated using pymatgen
data_CoH9C4NO6
_symmetry_space_group_name_H-M   'P 1'
_cell_length_a   8.19455800
_cell_length_b   8.46925500
_cell_length_c   11.81090900
_cell_angle_alpha   90.00000000
_cell_angle_beta   90.00000000
_cell_angle_gamma   90.00000000
_symmetry_Int_Tables_number   1
_chemical_formula_structural   CoH9C4NO6
_chemical_formula_sum   'Co4 H36 C16 N4 O24'
_cell_volume   819.69835976
_cell_formula_units_Z   4
loop_
 _symmetry_equiv_pos_site_id
 _symmetry_equiv_pos_as_xyz
  1  'x, y, z'
loop_
 _atom_site_type_symbol
 _atom_site_label
 _atom_site_symmetry_multiplicity
 _atom_site_fract_x
 _atom_site_fract_y
 _atom_site_fract_z
 _atom_site_occupancy
  Co  Co0  1  0.50000000  0.50000000  0.50000000  1
  Co  Co1  1  0.00000000  0.00000000  0.00000000  1
  Co  Co2  1  0.50000000  0.50000000  0.00000000  1
  Co  Co3  1  0.00000000  0.00000000  0.50000000  1
  H  H0  1  0.51196800  0.14801800  0.17874900  1
  H  H1  1  0.98803200  0.64801800  0.32125100  1
  H  H2  1  0.48803200  0.85198200  0.67874900  1
  H  H3  1  0.01196800  0.35198200  0.82125100  1
  H  H4  1  0.48803200  0.85198200  0.82125100  1
  H  H5  1  0.01196800  0.35198200  0.67874900  1
  H  H6  1  0.51196800  0.14801800  0.32125100  1
  H  H7  1  0.98803200  0.64801800  0.17874900  1
  H  H8  1  0.34124400  0.09002900  0.25000000  1
  H  H9  1  0.15875600  0.59002900  0.25000000  1
  H  H10  1  0.65875600  0.90997100  0.75000000  1
  H  H11  1  0.84124400  0.40997100  0.75000000  1
  H  H12  1  0.22273800  0.72441800  0.45599400  1
  H  H13  1  0.27726200  0.22441800  0.04400600  1
  H  H14  1  0.77726200  0.27558200  0.95599400  1
  H  H15  1  0.72273800  0.77558200  0.54400600  1
  H  H16  1  0.77726200  0.27558200  0.54400600  1
  H  H17  1  0.72273800  0.77558200  0.95599400  1
  H  H18  1  0.22273800  0.72441800  0.04400600  1
  H  H19  1  0.27726200  0.22441800  0.45599400  1
  H  H20  1  0.57681100  0.48787500  0.25000000  1
  H  H21  1  0.92318900  0.98787500  0.25000000  1
  H  H22  1  0.42318900  0.51212500  0.75000000  1
  H  H23  1  0.07681100  0.01212500  0.75000000  1
  H  H24  1  0.47135000  0.86179100  0.17421500  1
  H  H25  1  0.02865000  0.36179100  0.32578500  1
  H  H26  1  0.52865000  0.13820900  0.67421500  1
  H  H27  1  0.97135000  0.63820900  0.82578500  1
  H  H28  1  0.52865000  0.13820900  0.82578500  1
  H  H29  1  0.97135000  0.63820900  0.67421500  1
  H  H30  1  0.47135000  0.86179100  0.32578500  1
  H  H31  1  0.02865000  0.36179100  0.17421500  1
  H  H32  1  0.65279300  0.91366700  0.25000000  1
  H  H33  1  0.84720700  0.41366700  0.25000000  1
  H  H34  1  0.34720700  0.08633300  0.75000000  1
  H  H35  1  0.15279300  0.58633300  0.75000000  1
  C  C0  1  0.28264100  0.78403900  0.52795500  1
  C  C1  1  0.21735900  0.28403900  0.97204500  1
  C  C2  1  0.71735900  0.21596100  0.02795500  1
  C  C3  1  0.78264100  0.71596100  0.47204500  1
  C  C4  1  0.71735900  0.21596100  0.47204500  1
  C  C5  1  0.78264100  0.71596100  0.02795500  1
  C  C6  1  0.28264100  0.78403900  0.97204500  1
  C  C7  1  0.21735900  0.28403900  0.52795500  1
  C  C8  1  0.44477900  0.51364500  0.25000000  1
  C  C9  1  0.05522100  0.01364500  0.25000000  1
  C  C10  1  0.55522100  0.48635500  0.75000000  1
  C  C11  1  0.94477900  0.98635500  0.75000000  1
  C  C12  1  0.51977000  0.91942400  0.25000000  1
  C  C13  1  0.98023000  0.41942400  0.25000000  1
  C  C14  1  0.48023000  0.08057600  0.75000000  1
  C  C15  1  0.01977000  0.58057600  0.75000000  1
  N  N0  1  0.46783700  0.08723600  0.25000000  1
  N  N1  1  0.03216300  0.58723600  0.25000000  1
  N  N2  1  0.53216300  0.91276400  0.75000000  1
  N  N3  1  0.96783700  0.41276400  0.75000000  1
  O  O0  1  0.41734700  0.72586700  0.56317900  1
  O  O1  1  0.08265300  0.22586700  0.93682100  1
  O  O2  1  0.58265300  0.27413300  0.06317900  1
  O  O3  1  0.91734700  0.77413300  0.43682100  1
  O  O4  1  0.58265300  0.27413300  0.43682100  1
  O  O5  1  0.91734700  0.77413300  0.06317900  1
  O  O6  1  0.41734700  0.72586700  0.93682100  1
  O  O7  1  0.08265300  0.22586700  0.56317900  1
  O  O8  1  0.21545700  0.90495900  0.57054900  1
  O  O9  1  0.28454300  0.40495900  0.92945100  1
  O  O10  1  0.78454300  0.09504100  0.07054900  1
  O  O11  1  0.71545700  0.59504100  0.42945100  1
  O  O12  1  0.78454300  0.09504100  0.42945100  1
  O  O13  1  0.71545700  0.59504100  0.07054900  1
  O  O14  1  0.21545700  0.90495900  0.92945100  1
  O  O15  1  0.28454300  0.40495900  0.57054900  1
  O  O16  1  0.37225200  0.52869000  0.34466200  1
  O  O17  1  0.12774800  0.02869000  0.15533800  1
  O  O18  1  0.62774800  0.47131000  0.84466200  1
  O  O19  1  0.87225200  0.97131000  0.65533800  1
  O  O20  1  0.62774800  0.47131000  0.65533800  1
  O  O21  1  0.87225200  0.97131000  0.84466200  1
  O  O22  1  0.37225200  0.52869000  0.15533800  1
  O  O23  1  0.12774800  0.02869000  0.34466200  1
loop_
_geom_bond_atom_site_label_1
_geom_bond_atom_site_label_2
_geom_bond_distance
_geom_bond_site_symmetry_2
Co0 O11 2.111744 1_555
Co0 O15 2.111744 1_555
Co0 O20 2.126258 1_555
Co0 O16 2.126258 1_555
Co0 O4 2.162138 1_555
Co0 O0 2.162138 1_555
Co1 O10 2.111744 1_455
Co1 O14 2.111744 1_544
Co1 O21 2.126258 1_444
Co1 O17 2.126258 1_555
Co1 O5 2.162138 1_445
Co1 O1 2.162138 1_554
Co2 O13 2.111744 1_555
Co2 O9 2.111744 1_554
Co2 O18 2.126258 1_554
Co2 O22 2.126258 1_555
Co2 O2 2.162138 1_555
Co2 O6 2.162138 1_554
Co3 O12 2.111744 1_455
Co3 O8 2.111744 1_545
Co3 O19 2.126258 1_445
Co3 O23 2.126258 1_555
Co3 O7 2.162138 1_555
Co3 O3 2.162138 1_445
H0 N0 1.050697 1_555
H1 N1 1.050697 1_655
H2 N2 1.050697 1_555
H3 N3 1.050697 1_455
H4 N2 1.050697 1_555
H5 N3 1.050697 1_455
H6 N0 1.050697 1_555
H7 N1 1.050697 1_655
H8 N0 1.037643 1_555
H9 N1 1.037643 1_555
H10 N2 1.037643 1_555
H11 N3 1.037643 1_555
C0 H12 1.103768 1_555
C0 O8 1.266873 1_555
C0 O0 1.278399 1_555
C1 H13 1.103768 1_556
C1 O9 1.266873 1_555
C1 O1 1.278399 1_555
C2 H14 1.103768 1_554
C2 O10 1.266873 1_555
C2 O2 1.278399 1_555
C3 H15 1.103768 1_555
C3 O11 1.266873 1_555
C3 O3 1.278399 1_555
C4 H16 1.103768 1_555
C4 O12 1.266873 1_555
C4 O4 1.278399 1_555
C5 H17 1.103768 1_554
C5 O13 1.266873 1_555
C5 O5 1.278399 1_555
C6 H18 1.103768 1_556
C6 O14 1.266873 1_555
C6 O6 1.278399 1_555
C7 H19 1.103768 1_555
C7 O15 1.266873 1_555
C7 O7 1.278399 1_555
C8 H20 1.103738 1_555
C8 O22 1.272589 1_555
C8 O16 1.272589 1_555
C9 H21 1.103738 1_445
C9 O17 1.272589 1_555
C9 O23 1.272589 1_555
C10 H22 1.103738 1_555
C10 O18 1.272589 1_555
C10 O20 1.272589 1_555
C11 H23 1.103738 1_665
C11 O21 1.272589 1_555
C11 O19 1.272589 1_555
C12 H32 1.091155 1_555
C12 H24 1.094016 1_555
C12 H30 1.094016 1_555
C12 N0 1.483590 1_565
C13 H33 1.091155 1_555
C13 H25 1.094016 1_655
C13 H31 1.094016 1_655
C13 N1 1.483590 1_655
C14 H34 1.091155 1_555
C14 H26 1.094016 1_555
C14 H28 1.094016 1_555
C14 N2 1.483590 1_545
C15 H35 1.091155 1_555
C15 H27 1.094016 1_455
C15 H29 1.094016 1_455
C15 N3 1.483590 1_455
