# generated using pymatgen
data_Li4Fe3Co7O20
_symmetry_space_group_name_H-M   'P 1'
_cell_length_a   20.04924598
_cell_length_b   2.98404900
_cell_length_c   6.19013308
_cell_angle_alpha   90.00000000
_cell_angle_beta   82.23061383
_cell_angle_gamma   90.00000000
_symmetry_Int_Tables_number   1
_chemical_formula_structural   Li4Fe3Co7O20
_chemical_formula_sum   'Li4 Fe3 Co7 O20'
_cell_volume   366.94319519
_cell_formula_units_Z   1
loop_
 _symmetry_equiv_pos_site_id
 _symmetry_equiv_pos_as_xyz
  1  'x, y, z'
loop_
 _atom_site_type_symbol
 _atom_site_label
 _atom_site_symmetry_multiplicity
 _atom_site_fract_x
 _atom_site_fract_y
 _atom_site_fract_z
 _atom_site_occupancy
  Li  Li0  1  0.10000000  0.50000000  0.20000000  1
  Li  Li1  1  0.39718500  0.00000000  0.79570400  1
  Li  Li2  1  0.60000000  0.00000000  0.20000000  1
  Li  Li3  1  0.80281500  0.00000000  0.60429600  1
  Fe  Fe0  1  0.39721000  0.00000000  0.30056600  1
  Fe  Fe1  1  0.60000000  0.00000000  0.70000000  1
  Fe  Fe2  1  0.80279000  0.00000000  0.09943400  1
  Co  Co0  1  0.99823500  0.00000000  0.52154100  1
  Co  Co1  1  0.10000000  0.50000000  0.70000000  1
  Co  Co2  1  0.20176500  0.00000000  0.87845900  1
  Co  Co3  1  0.29248700  0.50000000  0.11651600  1
  Co  Co4  1  0.49935200  0.50000000  0.49842500  1
  Co  Co5  1  0.70064800  0.50000000  0.90157500  1
  Co  Co6  1  0.90751300  0.50000000  0.28348400  1
  O  O0  1  0.00774300  0.50000000  0.72008300  1
  O  O1  1  0.09031400  0.00000000  0.48140300  1
  O  O2  1  0.10968600  0.00000000  0.91859700  1
  O  O3  1  0.20117100  0.50000000  0.09984900  1
  O  O4  1  0.19225700  0.50000000  0.67991700  1
  O  O5  1  0.29797500  0.00000000  0.30618800  1
  O  O6  1  0.29191700  0.00000000  0.88250700  1
  O  O7  1  0.38891800  0.50000000  0.07207700  1
  O  O8  1  0.40527300  0.50000000  0.52034100  1
  O  O9  1  0.49917100  0.00000000  0.29944100  1
  O  O10  1  0.49864200  0.00000000  0.69767300  1
  O  O11  1  0.59331400  0.50000000  0.47702500  1
  O  O12  1  0.60668600  0.50000000  0.92297500  1
  O  O13  1  0.70082900  0.00000000  0.10055900  1
  O  O14  1  0.70135800  0.00000000  0.70232700  1
  O  O15  1  0.81108200  0.50000000  0.32792300  1
  O  O16  1  0.79472700  0.50000000  0.87965900  1
  O  O17  1  0.90202500  0.00000000  0.09381200  1
  O  O18  1  0.90808300  0.00000000  0.51749300  1
  O  O19  1  0.99882900  0.50000000  0.30015100  1
loop_
_geom_bond_atom_site_label_1
_geom_bond_atom_site_label_2
_geom_bond_distance
_geom_bond_site_symmetry_2
Li0 O3 2.039303 1_555
Li0 O19 2.039303 1_455
Li0 O1 2.281815 1_555
Li0 O1 2.281815 1_565
Li0 O2 2.281815 1_564
Li0 O2 2.281815 1_554
Li1 O10 2.042599 1_555
Li1 O6 2.106299 1_555
Li1 O8 2.254581 1_545
Li1 O8 2.254581 1_555
Li1 O7 2.259144 1_556
Li1 O7 2.259144 1_546
Li2 O13 2.032021 1_555
Li2 O9 2.032021 1_555
Li2 O11 2.263309 1_555
Li2 O11 2.263309 1_545
Li2 O12 2.263309 1_554
Li2 O12 2.263309 1_544
Li3 O14 2.042599 1_555
Li3 O18 2.106299 1_555
Li3 O16 2.254581 1_545
Li3 O16 2.254581 1_555
Li3 O15 2.259144 1_545
Li3 O15 2.259144 1_555
Fe0 O5 1.985182 1_555
Fe0 O8 2.040225 1_545
Fe0 O8 2.040225 1_555
Fe0 O9 2.043311 1_555
Fe0 O7 2.077935 1_555
Fe0 O7 2.077935 1_545
Fe1 O14 2.034149 1_555
Fe1 O10 2.034149 1_555
Fe1 O12 2.049197 1_545
Fe1 O12 2.049197 1_555
Fe1 O11 2.049197 1_555
Fe1 O11 2.049197 1_545
Fe2 O17 1.985182 1_555
Fe2 O16 2.040225 1_544
Fe2 O16 2.040225 1_554
Fe2 O13 2.043311 1_555
Fe2 O15 2.077935 1_545
Fe2 O15 2.077935 1_555
Co0 O18 1.811037 1_555
Co0 O1 1.829168 1_655
Co0 O0 1.958638 1_645
Co0 O0 1.958638 1_655
Co0 O19 2.024834 1_545
Co0 O19 2.024834 1_555
Co1 O4 1.837012 1_555
Co1 O0 1.837012 1_555
Co1 O2 2.041053 1_555
Co1 O2 2.041053 1_565
Co1 O1 2.041053 1_555
Co1 O1 2.041053 1_565
Co2 O6 1.811037 1_555
Co2 O2 1.829168 1_555
Co2 O4 1.958638 1_545
Co2 O4 1.958638 1_555
Co2 O3 2.024834 1_546
Co2 O3 2.024834 1_556
Co3 O3 1.847594 1_555
Co3 O5 1.910935 1_555
Co3 O5 1.910935 1_565
Co3 O7 1.915670 1_555
Co3 O6 2.080632 1_564
Co3 O6 2.080632 1_554
Co4 O11 1.870570 1_555
Co4 O8 1.872704 1_555
Co4 O10 1.934631 1_555
Co4 O10 1.934631 1_565
Co4 O9 1.935080 1_555
Co4 O9 1.935080 1_565
Co5 O12 1.870570 1_555
Co5 O16 1.872704 1_555
Co5 O14 1.934631 1_555
Co5 O14 1.934631 1_565
Co5 O13 1.935080 1_556
Co5 O13 1.935080 1_566
Co6 O19 1.847594 1_555
Co6 O17 1.910935 1_565
Co6 O17 1.910935 1_555
Co6 O15 1.915670 1_555
Co6 O18 2.080632 1_555
Co6 O18 2.080632 1_565
