# generated using pymatgen
data_Lu(AlGe)2
_symmetry_space_group_name_H-M   'P 1'
_cell_length_a   4.21867072
_cell_length_b   4.21867072
_cell_length_c   6.45821358
_cell_angle_alpha   90.00000000
_cell_angle_beta   90.00000000
_cell_angle_gamma   120.00000003
_symmetry_Int_Tables_number   1
_chemical_formula_structural   Lu(AlGe)2
_chemical_formula_sum   'Lu1 Al2 Ge2'
_cell_volume   99.53923351
_cell_formula_units_Z   1
loop_
 _symmetry_equiv_pos_site_id
 _symmetry_equiv_pos_as_xyz
  1  'x, y, z'
loop_
 _atom_site_type_symbol
 _atom_site_label
 _atom_site_symmetry_multiplicity
 _atom_site_fract_x
 _atom_site_fract_y
 _atom_site_fract_z
 _atom_site_occupancy
  Lu  Lu0  1  0.00000000  0.00000000  0.00000000  1
  Al  Al0  1  0.66666700  0.33333300  0.35198668  1
  Al  Al1  1  0.33333300  0.66666700  0.64801332  1
  Ge  Ge0  1  0.66666700  0.33333300  0.74695715  1
  Ge  Ge1  1  0.33333300  0.66666700  0.25304285  1
loop_
_geom_bond_atom_site_label_1
_geom_bond_atom_site_label_2
_geom_bond_distance
_geom_bond_site_symmetry_2
Al0 Ge1 2.518075 1_545
Al0 Ge1 2.518075 1_655
Al0 Ge1 2.518082 1_555
Al0 Ge0 2.550804 1_555
Al1 Ge0 2.518075 1_565
Al1 Ge0 2.518075 1_455
Al1 Ge0 2.518082 1_555
Al1 Ge1 2.550804 1_555
Ge0 Lu0 2.933088 1_656
Ge0 Lu0 2.933091 1_666
Ge0 Lu0 2.933091 1_556
Ge1 Lu0 2.933088 1_565
Ge1 Lu0 2.933091 1_555
Ge1 Lu0 2.933091 1_665
