# generated using pymatgen
data_LiCu2F5
_symmetry_space_group_name_H-M   'P 1'
_cell_length_a   10.03034800
_cell_length_b   10.03034800
_cell_length_c   12.28769200
_cell_angle_alpha   90.00000000
_cell_angle_beta   90.00000000
_cell_angle_gamma   90.00000000
_symmetry_Int_Tables_number   1
_chemical_formula_structural   LiCu2F5
_chemical_formula_sum   'Li8 Cu16 F40'
_cell_volume   1236.23865451
_cell_formula_units_Z   8
loop_
 _symmetry_equiv_pos_site_id
 _symmetry_equiv_pos_as_xyz
  1  'x, y, z'
loop_
 _atom_site_type_symbol
 _atom_site_label
 _atom_site_symmetry_multiplicity
 _atom_site_fract_x
 _atom_site_fract_y
 _atom_site_fract_z
 _atom_site_occupancy
  Li  Li0  1  0.25000000  0.25000000  0.25000000  1
  Li  Li1  1  0.25000000  0.25000000  0.00000000  1
  Li  Li2  1  0.25000000  0.25000000  0.50000000  1
  Li  Li3  1  0.25000000  0.25000000  0.75000000  1
  Li  Li4  1  0.75000000  0.75000000  0.00000000  1
  Li  Li5  1  0.75000000  0.75000000  0.25000000  1
  Li  Li6  1  0.75000000  0.75000000  0.50000000  1
  Li  Li7  1  0.75000000  0.75000000  0.75000000  1
  Cu  Cu0  1  0.03134000  0.04830100  0.39155500  1
  Cu  Cu1  1  0.03134000  0.45169900  0.60844500  1
  Cu  Cu2  1  0.04830100  0.03134000  0.10844500  1
  Cu  Cu3  1  0.04830100  0.46866000  0.89155500  1
  Cu  Cu4  1  0.45169900  0.46866000  0.10844500  1
  Cu  Cu5  1  0.45169900  0.03134000  0.89155500  1
  Cu  Cu6  1  0.46866000  0.45169900  0.39155500  1
  Cu  Cu7  1  0.46866000  0.04830100  0.60844500  1
  Cu  Cu8  1  0.53134000  0.95169900  0.39155500  1
  Cu  Cu9  1  0.53134000  0.54830100  0.60844500  1
  Cu  Cu10  1  0.54830100  0.53134000  0.89155500  1
  Cu  Cu11  1  0.54830100  0.96866000  0.10844500  1
  Cu  Cu12  1  0.95169900  0.96866000  0.89155500  1
  Cu  Cu13  1  0.95169900  0.53134000  0.10844500  1
  Cu  Cu14  1  0.96866000  0.54830100  0.39155500  1
  Cu  Cu15  1  0.96866000  0.95169900  0.60844500  1
  F  F0  1  0.01315000  0.01315000  0.75000000  1
  F  F1  1  0.01315000  0.48685000  0.25000000  1
  F  F2  1  0.05542700  0.39616000  0.03788200  1
  F  F3  1  0.05542700  0.10384000  0.96211800  1
  F  F4  1  0.10384000  0.05542700  0.53788200  1
  F  F5  1  0.10384000  0.44457300  0.46211800  1
  F  F6  1  0.13107600  0.19680300  0.35965800  1
  F  F7  1  0.13107600  0.30319700  0.64034200  1
  F  F8  1  0.19680300  0.13107600  0.14034200  1
  F  F9  1  0.19680300  0.36892400  0.85965800  1
  F  F10  1  0.30319700  0.13107600  0.85965800  1
  F  F11  1  0.30319700  0.36892400  0.14034200  1
  F  F12  1  0.36892400  0.19680300  0.64034200  1
  F  F13  1  0.36892400  0.30319700  0.35965800  1
  F  F14  1  0.39616000  0.05542700  0.46211800  1
  F  F15  1  0.39616000  0.44457300  0.53788200  1
  F  F16  1  0.44457300  0.10384000  0.03788200  1
  F  F17  1  0.44457300  0.39616000  0.96211800  1
  F  F18  1  0.48685000  0.01315000  0.25000000  1
  F  F19  1  0.48685000  0.48685000  0.75000000  1
  F  F20  1  0.51315000  0.51315000  0.25000000  1
  F  F21  1  0.51315000  0.98685000  0.75000000  1
  F  F22  1  0.55542700  0.60384000  0.03788200  1
  F  F23  1  0.55542700  0.89616000  0.96211800  1
  F  F24  1  0.60384000  0.55542700  0.46211800  1
  F  F25  1  0.60384000  0.94457300  0.53788200  1
  F  F26  1  0.63107600  0.69680300  0.64034200  1
  F  F27  1  0.63107600  0.80319700  0.35965800  1
  F  F28  1  0.69680300  0.63107600  0.85965800  1
  F  F29  1  0.69680300  0.86892400  0.14034200  1
  F  F30  1  0.80319700  0.63107600  0.14034200  1
  F  F31  1  0.80319700  0.86892400  0.85965800  1
  F  F32  1  0.86892400  0.69680300  0.35965800  1
  F  F33  1  0.86892400  0.80319700  0.64034200  1
  F  F34  1  0.89616000  0.55542700  0.53788200  1
  F  F35  1  0.89616000  0.94457300  0.46211800  1
  F  F36  1  0.94457300  0.60384000  0.96211800  1
  F  F37  1  0.94457300  0.89616000  0.03788200  1
  F  F38  1  0.98685000  0.51315000  0.75000000  1
  F  F39  1  0.98685000  0.98685000  0.25000000  1
loop_
_geom_bond_atom_site_label_1
_geom_bond_atom_site_label_2
_geom_bond_distance
_geom_bond_site_symmetry_2
Cu0 F6 1.836595 1_555
Cu0 F39 1.898556 1_445
Cu0 F35 1.916442 1_445
Cu0 F4 1.940827 1_555
Cu1 F7 1.836595 1_555
Cu1 F38 1.898556 1_455
Cu1 F34 1.916442 1_455
Cu1 F5 1.940827 1_555
Cu2 F8 1.836595 1_555
Cu2 F39 1.898556 1_445
Cu2 F37 1.916442 1_445
Cu2 F3 1.940827 1_554
Cu3 F9 1.836595 1_555
Cu3 F38 1.898556 1_455
Cu3 F36 1.916442 1_455
Cu3 F2 1.940827 1_556
Cu4 F11 1.836595 1_555
Cu4 F20 1.898556 1_555
Cu4 F22 1.916442 1_555
Cu4 F17 1.940827 1_554
Cu5 F10 1.836595 1_555
Cu5 F21 1.898556 1_545
Cu5 F23 1.916442 1_545
Cu5 F16 1.940827 1_556
Cu6 F13 1.836595 1_555
Cu6 F20 1.898556 1_555
Cu6 F24 1.916442 1_555
Cu6 F15 1.940827 1_555
Cu7 F12 1.836595 1_555
Cu7 F21 1.898556 1_545
Cu7 F25 1.916442 1_545
Cu7 F14 1.940827 1_555
Cu8 F27 1.836595 1_555
Cu8 F18 1.898556 1_565
Cu8 F14 1.916442 1_565
Cu8 F25 1.940827 1_555
Cu9 F26 1.836595 1_555
Cu9 F19 1.898556 1_555
Cu9 F15 1.916442 1_555
Cu9 F24 1.940827 1_555
Cu10 F28 1.836595 1_555
Cu10 F19 1.898556 1_555
Cu10 F17 1.916442 1_555
Cu10 F22 1.940827 1_556
Cu11 F29 1.836595 1_555
Cu11 F18 1.898556 1_565
Cu11 F16 1.916442 1_565
Cu11 F23 1.940827 1_554
Cu12 F31 1.836595 1_555
Cu12 F0 1.898556 1_665
Cu12 F3 1.916442 1_665
Cu12 F37 1.940827 1_556
Cu13 F30 1.836595 1_555
Cu13 F1 1.898556 1_655
Cu13 F2 1.916442 1_655
Cu13 F36 1.940827 1_554
Cu14 F32 1.836595 1_555
Cu14 F1 1.898556 1_655
Cu14 F5 1.916442 1_655
Cu14 F34 1.940827 1_555
Cu15 F33 1.836595 1_555
Cu15 F0 1.898556 1_665
Cu15 F4 1.916442 1_665
Cu15 F35 1.940827 1_555
F2 Li1 2.484917 1_555
F3 Li1 2.484917 1_556
F4 Li2 2.484917 1_555
F5 Li2 2.484917 1_555
F6 Li0 1.877020 1_555
F6 Li2 2.163661 1_555
F7 Li3 1.877020 1_555
F7 Li2 2.163661 1_555
F8 Li0 1.877020 1_555
F8 Li1 2.163661 1_555
F9 Li3 1.877020 1_555
F9 Li1 2.163661 1_556
F10 Li3 1.877020 1_555
F10 Li1 2.163661 1_556
F11 Li0 1.877020 1_555
F11 Li1 2.163661 1_555
F12 Li3 1.877020 1_555
F12 Li2 2.163661 1_555
F13 Li0 1.877020 1_555
F13 Li2 2.163661 1_555
F14 Li2 2.484917 1_555
F15 Li2 2.484917 1_555
F16 Li1 2.484917 1_555
F17 Li1 2.484917 1_556
F22 Li4 2.484917 1_555
F23 Li4 2.484917 1_556
F24 Li6 2.484917 1_555
F25 Li6 2.484917 1_555
F26 Li7 1.877020 1_555
F26 Li6 2.163661 1_555
F27 Li5 1.877020 1_555
F27 Li6 2.163661 1_555
F28 Li7 1.877020 1_555
F28 Li4 2.163661 1_556
F29 Li5 1.877020 1_555
F29 Li4 2.163661 1_555
F30 Li5 1.877020 1_555
F30 Li4 2.163661 1_555
F31 Li7 1.877020 1_555
F31 Li4 2.163661 1_556
F32 Li5 1.877020 1_555
F32 Li6 2.163661 1_555
F33 Li7 1.877020 1_555
F33 Li6 2.163661 1_555
F34 Li6 2.484917 1_555
F35 Li6 2.484917 1_555
F36 Li4 2.484917 1_556
F37 Li4 2.484917 1_555
