# generated using pymatgen
data_Li3FeCo3O8
_symmetry_space_group_name_H-M   'P 1'
_cell_length_a   5.87373055
_cell_length_b   5.87373058
_cell_length_c   5.92976573
_cell_angle_alpha   119.75054157
_cell_angle_beta   90.59162426
_cell_angle_gamma   59.37177167
_symmetry_Int_Tables_number   1
_chemical_formula_structural   Li3FeCo3O8
_chemical_formula_sum   'Li3 Fe1 Co3 O8'
_cell_volume   144.56233557
_cell_formula_units_Z   1
loop_
 _symmetry_equiv_pos_site_id
 _symmetry_equiv_pos_as_xyz
  1  'x, y, z'
loop_
 _atom_site_type_symbol
 _atom_site_label
 _atom_site_symmetry_multiplicity
 _atom_site_fract_x
 _atom_site_fract_y
 _atom_site_fract_z
 _atom_site_occupancy
  Li  Li0  1  0.00000000  0.00000000  0.50000000  1
  Li  Li1  1  0.50000000  0.00000000  0.50000000  1
  Li  Li2  1  0.50000000  0.50000000  0.50000000  1
  Fe  Fe0  1  0.00000000  0.00000000  0.00000000  1
  Co  Co0  1  0.00000000  0.50000000  0.00000000  1
  Co  Co1  1  0.50000000  0.00000000  0.00000000  1
  Co  Co2  1  0.50000000  0.50000000  0.00000000  1
  O  O0  1  0.24624200  0.02279400  0.77655200  1
  O  O1  1  0.27653600  0.48739800  0.21086400  1
  O  O2  1  0.25866600  0.51257500  0.78085200  1
  O  O3  1  0.73172300  0.03951800  0.78085200  1
  O  O4  1  0.26827700  0.96048200  0.21914800  1
  O  O5  1  0.74133400  0.48742500  0.21914800  1
  O  O6  1  0.72346400  0.51260200  0.78913600  1
  O  O7  1  0.75375800  0.97720600  0.22344800  1
loop_
_geom_bond_atom_site_label_1
_geom_bond_atom_site_label_2
_geom_bond_distance
_geom_bond_site_symmetry_2
Li0 O1 2.143469 1_545
Li0 O6 2.143469 1_455
Li0 O4 2.146707 1_545
Li0 O3 2.146707 1_455
Li0 O7 2.174752 1_445
Li0 O0 2.174752 1_555
Li1 O7 2.134950 1_545
Li1 O0 2.134950 1_555
Li1 O3 2.138078 1_555
Li1 O4 2.138078 1_545
Li1 O5 2.138078 1_545
Li1 O2 2.138078 1_555
Li2 O6 2.143461 1_555
Li2 O1 2.143461 1_555
Li2 O5 2.146707 1_555
Li2 O2 2.146707 1_555
Li2 O7 2.174752 1_545
Li2 O0 2.174752 1_565
Fe0 O3 2.027326 1_454
Fe0 O4 2.027326 1_545
Fe0 O5 2.027326 1_455
Fe0 O2 2.027326 1_544
Fe0 O7 2.068438 1_445
Fe0 O0 2.068438 1_554
Co0 O0 1.981687 1_554
Co0 O7 1.981687 1_455
Co0 O6 2.033387 1_454
Co0 O1 2.033387 1_555
Co0 O5 2.062256 1_455
Co0 O2 2.062256 1_554
Co1 O0 1.981687 1_554
Co1 O7 1.981687 1_545
Co1 O1 2.033379 1_555
Co1 O6 2.033379 1_544
Co1 O3 2.062256 1_554
Co1 O4 2.062256 1_545
Co2 O1 1.875231 1_555
Co2 O6 1.875231 1_554
Co2 O2 1.911563 1_554
Co2 O5 1.911563 1_555
Co2 O4 1.911563 1_555
Co2 O3 1.911563 1_554
