# generated using pymatgen
data_Li2Cr3WO8
_symmetry_space_group_name_H-M   'P 1'
_cell_length_a   8.55303356
_cell_length_b   8.53284815
_cell_length_c   8.54068084
_cell_angle_alpha   90.13260985
_cell_angle_beta   90.01964377
_cell_angle_gamma   90.06631878
_symmetry_Int_Tables_number   1
_chemical_formula_structural   Li2Cr3WO8
_chemical_formula_sum   'Li8 Cr12 W4 O32'
_cell_volume   623.31159497
_cell_formula_units_Z   4
loop_
 _symmetry_equiv_pos_site_id
 _symmetry_equiv_pos_as_xyz
  1  'x, y, z'
loop_
 _atom_site_type_symbol
 _atom_site_label
 _atom_site_symmetry_multiplicity
 _atom_site_fract_x
 _atom_site_fract_y
 _atom_site_fract_z
 _atom_site_occupancy
  Li  Li0  1  0.99470000  0.99383800  0.99364300  1
  Li  Li1  1  0.25530600  0.25651700  0.25554000  1
  Li  Li2  1  0.24315400  0.74348800  0.75638800  1
  Li  Li3  1  0.50624300  0.00604500  0.49399000  1
  Li  Li4  1  0.49393600  0.50629300  0.00614800  1
  Li  Li5  1  0.75610900  0.24366600  0.74450300  1
  Li  Li6  1  0.74353300  0.75566500  0.24335700  1
  Li  Li7  1  0.00679600  0.49430400  0.50665500  1
  Cr  Cr0  1  0.12293900  0.12565700  0.62560200  1
  Cr  Cr1  1  0.12558300  0.37575500  0.87459100  1
  Cr  Cr2  1  0.12651000  0.62496500  0.12346000  1
  Cr  Cr3  1  0.37193200  0.37638900  0.62346800  1
  Cr  Cr4  1  0.37585000  0.62278100  0.37393000  1
  Cr  Cr5  1  0.37591300  0.87240900  0.12458400  1
  Cr  Cr6  1  0.62292000  0.37363400  0.37292500  1
  Cr  Cr7  1  0.62563600  0.12445500  0.12549200  1
  Cr  Cr8  1  0.62651600  0.87603300  0.87765100  1
  Cr  Cr9  1  0.87306900  0.12524900  0.37709700  1
  Cr  Cr10  1  0.87669800  0.87586300  0.62741300  1
  Cr  Cr11  1  0.87669100  0.62706000  0.87368700  1
  W  W0  1  0.12485600  0.87454800  0.37481600  1
  W  W1  1  0.37463400  0.12488500  0.87506600  1
  W  W2  1  0.62493400  0.62480500  0.62557400  1
  W  W3  1  0.87530600  0.37552800  0.12477900  1
  O  O0  1  0.11383000  0.11040400  0.38558200  1
  O  O1  1  0.11245600  0.88502600  0.61372500  1
  O  O2  1  0.10905800  0.60926400  0.89091400  1
  O  O3  1  0.13671800  0.13516500  0.86278900  1
  O  O4  1  0.11335500  0.38645900  0.11460100  1
  O  O5  1  0.14078700  0.35921200  0.64056100  1
  O  O6  1  0.13769500  0.63939300  0.36628900  1
  O  O7  1  0.13615700  0.86368900  0.13659900  1
  O  O8  1  0.36654500  0.13633500  0.64223500  1
  O  O9  1  0.36438600  0.36088700  0.86389300  1
  O  O10  1  0.35906800  0.64041200  0.14065500  1
  O  O11  1  0.38698700  0.61293300  0.61495500  1
  O  O12  1  0.35783100  0.86556900  0.36469900  1
  O  O13  1  0.39070900  0.38996300  0.39050100  1
  O  O14  1  0.38579400  0.11501700  0.10767200  1
  O  O15  1  0.38453000  0.88917500  0.88724700  1
  O  O16  1  0.61615500  0.39299400  0.61343200  1
  O  O17  1  0.61399200  0.61431100  0.38805100  1
  O  O18  1  0.60925500  0.89067700  0.10966300  1
  O  O19  1  0.63643300  0.36470600  0.13708100  1
  O  O20  1  0.61338800  0.11371200  0.88542000  1
  O  O21  1  0.64048900  0.14018000  0.35963700  1
  O  O22  1  0.63574900  0.85725500  0.63405700  1
  O  O23  1  0.63451600  0.63757400  0.86154500  1
  O  O24  1  0.86588700  0.36312600  0.35864300  1
  O  O25  1  0.86411800  0.14038000  0.13603600  1
  O  O26  1  0.85903400  0.85974400  0.85951500  1
  O  O27  1  0.89228900  0.88649500  0.38378500  1
  O  O28  1  0.86320500  0.63554900  0.63610000  1
  O  O29  1  0.89058500  0.10976200  0.60952900  1
  O  O30  1  0.88539100  0.38519400  0.89128400  1
  O  O31  1  0.88384100  0.60974100  0.11308500  1
loop_
_geom_bond_atom_site_label_1
_geom_bond_atom_site_label_2
_geom_bond_distance
_geom_bond_site_symmetry_2
Li0 O26 1.989434 1_555
Li0 O3 2.045110 1_665
Li0 O7 2.048463 1_656
Li0 O25 2.070522 1_566
Li1 O13 1.989062 1_555
Li1 O4 2.039773 1_555
Li1 O0 2.063009 1_555
Li1 O14 2.072522 1_555
Li2 O2 1.987765 1_555
Li2 O1 2.049832 1_555
Li2 O11 2.052191 1_555
Li2 O15 2.060523 1_555
Li3 O21 1.987211 1_555
Li3 O12 2.063205 1_545
Li3 O8 2.065009 1_555
Li3 O22 2.068636 1_545
Li4 O10 1.989447 1_555
Li4 O19 2.050429 1_555
Li4 O23 2.056728 1_554
Li4 O9 2.057231 1_554
Li5 O29 1.988752 1_555
Li5 O20 2.042606 1_555
Li5 O30 2.059506 1_555
Li5 O16 2.078173 1_555
Li6 O18 1.989535 1_555
Li6 O17 2.052878 1_555
Li6 O31 2.055821 1_555
Li6 O27 2.071941 1_555
Li7 O5 1.989558 1_555
Li7 O28 2.044826 1_455
Li7 O6 2.056191 1_555
Li7 O24 2.071878 1_455
Cr0 O29 1.996454 1_455
Cr0 O5 2.002333 1_555
Cr0 O3 2.030552 1_555
Cr0 O0 2.055206 1_555
Cr0 O1 2.057387 1_545
Cr0 O8 2.090226 1_555
Cr1 O2 2.002208 1_555
Cr1 O5 2.007699 1_555
Cr1 O9 2.048630 1_555
Cr1 O4 2.054377 1_556
Cr1 O3 2.057475 1_555
Cr1 O30 2.061015 1_455
Cr2 O2 1.995832 1_554
Cr2 O10 1.998617 1_555
Cr2 O4 2.039341 1_555
Cr2 O7 2.041396 1_555
Cr2 O6 2.079454 1_555
Cr2 O31 2.081311 1_455
Cr3 O5 1.987691 1_555
Cr3 O13 1.999836 1_555
Cr3 O11 2.023824 1_555
Cr3 O8 2.055440 1_555
Cr3 O9 2.058984 1_555
Cr3 O16 2.095280 1_555
Cr4 O13 1.996156 1_555
Cr4 O10 2.003458 1_555
Cr4 O17 2.041736 1_555
Cr4 O6 2.043068 1_555
Cr4 O11 2.062599 1_555
Cr4 O12 2.079251 1_555
Cr5 O10 1.989725 1_555
Cr5 O18 2.005799 1_555
Cr5 O15 2.033747 1_554
Cr5 O7 2.054513 1_555
Cr5 O12 2.057579 1_555
Cr5 O14 2.077128 1_565
Cr6 O13 1.996828 1_555
Cr6 O21 2.000823 1_555
Cr6 O19 2.018888 1_555
Cr6 O17 2.058928 1_555
Cr6 O16 2.061182 1_555
Cr6 O24 2.083745 1_555
Cr7 O18 2.003795 1_545
Cr7 O21 2.007914 1_555
Cr7 O25 2.046047 1_555
Cr7 O19 2.054153 1_555
Cr7 O20 2.054845 1_554
Cr7 O14 2.058432 1_555
Cr8 O18 1.990731 1_556
Cr8 O26 1.999782 1_555
Cr8 O20 2.032246 1_565
Cr8 O23 2.040289 1_555
Cr8 O15 2.074517 1_555
Cr8 O22 2.087778 1_555
Cr9 O29 1.995419 1_555
Cr9 O21 1.999028 1_555
Cr9 O24 2.037237 1_555
Cr9 O27 2.044991 1_545
Cr9 O0 2.064533 1_655
Cr9 O25 2.064567 1_555
Cr10 O26 1.993166 1_555
Cr10 O29 2.005400 1_565
Cr10 O1 2.021305 1_655
Cr10 O28 2.055187 1_555
Cr10 O22 2.067578 1_555
Cr10 O27 2.087239 1_555
Cr11 O26 1.995318 1_555
Cr11 O2 1.998809 1_655
Cr11 O28 2.033853 1_555
Cr11 O31 2.051193 1_556
Cr11 O30 2.071039 1_555
Cr11 O23 2.075943 1_555
O0 W0 2.016727 1_545
O1 W0 2.044990 1_555
O3 W1 2.039566 1_555
O4 W3 2.039960 1_455
O6 W0 2.010824 1_555
O7 W0 2.038761 1_555
O8 W1 1.992342 1_555
O9 W1 2.018254 1_555
O11 W2 2.039547 1_555
O12 W0 1.996097 1_555
O14 W1 1.990853 1_554
O15 W1 2.016081 1_565
O16 W2 1.981820 1_555
O17 W2 2.032495 1_555
O19 W3 2.047812 1_555
O20 W1 2.046296 1_555
O22 W2 1.986662 1_555
O23 W2 2.019675 1_555
O24 W3 2.002048 1_555
O25 W3 2.011175 1_555
O27 W0 1.993371 1_655
O28 W2 2.041835 1_555
O30 W3 1.997990 1_556
O31 W3 2.002477 1_555
