# generated using pymatgen
data_Li2TiV3O8
_symmetry_space_group_name_H-M   'P 1'
_cell_length_a   5.95239948
_cell_length_b   5.95239948
_cell_length_c   5.95239937
_cell_angle_alpha   60.56760522
_cell_angle_beta   60.56760522
_cell_angle_gamma   60.56760554
_symmetry_Int_Tables_number   1
_chemical_formula_structural   Li2TiV3O8
_chemical_formula_sum   'Li2 Ti1 V3 O8'
_cell_volume   151.04083994
_cell_formula_units_Z   1
loop_
 _symmetry_equiv_pos_site_id
 _symmetry_equiv_pos_as_xyz
  1  'x, y, z'
loop_
 _atom_site_type_symbol
 _atom_site_label
 _atom_site_symmetry_multiplicity
 _atom_site_fract_x
 _atom_site_fract_y
 _atom_site_fract_z
 _atom_site_occupancy
  Li  Li0  1  0.87384000  0.87384000  0.87384000  1
  Li  Li1  1  0.12616000  0.12616000  0.12616000  1
  Ti  Ti0  1  0.50000000  0.50000000  0.50000000  1
  V  V0  1  0.00000000  0.50000000  0.50000000  1
  V  V1  1  0.50000000  0.00000000  0.50000000  1
  V  V2  1  0.50000000  0.50000000  0.00000000  1
  O  O0  1  0.73758400  0.73758400  0.73758400  1
  O  O1  1  0.73524500  0.73524500  0.28642000  1
  O  O2  1  0.73524500  0.28642000  0.73524500  1
  O  O3  1  0.28642000  0.73524500  0.73524500  1
  O  O4  1  0.71358000  0.26475500  0.26475500  1
  O  O5  1  0.26475500  0.71358000  0.26475500  1
  O  O6  1  0.26475500  0.26475500  0.71358000  1
  O  O7  1  0.26241600  0.26241600  0.26241600  1
loop_
_geom_bond_atom_site_label_1
_geom_bond_atom_site_label_2
_geom_bond_distance
_geom_bond_site_symmetry_2
Li0 O0 1.978094 1_555
Li0 O1 2.019630 1_556
Li0 O2 2.019630 1_565
Li0 O3 2.019630 1_655
Li1 O7 1.978094 1_555
Li1 O6 2.019630 1_554
Li1 O5 2.019630 1_545
Li1 O4 2.019630 1_455
O0 V0 2.015775 1_655
O0 V1 2.015775 1_565
O0 V2 2.015775 1_556
O1 Ti0 1.991402 1_555
O1 V0 2.027625 1_655
O1 V1 2.027625 1_565
O2 Ti0 1.991402 1_555
O2 V2 2.027625 1_556
O2 V0 2.027625 1_655
O3 Ti0 1.991402 1_555
O3 V2 2.027625 1_556
O3 V1 2.027625 1_565
O4 Ti0 1.991402 1_555
O4 V2 2.027625 1_555
O4 V1 2.027625 1_555
O5 Ti0 1.991402 1_555
O5 V2 2.027625 1_555
O5 V0 2.027625 1_555
O6 Ti0 1.991402 1_555
O6 V0 2.027625 1_555
O6 V1 2.027625 1_555
O7 V0 2.015775 1_555
O7 V1 2.015775 1_555
O7 V2 2.015775 1_555
