# generated using pymatgen
data_Mg8Mn3O11
_symmetry_space_group_name_H-M   'P 1'
_cell_length_a   3.05519486
_cell_length_b   5.27416093
_cell_length_c   27.64111624
_cell_angle_alpha   91.83598651
_cell_angle_beta   93.16789856
_cell_angle_gamma   89.99973161
_symmetry_Int_Tables_number   1
_chemical_formula_structural   Mg8Mn3O11
_chemical_formula_sum   'Mg16 Mn6 O22'
_cell_volume   444.48797783
_cell_formula_units_Z   2
loop_
 _symmetry_equiv_pos_site_id
 _symmetry_equiv_pos_as_xyz
  1  'x, y, z'
loop_
 _atom_site_type_symbol
 _atom_site_label
 _atom_site_symmetry_multiplicity
 _atom_site_fract_x
 _atom_site_fract_y
 _atom_site_fract_z
 _atom_site_occupancy
  Mg  Mg0  1  0.09010000  0.36316400  0.18037500  1
  Mg  Mg1  1  0.59009600  0.86319000  0.18036500  1
  Mg  Mg2  1  0.68252700  0.22778500  0.36507000  1
  Mg  Mg3  1  0.18252800  0.72776600  0.36507800  1
  Mg  Mg4  1  0.54588400  0.18222000  0.09197100  1
  Mg  Mg5  1  0.04588200  0.68214500  0.09197000  1
  Mg  Mg6  1  0.22677500  0.40869800  0.45348200  1
  Mg  Mg7  1  0.72677200  0.90868400  0.45348500  1
  Mg  Mg8  1  0.31960300  0.77342300  0.63913700  1
  Mg  Mg9  1  0.81960000  0.27339900  0.63914000  1
  Mg  Mg10  1  0.45325100  0.81751100  0.90631500  1
  Mg  Mg11  1  0.95324700  0.31744900  0.90631400  1
  Mg  Mg12  1  0.36412200  0.45472500  0.72819700  1
  Mg  Mg13  1  0.86412300  0.95472100  0.72819800  1
  Mg  Mg14  1  0.90872000  0.63614700  0.81725300  1
  Mg  Mg15  1  0.40871900  0.13615200  0.81725200  1
  Mn  Mn0  1  0.63577200  0.54562400  0.27277000  1
  Mn  Mn1  1  0.49967400  0.50001500  0.99932400  1
  Mn  Mn2  1  0.77314600  0.59093700  0.54613600  1
  Mn  Mn3  1  0.13633300  0.04543300  0.27271100  1
  Mn  Mn4  1  0.99997500  0.99985300  0.99934600  1
  Mn  Mn5  1  0.27299600  0.09109500  0.54611700  1
  O  O0  1  0.38643900  0.79541100  0.77272600  1
  O  O1  1  0.88643800  0.29541500  0.77272600  1
  O  O2  1  0.02431400  0.34203900  0.04875600  1
  O  O3  1  0.52434300  0.84200900  0.04876700  1
  O  O4  1  0.74833100  0.24884500  0.49669400  1
  O  O5  1  0.24835400  0.74882600  0.49670200  1
  O  O6  1  0.56799400  0.52267800  0.13621100  1
  O  O7  1  0.06799500  0.02267700  0.13620700  1
  O  O8  1  0.70463600  0.56823100  0.40924100  1
  O  O9  1  0.20463500  0.06823100  0.40924000  1
  O  O10  1  0.16086700  0.38758500  0.32189400  1
  O  O11  1  0.66090000  0.88758800  0.32190000  1
  O  O12  1  0.61167100  0.20333700  0.22355600  1
  O  O13  1  0.11164000  0.70333600  0.22355000  1
  O  O14  1  0.29782700  0.43324600  0.59555100  1
  O  O15  1  0.79780500  0.93325800  0.59554300  1
  O  O16  1  0.97504400  0.65770500  0.94990600  1
  O  O17  1  0.47506800  0.15767600  0.94991700  1
  O  O18  1  0.84189100  0.61400500  0.68363800  1
  O  O19  1  0.34189000  0.11400400  0.68363900  1
  O  O20  1  0.43103500  0.47688000  0.86181400  1
  O  O21  1  0.93103600  0.97688000  0.86181100  1
loop_
_geom_bond_atom_site_label_1
_geom_bond_atom_site_label_2
_geom_bond_distance
_geom_bond_site_symmetry_2
Mg0 O13 2.121684 1_555
Mg0 O12 2.128068 1_555
Mg0 O12 2.128153 1_455
Mg0 O7 2.137823 1_555
Mg0 O6 2.143032 1_555
Mg0 O6 2.143137 1_455
Mg1 O12 2.121811 1_565
Mg1 O13 2.128126 1_655
Mg1 O13 2.128339 1_555
Mg1 O6 2.137721 1_555
Mg1 O7 2.142882 1_665
Mg1 O7 2.142978 1_565
Mg2 O11 2.121720 1_545
Mg2 O10 2.127815 1_655
Mg2 O10 2.128130 1_555
Mg2 O8 2.137690 1_555
Mg2 O9 2.143217 1_555
Mg2 O9 2.143318 1_655
Mg3 O10 2.121856 1_555
Mg3 O11 2.127967 1_555
Mg3 O11 2.128138 1_455
Mg3 O9 2.137638 1_565
Mg3 O8 2.143056 1_455
Mg3 O8 2.143172 1_555
Mg4 O3 2.122282 1_545
Mg4 O2 2.128548 1_555
Mg4 O2 2.128713 1_655
Mg4 O6 2.138777 1_555
Mg4 O7 2.144288 1_655
Mg4 O7 2.144318 1_555
Mg5 O2 2.121972 1_555
Mg5 O3 2.128402 1_455
Mg5 O3 2.128676 1_555
Mg5 O7 2.139053 1_565
Mg5 O6 2.144201 1_555
Mg5 O6 2.144237 1_455
Mg6 O5 2.122156 1_555
Mg6 O4 2.128548 1_555
Mg6 O4 2.128767 1_455
Mg6 O9 2.138846 1_555
Mg6 O8 2.144322 1_555
Mg6 O8 2.144402 1_455
Mg7 O4 2.122138 1_565
Mg7 O5 2.128689 1_655
Mg7 O5 2.128805 1_555
Mg7 O8 2.138816 1_555
Mg7 O9 2.144425 1_665
Mg7 O9 2.144488 1_565
Mg8 O14 2.127791 1_555
Mg8 O15 2.134674 1_555
Mg8 O15 2.134679 1_455
Mg8 O19 2.143251 1_565
Mg8 O18 2.148216 1_455
Mg8 O18 2.148379 1_555
Mg9 O15 2.127797 1_545
Mg9 O14 2.134576 1_555
Mg9 O14 2.134670 1_655
Mg9 O18 2.143299 1_555
Mg9 O19 2.148127 1_555
Mg9 O19 2.148304 1_655
Mg10 O17 2.127976 1_565
Mg10 O16 2.134560 1_555
Mg10 O16 2.134571 1_455
Mg10 O20 2.143452 1_555
Mg10 O21 2.148160 1_455
Mg10 O21 2.148320 1_555
Mg11 O16 2.128223 1_555
Mg11 O17 2.134642 1_555
Mg11 O17 2.134727 1_655
Mg11 O21 2.143214 1_545
Mg11 O20 2.148227 1_555
Mg11 O20 2.148392 1_655
Mg12 O0 2.144112 1_555
Mg12 O19 2.144700 1_555
Mg12 O1 2.148404 1_455
Mg12 O1 2.148628 1_555
Mg12 O18 2.148830 1_455
Mg12 O18 2.149040 1_555
Mg13 O1 2.144131 1_565
Mg13 O18 2.144709 1_555
Mg13 O0 2.148387 1_555
Mg13 O0 2.148613 1_655
Mg13 O19 2.148841 1_565
Mg13 O19 2.149043 1_665
Mg14 O1 2.144281 1_555
Mg14 O21 2.144752 1_555
Mg14 O0 2.148346 1_655
Mg14 O0 2.148422 1_555
Mg14 O20 2.148864 1_555
Mg14 O20 2.149014 1_655
Mg15 O0 2.144304 1_545
Mg15 O20 2.144791 1_555
Mg15 O1 2.148327 1_555
Mg15 O1 2.148405 1_455
Mg15 O21 2.148836 1_445
Mg15 O21 2.148999 1_545
Mn0 O10 2.221253 1_555
Mn0 O11 2.221372 1_555
Mn0 O13 2.222340 1_555
Mn0 O10 2.223493 1_655
Mn0 O12 2.224076 1_555
Mn0 O13 2.224346 1_655
Mn1 O16 2.226540 1_455
Mn1 O3 2.226555 1_556
Mn1 O16 2.226870 1_555
Mn1 O2 2.227381 1_656
Mn1 O17 2.227411 1_555
Mn1 O2 2.227699 1_556
Mn2 O14 2.226600 1_655
Mn2 O14 2.226711 1_555
Mn2 O4 2.226947 1_555
Mn2 O5 2.227236 1_655
Mn2 O15 2.227336 1_555
Mn2 O5 2.227551 1_555
Mn3 O13 2.222427 1_545
Mn3 O12 2.222446 1_555
Mn3 O12 2.222802 1_455
Mn3 O10 2.223012 1_555
Mn3 O11 2.223029 1_545
Mn3 O11 2.223143 1_445
Mn4 O3 2.226359 1_656
Mn4 O17 2.226767 1_665
Mn4 O2 2.226822 1_666
Mn4 O16 2.227149 1_555
Mn4 O17 2.227575 1_565
Mn4 O3 2.227794 1_556
Mn5 O4 2.226819 1_455
Mn5 O15 2.226946 1_445
Mn5 O4 2.227013 1_555
Mn5 O14 2.227064 1_555
Mn5 O5 2.227249 1_545
Mn5 O15 2.227350 1_545
