# generated using pymatgen
data_Li3CrPCO7
_symmetry_space_group_name_H-M   'P 1'
_cell_length_a   6.47441900
_cell_length_b   8.56687900
_cell_length_c   9.97812615
_cell_angle_alpha   84.81540805
_cell_angle_beta   90.00000000
_cell_angle_gamma   90.00000000
_symmetry_Int_Tables_number   1
_chemical_formula_structural   Li3CrPCO7
_chemical_formula_sum   'Li12 Cr4 P4 C4 O28'
_cell_volume   551.17811721
_cell_formula_units_Z   4
loop_
 _symmetry_equiv_pos_site_id
 _symmetry_equiv_pos_as_xyz
  1  'x, y, z'
loop_
 _atom_site_type_symbol
 _atom_site_label
 _atom_site_symmetry_multiplicity
 _atom_site_fract_x
 _atom_site_fract_y
 _atom_site_fract_z
 _atom_site_occupancy
  Li  Li0  1  0.75146400  0.89178200  0.36461800  1
  Li  Li1  1  0.74853600  0.89178200  0.86461800  1
  Li  Li2  1  0.51938600  0.71069900  0.63246700  1
  Li  Li3  1  0.98061400  0.71069900  0.13246700  1
  Li  Li4  1  0.24741900  0.64566900  0.36194700  1
  Li  Li5  1  0.25258100  0.64566900  0.86194700  1
  Li  Li6  1  0.75258100  0.35433100  0.63805300  1
  Li  Li7  1  0.74741900  0.35433100  0.13805300  1
  Li  Li8  1  0.48061400  0.28930100  0.36753300  1
  Li  Li9  1  0.01938600  0.28930100  0.86753300  1
  Li  Li10  1  0.24853600  0.10821800  0.63538200  1
  Li  Li11  1  0.25146400  0.10821800  0.13538200  1
  Cr  Cr0  1  0.01409100  0.73806000  0.62476800  1
  Cr  Cr1  1  0.48590900  0.73806000  0.12476800  1
  Cr  Cr2  1  0.98590900  0.26194000  0.37523200  1
  Cr  Cr3  1  0.51409100  0.26194000  0.87523200  1
  P  P0  1  0.75074700  0.58968400  0.38853000  1
  P  P1  1  0.74925300  0.58968400  0.88853000  1
  P  P2  1  0.24925300  0.41031600  0.61147000  1
  P  P3  1  0.25074700  0.41031600  0.11147000  1
  C  C0  1  0.24066300  0.96060000  0.39723100  1
  C  C1  1  0.25933700  0.96060000  0.89723100  1
  C  C2  1  0.75933700  0.03940000  0.60276900  1
  C  C3  1  0.74066300  0.03940000  0.10276900  1
  O  O0  1  0.25202200  0.93580300  0.27378900  1
  O  O1  1  0.77155100  0.89398400  0.56707500  1
  O  O2  1  0.24797800  0.93580300  0.77378900  1
  O  O3  1  0.24474500  0.84708100  0.49263800  1
  O  O4  1  0.72844900  0.89398400  0.06707500  1
  O  O5  1  0.25525500  0.84708100  0.99263800  1
  O  O6  1  0.94012700  0.68855500  0.33802900  1
  O  O7  1  0.56069000  0.68628000  0.33020000  1
  O  O8  1  0.93931000  0.68628000  0.83020000  1
  O  O9  1  0.55987300  0.68855500  0.83802900  1
  O  O10  1  0.24994100  0.57759700  0.66135100  1
  O  O11  1  0.74026400  0.57447300  0.54431100  1
  O  O12  1  0.25005900  0.57759700  0.16135100  1
  O  O13  1  0.75973600  0.57447300  0.04431100  1
  O  O14  1  0.25973600  0.42552700  0.45568900  1
  O  O15  1  0.75005900  0.42240300  0.33864900  1
  O  O16  1  0.24026400  0.42552700  0.95568900  1
  O  O17  1  0.74994100  0.42240300  0.83864900  1
  O  O18  1  0.05987300  0.31144500  0.66197100  1
  O  O19  1  0.43931000  0.31372000  0.66980000  1
  O  O20  1  0.44012700  0.31144500  0.16197100  1
  O  O21  1  0.06069000  0.31372000  0.16980000  1
  O  O22  1  0.75525500  0.15291900  0.50736200  1
  O  O23  1  0.22844900  0.10601600  0.43292500  1
  O  O24  1  0.74474500  0.15291900  0.00736200  1
  O  O25  1  0.74797800  0.06419700  0.72621100  1
  O  O26  1  0.27155100  0.10601600  0.93292500  1
  O  O27  1  0.75202200  0.06419700  0.22621100  1
loop_
_geom_bond_atom_site_label_1
_geom_bond_atom_site_label_2
_geom_bond_distance
_geom_bond_site_symmetry_2
Li0 O27 1.928815 1_565
Li0 O1 2.026112 1_555
Li0 O6 2.162648 1_555
Li0 O7 2.202773 1_555
Li1 O25 1.928815 1_565
Li1 O4 2.026112 1_556
Li1 O9 2.162648 1_555
Li1 O8 2.202773 1_555
Li2 O9 2.059486 1_555
Li2 O11 2.089571 1_555
Li2 O10 2.089776 1_555
Li2 O1 2.317650 1_555
Li2 O3 2.485744 1_555
Li3 O6 2.059486 1_555
Li3 O13 2.089571 1_555
Li3 O12 2.089776 1_655
Li3 O4 2.317650 1_555
Li3 O5 2.485744 1_654
Li4 O14 2.029579 1_555
Li4 O6 2.033310 1_455
Li4 O7 2.077320 1_555
Li4 O12 2.134858 1_555
Li4 O3 2.254942 1_555
Li4 O0 2.560752 1_555
Li5 O16 2.029579 1_555
Li5 O9 2.033310 1_555
Li5 O8 2.077320 1_455
Li5 O10 2.134858 1_555
Li5 O5 2.254942 1_555
Li5 O2 2.560752 1_555
Li6 O11 2.029579 1_555
Li6 O18 2.033310 1_655
Li6 O19 2.077320 1_555
Li6 O17 2.134858 1_555
Li6 O22 2.254942 1_555
Li6 O25 2.560752 1_555
Li7 O13 2.029579 1_555
Li7 O20 2.033310 1_555
Li7 O21 2.077320 1_655
Li7 O15 2.134858 1_555
Li7 O24 2.254942 1_555
Li7 O27 2.560752 1_555
Li8 O20 2.059486 1_555
Li8 O14 2.089571 1_555
Li8 O15 2.089776 1_555
Li8 O23 2.317650 1_555
Li8 O22 2.485744 1_555
Li9 O18 2.059486 1_555
Li9 O16 2.089571 1_555
Li9 O17 2.089776 1_455
Li9 O26 2.317650 1_555
Li9 O24 2.485744 1_456
Li10 O2 1.928815 1_545
Li10 O23 2.026112 1_555
Li10 O18 2.162648 1_555
Li10 O19 2.202773 1_555
Li11 O0 1.928815 1_545
Li11 O26 2.026112 1_554
Li11 O20 2.162648 1_555
Li11 O21 2.202773 1_555
Cr0 O10 2.064939 1_555
Cr0 O1 2.107746 1_455
Cr0 O8 2.113916 1_455
Cr0 O3 2.148967 1_555
Cr0 O11 2.440270 1_455
Cr1 O12 2.064939 1_555
Cr1 O4 2.107746 1_555
Cr1 O7 2.113916 1_555
Cr1 O5 2.148967 1_554
Cr1 O13 2.440270 1_555
Cr2 O15 2.064939 1_555
Cr2 O23 2.107746 1_655
Cr2 O21 2.113916 1_655
Cr2 O22 2.148967 1_555
Cr2 O14 2.440270 1_655
Cr3 O17 2.064939 1_555
Cr3 O26 2.107746 1_555
Cr3 O19 2.113916 1_555
Cr3 O24 2.148967 1_556
Cr3 O16 2.440270 1_555
C0 O0 1.270811 1_555
C0 O3 1.298234 1_555
C0 O23 1.328613 1_565
C1 O2 1.270811 1_555
C1 O5 1.298234 1_555
C1 O26 1.328613 1_565
C2 O25 1.270811 1_555
C2 O22 1.298234 1_555
C2 O1 1.328613 1_545
C3 O27 1.270811 1_555
C3 O24 1.298234 1_555
C3 O4 1.328613 1_545
O6 P0 1.548419 1_555
O7 P0 1.565457 1_555
O8 P1 1.565457 1_555
O9 P1 1.548419 1_555
O10 P2 1.558961 1_555
O11 P0 1.549563 1_555
O12 P3 1.558961 1_555
O13 P1 1.549563 1_554
O14 P2 1.549563 1_555
O15 P0 1.558961 1_555
O16 P3 1.549563 1_556
O17 P1 1.558961 1_555
O18 P2 1.548419 1_555
O19 P2 1.565457 1_555
O20 P3 1.548419 1_555
O21 P3 1.565457 1_555
