# generated using pymatgen
data_LiAgF3
_symmetry_space_group_name_H-M   'P 1'
_cell_length_a   5.61996400
_cell_length_b   5.27094300
_cell_length_c   9.71852463
_cell_angle_alpha   57.66862524
_cell_angle_beta   90.00000000
_cell_angle_gamma   90.00000000
_symmetry_Int_Tables_number   1
_chemical_formula_structural   LiAgF3
_chemical_formula_sum   'Li4 Ag4 F12'
_cell_volume   243.25569684
_cell_formula_units_Z   4
loop_
 _symmetry_equiv_pos_site_id
 _symmetry_equiv_pos_as_xyz
  1  'x, y, z'
loop_
 _atom_site_type_symbol
 _atom_site_label
 _atom_site_symmetry_multiplicity
 _atom_site_fract_x
 _atom_site_fract_y
 _atom_site_fract_z
 _atom_site_occupancy
  Li  Li0  1  0.00000000  0.00000000  0.50000000  1
  Li  Li1  1  0.00000000  0.50000000  0.00000000  1
  Li  Li2  1  0.50000000  0.50000000  0.50000000  1
  Li  Li3  1  0.50000000  0.00000000  0.00000000  1
  Ag  Ag0  1  0.58173700  0.27217900  0.20779100  1
  Ag  Ag1  1  0.08173700  0.72782100  0.29220900  1
  Ag  Ag2  1  0.91826300  0.27217900  0.70779100  1
  Ag  Ag3  1  0.41826300  0.72782100  0.79220900  1
  F  F0  1  0.06214600  0.61138100  0.74935600  1
  F  F1  1  0.29657600  0.23207200  0.07157100  1
  F  F2  1  0.28767500  0.87196100  0.42366500  1
  F  F3  1  0.78767500  0.12803900  0.07633500  1
  F  F4  1  0.79657600  0.76792800  0.42842900  1
  F  F5  1  0.56214600  0.38861900  0.75064400  1
  F  F6  1  0.43785400  0.61138100  0.24935600  1
  F  F7  1  0.20342400  0.23207200  0.57157100  1
  F  F8  1  0.21232500  0.87196100  0.92366500  1
  F  F9  1  0.71232500  0.12803900  0.57633500  1
  F  F10  1  0.70342400  0.76792800  0.92842900  1
  F  F11  1  0.93785400  0.38861900  0.25064400  1
loop_
_geom_bond_atom_site_label_1
_geom_bond_atom_site_label_2
_geom_bond_distance
_geom_bond_site_symmetry_2
Ag0 F3 2.141749 1_555
Ag0 F1 2.159850 1_555
Ag0 F6 2.187737 1_555
Ag0 F11 2.197498 1_555
Ag0 F2 2.617031 1_545
Ag0 F4 2.650275 1_545
Ag0 F10 2.660549 1_554
Ag1 F2 2.141749 1_555
Ag1 F4 2.159850 1_455
Ag1 F11 2.187737 1_455
Ag1 F6 2.197498 1_555
Ag1 F3 2.617031 1_465
Ag1 F1 2.650275 1_565
Ag1 F7 2.660549 1_555
Ag2 F9 2.141749 1_555
Ag2 F7 2.159850 1_655
Ag2 F0 2.187737 1_655
Ag2 F5 2.197498 1_555
Ag2 F8 2.617031 1_645
Ag2 F10 2.650275 1_545
Ag2 F4 2.660549 1_555
Ag3 F8 2.141749 1_555
Ag3 F10 2.159850 1_555
Ag3 F5 2.187737 1_555
Ag3 F0 2.197498 1_555
Ag3 F9 2.617031 1_565
Ag3 F7 2.650275 1_565
Ag3 F1 2.660549 1_556
F0 Li1 2.206935 1_556
F0 Li0 2.209289 1_565
F1 Li3 2.048706 1_555
F1 Li1 2.050746 1_555
F2 Li0 2.038422 1_565
F2 Li2 2.064548 1_555
F3 Li3 2.038422 1_555
F3 Li1 2.064548 1_655
F4 Li0 2.048706 1_665
F4 Li2 2.050746 1_555
F5 Li2 2.206935 1_555
F5 Li3 2.209289 1_556
F6 Li2 2.206935 1_555
F6 Li3 2.209289 1_565
F7 Li0 2.048706 1_555
F7 Li2 2.050746 1_555
F8 Li3 2.038422 1_566
F8 Li1 2.064548 1_556
F9 Li0 2.038422 1_655
F9 Li2 2.064548 1_555
F10 Li3 2.048706 1_566
F10 Li1 2.050746 1_656
F11 Li1 2.206935 1_655
F11 Li0 2.209289 1_655
