# generated using pymatgen
data_NaTi2O3
_symmetry_space_group_name_H-M   'P 1'
_cell_length_a   5.15602420
_cell_length_b   5.15602420
_cell_length_c   10.47920900
_cell_angle_alpha   90.00000000
_cell_angle_beta   90.00000000
_cell_angle_gamma   120.00000259
_symmetry_Int_Tables_number   1
_chemical_formula_structural   NaTi2O3
_chemical_formula_sum   'Na4 Ti8 O12'
_cell_volume   241.26205182
_cell_formula_units_Z   4
loop_
 _symmetry_equiv_pos_site_id
 _symmetry_equiv_pos_as_xyz
  1  'x, y, z'
loop_
 _atom_site_type_symbol
 _atom_site_label
 _atom_site_symmetry_multiplicity
 _atom_site_fract_x
 _atom_site_fract_y
 _atom_site_fract_z
 _atom_site_occupancy
  Na  Na0  1  0.33333300  0.66666700  0.50000000  1
  Na  Na1  1  0.66666700  0.33333300  0.50000000  1
  Na  Na2  1  0.66666700  0.33333300  0.00000000  1
  Na  Na3  1  0.33333300  0.66666700  0.00000000  1
  Ti  Ti0  1  0.00000000  0.66670400  0.75000000  1
  Ti  Ti1  1  0.33329600  0.00000000  0.25000000  1
  Ti  Ti2  1  0.00000000  0.33329600  0.25000000  1
  Ti  Ti3  1  0.00000000  0.00000000  0.50000000  1
  Ti  Ti4  1  0.00000000  0.00000000  0.00000000  1
  Ti  Ti5  1  0.33329600  0.33329600  0.75000000  1
  Ti  Ti6  1  0.66670400  0.00000000  0.75000000  1
  Ti  Ti7  1  0.66670400  0.66670400  0.25000000  1
  O  O0  1  0.00000000  0.68504000  0.12726400  1
  O  O1  1  0.00000000  0.68504000  0.37273600  1
  O  O2  1  0.00000000  0.31496000  0.62726400  1
  O  O3  1  0.00000000  0.31496000  0.87273600  1
  O  O4  1  0.31496000  0.00000000  0.62726400  1
  O  O5  1  0.31496000  0.00000000  0.87273600  1
  O  O6  1  0.68504000  0.00000000  0.12726400  1
  O  O7  1  0.68504000  0.00000000  0.37273600  1
  O  O8  1  0.31496000  0.31496000  0.12726400  1
  O  O9  1  0.31496000  0.31496000  0.37273600  1
  O  O10  1  0.68504000  0.68504000  0.62726400  1
  O  O11  1  0.68504000  0.68504000  0.87273600  1
loop_
_geom_bond_atom_site_label_1
_geom_bond_atom_site_label_2
_geom_bond_distance
_geom_bond_site_symmetry_2
Na0 O4 2.214539 1_565
Na0 O1 2.214539 1_555
Na0 O2 2.214541 1_555
Na0 O7 2.214541 1_565
Na0 O10 2.214543 1_555
Na0 O9 2.214543 1_555
Na1 O2 2.214539 1_655
Na1 O7 2.214539 1_555
Na1 O4 2.214541 1_555
Na1 O1 2.214541 1_655
Na1 O10 2.214543 1_555
Na1 O9 2.214543 1_555
Na2 O3 2.214539 1_654
Na2 O6 2.214539 1_555
Na2 O0 2.214541 1_655
Na2 O5 2.214541 1_554
Na2 O8 2.214543 1_555
Na2 O11 2.214543 1_554
Na3 O0 2.214539 1_555
Na3 O5 2.214539 1_564
Na3 O3 2.214541 1_554
Na3 O6 2.214541 1_565
Na3 O8 2.214543 1_555
Na3 O11 2.214543 1_554
O0 Ti4 2.101367 1_565
O0 Ti1 2.110427 1_565
O0 Ti7 2.110427 1_455
O0 Ti2 2.223375 1_555
O1 Ti3 2.101367 1_565
O1 Ti1 2.110427 1_565
O1 Ti7 2.110427 1_455
O1 Ti2 2.223375 1_555
O2 Ti3 2.101367 1_555
O2 Ti6 2.110427 1_455
O2 Ti5 2.110427 1_555
O2 Ti0 2.223375 1_555
O3 Ti4 2.101367 1_556
O3 Ti6 2.110427 1_455
O3 Ti5 2.110427 1_555
O3 Ti0 2.223375 1_555
O4 Ti3 2.101367 1_555
O4 Ti0 2.110427 1_545
O4 Ti5 2.110427 1_555
O4 Ti6 2.223375 1_555
O5 Ti4 2.101367 1_556
O5 Ti0 2.110427 1_545
O5 Ti5 2.110427 1_555
O5 Ti6 2.223375 1_555
O6 Ti4 2.101367 1_655
O6 Ti2 2.110427 1_655
O6 Ti7 2.110427 1_545
O6 Ti1 2.223375 1_555
O7 Ti3 2.101367 1_655
O7 Ti2 2.110427 1_655
O7 Ti7 2.110427 1_545
O7 Ti1 2.223375 1_555
O8 Ti4 2.101367 1_555
O8 Ti1 2.110427 1_555
O8 Ti2 2.110427 1_555
O8 Ti7 2.223375 1_555
O9 Ti3 2.101367 1_555
O9 Ti1 2.110427 1_555
O9 Ti2 2.110427 1_555
O9 Ti7 2.223375 1_555
O10 Ti3 2.101367 1_665
O10 Ti0 2.110427 1_655
O10 Ti6 2.110427 1_565
O10 Ti5 2.223375 1_555
O11 Ti4 2.101367 1_666
O11 Ti6 2.110427 1_565
O11 Ti0 2.110427 1_655
O11 Ti5 2.223375 1_555
