# generated using pymatgen
data_ZnPH4NO4
_symmetry_space_group_name_H-M   'P 1'
_cell_length_a   10.80872884
_cell_length_b   10.80872884
_cell_length_c   8.76916700
_cell_angle_alpha   90.00000000
_cell_angle_beta   90.00000000
_cell_angle_gamma   120.00000514
_symmetry_Int_Tables_number   1
_chemical_formula_structural   ZnPH4NO4
_chemical_formula_sum   'Zn8 P8 H32 N8 O32'
_cell_volume   887.23403549
_cell_formula_units_Z   8
loop_
 _symmetry_equiv_pos_site_id
 _symmetry_equiv_pos_as_xyz
  1  'x, y, z'
loop_
 _atom_site_type_symbol
 _atom_site_label
 _atom_site_symmetry_multiplicity
 _atom_site_fract_x
 _atom_site_fract_y
 _atom_site_fract_z
 _atom_site_occupancy
  Zn  Zn0  1  0.14832100  0.82228500  0.45224900  1
  Zn  Zn1  1  0.33333300  0.66666700  0.07487800  1
  Zn  Zn2  1  0.17771500  0.32603600  0.45224900  1
  Zn  Zn3  1  0.67396400  0.85167900  0.45224900  1
  Zn  Zn4  1  0.32603600  0.14832100  0.95224900  1
  Zn  Zn5  1  0.82228500  0.67396400  0.95224900  1
  Zn  Zn6  1  0.66666700  0.33333300  0.57487800  1
  Zn  Zn7  1  0.85167900  0.17771500  0.95224900  1
  P  P0  1  0.14637400  0.81925100  0.07178500  1
  P  P1  1  0.33333300  0.66666700  0.46701300  1
  P  P2  1  0.18074900  0.32712300  0.07178500  1
  P  P3  1  0.67287700  0.85362600  0.07178500  1
  P  P4  1  0.32712300  0.14637400  0.57178500  1
  P  P5  1  0.81925100  0.67287700  0.57178500  1
  P  P6  1  0.66666700  0.33333300  0.96701300  1
  P  P7  1  0.85362600  0.18074900  0.57178500  1
  H  H0  1  0.03192800  0.93088500  0.79346100  1
  H  H1  1  0.00697300  0.58738700  0.69363600  1
  H  H2  1  0.02846700  0.57349800  0.27100000  1
  H  H3  1  0.09325900  0.58681700  0.85531100  1
  H  H4  1  0.12547100  0.53022000  0.68383900  1
  H  H5  1  0.40474900  0.87452900  0.68383900  1
  H  H6  1  0.00000000  0.00000000  0.13369300  1
  H  H7  1  0.00000000  0.00000000  0.63369300  1
  H  H8  1  0.06911500  0.10104300  0.79346100  1
  H  H9  1  0.49355800  0.90674100  0.85531100  1
  H  H10  1  0.54503100  0.97153300  0.27100000  1
  H  H11  1  0.10104300  0.03192800  0.29346100  1
  H  H12  1  0.58041300  0.99302700  0.69363600  1
  H  H13  1  0.41318300  0.50644200  0.85531100  1
  H  H14  1  0.46978000  0.59525100  0.68383900  1
  H  H15  1  0.41261300  0.41958700  0.69363600  1
  H  H16  1  0.42650200  0.45496900  0.27100000  1
  H  H17  1  0.57349800  0.54503100  0.77100000  1
  H  H18  1  0.58738700  0.58041300  0.19363600  1
  H  H19  1  0.53022000  0.40474900  0.18383900  1
  H  H20  1  0.58681700  0.49355800  0.35531100  1
  H  H21  1  0.41958700  0.00697300  0.19363600  1
  H  H22  1  0.89895700  0.96807200  0.79346100  1
  H  H23  1  0.45496900  0.02846700  0.77100000  1
  H  H24  1  0.50644200  0.09325900  0.35531100  1
  H  H25  1  0.93088500  0.89895700  0.29346100  1
  H  H26  1  0.59525100  0.12547100  0.18383900  1
  H  H27  1  0.87452900  0.46978000  0.18383900  1
  H  H28  1  0.90674100  0.41318300  0.35531100  1
  H  H29  1  0.97153300  0.42650200  0.77100000  1
  H  H30  1  0.99302700  0.41261300  0.19363600  1
  H  H31  1  0.96807200  0.06911500  0.29346100  1
  N  N0  1  0.04806200  0.53221600  0.75375600  1
  N  N1  1  0.00000000  0.00000000  0.25109300  1
  N  N2  1  0.00000000  0.00000000  0.75109300  1
  N  N3  1  0.48415300  0.95193800  0.75375600  1
  N  N4  1  0.46778400  0.51584700  0.75375600  1
  N  N5  1  0.53221600  0.48415300  0.25375600  1
  N  N6  1  0.51584700  0.04806200  0.25375600  1
  N  N7  1  0.95193800  0.46778400  0.25375600  1
  O  O0  1  0.02569800  0.81759500  0.97330400  1
  O  O1  1  0.09197200  0.77237900  0.23734800  1
  O  O2  1  0.27632100  0.97375500  0.07265700  1
  O  O3  1  0.18935100  0.71354500  0.00160800  1
  O  O4  1  0.02624500  0.30256600  0.07265700  1
  O  O5  1  0.28786400  0.77261900  0.53148900  1
  O  O6  1  0.22738100  0.51524500  0.53148900  1
  O  O7  1  0.33333300  0.66666700  0.29367300  1
  O  O8  1  0.28645500  0.47580600  0.00160800  1
  O  O9  1  0.22762100  0.31959300  0.23734800  1
  O  O10  1  0.18240500  0.20810300  0.97330400  1
  O  O11  1  0.52419400  0.81064900  0.00160800  1
  O  O12  1  0.48475500  0.71213600  0.53148900  1
  O  O13  1  0.30256600  0.27632100  0.57265700  1
  O  O14  1  0.20810300  0.02569800  0.47330400  1
  O  O15  1  0.68040700  0.90802800  0.23734800  1
  O  O16  1  0.31959300  0.09197200  0.73734800  1
  O  O17  1  0.79189700  0.97430200  0.97330400  1
  O  O18  1  0.69743400  0.72367900  0.07265700  1
  O  O19  1  0.51524500  0.28786400  0.03148900  1
  O  O20  1  0.47580600  0.18935100  0.50160800  1
  O  O21  1  0.81759500  0.79189700  0.47330400  1
  O  O22  1  0.77237900  0.68040700  0.73734800  1
  O  O23  1  0.71354500  0.52419400  0.50160800  1
  O  O24  1  0.66666700  0.33333300  0.79367300  1
  O  O25  1  0.77261900  0.48475500  0.03148900  1
  O  O26  1  0.71213600  0.22738100  0.03148900  1
  O  O27  1  0.97375500  0.69743400  0.57265700  1
  O  O28  1  0.81064900  0.28645500  0.50160800  1
  O  O29  1  0.72367900  0.02624500  0.57265700  1
  O  O30  1  0.90802800  0.22762100  0.73734800  1
  O  O31  1  0.97430200  0.18240500  0.47330400  1
loop_
_geom_bond_atom_site_label_1
_geom_bond_atom_site_label_2
_geom_bond_distance
_geom_bond_site_symmetry_2
H0 N2 1.035864 1_565
H1 N0 1.046725 1_555
H2 N7 1.033219 1_455
H3 N0 1.044857 1_555
H4 N0 1.046174 1_555
H5 N3 1.046169 1_555
H6 N1 1.029500 1_555
H7 N2 1.029500 1_555
H8 N2 1.035864 1_555
H9 N3 1.044860 1_555
H10 N6 1.033212 1_565
H11 N1 1.035864 1_555
H12 N3 1.046725 1_555
H13 N4 1.044855 1_555
H14 N4 1.046165 1_555
H15 N4 1.046725 1_555
H16 N5 1.033222 1_555
H17 N4 1.033222 1_555
H18 N5 1.046725 1_555
H19 N5 1.046165 1_555
H20 N5 1.044855 1_555
H21 N6 1.046725 1_555
H22 N2 1.035864 1_665
H23 N3 1.033212 1_545
H24 N6 1.044860 1_555
H25 N1 1.035864 1_665
H26 N6 1.046169 1_555
H27 N7 1.046174 1_555
H28 N7 1.044857 1_555
H29 N0 1.033219 1_655
H30 N7 1.046725 1_555
H31 N1 1.035864 1_655
O0 P0 1.556956 1_556
O0 Zn5 1.965944 1_455
O1 P0 1.553189 1_555
O1 Zn0 1.970974 1_555
O2 P0 1.554387 1_555
O2 Zn4 1.987430 1_564
O3 P0 1.559055 1_555
O3 Zn1 1.969787 1_555
O4 P2 1.554387 1_555
O4 Zn7 1.987430 1_454
O5 P1 1.560621 1_555
O5 Zn0 1.963575 1_555
O6 P1 1.560628 1_555
O6 Zn2 1.963575 1_555
O7 P1 1.520047 1_555
O7 Zn1 1.918650 1_555
O8 P2 1.559055 1_555
O8 Zn1 1.969797 1_555
O9 P2 1.553189 1_555
O9 Zn2 1.970974 1_555
O10 P2 1.556956 1_556
O10 Zn4 1.965944 1_555
O11 P3 1.559055 1_555
O11 Zn1 1.969794 1_555
O12 P1 1.560630 1_555
O12 Zn3 1.963575 1_555
O13 P4 1.554387 1_555
O13 Zn2 1.987430 1_555
O14 P4 1.556956 1_555
O14 Zn0 1.965944 1_545
O15 P3 1.553189 1_555
O15 Zn3 1.970974 1_555
O16 P4 1.553189 1_555
O16 Zn4 1.970974 1_555
O17 P3 1.556956 1_556
O17 Zn7 1.965944 1_565
O18 P3 1.554387 1_555
O18 Zn5 1.987430 1_554
O19 P6 1.560630 1_554
O19 Zn4 1.963575 1_554
O20 P4 1.559055 1_555
O20 Zn6 1.969794 1_555
O21 P5 1.556956 1_555
O21 Zn3 1.965944 1_555
O22 P5 1.553189 1_555
O22 Zn5 1.970974 1_555
O23 P5 1.559055 1_555
O23 Zn6 1.969797 1_555
O24 P6 1.520047 1_555
O24 Zn6 1.918650 1_555
O25 P6 1.560628 1_554
O25 Zn5 1.963575 1_554
O26 P6 1.560621 1_554
O26 Zn7 1.963575 1_554
O27 P5 1.554387 1_555
O27 Zn0 1.987430 1_655
O28 P7 1.559055 1_555
O28 Zn6 1.969787 1_555
O29 P7 1.554387 1_555
O29 Zn3 1.987430 1_545
O30 P7 1.553189 1_555
O30 Zn7 1.970974 1_555
O31 P7 1.556956 1_555
O31 Zn2 1.965944 1_655
