# generated using pymatgen
data_Fe6O11F
_symmetry_space_group_name_H-M   'P 1'
_cell_length_a   10.28884993
_cell_length_b   10.28884993
_cell_length_c   2.97686400
_cell_angle_alpha   90.00000000
_cell_angle_beta   90.00000000
_cell_angle_gamma   142.31144841
_symmetry_Int_Tables_number   1
_chemical_formula_structural   Fe6O11F
_chemical_formula_sum   'Fe6 O11 F1'
_cell_volume   192.66198253
_cell_formula_units_Z   1
loop_
 _symmetry_equiv_pos_site_id
 _symmetry_equiv_pos_as_xyz
  1  'x, y, z'
loop_
 _atom_site_type_symbol
 _atom_site_label
 _atom_site_symmetry_multiplicity
 _atom_site_fract_x
 _atom_site_fract_y
 _atom_site_fract_z
 _atom_site_occupancy
  Fe  Fe0  1  0.99879000  0.66655200  0.00000000  1
  Fe  Fe1  1  0.49943500  0.16618900  0.50000000  1
  Fe  Fe2  1  0.66655200  0.99879000  0.00000000  1
  Fe  Fe3  1  0.84900300  0.84900300  0.50000000  1
  Fe  Fe4  1  0.16618900  0.49943500  0.50000000  1
  Fe  Fe5  1  0.32085000  0.32085000  0.00000000  1
  O  O0  1  0.68821100  0.35489200  0.00000000  1
  O  O1  1  0.97736000  0.31036500  0.00000000  1
  O  O2  1  0.31036500  0.97736000  0.00000000  1
  O  O3  1  0.60401600  0.06223000  0.50000000  1
  O  O4  1  0.73028400  0.93311900  0.50000000  1
  O  O5  1  0.06223000  0.60401600  0.50000000  1
  O  O6  1  0.35489200  0.68821100  0.00000000  1
  O  O7  1  0.93311900  0.73028400  0.50000000  1
  O  O8  1  0.27237700  0.39922000  0.50000000  1
  O  O9  1  0.39922000  0.27237700  0.50000000  1
  O  O10  1  0.02506400  0.02506400  0.00000000  1
  F  F0  1  0.63767200  0.63767200  0.00000000  1
loop_
_geom_bond_atom_site_label_1
_geom_bond_atom_site_label_2
_geom_bond_distance
_geom_bond_site_symmetry_2
Fe0 O5 1.928774 1_655
Fe0 O5 1.928774 1_654
Fe0 O7 1.950175 1_554
Fe0 O7 1.950175 1_555
Fe0 O0 2.067894 1_555
Fe0 O2 2.068360 1_655
Fe1 O0 1.946564 1_556
Fe1 O0 1.946564 1_555
Fe1 O2 1.947465 1_545
Fe1 O2 1.947465 1_546
Fe1 O9 2.009920 1_555
Fe1 O3 2.030632 1_555
Fe2 O3 1.928774 1_565
Fe2 O3 1.928774 1_564
Fe2 O4 1.950175 1_554
Fe2 O4 1.950175 1_555
Fe2 O6 2.067894 1_555
Fe2 O1 2.068360 1_565
Fe3 O10 1.893354 1_666
Fe3 O10 1.893354 1_665
Fe3 O7 1.978424 1_555
Fe3 O4 1.978424 1_555
Fe4 O6 1.946564 1_556
Fe4 O6 1.946564 1_555
Fe4 O1 1.947465 1_455
Fe4 O1 1.947465 1_456
Fe4 O8 2.009920 1_555
Fe4 O5 2.030632 1_555
Fe5 O9 1.936702 1_555
Fe5 O9 1.936702 1_554
Fe5 O8 1.936702 1_555
Fe5 O8 1.936702 1_554
Fe5 O10 1.965953 1_555
F0 Fe3 2.046555 1_555
F0 Fe3 2.046555 1_554
F0 Fe5 2.105769 1_555
