# generated using pymatgen
data_CsZrCuSe3
_symmetry_space_group_name_H-M   'P 1'
_cell_length_a   3.94636200
_cell_length_b   8.38487027
_cell_length_c   10.28629500
_cell_angle_alpha   90.00000000
_cell_angle_beta   90.00000000
_cell_angle_gamma   103.61086135
_symmetry_Int_Tables_number   1
_chemical_formula_structural   CsZrCuSe3
_chemical_formula_sum   'Cs2 Zr2 Cu2 Se6'
_cell_volume   330.81192601
_cell_formula_units_Z   2
loop_
 _symmetry_equiv_pos_site_id
 _symmetry_equiv_pos_as_xyz
  1  'x, y, z'
loop_
 _atom_site_type_symbol
 _atom_site_label
 _atom_site_symmetry_multiplicity
 _atom_site_fract_x
 _atom_site_fract_y
 _atom_site_fract_z
 _atom_site_occupancy
  Cs  Cs0  1  0.25384900  0.50769800  0.25000000  1
  Cs  Cs1  1  0.74615100  0.49230200  0.75000000  1
  Zr  Zr0  1  0.00000000  0.00000000  0.50000000  1
  Zr  Zr1  1  0.00000000  0.00000000  0.00000000  1
  Cu  Cu0  1  0.46943500  0.93887000  0.75000000  1
  Cu  Cu1  1  0.53056500  0.06113000  0.25000000  1
  Se  Se0  1  0.38809500  0.77619000  0.55242800  1
  Se  Se1  1  0.61190500  0.22381000  0.44757200  1
  Se  Se2  1  0.93986200  0.87972400  0.25000000  1
  Se  Se3  1  0.06013800  0.12027600  0.75000000  1
  Se  Se4  1  0.38809500  0.77619000  0.94757200  1
  Se  Se5  1  0.61190500  0.22381000  0.05242800  1
loop_
_geom_bond_atom_site_label_1
_geom_bond_atom_site_label_2
_geom_bond_distance
_geom_bond_site_symmetry_2
Cs0 Se2 3.617343 1_455
Cs0 Se2 3.617343 1_555
Cs0 Se1 3.657318 1_555
Cs0 Se1 3.657318 1_455
Cs0 Se5 3.657318 1_555
Cs0 Se5 3.657318 1_455
Cs0 Se4 3.803291 1_554
Cs0 Se0 3.803291 1_555
Cs1 Se3 3.617343 1_655
Cs1 Se3 3.617343 1_555
Cs1 Se0 3.657318 1_655
Cs1 Se4 3.657318 1_655
Cs1 Se0 3.657318 1_555
Cs1 Se4 3.657318 1_555
Cs1 Se5 3.803291 1_556
Cs1 Se1 3.803291 1_555
Cu0 Se0 2.426473 1_555
Cu0 Se4 2.426473 1_555
Cu0 Se3 2.465554 1_565
Cu0 Se3 2.465554 1_665
Cu1 Se1 2.426473 1_555
Cu1 Se5 2.426473 1_555
Cu1 Se2 2.465554 1_445
Cu1 Se2 2.465554 1_545
Se0 Zr0 2.740610 1_565
Se0 Zr0 2.740610 1_665
Se1 Zr0 2.740610 1_555
Se1 Zr0 2.740610 1_655
Se2 Zr1 2.752042 1_665
Se2 Zr0 2.752042 1_665
Se3 Zr0 2.752042 1_555
Se3 Zr1 2.752042 1_556
Se4 Zr1 2.740610 1_566
Se4 Zr1 2.740610 1_666
Se5 Zr1 2.740610 1_555
Se5 Zr1 2.740610 1_655
