# generated using pymatgen
data_Li2MnF6
_symmetry_space_group_name_H-M   'P 1'
_cell_length_a   8.46784300
_cell_length_b   8.47621122
_cell_length_c   10.12806202
_cell_angle_alpha   85.24554142
_cell_angle_beta   85.82743109
_cell_angle_gamma   61.39281117
_symmetry_Int_Tables_number   1
_chemical_formula_structural   Li2MnF6
_chemical_formula_sum   'Li12 Mn6 F36'
_cell_volume   635.55008856
_cell_formula_units_Z   6
loop_
 _symmetry_equiv_pos_site_id
 _symmetry_equiv_pos_as_xyz
  1  'x, y, z'
loop_
 _atom_site_type_symbol
 _atom_site_label
 _atom_site_symmetry_multiplicity
 _atom_site_fract_x
 _atom_site_fract_y
 _atom_site_fract_z
 _atom_site_occupancy
  Li  Li0  1  0.47430300  0.85487200  0.45601000  1
  Li  Li1  1  0.37607000  0.68700600  0.96366100  1
  Li  Li2  1  0.33362000  0.62262700  0.53040800  1
  Li  Li3  1  0.99222800  0.71513700  0.76910600  1
  Li  Li4  1  0.98439500  0.29401000  0.22949100  1
  Li  Li5  1  0.81321400  0.19478700  0.74598300  1
  Li  Li6  1  0.63983400  0.32890000  0.03608000  1
  Li  Li7  1  0.11140100  0.54305800  0.04994900  1
  Li  Li8  1  0.54677800  0.12845600  0.55254500  1
  Li  Li9  1  0.04752200  0.35443300  0.56508400  1
  Li  Li10  1  0.72559700  0.99235000  0.27368100  1
  Li  Li11  1  0.35690200  0.04860400  0.06077000  1
  Mn  Mn0  1  0.66497200  0.66723900  0.70714400  1
  Mn  Mn1  1  0.00407600  0.99468000  0.49696200  1
  Mn  Mn2  1  0.66375400  0.66566000  0.20647200  1
  Mn  Mn3  1  0.99737200  0.00081300  0.00018700  1
  Mn  Mn4  1  0.33632400  0.33274600  0.79708400  1
  Mn  Mn5  1  0.33190300  0.33496100  0.29576800  1
  F  F0  1  0.92710700  0.93375000  0.66111400  1
  F  F1  1  0.92599400  0.92540800  0.15598700  1
  F  F2  1  0.58492300  0.88859300  0.60987200  1
  F  F3  1  0.76069000  0.73988900  0.82947100  1
  F  F4  1  0.58605500  0.88490500  0.11332900  1
  F  F5  1  0.72934400  0.76476600  0.33359100  1
  F  F6  1  0.23313800  0.91536900  0.55350900  1
  F  F7  1  0.88618900  0.58449600  0.61709600  1
  F  F8  1  0.45137800  0.75127700  0.80181600  1
  F  F9  1  0.23041700  0.91451000  0.05582200  1
  F  F10  1  0.88944600  0.57504800  0.12277700  1
  F  F11  1  0.44714600  0.74903100  0.29862900  1
  F  F12  1  0.56561200  0.60824100  0.57236200  1
  F  F13  1  0.08034400  0.76824800  0.93849200  1
  F  F14  1  0.74118700  0.44351900  0.79196100  1
  F  F15  1  0.58277200  0.57622000  0.07694500  1
  F  F16  1  0.08918300  0.76857600  0.44390500  1
  F  F17  1  0.75112000  0.44917100  0.29966100  1
  F  F18  1  0.24606700  0.55355600  0.69943900  1
  F  F19  1  0.92263600  0.21932400  0.56786100  1
  F  F20  1  0.40799400  0.42677500  0.92995100  1
  F  F21  1  0.25105600  0.54747400  0.19934000  1
  F  F22  1  0.92135000  0.22222600  0.06858500  1
  F  F23  1  0.41770300  0.40396100  0.42786300  1
  F  F24  1  0.55782000  0.25029600  0.70506900  1
  F  F25  1  0.11575400  0.42425200  0.88422200  1
  F  F26  1  0.76887500  0.09775900  0.93704200  1
  F  F27  1  0.55105100  0.24296300  0.19881700  1
  F  F28  1  0.11691600  0.40528100  0.38704100  1
  F  F29  1  0.77387800  0.06621300  0.43780900  1
  F  F30  1  0.26792100  0.24586900  0.66378300  1
  F  F31  1  0.41380100  0.12155100  0.89287600  1
  F  F32  1  0.23554300  0.26156000  0.16505100  1
  F  F33  1  0.42636900  0.10854600  0.38697400  1
  F  F34  1  0.05926900  0.07564400  0.84179800  1
  F  F35  1  0.06626900  0.07890000  0.34124800  1
loop_
_geom_bond_atom_site_label_1
_geom_bond_atom_site_label_2
_geom_bond_distance
_geom_bond_site_symmetry_2
F0 Mn1 1.864907 1_655
F0 Li3 1.925439 1_555
F0 Li5 2.171588 1_565
F1 Mn3 1.824204 1_565
F1 Li10 1.875673 1_555
F2 Mn0 1.877023 1_555
F2 Li8 1.943654 1_565
F2 Li0 1.982458 1_555
F3 Mn0 1.822547 1_555
F3 Li3 1.927378 1_555
F4 Mn2 1.845315 1_555
F4 Li11 1.850272 1_565
F5 Mn2 1.844412 1_555
F5 Li10 1.959737 1_555
F5 Li0 2.229905 1_555
F6 Mn1 1.841569 1_555
F6 Li0 2.048444 1_555
F6 Li2 2.231875 1_555
F7 Mn0 1.852562 1_555
F7 Li9 1.860385 1_655
F7 Li3 2.416333 1_555
F8 Mn0 1.823519 1_555
F8 Li1 1.850098 1_555
F9 Mn3 1.859569 1_465
F9 Li11 1.903829 1_565
F9 Li1 1.991072 1_554
F10 Mn2 1.851327 1_555
F10 Li7 1.869071 1_655
F10 Li4 2.314032 1_555
F11 Mn2 1.831352 1_555
F11 Li0 1.971396 1_555
F12 Mn0 1.872066 1_555
F12 Li2 1.984455 1_555
F12 Li0 2.129099 1_555
F13 Mn3 1.893146 1_466
F13 Li7 2.047468 1_556
F13 Li3 2.082904 1_455
F13 Li1 2.285275 1_555
F14 Mn0 1.840948 1_555
F14 Li5 1.980869 1_555
F15 Mn2 1.886678 1_555
F15 Li1 1.949749 1_554
F15 Li6 1.985986 1_555
F16 Mn1 1.809108 1_555
F16 Li2 2.052910 1_555
F17 Mn2 1.822053 1_555
F17 Li4 1.897260 1_555
F18 Mn4 1.870431 1_555
F18 Li2 1.971804 1_555
F18 Li3 2.028365 1_455
F19 Mn1 1.874581 1_645
F19 Li9 1.892276 1_655
F19 Li5 2.008832 1_555
F20 Mn4 1.890566 1_555
F20 Li6 2.073003 1_556
F20 Li1 2.143708 1_555
F20 Li7 2.477924 1_556
F21 Mn5 1.814375 1_555
F21 Li7 2.000335 1_555
F22 Mn3 1.846662 1_555
F22 Li4 1.978148 1_555
F22 Li6 2.146952 1_555
F23 Mn5 1.826985 1_555
F23 Li2 1.992157 1_555
F23 Li8 2.347429 1_555
F24 Mn4 1.863640 1_555
F24 Li8 1.959483 1_555
F24 Li5 2.047871 1_555
F25 Mn4 1.831751 1_555
F25 Li7 2.017040 1_556
F25 Li3 2.400811 1_455
F26 Mn3 1.843477 1_556
F26 Li6 2.038336 1_556
F26 Li5 2.118480 1_555
F27 Mn5 1.868680 1_555
F27 Li6 1.989338 1_555
F27 Li10 2.039951 1_545
F28 Mn5 1.825189 1_555
F28 Li9 1.934473 1_555
F28 Li4 2.493702 1_455
F29 Mn1 1.871947 1_645
F29 Li10 1.959308 1_545
F29 Li8 2.032659 1_555
F30 Mn4 1.840528 1_555
F30 Li9 1.950270 1_555
F30 Li8 2.320324 1_555
F31 Mn4 1.804530 1_555
F31 Li11 1.870218 1_556
F32 Mn5 1.893541 1_555
F32 Li11 1.952320 1_555
F32 Li4 2.071717 1_455
F32 Li7 2.339349 1_555
F33 Mn5 1.876125 1_555
F33 Li0 2.057496 1_545
F33 Li8 2.083413 1_555
F33 Li10 2.466042 1_545
F34 Mn3 1.810451 1_456
F34 Li5 2.102289 1_455
F35 Mn1 1.823913 1_545
F35 Li4 1.909941 1_455
