# generated using pymatgen
data_Mn12O5F19
_symmetry_space_group_name_H-M   'P 1'
_cell_length_a   4.84215900
_cell_length_b   5.83931282
_cell_length_c   15.95600397
_cell_angle_alpha   89.52043335
_cell_angle_beta   89.98496148
_cell_angle_gamma   88.79852140
_symmetry_Int_Tables_number   1
_chemical_formula_structural   Mn12O5F19
_chemical_formula_sum   'Mn12 O5 F19'
_cell_volume   451.03912428
_cell_formula_units_Z   1
loop_
 _symmetry_equiv_pos_site_id
 _symmetry_equiv_pos_as_xyz
  1  'x, y, z'
loop_
 _atom_site_type_symbol
 _atom_site_label
 _atom_site_symmetry_multiplicity
 _atom_site_fract_x
 _atom_site_fract_y
 _atom_site_fract_z
 _atom_site_occupancy
  Mn  Mn0  1  0.96063000  0.81648000  0.42060900  1
  Mn  Mn1  1  0.02376400  0.18204600  0.24709800  1
  Mn  Mn2  1  0.01705200  0.83158100  0.07887300  1
  Mn  Mn3  1  0.01081300  0.83588800  0.74738900  1
  Mn  Mn4  1  0.00458600  0.15796900  0.58407000  1
  Mn  Mn5  1  0.97205100  0.16000500  0.90575500  1
  Mn  Mn6  1  0.49456600  0.64943000  0.58707500  1
  Mn  Mn7  1  0.48570300  0.65581500  0.92312300  1
  Mn  Mn8  1  0.49688300  0.65329100  0.24555300  1
  Mn  Mn9  1  0.47138500  0.35178100  0.08564300  1
  Mn  Mn10  1  0.50165900  0.35539900  0.42048000  1
  Mn  Mn11  1  0.51269400  0.34738700  0.75085900  1
  O  O0  1  0.77284100  0.12056700  0.79770700  1
  O  O1  1  0.69278000  0.60869500  0.48133400  1
  O  O2  1  0.28404400  0.60392800  0.03085600  1
  O  O3  1  0.29643500  0.39928000  0.19198200  1
  O  O4  1  0.29976700  0.60802600  0.69491800  1
  F  F0  1  0.76176600  0.88907700  0.30029200  1
  F  F1  1  0.77571000  0.87679500  0.63734200  1
  F  F2  1  0.76851200  0.88331200  0.96963000  1
  F  F3  1  0.76016100  0.12212900  0.13282100  1
  F  F4  1  0.76154500  0.10781500  0.47360200  1
  F  F5  1  0.75601900  0.62181900  0.14329100  1
  F  F6  1  0.74500600  0.39617100  0.31097900  1
  F  F7  1  0.73629600  0.38644100  0.64205100  1
  F  F8  1  0.73882300  0.60881300  0.81481700  1
  F  F9  1  0.71560800  0.37067000  0.97986100  1
  F  F10  1  0.25694700  0.61421700  0.35608700  1
  F  F11  1  0.25643000  0.39404000  0.52872800  1
  F  F12  1  0.27599900  0.38330800  0.85966300  1
  F  F13  1  0.23605500  0.90491200  0.19192800  1
  F  F14  1  0.22803300  0.88106800  0.52928700  1
  F  F15  1  0.23102300  0.11851300  0.36662900  1
  F  F16  1  0.21729300  0.10928100  0.01730400  1
  F  F17  1  0.22565800  0.88252400  0.85927900  1
  F  F18  1  0.25546200  0.11153000  0.69308900  1
loop_
_geom_bond_atom_site_label_1
_geom_bond_atom_site_label_2
_geom_bond_distance
_geom_bond_site_symmetry_2
Mn0 O1 2.034395 1_555
Mn1 O3 2.043691 1_555
Mn2 O2 1.992479 1_555
Mn3 O4 2.090203 1_555
Mn3 O0 2.162699 1_465
Mn5 O0 1.993128 1_555
Mn6 O1 1.954665 1_555
Mn6 O4 1.977593 1_555
Mn7 O2 2.000753 1_556
Mn8 O3 1.988662 1_555
Mn9 O3 1.915929 1_555
Mn9 O2 1.917760 1_555
Mn10 O1 2.017134 1_555
Mn11 O0 1.952876 1_555
Mn11 O4 2.021885 1_555
F0 Mn8 2.097228 1_555
F0 Mn0 2.182366 1_555
F0 Mn1 2.307077 1_665
F1 Mn6 2.086485 1_555
F1 Mn3 2.102111 1_655
F1 Mn4 2.167696 1_665
F2 Mn7 2.069777 1_555
F2 Mn2 2.134236 1_656
F2 Mn5 2.158531 1_565
F3 Mn9 2.055537 1_555
F3 Mn2 2.258785 1_645
F3 Mn1 2.259881 1_655
F4 Mn10 2.072656 1_555
F4 Mn0 2.119719 1_545
F4 Mn4 2.145174 1_655
F5 Mn2 2.048793 1_655
F5 Mn8 2.065172 1_555
F5 Mn9 2.312605 1_555
F6 Mn1 2.091428 1_655
F6 Mn10 2.121687 1_555
F6 Mn8 2.164781 1_555
F7 Mn11 2.059419 1_555
F7 Mn4 2.066588 1_655
F7 Mn6 2.097723 1_555
F8 Mn7 2.134642 1_555
F8 Mn11 2.160435 1_555
F8 Mn3 2.167682 1_655
F9 Mn9 2.064171 1_556
F9 Mn5 2.100673 1_555
F9 Mn7 2.174590 1_555
F10 Mn0 2.112355 1_455
F10 Mn8 2.125025 1_555
F10 Mn10 2.154847 1_555
F11 Mn4 2.053449 1_555
F11 Mn10 2.106744 1_555
F11 Mn6 2.125148 1_555
F12 Mn11 2.089619 1_555
F12 Mn5 2.114492 1_455
F12 Mn7 2.164193 1_555
F13 Mn8 2.094694 1_555
F13 Mn1 2.098572 1_565
F13 Mn2 2.143586 1_555
F14 Mn6 2.062020 1_555
F14 Mn4 2.121069 1_565
F14 Mn0 2.204169 1_455
F15 Mn10 2.113175 1_555
F15 Mn1 2.180804 1_555
F15 Mn0 2.374323 1_445
F16 Mn2 2.138575 1_545
F16 Mn5 2.154851 1_454
F16 Mn9 2.192612 1_555
F17 Mn7 2.069777 1_555
F17 Mn3 2.089202 1_555
F17 Mn5 2.149299 1_465
F18 Mn11 2.095634 1_555
F18 Mn4 2.134131 1_555
F18 Mn3 2.191067 1_545
