# generated using pymatgen
data_Li4Ti4Mn4FeO18
_symmetry_space_group_name_H-M   'P 1'
_cell_length_a   2.96324300
_cell_length_b   9.18932000
_cell_length_c   25.17436200
_cell_angle_alpha   90.00000000
_cell_angle_beta   90.00000000
_cell_angle_gamma   90.00000000
_symmetry_Int_Tables_number   1
_chemical_formula_structural   Li4Ti4Mn4FeO18
_chemical_formula_sum   'Li8 Ti8 Mn8 Fe2 O36'
_cell_volume   685.50261419
_cell_formula_units_Z   2
loop_
 _symmetry_equiv_pos_site_id
 _symmetry_equiv_pos_as_xyz
  1  'x, y, z'
loop_
 _atom_site_type_symbol
 _atom_site_label
 _atom_site_symmetry_multiplicity
 _atom_site_fract_x
 _atom_site_fract_y
 _atom_site_fract_z
 _atom_site_occupancy
  Li  Li0  1  0.00000000  0.68927200  0.99813600  1
  Li  Li1  1  0.00000000  0.70640000  0.19451900  1
  Li  Li2  1  0.00000000  0.79360000  0.69451900  1
  Li  Li3  1  0.00000000  0.81072800  0.49813600  1
  Li  Li4  1  0.00000000  0.18927200  0.50186400  1
  Li  Li5  1  0.00000000  0.20640000  0.30548100  1
  Li  Li6  1  0.00000000  0.29360000  0.80548100  1
  Li  Li7  1  0.00000000  0.31072800  0.00186400  1
  Ti  Ti0  1  0.00000000  0.50481100  0.10365000  1
  Ti  Ti1  1  0.50000000  0.64528900  0.80499800  1
  Ti  Ti2  1  0.50000000  0.85471100  0.30499800  1
  Ti  Ti3  1  0.00000000  0.99518900  0.60365000  1
  Ti  Ti4  1  0.00000000  0.00481100  0.39635000  1
  Ti  Ti5  1  0.50000000  0.14528900  0.69500200  1
  Ti  Ti6  1  0.50000000  0.35471100  0.19500200  1
  Ti  Ti7  1  0.00000000  0.49518900  0.89635000  1
  Mn  Mn0  1  0.00000000  0.51783700  0.31465100  1
  Mn  Mn1  1  0.50000000  0.64288600  0.58700600  1
  Mn  Mn2  1  0.50000000  0.85711400  0.08700600  1
  Mn  Mn3  1  0.00000000  0.98216300  0.81465100  1
  Mn  Mn4  1  0.00000000  0.01783700  0.18534900  1
  Mn  Mn5  1  0.50000000  0.14288600  0.91299400  1
  Mn  Mn6  1  0.50000000  0.35711400  0.41299400  1
  Mn  Mn7  1  0.00000000  0.48216300  0.68534900  1
  Fe  Fe0  1  0.00000000  0.50000000  0.50000000  1
  Fe  Fe1  1  0.00000000  0.00000000  0.00000000  1
  O  O0  1  0.00000000  0.49673300  0.41975200  1
  O  O1  1  0.00000000  0.50326700  0.58024800  1
  O  O2  1  0.50000000  0.53869800  0.94126400  1
  O  O3  1  0.50000000  0.55108700  0.16167700  1
  O  O4  1  0.50000000  0.61574200  0.66283700  1
  O  O5  1  0.00000000  0.61315400  0.75703800  1
  O  O6  1  0.50000000  0.65363300  0.50873100  1
  O  O7  1  0.50000000  0.64326500  0.29155000  1
  O  O8  1  0.00000000  0.67725500  0.85744300  1
  O  O9  1  0.00000000  0.71246000  0.08864500  1
  O  O10  1  0.00000000  0.78754000  0.58864500  1
  O  O11  1  0.00000000  0.82274500  0.35744300  1
  O  O12  1  0.50000000  0.85673500  0.79155000  1
  O  O13  1  0.50000000  0.84636700  0.00873100  1
  O  O14  1  0.00000000  0.88684600  0.25703800  1
  O  O15  1  0.50000000  0.88425800  0.16283700  1
  O  O16  1  0.50000000  0.94891300  0.66167700  1
  O  O17  1  0.50000000  0.96130200  0.44126400  1
  O  O18  1  0.00000000  0.99673300  0.08024800  1
  O  O19  1  0.00000000  0.00326700  0.91975200  1
  O  O20  1  0.50000000  0.03869800  0.55873600  1
  O  O21  1  0.50000000  0.05108700  0.33832300  1
  O  O22  1  0.50000000  0.11574200  0.83716300  1
  O  O23  1  0.00000000  0.11315400  0.74296200  1
  O  O24  1  0.50000000  0.15363300  0.99126900  1
  O  O25  1  0.50000000  0.14326500  0.20845000  1
  O  O26  1  0.00000000  0.17725500  0.64255700  1
  O  O27  1  0.00000000  0.21246000  0.41135500  1
  O  O28  1  0.00000000  0.28754000  0.91135500  1
  O  O29  1  0.00000000  0.32274500  0.14255700  1
  O  O30  1  0.50000000  0.35673500  0.70845000  1
  O  O31  1  0.50000000  0.34636700  0.49126900  1
  O  O32  1  0.00000000  0.38684600  0.24296200  1
  O  O33  1  0.50000000  0.38425800  0.33716300  1
  O  O34  1  0.50000000  0.44891300  0.83832300  1
  O  O35  1  0.50000000  0.46130200  0.05873600  1
loop_
_geom_bond_atom_site_label_1
_geom_bond_atom_site_label_2
_geom_bond_distance
_geom_bond_site_symmetry_2
Li0 O13 2.085740 1_456
Li0 O13 2.085740 1_556
Li0 O9 2.288448 1_556
Li0 O2 2.481847 1_555
Li0 O2 2.481847 1_455
Li1 O3 2.217142 1_455
Li1 O3 2.217142 1_555
Li1 O14 2.286183 1_555
Li1 O15 2.345756 1_455
Li1 O15 2.345756 1_555
Li2 O16 2.217142 1_455
Li2 O16 2.217142 1_555
Li2 O5 2.286183 1_555
Li2 O4 2.345756 1_455
Li2 O4 2.345756 1_555
Li3 O6 2.085740 1_455
Li3 O6 2.085740 1_555
Li3 O10 2.288448 1_555
Li3 O17 2.481847 1_455
Li3 O17 2.481847 1_555
Li4 O31 2.085740 1_455
Li4 O31 2.085740 1_555
Li4 O27 2.288448 1_555
Li4 O20 2.481847 1_455
Li4 O20 2.481847 1_555
Li5 O21 2.217142 1_455
Li5 O21 2.217142 1_555
Li5 O32 2.286183 1_555
Li5 O33 2.345756 1_455
Li5 O33 2.345756 1_555
Li6 O34 2.217142 1_455
Li6 O34 2.217142 1_555
Li6 O23 2.286183 1_555
Li6 O22 2.345756 1_455
Li6 O22 2.345756 1_555
Li7 O24 2.085740 1_454
Li7 O24 2.085740 1_554
Li7 O28 2.288448 1_554
Li7 O35 2.481847 1_555
Li7 O35 2.481847 1_455
Mn0 O7 1.965169 1_455
Mn0 O7 1.965169 1_555
Mn0 O33 2.005776 1_455
Mn0 O33 2.005776 1_555
Mn0 O32 2.169325 1_555
Mn0 O0 2.652948 1_555
Mn1 O4 1.925224 1_555
Mn1 O1 1.967294 1_555
Mn1 O1 1.967294 1_655
Mn1 O6 1.972996 1_555
Mn1 O10 1.990947 1_655
Mn1 O10 1.990947 1_555
Mn2 O15 1.925224 1_555
Mn2 O18 1.967294 1_655
Mn2 O18 1.967294 1_555
Mn2 O13 1.972996 1_555
Mn2 O9 1.990947 1_555
Mn2 O9 1.990947 1_655
Mn3 O12 1.965169 1_455
Mn3 O12 1.965169 1_555
Mn3 O22 2.005776 1_565
Mn3 O22 2.005776 1_465
Mn3 O23 2.169325 1_565
Mn3 O19 2.652948 1_565
Mn4 O25 1.965169 1_455
Mn4 O25 1.965169 1_555
Mn4 O15 2.005776 1_445
Mn4 O15 2.005776 1_545
Mn4 O14 2.169325 1_545
Mn4 O18 2.652948 1_545
Mn5 O22 1.925224 1_555
Mn5 O19 1.967294 1_555
Mn5 O19 1.967294 1_655
Mn5 O24 1.972996 1_555
Mn5 O28 1.990947 1_555
Mn5 O28 1.990947 1_655
Mn6 O33 1.925224 1_555
Mn6 O0 1.967294 1_555
Mn6 O0 1.967294 1_655
Mn6 O31 1.972996 1_555
Mn6 O27 1.990947 1_655
Mn6 O27 1.990947 1_555
Mn7 O30 1.965169 1_455
Mn7 O30 1.965169 1_555
Mn7 O4 2.005776 1_455
Mn7 O4 2.005776 1_555
Mn7 O5 2.169325 1_555
Mn7 O1 2.652948 1_555
Fe0 O1 2.020415 1_555
Fe0 O0 2.020415 1_555
Fe0 O31 2.058311 1_455
Fe0 O31 2.058311 1_555
Fe0 O6 2.058311 1_555
Fe0 O6 2.058311 1_455
Fe1 O18 2.020415 1_545
Fe1 O19 2.020415 1_554
Fe1 O13 2.058311 1_445
Fe1 O24 2.058311 1_454
Fe1 O24 2.058311 1_554
Fe1 O13 2.058311 1_545
O2 Ti7 1.906173 1_555
O2 Ti7 1.906173 1_655
O3 Ti6 1.990039 1_555
O3 Ti0 2.123664 1_655
O3 Ti0 2.123664 1_555
O5 Ti1 1.933941 1_455
O5 Ti1 1.933941 1_555
O7 Ti2 1.972317 1_555
O8 Ti7 1.938680 1_555
O8 Ti1 2.006141 1_455
O8 Ti1 2.006141 1_555
O9 Ti0 1.945183 1_555
O10 Ti3 1.945183 1_555
O11 Ti4 1.938680 1_565
O11 Ti2 2.006141 1_555
O11 Ti2 2.006141 1_455
O12 Ti1 1.972317 1_555
O14 Ti2 1.933941 1_455
O14 Ti2 1.933941 1_555
O16 Ti5 1.990039 1_565
O16 Ti3 2.123664 1_655
O16 Ti3 2.123664 1_555
O17 Ti4 1.906173 1_565
O17 Ti4 1.906173 1_665
O20 Ti3 1.906173 1_645
O20 Ti3 1.906173 1_545
O21 Ti2 1.990039 1_545
O21 Ti4 2.123664 1_555
O21 Ti4 2.123664 1_655
O23 Ti5 1.933941 1_455
O23 Ti5 1.933941 1_555
O25 Ti6 1.972317 1_555
O26 Ti3 1.938680 1_545
O26 Ti5 2.006141 1_555
O26 Ti5 2.006141 1_455
O27 Ti4 1.945183 1_555
O28 Ti7 1.945183 1_555
O29 Ti0 1.938680 1_555
O29 Ti6 2.006141 1_555
O29 Ti6 2.006141 1_455
O30 Ti5 1.972317 1_555
O32 Ti6 1.933941 1_555
O32 Ti6 1.933941 1_455
O34 Ti1 1.990039 1_555
O34 Ti7 2.123664 1_555
O34 Ti7 2.123664 1_655
O35 Ti0 1.906173 1_555
O35 Ti0 1.906173 1_655
