# generated using pymatgen
data_Zr2N2O
_symmetry_space_group_name_H-M   'P 1'
_cell_length_a   8.78523568
_cell_length_b   8.78674318
_cell_length_c   8.78790364
_cell_angle_alpha   109.56160981
_cell_angle_beta   109.39244690
_cell_angle_gamma   109.35780229
_symmetry_Int_Tables_number   1
_chemical_formula_structural   Zr2N2O
_chemical_formula_sum   'Zr16 N16 O8'
_cell_volume   522.86311683
_cell_formula_units_Z   8
loop_
 _symmetry_equiv_pos_site_id
 _symmetry_equiv_pos_as_xyz
  1  'x, y, z'
loop_
 _atom_site_type_symbol
 _atom_site_label
 _atom_site_symmetry_multiplicity
 _atom_site_fract_x
 _atom_site_fract_y
 _atom_site_fract_z
 _atom_site_occupancy
  Zr  Zr0  1  0.96464620  0.21517959  0.24924035  1
  Zr  Zr1  1  0.99090411  0.99659134  0.48905611  1
  Zr  Zr2  1  0.77929248  0.24183408  0.53007541  1
  Zr  Zr3  1  0.72597777  0.75962728  0.97132219  1
  Zr  Zr4  1  0.24192983  0.52687225  0.77940131  1
  Zr  Zr5  1  0.25322978  0.03215748  0.28130431  1
  Zr  Zr6  1  0.01201768  0.50949350  0.01720620  1
  Zr  Zr7  1  0.46518770  0.71498307  0.25590419  1
  Zr  Zr8  1  0.54243610  0.29233375  0.75562803  1
  Zr  Zr9  1  0.48876506  0.99560394  0.98689679  1
  Zr  Zr10  1  0.50994848  0.50539330  0.49901211  1
  Zr  Zr11  1  0.75292989  0.47084298  0.21250536  1
  Zr  Zr12  1  0.74252206  0.95507556  0.71491924  1
  Zr  Zr13  1  0.21057905  0.74495841  0.46567740  1
  Zr  Zr14  1  0.29432413  0.25613480  0.03582117  1
  Zr  Zr15  1  0.03529831  0.78656262  0.74938256  1
  N  N0  1  0.04479384  0.27492526  0.53320182  1
  N  N1  1  0.22411122  0.45232453  0.98332780  1
  N  N2  1  0.53257279  0.25987492  0.49022937  1
  N  N3  1  0.73822912  0.01526341  0.96719998  1
  N  N4  1  0.48691874  0.22295299  0.94944816  1
  N  N5  1  0.01182659  0.46507983  0.23865461  1
  N  N6  1  0.72743107  0.96890750  0.45387027  1
  N  N7  1  0.77254908  0.72534991  0.73918981  1
  N  N8  1  0.23808272  0.77300423  0.23027495  1
  N  N9  1  0.26029194  0.99259324  0.03363626  1
  N  N10  1  0.77036587  0.54154460  0.00713764  1
  N  N11  1  0.46777282  0.73803301  0.51430417  1
  N  N12  1  0.27150461  0.75694657  0.73109180  1
  N  N13  1  0.97015989  0.95624178  0.22889617  1
  N  N14  1  0.54169805  0.50655926  0.27288192  1
  N  N15  1  0.95587327  0.73165422  0.46818830  1
  O  O0  1  0.45373818  0.48838131  0.73081401  1
  O  O1  1  0.03216314  0.04359581  0.77143252  1
  O  O2  1  0.72669429  0.23693839  0.27311781  1
  O  O3  1  0.76320399  0.22986346  0.77099207  1
  O  O4  1  0.51509514  0.77134394  0.04500483  1
  O  O5  1  0.22738555  0.27566618  0.26391834  1
  O  O6  1  0.98477115  0.53157615  0.75992705  1
  O  O7  1  0.27277628  0.03773654  0.54990861  1
loop_
_geom_bond_atom_site_label_1
_geom_bond_atom_site_label_2
_geom_bond_distance
_geom_bond_site_symmetry_2
N0 Zr4 2.084215 1_555
N0 Zr0 2.170117 1_455
N0 Zr1 2.197942 1_445
N0 Zr2 2.242389 1_455
N1 Zr4 2.137648 1_555
N1 Zr14 2.147906 1_556
N1 Zr6 2.168309 1_556
N1 Zr7 2.288775 1_556
N2 Zr2 2.146320 1_555
N2 Zr5 2.165563 1_555
N2 Zr10 2.209611 1_555
N2 Zr8 2.220909 1_555
N3 Zr12 2.116575 1_545
N3 Zr0 2.163247 1_556
N3 Zr9 2.209950 1_545
N3 Zr3 2.226018 1_545
N4 Zr14 2.134402 1_556
N4 Zr9 2.134801 1_545
N4 Zr8 2.135548 1_555
N4 Zr11 2.283830 1_556
N5 Zr6 2.109449 1_555
N5 Zr0 2.135665 1_455
N5 Zr13 2.152073 1_555
N5 Zr11 2.228371 1_455
N6 Zr2 2.098743 1_565
N6 Zr1 2.147923 1_555
N6 Zr7 2.154974 1_555
N6 Zr12 2.300116 1_555
N7 Zr10 2.142760 1_555
N7 Zr15 2.152440 1_655
N7 Zr3 2.155005 1_555
N7 Zr12 2.189411 1_555
N8 Zr6 2.095294 1_555
N8 Zr5 2.116539 1_565
N8 Zr7 2.178105 1_555
N8 Zr13 2.243312 1_555
N9 Zr5 2.111653 1_565
N9 Zr9 2.172046 1_554
N9 Zr15 2.178289 1_554
N9 Zr14 2.227001 1_565
N10 Zr11 2.130214 1_555
N10 Zr8 2.145455 1_554
N10 Zr3 2.177348 1_554
N10 Zr6 2.209623 1_655
N11 Zr12 2.107674 1_555
N11 Zr10 2.164509 1_555
N11 Zr13 2.181526 1_555
N11 Zr7 2.202900 1_555
N12 Zr9 2.105831 1_555
N12 Zr4 2.152762 1_555
N12 Zr13 2.169538 1_555
N12 Zr15 2.225128 1_555
N13 Zr3 2.100007 1_554
N13 Zr1 2.126872 1_555
N13 Zr5 2.185271 1_665
N13 Zr0 2.239946 1_565
N14 Zr10 2.099223 1_555
N14 Zr14 2.158336 1_555
N14 Zr11 2.179941 1_555
N14 Zr7 2.181832 1_555
N15 Zr15 2.158577 1_655
N15 Zr11 2.159193 1_555
N15 Zr1 2.179294 1_555
N15 Zr13 2.209601 1_655
O0 Zr4 2.146474 1_555
O0 Zr8 2.156558 1_555
O0 Zr10 2.288837 1_555
O0 Zr3 2.314896 1_555
O1 Zr14 2.209037 1_556
O1 Zr15 2.211512 1_545
O1 Zr12 2.217319 1_445
O1 Zr1 2.253202 1_445
O2 Zr2 2.131507 1_555
O2 Zr0 2.231593 1_555
O2 Zr11 2.249782 1_555
O2 Zr9 2.278369 1_544
O3 Zr8 2.159324 1_555
O3 Zr2 2.202580 1_555
O3 Zr12 2.226789 1_545
O3 Zr6 2.288110 1_656
O4 Zr3 2.177302 1_554
O4 Zr7 2.209695 1_555
O4 Zr9 2.257155 1_554
O4 Zr4 2.307986 1_554
O5 Zr0 2.137785 1_455
O5 Zr10 2.232685 1_555
O5 Zr14 2.238890 1_555
O5 Zr5 2.273965 1_555
O6 Zr15 2.175430 1_655
O6 Zr2 2.215525 1_555
O6 Zr4 2.223705 1_655
O6 Zr6 2.274200 1_656
O7 Zr8 2.195320 1_555
O7 Zr1 2.224060 1_445
O7 Zr13 2.233595 1_545
O7 Zr5 2.291606 1_555
