# generated using pymatgen
data_Li2Cr3TeO8
_symmetry_space_group_name_H-M   'P 1'
_cell_length_a   5.99184973
_cell_length_b   5.99184973
_cell_length_c   9.77148700
_cell_angle_alpha   90.00000000
_cell_angle_beta   90.00000000
_cell_angle_gamma   119.99999698
_symmetry_Int_Tables_number   1
_chemical_formula_structural   Li2Cr3TeO8
_chemical_formula_sum   'Li4 Cr6 Te2 O16'
_cell_volume   303.81774029
_cell_formula_units_Z   2
loop_
 _symmetry_equiv_pos_site_id
 _symmetry_equiv_pos_as_xyz
  1  'x, y, z'
loop_
 _atom_site_type_symbol
 _atom_site_label
 _atom_site_symmetry_multiplicity
 _atom_site_fract_x
 _atom_site_fract_y
 _atom_site_fract_z
 _atom_site_occupancy
  Li  Li0  1  0.33333300  0.66666700  0.90521100  1
  Li  Li1  1  0.00000000  0.00000000  0.99158100  1
  Li  Li2  1  0.00000000  0.00000000  0.49158100  1
  Li  Li3  1  0.66666700  0.33333300  0.40521100  1
  Cr  Cr0  1  0.16969400  0.83030600  0.21496800  1
  Cr  Cr1  1  0.16969400  0.33938800  0.21496800  1
  Cr  Cr2  1  0.66061200  0.83030600  0.21496800  1
  Cr  Cr3  1  0.33938800  0.16969400  0.71496800  1
  Cr  Cr4  1  0.83030600  0.66061200  0.71496800  1
  Cr  Cr5  1  0.83030600  0.16969400  0.71496800  1
  Te  Te0  1  0.33333300  0.66666700  0.48939000  1
  Te  Te1  1  0.66666700  0.33333300  0.98939000  1
  O  O0  1  0.16019900  0.83980100  0.59670400  1
  O  O1  1  0.03304800  0.51652400  0.33805800  1
  O  O2  1  0.33333300  0.66666700  0.11031800  1
  O  O3  1  0.00000000  0.00000000  0.30819500  1
  O  O4  1  0.00000000  0.00000000  0.80819500  1
  O  O5  1  0.16019900  0.32039800  0.59670400  1
  O  O6  1  0.48347600  0.96695200  0.33805800  1
  O  O7  1  0.48347600  0.51652400  0.33805800  1
  O  O8  1  0.32039800  0.16019900  0.09670400  1
  O  O9  1  0.67960200  0.83980100  0.59670400  1
  O  O10  1  0.51652400  0.48347600  0.83805800  1
  O  O11  1  0.51652400  0.03304800  0.83805800  1
  O  O12  1  0.66666700  0.33333300  0.61031800  1
  O  O13  1  0.83980100  0.67960200  0.09670400  1
  O  O14  1  0.96695200  0.48347600  0.83805800  1
  O  O15  1  0.83980100  0.16019900  0.09670400  1
loop_
_geom_bond_atom_site_label_1
_geom_bond_atom_site_label_2
_geom_bond_distance
_geom_bond_site_symmetry_2
Li0 O2 2.004200 1_556
Li0 O11 2.011240 1_565
Li0 O14 2.011240 1_455
Li0 O10 2.011244 1_555
Li1 O4 1.791954 1_555
Li1 O15 1.954306 1_456
Li1 O8 1.954306 1_556
Li1 O13 1.954306 1_446
Li2 O3 1.791954 1_555
Li2 O0 1.954306 1_545
Li2 O5 1.954306 1_555
Li2 O9 1.954306 1_445
Li3 O12 2.004200 1_555
Li3 O1 2.011240 1_655
Li3 O6 2.011240 1_545
Li3 O7 2.011244 1_555
Cr0 O2 1.982379 1_555
Cr0 O3 1.982773 1_565
Cr0 O1 2.027944 1_555
Cr0 O6 2.027944 1_555
Cr0 O8 2.067159 1_565
Cr0 O13 2.067159 1_455
Cr1 O2 1.982383 1_555
Cr1 O3 1.982773 1_555
Cr1 O1 2.027944 1_555
Cr1 O7 2.027944 1_555
Cr1 O8 2.067159 1_555
Cr1 O15 2.067159 1_455
Cr2 O2 1.982383 1_555
Cr2 O3 1.982773 1_665
Cr2 O6 2.027944 1_555
Cr2 O7 2.027944 1_555
Cr2 O13 2.067159 1_555
Cr2 O15 2.067159 1_565
Cr3 O12 1.982383 1_555
Cr3 O4 1.982773 1_555
Cr3 O11 2.027944 1_555
Cr3 O10 2.027944 1_555
Cr3 O5 2.067159 1_555
Cr3 O0 2.067159 1_545
Cr4 O12 1.982383 1_555
Cr4 O4 1.982773 1_665
Cr4 O14 2.027944 1_555
Cr4 O10 2.027944 1_555
Cr4 O9 2.067159 1_555
Cr4 O0 2.067159 1_655
Cr5 O12 1.982379 1_555
Cr5 O4 1.982773 1_655
Cr5 O11 2.027944 1_555
Cr5 O14 2.027944 1_555
Cr5 O5 2.067159 1_655
Cr5 O9 2.067159 1_545
O0 Te0 2.080421 1_555
O1 Te0 2.148180 1_555
O5 Te0 2.080425 1_555
O6 Te0 2.148180 1_555
O7 Te0 2.148184 1_555
O8 Te1 2.080425 1_554
O9 Te0 2.080425 1_555
O10 Te1 2.148184 1_555
O11 Te1 2.148180 1_555
O13 Te1 2.080425 1_554
O14 Te1 2.148180 1_555
O15 Te1 2.080421 1_554
