# generated using pymatgen
data_Ti3P6WO24
_symmetry_space_group_name_H-M   'P 1'
_cell_length_a   8.76553770
_cell_length_b   8.76553770
_cell_length_c   8.76553734
_cell_angle_alpha   58.16711350
_cell_angle_beta   58.16711355
_cell_angle_gamma   58.16711367
_symmetry_Int_Tables_number   1
_chemical_formula_structural   Ti3P6WO24
_chemical_formula_sum   'Ti3 P6 W1 O24'
_cell_volume   456.22949871
_cell_formula_units_Z   1
loop_
 _symmetry_equiv_pos_site_id
 _symmetry_equiv_pos_as_xyz
  1  'x, y, z'
loop_
 _atom_site_type_symbol
 _atom_site_label
 _atom_site_symmetry_multiplicity
 _atom_site_fract_x
 _atom_site_fract_y
 _atom_site_fract_z
 _atom_site_occupancy
  Ti  Ti0  1  0.13969954  0.13969954  0.13969954  1
  Ti  Ti1  1  0.35974411  0.35974411  0.35974411  1
  Ti  Ti2  1  0.64144443  0.64144443  0.64144443  1
  P  P0  1  0.03255500  0.46258237  0.74906874  1
  P  P1  1  0.46258237  0.74906874  0.03255500  1
  P  P2  1  0.74906874  0.03255500  0.46258237  1
  P  P3  1  0.25143403  0.97306252  0.52831974  1
  P  P4  1  0.52831974  0.25143403  0.97306252  1
  P  P5  1  0.97306252  0.52831974  0.25143403  1
  W  W0  1  0.85930002  0.85930002  0.85930002  1
  O  O0  1  0.15204925  0.51259263  0.25351729  1
  O  O1  1  0.25351729  0.15204925  0.51259263  1
  O  O2  1  0.08341492  0.27893545  0.90907002  1
  O  O3  1  0.51259263  0.25351729  0.15204925  1
  O  O4  1  0.19863219  0.46570278  0.56086301  1
  O  O5  1  0.99524317  0.63261650  0.79451099  1
  O  O6  1  0.27893545  0.90907002  0.08341492  1
  O  O7  1  0.46570278  0.56086301  0.19863219  1
  O  O8  1  0.56086301  0.19863219  0.46570278  1
  O  O9  1  0.20420263  0.00135093  0.37110515  1
  O  O10  1  0.08334125  0.92202708  0.72034077  1
  O  O11  1  0.37110515  0.20420263  0.00135093  1
  O  O12  1  0.63261650  0.79451099  0.99524317  1
  O  O13  1  0.90907002  0.08341492  0.27893545  1
  O  O14  1  0.79451099  0.99524317  0.63261650  1
  O  O15  1  0.43166127  0.80134533  0.54682516  1
  O  O16  1  0.54682516  0.43166127  0.80134533  1
  O  O17  1  0.72034077  0.08334125  0.92202708  1
  O  O18  1  0.00135093  0.37110515  0.20420263  1
  O  O19  1  0.80134533  0.54682516  0.43166127  1
  O  O20  1  0.49190007  0.74022489  0.85131578  1
  O  O21  1  0.92202708  0.72034077  0.08334125  1
  O  O22  1  0.74022489  0.85131578  0.49190007  1
  O  O23  1  0.85131578  0.49190007  0.74022489  1
loop_
_geom_bond_atom_site_label_1
_geom_bond_atom_site_label_2
_geom_bond_distance
_geom_bond_site_symmetry_2
O0 P5 1.510047 1_455
O0 Ti1 1.968670 1_555
O1 P3 1.510047 1_545
O1 Ti1 1.968670 1_555
O2 P0 1.509307 1_555
O2 Ti0 1.906309 1_556
O3 P4 1.510047 1_554
O3 Ti1 1.968670 1_555
O4 P0 1.517417 1_555
O4 Ti1 1.918907 1_555
O5 P0 1.568970 1_655
O5 W0 1.915581 1_555
O6 P1 1.509307 1_555
O6 Ti0 1.906309 1_565
O7 P1 1.517417 1_555
O7 Ti1 1.918907 1_555
O8 P2 1.517417 1_555
O8 Ti1 1.918907 1_555
O9 P3 1.505010 1_545
O9 Ti0 1.948428 1_555
O10 P3 1.577668 1_555
O10 W0 1.884638 1_455
O11 P4 1.505010 1_554
O11 Ti0 1.948428 1_555
O12 P1 1.568970 1_556
O12 W0 1.915581 1_555
O13 P2 1.509307 1_555
O13 Ti0 1.906309 1_655
O14 P2 1.568970 1_565
O14 W0 1.915581 1_555
O15 P3 1.513940 1_555
O15 Ti2 1.922898 1_555
O16 P4 1.513940 1_555
O16 Ti2 1.922898 1_555
O17 P4 1.577668 1_555
O17 W0 1.884638 1_545
O18 P5 1.505010 1_455
O18 Ti0 1.948428 1_555
O19 P5 1.513940 1_555
O19 Ti2 1.922898 1_555
O20 P1 1.508018 1_556
O20 Ti2 1.947165 1_555
O21 P5 1.577668 1_555
O21 W0 1.884638 1_554
O22 P2 1.508018 1_565
O22 Ti2 1.947165 1_555
O23 P0 1.508018 1_655
O23 Ti2 1.947165 1_555
