# generated using pymatgen
data_LiFe(CO3)2
_symmetry_space_group_name_H-M   'P 1'
_cell_length_a   6.16427069
_cell_length_b   6.16427069
_cell_length_c   8.30347605
_cell_angle_alpha   82.67357696
_cell_angle_beta   82.67357696
_cell_angle_gamma   126.06705264
_symmetry_Int_Tables_number   1
_chemical_formula_structural   LiFe(CO3)2
_chemical_formula_sum   'Li2 Fe2 C4 O12'
_cell_volume   244.74952340
_cell_formula_units_Z   2
loop_
 _symmetry_equiv_pos_site_id
 _symmetry_equiv_pos_as_xyz
  1  'x, y, z'
loop_
 _atom_site_type_symbol
 _atom_site_label
 _atom_site_symmetry_multiplicity
 _atom_site_fract_x
 _atom_site_fract_y
 _atom_site_fract_z
 _atom_site_occupancy
  Li  Li0  1  0.54544400  0.71813400  0.65595600  1
  Li  Li1  1  0.71813400  0.54544400  0.15595600  1
  Fe  Fe0  1  0.17055800  0.90401400  0.50001500  1
  Fe  Fe1  1  0.90401400  0.17055800  0.00001500  1
  C  C0  1  0.94767300  0.61524100  0.78968100  1
  C  C1  1  0.99704400  0.15000000  0.70523700  1
  C  C2  1  0.61524100  0.94767300  0.28968100  1
  C  C3  1  0.15000000  0.99704400  0.20523700  1
  O  O0  1  0.84489800  0.45979900  0.94254000  1
  O  O1  1  0.20208700  0.84180700  0.74059600  1
  O  O2  1  0.18004100  0.35818300  0.75833400  1
  O  O3  1  0.75722400  0.96355900  0.81391500  1
  O  O4  1  0.04144500  0.12312800  0.55641200  1
  O  O5  1  0.80583200  0.55286700  0.67705400  1
  O  O6  1  0.45979900  0.84489800  0.44254000  1
  O  O7  1  0.35818300  0.18004100  0.25833400  1
  O  O8  1  0.55286700  0.80583200  0.17705400  1
  O  O9  1  0.84180700  0.20208700  0.24059600  1
  O  O10  1  0.96355900  0.75722400  0.31391500  1
  O  O11  1  0.12312800  0.04144500  0.05641200  1
loop_
_geom_bond_atom_site_label_1
_geom_bond_atom_site_label_2
_geom_bond_distance
_geom_bond_site_symmetry_2
Li0 O2 1.966021 1_555
Li0 O3 2.081015 1_555
Li0 O6 2.097814 1_555
Li0 O5 2.365688 1_555
Li0 O4 2.470930 1_665
Li1 O7 1.966021 1_555
Li1 O10 2.081015 1_555
Li1 O0 2.097814 1_554
Li1 O8 2.365688 1_555
Li1 O11 2.470930 1_665
Fe0 O4 2.002270 1_565
Fe0 O6 2.032698 1_555
Fe0 O1 2.041289 1_555
Fe0 O10 2.082024 1_455
Fe0 O7 2.116607 1_565
Fe0 O5 2.125191 1_455
Fe1 O11 2.002270 1_655
Fe1 O0 2.032698 1_554
Fe1 O9 2.041289 1_555
Fe1 O3 2.082024 1_544
Fe1 O2 2.116607 1_654
Fe1 O8 2.125191 1_545
C0 O1 1.299604 1_655
C0 O5 1.300508 1_555
C0 O0 1.304021 1_555
C1 O4 1.284053 1_655
C1 O2 1.296283 1_655
C1 O3 1.309709 1_545
C2 O9 1.299604 1_565
C2 O8 1.300508 1_555
C2 O6 1.304021 1_555
C3 O11 1.284053 1_565
C3 O7 1.296283 1_565
C3 O10 1.309709 1_455
