# generated using pymatgen
data_Ba3(BO3)2
_symmetry_space_group_name_H-M   'P 1'
_cell_length_a   7.13368245
_cell_length_b   7.13368245
_cell_length_c   7.13368247
_cell_angle_alpha   84.30422371
_cell_angle_beta   84.30422371
_cell_angle_gamma   84.30423639
_symmetry_Int_Tables_number   1
_chemical_formula_structural   Ba3(BO3)2
_chemical_formula_sum   'Ba6 B4 O12'
_cell_volume   357.98518275
_cell_formula_units_Z   2
loop_
 _symmetry_equiv_pos_site_id
 _symmetry_equiv_pos_as_xyz
  1  'x, y, z'
loop_
 _atom_site_type_symbol
 _atom_site_label
 _atom_site_symmetry_multiplicity
 _atom_site_fract_x
 _atom_site_fract_y
 _atom_site_fract_z
 _atom_site_occupancy
  Ba  Ba0  1  0.75000000  0.09827093  0.40172907  1
  Ba  Ba1  1  0.59827093  0.25000000  0.90172907  1
  Ba  Ba2  1  0.90172907  0.59827093  0.25000000  1
  Ba  Ba3  1  0.09827093  0.40172907  0.75000000  1
  Ba  Ba4  1  0.40172907  0.75000000  0.09827093  1
  Ba  Ba5  1  0.25000000  0.90172907  0.59827093  1
  B  B0  1  0.88599826  0.88599826  0.88599826  1
  B  B1  1  0.61400174  0.61400174  0.61400174  1
  B  B2  1  0.11400174  0.11400174  0.11400174  1
  B  B3  1  0.38599826  0.38599826  0.38599826  1
  O  O0  1  0.89165522  0.02933909  0.73819825  1
  O  O1  1  0.97066091  0.26180175  0.10834478  1
  O  O2  1  0.76180175  0.47066091  0.60834478  1
  O  O3  1  0.39165522  0.23819825  0.52933909  1
  O  O4  1  0.26180175  0.10834478  0.97066091  1
  O  O5  1  0.52933909  0.39165522  0.23819825  1
  O  O6  1  0.47066091  0.60834478  0.76180175  1
  O  O7  1  0.60834478  0.76180175  0.47066091  1
  O  O8  1  0.73819825  0.89165522  0.02933909  1
  O  O9  1  0.23819825  0.52933909  0.39165522  1
  O  O10  1  0.02933909  0.73819825  0.89165522  1
  O  O11  1  0.10834478  0.97066091  0.26180175  1
loop_
_geom_bond_atom_site_label_1
_geom_bond_atom_site_label_2
_geom_bond_distance
_geom_bond_site_symmetry_2
Ba0 O7 2.678202 1_545
Ba0 O0 2.678202 1_555
Ba0 O1 2.728549 1_555
Ba0 O5 2.728550 1_555
Ba0 O11 2.751694 1_645
Ba0 O3 2.751694 1_555
Ba0 O2 3.175349 1_555
Ba0 O8 3.175349 1_545
Ba1 O4 2.678202 1_555
Ba1 O5 2.678202 1_556
Ba1 O2 2.728549 1_555
Ba1 O0 2.728550 1_555
Ba1 O6 2.751694 1_555
Ba1 O8 2.751694 1_546
Ba1 O1 3.175349 1_556
Ba1 O3 3.175349 1_555
Ba2 O9 2.678202 1_655
Ba2 O1 2.678202 1_555
Ba2 O8 2.728549 1_555
Ba2 O7 2.728549 1_555
Ba2 O10 2.751694 1_654
Ba2 O2 2.751694 1_555
Ba2 O11 3.175349 1_655
Ba2 O5 3.175349 1_555
Ba3 O2 2.678202 1_455
Ba3 O10 2.678202 1_555
Ba3 O3 2.728549 1_555
Ba3 O4 2.728549 1_555
Ba3 O1 2.751694 1_456
Ba3 O9 2.751694 1_555
Ba3 O0 3.175349 1_455
Ba3 O6 3.175349 1_555
Ba4 O8 2.678202 1_555
Ba4 O6 2.678202 1_554
Ba4 O9 2.728549 1_555
Ba4 O11 2.728550 1_555
Ba4 O5 2.751694 1_555
Ba4 O4 2.751694 1_564
Ba4 O10 3.175349 1_554
Ba4 O7 3.175349 1_555
Ba5 O3 2.678202 1_565
Ba5 O11 2.678202 1_555
Ba5 O10 2.728549 1_555
Ba5 O6 2.728550 1_555
Ba5 O0 2.751694 1_465
Ba5 O7 2.751694 1_555
Ba5 O9 3.175349 1_555
Ba5 O4 3.175349 1_565
B0 O0 1.394506 1_565
B0 O8 1.394506 1_556
B0 O10 1.394507 1_655
B1 O6 1.394506 1_555
B1 O7 1.394506 1_555
B1 O2 1.394507 1_555
B2 O11 1.394506 1_545
B2 O4 1.394506 1_554
B2 O1 1.394507 1_455
B3 O5 1.394506 1_555
B3 O3 1.394506 1_555
B3 O9 1.394507 1_555
