# generated using pymatgen
data_Li2VCr(P2O7)2
_symmetry_space_group_name_H-M   'P 1'
_cell_length_a   7.02079400
_cell_length_b   8.22183215
_cell_length_c   14.01517605
_cell_angle_alpha   90.01238718
_cell_angle_beta   99.53886440
_cell_angle_gamma   90.11357654
_symmetry_Int_Tables_number   1
_chemical_formula_structural   Li2VCr(P2O7)2
_chemical_formula_sum   'Li6 V3 Cr3 P12 O42'
_cell_volume   797.82155978
_cell_formula_units_Z   3
loop_
 _symmetry_equiv_pos_site_id
 _symmetry_equiv_pos_as_xyz
  1  'x, y, z'
loop_
 _atom_site_type_symbol
 _atom_site_label
 _atom_site_symmetry_multiplicity
 _atom_site_fract_x
 _atom_site_fract_y
 _atom_site_fract_z
 _atom_site_occupancy
  Li  Li0  1  0.38186300  0.86318200  0.05889300  1
  Li  Li1  1  0.95135900  0.36322300  0.27447600  1
  Li  Li2  1  0.71546900  0.86286500  0.39214800  1
  Li  Li3  1  0.28455300  0.36288800  0.60788400  1
  Li  Li4  1  0.04833800  0.86329500  0.72559000  1
  Li  Li5  1  0.61762300  0.36278200  0.94125100  1
  V  V0  1  0.34310100  0.49956600  0.07216000  1
  V  V1  1  0.99063300  0.99935900  0.26119500  1
  V  V2  1  0.00919500  0.49945500  0.73882900  1
  Cr  Cr0  1  0.67770500  0.49998700  0.40488200  1
  Cr  Cr1  1  0.32266200  0.99980400  0.59527600  1
  Cr  Cr2  1  0.65544200  0.99981000  0.92852700  1
  P  P0  1  0.61151900  0.17986300  0.13302000  1
  P  P1  1  0.98375000  0.78455600  0.06990500  1
  P  P2  1  0.34963800  0.28464400  0.26319800  1
  P  P3  1  0.72190300  0.67976600  0.20023600  1
  P  P4  1  0.31991100  0.78335600  0.40459700  1
  P  P5  1  0.05568300  0.68046300  0.53310200  1
  P  P6  1  0.94441100  0.18053300  0.46698100  1
  P  P7  1  0.68010200  0.28336100  0.59535400  1
  P  P8  1  0.27921700  0.17954000  0.79986900  1
  P  P9  1  0.65113300  0.78587000  0.73715200  1
  P  P10  1  0.01420700  0.28206400  0.92913600  1
  P  P11  1  0.38994700  0.68076500  0.86651800  1
  O  O0  1  0.16427300  0.32245000  0.01711200  1
  O  O1  1  0.15810100  0.69633700  0.04302200  1
  O  O2  1  0.05020300  0.93471100  0.13225000  1
  O  O3  1  0.58036700  0.03660500  0.06217700  1
  O  O4  1  0.57743900  0.34426800  0.08204400  1
  O  O5  1  0.52636200  0.67831700  0.13229300  1
  O  O6  1  0.28364000  0.43477800  0.20099100  1
  O  O7  1  0.44482800  0.15246800  0.19814500  1
  O  O8  1  0.88826300  0.65228400  0.13506700  1
  O  O9  1  0.17495600  0.19660800  0.29010100  1
  O  O10  1  0.16956900  0.82258200  0.31633800  1
  O  O11  1  0.80700500  0.17837200  0.20099000  1
  O  O12  1  0.75601500  0.84416000  0.25117200  1
  O  O13  1  0.75276800  0.53656800  0.27118100  1
  O  O14  1  0.49901800  0.32429200  0.35130300  1
  O  O15  1  0.49383600  0.69334200  0.37710100  1
  O  O16  1  0.22235600  0.65150500  0.46847400  1
  O  O17  1  0.38395800  0.93376000  0.46635600  1
  O  O18  1  0.14017600  0.17955600  0.53382500  1
  O  O19  1  0.91311900  0.03808800  0.39540600  1
  O  O20  1  0.90684200  0.34606800  0.41623800  1
  O  O21  1  0.09323600  0.84596700  0.58382600  1
  O  O22  1  0.08666000  0.53807400  0.60476100  1
  O  O23  1  0.85990800  0.67944500  0.46622600  1
  O  O24  1  0.61635400  0.43377100  0.53370200  1
  O  O25  1  0.77752000  0.15167200  0.53164300  1
  O  O26  1  0.50601500  0.19348200  0.62294900  1
  O  O27  1  0.50138800  0.82433500  0.64883900  1
  O  O28  1  0.24691600  0.03653100  0.72882000  1
  O  O29  1  0.24414100  0.34427000  0.74917600  1
  O  O30  1  0.19356700  0.67936100  0.79952100  1
  O  O31  1  0.83053000  0.32273200  0.68369300  1
  O  O32  1  0.82501100  0.69702100  0.70981600  1
  O  O33  1  0.11133000  0.15162800  0.86467300  1
  O  O34  1  0.55545100  0.65228300  0.80157900  1
  O  O35  1  0.71605500  0.93512000  0.79989000  1
  O  O36  1  0.47419200  0.17846000  0.86761600  1
  O  O37  1  0.42667600  0.84602500  0.91746300  1
  O  O38  1  0.41983200  0.53822200  0.93798300  1
  O  O39  1  0.94887800  0.43330000  0.86787000  1
  O  O40  1  0.83955200  0.19284300  0.95626100  1
  O  O41  1  0.83433000  0.82408300  0.98192900  1
loop_
_geom_bond_atom_site_label_1
_geom_bond_atom_site_label_2
_geom_bond_distance
_geom_bond_site_symmetry_2
Li0 O3 1.987031 1_565
Li0 O5 2.014581 1_555
Li0 O37 2.062672 1_554
Li0 O1 2.067545 1_555
Li1 O13 1.990957 1_555
Li1 O11 2.011212 1_555
Li1 O20 2.066588 1_555
Li1 O9 2.069688 1_655
Li2 O19 1.993543 1_565
Li2 O23 2.009540 1_555
Li2 O12 2.048155 1_555
Li2 O15 2.071448 1_555
Li3 O22 1.998666 1_555
Li3 O18 2.005343 1_555
Li3 O29 2.052175 1_555
Li3 O26 2.074122 1_555
Li4 O28 1.986362 1_565
Li4 O30 2.014165 1_555
Li4 O32 2.062201 1_455
Li4 O21 2.067572 1_555
Li5 O38 1.999491 1_555
Li5 O36 2.006130 1_555
Li5 O4 2.044726 1_556
Li5 O40 2.079496 1_555
Cr0 O14 1.975984 1_555
Cr0 O24 1.999688 1_555
Cr0 O20 2.034232 1_555
Cr0 O23 2.044511 1_555
Cr0 O15 2.046241 1_555
Cr0 O13 2.050948 1_555
Cr1 O27 1.978591 1_555
Cr1 O17 2.000730 1_555
Cr1 O21 2.031309 1_555
Cr1 O26 2.041900 1_565
Cr1 O28 2.051174 1_565
Cr1 O18 2.051759 1_565
Cr2 O41 1.980175 1_555
Cr2 O35 1.992256 1_555
Cr2 O37 2.027727 1_555
Cr2 O36 2.038000 1_565
Cr2 O40 2.041032 1_565
Cr2 O3 2.050746 1_566
O0 P10 1.519362 1_554
O0 V0 1.990813 1_555
O1 P1 1.524035 1_455
O1 V0 2.074591 1_555
O2 P1 1.538637 1_455
O2 V1 1.993572 1_455
O3 P0 1.532141 1_555
O4 P0 1.529652 1_555
O4 V0 2.071032 1_555
O5 P3 1.535666 1_555
O5 V0 2.039164 1_555
O6 P2 1.538615 1_555
O6 V0 1.991866 1_555
O7 P0 1.614468 1_555
O7 P2 1.631952 1_555
O8 P3 1.613682 1_555
O8 P1 1.632979 1_555
O9 P2 1.523158 1_555
O9 V1 2.070388 1_445
O10 P4 1.522172 1_555
O10 V1 1.993464 1_455
O11 P0 1.535588 1_555
O11 V1 2.046413 1_545
O12 P3 1.528230 1_555
O12 V1 2.067884 1_555
O13 P3 1.533578 1_555
O14 P2 1.516634 1_555
O15 P4 1.531896 1_555
O16 P5 1.612056 1_555
O16 P4 1.626792 1_555
O17 P4 1.532612 1_555
O18 P6 1.529724 1_455
O19 P6 1.533490 1_555
O19 V1 2.067700 1_545
O20 P6 1.538614 1_555
O21 P5 1.537065 1_555
O22 P5 1.534798 1_555
O22 V2 2.065301 1_555
O23 P5 1.529958 1_655
O24 P7 1.533197 1_555
O25 P6 1.612891 1_555
O25 P7 1.625521 1_555
O26 P7 1.530590 1_555
O27 P9 1.519037 1_555
O28 P8 1.532666 1_555
O29 P8 1.530855 1_555
O29 V2 2.073399 1_555
O30 P11 1.534144 1_555
O30 V2 2.052790 1_555
O31 P7 1.522543 1_555
O31 V2 1.988158 1_655
O32 P9 1.526138 1_555
O32 V2 2.076142 1_655
O33 P8 1.618866 1_555
O33 P10 1.624178 1_555
O34 P11 1.607744 1_555
O34 P9 1.634462 1_555
O35 P9 1.533355 1_555
O36 P8 1.531245 1_555
O37 P11 1.536112 1_555
O38 P11 1.533802 1_555
O38 V0 2.064678 1_556
O39 P10 1.538176 1_655
O39 V2 1.999827 1_655
O40 P10 1.528822 1_655
O41 P1 1.516320 1_556
