# generated using pymatgen
data_Li3Fe8(BO3)8
_symmetry_space_group_name_H-M   'P 1'
_cell_length_a   5.29551600
_cell_length_b   9.05317900
_cell_length_c   10.17373883
_cell_angle_alpha   90.06718053
_cell_angle_beta   90.98711702
_cell_angle_gamma   89.99904435
_symmetry_Int_Tables_number   1
_chemical_formula_structural   Li3Fe8(BO3)8
_chemical_formula_sum   'Li3 Fe8 B8 O24'
_cell_volume   487.66908114
_cell_formula_units_Z   1
loop_
 _symmetry_equiv_pos_site_id
 _symmetry_equiv_pos_as_xyz
  1  'x, y, z'
loop_
 _atom_site_type_symbol
 _atom_site_label
 _atom_site_symmetry_multiplicity
 _atom_site_fract_x
 _atom_site_fract_y
 _atom_site_fract_z
 _atom_site_occupancy
  Li  Li0  1  0.65576200  0.00682900  0.15350000  1
  Li  Li1  1  0.34204800  0.00046200  0.89139700  1
  Li  Li2  1  0.14978400  0.49456700  0.65079200  1
  Fe  Fe0  1  0.84233100  0.16557300  0.87808800  1
  Fe  Fe1  1  0.15934500  0.15987900  0.62935800  1
  Fe  Fe2  1  0.66775400  0.34222700  0.13094000  1
  Fe  Fe3  1  0.34185100  0.33450100  0.38005500  1
  Fe  Fe4  1  0.66060300  0.66641300  0.62645600  1
  Fe  Fe5  1  0.84387700  0.82983400  0.37928000  1
  Fe  Fe6  1  0.34494100  0.66599500  0.87635000  1
  Fe  Fe7  1  0.15328500  0.83307200  0.12761100  1
  B  B0  1  0.84001100  0.16977700  0.37414200  1
  B  B1  1  0.67482100  0.32961400  0.62636400  1
  B  B2  1  0.17679700  0.16957100  0.12956000  1
  B  B3  1  0.34709100  0.33053900  0.87394400  1
  B  B4  1  0.65678100  0.66968100  0.12707400  1
  B  B5  1  0.33338100  0.66809400  0.38003000  1
  B  B6  1  0.82853900  0.83407900  0.88044200  1
  B  B7  1  0.16068900  0.83133800  0.63299800  1
  O  O0  1  0.74812000  0.03215700  0.34905000  1
  O  O1  1  0.91883600  0.18349300  0.09941800  1
  O  O2  1  0.29960800  0.03917000  0.10619500  1
  O  O3  1  0.80389400  0.20210800  0.66626200  1
  O  O4  1  0.69930600  0.29435000  0.33754400  1
  O  O5  1  0.22140800  0.20141900  0.83045300  1
  O  O6  1  0.08053900  0.19074100  0.43151500  1
  O  O7  1  0.57415300  0.31356400  0.94158600  1
  O  O8  1  0.79030900  0.46208700  0.62663700  1
  O  O9  1  0.41581400  0.31528300  0.58572600  1
  O  O10  1  0.30681600  0.29257000  0.18070700  1
  O  O11  1  0.77528800  0.53710900  0.13905600  1
  O  O12  1  0.24582000  0.46511400  0.84450500  1
  O  O13  1  0.69839900  0.70981700  0.83606000  1
  O  O14  1  0.57884700  0.69444300  0.42166100  1
  O  O15  1  0.23439900  0.52924600  0.39137100  1
  O  O16  1  0.41857400  0.68186700  0.06804800  1
  O  O17  1  0.92785900  0.82071800  0.57046900  1
  O  O18  1  0.77292900  0.79946500  0.17424900  1
  O  O19  1  0.27803500  0.70063800  0.67644400  1
  O  O20  1  0.18947400  0.78496600  0.33170900  1
  O  O21  1  0.70478500  0.96473200  0.89907400  1
  O  O22  1  0.08866100  0.82337500  0.91025700  1
  O  O23  1  0.27384400  0.96515100  0.65502400  1
loop_
_geom_bond_atom_site_label_1
_geom_bond_atom_site_label_2
_geom_bond_distance
_geom_bond_site_symmetry_2
Li0 O2 1.960472 1_555
Li0 O18 1.987505 1_545
Li0 O0 2.053095 1_555
Li0 O1 2.197734 1_555
Li1 O21 1.948174 1_545
Li1 O5 2.022715 1_555
Li1 O22 2.101713 1_545
Li1 O2 2.227996 1_556
Li1 O23 2.446214 1_545
Li2 O8 1.937602 1_455
Li2 O19 2.000652 1_555
Li2 O12 2.044608 1_555
Li2 O9 2.255388 1_555
Fe0 O21 1.971918 1_545
Fe0 O7 2.063658 1_555
Fe0 O5 2.098517 1_655
Fe0 O3 2.186705 1_555
Fe0 O1 2.286605 1_556
Fe1 O23 1.881290 1_545
Fe1 O3 1.963199 1_455
Fe1 O9 2.010783 1_555
Fe1 O6 2.067841 1_555
Fe1 O5 2.100032 1_555
Fe2 O11 1.855241 1_555
Fe2 O1 1.987299 1_555
Fe2 O7 1.997527 1_554
Fe2 O10 2.036082 1_555
Fe2 O4 2.150337 1_555
Fe3 O15 1.856654 1_555
Fe3 O6 1.977228 1_555
Fe3 O4 1.982448 1_555
Fe3 O10 2.068092 1_555
Fe3 O9 2.129462 1_555
Fe4 O8 1.973186 1_555
Fe4 O17 2.075711 1_555
Fe4 O19 2.119906 1_555
Fe4 O14 2.136139 1_555
Fe4 O13 2.173745 1_555
Fe5 O14 1.918378 1_555
Fe5 O0 1.924224 1_565
Fe5 O20 1.943857 1_655
Fe5 O17 1.989624 1_555
Fe5 O18 2.130613 1_555
Fe6 O12 1.918494 1_555
Fe6 O13 1.963587 1_555
Fe6 O16 1.987321 1_556
Fe6 O22 2.001437 1_555
Fe6 O19 2.082514 1_555
Fe7 O2 2.033730 1_565
Fe7 O16 2.059602 1_555
Fe7 O18 2.099504 1_455
Fe7 O20 2.127535 1_555
Fe7 O22 2.233417 1_554
B0 O0 1.359858 1_555
B0 O4 1.398967 1_555
B0 O6 1.404713 1_655
B1 O8 1.346219 1_555
B1 O3 1.398553 1_555
B1 O9 1.431547 1_555
B2 O2 1.370323 1_555
B2 O1 1.400583 1_455
B2 O10 1.403960 1_555
B3 O12 1.362693 1_555
B3 O7 1.383734 1_555
B3 O5 1.412035 1_555
B4 O11 1.358986 1_555
B4 O16 1.392136 1_555
B4 O18 1.406310 1_555
B5 O15 1.367696 1_555
B5 O14 1.380853 1_555
B5 O20 1.389315 1_555
B6 O21 1.366824 1_555
B6 O13 1.390137 1_555
B6 O22 1.408730 1_655
B7 O23 1.368066 1_555
B7 O17 1.380923 1_455
B7 O19 1.404756 1_555
