# generated using pymatgen
data_WOF4
_symmetry_space_group_name_H-M   'P 1'
_cell_length_a   5.01868437
_cell_length_b   5.01868437
_cell_length_c   5.01868437
_cell_angle_alpha   98.88663397
_cell_angle_beta   98.88663397
_cell_angle_gamma   133.71250469
_symmetry_Int_Tables_number   1
_chemical_formula_structural   WOF4
_chemical_formula_sum   'W1 O1 F4'
_cell_volume   84.01553192
_cell_formula_units_Z   1
loop_
 _symmetry_equiv_pos_site_id
 _symmetry_equiv_pos_as_xyz
  1  'x, y, z'
loop_
 _atom_site_type_symbol
 _atom_site_label
 _atom_site_symmetry_multiplicity
 _atom_site_fract_x
 _atom_site_fract_y
 _atom_site_fract_z
 _atom_site_occupancy
  W  W0  1  -0.00141683  -0.00141683  0.00000000  1
  O  O0  1  0.55934026  0.55934026  -0.00000000  1
  F  F0  1  0.34378534  -0.00898889  0.18330466  1
  F  F1  1  -0.00898889  0.80770645  0.64722577  1
  F  F2  1  0.16048068  0.34378534  0.35277423  1
  F  F3  1  0.80770645  0.16048068  0.81669534  1
loop_
_geom_bond_atom_site_label_1
_geom_bond_atom_site_label_2
_geom_bond_distance
_geom_bond_site_symmetry_2
O0 W0 1.732849 1_665
O0 W0 2.212232 1_555
F0 W0 1.859718 1_555
F1 W0 1.859718 1_566
F2 W0 1.859718 1_555
F3 W0 1.859718 1_656
