# generated using pymatgen
data_NaTi5O10
_symmetry_space_group_name_H-M   'P 1'
_cell_length_a   8.46125200
_cell_length_b   9.52081876
_cell_length_c   10.12814056
_cell_angle_alpha   81.85445417
_cell_angle_beta   67.53419742
_cell_angle_gamma   84.68105015
_symmetry_Int_Tables_number   1
_chemical_formula_structural   NaTi5O10
_chemical_formula_sum   'Na4 Ti20 O40'
_cell_volume   745.71259166
_cell_formula_units_Z   4
loop_
 _symmetry_equiv_pos_site_id
 _symmetry_equiv_pos_as_xyz
  1  'x, y, z'
loop_
 _atom_site_type_symbol
 _atom_site_label
 _atom_site_symmetry_multiplicity
 _atom_site_fract_x
 _atom_site_fract_y
 _atom_site_fract_z
 _atom_site_occupancy
  Na  Na0  1  0.80012200  0.80010900  0.80042600  1
  Na  Na1  1  0.59998700  0.59986800  0.60003500  1
  Na  Na2  1  0.19987800  0.19989100  0.19957400  1
  Na  Na3  1  0.40001300  0.40013200  0.39996500  1
  Ti  Ti0  1  0.16226100  0.95865900  0.66233600  1
  Ti  Ti1  1  0.06462600  0.66627100  0.95374600  1
  Ti  Ti2  1  0.26421500  0.86502500  0.15140600  1
  Ti  Ti3  1  0.33466900  0.73753000  0.44615000  1
  Ti  Ti4  1  0.53636800  0.93677800  0.64576000  1
  Ti  Ti5  1  0.13371100  0.53676700  0.24646900  1
  Ti  Ti6  1  0.43551600  0.64217000  0.94283600  1
  Ti  Ti7  1  0.03455100  0.24151900  0.54170300  1
  Ti  Ti8  1  0.23556800  0.44295600  0.74270200  1
  Ti  Ti9  1  0.36143200  0.15687900  0.85913400  1
  Ti  Ti10  1  0.63856800  0.84312100  0.14086600  1
  Ti  Ti11  1  0.96544900  0.75848100  0.45829700  1
  Ti  Ti12  1  0.76443200  0.55704400  0.25729800  1
  Ti  Ti13  1  0.56448400  0.35783000  0.05716400  1
  Ti  Ti14  1  0.86628900  0.46323300  0.75353100  1
  Ti  Ti15  1  0.66533100  0.26247000  0.55385000  1
  Ti  Ti16  1  0.46363200  0.06322200  0.35424000  1
  Ti  Ti17  1  0.73578500  0.13497500  0.84859400  1
  Ti  Ti18  1  0.93537400  0.33372900  0.04625400  1
  Ti  Ti19  1  0.83773900  0.04134100  0.33766400  1
  O  O0  1  0.07927400  0.81689300  0.82067200  1
  O  O1  1  0.03749700  0.92052200  0.28584500  1
  O  O2  1  0.10682800  0.83723100  0.54266900  1
  O  O3  1  0.29478400  0.56448600  0.85654200  1
  O  O4  1  0.09421500  0.36338600  0.65689100  1
  O  O5  1  0.40872600  0.87849900  0.53505200  1
  O  O6  1  0.00890800  0.47802900  0.13409100  1
  O  O7  1  0.20897800  0.67763300  0.33502700  1
  O  O8  1  0.16666100  0.28296700  0.91752700  1
  O  O9  1  0.39042500  0.92108100  0.26599200  1
  O  O10  1  0.19159400  0.71970100  0.06687700  1
  O  O11  1  0.71446400  0.97714600  0.97370000  1
  O  O12  1  0.52294100  0.77917900  0.77402000  1
  O  O13  1  0.12232600  0.37847400  0.37376000  1
  O  O14  1  0.32247800  0.57930300  0.57379800  1
  O  O15  1  0.69049700  0.96297600  0.25946700  1
  O  O16  1  0.49313000  0.76275900  0.05835300  1
  O  O17  1  0.76497200  0.87993900  0.51628800  1
  O  O18  1  0.36448100  0.47952400  0.11638600  1
  O  O19  1  0.56481400  0.67983800  0.31659900  1
  O  O20  1  0.43518600  0.32016200  0.68340100  1
  O  O21  1  0.63551900  0.52047600  0.88361400  1
  O  O22  1  0.23502800  0.12006100  0.48371200  1
  O  O23  1  0.30950300  0.03702400  0.74053300  1
  O  O24  1  0.50687000  0.23724100  0.94164700  1
  O  O25  1  0.67752200  0.42069700  0.42620200  1
  O  O26  1  0.47705900  0.22082100  0.22598000  1
  O  O27  1  0.28553600  0.02285400  0.02630000  1
  O  O28  1  0.87767400  0.62152600  0.62624000  1
  O  O29  1  0.60957500  0.07891900  0.73400800  1
  O  O30  1  0.80840600  0.28029900  0.93312300  1
  O  O31  1  0.83333900  0.71703300  0.08247300  1
  O  O32  1  0.79102200  0.32236700  0.66497300  1
  O  O33  1  0.59127400  0.12150100  0.46494800  1
  O  O34  1  0.99109200  0.52197100  0.86590900  1
  O  O35  1  0.70521600  0.43551400  0.14345800  1
  O  O36  1  0.90578500  0.63661400  0.34310900  1
  O  O37  1  0.89317200  0.16276900  0.45733100  1
  O  O38  1  0.96250300  0.07947800  0.71415500  1
  O  O39  1  0.92072600  0.18310700  0.17932800  1
loop_
_geom_bond_atom_site_label_1
_geom_bond_atom_site_label_2
_geom_bond_distance
_geom_bond_site_symmetry_2
Na0 O11 2.466943 1_555
Na0 O0 2.468994 1_655
Na0 O28 2.488414 1_555
Na0 O12 2.488530 1_555
Na1 O14 2.489829 1_555
Na1 O25 2.490161 1_555
Na1 O12 2.492553 1_555
Na1 O28 2.493072 1_555
Na2 O27 2.466943 1_555
Na2 O39 2.468994 1_455
Na2 O13 2.488414 1_555
Na2 O26 2.488530 1_555
Na3 O25 2.489829 1_555
Na3 O14 2.490161 1_555
Na3 O26 2.492553 1_555
Na3 O13 2.493072 1_555
O0 Ti1 1.801657 1_555
O0 Ti0 1.894270 1_555
O1 Ti19 1.894221 1_465
O1 Ti2 1.957757 1_555
O1 Ti11 2.097484 1_455
O2 Ti11 1.962770 1_455
O2 Ti0 1.989361 1_555
O2 Ti3 2.014085 1_555
O3 Ti8 1.961189 1_555
O3 Ti6 1.967407 1_555
O3 Ti1 2.038628 1_555
O4 Ti7 1.975966 1_555
O4 Ti8 1.977050 1_555
O4 Ti14 2.015465 1_455
O5 Ti3 1.983510 1_555
O5 Ti4 1.986064 1_555
O5 Ti0 2.126583 1_555
O5 Ti16 2.291532 1_565
O6 Ti5 1.982862 1_555
O6 Ti18 1.998471 1_455
O6 Ti12 2.099239 1_455
O6 Ti1 2.311167 1_554
O7 Ti3 1.982933 1_555
O7 Ti5 1.986092 1_555
O7 Ti11 2.099826 1_455
O7 Ti2 2.325990 1_555
O8 Ti9 1.896394 1_555
O8 Ti18 1.953554 1_456
O8 Ti8 2.099220 1_555
O9 Ti16 1.983748 1_565
O9 Ti2 2.000115 1_555
O9 Ti10 2.123522 1_555
O9 Ti3 2.279753 1_555
O10 Ti2 1.979951 1_555
O10 Ti1 1.983191 1_554
O10 Ti6 2.093204 1_554
O10 Ti5 2.271874 1_555
O11 Ti17 1.797794 1_565
O11 Ti10 1.901557 1_556
O12 Ti4 1.821615 1_555
O12 Ti6 1.937110 1_555
O13 Ti5 1.823203 1_555
O13 Ti7 1.931476 1_555
O14 Ti3 1.823855 1_555
O14 Ti8 1.933551 1_555
O15 Ti10 1.955215 1_555
O15 Ti19 1.957024 1_565
O15 Ti16 2.007177 1_565
O16 Ti6 1.960850 1_554
O16 Ti10 1.984910 1_555
O16 Ti2 2.025612 1_555
O17 Ti11 1.904450 1_555
O17 Ti4 1.955076 1_555
O17 Ti19 2.133010 1_565
O18 Ti13 1.903586 1_555
O18 Ti5 1.971182 1_555
O18 Ti6 2.107755 1_554
O19 Ti12 1.907325 1_555
O19 Ti3 1.966859 1_555
O19 Ti10 2.126251 1_555
O20 Ti8 1.907325 1_555
O20 Ti15 1.966859 1_555
O20 Ti9 2.126251 1_555
O21 Ti6 1.903586 1_555
O21 Ti14 1.971182 1_555
O21 Ti13 2.107755 1_556
O22 Ti7 1.904450 1_555
O22 Ti16 1.955076 1_555
O22 Ti0 2.133010 1_545
O23 Ti9 1.955215 1_555
O23 Ti0 1.957024 1_545
O23 Ti4 2.007177 1_545
O24 Ti13 1.960850 1_556
O24 Ti9 1.984910 1_555
O24 Ti17 2.025612 1_555
O25 Ti15 1.823855 1_555
O25 Ti12 1.933551 1_555
O26 Ti16 1.821615 1_555
O26 Ti13 1.937110 1_555
O27 Ti2 1.797794 1_545
O27 Ti9 1.901557 1_554
O28 Ti14 1.823203 1_555
O28 Ti11 1.931476 1_555
O29 Ti4 1.983748 1_545
O29 Ti17 2.000115 1_555
O29 Ti9 2.123522 1_555
O29 Ti15 2.279753 1_555
O30 Ti17 1.979951 1_555
O30 Ti18 1.983191 1_556
O30 Ti13 2.093204 1_556
O30 Ti14 2.271874 1_555
O31 Ti10 1.896394 1_555
O31 Ti1 1.953554 1_654
O31 Ti12 2.099220 1_555
O32 Ti15 1.982933 1_555
O32 Ti14 1.986092 1_555
O32 Ti7 2.099826 1_655
O32 Ti17 2.325990 1_555
O33 Ti15 1.983510 1_555
O33 Ti16 1.986064 1_555
O33 Ti19 2.126583 1_555
O33 Ti4 2.291532 1_545
O34 Ti14 1.982862 1_555
O34 Ti1 1.998471 1_655
O34 Ti8 2.099239 1_655
O34 Ti18 2.311167 1_556
O35 Ti12 1.961189 1_555
O35 Ti13 1.967407 1_555
O35 Ti18 2.038628 1_555
O36 Ti11 1.975966 1_555
O36 Ti12 1.977050 1_555
O36 Ti5 2.015465 1_655
O37 Ti7 1.962770 1_655
O37 Ti19 1.989361 1_555
O37 Ti15 2.014085 1_555
O38 Ti0 1.894221 1_645
O38 Ti17 1.957757 1_555
O38 Ti7 2.097484 1_655
O39 Ti18 1.801657 1_555
O39 Ti19 1.894270 1_555
