# generated using pymatgen
data_TiSb3(PO4)6
_symmetry_space_group_name_H-M   'P 1'
_cell_length_a   8.95649606
_cell_length_b   8.95649606
_cell_length_c   8.95649604
_cell_angle_alpha   58.25223695
_cell_angle_beta   58.25223695
_cell_angle_gamma   58.25223772
_symmetry_Int_Tables_number   1
_chemical_formula_structural   TiSb3(PO4)6
_chemical_formula_sum   'Ti1 Sb3 P6 O24'
_cell_volume   487.70147451
_cell_formula_units_Z   1
loop_
 _symmetry_equiv_pos_site_id
 _symmetry_equiv_pos_as_xyz
  1  'x, y, z'
loop_
 _atom_site_type_symbol
 _atom_site_label
 _atom_site_symmetry_multiplicity
 _atom_site_fract_x
 _atom_site_fract_y
 _atom_site_fract_z
 _atom_site_occupancy
  Ti  Ti0  1  0.85924300  0.85924300  0.85924300  1
  Sb  Sb0  1  0.14292700  0.14292700  0.14292700  1
  Sb  Sb1  1  0.35726600  0.35726600  0.35726600  1
  Sb  Sb2  1  0.64436400  0.64436400  0.64436400  1
  P  P0  1  0.46611600  0.75001500  0.03805300  1
  P  P1  1  0.75001500  0.03805300  0.46611600  1
  P  P2  1  0.03805300  0.46611600  0.75001500  1
  P  P3  1  0.96139300  0.54011700  0.24835200  1
  P  P4  1  0.24835200  0.96139300  0.54011700  1
  P  P5  1  0.54011700  0.24835200  0.96139300  1
  O  O0  1  0.51469500  0.27466600  0.13339100  1
  O  O1  1  0.13339100  0.51469500  0.27466600  1
  O  O2  1  0.28190300  0.91886200  0.06360000  1
  O  O3  1  0.27466600  0.13339100  0.51469500  1
  O  O4  1  0.44259200  0.57531300  0.21907100  1
  O  O5  1  0.63520000  0.78099300  0.00228000  1
  O  O6  1  0.91886200  0.06360000  0.28190300  1
  O  O7  1  0.57531300  0.21907100  0.44259200  1
  O  O8  1  0.21907100  0.44259200  0.57531300  1
  O  O9  1  0.98593300  0.36700400  0.22768300  1
  O  O10  1  0.93649800  0.71416600  0.07550200  1
  O  O11  1  0.22768300  0.98593300  0.36700400  1
  O  O12  1  0.78099300  0.00228000  0.63520000  1
  O  O13  1  0.06360000  0.28190300  0.91886200  1
  O  O14  1  0.00228000  0.63520000  0.78099300  1
  O  O15  1  0.78310800  0.56080200  0.42213800  1
  O  O16  1  0.42213800  0.78310800  0.56080200  1
  O  O17  1  0.07550200  0.93649800  0.71416600  1
  O  O18  1  0.36700400  0.22768300  0.98593300  1
  O  O19  1  0.56080200  0.42213800  0.78310800  1
  O  O20  1  0.72259800  0.87266300  0.48149400  1
  O  O21  1  0.71416600  0.07550200  0.93649800  1
  O  O22  1  0.87266300  0.48149400  0.72259800  1
  O  O23  1  0.48149400  0.72259800  0.87266300  1
loop_
_geom_bond_atom_site_label_1
_geom_bond_atom_site_label_2
_geom_bond_distance
_geom_bond_site_symmetry_2
O0 P5 1.561092 1_554
O0 Sb1 2.010980 1_555
O1 P3 1.561092 1_455
O1 Sb1 2.010980 1_555
O2 P0 1.550039 1_555
O2 Sb0 2.005642 1_565
O3 P4 1.561092 1_545
O3 Sb1 2.010980 1_555
O4 P0 1.561753 1_555
O4 Sb1 1.990324 1_555
O5 P0 1.520214 1_555
O5 Ti0 1.997200 1_554
O6 P1 1.550039 1_555
O6 Sb0 2.005642 1_655
O7 P1 1.561753 1_555
O7 Sb1 1.990324 1_555
O8 P2 1.561753 1_555
O8 Sb1 1.990324 1_555
O9 P3 1.545055 1_555
O9 Sb0 2.022738 1_655
O10 P3 1.527835 1_555
O10 Ti0 1.932482 1_554
O11 P4 1.545055 1_555
O11 Sb0 2.022738 1_565
O12 P1 1.520214 1_555
O12 Ti0 1.997200 1_545
O13 P2 1.550039 1_555
O13 Sb0 2.005642 1_556
O14 P2 1.520214 1_555
O14 Ti0 1.997200 1_455
O15 P3 1.543828 1_555
O15 Sb2 2.012944 1_555
O16 P4 1.543828 1_555
O16 Sb2 2.012944 1_555
O17 P4 1.527835 1_555
O17 Ti0 1.932482 1_455
O18 P5 1.545055 1_555
O18 Sb0 2.022738 1_556
O19 P5 1.543828 1_555
O19 Sb2 2.012944 1_555
O20 P1 1.551148 1_565
O20 Sb2 2.023146 1_555
O21 P5 1.527835 1_555
O21 Ti0 1.932482 1_545
O22 P2 1.551148 1_655
O22 Sb2 2.023146 1_555
O23 P0 1.551148 1_556
O23 Sb2 2.023146 1_555
