# generated using pymatgen
data_Li4Ti3Fe3(SnO8)2
_symmetry_space_group_name_H-M   'P 1'
_cell_length_a   6.03434997
_cell_length_b   6.03434997
_cell_length_c   9.82932549
_cell_angle_alpha   89.36047884
_cell_angle_beta   89.36047884
_cell_angle_gamma   59.64524288
_symmetry_Int_Tables_number   1
_chemical_formula_structural   Li4Ti3Fe3(SnO8)2
_chemical_formula_sum   'Li4 Ti3 Fe3 Sn2 O16'
_cell_volume   308.82735608
_cell_formula_units_Z   1
loop_
 _symmetry_equiv_pos_site_id
 _symmetry_equiv_pos_as_xyz
  1  'x, y, z'
loop_
 _atom_site_type_symbol
 _atom_site_label
 _atom_site_symmetry_multiplicity
 _atom_site_fract_x
 _atom_site_fract_y
 _atom_site_fract_z
 _atom_site_occupancy
  Li  Li0  1  0.66331400  0.66331400  0.10451100  1
  Li  Li1  1  0.99974200  0.99974200  0.00732000  1
  Li  Li2  1  0.00135300  0.00135300  0.50786700  1
  Li  Li3  1  0.33018000  0.33018000  0.60296600  1
  Ti  Ti0  1  0.17056800  0.17056800  0.28256900  1
  Ti  Ti1  1  0.34100800  0.83312800  0.78530300  1
  Ti  Ti2  1  0.83312800  0.34100800  0.78530300  1
  Fe  Fe0  1  0.82873500  0.82873500  0.78712300  1
  Fe  Fe1  1  0.17027800  0.66101400  0.28693500  1
  Fe  Fe2  1  0.66101400  0.17027800  0.28693500  1
  Sn  Sn0  1  0.66870200  0.66870200  0.50724300  1
  Sn  Sn1  1  0.34021600  0.34021600  0.00952700  1
  O  O0  1  0.32681800  0.84109900  0.39750100  1
  O  O1  1  0.51692700  0.51692700  0.66543300  1
  O  O2  1  0.64994200  0.64994200  0.89591900  1
  O  O3  1  0.01115300  0.01115300  0.69397000  1
  O  O4  1  0.00503900  0.00503900  0.19330800  1
  O  O5  1  0.84109900  0.32681800  0.39750100  1
  O  O6  1  0.50249100  0.96035800  0.65712500  1
  O  O7  1  0.96035800  0.50249100  0.65712500  1
  O  O8  1  0.16730300  0.16730300  0.89667500  1
  O  O9  1  0.84099300  0.84099300  0.40222600  1
  O  O10  1  0.03553500  0.47555000  0.16101100  1
  O  O11  1  0.47555000  0.03553500  0.16101100  1
  O  O12  1  0.32474000  0.32474000  0.39392000  1
  O  O13  1  0.17230400  0.68033900  0.90150000  1
  O  O14  1  0.48152100  0.48152100  0.16290300  1
  O  O15  1  0.68033900  0.17230400  0.90150000  1
loop_
_geom_bond_atom_site_label_1
_geom_bond_atom_site_label_2
_geom_bond_distance
_geom_bond_site_symmetry_2
Li0 O14 1.981020 1_555
Li0 O10 2.019614 1_655
Li0 O11 2.019614 1_565
Li0 O2 2.056890 1_554
Li1 O4 1.829691 1_665
Li1 O13 1.968025 1_654
Li1 O15 1.968025 1_564
Li1 O8 2.052255 1_664
Li2 O3 1.833460 1_555
Li2 O9 1.985513 1_445
Li2 O0 2.006359 1_545
Li2 O5 2.006359 1_455
Li3 O6 1.996326 1_545
Li3 O7 1.996326 1_455
Li3 O12 2.056303 1_555
Li3 O1 2.056984 1_555
Fe0 O3 2.107478 1_665
Fe0 O13 2.125372 1_655
Fe0 O15 2.125372 1_565
Fe0 O6 2.142986 1_555
Fe0 O7 2.142986 1_555
Fe0 O2 2.143973 1_555
Fe1 O4 2.009107 1_565
Fe1 O14 2.027128 1_555
Fe1 O12 2.038351 1_555
Fe1 O9 2.051360 1_455
Fe1 O0 2.083531 1_555
Fe1 O10 2.102079 1_555
Fe2 O4 2.009107 1_655
Fe2 O14 2.027128 1_555
Fe2 O12 2.038351 1_555
Fe2 O9 2.051360 1_545
Fe2 O5 2.083531 1_555
Fe2 O11 2.102079 1_555
O0 Ti0 2.048640 1_565
O0 Sn0 2.087445 1_555
O1 Ti2 2.032470 1_555
O1 Ti1 2.032470 1_555
O1 Sn0 2.208967 1_555
O2 Ti1 1.953214 1_555
O2 Ti2 1.953214 1_555
O3 Ti1 1.943993 1_545
O3 Ti2 1.943993 1_455
O4 Ti0 1.952629 1_555
O5 Ti0 2.048640 1_655
O5 Sn0 2.087445 1_555
O6 Ti1 1.957927 1_555
O6 Sn0 2.124768 1_555
O7 Ti2 1.957927 1_555
O7 Sn0 2.124768 1_555
O8 Ti2 2.061751 1_455
O8 Ti1 2.061751 1_545
O8 Sn1 2.135403 1_556
O9 Sn0 2.066856 1_555
O10 Ti0 1.983818 1_555
O10 Sn1 2.170892 1_555
O11 Ti0 1.983818 1_555
O11 Sn1 2.170892 1_555
O12 Ti0 1.961937 1_555
O13 Ti1 2.022393 1_555
O13 Sn1 2.059147 1_556
O14 Sn1 2.125839 1_555
O15 Ti2 2.022393 1_555
O15 Sn1 2.059147 1_556
