# generated using pymatgen
data_LiMnP2O7
_symmetry_space_group_name_H-M   'P 1'
_cell_length_a   8.18946300
_cell_length_b   7.12461700
_cell_length_c   9.71885092
_cell_angle_alpha   68.12434999
_cell_angle_beta   90.00000000
_cell_angle_gamma   90.00000000
_symmetry_Int_Tables_number   1
_chemical_formula_structural   LiMnP2O7
_chemical_formula_sum   'Li4 Mn4 P8 O28'
_cell_volume   526.23212532
_cell_formula_units_Z   4
loop_
 _symmetry_equiv_pos_site_id
 _symmetry_equiv_pos_as_xyz
  1  'x, y, z'
loop_
 _atom_site_type_symbol
 _atom_site_label
 _atom_site_symmetry_multiplicity
 _atom_site_fract_x
 _atom_site_fract_y
 _atom_site_fract_z
 _atom_site_occupancy
  Li  Li0  1  0.62815900  0.21806500  0.86743800  1
  Li  Li1  1  0.82773400  0.59451200  0.50725300  1
  Li  Li2  1  0.37184100  0.21806500  0.36743800  1
  Li  Li3  1  0.17226600  0.59451200  0.00725300  1
  Mn  Mn0  1  0.75148800  0.50341800  0.00075200  1
  Mn  Mn1  1  0.75203900  0.01230300  0.50077200  1
  Mn  Mn2  1  0.24796100  0.01230300  0.00077200  1
  Mn  Mn3  1  0.24851200  0.50341800  0.50075200  1
  P  P0  1  0.99261000  0.34498500  0.79501600  1
  P  P1  1  0.49981200  0.65404900  0.69985400  1
  P  P2  1  0.07700600  0.92399100  0.31701300  1
  P  P3  1  0.57058300  0.07270900  0.18517200  1
  P  P4  1  0.92299400  0.92399100  0.81701300  1
  P  P5  1  0.42941700  0.07270900  0.68517200  1
  P  P6  1  0.00739000  0.34498500  0.29501600  1
  P  P7  1  0.50018800  0.65404900  0.19985400  1
  O  O0  1  0.14421200  0.28214500  0.89276500  1
  O  O1  1  0.02258000  0.44714500  0.62903500  1
  O  O2  1  0.38305000  0.52198200  0.65265700  1
  O  O3  1  0.87742000  0.48025300  0.84066500  1
  O  O4  1  0.60853400  0.84599900  0.19432200  1
  O  O5  1  0.54552800  0.52879200  0.85874200  1
  O  O6  1  0.21476200  0.79921000  0.41425000  1
  O  O7  1  0.08109000  0.94398800  0.15394400  1
  O  O8  1  0.64646500  0.73120500  0.59296800  1
  O  O9  1  0.90520400  0.86676500  0.37979700  1
  O  O10  1  0.39658500  0.12820400  0.13179600  1
  O  O11  1  0.39146600  0.84599900  0.69432200  1
  O  O12  1  0.58228200  0.07578300  0.34337200  1
  O  O13  1  0.70049700  0.19813900  0.07539800  1
  O  O14  1  0.78523800  0.79921000  0.91425000  1
  O  O15  1  0.91891000  0.94398800  0.65394400  1
  O  O16  1  0.12045100  0.14644700  0.32109900  1
  O  O17  1  0.09479600  0.86676500  0.87979700  1
  O  O18  1  0.60341500  0.12820400  0.63179600  1
  O  O19  1  0.85578800  0.28214500  0.39276500  1
  O  O20  1  0.41771800  0.07578300  0.84337200  1
  O  O21  1  0.29950300  0.19813900  0.57539800  1
  O  O22  1  0.97742000  0.44714500  0.12903500  1
  O  O23  1  0.87954900  0.14644700  0.82109900  1
  O  O24  1  0.61695000  0.52198200  0.15265700  1
  O  O25  1  0.12258000  0.48025300  0.34066500  1
  O  O26  1  0.45447200  0.52879200  0.35874200  1
  O  O27  1  0.35353500  0.73120500  0.09296800  1
loop_
_geom_bond_atom_site_label_1
_geom_bond_atom_site_label_2
_geom_bond_distance
_geom_bond_site_symmetry_2
Li0 O20 2.056475 1_555
Li0 O13 2.059675 1_556
Li0 O23 2.207458 1_555
Li0 O5 2.286177 1_555
Li1 O9 1.977089 1_555
Li1 O1 2.030616 1_655
Li1 O8 2.109673 1_555
Li2 O12 2.056475 1_555
Li2 O21 2.059675 1_555
Li2 O16 2.207458 1_555
Li2 O26 2.286177 1_555
Li3 O17 1.977089 1_554
Li3 O22 2.030616 1_455
Li3 O27 2.109673 1_555
Mn0 O24 1.885878 1_555
Mn0 O3 1.924294 1_554
Mn0 O14 1.975875 1_554
Mn0 O13 2.062879 1_555
Mn0 O5 2.143967 1_554
Mn0 O22 2.183149 1_555
Mn1 O15 1.944380 1_545
Mn1 O12 1.990432 1_555
Mn1 O19 2.004002 1_555
Mn1 O8 2.055245 1_545
Mn1 O18 2.137393 1_555
Mn1 O9 2.222469 1_545
Mn2 O7 1.944380 1_545
Mn2 O20 1.990432 1_554
Mn2 O0 2.004002 1_554
Mn2 O27 2.055245 1_545
Mn2 O10 2.137393 1_555
Mn2 O17 2.222469 1_544
Mn3 O2 1.885878 1_555
Mn3 O25 1.924294 1_555
Mn3 O6 1.975875 1_555
Mn3 O21 2.062879 1_555
Mn3 O26 2.143967 1_555
Mn3 O1 2.183149 1_555
O0 P0 1.525592 1_455
O1 P0 1.522267 1_455
O2 P1 1.527000 1_555
O3 P0 1.527785 1_555
O4 P7 1.614200 1_555
O4 P3 1.614438 1_565
O5 P1 1.514670 1_555
O6 P2 1.526462 1_555
O7 P2 1.537819 1_555
O8 P1 1.548610 1_555
O9 P2 1.527326 1_655
O10 P3 1.517588 1_555
O11 P1 1.614200 1_555
O11 P5 1.614438 1_565
O12 P3 1.548782 1_555
O13 P3 1.535674 1_555
O14 P4 1.526462 1_555
O15 P4 1.537819 1_555
O16 P6 1.629477 1_555
O16 P2 1.639212 1_545
O17 P4 1.527326 1_455
O18 P5 1.517588 1_555
O19 P6 1.525592 1_655
O20 P5 1.548782 1_555
O21 P5 1.535674 1_555
O22 P6 1.522267 1_655
O23 P0 1.629477 1_555
O23 P4 1.639212 1_545
O24 P7 1.527000 1_555
O25 P6 1.527785 1_555
O26 P7 1.514670 1_555
O27 P7 1.548610 1_555
