# generated using pymatgen
data_Li4VFe(TeO6)2
_symmetry_space_group_name_H-M   'P 1'
_cell_length_a   5.12576100
_cell_length_b   5.38059282
_cell_length_c   7.46809637
_cell_angle_alpha   93.73764471
_cell_angle_beta   90.07349081
_cell_angle_gamma   90.29187938
_symmetry_Int_Tables_number   1
_chemical_formula_structural   Li4VFe(TeO6)2
_chemical_formula_sum   'Li4 V1 Fe1 Te2 O12'
_cell_volume   205.52632796
_cell_formula_units_Z   1
loop_
 _symmetry_equiv_pos_site_id
 _symmetry_equiv_pos_as_xyz
  1  'x, y, z'
loop_
 _atom_site_type_symbol
 _atom_site_label
 _atom_site_symmetry_multiplicity
 _atom_site_fract_x
 _atom_site_fract_y
 _atom_site_fract_z
 _atom_site_occupancy
  Li  Li0  1  0.00421700  0.43660800  0.27244500  1
  Li  Li1  1  0.49924900  0.93904300  0.79085700  1
  Li  Li2  1  0.99601300  0.40644600  0.80160000  1
  Li  Li3  1  0.49811600  0.95370600  0.27036000  1
  V  V0  1  0.50275800  0.48631600  0.51245200  1
  Fe  Fe0  1  0.99943700  0.98885300  0.00282300  1
  Te  Te0  1  0.99870100  0.98675200  0.49931100  1
  Te  Te1  1  0.50587400  0.49966000  0.01034800  1
  O  O0  1  0.30427500  0.20993800  0.43160100  1
  O  O1  1  0.12326800  0.02348400  0.73878300  1
  O  O2  1  0.33192600  0.81807600  0.04505600  1
  O  O3  1  0.19817500  0.69788700  0.42415200  1
  O  O4  1  0.79870300  0.68849100  0.92630700  1
  O  O5  1  0.37821800  0.50973300  0.73544300  1
  O  O6  1  0.62696500  0.51574900  0.25559900  1
  O  O7  1  0.18630500  0.32905200  0.04803200  1
  O  O8  1  0.80152200  0.31996100  0.55704300  1
  O  O9  1  0.68972000  0.20446700  0.93100600  1
  O  O10  1  0.87815100  0.02618700  0.25979600  1
  O  O11  1  0.67840800  0.81718700  0.55818600  1
loop_
_geom_bond_atom_site_label_1
_geom_bond_atom_site_label_2
_geom_bond_distance
_geom_bond_site_symmetry_2
Li0 O7 1.974302 1_555
Li0 O6 1.987741 1_455
Li0 O3 2.005889 1_555
Li0 O10 2.293733 1_455
Li0 O0 2.338624 1_555
Li0 O8 2.482671 1_455
Li1 O9 1.968888 1_565
Li1 O1 2.025279 1_565
Li1 O11 2.038183 1_555
Li1 O2 2.218705 1_556
Li1 O4 2.321974 1_555
Li1 O5 2.398347 1_555
Li2 O4 2.006745 1_555
Li2 O5 2.101947 1_655
Li2 O8 2.103764 1_555
Li2 O7 2.147380 1_656
Li2 O9 2.168712 1_555
Li2 O1 2.186301 1_655
Li3 O2 1.979704 1_555
Li3 O10 1.987351 1_565
Li3 O0 2.034344 1_565
Li3 O3 2.401359 1_555
Li3 O6 2.446112 1_555
Li3 O11 2.494327 1_555
Fe0 O4 1.964232 1_554
Fe0 O2 1.975014 1_655
Fe0 O10 2.015901 1_565
Fe0 O9 2.061924 1_564
Fe0 O7 2.069495 1_665
Fe0 O1 2.091843 1_664
O0 V0 1.864665 1_555
O0 Te0 2.052590 1_445
O1 Te0 1.896001 1_445
O2 Te1 1.937965 1_555
O3 Te0 1.918367 1_455
O3 V0 2.069178 1_555
O4 Te1 1.936272 1_556
O5 V0 1.781252 1_555
O5 Te1 2.158099 1_556
O6 Te1 1.929563 1_555
O6 V0 2.037553 1_555
O7 Te1 1.903832 1_555
O8 V0 1.819000 1_555
O8 Te0 2.083397 1_545
O9 Te1 1.912026 1_556
O10 Te0 1.916857 1_545
O11 Te0 1.939057 1_555
O11 V0 2.000069 1_555
