# generated using pymatgen
data_Li3Co4SbO8
_symmetry_space_group_name_H-M   'P 1'
_cell_length_a   6.00492988
_cell_length_b   6.00492988
_cell_length_c   6.17841881
_cell_angle_alpha   59.90966573
_cell_angle_beta   59.90966573
_cell_angle_gamma   61.72212858
_symmetry_Int_Tables_number   1
_chemical_formula_structural   Li3Co4SbO8
_chemical_formula_sum   'Li3 Co4 Sb1 O8'
_cell_volume   159.25863444
_cell_formula_units_Z   1
loop_
 _symmetry_equiv_pos_site_id
 _symmetry_equiv_pos_as_xyz
  1  'x, y, z'
loop_
 _atom_site_type_symbol
 _atom_site_label
 _atom_site_symmetry_multiplicity
 _atom_site_fract_x
 _atom_site_fract_y
 _atom_site_fract_z
 _atom_site_occupancy
  Li  Li0  1  0.00000000  0.50000000  0.00000000  1
  Li  Li1  1  0.50000000  0.00000000  0.00000000  1
  Li  Li2  1  0.00000000  0.00000000  0.50000000  1
  Co  Co0  1  0.00000000  0.00000000  0.00000000  1
  Co  Co1  1  0.50000000  0.00000000  0.50000000  1
  Co  Co2  1  0.00000000  0.50000000  0.50000000  1
  Co  Co3  1  0.50000000  0.50000000  0.50000000  1
  Sb  Sb0  1  0.50000000  0.50000000  0.00000000  1
  O  O0  1  0.74021400  0.74021400  0.75525800  1
  O  O1  1  0.27107800  0.73665500  0.22845800  1
  O  O2  1  0.73665500  0.27107800  0.22845800  1
  O  O3  1  0.25978600  0.25978600  0.24474200  1
  O  O4  1  0.25005800  0.25005800  0.73078100  1
  O  O5  1  0.72892200  0.26334500  0.77154200  1
  O  O6  1  0.26334500  0.72892200  0.77154200  1
  O  O7  1  0.74994200  0.74994200  0.26921900  1
loop_
_geom_bond_atom_site_label_1
_geom_bond_atom_site_label_2
_geom_bond_distance
_geom_bond_site_symmetry_2
Li0 O6 2.063646 1_554
Li0 O2 2.063646 1_455
Li0 O3 2.201570 1_555
Li0 O0 2.201570 1_454
Li0 O7 2.266625 1_455
Li0 O4 2.266625 1_554
Li1 O5 2.063646 1_554
Li1 O1 2.063646 1_545
Li1 O3 2.201570 1_555
Li1 O0 2.201570 1_544
Li1 O4 2.266625 1_554
Li1 O7 2.266625 1_545
Li2 O3 2.173998 1_555
Li2 O0 2.173998 1_445
Li2 O6 2.334101 1_545
Li2 O5 2.334101 1_455
Li2 O1 2.334101 1_545
Li2 O2 2.334101 1_455
Co0 O7 2.098485 1_445
Co0 O4 2.098485 1_554
Co0 O2 2.183930 1_455
Co0 O1 2.183930 1_545
Co0 O5 2.183930 1_454
Co0 O6 2.183930 1_544
Co1 O4 2.099072 1_555
Co1 O7 2.099072 1_545
Co1 O2 2.132287 1_555
Co1 O6 2.132287 1_545
Co1 O0 2.164154 1_545
Co1 O3 2.164154 1_555
Co2 O7 2.099072 1_455
Co2 O4 2.099072 1_555
Co2 O1 2.132287 1_555
Co2 O5 2.132287 1_455
Co2 O0 2.164154 1_455
Co2 O3 2.164154 1_555
Co3 O7 2.093079 1_555
Co3 O4 2.093079 1_555
Co3 O5 2.189705 1_555
Co3 O6 2.189705 1_555
Co3 O2 2.189705 1_555
Co3 O1 2.189705 1_555
O0 Sb0 2.011250 1_556
O1 Sb0 2.028874 1_555
O2 Sb0 2.028874 1_555
O3 Sb0 2.011250 1_555
O5 Sb0 2.028874 1_556
O6 Sb0 2.028874 1_556
