# generated using pymatgen
data_Li6V3P8O29
_symmetry_space_group_name_H-M   'P 1'
_cell_length_a   9.83286700
_cell_length_b   9.83603894
_cell_length_c   13.86379600
_cell_angle_alpha   89.99314293
_cell_angle_beta   90.11947412
_cell_angle_gamma   119.97743289
_symmetry_Int_Tables_number   1
_chemical_formula_structural   Li6V3P8O29
_chemical_formula_sum   'Li12 V6 P16 O58'
_cell_volume   1161.47728113
_cell_formula_units_Z   2
loop_
 _symmetry_equiv_pos_site_id
 _symmetry_equiv_pos_as_xyz
  1  'x, y, z'
loop_
 _atom_site_type_symbol
 _atom_site_label
 _atom_site_symmetry_multiplicity
 _atom_site_fract_x
 _atom_site_fract_y
 _atom_site_fract_z
 _atom_site_occupancy
  Li  Li0  1  0.31689900  0.09196100  0.93979300  1
  Li  Li1  1  0.31692100  0.22489500  0.43965800  1
  Li  Li2  1  0.77291600  0.09097200  0.43805400  1
  Li  Li3  1  0.66315600  0.33225200  0.61783000  1
  Li  Li4  1  0.66237800  0.33078600  0.11782600  1
  Li  Li5  1  0.91459200  0.22660100  0.93976500  1
  Li  Li6  1  0.77287700  0.68185800  0.93810400  1
  Li  Li7  1  0.09759400  0.32347800  0.56021800  1
  Li  Li8  1  0.91453500  0.68806500  0.43985200  1
  Li  Li9  1  0.09764900  0.77432200  0.06011900  1
  Li  Li10  1  0.67913100  0.77232500  0.55995600  1
  Li  Li11  1  0.67896100  0.90668600  0.06011800  1
  V  V0  1  0.00227900  0.43390200  0.75198600  1
  V  V1  1  0.00240300  0.56866400  0.25250600  1
  V  V2  1  0.42780200  0.43417200  0.24540000  1
  V  V3  1  0.56420600  0.56695100  0.75144900  1
  V  V4  1  0.42764300  0.99411100  0.74563500  1
  V  V5  1  0.56459000  0.99758500  0.25148600  1
  P  P0  1  0.31814100  0.08853900  0.15662000  1
  P  P1  1  0.31828200  0.22965400  0.65690500  1
  P  P2  1  0.76990800  0.09003500  0.65844600  1
  P  P3  1  0.66518100  0.33129000  0.87373300  1
  P  P4  1  0.66530200  0.33422800  0.37372000  1
  P  P5  1  0.90929300  0.23025900  0.15606100  1
  P  P6  1  0.08615400  0.31672200  0.34157900  1
  P  P7  1  0.76980700  0.67976700  0.15847200  1
  P  P8  1  0.23113700  0.31563000  0.84318900  1
  P  P9  1  0.90952000  0.67941000  0.65607900  1
  P  P10  1  0.08629700  0.76891000  0.84147900  1
  P  P11  1  0.33412000  0.66494100  0.62533500  1
  P  P12  1  0.33421100  0.66971600  0.12511300  1
  P  P13  1  0.23136600  0.91559200  0.34282600  1
  P  P14  1  0.67947900  0.76588200  0.34325600  1
  P  P15  1  0.67962300  0.91366100  0.84312300  1
  O  O0  1  0.23947200  0.00938600  0.42870700  1
  O  O1  1  0.33788500  0.08496700  0.65985700  1
  O  O2  1  0.23927700  0.22989100  0.92871400  1
  O  O3  1  0.33750500  0.25254300  0.15943300  1
  O  O4  1  0.48468500  0.10965300  0.17482000  1
  O  O5  1  0.51417800  0.18374400  0.83380200  1
  O  O6  1  0.62614400  0.11295500  0.67374400  1
  O  O7  1  0.75985500  0.00275700  0.93321300  1
  O  O8  1  0.74297900  0.08092900  0.16011700  1
  O  O9  1  0.51444400  0.33107900  0.33343600  1
  O  O10  1  0.48465900  0.37497600  0.67473600  1
  O  O11  1  0.67123200  0.18605800  0.33551900  1
  O  O12  1  0.66728200  0.33340400  0.98244300  1
  O  O13  1  0.66687500  0.33417700  0.48243300  1
  O  O14  1  0.81448700  0.32720100  0.83514400  1
  O  O15  1  0.62617300  0.51313600  0.17327900  1
  O  O16  1  0.67110200  0.48515300  0.83524700  1
  O  O17  1  0.91938100  0.25485700  0.65826900  1
  O  O18  1  0.99756600  0.20968200  0.24934400  1
  O  O19  1  0.99659800  0.24274600  0.43255400  1
  O  O20  1  0.99331900  0.23904100  0.06571900  1
  O  O21  1  0.88794000  0.37445600  0.17539900  1
  O  O22  1  0.81424600  0.48752000  0.33531900  1
  O  O23  1  0.08512200  0.33643100  0.84158300  1
  O  O24  1  0.88805000  0.51355600  0.67535400  1
  O  O25  1  0.74312900  0.66222300  0.65991600  1
  O  O26  1  0.20696600  0.21374700  0.74569700  1
  O  O27  1  0.24439000  0.24652000  0.56620000  1
  O  O28  1  0.76003600  0.75712000  0.43318900  1
  O  O29  1  0.25016900  0.33450900  0.34201400  1
  O  O30  1  0.09544600  0.47708300  0.32315100  1
  O  O31  1  0.91952800  0.66404000  0.15855400  1
  O  O32  1  0.18623900  0.51404600  0.66653600  1
  O  O33  1  0.09615900  0.61850700  0.82346000  1
  O  O34  1  0.99684400  0.75395400  0.93241100  1
  O  O35  1  0.99378200  0.75429700  0.56566400  1
  O  O36  1  0.99757600  0.78790200  0.74926500  1
  O  O37  1  0.08537600  0.74843100  0.34162200  1
  O  O38  1  0.33532200  0.52163000  0.17172000  1
  O  O39  1  0.38240700  0.47608600  0.82579900  1
  O  O40  1  0.18697600  0.67231800  0.16648000  1
  O  O41  1  0.33750600  0.67045700  0.01806500  1
  O  O42  1  0.33761300  0.66646100  0.51815300  1
  O  O43  1  0.33431000  0.81307600  0.67145900  1
  O  O44  1  0.52178200  0.61741100  0.32611700  1
  O  O45  1  0.48731900  0.67070300  0.66716500  1
  O  O46  1  0.25025800  0.91556800  0.84170400  1
  O  O47  1  0.20675100  0.99290500  0.24560600  1
  O  O48  1  0.24440300  0.99746000  0.06617900  1
  O  O49  1  0.38260300  0.90645500  0.32570600  1
  O  O50  1  0.48780700  0.81670700  0.16684200  1
  O  O51  1  0.52227000  0.90546900  0.82560800  1
  O  O52  1  0.66602400  0.75035700  0.84172900  1
  O  O53  1  0.75687300  0.75727700  0.06829000  1
  O  O54  1  0.79008000  0.78764000  0.25021300  1
  O  O55  1  0.66674100  0.91619200  0.34169300  1
  O  O56  1  0.75662800  0.99939700  0.56822300  1
  O  O57  1  0.79013900  0.00225400  0.75021800  1
loop_
_geom_bond_atom_site_label_1
_geom_bond_atom_site_label_2
_geom_bond_distance
_geom_bond_site_symmetry_2
Li0 O2 1.865736 1_555
Li0 O48 1.945504 1_546
Li0 O46 2.037068 1_545
Li0 O5 2.235775 1_555
Li1 O0 1.866218 1_555
Li1 O27 1.946416 1_555
Li1 O29 2.031979 1_555
Li1 O9 2.239675 1_555
Li2 O19 1.947157 1_555
Li2 O56 1.987547 1_545
Li2 O55 2.007802 1_545
Li2 O11 2.196222 1_555
Li3 O13 1.877458 1_555
Li3 O6 2.145312 1_555
Li3 O10 2.149986 1_555
Li3 O24 2.181384 1_555
Li4 O12 1.877485 1_554
Li4 O15 2.138770 1_555
Li4 O4 2.148415 1_555
Li4 O21 2.186649 1_555
Li5 O20 1.887643 1_556
Li5 O7 1.955169 1_555
Li5 O23 2.007599 1_655
Li5 O14 2.240272 1_555
Li6 O34 1.949113 1_555
Li6 O53 1.987660 1_556
Li6 O52 2.011078 1_555
Li6 O16 2.199583 1_555
Li7 O27 1.937706 1_555
Li7 O19 1.988544 1_455
Li7 O17 2.049854 1_455
Li7 O32 2.192815 1_555
Li8 O35 1.887128 1_555
Li8 O28 1.951490 1_555
Li8 O37 2.010392 1_655
Li8 O22 2.239324 1_555
Li9 O48 1.934179 1_555
Li9 O34 1.987882 1_454
Li9 O31 2.053683 1_455
Li9 O40 2.197127 1_555
Li10 O28 1.966908 1_555
Li10 O56 1.970071 1_555
Li10 O25 2.041167 1_555
Li10 O45 2.211989 1_555
Li11 O7 1.968600 1_564
Li11 O53 1.970819 1_555
Li11 O8 2.043134 1_565
Li11 O50 2.203244 1_555
O0 P13 1.483736 1_545
O1 P1 1.529137 1_555
O1 V4 1.943027 1_545
O2 P8 1.479973 1_555
O3 P0 1.527439 1_555
O3 V2 1.952275 1_555
O4 P0 1.564280 1_555
O4 V5 1.955462 1_545
O5 P3 1.568648 1_555
O5 V4 2.026671 1_545
O6 P2 1.553653 1_555
O6 V4 1.974151 1_545
O7 P15 1.501868 1_545
O8 P5 1.560421 1_555
O8 V5 1.981274 1_545
O9 P4 1.569676 1_555
O9 V2 2.025431 1_555
O10 P1 1.562757 1_555
O10 V3 1.956920 1_555
O11 P4 1.578973 1_555
O11 V5 1.986536 1_545
O12 P3 1.507235 1_555
O13 P4 1.507225 1_555
O14 P3 1.582863 1_555
O14 V0 1.977943 1_655
O15 P7 1.552746 1_555
O15 V2 1.975262 1_555
O16 P3 1.578084 1_555
O16 V3 1.985345 1_555
O17 P2 1.551558 1_555
O17 V0 2.003894 1_655
O18 P6 1.606735 1_655
O18 P5 1.624091 1_555
O19 P6 1.503252 1_655
O20 P5 1.480466 1_555
O21 P5 1.557411 1_555
O21 V1 1.976227 1_655
O22 P4 1.580535 1_555
O22 V1 1.977653 1_655
O23 P8 1.548270 1_555
O23 V0 1.975243 1_555
O24 P9 1.559884 1_555
O24 V0 1.969355 1_655
O25 P9 1.559550 1_555
O25 V3 1.986258 1_555
O26 P1 1.603843 1_555
O26 P8 1.627440 1_555
O27 P1 1.501120 1_555
O28 P14 1.501159 1_555
O29 P6 1.532829 1_555
O29 V2 2.025885 1_555
O30 P6 1.554842 1_555
O30 V1 1.851292 1_555
O31 P7 1.555261 1_555
O31 V1 1.999989 1_655
O32 P11 1.578003 1_555
O32 V0 1.969914 1_555
O33 P10 1.550449 1_555
O33 V0 1.858137 1_555
O34 P10 1.503279 1_655
O35 P9 1.481393 1_555
O36 P10 1.608879 1_655
O36 P9 1.621671 1_555
O37 P13 1.551001 1_555
O37 V1 1.968063 1_555
O38 P12 1.598405 1_555
O38 V2 1.840648 1_555
O39 P8 1.554639 1_555
O39 V3 1.862175 1_555
O40 P12 1.570354 1_555
O40 V1 1.978717 1_555
O41 P12 1.484450 1_555
O42 P11 1.486319 1_555
O43 P11 1.590418 1_555
O43 V4 1.853099 1_555
O44 P14 1.526158 1_555
O44 V2 1.920008 1_555
O45 P11 1.587378 1_555
O45 V3 1.935308 1_555
O46 P10 1.534936 1_555
O46 V4 2.018876 1_555
O47 P0 1.606933 1_565
O47 P13 1.623535 1_555
O48 P0 1.499264 1_565
O49 P13 1.552705 1_555
O49 V5 1.862511 1_555
O50 P12 1.587603 1_555
O50 V5 1.940840 1_555
O51 P15 1.527492 1_555
O51 V4 1.913472 1_555
O52 P15 1.543923 1_555
O52 V3 2.003428 1_555
O53 P7 1.502192 1_555
O54 P7 1.603473 1_555
O54 P14 1.632675 1_555
O55 P14 1.544998 1_555
O55 V5 2.002990 1_555
O56 P2 1.503227 1_565
O57 P2 1.604417 1_555
O57 P15 1.630489 1_545
