# generated using pymatgen
data_Na5VO5
_symmetry_space_group_name_H-M   'P 1'
_cell_length_a   5.92629922
_cell_length_b   5.92629922
_cell_length_c   9.97080510
_cell_angle_alpha   81.08416866
_cell_angle_beta   81.08416866
_cell_angle_gamma   116.55106833
_symmetry_Int_Tables_number   1
_chemical_formula_structural   Na5VO5
_chemical_formula_sum   'Na10 V2 O10'
_cell_volume   299.33781380
_cell_formula_units_Z   2
loop_
 _symmetry_equiv_pos_site_id
 _symmetry_equiv_pos_as_xyz
  1  'x, y, z'
loop_
 _atom_site_type_symbol
 _atom_site_label
 _atom_site_symmetry_multiplicity
 _atom_site_fract_x
 _atom_site_fract_y
 _atom_site_fract_z
 _atom_site_occupancy
  Na  Na0  1  0.67384700  0.98265800  0.58024700  1
  Na  Na1  1  0.55862600  0.78493400  0.94764800  1
  Na  Na2  1  0.66587700  0.33412300  0.75000000  1
  Na  Na3  1  0.98265800  0.67384700  0.08024700  1
  Na  Na4  1  0.78493400  0.55862600  0.44764800  1
  Na  Na5  1  0.21506600  0.44137400  0.55235200  1
  Na  Na6  1  0.01734200  0.32615300  0.91975300  1
  Na  Na7  1  0.33412300  0.66587700  0.25000000  1
  Na  Na8  1  0.44137400  0.21506600  0.05235200  1
  Na  Na9  1  0.32615300  0.01734200  0.41975300  1
  V  V0  1  0.09310000  0.90690000  0.75000000  1
  V  V1  1  0.90690000  0.09310000  0.25000000  1
  O  O0  1  0.29426100  0.95526100  0.87579200  1
  O  O1  1  0.39817300  0.18512900  0.60854400  1
  O  O2  1  0.95526100  0.29426100  0.37579200  1
  O  O3  1  0.18512900  0.39817300  0.10854400  1
  O  O4  1  0.91512300  0.08487700  0.75000000  1
  O  O5  1  0.08487700  0.91512300  0.25000000  1
  O  O6  1  0.81487100  0.60182700  0.89145600  1
  O  O7  1  0.04473900  0.70573900  0.62420800  1
  O  O8  1  0.60182700  0.81487100  0.39145600  1
  O  O9  1  0.70573900  0.04473900  0.12420800  1
loop_
_geom_bond_atom_site_label_1
_geom_bond_atom_site_label_2
_geom_bond_distance
_geom_bond_site_symmetry_2
Na0 O8 2.272476 1_555
Na0 O2 2.318044 1_565
Na0 O4 2.360072 1_565
Na0 O1 2.429609 1_565
Na1 O6 2.279359 1_555
Na1 O0 2.350395 1_555
Na1 O4 2.402749 1_565
Na1 O3 2.439383 1_556
Na1 O9 2.519078 1_566
Na2 O6 2.261242 1_555
Na2 O1 2.261242 1_555
Na2 O0 2.305385 1_545
Na2 O7 2.305385 1_655
Na2 O4 2.512814 1_555
Na3 O6 2.272476 1_554
Na3 O0 2.318044 1_654
Na3 O5 2.360072 1_655
Na3 O3 2.429609 1_655
Na4 O8 2.279359 1_555
Na4 O2 2.350395 1_555
Na4 O5 2.402749 1_655
Na4 O1 2.439383 1_555
Na4 O7 2.519078 1_655
Na5 O1 2.279359 1_555
Na5 O7 2.350395 1_555
Na5 O4 2.402749 1_455
Na5 O8 2.439383 1_555
Na5 O2 2.519078 1_455
Na6 O3 2.272476 1_556
Na6 O9 2.318044 1_456
Na6 O4 2.360072 1_455
Na6 O6 2.429609 1_455
Na7 O8 2.261242 1_555
Na7 O3 2.261242 1_555
Na7 O2 2.305385 1_455
Na7 O9 2.305385 1_565
Na7 O5 2.512814 1_555
Na8 O3 2.279359 1_555
Na8 O9 2.350395 1_555
Na8 O5 2.402749 1_545
Na8 O6 2.439383 1_554
Na8 O0 2.519078 1_544
Na9 O1 2.272476 1_555
Na9 O7 2.318044 1_545
Na9 O5 2.360072 1_545
Na9 O8 2.429609 1_545
O0 V0 1.829187 1_555
O1 V0 1.949473 1_545
O2 V1 1.829187 1_555
O3 V1 1.949473 1_455
O4 V0 1.794304 1_645
O5 V1 1.794304 1_465
O6 V0 1.949473 1_655
O7 V0 1.829187 1_555
O8 V1 1.949473 1_565
O9 V1 1.829187 1_555
