# generated using pymatgen
data_Fe6O5F7
_symmetry_space_group_name_H-M   'P 1'
_cell_length_a   5.69998391
_cell_length_b   5.69998391
_cell_length_c   7.70320706
_cell_angle_alpha   69.45618084
_cell_angle_beta   69.45618084
_cell_angle_gamma   69.27721540
_symmetry_Int_Tables_number   1
_chemical_formula_structural   Fe6O5F7
_chemical_formula_sum   'Fe6 O5 F7'
_cell_volume   211.72329432
_cell_formula_units_Z   1
loop_
 _symmetry_equiv_pos_site_id
 _symmetry_equiv_pos_as_xyz
  1  'x, y, z'
loop_
 _atom_site_type_symbol
 _atom_site_label
 _atom_site_symmetry_multiplicity
 _atom_site_fract_x
 _atom_site_fract_y
 _atom_site_fract_z
 _atom_site_occupancy
  Fe  Fe0  1  0.66887900  0.33112100  0.50000000  1
  Fe  Fe1  1  0.34083200  0.99537200  0.33087900  1
  Fe  Fe2  1  0.64296400  0.35703600  0.00000000  1
  Fe  Fe3  1  0.35186100  0.99643600  0.82726300  1
  Fe  Fe4  1  0.00356400  0.64813900  0.17273700  1
  Fe  Fe5  1  0.00462800  0.65916800  0.66912100  1
  O  O0  1  0.63706400  0.69745800  0.33108600  1
  O  O1  1  0.33695400  0.66304600  0.00000000  1
  O  O2  1  0.03718200  0.29168400  0.33418100  1
  O  O3  1  0.70831600  0.96281800  0.66581900  1
  O  O4  1  0.30254200  0.36293600  0.66891400  1
  F  F0  1  0.95812600  0.04187400  0.00000000  1
  F  F1  1  0.90456100  0.57389300  0.96174700  1
  F  F2  1  0.23331000  0.89587700  0.62726000  1
  F  F3  1  0.56318700  0.22420200  0.30536000  1
  F  F4  1  0.77579800  0.43681300  0.69464000  1
  F  F5  1  0.42610700  0.09543900  0.03825300  1
  F  F6  1  0.10412300  0.76669000  0.37274000  1
loop_
_geom_bond_atom_site_label_1
_geom_bond_atom_site_label_2
_geom_bond_distance
_geom_bond_site_symmetry_2
Fe0 O3 2.018613 1_545
Fe0 O2 2.018613 1_655
Fe0 O0 2.019128 1_555
Fe0 O4 2.019128 1_555
Fe1 O0 1.924964 1_555
Fe1 O2 1.944072 1_565
Fe2 O1 1.982860 1_555
Fe3 O1 1.910292 1_556
Fe3 O3 1.956989 1_555
Fe3 O4 1.991894 1_565
Fe4 O1 1.910292 1_555
Fe4 O2 1.956989 1_555
Fe4 O0 1.991894 1_455
Fe5 O4 1.924964 1_555
Fe5 O3 1.944072 1_455
F0 Fe2 2.042162 1_555
F0 Fe4 2.146869 1_645
F0 Fe3 2.146869 1_644
F1 Fe5 2.041482 1_655
F1 Fe4 2.105857 1_656
F1 Fe2 2.139731 1_556
F2 Fe1 2.065162 1_555
F2 Fe5 2.065855 1_555
F2 Fe3 2.187097 1_555
F3 Fe1 2.039941 1_545
F3 Fe0 2.125445 1_555
F3 Fe2 2.134498 1_555
F4 Fe5 2.039941 1_655
F4 Fe0 2.125445 1_555
F4 Fe2 2.134498 1_556
F5 Fe1 2.041482 1_545
F5 Fe3 2.105857 1_544
F5 Fe2 2.139731 1_555
F6 Fe5 2.065162 1_555
F6 Fe1 2.065855 1_555
F6 Fe4 2.187097 1_555
