# generated using pymatgen
data_Li6V(BO3)3
_symmetry_space_group_name_H-M   'P 1'
_cell_length_a   16.29471400
_cell_length_b   6.55286300
_cell_length_c   7.04817735
_cell_angle_alpha   75.27270965
_cell_angle_beta   90.00000000
_cell_angle_gamma   90.00000000
_symmetry_Int_Tables_number   1
_chemical_formula_structural   Li6V(BO3)3
_chemical_formula_sum   'Li24 V4 B12 O36'
_cell_volume   727.85864134
_cell_formula_units_Z   4
loop_
 _symmetry_equiv_pos_site_id
 _symmetry_equiv_pos_as_xyz
  1  'x, y, z'
loop_
 _atom_site_type_symbol
 _atom_site_label
 _atom_site_symmetry_multiplicity
 _atom_site_fract_x
 _atom_site_fract_y
 _atom_site_fract_z
 _atom_site_occupancy
  Li  Li0  1  0.00529000  0.32087800  0.06513000  1
  Li  Li1  1  0.44519200  0.41285900  0.13546900  1
  Li  Li2  1  0.49471000  0.82087800  0.06513000  1
  Li  Li3  1  0.53727600  0.05114600  0.30580200  1
  Li  Li4  1  0.05480800  0.91285900  0.13546900  1
  Li  Li5  1  0.29258400  0.36511900  0.27053500  1
  Li  Li6  1  0.96272400  0.55114600  0.30580200  1
  Li  Li7  1  0.70619300  0.04812100  0.41637800  1
  Li  Li8  1  0.03121000  0.16966500  0.46060000  1
  Li  Li9  1  0.20741600  0.86511900  0.27053500  1
  Li  Li10  1  0.79380700  0.54812100  0.41637800  1
  Li  Li11  1  0.46879000  0.66966500  0.46060000  1
  Li  Li12  1  0.53121000  0.33033500  0.53940000  1
  Li  Li13  1  0.20619300  0.45187900  0.58362200  1
  Li  Li14  1  0.79258400  0.13488100  0.72946500  1
  Li  Li15  1  0.96879000  0.83033500  0.53940000  1
  Li  Li16  1  0.29380700  0.95187900  0.58362200  1
  Li  Li17  1  0.03727600  0.44885400  0.69419800  1
  Li  Li18  1  0.70741600  0.63488100  0.72946500  1
  Li  Li19  1  0.94519200  0.08714100  0.86453100  1
  Li  Li20  1  0.46272400  0.94885400  0.69419800  1
  Li  Li21  1  0.50529000  0.17912200  0.93487000  1
  Li  Li22  1  0.55480800  0.58714100  0.86453100  1
  Li  Li23  1  0.99471000  0.67912200  0.93487000  1
  V  V0  1  0.81675600  0.33228400  0.07777400  1
  V  V1  1  0.68324400  0.83228400  0.07777400  1
  V  V2  1  0.31675600  0.16771600  0.92222600  1
  V  V3  1  0.18324400  0.66771600  0.92222600  1
  B  B0  1  0.63849300  0.34590300  0.08275600  1
  B  B1  1  0.86150700  0.84590300  0.08275600  1
  B  B2  1  0.12481800  0.50075200  0.27781500  1
  B  B3  1  0.88140100  0.18840300  0.43016100  1
  B  B4  1  0.37518200  0.00075200  0.27781500  1
  B  B5  1  0.61859900  0.68840300  0.43016100  1
  B  B6  1  0.38140100  0.31159700  0.56983900  1
  B  B7  1  0.62481800  0.99924800  0.72218500  1
  B  B8  1  0.11859900  0.81159700  0.56983900  1
  B  B9  1  0.87518200  0.49924800  0.72218500  1
  B  B10  1  0.13849300  0.15409700  0.91724400  1
  B  B11  1  0.36150700  0.65409700  0.91724400  1
  O  O0  1  0.33460700  0.44948600  0.99719800  1
  O  O1  1  0.42155900  0.03408600  0.10791500  1
  O  O2  1  0.55487300  0.31427000  0.10536700  1
  O  O3  1  0.69552900  0.18254800  0.12201800  1
  O  O4  1  0.16539300  0.94948600  0.99719800  1
  O  O5  1  0.07844100  0.53408600  0.10791500  1
  O  O6  1  0.29448000  0.06613900  0.24245500  1
  O  O7  1  0.94512700  0.81427000  0.10536700  1
  O  O8  1  0.80447100  0.68254800  0.12201800  1
  O  O9  1  0.92827200  0.26586900  0.26283100  1
  O  O10  1  0.20552000  0.56613900  0.24245500  1
  O  O11  1  0.57172800  0.76586900  0.26283100  1
  O  O12  1  0.79903900  0.23931800  0.40131800  1
  O  O13  1  0.41735700  0.42360800  0.39951000  1
  O  O14  1  0.59173300  0.08107000  0.54026000  1
  O  O15  1  0.09173300  0.41893000  0.45974000  1
  O  O16  1  0.70096100  0.73931800  0.40131800  1
  O  O17  1  0.91735700  0.07639200  0.60049000  1
  O  O18  1  0.08264300  0.92360800  0.39951000  1
  O  O19  1  0.29903900  0.26068200  0.59868200  1
  O  O20  1  0.90826700  0.58107000  0.54026000  1
  O  O21  1  0.40826700  0.91893000  0.45974000  1
  O  O22  1  0.58264300  0.57639200  0.60049000  1
  O  O23  1  0.20096100  0.76068200  0.59868200  1
  O  O24  1  0.42827200  0.23413100  0.73716900  1
  O  O25  1  0.79448000  0.43386100  0.75754500  1
  O  O26  1  0.07172800  0.73413100  0.73716900  1
  O  O27  1  0.19552900  0.31745200  0.87798200  1
  O  O28  1  0.05487300  0.18573000  0.89463300  1
  O  O29  1  0.70552000  0.93386100  0.75754500  1
  O  O30  1  0.92155900  0.46591400  0.89208500  1
  O  O31  1  0.83460700  0.05051400  0.00280200  1
  O  O32  1  0.30447100  0.81745200  0.87798200  1
  O  O33  1  0.44512700  0.68573000  0.89463300  1
  O  O34  1  0.57844100  0.96591400  0.89208500  1
  O  O35  1  0.66539300  0.55051400  0.00280200  1
loop_
_geom_bond_atom_site_label_1
_geom_bond_atom_site_label_2
_geom_bond_distance
_geom_bond_site_symmetry_2
Li0 O9 1.841521 1_455
Li0 O28 1.849926 1_554
Li0 O30 1.913888 1_454
Li0 O5 1.917786 1_555
Li1 O2 1.930344 1_555
Li1 O13 1.934083 1_555
Li1 O0 2.033586 1_554
Li1 O33 2.129648 1_554
Li1 O1 2.567421 1_555
Li2 O11 1.841521 1_555
Li2 O33 1.849926 1_554
Li2 O34 1.913888 1_554
Li2 O1 1.917786 1_565
Li3 O14 1.929086 1_555
Li3 O2 1.952540 1_555
Li3 O11 2.046786 1_545
Li3 O1 2.364841 1_555
Li3 O21 2.422598 1_545
Li4 O7 1.930344 1_455
Li4 O18 1.934083 1_555
Li4 O4 2.033586 1_554
Li4 O28 2.129648 1_564
Li4 O5 2.567421 1_555
Li5 O10 1.911660 1_555
Li5 O0 1.986079 1_554
Li5 O6 2.018820 1_555
Li5 O19 2.241399 1_555
Li5 O13 2.298706 1_555
Li6 O20 1.929086 1_555
Li6 O7 1.952540 1_555
Li6 O9 2.046786 1_555
Li6 O5 2.364841 1_655
Li6 O15 2.422598 1_655
Li7 O12 1.949934 1_555
Li7 O3 2.044830 1_555
Li7 O16 2.054865 1_545
Li7 O14 2.093661 1_555
Li7 O29 2.329690 1_545
Li8 O15 1.906724 1_555
Li8 O18 1.959726 1_545
Li8 O17 2.116857 1_455
Li8 O9 2.169588 1_455
Li9 O6 1.911660 1_565
Li9 O4 1.986079 1_554
Li9 O10 2.018820 1_555
Li9 O23 2.241399 1_555
Li9 O18 2.298706 1_555
Li10 O16 1.949934 1_555
Li10 O8 2.044830 1_555
Li10 O12 2.054865 1_555
Li10 O20 2.093661 1_555
Li10 O25 2.329690 1_555
Li11 O21 1.906724 1_555
Li11 O13 1.959726 1_555
Li11 O22 2.116857 1_555
Li11 O11 2.169588 1_555
Li12 O14 1.906724 1_555
Li12 O22 1.959726 1_555
Li12 O13 2.116857 1_555
Li12 O24 2.169588 1_555
Li13 O19 1.949934 1_555
Li13 O27 2.044830 1_555
Li13 O23 2.054865 1_555
Li13 O15 2.093661 1_555
Li13 O10 2.329690 1_555
Li14 O29 1.911660 1_545
Li14 O31 1.986079 1_556
Li14 O25 2.018820 1_555
Li14 O12 2.241399 1_555
Li14 O17 2.298706 1_555
Li15 O20 1.906724 1_555
Li15 O17 1.959726 1_565
Li15 O18 2.116857 1_655
Li15 O26 2.169588 1_655
Li16 O23 1.949934 1_555
Li16 O32 2.044830 1_555
Li16 O19 2.054865 1_565
Li16 O21 2.093661 1_555
Li16 O6 2.329690 1_565
Li17 O15 1.929086 1_555
Li17 O28 1.952540 1_555
Li17 O26 2.046786 1_555
Li17 O30 2.364841 1_455
Li17 O20 2.422598 1_455
Li18 O25 1.911660 1_555
Li18 O35 1.986079 1_556
Li18 O29 2.018820 1_555
Li18 O16 2.241399 1_555
Li18 O22 2.298706 1_555
Li19 O28 1.930344 1_655
Li19 O17 1.934083 1_555
Li19 O31 2.033586 1_556
Li19 O7 2.129648 1_546
Li19 O30 2.567421 1_555
Li20 O21 1.929086 1_555
Li20 O33 1.952540 1_555
Li20 O24 2.046786 1_565
Li20 O34 2.364841 1_555
Li20 O14 2.422598 1_565
Li21 O24 1.841521 1_555
Li21 O2 1.849926 1_556
Li21 O1 1.913888 1_556
Li21 O34 1.917786 1_545
Li22 O33 1.930344 1_555
Li22 O22 1.934083 1_555
Li22 O35 2.033586 1_556
Li22 O2 2.129648 1_556
Li22 O34 2.567421 1_555
Li23 O26 1.841521 1_655
Li23 O7 1.849926 1_556
Li23 O5 1.913888 1_656
Li23 O30 1.917786 1_555
B0 O2 1.381358 1_555
B0 O35 1.386812 1_555
B0 O3 1.391249 1_555
B1 O7 1.381358 1_555
B1 O31 1.386812 1_565
B1 O8 1.391249 1_555
B2 O15 1.368469 1_555
B2 O5 1.385559 1_555
B2 O10 1.385884 1_555
B3 O17 1.369387 1_555
B3 O12 1.385387 1_555
B3 O9 1.388353 1_555
B4 O21 1.368469 1_545
B4 O1 1.385559 1_555
B4 O6 1.385884 1_555
B5 O22 1.369387 1_555
B5 O16 1.385387 1_555
B5 O11 1.388353 1_555
B6 O13 1.369387 1_555
B6 O19 1.385387 1_555
B6 O24 1.388353 1_555
B7 O14 1.368469 1_565
B7 O34 1.385559 1_555
B7 O29 1.385884 1_555
B8 O18 1.369387 1_555
B8 O23 1.385387 1_555
B8 O26 1.388353 1_555
B9 O20 1.368469 1_555
B9 O30 1.385559 1_555
B9 O25 1.385884 1_555
B10 O28 1.381358 1_555
B10 O4 1.386812 1_545
B10 O27 1.391249 1_555
B11 O33 1.381358 1_555
B11 O0 1.386812 1_555
B11 O32 1.391249 1_555
O0 V2 2.066178 1_555
O1 V2 2.193929 1_554
O3 V0 2.192366 1_555
O3 V1 2.401940 1_545
O4 V3 2.066178 1_555
O5 V3 2.193929 1_554
O6 V2 2.214759 1_554
O8 V1 2.192366 1_555
O8 V0 2.401940 1_555
O9 V0 2.214488 1_555
O10 V3 2.214759 1_554
O11 V1 2.214488 1_555
O12 V0 2.224487 1_555
O16 V1 2.224487 1_555
O19 V2 2.224487 1_555
O23 V3 2.224487 1_555
O24 V2 2.214488 1_555
O25 V0 2.214759 1_556
O26 V3 2.214488 1_555
O27 V2 2.192366 1_555
O27 V3 2.401940 1_555
O29 V1 2.214759 1_556
O30 V0 2.193929 1_556
O31 V0 2.066178 1_555
O32 V3 2.192366 1_555
O32 V2 2.401940 1_565
O34 V1 2.193929 1_556
O35 V1 2.066178 1_555
