# generated using pymatgen
data_Li2FeO2F
_symmetry_space_group_name_H-M   'P 1'
_cell_length_a   4.09957945
_cell_length_b   8.88306000
_cell_length_c   5.88302484
_cell_angle_alpha   90.00128130
_cell_angle_beta   90.00018341
_cell_angle_gamma   90.00002029
_symmetry_Int_Tables_number   1
_chemical_formula_structural   Li2FeO2F
_chemical_formula_sum   'Li8 Fe4 O8 F4'
_cell_volume   214.24099921
_cell_formula_units_Z   4
loop_
 _symmetry_equiv_pos_site_id
 _symmetry_equiv_pos_as_xyz
  1  'x, y, z'
loop_
 _atom_site_type_symbol
 _atom_site_label
 _atom_site_symmetry_multiplicity
 _atom_site_fract_x
 _atom_site_fract_y
 _atom_site_fract_z
 _atom_site_occupancy
  Li  Li0  1  0.24999400  0.74717200  0.85809600  1
  Li  Li1  1  0.24999400  0.75283100  0.35808300  1
  Li  Li2  1  0.75000500  0.24716900  0.64192000  1
  Li  Li3  1  0.75000500  0.25282700  0.14190600  1
  Li  Li4  1  0.25000700  0.41862100  0.88348800  1
  Li  Li5  1  0.25000700  0.08137600  0.38348100  1
  Li  Li6  1  0.74999200  0.91862300  0.61652200  1
  Li  Li7  1  0.74999200  0.58137800  0.11651500  1
  Fe  Fe0  1  0.25000600  0.39594600  0.39483500  1
  Fe  Fe1  1  0.75000800  0.60405100  0.60515000  1
  Fe  Fe2  1  0.24999000  0.10413000  0.89489200  1
  Fe  Fe3  1  0.75000500  0.89587800  0.10509600  1
  O  O0  1  0.25000200  0.57825100  0.60912900  1
  O  O1  1  0.25000100  0.92175000  0.10911300  1
  O  O2  1  0.74999800  0.07825000  0.89089100  1
  O  O3  1  0.74999900  0.42174800  0.39087500  1
  O  O4  1  0.25000300  0.24550800  0.63802200  1
  O  O5  1  0.25000300  0.25444200  0.13795800  1
  O  O6  1  0.74999700  0.74555700  0.86204400  1
  O  O7  1  0.74999500  0.75449200  0.36198000  1
  F  F0  1  0.24999000  0.92608100  0.62629100  1
  F  F1  1  0.24999100  0.57395000  0.12625300  1
  F  F2  1  0.75000800  0.42605000  0.87374900  1
  F  F3  1  0.75000800  0.07391900  0.37371200  1
loop_
_geom_bond_atom_site_label_1
_geom_bond_atom_site_label_2
_geom_bond_distance
_geom_bond_site_symmetry_2
Li0 O6 2.049959 1_455
Li0 O6 2.049984 1_555
Li0 O0 2.096853 1_555
Li0 O1 2.141401 1_556
Li1 O7 2.049967 1_455
Li1 O7 2.049975 1_555
Li1 O1 2.096900 1_555
Li1 O0 2.141579 1_555
Li2 O4 2.049963 1_655
Li2 O4 2.049979 1_555
Li2 O2 2.096904 1_555
Li2 O3 2.141568 1_555
Li3 O5 2.049963 1_655
Li3 O5 2.049980 1_555
Li3 O3 2.096861 1_555
Li3 O2 2.141386 1_554
Li4 O5 2.090031 1_556
Li4 O4 2.109507 1_555
Li4 O0 2.148494 1_555
Li5 O4 2.089993 1_555
Li5 O5 2.109480 1_555
Li5 O1 2.148463 1_545
Li6 O7 2.089991 1_555
Li6 O6 2.109476 1_555
Li6 O2 2.148473 1_565
Li7 O6 2.090036 1_554
Li7 O7 2.109510 1_555
Li7 O3 2.148498 1_555
Fe0 O4 1.957740 1_555
Fe0 O5 1.965630 1_555
Fe0 O0 2.052269 1_555
Fe0 O3 2.062667 1_555
Fe0 O3 2.062724 1_455
Fe1 O7 1.957686 1_555
Fe1 O6 1.965718 1_555
Fe1 O3 2.052186 1_555
Fe1 O0 2.062671 1_655
Fe1 O0 2.062720 1_555
Fe2 O5 1.956413 1_556
Fe2 O4 1.964926 1_555
Fe2 O1 2.052575 1_546
Fe2 O2 2.062743 1_455
Fe2 O2 2.062808 1_555
Fe3 O6 1.956407 1_554
Fe3 O7 1.965035 1_555
Fe3 O2 2.052461 1_564
Fe3 O1 2.062752 1_655
Fe3 O1 2.062785 1_555
F0 Li5 1.985846 1_565
F0 Li6 2.051657 1_455
F0 Li6 2.051674 1_555
F0 Li0 2.094173 1_555
F0 Li1 2.204103 1_555
F0 Fe2 2.235710 1_565
F1 Li4 1.985821 1_554
F1 Li7 2.051647 1_455
F1 Li7 2.051656 1_555
F1 Li1 2.094034 1_555
F1 Li0 2.203764 1_554
F1 Fe0 2.235398 1_555
F2 Li7 1.985819 1_556
F2 Li4 2.051648 1_655
F2 Li4 2.051656 1_555
F2 Li2 2.094030 1_555
F2 Li3 2.203770 1_556
F2 Fe1 2.235450 1_555
F3 Li6 1.985852 1_545
F3 Li5 2.051661 1_655
F3 Li5 2.051669 1_555
F3 Li3 2.094170 1_555
F3 Li2 2.204103 1_555
F3 Fe3 2.235722 1_545
