# generated using pymatgen
data_Li2FeS2
_symmetry_space_group_name_H-M   'P 1'
_cell_length_a   6.13598900
_cell_length_b   8.86869200
_cell_length_c   15.66062377
_cell_angle_alpha   58.27310242
_cell_angle_beta   90.00000000
_cell_angle_gamma   90.00000000
_symmetry_Int_Tables_number   1
_chemical_formula_structural   Li2FeS2
_chemical_formula_sum   'Li16 Fe8 S16'
_cell_volume   724.87040403
_cell_formula_units_Z   8
loop_
 _symmetry_equiv_pos_site_id
 _symmetry_equiv_pos_as_xyz
  1  'x, y, z'
loop_
 _atom_site_type_symbol
 _atom_site_label
 _atom_site_symmetry_multiplicity
 _atom_site_fract_x
 _atom_site_fract_y
 _atom_site_fract_z
 _atom_site_occupancy
  Li  Li0  1  0.98283200  0.64801700  0.75333000  1
  Li  Li1  1  0.44195400  0.61636100  0.83796600  1
  Li  Li2  1  0.87619000  0.85355900  0.45209600  1
  Li  Li3  1  0.96915900  0.08130000  0.18773500  1
  Li  Li4  1  0.46915900  0.91870000  0.31226500  1
  Li  Li5  1  0.37619000  0.14644100  0.04790400  1
  Li  Li6  1  0.94195400  0.38363900  0.66203400  1
  Li  Li7  1  0.48283200  0.35198300  0.74667000  1
  Li  Li8  1  0.51716800  0.64801700  0.25333000  1
  Li  Li9  1  0.05804600  0.61636100  0.33796600  1
  Li  Li10  1  0.62381000  0.85355900  0.95209600  1
  Li  Li11  1  0.53084100  0.08130000  0.68773500  1
  Li  Li12  1  0.03084100  0.91870000  0.81226500  1
  Li  Li13  1  0.12381000  0.14644100  0.54790400  1
  Li  Li14  1  0.55804600  0.38363900  0.16203400  1
  Li  Li15  1  0.01716800  0.35198300  0.24667000  1
  Fe  Fe0  1  0.49149400  0.87163700  0.58989500  1
  Fe  Fe1  1  0.98538300  0.37189800  0.97487300  1
  Fe  Fe2  1  0.48538300  0.62810200  0.52512700  1
  Fe  Fe3  1  0.99149400  0.12836300  0.91010500  1
  Fe  Fe4  1  0.00850600  0.87163700  0.08989500  1
  Fe  Fe5  1  0.51461700  0.37189800  0.47487300  1
  Fe  Fe6  1  0.01461700  0.62810200  0.02512700  1
  Fe  Fe7  1  0.50850600  0.12836300  0.41010500  1
  S  S0  1  0.20533600  0.35938200  0.10019500  1
  S  S1  1  0.74035300  0.12738300  0.29602300  1
  S  S2  1  0.27015100  0.88239900  0.46013400  1
  S  S3  1  0.71738700  0.62687800  0.64368100  1
  S  S4  1  0.21738700  0.37312200  0.85631900  1
  S  S5  1  0.77015100  0.11760100  0.03986600  1
  S  S6  1  0.29466400  0.35938200  0.60019500  1
  S  S7  1  0.24035300  0.87261700  0.20397700  1
  S  S8  1  0.75964700  0.12738300  0.79602300  1
  S  S9  1  0.70533600  0.64061800  0.39980500  1
  S  S10  1  0.22984900  0.88239900  0.96013400  1
  S  S11  1  0.78261300  0.62687800  0.14368100  1
  S  S12  1  0.28261300  0.37312200  0.35631900  1
  S  S13  1  0.72984900  0.11760100  0.53986600  1
  S  S14  1  0.25964700  0.87261700  0.70397700  1
  S  S15  1  0.79466400  0.64061800  0.89980500  1
loop_
_geom_bond_atom_site_label_1
_geom_bond_atom_site_label_2
_geom_bond_distance
_geom_bond_site_symmetry_2
Li0 S14 2.414723 1_655
Li0 S3 2.444441 1_555
Li0 S15 2.537916 1_555
Li0 S4 2.545742 1_655
Li1 S14 2.409109 1_555
Li1 S15 2.426342 1_555
Li1 S4 2.445974 1_555
Li2 S2 2.441037 1_655
Li2 S1 2.514654 1_565
Li2 S9 2.638687 1_555
Li2 S3 2.765722 1_555
Li3 S1 2.396455 1_555
Li3 S7 2.400809 1_645
Li3 S5 2.484596 1_555
Li3 S0 2.550660 1_655
Li4 S7 2.396455 1_555
Li4 S1 2.400809 1_565
Li4 S2 2.484596 1_555
Li4 S9 2.550660 1_555
Li5 S5 2.441037 1_555
Li5 S7 2.514654 1_545
Li5 S0 2.638687 1_555
Li5 S4 2.765722 1_554
Li6 S8 2.409109 1_555
Li6 S6 2.426342 1_655
Li6 S3 2.445974 1_555
Li7 S8 2.414723 1_555
Li7 S4 2.444441 1_555
Li7 S6 2.537916 1_555
Li7 S3 2.545742 1_555
Li8 S7 2.414723 1_555
Li8 S11 2.444441 1_555
Li8 S9 2.537916 1_555
Li8 S12 2.545742 1_555
Li9 S7 2.409109 1_555
Li9 S9 2.426342 1_455
Li9 S12 2.445974 1_555
Li10 S10 2.441037 1_555
Li10 S8 2.514654 1_565
Li10 S15 2.638687 1_555
Li10 S11 2.765722 1_556
Li11 S8 2.396455 1_555
Li11 S14 2.400809 1_545
Li11 S13 2.484596 1_555
Li11 S6 2.550660 1_555
Li12 S14 2.396455 1_555
Li12 S8 2.400809 1_465
Li12 S10 2.484596 1_555
Li12 S15 2.550660 1_455
Li13 S13 2.441037 1_455
Li13 S14 2.514654 1_545
Li13 S6 2.638687 1_555
Li13 S12 2.765722 1_555
Li14 S1 2.409109 1_555
Li14 S0 2.426342 1_555
Li14 S11 2.445974 1_555
Li15 S1 2.414723 1_455
Li15 S12 2.444441 1_555
Li15 S0 2.537916 1_555
Li15 S11 2.545742 1_455
Fe0 S14 2.287389 1_555
Fe0 S3 2.328002 1_555
Fe0 S13 2.390353 1_565
Fe0 S2 2.404017 1_555
Fe1 S5 2.334984 1_556
Fe1 S4 2.335071 1_655
Fe1 S0 2.335932 1_656
Fe1 S15 2.341898 1_555
Fe2 S2 2.334984 1_555
Fe2 S3 2.335071 1_555
Fe2 S9 2.335932 1_555
Fe2 S6 2.341898 1_555
Fe3 S8 2.287389 1_555
Fe3 S4 2.328002 1_655
Fe3 S10 2.390353 1_645
Fe3 S5 2.404017 1_556
Fe4 S7 2.287389 1_555
Fe4 S11 2.328002 1_455
Fe4 S5 2.390353 1_465
Fe4 S10 2.404017 1_554
Fe5 S13 2.334984 1_555
Fe5 S12 2.335071 1_555
Fe5 S6 2.335932 1_555
Fe5 S9 2.341898 1_555
Fe6 S10 2.334984 1_554
Fe6 S11 2.335071 1_455
Fe6 S15 2.335932 1_454
Fe6 S0 2.341898 1_555
Fe7 S1 2.287389 1_555
Fe7 S12 2.328002 1_555
Fe7 S2 2.390353 1_545
Fe7 S13 2.404017 1_555
