# generated using pymatgen
data_Tb2TiO5
_symmetry_space_group_name_H-M   'P 1'
_cell_length_a   3.64796200
_cell_length_b   7.48769600
_cell_length_c   15.65112200
_cell_angle_alpha   90.00000000
_cell_angle_beta   90.00000000
_cell_angle_gamma   90.00000000
_symmetry_Int_Tables_number   1
_chemical_formula_structural   Tb2TiO5
_chemical_formula_sum   'Tb8 Ti4 O20'
_cell_volume   427.50774418
_cell_formula_units_Z   4
loop_
 _symmetry_equiv_pos_site_id
 _symmetry_equiv_pos_as_xyz
  1  'x, y, z'
loop_
 _atom_site_type_symbol
 _atom_site_label
 _atom_site_symmetry_multiplicity
 _atom_site_fract_x
 _atom_site_fract_y
 _atom_site_fract_z
 _atom_site_occupancy
  Tb  Tb0  1  0.25000000  0.11302000  0.08259400  1
  Tb  Tb1  1  0.25000000  0.14322300  0.73844000  1
  Tb  Tb2  1  0.75000000  0.35677700  0.23844000  1
  Tb  Tb3  1  0.75000000  0.38698000  0.58259400  1
  Tb  Tb4  1  0.25000000  0.61302000  0.41740600  1
  Tb  Tb5  1  0.25000000  0.64322300  0.76156000  1
  Tb  Tb6  1  0.75000000  0.85677700  0.26156000  1
  Tb  Tb7  1  0.75000000  0.88698000  0.91740600  1
  Ti  Ti0  1  0.25000000  0.12355700  0.42300200  1
  Ti  Ti1  1  0.75000000  0.37644300  0.92300200  1
  Ti  Ti2  1  0.25000000  0.62355700  0.07699800  1
  Ti  Ti3  1  0.75000000  0.87644300  0.57699800  1
  O  O0  1  0.75000000  0.08942800  0.17382200  1
  O  O1  1  0.75000000  0.08335900  0.45392900  1
  O  O2  1  0.75000000  0.10386200  0.64935900  1
  O  O3  1  0.75000000  0.15425500  0.99457100  1
  O  O4  1  0.25000000  0.26503800  0.32553200  1
  O  O5  1  0.75000000  0.23496200  0.82553200  1
  O  O6  1  0.25000000  0.34574500  0.49457100  1
  O  O7  1  0.25000000  0.39613800  0.14935900  1
  O  O8  1  0.25000000  0.41664100  0.95392900  1
  O  O9  1  0.25000000  0.41057200  0.67382200  1
  O  O10  1  0.75000000  0.58942800  0.32617800  1
  O  O11  1  0.75000000  0.58335900  0.04607100  1
  O  O12  1  0.75000000  0.60386200  0.85064100  1
  O  O13  1  0.75000000  0.65425500  0.50542900  1
  O  O14  1  0.25000000  0.76503800  0.17446800  1
  O  O15  1  0.75000000  0.73496200  0.67446800  1
  O  O16  1  0.25000000  0.84574500  0.00542900  1
  O  O17  1  0.25000000  0.89613800  0.35064100  1
  O  O18  1  0.25000000  0.91664100  0.54607100  1
  O  O19  1  0.25000000  0.91057200  0.82617800  1
loop_
_geom_bond_atom_site_label_1
_geom_bond_atom_site_label_2
_geom_bond_distance
_geom_bond_site_symmetry_2
O0 Tb6 2.218176 1_545
O0 Tb2 2.242796 1_555
O0 Tb0 2.323098 1_655
O0 Tb0 2.323098 1_555
O1 Ti0 1.910968 1_555
O1 Ti0 1.910968 1_655
O1 Ti3 2.471948 1_545
O2 Ti3 2.045068 1_545
O2 Tb1 2.314651 1_555
O2 Tb1 2.314651 1_655
O2 Tb3 2.363450 1_555
O3 Ti1 2.005622 1_555
O3 Tb0 2.306552 1_556
O3 Tb0 2.306552 1_656
O3 Tb7 2.337452 1_545
O4 Ti0 1.857270 1_555
O4 Tb2 2.378395 1_455
O4 Tb2 2.378395 1_555
O5 Ti1 1.857270 1_555
O5 Tb1 2.378395 1_555
O5 Tb1 2.378395 1_655
O6 Ti0 2.005622 1_555
O6 Tb3 2.306552 1_555
O6 Tb3 2.306552 1_455
O6 Tb4 2.337452 1_555
O7 Ti2 2.045068 1_555
O7 Tb2 2.314651 1_555
O7 Tb2 2.314651 1_455
O7 Tb0 2.363450 1_555
O8 Ti1 1.910968 1_455
O8 Ti1 1.910968 1_555
O8 Ti2 2.471948 1_556
O9 Tb5 2.218176 1_555
O9 Tb1 2.242796 1_555
O9 Tb3 2.323098 1_455
O9 Tb3 2.323098 1_555
O10 Tb2 2.218176 1_555
O10 Tb6 2.242796 1_555
O10 Tb4 2.323098 1_555
O10 Tb4 2.323098 1_655
O11 Ti2 1.910968 1_655
O11 Ti2 1.910968 1_555
O11 Ti1 2.471948 1_554
O12 Ti1 2.045068 1_555
O12 Tb5 2.314651 1_655
O12 Tb5 2.314651 1_555
O12 Tb7 2.363450 1_555
O13 Ti3 2.005622 1_555
O13 Tb4 2.306552 1_655
O13 Tb4 2.306552 1_555
O13 Tb3 2.337452 1_555
O14 Ti2 1.857270 1_555
O14 Tb6 2.378395 1_555
O14 Tb6 2.378395 1_455
O15 Ti3 1.857270 1_555
O15 Tb5 2.378395 1_555
O15 Tb5 2.378395 1_655
O16 Ti2 2.005622 1_555
O16 Tb7 2.306552 1_554
O16 Tb7 2.306552 1_454
O16 Tb0 2.337452 1_565
O17 Ti0 2.045068 1_565
O17 Tb6 2.314651 1_455
O17 Tb6 2.314651 1_555
O17 Tb4 2.363450 1_555
O18 Ti3 1.910968 1_455
O18 Ti3 1.910968 1_555
O18 Ti0 2.471948 1_565
O19 Tb1 2.218176 1_565
O19 Tb5 2.242796 1_555
O19 Tb7 2.323098 1_455
O19 Tb7 2.323098 1_555
