# generated using pymatgen
data_Mn9CdO10
_symmetry_space_group_name_H-M   'P 1'
_cell_length_a   8.50715732
_cell_length_b   8.50715732
_cell_length_c   5.56955246
_cell_angle_alpha   83.71744055
_cell_angle_beta   83.71744055
_cell_angle_gamma   141.78674485
_symmetry_Int_Tables_number   1
_chemical_formula_structural   Mn9CdO10
_chemical_formula_sum   'Mn9 Cd1 O10'
_cell_volume   234.99311796
_cell_formula_units_Z   1
loop_
 _symmetry_equiv_pos_site_id
 _symmetry_equiv_pos_as_xyz
  1  'x, y, z'
loop_
 _atom_site_type_symbol
 _atom_site_label
 _atom_site_symmetry_multiplicity
 _atom_site_fract_x
 _atom_site_fract_y
 _atom_site_fract_z
 _atom_site_occupancy
  Mn  Mn0  1  0.29914000  0.70086000  0.50000000  1
  Mn  Mn1  1  0.60095300  0.39904700  0.00000000  1
  Mn  Mn2  1  0.10099800  0.89900200  0.50000000  1
  Mn  Mn3  1  0.39904700  0.60095300  0.00000000  1
  Mn  Mn4  1  0.20139600  0.79860400  0.00000000  1
  Mn  Mn5  1  0.70086000  0.29914000  0.50000000  1
  Mn  Mn6  1  0.89900200  0.10099800  0.50000000  1
  Mn  Mn7  1  0.79860400  0.20139600  0.00000000  1
  Mn  Mn8  1  0.00000000  0.00000000  0.00000000  1
  Cd  Cd0  1  0.50000000  0.50000000  0.50000000  1
  O  O0  1  0.34751000  0.13883900  0.75689600  1
  O  O1  1  0.54889600  0.94789600  0.74850500  1
  O  O2  1  0.94789600  0.54889600  0.74850500  1
  O  O3  1  0.13883900  0.34751000  0.75689600  1
  O  O4  1  0.45110400  0.05210400  0.25149500  1
  O  O5  1  0.24015500  0.24015500  0.24021400  1
  O  O6  1  0.75984500  0.75984500  0.75978600  1
  O  O7  1  0.86116100  0.65249000  0.24310400  1
  O  O8  1  0.05210400  0.45110400  0.25149500  1
  O  O9  1  0.65249000  0.86116100  0.24310400  1
loop_
_geom_bond_atom_site_label_1
_geom_bond_atom_site_label_2
_geom_bond_distance
_geom_bond_site_symmetry_2
Mn0 O1 2.260547 1_555
Mn0 O8 2.260547 1_555
Mn0 O9 2.265568 1_555
Mn0 O3 2.265568 1_555
Mn0 O2 2.269026 1_455
Mn0 O4 2.269026 1_565
Mn1 O4 2.256157 1_555
Mn1 O2 2.256157 1_554
Mn1 O0 2.275293 1_554
Mn1 O7 2.275293 1_555
Mn1 O6 2.285563 1_554
Mn1 O5 2.285563 1_555
Mn2 O4 2.256146 1_565
Mn2 O2 2.256146 1_455
Mn2 O7 2.275922 1_455
Mn2 O0 2.275922 1_565
Mn2 O6 2.285818 1_455
Mn2 O5 2.285818 1_565
Mn3 O8 2.256157 1_555
Mn3 O1 2.256157 1_554
Mn3 O9 2.275293 1_555
Mn3 O3 2.275293 1_554
Mn3 O6 2.285563 1_554
Mn3 O5 2.285563 1_555
Mn4 O0 2.208233 1_564
Mn4 O7 2.208233 1_455
Mn4 O1 2.262454 1_554
Mn4 O8 2.262454 1_555
Mn4 O4 2.288839 1_565
Mn4 O2 2.288839 1_454
Mn5 O2 2.260547 1_555
Mn5 O4 2.260547 1_555
Mn5 O0 2.265568 1_555
Mn5 O7 2.265568 1_555
Mn5 O1 2.269026 1_545
Mn5 O8 2.269026 1_655
Mn6 O8 2.256146 1_655
Mn6 O1 2.256146 1_545
Mn6 O9 2.275922 1_545
Mn6 O3 2.275922 1_655
Mn6 O6 2.285818 1_545
Mn6 O5 2.285818 1_655
Mn7 O3 2.208233 1_654
Mn7 O9 2.208233 1_545
Mn7 O2 2.262454 1_554
Mn7 O4 2.262454 1_555
Mn7 O8 2.288839 1_655
Mn7 O1 2.288839 1_544
Mn8 O5 2.185236 1_555
Mn8 O6 2.185236 1_444
Mn8 O7 2.292377 1_445
Mn8 O9 2.292377 1_445
Mn8 O3 2.292377 1_554
Mn8 O0 2.292377 1_554
Cd0 O7 2.353363 1_555
Cd0 O9 2.353363 1_555
Cd0 O3 2.353363 1_555
Cd0 O0 2.353363 1_555
Cd0 O6 2.363841 1_555
Cd0 O5 2.363841 1_555
