# generated using pymatgen
data_LiVPO5
_symmetry_space_group_name_H-M   'P 1'
_cell_length_a   9.13305700
_cell_length_b   6.66981800
_cell_length_c   7.76349298
_cell_angle_alpha   88.95550265
_cell_angle_beta   90.00000000
_cell_angle_gamma   90.00000000
_symmetry_Int_Tables_number   1
_chemical_formula_structural   LiVPO5
_chemical_formula_sum   'Li4 V4 P4 O20'
_cell_volume   472.84102264
_cell_formula_units_Z   4
loop_
 _symmetry_equiv_pos_site_id
 _symmetry_equiv_pos_as_xyz
  1  'x, y, z'
loop_
 _atom_site_type_symbol
 _atom_site_label
 _atom_site_symmetry_multiplicity
 _atom_site_fract_x
 _atom_site_fract_y
 _atom_site_fract_z
 _atom_site_occupancy
  Li  Li0  1  0.25461700  0.45838900  0.79244500  1
  Li  Li1  1  0.24538300  0.45838900  0.29244500  1
  Li  Li2  1  0.75461700  0.54161100  0.70755500  1
  Li  Li3  1  0.74538300  0.54161100  0.20755500  1
  V  V0  1  0.47136200  0.88088200  0.82363600  1
  V  V1  1  0.02863800  0.88088200  0.32363600  1
  V  V2  1  0.97136200  0.11911800  0.67636400  1
  V  V3  1  0.52863800  0.11911800  0.17636400  1
  P  P0  1  0.79604800  0.85559000  0.99188400  1
  P  P1  1  0.70395200  0.85559000  0.49188400  1
  P  P2  1  0.29604800  0.14441000  0.50811600  1
  P  P3  1  0.20395200  0.14441000  0.00811600  1
  O  O0  1  0.36941700  0.98400300  0.62090000  1
  O  O1  1  0.13058300  0.98400300  0.12090000  1
  O  O2  1  0.87396700  0.92388800  0.51456700  1
  O  O3  1  0.62603300  0.92388800  0.01456700  1
  O  O4  1  0.64387600  0.85931500  0.67850700  1
  O  O5  1  0.85612400  0.85931500  0.17850700  1
  O  O6  1  0.39926200  0.65831900  0.86139000  1
  O  O7  1  0.10073800  0.65831900  0.36139000  1
  O  O8  1  0.79915200  0.63915200  0.93481700  1
  O  O9  1  0.70084800  0.63915200  0.43481700  1
  O  O10  1  0.29915200  0.36084800  0.56518300  1
  O  O11  1  0.20084800  0.36084800  0.06518300  1
  O  O12  1  0.89926200  0.34168100  0.63861000  1
  O  O13  1  0.60073800  0.34168100  0.13861000  1
  O  O14  1  0.14387600  0.14068500  0.82149300  1
  O  O15  1  0.35612400  0.14068500  0.32149300  1
  O  O16  1  0.37396700  0.07611200  0.98543300  1
  O  O17  1  0.12603300  0.07611200  0.48543300  1
  O  O18  1  0.86941700  0.01599700  0.87910000  1
  O  O19  1  0.63058300  0.01599700  0.37910000  1
loop_
_geom_bond_atom_site_label_1
_geom_bond_atom_site_label_2
_geom_bond_distance
_geom_bond_site_symmetry_2
Li0 O10 1.934803 1_555
Li0 O6 1.958547 1_555
Li0 O11 2.257780 1_556
Li0 O14 2.355133 1_555
Li1 O11 1.934803 1_555
Li1 O7 1.958547 1_555
Li1 O10 2.257780 1_555
Li1 O15 2.355133 1_555
Li2 O8 1.934803 1_555
Li2 O12 1.958547 1_555
Li2 O9 2.257780 1_555
Li2 O4 2.355133 1_555
Li3 O9 1.934803 1_555
Li3 O13 1.958547 1_555
Li3 O8 2.257780 1_554
Li3 O5 2.355133 1_555
O0 P2 1.525184 1_565
O0 V0 1.943650 1_555
O1 P3 1.525184 1_565
O1 V1 1.943650 1_555
O2 P1 1.628650 1_555
O2 V2 2.030830 1_565
O2 V1 2.071343 1_655
O3 P0 1.628650 1_554
O3 V3 2.030830 1_565
O3 V0 2.071343 1_554
O4 P1 1.549881 1_555
O4 V0 1.943843 1_555
O5 P0 1.549881 1_554
O5 V1 1.943843 1_655
O6 V0 1.645377 1_555
O7 V1 1.645377 1_555
O8 P0 1.518022 1_555
O9 P1 1.518022 1_555
O10 P2 1.518022 1_555
O11 P3 1.518022 1_555
O12 V2 1.645377 1_555
O13 V3 1.645377 1_555
O14 P3 1.549881 1_556
O14 V2 1.943843 1_455
O15 P2 1.549881 1_555
O15 V3 1.943843 1_555
O16 P3 1.628650 1_556
O16 V0 2.030830 1_545
O16 V3 2.071343 1_556
O17 P2 1.628650 1_555
O17 V1 2.030830 1_545
O17 V2 2.071343 1_455
O18 P0 1.525184 1_545
O18 V2 1.943650 1_555
O19 P1 1.525184 1_545
O19 V3 1.943650 1_555
