# generated using pymatgen
data_KSiHO3
_symmetry_space_group_name_H-M   'P 1'
_cell_length_a   7.62017957
_cell_length_b   7.62017957
_cell_length_c   11.44171500
_cell_angle_alpha   90.00000000
_cell_angle_beta   90.00000000
_cell_angle_gamma   100.73148447
_symmetry_Int_Tables_number   1
_chemical_formula_structural   KSiHO3
_chemical_formula_sum   'K8 Si8 H8 O24'
_cell_volume   652.76790338
_cell_formula_units_Z   8
loop_
 _symmetry_equiv_pos_site_id
 _symmetry_equiv_pos_as_xyz
  1  'x, y, z'
loop_
 _atom_site_type_symbol
 _atom_site_label
 _atom_site_symmetry_multiplicity
 _atom_site_fract_x
 _atom_site_fract_y
 _atom_site_fract_z
 _atom_site_occupancy
  K  K0  1  0.32246300  0.32246300  0.54305100  1
  K  K1  1  0.67753700  0.67753700  0.45694900  1
  K  K2  1  0.17753700  0.17753700  0.04305100  1
  K  K3  1  0.82246300  0.82246300  0.95694900  1
  K  K4  1  0.51052700  0.01052700  0.25000000  1
  K  K5  1  0.98947300  0.48947300  0.75000000  1
  K  K6  1  0.48947300  0.98947300  0.75000000  1
  K  K7  1  0.01052700  0.51052700  0.25000000  1
  Si  Si0  1  0.48371600  0.48371600  0.81624200  1
  Si  Si1  1  0.51628400  0.51628400  0.18375800  1
  Si  Si2  1  0.01628400  0.01628400  0.31624200  1
  Si  Si3  1  0.98371600  0.98371600  0.68375800  1
  Si  Si4  1  0.69651700  0.30348300  0.00000000  1
  Si  Si5  1  0.19651700  0.80348300  0.50000000  1
  Si  Si6  1  0.30348300  0.69651700  0.00000000  1
  Si  Si7  1  0.80348300  0.19651700  0.50000000  1
  H  H0  1  0.16846000  0.16846000  0.80653900  1
  H  H1  1  0.83154000  0.83154000  0.19346100  1
  H  H2  1  0.33154000  0.33154000  0.30653900  1
  H  H3  1  0.66846000  0.66846000  0.69346100  1
  H  H4  1  0.50000000  0.00000000  0.00000000  1
  H  H5  1  0.00000000  0.50000000  0.00000000  1
  H  H6  1  0.50000000  0.00000000  0.50000000  1
  H  H7  1  0.00000000  0.50000000  0.50000000  1
  O  O0  1  0.15821200  0.93310700  0.61150600  1
  O  O1  1  0.06689300  0.84178800  0.38849400  1
  O  O2  1  0.56689300  0.34178800  0.11150600  1
  O  O3  1  0.65821200  0.43310700  0.88849400  1
  O  O4  1  0.84178800  0.06689300  0.38849400  1
  O  O5  1  0.93310700  0.15821200  0.61150600  1
  O  O6  1  0.43310700  0.65821200  0.88849400  1
  O  O7  1  0.34178800  0.56689300  0.11150600  1
  O  O8  1  0.63704200  0.09397900  0.96686000  1
  O  O9  1  0.90602100  0.36295800  0.03314000  1
  O  O10  1  0.40602100  0.86295800  0.46686000  1
  O  O11  1  0.13704200  0.59397900  0.53314000  1
  O  O12  1  0.36295800  0.90602100  0.03314000  1
  O  O13  1  0.09397900  0.63704200  0.96686000  1
  O  O14  1  0.59397900  0.13704200  0.53314000  1
  O  O15  1  0.86295800  0.40602100  0.46686000  1
  O  O16  1  0.06242600  0.06242600  0.81182400  1
  O  O17  1  0.93757400  0.93757400  0.18817600  1
  O  O18  1  0.43757400  0.43757400  0.31182400  1
  O  O19  1  0.56242600  0.56242600  0.68817600  1
  O  O20  1  0.32140000  0.32140000  0.79903700  1
  O  O21  1  0.67860000  0.67860000  0.20096300  1
  O  O22  1  0.17860000  0.17860000  0.29903700  1
  O  O23  1  0.82140000  0.82140000  0.70096300  1
loop_
_geom_bond_atom_site_label_1
_geom_bond_atom_site_label_2
_geom_bond_distance
_geom_bond_site_symmetry_2
K0 O14 2.716382 1_555
K0 O11 2.716382 1_555
K0 O19 2.863433 1_555
K0 O18 2.872573 1_555
K0 O20 2.928937 1_555
K0 O5 3.098376 1_455
K0 O0 3.098376 1_545
K0 O22 3.122649 1_555
K1 O15 2.716382 1_555
K1 O10 2.716382 1_555
K1 O18 2.863433 1_555
K1 O19 2.872573 1_555
K1 O21 2.928937 1_555
K1 O1 3.098376 1_655
K1 O4 3.098376 1_565
K1 O23 3.122649 1_555
K2 O12 2.716382 1_545
K2 O9 2.716382 1_455
K2 O17 2.863433 1_445
K2 O16 2.872573 1_554
K2 O22 2.928937 1_555
K2 O7 3.098376 1_555
K2 O2 3.098376 1_555
K2 O20 3.122649 1_554
K3 O8 2.716382 1_565
K3 O13 2.716382 1_655
K3 O16 2.863433 1_665
K3 O17 2.872573 1_556
K3 O23 2.928937 1_555
K3 O3 3.098376 1_555
K3 O6 3.098376 1_555
K3 O21 3.122649 1_556
K4 O12 2.778811 1_545
K4 O10 2.778811 1_545
K4 O2 2.943404 1_555
K4 O4 2.943404 1_555
K4 O22 3.091779 1_555
K4 O21 3.091779 1_545
K5 O11 2.778811 1_655
K5 O13 2.778811 1_655
K5 O3 2.943404 1_555
K5 O5 2.943404 1_555
K5 O23 3.091779 1_555
K5 O20 3.091779 1_655
K6 O14 2.778811 1_565
K6 O8 2.778811 1_565
K6 O6 2.943404 1_555
K6 O0 2.943404 1_555
K6 O23 3.091779 1_555
K6 O20 3.091779 1_565
K7 O9 2.778811 1_455
K7 O15 2.778811 1_455
K7 O7 2.943404 1_555
K7 O1 2.943404 1_555
K7 O22 3.091779 1_555
K7 O21 3.091779 1_455
H0 O16 1.032591 1_555
H0 O20 1.489296 1_555
H0 K2 2.707541 1_556
H1 O17 1.032591 1_555
H1 O21 1.489296 1_555
H1 K3 2.707541 1_554
H2 O18 1.032591 1_555
H2 O22 1.489296 1_555
H2 K0 2.707541 1_555
H3 O19 1.032591 1_555
H3 O23 1.489296 1_555
H3 K1 2.707541 1_555
H4 O8 1.211878 1_554
H4 O12 1.211878 1_545
H4 K4 2.862259 1_555
H4 K6 2.862259 1_544
H5 O13 1.211878 1_554
H5 O9 1.211878 1_455
H5 K7 2.862259 1_555
H5 K5 2.862259 1_454
H6 O14 1.211878 1_555
H6 O10 1.211878 1_545
H6 K4 2.862259 1_555
H6 K6 2.862259 1_545
H7 O11 1.211878 1_555
H7 O15 1.211878 1_455
H7 K7 2.862259 1_555
H7 K5 2.862259 1_455
O0 Si3 1.670684 1_455
O0 Si5 1.672111 1_555
O1 Si2 1.670684 1_565
O1 Si5 1.672111 1_555
O2 Si1 1.670684 1_555
O2 Si4 1.672111 1_555
O3 Si0 1.670684 1_555
O3 Si4 1.672111 1_556
O4 Si2 1.670684 1_655
O4 Si7 1.672111 1_555
O5 Si3 1.670684 1_545
O5 Si7 1.672111 1_555
O6 Si0 1.670684 1_555
O6 Si6 1.672111 1_556
O7 Si1 1.670684 1_555
O7 Si6 1.672111 1_555
O8 Si4 1.621235 1_556
O9 Si4 1.621235 1_555
O10 Si5 1.621235 1_555
O11 Si5 1.621235 1_555
O12 Si6 1.621235 1_555
O13 Si6 1.621235 1_556
O14 Si7 1.621235 1_555
O15 Si7 1.621235 1_555
O16 Si3 1.653057 1_445
O17 Si2 1.653057 1_665
O18 Si1 1.653057 1_555
O19 Si0 1.653057 1_555
O20 Si0 1.590201 1_555
O21 Si1 1.590201 1_555
O22 Si2 1.590201 1_555
O23 Si3 1.590201 1_555
