# generated using pymatgen
data_Li5Ti2Co3O10
_symmetry_space_group_name_H-M   'P 1'
_cell_length_a   5.10963700
_cell_length_b   5.13808372
_cell_length_c   7.73116663
_cell_angle_alpha   71.28725555
_cell_angle_beta   71.20237824
_cell_angle_gamma   80.59403726
_symmetry_Int_Tables_number   1
_chemical_formula_structural   Li5Ti2Co3O10
_chemical_formula_sum   'Li5 Ti2 Co3 O10'
_cell_volume   181.58039720
_cell_formula_units_Z   1
loop_
 _symmetry_equiv_pos_site_id
 _symmetry_equiv_pos_as_xyz
  1  'x, y, z'
loop_
 _atom_site_type_symbol
 _atom_site_label
 _atom_site_symmetry_multiplicity
 _atom_site_fract_x
 _atom_site_fract_y
 _atom_site_fract_z
 _atom_site_occupancy
  Li  Li0  1  0.22291300  0.50270100  0.59497400  1
  Li  Li1  1  0.42802800  0.48876100  0.20056000  1
  Li  Li2  1  0.49776100  0.00003900  0.49824600  1
  Li  Li3  1  0.78418300  0.51218000  0.40263300  1
  Li  Li4  1  0.59008600  0.50434800  0.79423600  1
  Ti  Ti0  1  0.10384700  0.99294400  0.30369200  1
  Ti  Ti1  1  0.88556700  0.01654300  0.69603800  1
  Co  Co0  1  0.00716100  0.50252900  0.99540500  1
  Co  Co1  1  0.30194700  0.99741400  0.89404200  1
  Co  Co2  1  0.69700700  0.00340000  0.09947600  1
  O  O0  1  0.01976800  0.77666900  0.15384100  1
  O  O1  1  0.13000900  0.22753100  0.45534900  1
  O  O2  1  0.35525000  0.23070200  0.06250300  1
  O  O3  1  0.23056000  0.75765200  0.75190600  1
  O  O4  1  0.44175200  0.77753100  0.32719100  1
  O  O5  1  0.57088000  0.24045200  0.65019400  1
  O  O6  1  0.77282300  0.23124400  0.23412900  1
  O  O7  1  0.66363300  0.77273600  0.94787600  1
  O  O8  1  0.86941600  0.77766600  0.54378400  1
  O  O9  1  0.93561500  0.22813600  0.85904800  1
loop_
_geom_bond_atom_site_label_1
_geom_bond_atom_site_label_2
_geom_bond_distance
_geom_bond_site_symmetry_2
Li0 O3 2.063155 1_555
Li0 O5 2.120406 1_555
Li0 O4 2.163058 1_555
Li0 O8 2.164011 1_455
Li0 O1 2.217756 1_555
Li0 O9 2.282697 1_455
Li1 O4 2.043306 1_555
Li1 O6 2.057746 1_555
Li1 O2 2.088209 1_555
Li1 O7 2.150374 1_554
Li1 O1 2.244786 1_555
Li1 O0 2.409255 1_555
Li2 O5 2.100060 1_555
Li2 O1 2.107643 1_555
Li2 O4 2.111589 1_545
Li2 O8 2.121145 1_545
Li2 O3 2.126989 1_545
Li2 O6 2.166987 1_555
Li3 O5 2.058824 1_555
Li3 O0 2.088259 1_655
Li3 O4 2.151321 1_555
Li3 O1 2.159751 1_655
Li3 O8 2.167224 1_555
Li3 O6 2.250956 1_555
Li4 O5 2.042320 1_555
Li4 O3 2.123298 1_555
Li4 O9 2.162669 1_555
Li4 O2 2.189694 1_556
Li4 O8 2.210843 1_555
Li4 O7 2.227521 1_555
Co0 O3 2.021400 1_555
Co0 O6 2.062425 1_456
Co0 O7 2.106040 1_455
Co0 O9 2.145497 1_455
Co0 O0 2.162430 1_556
Co0 O2 2.168178 1_556
Co1 O3 2.032734 1_555
Co1 O9 2.092255 1_465
Co1 O5 2.093458 1_565
Co1 O7 2.100328 1_555
Co1 O2 2.131712 1_566
Co1 O0 2.146165 1_556
Co2 O0 1.938605 1_645
Co2 O6 1.947926 1_555
Co2 O4 1.962478 1_545
Co2 O7 1.973211 1_544
Co2 O9 1.974176 1_554
Co2 O2 1.983926 1_555
O0 Ti0 2.016047 1_555
O1 Ti1 1.961692 1_455
O1 Ti0 1.976329 1_545
O2 Ti0 2.031535 1_545
O3 Ti1 2.102145 1_465
O4 Ti0 1.920310 1_555
O5 Ti1 1.880329 1_555
O6 Ti0 2.033733 1_645
O7 Ti1 2.030390 1_565
O8 Ti0 1.945909 1_655
O8 Ti1 1.980287 1_565
O9 Ti1 2.003327 1_555
