# generated using pymatgen
data_RbErO2
_symmetry_space_group_name_H-M   'P 1'
_cell_length_a   6.79147171
_cell_length_b   6.79147171
_cell_length_c   6.79147214
_cell_angle_alpha   29.28320226
_cell_angle_beta   29.28320226
_cell_angle_gamma   29.28319944
_symmetry_Int_Tables_number   1
_chemical_formula_structural   RbErO2
_chemical_formula_sum   'Rb1 Er1 O2'
_cell_volume   66.31397560
_cell_formula_units_Z   1
loop_
 _symmetry_equiv_pos_site_id
 _symmetry_equiv_pos_as_xyz
  1  'x, y, z'
loop_
 _atom_site_type_symbol
 _atom_site_label
 _atom_site_symmetry_multiplicity
 _atom_site_fract_x
 _atom_site_fract_y
 _atom_site_fract_z
 _atom_site_occupancy
  Rb  Rb0  1  -0.00000000  -0.00000000  0.00000000  1
  Er  Er0  1  0.50000000  0.50000000  0.50000000  1
  O  O0  1  0.77529956  0.77529956  0.77529956  1
  O  O1  1  0.22470044  0.22470044  0.22470044  1
loop_
_geom_bond_atom_site_label_1
_geom_bond_atom_site_label_2
_geom_bond_distance
_geom_bond_site_symmetry_2
Er0 O1 2.282182 1_565
Er0 O1 2.282182 1_655
Er0 O0 2.282182 1_455
Er0 O0 2.282182 1_545
Er0 O1 2.282183 1_556
Er0 O0 2.282183 1_554
O0 Rb0 2.900151 1_656
O0 Rb0 2.900151 1_566
O0 Rb0 2.900152 1_665
O1 Rb0 2.900151 1_565
O1 Rb0 2.900151 1_655
O1 Rb0 2.900152 1_556
