# generated using pymatgen
data_Cr19O48
_symmetry_space_group_name_H-M   'P 1'
_cell_length_a   5.00864300
_cell_length_b   10.27922463
_cell_length_c   17.34370479
_cell_angle_alpha   89.71453907
_cell_angle_beta   89.27305435
_cell_angle_gamma   89.92576625
_symmetry_Int_Tables_number   1
_chemical_formula_structural   Cr19O48
_chemical_formula_sum   'Cr19 O48'
_cell_volume   892.85643031
_cell_formula_units_Z   1
loop_
 _symmetry_equiv_pos_site_id
 _symmetry_equiv_pos_as_xyz
  1  'x, y, z'
loop_
 _atom_site_type_symbol
 _atom_site_label
 _atom_site_symmetry_multiplicity
 _atom_site_fract_x
 _atom_site_fract_y
 _atom_site_fract_z
 _atom_site_occupancy
  Cr  Cr0  1  0.23666900  0.74897500  0.94218000  1
  Cr  Cr1  1  0.23391100  0.02736600  0.65571200  1
  Cr  Cr2  1  0.23367300  0.47173700  0.65365600  1
  Cr  Cr3  1  0.22770600  0.75556500  0.29457800  1
  Cr  Cr4  1  0.22357300  0.06675500  0.97639500  1
  Cr  Cr5  1  0.28750700  0.52597200  0.15097100  1
  Cr  Cr6  1  0.29117300  0.97521800  0.15674700  1
  Cr  Cr7  1  0.29631700  0.25040300  0.44627200  1
  Cr  Cr8  1  0.41292500  0.74339200  0.74675100  1
  Cr  Cr9  1  0.58665100  0.25043100  0.24816000  1
  Cr  Cr10  1  0.71657000  0.75019400  0.56071800  1
  Cr  Cr11  1  0.71499900  0.47528600  0.84305900  1
  Cr  Cr12  1  0.70647300  0.02326500  0.84816500  1
  Cr  Cr13  1  0.77040200  0.06359400  0.52737600  1
  Cr  Cr14  1  0.76871200  0.43590000  0.52708300  1
  Cr  Cr15  1  0.76826700  0.56492200  0.02019700  1
  Cr  Cr16  1  0.75712800  0.53085000  0.34245100  1
  Cr  Cr17  1  0.75909700  0.96976100  0.34401900  1
  Cr  Cr18  1  0.76178600  0.24561500  0.05475600  1
  O  O0  1  0.04810900  0.22581900  0.00090200  1
  O  O1  1  0.03696200  0.61600200  0.35672600  1
  O  O2  1  0.04029100  0.88643200  0.36163200  1
  O  O3  1  0.12970700  0.62782600  0.20920700  1
  O  O4  1  0.10647600  0.87709700  0.21468000  1
  O  O5  1  0.10592900  0.12375000  0.46801200  1
  O  O6  1  0.10588200  0.37688500  0.46742400  1
  O  O7  1  0.11129500  0.00259100  0.07374100  1
  O  O8  1  0.07861300  0.49594500  0.07874600  1
  O  O9  1  0.18419000  0.74883000  0.84634400  1
  O  O10  1  0.18693100  0.61977900  0.70167700  1
  O  O11  1  0.20131600  0.87983200  0.70575600  1
  O  O12  1  0.36034100  0.11441500  0.20327300  1
  O  O13  1  0.36524500  0.38792400  0.19784400  1
  O  O14  1  0.37563900  0.25104100  0.35282400  1
  O  O15  1  0.43623900  0.49383200  0.57718600  1
  O  O16  1  0.43916600  0.00591400  0.57984200  1
  O  O17  1  0.38190600  0.88842300  0.96718400  1
  O  O18  1  0.44965900  0.63179900  0.96378500  1
  O  O19  1  0.37446100  0.12546800  0.71249300  1
  O  O20  1  0.38676400  0.37792300  0.71096800  1
  O  O21  1  0.42360400  0.09964900  0.88678600  1
  O  O22  1  0.46213900  0.39237900  0.87110900  1
  O  O23  1  0.46297800  0.75065900  0.50640800  1
  O  O24  1  0.58421600  0.24979700  0.50527500  1
  O  O25  1  0.56244900  0.60102600  0.11762800  1
  O  O26  1  0.55782600  0.90091500  0.13243700  1
  O  O27  1  0.54155600  0.62545400  0.29792200  1
  O  O28  1  0.54391500  0.87550300  0.29891400  1
  O  O29  1  0.54962700  0.12919700  0.03328400  1
  O  O30  1  0.61966900  0.38432300  0.02997700  1
  O  O31  1  0.61749900  0.01166900  0.42743300  1
  O  O32  1  0.61992000  0.48915200  0.42692400  1
  O  O33  1  0.62659400  0.75207000  0.65742200  1
  O  O34  1  0.60793000  0.62502200  0.79258100  1
  O  O35  1  0.62740200  0.88616600  0.80144600  1
  O  O36  1  0.81285200  0.10697200  0.29344500  1
  O  O37  1  0.81195000  0.39423300  0.29153700  1
  O  O38  1  0.81223900  0.24438800  0.14999000  1
  O  O39  1  0.90853900  0.51348600  0.91967900  1
  O  O40  1  0.91945000  0.99640300  0.92213400  1
  O  O41  1  0.90008900  0.61589900  0.54115200  1
  O  O42  1  0.90267200  0.88328900  0.54010500  1
  O  O43  1  0.84970200  0.12187600  0.79034600  1
  O  O44  1  0.89655400  0.38885800  0.78698000  1
  O  O45  1  0.94752500  0.09906200  0.62531500  1
  O  O46  1  0.94960500  0.39712500  0.62455600  1
  O  O47  1  0.95806700  0.73110800  0.99619300  1
loop_
_geom_bond_atom_site_label_1
_geom_bond_atom_site_label_2
_geom_bond_distance
_geom_bond_site_symmetry_2
Cr0 O18 1.652736 1_555
Cr0 O17 1.669975 1_555
Cr0 O47 1.680556 1_455
Cr0 O9 1.686105 1_555
Cr1 O19 1.584804 1_555
Cr1 O16 1.674811 1_555
Cr1 O45 1.700344 1_455
Cr1 O11 1.750370 1_545
Cr2 O20 1.585498 1_555
Cr2 O15 1.674338 1_555
Cr2 O46 1.700645 1_455
Cr2 O10 1.752419 1_555
Cr3 O4 1.962575 1_555
Cr3 O2 2.006949 1_555
Cr3 O28 2.010717 1_555
Cr3 O1 2.023521 1_555
Cr3 O3 2.048622 1_555
Cr3 O27 2.063800 1_555
Cr4 O21 1.868052 1_555
Cr4 O7 1.888791 1_556
Cr4 O0 1.902667 1_556
Cr4 O40 1.942908 1_445
Cr4 O17 2.002665 1_545
Cr4 O29 2.025433 1_556
Cr5 O3 1.652010 1_555
Cr5 O8 1.672434 1_555
Cr5 O25 1.674543 1_555
Cr5 O13 1.679653 1_555
Cr6 O26 1.590958 1_555
Cr6 O12 1.684737 1_565
Cr6 O4 1.688599 1_555
Cr6 O7 1.729633 1_565
Cr7 O6 1.651476 1_555
Cr7 O5 1.653973 1_555
Cr7 O14 1.663800 1_555
Cr7 O24 1.778740 1_555
Cr8 O34 1.753065 1_555
Cr8 O33 1.873602 1_555
Cr8 O10 1.882287 1_555
Cr8 O11 1.897681 1_555
Cr8 O9 2.061512 1_555
Cr8 O35 2.061926 1_555
Cr9 O12 1.970544 1_555
Cr9 O13 1.999246 1_555
Cr9 O37 2.015268 1_555
Cr9 O36 2.020337 1_555
Cr9 O38 2.032614 1_555
Cr9 O14 2.088931 1_555
Cr10 O23 1.590865 1_555
Cr10 O42 1.690670 1_555
Cr10 O41 1.690903 1_555
Cr10 O33 1.731359 1_555
Cr11 O44 1.595695 1_555
Cr11 O22 1.596862 1_555
Cr11 O39 1.702542 1_555
Cr11 O34 1.849171 1_555
Cr12 O43 1.587833 1_555
Cr12 O35 1.679409 1_545
Cr12 O40 1.700118 1_545
Cr12 O21 1.746635 1_555
Cr13 O45 1.962275 1_555
Cr13 O16 1.972522 1_555
Cr13 O42 1.979688 1_545
Cr13 O31 1.979891 1_555
Cr13 O5 2.054037 1_655
Cr13 O24 2.162678 1_555
Cr14 O15 1.961789 1_555
Cr14 O46 1.966953 1_555
Cr14 O32 1.973565 1_555
Cr14 O41 1.981839 1_555
Cr14 O6 2.061505 1_655
Cr14 O24 2.162679 1_555
Cr15 O39 1.946685 1_554
Cr15 O8 1.995018 1_655
Cr15 O47 1.995565 1_554
Cr15 O18 2.001615 1_554
Cr15 O25 2.004233 1_555
Cr15 O30 2.006550 1_555
Cr16 O27 1.648900 1_555
Cr16 O32 1.664752 1_555
Cr16 O1 1.675122 1_655
Cr16 O37 1.682992 1_555
Cr17 O28 1.656496 1_555
Cr17 O31 1.661597 1_565
Cr17 O36 1.677445 1_565
Cr17 O2 1.678029 1_655
Cr18 O29 1.648545 1_555
Cr18 O30 1.650253 1_555
Cr18 O38 1.674079 1_555
Cr18 O0 1.713936 1_655
