# generated using pymatgen
data_Li9(CoO4)2
_symmetry_space_group_name_H-M   'P 1'
_cell_length_a   6.75527900
_cell_length_b   7.24019900
_cell_length_c   7.87154637
_cell_angle_alpha   88.68110936
_cell_angle_beta   90.00000000
_cell_angle_gamma   90.00000000
_symmetry_Int_Tables_number   1
_chemical_formula_structural   Li9(CoO4)2
_chemical_formula_sum   'Li18 Co4 O16'
_cell_volume   384.89190848
_cell_formula_units_Z   2
loop_
 _symmetry_equiv_pos_site_id
 _symmetry_equiv_pos_as_xyz
  1  'x, y, z'
loop_
 _atom_site_type_symbol
 _atom_site_label
 _atom_site_symmetry_multiplicity
 _atom_site_fract_x
 _atom_site_fract_y
 _atom_site_fract_z
 _atom_site_occupancy
  Li  Li0  1  0.26583400  0.50000000  0.00000000  1
  Li  Li1  1  0.73416600  0.50000000  0.00000000  1
  Li  Li2  1  0.50000000  0.76521800  0.07413000  1
  Li  Li3  1  0.23874000  0.96791500  0.16456000  1
  Li  Li4  1  0.76126000  0.96791500  0.16456000  1
  Li  Li5  1  0.50000000  0.24682800  0.27081600  1
  Li  Li6  1  0.23910500  0.50063800  0.33895500  1
  Li  Li7  1  0.76089500  0.50063800  0.33895500  1
  Li  Li8  1  0.00000000  0.24373000  0.45486200  1
  Li  Li9  1  0.73460600  0.00000000  0.50000000  1
  Li  Li10  1  0.26539400  0.00000000  0.50000000  1
  Li  Li11  1  0.00000000  0.75627000  0.54513800  1
  Li  Li12  1  0.23910500  0.49936200  0.66104500  1
  Li  Li13  1  0.76089500  0.49936200  0.66104500  1
  Li  Li14  1  0.50000000  0.75317200  0.72918400  1
  Li  Li15  1  0.76126000  0.03208500  0.83544000  1
  Li  Li16  1  0.23874000  0.03208500  0.83544000  1
  Li  Li17  1  0.50000000  0.23478200  0.92587000  1
  Co  Co0  1  0.00000000  0.23522300  0.12570800  1
  Co  Co1  1  0.50000000  0.73013700  0.38648900  1
  Co  Co2  1  0.50000000  0.26986300  0.61351100  1
  Co  Co3  1  0.00000000  0.76477700  0.87429200  1
  O  O0  1  0.23764200  0.21047600  0.02221800  1
  O  O1  1  0.76235800  0.21047600  0.02221800  1
  O  O2  1  0.00000000  0.45896500  0.21664200  1
  O  O3  1  0.50000000  0.53735100  0.21579900  1
  O  O4  1  0.00000000  0.04814600  0.28859100  1
  O  O5  1  0.50000000  0.96476900  0.27512700  1
  O  O6  1  0.26842100  0.71258100  0.50205400  1
  O  O7  1  0.73157900  0.71258100  0.50205400  1
  O  O8  1  0.26842100  0.28741900  0.49794600  1
  O  O9  1  0.73157900  0.28741900  0.49794600  1
  O  O10  1  0.50000000  0.03523100  0.72487300  1
  O  O11  1  0.00000000  0.95185400  0.71140900  1
  O  O12  1  0.50000000  0.46264900  0.78420100  1
  O  O13  1  0.00000000  0.54103500  0.78335800  1
  O  O14  1  0.23764200  0.78952400  0.97778200  1
  O  O15  1  0.76235800  0.78952400  0.97778200  1
loop_
_geom_bond_atom_site_label_1
_geom_bond_atom_site_label_2
_geom_bond_distance
_geom_bond_site_symmetry_2
Li0 O14 2.108099 1_554
Li0 O0 2.108099 1_555
Li0 O12 2.341375 1_554
Li0 O3 2.341375 1_555
Li0 O2 2.489549 1_555
Li0 O13 2.489549 1_554
Li1 O15 2.108099 1_554
Li1 O1 2.108099 1_555
Li1 O12 2.341375 1_554
Li1 O3 2.341375 1_555
Li1 O13 2.489549 1_654
Li1 O2 2.489549 1_655
Li2 O14 1.934182 1_554
Li2 O15 1.934182 1_554
Li2 O3 1.969955 1_555
Li2 O5 2.166994 1_555
Li3 O5 1.967715 1_555
Li3 O14 1.979204 1_554
Li3 O4 1.979321 1_565
Li3 O0 2.061332 1_565
Li4 O5 1.967715 1_555
Li4 O15 1.979204 1_554
Li4 O4 1.979321 1_665
Li4 O1 2.061332 1_565
Li5 O5 2.041664 1_545
Li5 O3 2.137778 1_555
Li5 O9 2.398813 1_555
Li5 O8 2.398813 1_555
Li6 O2 1.907961 1_555
Li6 O8 1.974767 1_555
Li6 O3 2.026007 1_555
Li6 O6 2.032948 1_555
Li7 O2 1.907961 1_655
Li7 O9 1.974767 1_555
Li7 O3 2.026007 1_555
Li7 O7 2.032948 1_555
Li8 O9 1.872943 1_455
Li8 O8 1.872943 1_555
Li8 O4 1.950268 1_555
Li8 O2 2.410424 1_555
Li9 O9 2.080762 1_555
Li9 O7 2.080762 1_545
Li9 O10 2.393905 1_555
Li9 O5 2.393905 1_545
Li9 O4 2.465413 1_655
Li9 O11 2.465413 1_645
Li10 O6 2.080762 1_545
Li10 O8 2.080762 1_555
Li10 O10 2.393905 1_555
Li10 O5 2.393905 1_545
Li10 O11 2.465413 1_545
Li10 O4 2.465413 1_555
Li11 O6 1.872943 1_555
Li11 O7 1.872943 1_455
Li11 O11 1.950268 1_555
Li11 O13 2.410424 1_555
Li12 O13 1.907961 1_555
Li12 O6 1.974767 1_555
Li12 O12 2.026007 1_555
Li12 O8 2.032948 1_555
Li13 O13 1.907961 1_655
Li13 O7 1.974767 1_555
Li13 O12 2.026007 1_555
Li13 O9 2.032948 1_555
Li14 O10 2.041664 1_565
Li14 O12 2.137778 1_555
Li14 O6 2.398813 1_555
Li14 O7 2.398813 1_555
Li15 O10 1.967715 1_555
Li15 O1 1.979204 1_556
Li15 O11 1.979321 1_645
Li15 O15 2.061332 1_545
Li16 O10 1.967715 1_555
Li16 O0 1.979204 1_556
Li16 O11 1.979321 1_545
Li16 O14 2.061332 1_545
Li17 O0 1.934182 1_556
Li17 O1 1.934182 1_556
Li17 O12 1.969955 1_555
Li17 O10 2.166994 1_555
Co0 O2 1.786037 1_555
Co0 O0 1.810952 1_555
Co0 O1 1.810952 1_455
Co0 O4 1.843514 1_555
Co1 O7 1.812631 1_555
Co1 O6 1.812631 1_555
Co1 O5 1.893600 1_555
Co1 O3 1.959556 1_555
Co2 O9 1.812631 1_555
Co2 O8 1.812631 1_555
Co2 O10 1.893600 1_555
Co2 O12 1.959556 1_555
Co3 O13 1.786037 1_555
Co3 O14 1.810952 1_555
Co3 O15 1.810952 1_455
Co3 O11 1.843514 1_555
