# generated using pymatgen
data_Li7Ti11O24
_symmetry_space_group_name_H-M   'P 1'
_cell_length_a   10.23558489
_cell_length_b   10.23558554
_cell_length_c   8.36395372
_cell_angle_alpha   66.02684007
_cell_angle_beta   66.02684702
_cell_angle_gamma   33.63855391
_symmetry_Int_Tables_number   1
_chemical_formula_structural   Li7Ti11O24
_chemical_formula_sum   'Li7 Ti11 O24'
_cell_volume   439.51174836
_cell_formula_units_Z   1
loop_
 _symmetry_equiv_pos_site_id
 _symmetry_equiv_pos_as_xyz
  1  'x, y, z'
loop_
 _atom_site_type_symbol
 _atom_site_label
 _atom_site_symmetry_multiplicity
 _atom_site_fract_x
 _atom_site_fract_y
 _atom_site_fract_z
 _atom_site_occupancy
  Li  Li0  1  0.08389509  0.08389523  0.79614193  1
  Li  Li1  1  0.75142054  0.75142116  0.12329213  1
  Li  Li2  1  0.24858005  0.24857998  0.87670713  1
  Li  Li3  1  0.58169326  0.58169309  0.54168694  1
  Li  Li4  1  0.41830693  0.41830668  0.45831361  1
  Li  Li5  1  0.91610457  0.91610438  0.20385719  1
  Li  Li6  1  0.49999943  0.49999856  -0.00000256  1
  Ti  Ti0  1  0.33852271  0.33852424  0.16386085  1
  Ti  Ti1  1  0.16719900  0.16719926  0.33038967  1
  Ti  Ti2  1  0.66519156  0.17409798  0.83552096  1
  Ti  Ti3  1  0.17410042  0.66519063  0.83551982  1
  Ti  Ti4  1  0.83279999  0.83280091  0.66961233  1
  Ti  Ti5  1  0.00000042  -0.00000012  0.50000040  1
  Ti  Ti6  1  0.66147655  0.66147678  0.83613927  1
  Ti  Ti7  1  0.82590506  0.33480517  0.16447906  1
  Ti  Ti8  1  0.49999816  0.00000279  0.50000038  1
  Ti  Ti9  1  0.33480657  0.82590226  0.16447922  1
  Ti  Ti10  1  0.00000300  0.49999778  0.50000081  1
  O  O0  1  0.67382786  0.67382825  0.58850217  1
  O  O1  1  0.17491070  0.17491092  0.56285925  1
  O  O2  1  0.47327673  0.02606293  0.26270197  1
  O  O3  1  0.02606255  0.47327702  0.26270203  1
  O  O4  1  0.64410048  0.17871148  0.07179828  1
  O  O5  1  0.17871229  0.64410025  0.07179790  1
  O  O6  1  0.34131782  0.34131931  0.92128044  1
  O  O7  1  0.48894535  0.48894487  0.76010230  1
  O  O8  1  0.15786204  0.15786303  0.10681600  1
  O  O9  1  0.99159684  0.99159720  0.75175542  1
  O  O10  1  0.84214111  0.84214202  0.89317733  1
  O  O11  1  0.65868432  0.65868529  0.07871673  1
  O  O12  1  0.13931131  0.69267527  0.59607704  1
  O  O13  1  0.69267514  0.13931162  0.59607729  1
  O  O14  1  0.97393724  0.52673091  0.73729482  1
  O  O15  1  0.86068558  0.30732223  0.40392939  1
  O  O16  1  0.52673040  0.97393807  0.73729444  1
  O  O17  1  0.30732145  0.86068603  0.40392980  1
  O  O18  1  0.00839911  0.00839883  0.24824531  1
  O  O19  1  0.82508928  0.82508933  0.43714463  1
  O  O20  1  0.51104960  0.51104950  0.23990224  1
  O  O21  1  0.32617169  0.32617176  0.41150031  1
  O  O22  1  0.82128635  0.35590140  0.92819784  1
  O  O23  1  0.35590146  0.82128572  0.92819795  1
loop_
_geom_bond_atom_site_label_1
_geom_bond_atom_site_label_2
_geom_bond_distance
_geom_bond_site_symmetry_2
Li0 O22 1.954948 1_455
Li0 O23 1.954949 1_545
Li0 O9 1.994733 1_445
Li0 O1 2.008408 1_555
Li1 O10 1.989972 1_554
Li1 O2 2.001798 1_565
Li1 O3 2.001799 1_655
Li1 O11 2.004093 1_555
Li2 O8 1.989912 1_556
Li2 O16 2.001814 1_545
Li2 O14 2.001816 1_455
Li2 O6 2.004131 1_555
Li3 O7 1.954938 1_555
Li3 O15 1.992815 1_555
Li3 O17 1.992817 1_555
Li3 O0 2.003252 1_555
Li4 O20 1.954864 1_555
Li4 O13 1.992832 1_555
Li4 O12 1.992833 1_555
Li4 O21 2.003246 1_555
Li5 O4 1.954952 1_565
Li5 O5 1.954954 1_655
Li5 O18 1.994670 1_665
Li5 O19 2.008427 1_555
Li6 O5 2.095037 1_555
Li6 O4 2.095040 1_555
Li6 O23 2.095056 1_554
Li6 O22 2.095058 1_554
Li6 O7 2.107559 1_554
Li6 O20 2.107606 1_555
O0 Ti6 1.980652 1_555
O0 Ti8 2.007705 1_565
O0 Ti10 2.007707 1_655
O1 Ti10 1.994398 1_555
O1 Ti8 1.994401 1_555
O1 Ti1 2.013163 1_555
O2 Ti1 1.977317 1_555
O2 Ti8 1.993650 1_555
O2 Ti0 2.060914 1_555
O3 Ti1 1.977317 1_555
O3 Ti10 1.993652 1_555
O3 Ti0 2.060911 1_555
O4 Ti0 1.897063 1_555
O4 Ti2 1.914792 1_554
O5 Ti0 1.897058 1_555
O5 Ti3 1.914795 1_554
O6 Ti0 2.006296 1_556
O6 Ti3 2.012738 1_555
O6 Ti2 2.012742 1_555
O7 Ti3 1.905317 1_555
O7 Ti2 1.905331 1_555
O8 Ti1 1.954650 1_555
O8 Ti7 2.046748 1_455
O8 Ti9 2.046770 1_545
O9 Ti2 1.977860 1_565
O9 Ti3 1.977861 1_655
O9 Ti5 2.041226 1_665
O10 Ti4 1.954622 1_555
O10 Ti2 2.046713 1_565
O10 Ti3 2.046733 1_655
O11 Ti6 2.006297 1_554
O11 Ti9 2.012793 1_555
O11 Ti7 2.012797 1_555
O12 Ti4 1.983552 1_455
O12 Ti5 1.995592 1_565
O12 Ti3 2.042443 1_555
O13 Ti4 1.983550 1_545
O13 Ti5 1.995594 1_655
O13 Ti2 2.042442 1_555
O14 Ti4 1.977247 1_555
O14 Ti10 1.993643 1_655
O14 Ti6 2.060949 1_555
O15 Ti1 1.983581 1_655
O15 Ti5 1.995553 1_655
O15 Ti7 2.042473 1_555
O16 Ti4 1.977244 1_555
O16 Ti8 1.993643 1_565
O16 Ti6 2.060953 1_555
O17 Ti1 1.983582 1_565
O17 Ti5 1.995546 1_565
O17 Ti9 2.042481 1_555
O18 Ti7 1.977891 1_455
O18 Ti9 1.977891 1_545
O18 Ti5 2.041256 1_555
O19 Ti8 1.994412 1_565
O19 Ti10 1.994414 1_655
O19 Ti4 2.013142 1_555
O20 Ti9 1.905389 1_555
O20 Ti7 1.905406 1_555
O21 Ti0 1.980669 1_555
O21 Ti10 2.007671 1_555
O21 Ti8 2.007671 1_555
O22 Ti6 1.897052 1_555
O22 Ti7 1.914826 1_556
O23 Ti6 1.897053 1_555
O23 Ti9 1.914823 1_556
