# generated using pymatgen
data_Tm(HO)3
_symmetry_space_group_name_H-M   'P 1'
_cell_length_a   10.23833100
_cell_length_b   5.32090900
_cell_length_c   6.20777605
_cell_angle_alpha   84.24937895
_cell_angle_beta   90.00000000
_cell_angle_gamma   90.00000000
_symmetry_Int_Tables_number   1
_chemical_formula_structural   Tm(HO)3
_chemical_formula_sum   'Tm4 H12 O12'
_cell_volume   336.48050275
_cell_formula_units_Z   4
loop_
 _symmetry_equiv_pos_site_id
 _symmetry_equiv_pos_as_xyz
  1  'x, y, z'
loop_
 _atom_site_type_symbol
 _atom_site_label
 _atom_site_symmetry_multiplicity
 _atom_site_fract_x
 _atom_site_fract_y
 _atom_site_fract_z
 _atom_site_occupancy
  Tm  Tm0  1  0.67019400  0.99064400  0.96008900  1
  Tm  Tm1  1  0.17019400  0.00935600  0.53991100  1
  Tm  Tm2  1  0.82980600  0.99064400  0.46008900  1
  Tm  Tm3  1  0.32980600  0.00935600  0.03991100  1
  H  H0  1  0.19322900  0.41249100  0.81258000  1
  H  H1  1  0.97479100  0.75931600  0.80566600  1
  H  H2  1  0.38815400  0.68890500  0.73068100  1
  H  H3  1  0.88815400  0.31109500  0.76931900  1
  H  H4  1  0.47479100  0.24068400  0.69433400  1
  H  H5  1  0.69322900  0.58750900  0.68742000  1
  H  H6  1  0.30677100  0.41249100  0.31258000  1
  H  H7  1  0.52520900  0.75931600  0.30566600  1
  H  H8  1  0.11184600  0.68890500  0.23068100  1
  H  H9  1  0.61184600  0.31109500  0.26931900  1
  H  H10  1  0.02520900  0.24068400  0.19433400  1
  H  H11  1  0.80677100  0.58750900  0.18742000  1
  O  O0  1  0.49317700  0.20820700  0.84835400  1
  O  O1  1  0.18120600  0.22883100  0.82983400  1
  O  O2  1  0.80669200  0.22326100  0.74513800  1
  O  O3  1  0.30669200  0.77673900  0.75486200  1
  O  O4  1  0.68120600  0.77116900  0.67016600  1
  O  O5  1  0.99317700  0.79179300  0.65164600  1
  O  O6  1  0.00682300  0.20820700  0.34835400  1
  O  O7  1  0.31879400  0.22883100  0.32983400  1
  O  O8  1  0.69330800  0.22326100  0.24513800  1
  O  O9  1  0.19330800  0.77673900  0.25486200  1
  O  O10  1  0.81879400  0.77116900  0.17016600  1
  O  O11  1  0.50682300  0.79179300  0.15164600  1
loop_
_geom_bond_atom_site_label_1
_geom_bond_atom_site_label_2
_geom_bond_distance
_geom_bond_site_symmetry_2
H0 O1 0.980124 1_555
H1 O5 0.972808 1_555
H2 O3 0.975002 1_555
H3 O2 0.975002 1_555
H4 O0 0.972808 1_555
H5 O4 0.980124 1_555
H6 O7 0.980124 1_555
H7 O11 0.972808 1_555
H8 O9 0.975002 1_555
H9 O8 0.975002 1_555
H10 O6 0.972808 1_555
H11 O10 0.980124 1_555
O0 Tm0 2.223727 1_545
O0 Tm3 2.253703 1_556
O1 Tm1 2.244298 1_555
O1 Tm3 2.252552 1_556
O2 Tm0 2.221393 1_545
O2 Tm2 2.271145 1_545
O3 Tm1 2.221393 1_565
O3 Tm3 2.271145 1_566
O4 Tm0 2.244298 1_555
O4 Tm2 2.252552 1_555
O5 Tm1 2.223727 1_665
O5 Tm2 2.253703 1_555
O6 Tm2 2.223727 1_445
O6 Tm1 2.253703 1_555
O7 Tm3 2.244298 1_555
O7 Tm1 2.252552 1_555
O8 Tm2 2.221393 1_545
O8 Tm0 2.271145 1_544
O9 Tm3 2.221393 1_565
O9 Tm1 2.271145 1_565
O10 Tm2 2.244298 1_555
O10 Tm0 2.252552 1_554
O11 Tm3 2.223727 1_565
O11 Tm0 2.253703 1_554
