# generated using pymatgen
data_Li4V3P8O29
_symmetry_space_group_name_H-M   'P 1'
_cell_length_a   9.74133500
_cell_length_b   9.75727796
_cell_length_c   14.10931853
_cell_angle_alpha   90.33114966
_cell_angle_beta   89.90456600
_cell_angle_gamma   119.90385814
_symmetry_Int_Tables_number   1
_chemical_formula_structural   Li4V3P8O29
_chemical_formula_sum   'Li8 V6 P16 O58'
_cell_volume   1162.50832039
_cell_formula_units_Z   2
loop_
 _symmetry_equiv_pos_site_id
 _symmetry_equiv_pos_as_xyz
  1  'x, y, z'
loop_
 _atom_site_type_symbol
 _atom_site_label
 _atom_site_symmetry_multiplicity
 _atom_site_fract_x
 _atom_site_fract_y
 _atom_site_fract_z
 _atom_site_occupancy
  Li  Li0  1  0.23716000  0.90383900  0.05739600  1
  Li  Li1  1  0.67181700  0.76830000  0.05845400  1
  Li  Li2  1  0.09838200  0.33490100  0.06013100  1
  Li  Li3  1  0.76237700  0.66589000  0.44091600  1
  Li  Li4  1  0.23323000  0.33503500  0.55801900  1
  Li  Li5  1  0.32604100  0.09116600  0.44070000  1
  Li  Li6  1  0.00081900  0.00395300  0.99645800  1
  Li  Li7  1  0.95624000  0.99527200  0.50328400  1
  V  V0  1  0.56576700  0.56700100  0.24600600  1
  V  V1  1  0.43729100  0.43464300  0.75526800  1
  V  V2  1  0.00214600  0.56659000  0.74873300  1
  V  V3  1  0.99665200  0.43365300  0.25338500  1
  V  V4  1  0.43761300  0.99880400  0.25185900  1
  V  V5  1  0.56636000  0.00083000  0.74674900  1
  P  P0  1  0.22414800  0.91350900  0.84015800  1
  P  P1  1  0.08223000  0.77582200  0.34284600  1
  P  P2  1  0.69474100  0.91648600  0.34409400  1
  P  P3  1  0.32930300  0.66405600  0.13007700  1
  P  P4  1  0.33342200  0.66356400  0.63107700  1
  P  P5  1  0.68947300  0.77988700  0.84065200  1
  P  P6  1  0.77524500  0.68638600  0.65866500  1
  P  P7  1  0.08589600  0.31230000  0.84468000  1
  P  P8  1  0.91842400  0.69210400  0.15593600  1
  P  P9  1  0.22806300  0.31611400  0.34236600  1
  P  P10  1  0.30839100  0.22159200  0.16031600  1
  P  P11  1  0.66600300  0.33717100  0.37002600  1
  P  P12  1  0.67023900  0.33263600  0.86817900  1
  P  P13  1  0.31127200  0.08920800  0.65750900  1
  P  P14  1  0.91533900  0.22095900  0.66057200  1
  P  P15  1  0.77871900  0.08422400  0.15881900  1
  O  O0  1  0.22818600  0.01508500  0.56699000  1
  O  O1  1  0.25494000  0.91555300  0.34137100  1
  O  O2  1  0.00874900  0.78908600  0.07239500  1
  O  O3  1  0.08501700  0.74094000  0.83040100  1
  O  O4  1  0.38247100  0.91582500  0.82568200  1
  O  O5  1  0.32301300  0.81074100  0.17046800  1
  O  O6  1  0.53789500  0.92010200  0.33068500  1
  O  O7  1  0.79484200  0.99769600  0.07531300  1
  O  O8  1  0.65518600  0.91749700  0.83102300  1
  O  O9  1  0.18573400  0.66186900  0.67864300  1
  O  O10  1  0.08277200  0.61736200  0.32830500  1
  O  O11  1  0.47873700  0.81381000  0.67577800  1
  O  O12  1  0.31952200  0.65315600  0.02436800  1
  O  O13  1  0.32737000  0.65826500  0.52617700  1
  O  O14  1  0.48744500  0.67585100  0.16682200  1
  O  O15  1  0.08483600  0.46786700  0.82957600  1
  O  O16  1  0.18567500  0.51195900  0.17533700  1
  O  O17  1  0.65659100  0.74116000  0.33405900  1
  O  O18  1  0.79727700  0.79733100  0.74975500  1
  O  O19  1  0.78399600  0.76954000  0.56872400  1
  O  O20  1  0.77219100  0.78817600  0.93106600  1
  O  O21  1  0.53146800  0.62075800  0.82697100  1
  O  O22  1  0.33323500  0.51391100  0.67219400  1
  O  O23  1  0.74603300  0.66104900  0.15687200  1
  O  O24  1  0.38129500  0.47189100  0.32775700  1
  O  O25  1  0.08378900  0.34197800  0.33312500  1
  O  O26  1  0.00013300  0.79717000  0.24963800  1
  O  O27  1  0.99113900  0.78070700  0.42665900  1
  O  O28  1  0.00598100  0.20561500  0.57981600  1
  O  O29  1  0.91417400  0.65243600  0.66748100  1
  O  O30  1  0.61740800  0.53137200  0.67423700  1
  O  O31  1  0.25928900  0.34602100  0.83094300  1
  O  O32  1  0.67381400  0.48906200  0.32915200  1
  O  O33  1  0.46515700  0.38088400  0.17182700  1
  O  O34  1  0.20715500  0.21202700  0.07856200  1
  O  O35  1  0.22279000  0.23242100  0.43310800  1
  O  O36  1  0.20929300  0.19812800  0.25705400  1
  O  O37  1  0.34334600  0.26233000  0.66364100  1
  O  O38  1  0.81623300  0.47641900  0.82140000  1
  O  O39  1  0.91949200  0.53530100  0.17109800  1
  O  O40  1  0.52171200  0.33669800  0.82292600  1
  O  O41  1  0.66574700  0.33277500  0.97263500  1
  O  O42  1  0.67516200  0.34121400  0.47515100  1
  O  O43  1  0.51247800  0.18886500  0.33120800  1
  O  O44  1  0.92135100  0.38138100  0.66978700  1
  O  O45  1  0.81158500  0.33276600  0.32024500  1
  O  O46  1  0.34348900  0.08304700  0.16153900  1
  O  O47  1  0.20389100  0.00345100  0.74945400  1
  O  O48  1  0.21212000  0.98659600  0.93067400  1
  O  O49  1  0.46798000  0.08746500  0.67209700  1
  O  O50  1  0.66376000  0.18352800  0.82115200  1
  O  O51  1  0.62072900  0.08169100  0.17009300  1
  O  O52  1  0.91878100  0.25849900  0.16204100  1
  O  O53  1  0.01989300  0.23044800  0.93622000  1
  O  O54  1  0.98939300  0.19720700  0.75825800  1
  O  O55  1  0.74080700  0.08475800  0.66345100  1
  O  O56  1  0.78735400  0.99054000  0.43044700  1
  O  O57  1  0.80110000  0.00374400  0.25260700  1
loop_
_geom_bond_atom_site_label_1
_geom_bond_atom_site_label_2
_geom_bond_distance
_geom_bond_site_symmetry_2
Li0 O2 1.940699 1_555
Li0 O48 2.030484 1_554
Li0 O46 2.111627 1_565
Li0 O5 2.201928 1_555
Li1 O7 1.955221 1_555
Li1 O20 2.008296 1_554
Li1 O23 2.078590 1_555
Li1 O14 2.183724 1_555
Li2 O53 1.971482 1_554
Li2 O34 1.974578 1_555
Li2 O52 2.094690 1_455
Li2 O16 2.203914 1_555
Li3 O27 1.942513 1_555
Li3 O19 2.021587 1_555
Li3 O17 2.155693 1_555
Li3 O32 2.167191 1_555
Li4 O28 1.950545 1_555
Li4 O35 1.999392 1_555
Li4 O37 2.156627 1_555
Li4 O22 2.206296 1_555
Li5 O0 1.984652 1_555
Li5 O1 2.042558 1_545
Li5 O35 2.075337 1_555
Li5 O43 2.207969 1_555
Li6 O7 2.266891 1_446
Li6 O53 2.291860 1_555
Li6 O34 2.327136 1_556
Li6 O48 2.338033 1_545
Li6 O20 2.356506 1_445
Li6 O2 2.395206 1_546
Li7 O56 1.922031 1_555
Li7 O28 2.144196 1_665
Li7 O19 2.202827 1_555
Li7 O27 2.519866 1_555
O0 P13 1.489428 1_555
O1 P1 1.550131 1_555
O1 V4 1.996129 1_555
O2 P8 1.496073 1_455
O3 P0 1.553553 1_555
O3 V2 1.866701 1_555
O4 P0 1.544377 1_555
O4 V5 1.913029 1_565
O5 P3 1.566809 1_555
O5 V4 1.967116 1_555
O6 P2 1.557651 1_555
O6 V4 1.882130 1_555
O7 P15 1.498586 1_565
O8 P5 1.543462 1_555
O8 V5 1.881439 1_565
O9 P4 1.579134 1_555
O9 V2 1.840531 1_555
O10 P1 1.561132 1_555
O10 V3 1.875073 1_455
O11 P4 1.572848 1_555
O11 V5 1.868117 1_565
O12 P3 1.494471 1_555
O13 P4 1.480917 1_555
O14 P3 1.574932 1_555
O14 V0 1.944956 1_555
O15 P7 1.539139 1_555
O15 V2 1.914999 1_555
O16 P3 1.582846 1_555
O16 V3 1.946055 1_455
O17 P2 1.564653 1_555
O17 V0 1.922004 1_555
O18 P5 1.611335 1_555
O18 P6 1.619531 1_555
O19 P6 1.489470 1_555
O20 P5 1.490114 1_555
O21 P5 1.559406 1_555
O21 V1 1.866444 1_555
O22 P4 1.573498 1_555
O22 V1 1.948254 1_555
O23 P8 1.550709 1_555
O23 V0 1.976508 1_555
O24 P9 1.523563 1_555
O24 V0 1.939988 1_555
O25 P9 1.552588 1_555
O25 V3 1.886352 1_455
O26 P1 1.607863 1_555
O26 P8 1.614496 1_455
O27 P1 1.492010 1_655
O28 P14 1.492248 1_455
O29 P6 1.550747 1_555
O29 V2 1.865571 1_655
O30 P6 1.543999 1_555
O30 V1 1.905534 1_555
O31 P7 1.563434 1_555
O31 V1 1.844969 1_555
O32 P11 1.559526 1_555
O32 V0 1.968470 1_555
O33 P10 1.550950 1_555
O33 V0 1.886955 1_555
O34 P10 1.490829 1_555
O35 P9 1.509546 1_555
O36 P9 1.607002 1_555
O36 P10 1.620536 1_555
O37 P13 1.559056 1_555
O37 V1 1.944286 1_555
O38 P12 1.563518 1_555
O38 V2 1.876337 1_655
O39 P8 1.551239 1_555
O39 V3 1.912102 1_555
O40 P12 1.600989 1_555
O40 V1 1.815954 1_555
O41 P12 1.474392 1_555
O42 P11 1.485186 1_555
O43 P11 1.570452 1_555
O43 V4 1.963306 1_545
O44 P14 1.541659 1_555
O44 V2 1.920256 1_655
O45 P11 1.601086 1_555
O45 V3 1.828821 1_555
O46 P10 1.551049 1_555
O46 V4 1.976817 1_545
O47 P13 1.616349 1_555
O47 P0 1.622779 1_545
O48 P0 1.491846 1_555
O49 P13 1.549183 1_555
O49 V5 1.887814 1_555
O50 P12 1.567917 1_555
O50 V5 1.864210 1_555
O51 P15 1.534875 1_555
O51 V4 1.931946 1_545
O52 P15 1.562415 1_555
O52 V3 1.960194 1_555
O53 P7 1.488804 1_555
O54 P7 1.602199 1_655
O54 P14 1.627106 1_555
O55 P14 1.551087 1_555
O55 V5 1.885889 1_555
O56 P2 1.471046 1_555
O57 P2 1.610358 1_545
O57 P15 1.612122 1_555
