# generated using pymatgen
data_Mn3CrCo2(PO4)6
_symmetry_space_group_name_H-M   'P 1'
_cell_length_a   8.48783937
_cell_length_b   8.48783937
_cell_length_c   8.48783937
_cell_angle_alpha   60.69989285
_cell_angle_beta   60.69989285
_cell_angle_gamma   60.69989049
_symmetry_Int_Tables_number   1
_chemical_formula_structural   Mn3CrCo2(PO4)6
_chemical_formula_sum   'Mn3 Cr1 Co2 P6 O24'
_cell_volume   439.22116040
_cell_formula_units_Z   1
loop_
 _symmetry_equiv_pos_site_id
 _symmetry_equiv_pos_as_xyz
  1  'x, y, z'
loop_
 _atom_site_type_symbol
 _atom_site_label
 _atom_site_symmetry_multiplicity
 _atom_site_fract_x
 _atom_site_fract_y
 _atom_site_fract_z
 _atom_site_occupancy
  Mn  Mn0  1  0.64213200  0.64213200  0.64213200  1
  Mn  Mn1  1  0.85769100  0.85769100  0.85769100  1
  Mn  Mn2  1  0.35739200  0.35739200  0.35739200  1
  Cr  Cr0  1  0.14082900  0.14082900  0.14082900  1
  Co  Co0  1  0.00011800  0.00011800  0.00011800  1
  Co  Co1  1  0.49935300  0.49935300  0.49935300  1
  P  P0  1  0.54238300  0.95875100  0.25000000  1
  P  P1  1  0.25000000  0.54238300  0.95875100  1
  P  P2  1  0.95875100  0.25000000  0.54238300  1
  P  P3  1  0.03962100  0.74970900  0.45902200  1
  P  P4  1  0.74970900  0.45902200  0.03962100  1
  P  P5  1  0.45902200  0.03962100  0.74970900  1
  O  O0  1  0.30802300  0.51221700  0.11820200  1
  O  O1  1  0.11820200  0.30802300  0.51221700  1
  O  O2  1  0.51221700  0.11820200  0.30802300  1
  O  O3  1  0.74264700  0.93972200  0.08981300  1
  O  O4  1  0.38546600  0.99121900  0.18988500  1
  O  O5  1  0.55564100  0.75962100  0.41714300  1
  O  O6  1  0.08981300  0.74264700  0.93972200  1
  O  O7  1  0.41714300  0.55564100  0.75962100  1
  O  O8  1  0.00955200  0.80807600  0.61798300  1
  O  O9  1  0.75962100  0.41714300  0.55564100  1
  O  O10  1  0.05498400  0.91063500  0.26101800  1
  O  O11  1  0.80807600  0.61798300  0.00955200  1
  O  O12  1  0.18988500  0.38546600  0.99121900  1
  O  O13  1  0.93972200  0.08981300  0.74264700  1
  O  O14  1  0.23829200  0.58574900  0.44476900  1
  O  O15  1  0.99121900  0.18988500  0.38546600  1
  O  O16  1  0.58574900  0.44476900  0.23829200  1
  O  O17  1  0.91063500  0.26101800  0.05498400  1
  O  O18  1  0.44476900  0.23829200  0.58574900  1
  O  O19  1  0.61798300  0.00955200  0.80807600  1
  O  O20  1  0.26101800  0.05498400  0.91063500  1
  O  O21  1  0.49542500  0.87972300  0.68720700  1
  O  O22  1  0.87972300  0.68720700  0.49542500  1
  O  O23  1  0.68720700  0.49542500  0.87972300  1
loop_
_geom_bond_atom_site_label_1
_geom_bond_atom_site_label_2
_geom_bond_distance
_geom_bond_site_symmetry_2
Mn0 O21 1.895994 1_555
Mn0 O23 1.895994 1_555
Mn0 O22 1.895994 1_555
Mn0 O9 1.992967 1_555
Mn0 O5 1.992967 1_555
Mn0 O7 1.992967 1_555
Mn1 O19 1.928438 1_565
Mn1 O8 1.928439 1_655
Mn1 O11 1.928439 1_556
Mn1 O6 2.028357 1_655
Mn1 O3 2.028357 1_556
Mn1 O13 2.028357 1_565
Mn2 O2 1.925266 1_555
Mn2 O0 1.925266 1_555
Mn2 O1 1.925266 1_555
Mn2 O14 2.020934 1_555
Mn2 O18 2.020934 1_555
Mn2 O16 2.020934 1_555
Cr0 O4 1.960976 1_545
Cr0 O15 1.960976 1_455
Cr0 O12 1.960976 1_554
Cr0 O17 2.025867 1_455
Cr0 O20 2.025867 1_554
Cr0 O10 2.025867 1_545
Co0 O6 2.168946 1_544
Co0 O13 2.168946 1_454
Co0 O3 2.168946 1_445
Co0 O17 2.171314 1_455
Co0 O10 2.171314 1_545
Co0 O20 2.171314 1_554
Co1 O14 2.178124 1_555
Co1 O16 2.178124 1_555
Co1 O18 2.178124 1_555
Co1 O9 2.189363 1_555
Co1 O7 2.189363 1_555
Co1 O5 2.189363 1_555
O0 P1 1.526293 1_554
O1 P2 1.526293 1_455
O2 P0 1.526293 1_545
O3 P0 1.564681 1_555
O4 P0 1.509469 1_555
O5 P0 1.582788 1_555
O6 P1 1.564680 1_555
O7 P1 1.582788 1_555
O8 P3 1.524612 1_555
O9 P2 1.582788 1_555
O10 P3 1.555703 1_555
O11 P4 1.524612 1_555
O12 P1 1.509469 1_555
O13 P2 1.564681 1_555
O14 P3 1.569435 1_555
O15 P2 1.509469 1_555
O16 P4 1.569435 1_555
O17 P4 1.555703 1_555
O18 P5 1.569435 1_555
O19 P5 1.524612 1_555
O20 P5 1.555703 1_555
O21 P5 1.533851 1_565
O22 P3 1.533851 1_655
O23 P4 1.533851 1_556
