# generated using pymatgen
data_CsH24Rh(SO10)2
_symmetry_space_group_name_H-M   'P 1'
_cell_length_a   12.43859300
_cell_length_b   12.43859300
_cell_length_c   12.43859300
_cell_angle_alpha   90.00000000
_cell_angle_beta   90.00000000
_cell_angle_gamma   90.00000000
_symmetry_Int_Tables_number   1
_chemical_formula_structural   CsH24Rh(SO10)2
_chemical_formula_sum   'Cs4 H96 Rh4 S8 O80'
_cell_volume   1924.48164293
_cell_formula_units_Z   4
loop_
 _symmetry_equiv_pos_site_id
 _symmetry_equiv_pos_as_xyz
  1  'x, y, z'
loop_
 _atom_site_type_symbol
 _atom_site_label
 _atom_site_symmetry_multiplicity
 _atom_site_fract_x
 _atom_site_fract_y
 _atom_site_fract_z
 _atom_site_occupancy
  Cs  Cs0  1  0.00000000  0.00000000  0.50000000  1
  Cs  Cs1  1  0.00000000  0.50000000  0.00000000  1
  Cs  Cs2  1  0.50000000  0.00000000  0.00000000  1
  Cs  Cs3  1  0.50000000  0.50000000  0.50000000  1
  H  H0  1  0.20811000  0.62141400  0.17606000  1
  H  H1  1  0.79189000  0.12141400  0.32394000  1
  H  H2  1  0.29189000  0.37858600  0.67606000  1
  H  H3  1  0.70811000  0.87858600  0.82394000  1
  H  H4  1  0.17606000  0.20811000  0.62141400  1
  H  H5  1  0.32394000  0.79189000  0.12141400  1
  H  H6  1  0.67606000  0.29189000  0.37858600  1
  H  H7  1  0.82394000  0.70811000  0.87858600  1
  H  H8  1  0.62141400  0.17606000  0.20811000  1
  H  H9  1  0.12141400  0.32394000  0.79189000  1
  H  H10  1  0.37858600  0.67606000  0.29189000  1
  H  H11  1  0.87858600  0.82394000  0.70811000  1
  H  H12  1  0.79189000  0.37858600  0.82394000  1
  H  H13  1  0.20811000  0.87858600  0.67606000  1
  H  H14  1  0.70811000  0.62141400  0.32394000  1
  H  H15  1  0.29189000  0.12141400  0.17606000  1
  H  H16  1  0.82394000  0.79189000  0.37858600  1
  H  H17  1  0.67606000  0.20811000  0.87858600  1
  H  H18  1  0.32394000  0.70811000  0.62141400  1
  H  H19  1  0.17606000  0.29189000  0.12141400  1
  H  H20  1  0.37858600  0.82394000  0.79189000  1
  H  H21  1  0.87858600  0.67606000  0.20811000  1
  H  H22  1  0.62141400  0.32394000  0.70811000  1
  H  H23  1  0.12141400  0.17606000  0.29189000  1
  H  H24  1  0.23117400  0.50379500  0.21373900  1
  H  H25  1  0.76882600  0.00379500  0.28626100  1
  H  H26  1  0.26882600  0.49620500  0.71373900  1
  H  H27  1  0.73117400  0.99620500  0.78626100  1
  H  H28  1  0.21373900  0.23117400  0.50379500  1
  H  H29  1  0.28626100  0.76882600  0.00379500  1
  H  H30  1  0.71373900  0.26882600  0.49620500  1
  H  H31  1  0.78626100  0.73117400  0.99620500  1
  H  H32  1  0.50379500  0.21373900  0.23117400  1
  H  H33  1  0.00379500  0.28626100  0.76882600  1
  H  H34  1  0.49620500  0.71373900  0.26882600  1
  H  H35  1  0.99620500  0.78626100  0.73117400  1
  H  H36  1  0.76882600  0.49620500  0.78626100  1
  H  H37  1  0.23117400  0.99620500  0.71373900  1
  H  H38  1  0.73117400  0.50379500  0.28626100  1
  H  H39  1  0.26882600  0.00379500  0.21373900  1
  H  H40  1  0.78626100  0.76882600  0.49620500  1
  H  H41  1  0.71373900  0.23117400  0.99620500  1
  H  H42  1  0.28626100  0.73117400  0.50379500  1
  H  H43  1  0.21373900  0.26882600  0.00379500  1
  H  H44  1  0.49620500  0.78626100  0.76882600  1
  H  H45  1  0.99620500  0.71373900  0.23117400  1
  H  H46  1  0.50379500  0.28626100  0.73117400  1
  H  H47  1  0.00379500  0.21373900  0.26882600  1
  H  H48  1  0.57478600  0.69570400  0.02676000  1
  H  H49  1  0.42521400  0.19570400  0.47324000  1
  H  H50  1  0.92521400  0.30429600  0.52676000  1
  H  H51  1  0.07478600  0.80429600  0.97324000  1
  H  H52  1  0.02676000  0.57478600  0.69570400  1
  H  H53  1  0.47324000  0.42521400  0.19570400  1
  H  H54  1  0.52676000  0.92521400  0.30429600  1
  H  H55  1  0.97324000  0.07478600  0.80429600  1
  H  H56  1  0.69570400  0.02676000  0.57478600  1
  H  H57  1  0.19570400  0.47324000  0.42521400  1
  H  H58  1  0.30429600  0.52676000  0.92521400  1
  H  H59  1  0.80429600  0.97324000  0.07478600  1
  H  H60  1  0.42521400  0.30429600  0.97324000  1
  H  H61  1  0.57478600  0.80429600  0.52676000  1
  H  H62  1  0.07478600  0.69570400  0.47324000  1
  H  H63  1  0.92521400  0.19570400  0.02676000  1
  H  H64  1  0.97324000  0.42521400  0.30429600  1
  H  H65  1  0.52676000  0.57478600  0.80429600  1
  H  H66  1  0.47324000  0.07478600  0.69570400  1
  H  H67  1  0.02676000  0.92521400  0.19570400  1
  H  H68  1  0.30429600  0.97324000  0.42521400  1
  H  H69  1  0.80429600  0.52676000  0.57478600  1
  H  H70  1  0.69570400  0.47324000  0.07478600  1
  H  H71  1  0.19570400  0.02676000  0.92521400  1
  H  H72  1  0.44377900  0.70838100  0.02329300  1
  H  H73  1  0.55622100  0.20838100  0.47670700  1
  H  H74  1  0.05622100  0.29161900  0.52329300  1
  H  H75  1  0.94377900  0.79161900  0.97670700  1
  H  H76  1  0.02329300  0.44377900  0.70838100  1
  H  H77  1  0.47670700  0.55622100  0.20838100  1
  H  H78  1  0.52329300  0.05622100  0.29161900  1
  H  H79  1  0.97670700  0.94377900  0.79161900  1
  H  H80  1  0.70838100  0.02329300  0.44377900  1
  H  H81  1  0.20838100  0.47670700  0.55622100  1
  H  H82  1  0.29161900  0.52329300  0.05622100  1
  H  H83  1  0.79161900  0.97670700  0.94377900  1
  H  H84  1  0.55622100  0.29161900  0.97670700  1
  H  H85  1  0.44377900  0.79161900  0.52329300  1
  H  H86  1  0.94377900  0.70838100  0.47670700  1
  H  H87  1  0.05622100  0.20838100  0.02329300  1
  H  H88  1  0.97670700  0.55622100  0.29161900  1
  H  H89  1  0.52329300  0.44377900  0.79161900  1
  H  H90  1  0.47670700  0.94377900  0.70838100  1
  H  H91  1  0.02329300  0.05622100  0.20838100  1
  H  H92  1  0.29161900  0.97670700  0.55622100  1
  H  H93  1  0.79161900  0.52329300  0.44377900  1
  H  H94  1  0.70838100  0.47670700  0.94377900  1
  H  H95  1  0.20838100  0.02329300  0.05622100  1
  Rh  Rh0  1  0.50000000  0.50000000  0.00000000  1
  Rh  Rh1  1  0.50000000  0.00000000  0.50000000  1
  Rh  Rh2  1  0.00000000  0.50000000  0.50000000  1
  Rh  Rh3  1  0.00000000  0.00000000  0.00000000  1
  S  S0  1  0.18155900  0.81844100  0.31844100  1
  S  S1  1  0.81844100  0.31844100  0.18155900  1
  S  S2  1  0.31844100  0.18155900  0.81844100  1
  S  S3  1  0.68155900  0.68155900  0.68155900  1
  S  S4  1  0.81844100  0.18155900  0.68155900  1
  S  S5  1  0.18155900  0.68155900  0.81844100  1
  S  S6  1  0.68155900  0.81844100  0.18155900  1
  S  S7  1  0.31844100  0.31844100  0.31844100  1
  O  O0  1  0.25080800  0.74919200  0.24919200  1
  O  O1  1  0.74919200  0.24919200  0.25080800  1
  O  O2  1  0.24919200  0.25080800  0.74919200  1
  O  O3  1  0.75080800  0.75080800  0.75080800  1
  O  O4  1  0.74919200  0.25080800  0.75080800  1
  O  O5  1  0.25080800  0.75080800  0.74919200  1
  O  O6  1  0.75080800  0.74919200  0.25080800  1
  O  O7  1  0.24919200  0.24919200  0.24919200  1
  O  O8  1  0.06989700  0.82297800  0.27415600  1
  O  O9  1  0.93010300  0.32297800  0.22584400  1
  O  O10  1  0.43010300  0.17702200  0.77415600  1
  O  O11  1  0.56989700  0.67702200  0.72584400  1
  O  O12  1  0.27415600  0.06989700  0.82297800  1
  O  O13  1  0.22584400  0.93010300  0.32297800  1
  O  O14  1  0.77415600  0.43010300  0.17702200  1
  O  O15  1  0.72584400  0.56989700  0.67702200  1
  O  O16  1  0.82297800  0.27415600  0.06989700  1
  O  O17  1  0.32297800  0.22584400  0.93010300  1
  O  O18  1  0.17702200  0.77415600  0.43010300  1
  O  O19  1  0.67702200  0.72584400  0.56989700  1
  O  O20  1  0.93010300  0.17702200  0.72584400  1
  O  O21  1  0.06989700  0.67702200  0.77415600  1
  O  O22  1  0.56989700  0.82297800  0.22584400  1
  O  O23  1  0.43010300  0.32297800  0.27415600  1
  O  O24  1  0.72584400  0.93010300  0.17702200  1
  O  O25  1  0.77415600  0.06989700  0.67702200  1
  O  O26  1  0.22584400  0.56989700  0.82297800  1
  O  O27  1  0.27415600  0.43010300  0.32297800  1
  O  O28  1  0.17702200  0.72584400  0.93010300  1
  O  O29  1  0.67702200  0.77415600  0.06989700  1
  O  O30  1  0.82297800  0.22584400  0.56989700  1
  O  O31  1  0.32297800  0.27415600  0.43010300  1
  O  O32  1  0.21084800  0.54698900  0.14944800  1
  O  O33  1  0.78915200  0.04698900  0.35055200  1
  O  O34  1  0.28915200  0.45301100  0.64944800  1
  O  O35  1  0.71084800  0.95301100  0.85055200  1
  O  O36  1  0.14944800  0.21084800  0.54698900  1
  O  O37  1  0.35055200  0.78915200  0.04698900  1
  O  O38  1  0.64944800  0.28915200  0.45301100  1
  O  O39  1  0.85055200  0.71084800  0.95301100  1
  O  O40  1  0.54698900  0.14944800  0.21084800  1
  O  O41  1  0.04698900  0.35055200  0.78915200  1
  O  O42  1  0.45301100  0.64944800  0.28915200  1
  O  O43  1  0.95301100  0.85055200  0.71084800  1
  O  O44  1  0.78915200  0.45301100  0.85055200  1
  O  O45  1  0.21084800  0.95301100  0.64944800  1
  O  O46  1  0.71084800  0.54698900  0.35055200  1
  O  O47  1  0.28915200  0.04698900  0.14944800  1
  O  O48  1  0.85055200  0.78915200  0.45301100  1
  O  O49  1  0.64944800  0.21084800  0.95301100  1
  O  O50  1  0.35055200  0.71084800  0.54698900  1
  O  O51  1  0.14944800  0.28915200  0.04698900  1
  O  O52  1  0.45301100  0.85055200  0.78915200  1
  O  O53  1  0.95301100  0.64944800  0.21084800  1
  O  O54  1  0.54698900  0.35055200  0.71084800  1
  O  O55  1  0.04698900  0.14944800  0.28915200  1
  O  O56  1  0.50777600  0.66473100  0.99456000  1
  O  O57  1  0.49222400  0.16473100  0.50544000  1
  O  O58  1  0.99222400  0.33526900  0.49456000  1
  O  O59  1  0.00777600  0.83526900  0.00544000  1
  O  O60  1  0.99456000  0.50777600  0.66473100  1
  O  O61  1  0.50544000  0.49222400  0.16473100  1
  O  O62  1  0.49456000  0.99222400  0.33526900  1
  O  O63  1  0.00544000  0.00777600  0.83526900  1
  O  O64  1  0.66473100  0.99456000  0.50777600  1
  O  O65  1  0.16473100  0.50544000  0.49222400  1
  O  O66  1  0.33526900  0.49456000  0.99222400  1
  O  O67  1  0.83526900  0.00544000  0.00777600  1
  O  O68  1  0.49222400  0.33526900  0.00544000  1
  O  O69  1  0.50777600  0.83526900  0.49456000  1
  O  O70  1  0.00777600  0.66473100  0.50544000  1
  O  O71  1  0.99222400  0.16473100  0.99456000  1
  O  O72  1  0.00544000  0.49222400  0.33526900  1
  O  O73  1  0.49456000  0.50777600  0.83526900  1
  O  O74  1  0.50544000  0.00777600  0.66473100  1
  O  O75  1  0.99456000  0.99222400  0.16473100  1
  O  O76  1  0.33526900  0.00544000  0.49222400  1
  O  O77  1  0.83526900  0.49456000  0.50777600  1
  O  O78  1  0.66473100  0.50544000  0.00777600  1
  O  O79  1  0.16473100  0.99456000  0.99222400  1
loop_
_geom_bond_atom_site_label_1
_geom_bond_atom_site_label_2
_geom_bond_distance
_geom_bond_site_symmetry_2
Cs0 O55 3.267340 1_555
Cs0 O45 3.267340 1_545
Cs0 O36 3.267340 1_555
Cs0 O43 3.267340 1_445
Cs0 O48 3.267340 1_445
Cs0 O33 3.267340 1_455
Cs0 O30 3.673660 1_455
Cs0 O13 3.673660 1_545
Cs0 O8 3.673660 1_545
Cs0 O25 3.673660 1_455
Cs0 O18 3.673660 1_545
Cs0 O20 3.673660 1_455
Cs1 O53 3.267340 1_455
Cs1 O32 3.267340 1_555
Cs1 O51 3.267340 1_555
Cs1 O39 3.267340 1_454
Cs1 O44 3.267340 1_454
Cs1 O41 3.267340 1_554
Cs1 O26 3.673660 1_554
Cs1 O9 3.673660 1_455
Cs1 O16 3.673660 1_455
Cs1 O21 3.673660 1_554
Cs1 O28 3.673660 1_554
Cs1 O14 3.673660 1_455
Cs2 O40 3.267340 1_555
Cs2 O49 3.267340 1_554
Cs2 O47 3.267340 1_555
Cs2 O37 3.267340 1_545
Cs2 O35 3.267340 1_544
Cs2 O52 3.267340 1_544
Cs2 O17 3.673660 1_554
Cs2 O12 3.673660 1_554
Cs2 O22 3.673660 1_545
Cs2 O24 3.673660 1_545
Cs2 O10 3.673660 1_554
Cs2 O29 3.673660 1_545
Cs3 O34 3.267340 1_555
Cs3 O38 3.267340 1_555
Cs3 O42 3.267340 1_555
Cs3 O50 3.267340 1_555
Cs3 O54 3.267340 1_555
Cs3 O46 3.267340 1_555
Cs3 O23 3.673660 1_555
Cs3 O27 3.673660 1_555
Cs3 O31 3.673660 1_555
Cs3 O15 3.673660 1_555
Cs3 O19 3.673660 1_555
Cs3 O11 3.673660 1_555
H0 O32 0.983733 1_555
H1 O33 0.983733 1_555
H2 O34 0.983733 1_555
H3 O35 0.983733 1_555
H4 O36 0.983733 1_555
H5 O37 0.983733 1_555
H6 O38 0.983733 1_555
H7 O39 0.983733 1_555
H8 O40 0.983733 1_555
H9 O41 0.983733 1_555
H10 O42 0.983733 1_555
H11 O43 0.983733 1_555
H12 O44 0.983733 1_555
H13 O45 0.983733 1_555
H14 O46 0.983733 1_555
H15 O47 0.983733 1_555
H16 O48 0.983733 1_555
H17 O49 0.983733 1_555
H18 O50 0.983733 1_555
H19 O51 0.983733 1_555
H20 O52 0.983733 1_555
H21 O53 0.983733 1_555
H22 O54 0.983733 1_555
H23 O55 0.983733 1_555
H24 O32 0.996035 1_555
H24 O27 1.724041 1_555
H25 O33 0.996035 1_555
H25 O24 1.724041 1_545
H26 O34 0.996035 1_555
H26 O26 1.724041 1_555
H27 O35 0.996035 1_555
H27 O25 1.724041 1_565
H28 O36 0.996035 1_555
H28 O31 1.724041 1_555
H29 O37 0.996035 1_555
H29 O28 1.724041 1_554
H30 O38 0.996035 1_555
H30 O30 1.724041 1_555
H31 O39 0.996035 1_555
H31 O29 1.724041 1_556
H32 O40 0.996035 1_555
H32 O23 1.724041 1_555
H33 O41 0.996035 1_555
H33 O20 1.724041 1_455
H34 O42 0.996035 1_555
H34 O22 1.724041 1_555
H35 O43 0.996035 1_555
H35 O21 1.724041 1_655
H36 O44 0.996035 1_555
H36 O15 1.724041 1_555
H37 O45 0.996035 1_555
H37 O12 1.724041 1_565
H38 O46 0.996035 1_555
H38 O14 1.724041 1_555
H39 O47 0.996035 1_555
H39 O13 1.724041 1_545
H40 O48 0.996035 1_555
H40 O19 1.724041 1_555
H41 O49 0.996035 1_555
H41 O16 1.724041 1_556
H42 O50 0.996035 1_555
H42 O18 1.724041 1_555
H43 O51 0.996035 1_555
H43 O17 1.724041 1_554
H44 O52 0.996035 1_555
H44 O11 1.724041 1_555
H45 O53 0.996035 1_555
H45 O8 1.724041 1_655
H46 O54 0.996035 1_555
H46 O10 1.724041 1_555
H47 O55 0.996035 1_555
H47 O9 1.724041 1_455
H48 O56 1.001790 1_554
H48 O29 1.690355 1_555
H49 O57 1.001790 1_555
H49 O31 1.690355 1_555
H50 O58 1.001790 1_555
H50 O30 1.690355 1_555
H51 O59 1.001790 1_556
H51 O28 1.690355 1_555
H52 O60 1.001790 1_455
H52 O21 1.690355 1_555
H53 O61 1.001790 1_555
H53 O23 1.690355 1_555
H54 O62 1.001790 1_555
H54 O22 1.690355 1_555
H55 O63 1.001790 1_655
H55 O20 1.690355 1_555
H56 O64 1.001790 1_545
H56 O25 1.690355 1_555
H57 O65 1.001790 1_555
H57 O27 1.690355 1_555
H58 O66 1.001790 1_555
H58 O26 1.690355 1_555
H59 O67 1.001790 1_565
H59 O24 1.690355 1_555
H60 O68 1.001790 1_556
H60 O17 1.690355 1_555
H61 O69 1.001790 1_555
H61 O19 1.690355 1_555
H62 O70 1.001790 1_555
H62 O18 1.690355 1_555
H63 O71 1.001790 1_554
H63 O16 1.690355 1_555
H64 O72 1.001790 1_655
H64 O9 1.690355 1_555
H65 O73 1.001790 1_555
H65 O11 1.690355 1_555
H66 O74 1.001790 1_555
H66 O10 1.690355 1_555
H67 O75 1.001790 1_455
H67 O8 1.690355 1_555
H68 O76 1.001790 1_565
H68 O13 1.690355 1_555
H69 O77 1.001790 1_555
H69 O15 1.690355 1_555
H70 O78 1.001790 1_555
H70 O14 1.690355 1_555
H71 O79 1.001790 1_545
H71 O12 1.690355 1_555
H72 O56 1.027711 1_554
H72 O37 1.562355 1_555
H73 O57 1.027711 1_555
H73 O38 1.562355 1_555
H74 O58 1.027711 1_455
H74 O36 1.562355 1_555
H75 O59 1.027711 1_656
H75 O39 1.562355 1_555
H76 O60 1.027711 1_455
H76 O41 1.562355 1_555
H77 O61 1.027711 1_555
H77 O42 1.562355 1_555
H78 O62 1.027711 1_545
H78 O40 1.562355 1_555
H79 O63 1.027711 1_665
H79 O43 1.562355 1_555
H80 O64 1.027711 1_545
H80 O33 1.562355 1_555
H81 O65 1.027711 1_555
H81 O34 1.562355 1_555
H82 O66 1.027711 1_554
H82 O32 1.562355 1_555
H83 O67 1.027711 1_566
H83 O35 1.562355 1_555
H84 O68 1.027711 1_556
H84 O49 1.562355 1_555
H85 O69 1.027711 1_555
H85 O50 1.562355 1_555
H86 O70 1.027711 1_655
H86 O48 1.562355 1_555
H87 O71 1.027711 1_454
H87 O51 1.562355 1_555
H88 O72 1.027711 1_655
H88 O53 1.562355 1_555
H89 O73 1.027711 1_555
H89 O54 1.562355 1_555
H90 O74 1.027711 1_565
H90 O52 1.562355 1_555
H91 O75 1.027711 1_445
H91 O55 1.562355 1_555
H92 O76 1.027711 1_565
H92 O45 1.562355 1_555
H93 O77 1.027711 1_555
H93 O46 1.562355 1_555
H94 O78 1.027711 1_556
H94 O44 1.562355 1_555
H95 O79 1.027711 1_544
H95 O47 1.562355 1_555
O0 S0 1.491920 1_555
O1 S1 1.491920 1_555
O2 S2 1.491920 1_555
O3 S3 1.491920 1_555
O4 S4 1.491920 1_555
O5 S5 1.491920 1_555
O6 S6 1.491920 1_555
O7 S7 1.491920 1_555
O8 S0 1.495228 1_555
O9 S1 1.495228 1_555
O10 S2 1.495228 1_555
O11 S3 1.495228 1_555
O12 S2 1.495228 1_555
O13 S0 1.495228 1_555
O14 S1 1.495228 1_555
O15 S3 1.495228 1_555
O16 S1 1.495228 1_555
O17 S2 1.495228 1_555
O18 S0 1.495228 1_555
O19 S3 1.495228 1_555
O20 S4 1.495228 1_555
O21 S5 1.495228 1_555
O22 S6 1.495228 1_555
O23 S7 1.495228 1_555
O24 S6 1.495228 1_555
O25 S4 1.495228 1_555
O26 S5 1.495228 1_555
O27 S7 1.495228 1_555
O28 S5 1.495228 1_555
O29 S6 1.495228 1_555
O30 S4 1.495228 1_555
O31 S7 1.495228 1_555
O56 Rh0 2.052419 1_556
O57 Rh1 2.052419 1_555
O58 Rh2 2.052419 1_655
O59 Rh3 2.052419 1_565
O60 Rh2 2.052419 1_655
O61 Rh0 2.052419 1_555
O62 Rh1 2.052419 1_565
O63 Rh3 2.052419 1_556
O64 Rh1 2.052419 1_565
O65 Rh2 2.052419 1_555
O66 Rh0 2.052419 1_556
O67 Rh3 2.052419 1_655
O68 Rh0 2.052419 1_555
O69 Rh1 2.052419 1_565
O70 Rh2 2.052419 1_555
O71 Rh3 2.052419 1_656
O72 Rh2 2.052419 1_555
O73 Rh0 2.052419 1_556
O74 Rh1 2.052419 1_555
O75 Rh3 2.052419 1_665
O76 Rh1 2.052419 1_555
O77 Rh2 2.052419 1_655
O78 Rh0 2.052419 1_555
O79 Rh3 2.052419 1_566
