# generated using pymatgen
data_DyErO3
_symmetry_space_group_name_H-M   'P 1'
_cell_length_a   6.41186167
_cell_length_b   6.41186167
_cell_length_c   12.70056700
_cell_angle_alpha   90.00000000
_cell_angle_beta   90.00000000
_cell_angle_gamma   119.99999663
_symmetry_Int_Tables_number   1
_chemical_formula_structural   DyErO3
_chemical_formula_sum   'Dy6 Er6 O18'
_cell_volume   452.19113643
_cell_formula_units_Z   6
loop_
 _symmetry_equiv_pos_site_id
 _symmetry_equiv_pos_as_xyz
  1  'x, y, z'
loop_
 _atom_site_type_symbol
 _atom_site_label
 _atom_site_symmetry_multiplicity
 _atom_site_fract_x
 _atom_site_fract_y
 _atom_site_fract_z
 _atom_site_occupancy
  Dy  Dy0  1  0.33333300  0.66666700  0.23431400  1
  Dy  Dy1  1  0.00000000  0.00000000  0.26496300  1
  Dy  Dy2  1  0.00000000  0.00000000  0.76496300  1
  Dy  Dy3  1  0.33333300  0.66666700  0.73431400  1
  Dy  Dy4  1  0.66666700  0.33333300  0.73431400  1
  Dy  Dy5  1  0.66666700  0.33333300  0.23431400  1
  Er  Er0  1  0.00000000  0.66731200  0.49682700  1
  Er  Er1  1  0.00000000  0.33268800  0.99682700  1
  Er  Er2  1  0.33268800  0.33268800  0.49682700  1
  Er  Er3  1  0.66731200  0.66731200  0.99682700  1
  Er  Er4  1  0.33268800  0.00000000  0.99682700  1
  Er  Er5  1  0.66731200  0.00000000  0.49682700  1
  O  O0  1  0.00000000  0.69437100  0.67007000  1
  O  O1  1  0.00000000  0.63499200  0.32494100  1
  O  O2  1  0.00000000  0.36500800  0.82494100  1
  O  O3  1  0.00000000  0.30562900  0.17007000  1
  O  O4  1  0.33333300  0.66666700  0.02054000  1
  O  O5  1  0.00000000  0.00000000  0.46110800  1
  O  O6  1  0.00000000  0.00000000  0.96110800  1
  O  O7  1  0.33333300  0.66666700  0.52054000  1
  O  O8  1  0.30562900  0.30562900  0.67007000  1
  O  O9  1  0.36500800  0.36500800  0.32494100  1
  O  O10  1  0.30562900  0.00000000  0.17007000  1
  O  O11  1  0.63499200  0.63499200  0.82494100  1
  O  O12  1  0.69437100  0.69437100  0.17007000  1
  O  O13  1  0.36500800  0.00000000  0.82494100  1
  O  O14  1  0.66666700  0.33333300  0.52054000  1
  O  O15  1  0.66666700  0.33333300  0.02054000  1
  O  O16  1  0.63499200  0.00000000  0.32494100  1
  O  O17  1  0.69437100  0.00000000  0.67007000  1
loop_
_geom_bond_atom_site_label_1
_geom_bond_atom_site_label_2
_geom_bond_distance
_geom_bond_site_symmetry_2
Dy0 O1 2.345207 1_555
Dy0 O16 2.345209 1_565
Dy0 O9 2.345213 1_555
Dy0 O10 2.375910 1_565
Dy0 O3 2.375913 1_555
Dy0 O12 2.375916 1_555
Dy0 O4 2.715051 1_555
Dy1 O10 2.300593 1_555
Dy1 O3 2.300593 1_555
Dy1 O12 2.300593 1_445
Dy1 O16 2.461230 1_455
Dy1 O1 2.461230 1_545
Dy1 O9 2.461230 1_555
Dy1 O5 2.491153 1_555
Dy2 O0 2.300593 1_545
Dy2 O17 2.300593 1_455
Dy2 O8 2.300593 1_555
Dy2 O13 2.461230 1_555
Dy2 O2 2.461230 1_555
Dy2 O11 2.461230 1_445
Dy2 O6 2.491153 1_555
Dy3 O13 2.345207 1_565
Dy3 O2 2.345209 1_555
Dy3 O11 2.345213 1_555
Dy3 O0 2.375910 1_555
Dy3 O17 2.375913 1_565
Dy3 O8 2.375916 1_555
Dy3 O7 2.715051 1_555
Dy4 O2 2.345207 1_655
Dy4 O13 2.345209 1_555
Dy4 O11 2.345213 1_555
Dy4 O17 2.375910 1_555
Dy4 O0 2.375913 1_655
Dy4 O8 2.375916 1_555
Dy4 O14 2.715051 1_555
Dy5 O16 2.345207 1_555
Dy5 O1 2.345209 1_655
Dy5 O9 2.345213 1_555
Dy5 O3 2.375910 1_655
Dy5 O10 2.375913 1_555
Dy5 O12 2.375916 1_555
Dy5 O15 2.715051 1_555
Er0 O7 2.160450 1_555
Er0 O14 2.160454 1_455
Er0 O5 2.180854 1_565
Er0 O1 2.192864 1_555
Er0 O0 2.207114 1_555
Er1 O15 2.160450 1_456
Er1 O4 2.160454 1_556
Er1 O6 2.180854 1_555
Er1 O2 2.192864 1_555
Er1 O3 2.207114 1_556
Er2 O14 2.160457 1_555
Er2 O7 2.160457 1_555
Er2 O5 2.180855 1_555
Er2 O9 2.192864 1_555
Er2 O8 2.207114 1_555
Er3 O4 2.160457 1_556
Er3 O15 2.160457 1_556
Er3 O6 2.180855 1_665
Er3 O11 2.192864 1_555
Er3 O12 2.207114 1_556
Er4 O4 2.160450 1_546
Er4 O15 2.160454 1_556
Er4 O6 2.180854 1_555
Er4 O13 2.192864 1_555
Er4 O10 2.207114 1_556
Er5 O14 2.160450 1_555
Er5 O7 2.160454 1_545
Er5 O5 2.180854 1_655
Er5 O16 2.192864 1_555
Er5 O17 2.207114 1_555
