# generated using pymatgen
data_Li3V3(PO4)4
_symmetry_space_group_name_H-M   'P 1'
_cell_length_a   11.28740200
_cell_length_b   6.18860500
_cell_length_c   8.72359730
_cell_angle_alpha   79.15601490
_cell_angle_beta   90.00000000
_cell_angle_gamma   90.00000000
_symmetry_Int_Tables_number   1
_chemical_formula_structural   Li3V3(PO4)4
_chemical_formula_sum   'Li6 V6 P8 O32'
_cell_volume   598.49033465
_cell_formula_units_Z   2
loop_
 _symmetry_equiv_pos_site_id
 _symmetry_equiv_pos_as_xyz
  1  'x, y, z'
loop_
 _atom_site_type_symbol
 _atom_site_label
 _atom_site_symmetry_multiplicity
 _atom_site_fract_x
 _atom_site_fract_y
 _atom_site_fract_z
 _atom_site_occupancy
  Li  Li0  1  0.61002600  0.65025900  0.56480300  1
  Li  Li1  1  0.88922700  0.16115200  0.57190500  1
  Li  Li2  1  0.19302900  0.09117100  0.84672500  1
  Li  Li3  1  0.69302900  0.90882900  0.15327500  1
  Li  Li4  1  0.11002600  0.34974100  0.43519700  1
  Li  Li5  1  0.38922700  0.83884800  0.42809500  1
  V  V0  1  0.90981100  0.59752300  0.76320400  1
  V  V1  1  0.58882400  0.07924200  0.77457700  1
  V  V2  1  0.31017100  0.61354800  0.83663900  1
  V  V3  1  0.81017100  0.38645200  0.16336100  1
  V  V4  1  0.40981100  0.40247700  0.23679600  1
  V  V5  1  0.08882400  0.92075800  0.22542300  1
  P  P0  1  0.36730100  0.36500300  0.60245100  1
  P  P1  1  0.13113200  0.86844300  0.58525300  1
  P  P2  1  0.59180500  0.54304400  0.89867900  1
  P  P3  1  0.90954100  0.06506900  0.91140500  1
  P  P4  1  0.09180500  0.45695600  0.10132100  1
  P  P5  1  0.40954100  0.93493100  0.08859500  1
  P  P6  1  0.86730100  0.63499700  0.39754900  1
  P  P7  1  0.63113200  0.13155700  0.41474700  1
  O  O0  1  0.43040500  0.58666000  0.60544600  1
  O  O1  1  0.81363200  0.64945800  0.55941300  1
  O  O2  1  0.06241700  0.08095200  0.57977800  1
  O  O3  1  0.68843200  0.15246700  0.57265400  1
  O  O4  1  0.05379900  0.66021700  0.64791800  1
  O  O5  1  0.26709300  0.36309700  0.72650300  1
  O  O6  1  0.44663500  0.16098700  0.65701700  1
  O  O7  1  0.62843700  0.37182700  0.80027000  1
  O  O8  1  0.91057300  0.27620700  0.77942400  1
  O  O9  1  0.23426600  0.86419500  0.70559900  1
  O  O10  1  0.86653500  0.87791000  0.82524700  1
  O  O11  1  0.60352900  0.76359900  0.78195300  1
  O  O12  1  0.18096000  0.46411700  0.96856800  1
  O  O13  1  0.46208900  0.51004600  0.96559300  1
  O  O14  1  0.31656400  0.89503600  0.96789300  1
  O  O15  1  0.96208900  0.48995400  0.03440700  1
  O  O16  1  0.03376900  0.01145200  0.98476100  1
  O  O17  1  0.68096000  0.53588300  0.03143200  1
  O  O18  1  0.53376900  0.98854800  0.01523900  1
  O  O19  1  0.81656400  0.10496400  0.03210700  1
  O  O20  1  0.41057300  0.72379300  0.22057600  1
  O  O21  1  0.12843700  0.62817300  0.19973000  1
  O  O22  1  0.76709300  0.63690300  0.27349700  1
  O  O23  1  0.10352900  0.23640100  0.21804700  1
  O  O24  1  0.36653500  0.12209000  0.17475300  1
  O  O25  1  0.55379900  0.33978300  0.35208200  1
  O  O26  1  0.73426600  0.13580500  0.29440100  1
  O  O27  1  0.94663500  0.83901300  0.34298300  1
  O  O28  1  0.31363200  0.35054200  0.44058700  1
  O  O29  1  0.93040500  0.41334000  0.39455400  1
  O  O30  1  0.18843200  0.84753300  0.42734600  1
  O  O31  1  0.56241700  0.91904800  0.42022200  1
loop_
_geom_bond_atom_site_label_1
_geom_bond_atom_site_label_2
_geom_bond_distance
_geom_bond_site_symmetry_2
Li0 O31 1.963961 1_555
Li0 O0 2.082951 1_555
Li0 O11 2.141449 1_555
Li0 O1 2.298688 1_555
Li0 O7 2.428969 1_555
Li1 O2 2.014877 1_655
Li1 O29 2.033933 1_555
Li1 O8 2.080212 1_555
Li1 O3 2.267071 1_555
Li1 O10 2.562197 1_545
Li2 O5 1.991650 1_555
Li2 O14 2.013000 1_545
Li2 O9 2.087127 1_545
Li2 O16 2.168263 1_555
Li3 O22 1.991650 1_555
Li3 O19 2.013000 1_565
Li3 O26 2.087127 1_565
Li3 O18 2.168263 1_555
Li4 O2 1.963961 1_555
Li4 O29 2.082951 1_455
Li4 O23 2.141449 1_555
Li4 O28 2.298688 1_555
Li4 O21 2.428969 1_555
Li5 O31 2.014877 1_555
Li5 O0 2.033933 1_555
Li5 O20 2.080212 1_555
Li5 O30 2.267071 1_555
Li5 O24 2.562197 1_565
O0 P0 1.550227 1_555
O0 V2 2.462395 1_555
O1 P6 1.554470 1_555
O1 V0 2.056063 1_555
O2 P1 1.519803 1_545
O3 P7 1.549090 1_555
O3 V1 2.066870 1_555
O4 P1 1.567251 1_555
O4 V0 1.912224 1_455
O5 P0 1.563908 1_555
O5 V2 2.030315 1_555
O6 P0 1.548037 1_555
O6 V1 1.920495 1_555
O7 P2 1.540443 1_555
O7 V1 1.918717 1_555
O8 P3 1.570671 1_555
O8 V0 1.966812 1_555
O9 P1 1.564498 1_555
O9 V2 1.944147 1_555
O10 P3 1.571517 1_565
O10 V0 1.973793 1_555
O11 P2 1.547401 1_555
O11 V1 1.949392 1_565
O12 P4 1.528564 1_556
O12 V2 1.976458 1_555
O13 P2 1.575229 1_555
O13 V2 2.084479 1_555
O13 V4 2.407502 1_556
O14 P5 1.539115 1_556
O14 V2 2.258626 1_555
O15 P4 1.575229 1_655
O15 V3 2.084479 1_555
O15 V0 2.407502 1_554
O16 P3 1.551099 1_455
O16 V5 2.159967 1_546
O17 P2 1.528564 1_554
O17 V3 1.976458 1_555
O18 P5 1.551099 1_555
O18 V1 2.159967 1_564
O19 P3 1.539115 1_554
O19 V3 2.258626 1_555
O20 P5 1.570671 1_555
O20 V4 1.966812 1_555
O21 P4 1.540443 1_555
O21 V5 1.918717 1_555
O22 P6 1.563908 1_555
O22 V3 2.030315 1_555
O23 P4 1.547401 1_555
O23 V5 1.949392 1_545
O24 P5 1.571517 1_545
O24 V4 1.973793 1_555
O25 P7 1.567251 1_555
O25 V4 1.912224 1_555
O26 P7 1.564498 1_555
O26 V3 1.944147 1_555
O27 P6 1.548037 1_555
O27 V5 1.920495 1_655
O28 P0 1.554470 1_555
O28 V4 2.056063 1_555
O29 P6 1.550227 1_555
O29 V3 2.462395 1_555
O30 P1 1.549090 1_555
O30 V5 2.066870 1_555
O31 P7 1.519803 1_565
