# generated using pymatgen
data_Al15Fe9O32
_symmetry_space_group_name_H-M   'P 1'
_cell_length_a   5.85238555
_cell_length_b   5.85238555
_cell_length_c   19.30884358
_cell_angle_alpha   81.63536319
_cell_angle_beta   81.63536319
_cell_angle_gamma   59.55940626
_symmetry_Int_Tables_number   1
_chemical_formula_structural   Al15Fe9O32
_chemical_formula_sum   'Al15 Fe9 O32'
_cell_volume   562.10836581
_cell_formula_units_Z   1
loop_
 _symmetry_equiv_pos_site_id
 _symmetry_equiv_pos_as_xyz
  1  'x, y, z'
loop_
 _atom_site_type_symbol
 _atom_site_label
 _atom_site_symmetry_multiplicity
 _atom_site_fract_x
 _atom_site_fract_y
 _atom_site_fract_z
 _atom_site_occupancy
  Al  Al0  1  0.00000000  0.50000000  0.50000000  1
  Al  Al1  1  0.24980100  0.24980100  0.24920500  1
  Al  Al2  1  0.62722100  0.62722100  0.62569800  1
  Al  Al3  1  0.37277900  0.37277900  0.37430200  1
  Al  Al4  1  0.50000000  0.00000000  0.50000000  1
  Al  Al5  1  0.25064000  0.74943900  0.24955200  1
  Al  Al6  1  0.74943900  0.25064000  0.24955200  1
  Al  Al7  1  0.12525700  0.12525700  0.12472700  1
  Al  Al8  1  0.74936000  0.25056100  0.75044800  1
  Al  Al9  1  0.50000000  0.00000000  0.00000000  1
  Al  Al10  1  0.00000000  0.50000000  0.00000000  1
  Al  Al11  1  0.75019900  0.75019900  0.75079500  1
  Al  Al12  1  0.00000000  0.00000000  0.00000000  1
  Al  Al13  1  0.87474300  0.87474300  0.87527300  1
  Al  Al14  1  0.25056100  0.74936000  0.75044800  1
  Fe  Fe0  1  0.96954800  0.96954800  0.59330100  1
  Fe  Fe1  1  0.50000000  0.50000000  0.50000000  1
  Fe  Fe2  1  0.03045200  0.03045200  0.40669900  1
  Fe  Fe3  1  0.46851400  0.46851400  0.09304600  1
  Fe  Fe4  1  0.71816700  0.71816700  0.34292600  1
  Fe  Fe5  1  0.53148600  0.53148600  0.90695400  1
  Fe  Fe6  1  0.78232500  0.78232500  0.15664700  1
  Fe  Fe7  1  0.21767500  0.21767500  0.84335300  1
  Fe  Fe8  1  0.28183300  0.28183300  0.65707400  1
  O  O0  1  0.80079900  0.35724600  0.55995100  1
  O  O1  1  0.79494000  0.79494000  0.55939900  1
  O  O2  1  0.31421300  0.31421300  0.55081800  1
  O  O3  1  0.20506000  0.20506000  0.44060100  1
  O  O4  1  0.19920100  0.64275400  0.44004900  1
  O  O5  1  0.64275400  0.19920100  0.44004900  1
  O  O6  1  0.35724600  0.80079900  0.55995100  1
  O  O7  1  0.10472500  0.54249500  0.30747800  1
  O  O8  1  0.29229200  0.29229200  0.05904300  1
  O  O9  1  0.54217500  0.54217500  0.30818600  1
  O  O10  1  0.68578700  0.68578700  0.44918200  1
  O  O11  1  0.43250000  0.43250000  0.19859700  1
  O  O12  1  0.06719100  0.06719100  0.30049900  1
  O  O13  1  0.39558100  0.95453900  0.19110000  1
  O  O14  1  0.95453900  0.39558100  0.19110000  1
  O  O15  1  0.70569100  0.14501900  0.94184000  1
  O  O16  1  0.29430900  0.85498100  0.05816000  1
  O  O17  1  0.54249500  0.10472500  0.30747800  1
  O  O18  1  0.85498100  0.29430900  0.05816000  1
  O  O19  1  0.18293800  0.18293800  0.94901200  1
  O  O20  1  0.81706200  0.81706200  0.05098800  1
  O  O21  1  0.95825700  0.95825700  0.19058500  1
  O  O22  1  0.56750000  0.56750000  0.80140300  1
  O  O23  1  0.70770800  0.70770800  0.94095700  1
  O  O24  1  0.14501900  0.70569100  0.94184000  1
  O  O25  1  0.89527500  0.45750500  0.69252200  1
  O  O26  1  0.04546100  0.60441900  0.80890000  1
  O  O27  1  0.60441900  0.04546100  0.80890000  1
  O  O28  1  0.04174300  0.04174300  0.80941500  1
  O  O29  1  0.93280900  0.93280900  0.69950100  1
  O  O30  1  0.45782500  0.45782500  0.69181400  1
  O  O31  1  0.45750500  0.89527500  0.69252200  1
loop_
_geom_bond_atom_site_label_1
_geom_bond_atom_site_label_2
_geom_bond_distance
_geom_bond_site_symmetry_2
Al0 O0 1.926130 1_455
Al0 O4 1.926130 1_555
Al0 O10 1.927473 1_455
Al0 O2 1.927473 1_555
Al0 O3 1.952333 1_555
Al0 O1 1.952333 1_455
Al1 O7 1.931387 1_555
Al1 O17 1.931387 1_555
Al1 O14 1.940179 1_455
Al1 O13 1.940179 1_545
Al1 O11 1.947262 1_555
Al1 O12 1.951050 1_555
Al2 O0 1.929241 1_555
Al2 O6 1.929241 1_555
Al2 O25 1.936381 1_555
Al2 O31 1.936381 1_555
Al2 O1 1.952125 1_555
Al2 O30 1.963373 1_555
Al3 O4 1.929241 1_555
Al3 O5 1.929241 1_555
Al3 O7 1.936381 1_555
Al3 O17 1.936381 1_555
Al3 O3 1.952125 1_555
Al3 O9 1.963373 1_555
Al4 O6 1.926130 1_545
Al4 O5 1.926130 1_555
Al4 O10 1.927473 1_545
Al4 O2 1.927473 1_555
Al4 O1 1.952333 1_545
Al4 O3 1.952333 1_555
Al5 O9 1.931199 1_555
Al5 O21 1.939309 1_455
Al5 O11 1.940920 1_555
Al5 O12 1.944334 1_565
Al5 O13 1.947601 1_555
Al5 O7 1.955252 1_555
Al6 O9 1.931199 1_555
Al6 O21 1.939309 1_545
Al6 O11 1.940920 1_555
Al6 O12 1.944334 1_655
Al6 O14 1.947601 1_555
Al6 O17 1.955252 1_555
Al7 O13 1.938880 1_545
Al7 O14 1.938880 1_455
Al7 O8 1.940782 1_555
Al7 O18 1.941309 1_455
Al7 O16 1.941309 1_545
Al7 O21 1.942216 1_445
Al8 O30 1.931199 1_555
Al8 O28 1.939309 1_655
Al8 O22 1.940920 1_555
Al8 O29 1.944334 1_545
Al8 O27 1.947601 1_555
Al8 O25 1.955252 1_555
Al9 O23 1.939255 1_544
Al9 O8 1.939255 1_555
Al9 O20 1.941771 1_545
Al9 O19 1.941771 1_554
Al9 O15 1.948116 1_554
Al9 O16 1.948116 1_545
Al10 O23 1.939255 1_454
Al10 O8 1.939255 1_555
Al10 O20 1.941771 1_455
Al10 O19 1.941771 1_554
Al10 O24 1.948116 1_554
Al10 O18 1.948116 1_455
Al11 O25 1.931387 1_555
Al11 O31 1.931387 1_555
Al11 O26 1.940179 1_655
Al11 O27 1.940179 1_565
Al11 O22 1.947262 1_555
Al11 O29 1.951050 1_555
Al12 O16 1.937099 1_545
Al12 O18 1.937099 1_455
Al12 O24 1.937099 1_544
Al12 O15 1.937099 1_454
Al12 O19 1.951890 1_554
Al12 O20 1.951890 1_445
Al13 O26 1.938880 1_655
Al13 O27 1.938880 1_565
Al13 O23 1.940782 1_555
Al13 O24 1.941309 1_655
Al13 O15 1.941309 1_565
Al13 O28 1.942216 1_665
Al14 O30 1.931199 1_555
Al14 O28 1.939309 1_565
Al14 O22 1.940920 1_555
Al14 O29 1.944334 1_455
Al14 O26 1.947601 1_555
Al14 O31 1.955252 1_555
Fe0 O1 1.991057 1_555
Fe0 O0 2.006870 1_565
Fe0 O6 2.006870 1_655
Fe0 O29 2.021807 1_555
Fe1 O2 1.975947 1_555
Fe1 O10 1.975947 1_555
Fe1 O0 1.989524 1_555
Fe1 O4 1.989524 1_555
Fe1 O5 1.989524 1_555
Fe1 O6 1.989524 1_555
Fe2 O3 1.991057 1_555
Fe2 O5 2.006870 1_455
Fe2 O4 2.006870 1_545
Fe2 O12 2.021807 1_555
Fe3 O16 2.007161 1_555
Fe3 O18 2.007161 1_555
Fe3 O8 2.007504 1_555
Fe3 O11 2.009384 1_555
Fe4 O17 2.010192 1_565
Fe4 O7 2.010192 1_655
Fe4 O9 2.012117 1_555
Fe4 O10 2.022713 1_555
Fe5 O15 2.007161 1_555
Fe5 O24 2.007161 1_555
Fe5 O23 2.007504 1_555
Fe5 O22 2.009384 1_555
Fe6 O21 2.004117 1_555
Fe6 O14 2.006668 1_555
Fe6 O13 2.006668 1_555
Fe6 O20 2.011323 1_555
Fe7 O28 2.004117 1_555
Fe7 O27 2.006668 1_555
Fe7 O26 2.006668 1_555
Fe7 O19 2.011323 1_555
Fe8 O25 2.010192 1_455
Fe8 O31 2.010192 1_545
Fe8 O30 2.012117 1_555
Fe8 O2 2.022713 1_555
