# generated using pymatgen
data_Li4Fe2TeWO12
_symmetry_space_group_name_H-M   'P 1'
_cell_length_a   5.41275684
_cell_length_b   10.85073988
_cell_length_c   9.55349695
_cell_angle_alpha   28.19453472
_cell_angle_beta   51.27722247
_cell_angle_gamma   56.56607554
_symmetry_Int_Tables_number   1
_chemical_formula_structural   Li4Fe2TeWO12
_chemical_formula_sum   'Li4 Fe2 Te1 W1 O12'
_cell_volume   206.82691134
_cell_formula_units_Z   1
loop_
 _symmetry_equiv_pos_site_id
 _symmetry_equiv_pos_as_xyz
  1  'x, y, z'
loop_
 _atom_site_type_symbol
 _atom_site_label
 _atom_site_symmetry_multiplicity
 _atom_site_fract_x
 _atom_site_fract_y
 _atom_site_fract_z
 _atom_site_occupancy
  Li  Li0  1  0.29298400  0.00542100  0.28510000  1
  Li  Li1  1  0.28700000  0.49265000  0.29871000  1
  Li  Li2  1  0.78948500  0.99955700  0.78712900  1
  Li  Li3  1  0.78689300  0.50022000  0.78584100  1
  Fe  Fe0  1  0.49966700  0.00052100  0.50355900  1
  Fe  Fe1  1  0.50553900  0.49953200  0.50292200  1
  Te  Te0  1  0.99914200  0.50101300  0.99889300  1
  W  W0  1  0.00457300  0.99797800  0.00515900  1
  O  O0  1  0.37350100  0.30913100  0.11101700  1
  O  O1  1  0.23057300  0.11600300  0.63416800  1
  O  O2  1  0.12382000  0.31612400  0.73257500  1
  O  O3  1  0.87920600  0.20463100  0.21717600  1
  O  O4  1  0.36760700  0.80861000  0.12455400  1
  O  O5  1  0.73476200  0.36792100  0.37392900  1
  O  O6  1  0.22151400  0.63113800  0.62358800  1
  O  O7  1  0.63303200  0.17791400  0.86860000  1
  O  O8  1  0.11221200  0.82011000  0.73483400  1
  O  O9  1  0.87125600  0.69804600  0.23517100  1
  O  O10  1  0.73767500  0.88136600  0.36377000  1
  O  O11  1  0.62076200  0.67211700  0.88450800  1
loop_
_geom_bond_atom_site_label_1
_geom_bond_atom_site_label_2
_geom_bond_distance
_geom_bond_site_symmetry_2
Li0 O6 2.029061 1_545
Li0 O3 2.029945 1_455
Li0 O7 2.056557 1_554
Li0 O0 2.197959 1_555
Li0 O10 2.253915 1_545
Li0 O8 2.267300 1_545
Li1 O11 2.015980 1_554
Li1 O1 2.032337 1_555
Li1 O9 2.048714 1_455
Li1 O2 2.217829 1_555
Li1 O5 2.252141 1_555
Li1 O4 2.323342 1_555
Li2 O8 1.991770 1_655
Li2 O5 1.998163 1_565
Li2 O4 2.032199 1_556
Li2 O7 2.256746 1_565
Li2 O1 2.266428 1_665
Li2 O9 2.304600 1_556
Li3 O0 2.004621 1_556
Li3 O10 2.041777 1_555
Li3 O2 2.047319 1_655
Li3 O3 2.242850 1_556
Li3 O6 2.279008 1_655
Li3 O11 2.316583 1_555
Fe0 O1 1.928641 1_555
Fe0 O3 1.977797 1_555
Fe0 O11 1.980805 1_545
Fe0 O10 2.042165 1_545
Fe0 O8 2.053003 1_545
Fe0 O0 2.071648 1_555
Fe1 O7 1.931774 1_555
Fe1 O9 1.937231 1_555
Fe1 O6 1.999229 1_555
Fe1 O4 2.029675 1_555
Fe1 O2 2.050940 1_555
Fe1 O5 2.081861 1_555
O0 Te0 1.929671 1_454
O1 W0 1.999855 1_546
O2 W0 1.903005 1_546
O3 Te0 1.974342 1_554
O4 W0 1.899474 1_555
O5 Te0 1.926806 1_554
O6 Te0 1.961567 1_455
O7 W0 2.006040 1_646
O8 Te0 1.932345 1_455
O9 W0 1.984747 1_655
O10 W0 1.899034 1_655
O11 Te0 1.967097 1_555
