# generated using pymatgen
data_Rb4PbO4
_symmetry_space_group_name_H-M   'P 1'
_cell_length_a   19.37820363
_cell_length_b   6.86440027
_cell_length_c   6.89406536
_cell_angle_alpha   66.92811811
_cell_angle_beta   90.00000000
_cell_angle_gamma   90.00000000
_symmetry_Int_Tables_number   1
_chemical_formula_structural   Rb4PbO4
_chemical_formula_sum   'Rb16 Pb4 O16'
_cell_volume   843.69585087
_cell_formula_units_Z   4
loop_
 _symmetry_equiv_pos_site_id
 _symmetry_equiv_pos_as_xyz
  1  'x, y, z'
loop_
 _atom_site_type_symbol
 _atom_site_label
 _atom_site_symmetry_multiplicity
 _atom_site_fract_x
 _atom_site_fract_y
 _atom_site_fract_z
 _atom_site_occupancy
  Rb  Rb0  1  0.80786178  0.31672145  0.19816919  1
  Rb  Rb1  1  0.01389012  0.25219574  0.22260417  1
  Rb  Rb2  1  0.21711573  0.19342415  0.28837852  1
  Rb  Rb3  1  0.41580501  0.22691370  0.35402352  1
  Rb  Rb4  1  0.69213822  0.81672145  0.19816919  1
  Rb  Rb5  1  0.48610988  0.75219574  0.22260417  1
  Rb  Rb6  1  0.28288427  0.69342415  0.28837852  1
  Rb  Rb7  1  0.08419499  0.72691370  0.35402352  1
  Rb  Rb8  1  0.91580501  0.27308630  0.64597648  1
  Rb  Rb9  1  0.71711573  0.30657585  0.71162148  1
  Rb  Rb10  1  0.51389012  0.24780426  0.77739583  1
  Rb  Rb11  1  0.30786178  0.18327855  0.80183081  1
  Rb  Rb12  1  0.58419499  0.77308630  0.64597648  1
  Rb  Rb13  1  0.78288427  0.80657585  0.71162148  1
  Rb  Rb14  1  0.98610988  0.74780426  0.77739583  1
  Rb  Rb15  1  0.19213822  0.68327855  0.80183081  1
  Pb  Pb0  1  0.62318253  0.30871073  0.25389746  1
  Pb  Pb1  1  0.87681747  0.80871073  0.25389746  1
  Pb  Pb2  1  0.12318253  0.19128927  0.74610254  1
  Pb  Pb3  1  0.37681747  0.69128927  0.74610254  1
  O  O0  1  0.32562207  0.48744184  0.01830555  1
  O  O1  1  0.54363544  0.12960850  0.20423664  1
  O  O2  1  0.90440304  0.98748295  0.42831194  1
  O  O3  1  0.17437793  0.98744184  0.01830555  1
  O  O4  1  0.95636456  0.62960850  0.20423664  1
  O  O5  1  0.69282081  0.08028446  0.44576568  1
  O  O6  1  0.59559696  0.48748295  0.42831194  1
  O  O7  1  0.80717919  0.58028446  0.44576568  1
  O  O8  1  0.19282081  0.41971554  0.55423432  1
  O  O9  1  0.40440304  0.51251705  0.57168806  1
  O  O10  1  0.30717919  0.91971554  0.55423432  1
  O  O11  1  0.04363544  0.37039150  0.79576336  1
  O  O12  1  0.82562207  0.01255816  0.98169445  1
  O  O13  1  0.09559696  0.01251705  0.57168806  1
  O  O14  1  0.45636456  0.87039150  0.79576336  1
  O  O15  1  0.67437793  0.51255816  0.98169445  1
loop_
_geom_bond_atom_site_label_1
_geom_bond_atom_site_label_2
_geom_bond_distance
_geom_bond_site_symmetry_2
O0 Pb3 2.098977 1_554
O0 Rb6 2.866213 1_555
O0 Rb3 2.892219 1_555
O0 Rb2 3.002657 1_555
O0 Rb11 3.024434 1_554
O0 Rb15 3.025369 1_554
O1 Pb0 2.082011 1_555
O1 Rb5 2.777293 1_545
O1 Rb10 2.789007 1_554
O1 Rb3 2.861684 1_555
O1 Rb12 3.168595 1_545
O2 Pb1 2.096192 1_555
O2 Rb1 2.791907 1_665
O2 Rb14 2.811090 1_555
O2 Rb0 2.883488 1_565
O2 Rb8 2.906876 1_565
O2 Rb13 3.000179 1_555
O3 Pb2 2.098977 1_564
O3 Rb2 2.866213 1_565
O3 Rb7 2.892219 1_555
O3 Rb6 3.002657 1_555
O3 Rb15 3.024434 1_554
O3 Rb11 3.025369 1_564
O4 Pb1 2.082011 1_555
O4 Rb1 2.777293 1_655
O4 Rb14 2.789007 1_554
O4 Rb7 2.861684 1_655
O4 Rb8 3.168595 1_555
O5 Pb0 2.098516 1_555
O5 Rb13 2.690034 1_545
O5 Rb9 2.867967 1_555
O5 Rb0 2.888975 1_555
O5 Rb12 2.915740 1_545
O5 Rb4 2.933855 1_545
O6 Pb0 2.096192 1_555
O6 Rb5 2.791907 1_555
O6 Rb10 2.811090 1_555
O6 Rb4 2.883488 1_555
O6 Rb12 2.906876 1_555
O6 Rb9 3.000179 1_555
O7 Pb1 2.098516 1_555
O7 Rb9 2.690034 1_555
O7 Rb13 2.867967 1_555
O7 Rb4 2.888975 1_555
O7 Rb8 2.915740 1_555
O7 Rb0 2.933855 1_555
O8 Pb2 2.098516 1_555
O8 Rb6 2.690034 1_555
O8 Rb2 2.867967 1_555
O8 Rb11 2.888975 1_555
O8 Rb7 2.915740 1_555
O8 Rb15 2.933855 1_555
O9 Pb3 2.096192 1_555
O9 Rb10 2.791907 1_555
O9 Rb5 2.811090 1_555
O9 Rb11 2.883488 1_555
O9 Rb3 2.906876 1_555
O9 Rb6 3.000179 1_555
O10 Pb3 2.098516 1_555
O10 Rb2 2.690034 1_565
O10 Rb6 2.867967 1_555
O10 Rb15 2.888975 1_555
O10 Rb3 2.915740 1_565
O10 Rb11 2.933855 1_565
O11 Pb2 2.082011 1_555
O11 Rb14 2.777293 1_455
O11 Rb1 2.789007 1_556
O11 Rb8 2.861684 1_455
O11 Rb7 3.168595 1_555
O12 Pb1 2.098977 1_546
O12 Rb13 2.866213 1_545
O12 Rb8 2.892219 1_555
O12 Rb9 3.002657 1_555
O12 Rb0 3.024434 1_556
O12 Rb4 3.025369 1_546
O13 Pb2 2.096192 1_555
O13 Rb14 2.791907 1_445
O13 Rb1 2.811090 1_555
O13 Rb15 2.883488 1_545
O13 Rb7 2.906876 1_545
O13 Rb2 3.000179 1_555
O14 Pb3 2.082011 1_555
O14 Rb10 2.777293 1_565
O14 Rb5 2.789007 1_556
O14 Rb12 2.861684 1_555
O14 Rb3 3.168595 1_565
O15 Pb0 2.098977 1_556
O15 Rb9 2.866213 1_555
O15 Rb12 2.892219 1_555
O15 Rb13 3.002657 1_555
O15 Rb4 3.024434 1_556
O15 Rb0 3.025369 1_556
