# generated using pymatgen
data_Li3SiBiBO7
_symmetry_space_group_name_H-M   'P 1'
_cell_length_a   6.88374100
_cell_length_b   5.13550800
_cell_length_c   8.86158386
_cell_angle_alpha   85.77097762
_cell_angle_beta   90.00000000
_cell_angle_gamma   90.00000000
_symmetry_Int_Tables_number   1
_chemical_formula_structural   Li3SiBiBO7
_chemical_formula_sum   'Li6 Si2 Bi2 B2 O14'
_cell_volume   312.41738743
_cell_formula_units_Z   2
loop_
 _symmetry_equiv_pos_site_id
 _symmetry_equiv_pos_as_xyz
  1  'x, y, z'
loop_
 _atom_site_type_symbol
 _atom_site_label
 _atom_site_symmetry_multiplicity
 _atom_site_fract_x
 _atom_site_fract_y
 _atom_site_fract_z
 _atom_site_occupancy
  Li  Li0  1  0.75000000  0.25570900  0.94025300  1
  Li  Li1  1  0.95224100  0.75204300  0.75204600  1
  Li  Li2  1  0.54775900  0.75204300  0.75204600  1
  Li  Li3  1  0.45224100  0.24795700  0.24795400  1
  Li  Li4  1  0.04775900  0.24795700  0.24795400  1
  Li  Li5  1  0.25000000  0.74429100  0.05974700  1
  Si  Si0  1  0.75000000  0.26776300  0.59408300  1
  Si  Si1  1  0.25000000  0.73223700  0.40591700  1
  Bi  Bi0  1  0.25000000  0.21525500  0.66526300  1
  Bi  Bi1  1  0.75000000  0.78474500  0.33473700  1
  B  B0  1  0.25000000  0.29483400  0.96231800  1
  B  B1  1  0.75000000  0.70516600  0.03768200  1
  O  O0  1  0.75000000  0.63790800  0.89166300  1
  O  O1  1  0.25000000  0.04362300  0.91483700  1
  O  O2  1  0.25000000  0.50125600  0.84734600  1
  O  O3  1  0.93136700  0.14460100  0.69841000  1
  O  O4  1  0.56863300  0.14460100  0.69841000  1
  O  O5  1  0.75000000  0.59126400  0.58394300  1
  O  O6  1  0.25000000  0.81214800  0.58211200  1
  O  O7  1  0.75000000  0.18785200  0.41788800  1
  O  O8  1  0.25000000  0.40873600  0.41605700  1
  O  O9  1  0.43136700  0.85539900  0.30159000  1
  O  O10  1  0.06863300  0.85539900  0.30159000  1
  O  O11  1  0.75000000  0.49874400  0.15265400  1
  O  O12  1  0.75000000  0.95637700  0.08516300  1
  O  O13  1  0.25000000  0.36209200  0.10833700  1
loop_
_geom_bond_atom_site_label_1
_geom_bond_atom_site_label_2
_geom_bond_distance
_geom_bond_site_symmetry_2
Li0 O12 1.928966 1_546
Li0 O0 1.978202 1_555
Li0 O11 2.333873 1_556
Li0 O3 2.580228 1_555
Li0 O4 2.580228 1_555
Li1 O0 1.924965 1_555
Li1 O3 2.041918 1_565
Li1 O5 2.240623 1_555
Li1 O2 2.532344 1_655
Li1 O6 2.548659 1_655
Li2 O0 1.924965 1_555
Li2 O4 2.041918 1_565
Li2 O5 2.240623 1_555
Li2 O2 2.532344 1_555
Li2 O6 2.548659 1_555
Li3 O13 1.924965 1_555
Li3 O9 2.041918 1_545
Li3 O8 2.240623 1_555
Li3 O11 2.532344 1_555
Li3 O7 2.548659 1_555
Li4 O13 1.924965 1_555
Li4 O10 2.041918 1_545
Li4 O8 2.240623 1_555
Li4 O11 2.532344 1_455
Li4 O7 2.548659 1_455
Li5 O1 1.928966 1_564
Li5 O13 1.978202 1_555
Li5 O2 2.333873 1_554
Li5 O10 2.580228 1_555
Li5 O9 2.580228 1_555
Bi0 O4 2.239010 1_555
Bi0 O3 2.239010 1_455
Bi0 O6 2.247995 1_545
Bi0 O2 2.260600 1_555
Bi0 O1 2.319625 1_555
Bi0 O8 2.353830 1_555
Bi1 O10 2.239010 1_655
Bi1 O9 2.239010 1_555
Bi1 O7 2.247995 1_565
Bi1 O11 2.260600 1_555
Bi1 O12 2.319625 1_555
Bi1 O5 2.353830 1_555
B0 O13 1.363654 1_556
B0 O1 1.386161 1_555
B0 O2 1.415098 1_555
B1 O0 1.363654 1_554
B1 O12 1.386161 1_555
B1 O11 1.415098 1_555
O3 Si0 1.651432 1_555
O4 Si0 1.651432 1_555
O5 Si0 1.657140 1_555
O6 Si1 1.643406 1_555
O7 Si0 1.643406 1_555
O8 Si1 1.657140 1_555
O9 Si1 1.651432 1_555
O10 Si1 1.651432 1_555
