# generated using pymatgen
data_Lu2GeO5
_symmetry_space_group_name_H-M   'P 1'
_cell_length_a   6.25737403
_cell_length_b   6.25737403
_cell_length_c   7.36510447
_cell_angle_alpha   68.32078711
_cell_angle_beta   68.32078711
_cell_angle_gamma   48.70235024
_symmetry_Int_Tables_number   1
_chemical_formula_structural   Lu2GeO5
_chemical_formula_sum   'Lu4 Ge2 O10'
_cell_volume   198.04611089
_cell_formula_units_Z   2
loop_
 _symmetry_equiv_pos_site_id
 _symmetry_equiv_pos_as_xyz
  1  'x, y, z'
loop_
 _atom_site_type_symbol
 _atom_site_label
 _atom_site_symmetry_multiplicity
 _atom_site_fract_x
 _atom_site_fract_y
 _atom_site_fract_z
 _atom_site_occupancy
  Lu  Lu0  1  0.36771400  0.35284900  0.25639200  1
  Lu  Lu1  1  0.64715100  0.63228600  0.24360800  1
  Lu  Lu2  1  0.35284900  0.36771400  0.75639200  1
  Lu  Lu3  1  0.63228600  0.64715100  0.74360800  1
  Ge  Ge0  1  0.00000000  0.00000000  0.00000000  1
  Ge  Ge1  1  0.00000000  0.00000000  0.50000000  1
  O  O0  1  0.97589400  0.68842100  0.13774200  1
  O  O1  1  0.24166000  0.61190000  0.45943200  1
  O  O2  1  0.61190000  0.24166000  0.95943200  1
  O  O3  1  0.31157900  0.02410600  0.36225800  1
  O  O4  1  0.68842100  0.97589400  0.63774200  1
  O  O5  1  0.82984600  0.17015400  0.25000000  1
  O  O6  1  0.38810000  0.75834000  0.04056800  1
  O  O7  1  0.75834000  0.38810000  0.54056800  1
  O  O8  1  0.02410600  0.31157900  0.86225800  1
  O  O9  1  0.17015400  0.82984600  0.75000000  1
loop_
_geom_bond_atom_site_label_1
_geom_bond_atom_site_label_2
_geom_bond_distance
_geom_bond_site_symmetry_2
Lu0 O3 2.128202 1_555
Lu0 O0 2.148453 1_455
Lu0 O1 2.172049 1_555
Lu0 O2 2.203259 1_554
Lu0 O5 2.290619 1_555
Lu0 O6 2.505697 1_555
Lu1 O0 2.128202 1_555
Lu1 O3 2.148453 1_565
Lu1 O6 2.172049 1_555
Lu1 O7 2.203259 1_555
Lu1 O5 2.290619 1_555
Lu1 O1 2.505697 1_555
Lu2 O8 2.128202 1_555
Lu2 O4 2.148453 1_545
Lu2 O2 2.172049 1_555
Lu2 O1 2.203259 1_555
Lu2 O9 2.290619 1_555
Lu2 O7 2.505697 1_555
Lu3 O4 2.128202 1_555
Lu3 O8 2.148453 1_655
Lu3 O7 2.172049 1_555
Lu3 O6 2.203259 1_556
Lu3 O9 2.290619 1_555
Lu3 O2 2.505697 1_555
Ge0 O2 1.904878 1_454
Ge0 O6 1.904878 1_545
Ge0 O8 1.914925 1_554
Ge0 O0 1.914925 1_445
Ge0 O5 2.039909 1_455
Ge0 O9 2.039909 1_544
Ge1 O1 1.904878 1_545
Ge1 O7 1.904878 1_455
Ge1 O3 1.914925 1_555
Ge1 O4 1.914925 1_445
Ge1 O5 2.039909 1_455
Ge1 O9 2.039909 1_545
