# generated using pymatgen
data_Li2VF4
_symmetry_space_group_name_H-M   'P 1'
_cell_length_a   5.41575500
_cell_length_b   6.04925500
_cell_length_c   9.84083200
_cell_angle_alpha   90.00000000
_cell_angle_beta   90.00000000
_cell_angle_gamma   90.00000000
_symmetry_Int_Tables_number   1
_chemical_formula_structural   Li2VF4
_chemical_formula_sum   'Li8 V4 F16'
_cell_volume   322.39828223
_cell_formula_units_Z   4
loop_
 _symmetry_equiv_pos_site_id
 _symmetry_equiv_pos_as_xyz
  1  'x, y, z'
loop_
 _atom_site_type_symbol
 _atom_site_label
 _atom_site_symmetry_multiplicity
 _atom_site_fract_x
 _atom_site_fract_y
 _atom_site_fract_z
 _atom_site_occupancy
  Li  Li0  1  0.20247800  0.02500800  0.78306800  1
  Li  Li1  1  0.81421600  0.85910000  0.90907200  1
  Li  Li2  1  0.31421600  0.64090000  0.40907200  1
  Li  Li3  1  0.70247800  0.47499200  0.28306800  1
  Li  Li4  1  0.20247800  0.52500800  0.71693200  1
  Li  Li5  1  0.81421600  0.35910000  0.59092800  1
  Li  Li6  1  0.31421600  0.14090000  0.09092800  1
  Li  Li7  1  0.70247800  0.97499200  0.21693200  1
  V  V0  1  0.67030100  0.84115000  0.60963400  1
  V  V1  1  0.17030100  0.65885000  0.10963400  1
  V  V2  1  0.67030100  0.34115000  0.89036600  1
  V  V3  1  0.17030100  0.15885000  0.39036600  1
  F  F0  1  0.82956900  0.09398400  0.49076200  1
  F  F1  1  0.04953500  0.93085200  0.23681500  1
  F  F2  1  0.20019000  0.91770200  0.96770000  1
  F  F3  1  0.48971200  0.71564800  0.23145300  1
  F  F4  1  0.98971200  0.78435200  0.73145300  1
  F  F5  1  0.70019000  0.58229800  0.46770000  1
  F  F6  1  0.54953500  0.56914800  0.73681500  1
  F  F7  1  0.32956900  0.40601600  0.99076200  1
  F  F8  1  0.82956900  0.59398400  0.00923800  1
  F  F9  1  0.04953500  0.43085200  0.26318500  1
  F  F10  1  0.20019000  0.41770200  0.53230000  1
  F  F11  1  0.48971200  0.21564800  0.26854700  1
  F  F12  1  0.98971200  0.28435200  0.76854700  1
  F  F13  1  0.70019000  0.08229800  0.03230000  1
  F  F14  1  0.54953500  0.06914800  0.76318500  1
  F  F15  1  0.32956900  0.90601600  0.50923800  1
loop_
_geom_bond_atom_site_label_1
_geom_bond_atom_site_label_2
_geom_bond_distance
_geom_bond_site_symmetry_2
F0 Li5 1.884298 1_555
F0 V0 2.109899 1_545
F0 V3 2.129621 1_655
F1 Li7 1.908504 1_455
F1 V3 2.147869 1_565
F1 V1 2.168308 1_555
F1 Li6 2.393819 1_565
F2 Li6 1.917003 1_566
F2 Li0 1.929444 1_565
F2 V1 2.104527 1_556
F2 Li1 2.197285 1_455
F3 Li3 1.924861 1_555
F3 Li7 1.951779 1_555
F3 Li2 2.040348 1_555
F3 V1 2.132501 1_555
F4 Li0 1.924861 1_665
F4 Li4 1.951779 1_655
F4 Li1 2.040348 1_555
F4 V0 2.132501 1_555
F5 Li5 1.917003 1_555
F5 Li3 1.929444 1_555
F5 V0 2.104527 1_555
F5 Li2 2.197285 1_555
F6 Li4 1.908504 1_555
F6 V2 2.147869 1_555
F6 V0 2.168308 1_555
F6 Li5 2.393819 1_555
F7 Li6 1.884298 1_556
F7 V1 2.109899 1_556
F7 V2 2.129621 1_555
F8 Li1 1.884298 1_554
F8 V2 2.109899 1_554
F8 V1 2.129621 1_655
F9 Li3 1.908504 1_455
F9 V1 2.147869 1_555
F9 V3 2.168308 1_555
F9 Li2 2.393819 1_555
F10 Li2 1.917003 1_555
F10 Li4 1.929444 1_555
F10 V3 2.104527 1_555
F10 Li5 2.197285 1_455
F11 Li7 1.924861 1_545
F11 Li3 1.951779 1_555
F11 Li6 2.040348 1_555
F11 V3 2.132501 1_555
F12 Li4 1.924861 1_655
F12 Li0 1.951779 1_655
F12 Li5 2.040348 1_555
F12 V2 2.132501 1_555
F13 Li1 1.917003 1_544
F13 Li7 1.929444 1_545
F13 V2 2.104527 1_554
F13 Li6 2.197285 1_555
F14 Li0 1.908504 1_555
F14 V0 2.147869 1_545
F14 V2 2.168308 1_555
F14 Li1 2.393819 1_545
F15 Li2 1.884298 1_555
F15 V3 2.109899 1_565
F15 V0 2.129621 1_555
