# generated using pymatgen
data_K2MnN4
_symmetry_space_group_name_H-M   'P 1'
_cell_length_a   6.26880400
_cell_length_b   7.72448500
_cell_length_c   12.84061757
_cell_angle_alpha   71.95802795
_cell_angle_beta   90.00000000
_cell_angle_gamma   90.00000000
_symmetry_Int_Tables_number   1
_chemical_formula_structural   K2MnN4
_chemical_formula_sum   'K8 Mn4 N16'
_cell_volume   591.21162248
_cell_formula_units_Z   4
loop_
 _symmetry_equiv_pos_site_id
 _symmetry_equiv_pos_as_xyz
  1  'x, y, z'
loop_
 _atom_site_type_symbol
 _atom_site_label
 _atom_site_symmetry_multiplicity
 _atom_site_fract_x
 _atom_site_fract_y
 _atom_site_fract_z
 _atom_site_occupancy
  K  K0  1  0.22206900  0.92663200  0.39578200  1
  K  K1  1  0.72206900  0.07336800  0.10421800  1
  K  K2  1  0.77793100  0.07336800  0.60421800  1
  K  K3  1  0.27793100  0.92663200  0.89578200  1
  K  K4  1  0.19342500  0.45268100  0.36112800  1
  K  K5  1  0.69342500  0.54731900  0.13887200  1
  K  K6  1  0.80657500  0.54731900  0.63887200  1
  K  K7  1  0.30657500  0.45268100  0.86112800  1
  Mn  Mn0  1  0.21385800  0.29607100  0.14108600  1
  Mn  Mn1  1  0.71385800  0.70392900  0.35891400  1
  Mn  Mn2  1  0.78614200  0.70392900  0.85891400  1
  Mn  Mn3  1  0.28614200  0.29607100  0.64108600  1
  N  N0  1  0.98168900  0.26168300  0.20869500  1
  N  N1  1  0.48168900  0.73831700  0.29130500  1
  N  N2  1  0.01831100  0.73831700  0.79130500  1
  N  N3  1  0.51831100  0.26168300  0.70869500  1
  N  N4  1  0.41059700  0.24551200  0.23381300  1
  N  N5  1  0.91059700  0.75448800  0.26618700  1
  N  N6  1  0.58940300  0.75448800  0.76618700  1
  N  N7  1  0.08940300  0.24551200  0.73381300  1
  N  N8  1  0.23792900  0.51725000  0.06608100  1
  N  N9  1  0.73792900  0.48275000  0.43391900  1
  N  N10  1  0.76207100  0.48275000  0.93391900  1
  N  N11  1  0.26207100  0.51725000  0.56608100  1
  N  N12  1  0.23590100  0.16527700  0.05799200  1
  N  N13  1  0.73590100  0.83472300  0.44200800  1
  N  N14  1  0.76409900  0.83472300  0.94200800  1
  N  N15  1  0.26409900  0.16527700  0.55799200  1
loop_
_geom_bond_atom_site_label_1
_geom_bond_atom_site_label_2
_geom_bond_distance
_geom_bond_site_symmetry_2
K0 N1 2.788062 1_555
K0 N4 2.935348 1_565
K0 N5 3.117764 1_455
K0 N13 3.143843 1_455
K0 N15 3.191286 1_565
K0 N11 3.249811 1_555
K0 N0 3.299825 1_465
K0 N13 3.312233 1_555
K1 N0 2.788062 1_555
K1 N5 2.935348 1_545
K1 N4 3.117764 1_555
K1 N12 3.143843 1_555
K1 N14 3.191286 1_544
K1 N10 3.249811 1_554
K1 N1 3.299825 1_545
K1 N12 3.312233 1_655
K2 N3 2.788062 1_555
K2 N6 2.935348 1_545
K2 N7 3.117764 1_655
K2 N15 3.143843 1_655
K2 N13 3.191286 1_545
K2 N9 3.249811 1_555
K2 N2 3.299825 1_645
K2 N15 3.312233 1_555
K3 N2 2.788062 1_555
K3 N7 2.935348 1_565
K3 N6 3.117764 1_555
K3 N14 3.143843 1_555
K3 N12 3.191286 1_566
K3 N8 3.249811 1_556
K3 N3 3.299825 1_565
K3 N14 3.312233 1_455
K4 N1 2.777078 1_555
K4 N15 2.835269 1_555
K4 N11 2.858842 1_555
K4 N5 2.881704 1_455
K4 N4 2.950830 1_555
K4 N9 3.035696 1_455
K4 N0 3.091670 1_455
K5 N0 2.777078 1_555
K5 N14 2.835269 1_554
K5 N10 2.858842 1_554
K5 N4 2.881704 1_555
K5 N5 2.950830 1_555
K5 N8 3.035696 1_555
K5 N1 3.091670 1_555
K6 N3 2.777078 1_555
K6 N13 2.835269 1_555
K6 N9 2.858842 1_555
K6 N7 2.881704 1_655
K6 N6 2.950830 1_555
K6 N11 3.035696 1_655
K6 N2 3.091670 1_655
K7 N2 2.777078 1_555
K7 N12 2.835269 1_556
K7 N8 2.858842 1_556
K7 N6 2.881704 1_555
K7 N7 2.950830 1_555
K7 N10 3.035696 1_555
K7 N3 3.091670 1_555
Mn0 N0 1.673212 1_455
Mn0 N4 1.674293 1_555
Mn0 N12 1.687012 1_555
Mn0 N8 1.688211 1_555
Mn1 N1 1.673212 1_555
Mn1 N5 1.674293 1_555
Mn1 N13 1.687012 1_555
Mn1 N9 1.688211 1_555
Mn2 N2 1.673212 1_655
Mn2 N6 1.674293 1_555
Mn2 N14 1.687012 1_555
Mn2 N10 1.688211 1_555
Mn3 N3 1.673212 1_555
Mn3 N7 1.674293 1_555
Mn3 N15 1.687012 1_555
Mn3 N11 1.688211 1_555
