# generated using pymatgen
data_Li3MnV4O8
_symmetry_space_group_name_H-M   'P 1'
_cell_length_a   6.03086889
_cell_length_b   6.03086889
_cell_length_c   6.10974062
_cell_angle_alpha   59.78347506
_cell_angle_beta   59.78347506
_cell_angle_gamma   60.24835620
_symmetry_Int_Tables_number   1
_chemical_formula_structural   Li3MnV4O8
_chemical_formula_sum   'Li3 Mn1 V4 O8'
_cell_volume   156.90671735
_cell_formula_units_Z   1
loop_
 _symmetry_equiv_pos_site_id
 _symmetry_equiv_pos_as_xyz
  1  'x, y, z'
loop_
 _atom_site_type_symbol
 _atom_site_label
 _atom_site_symmetry_multiplicity
 _atom_site_fract_x
 _atom_site_fract_y
 _atom_site_fract_z
 _atom_site_occupancy
  Li  Li0  1  0.00000000  0.50000000  0.00000000  1
  Li  Li1  1  0.50000000  0.00000000  0.00000000  1
  Li  Li2  1  0.00000000  0.00000000  0.50000000  1
  Mn  Mn0  1  0.50000000  0.50000000  0.00000000  1
  V  V0  1  0.50000000  0.50000000  0.50000000  1
  V  V1  1  0.00000000  0.00000000  0.00000000  1
  V  V2  1  0.50000000  0.00000000  0.50000000  1
  V  V3  1  0.00000000  0.50000000  0.50000000  1
  O  O0  1  0.75099300  0.75099300  0.72118600  1
  O  O1  1  0.24384400  0.73819600  0.26876400  1
  O  O2  1  0.73819600  0.24384400  0.26876400  1
  O  O3  1  0.24900700  0.24900700  0.27881400  1
  O  O4  1  0.25848300  0.25848300  0.73772300  1
  O  O5  1  0.75615600  0.26180400  0.73123600  1
  O  O6  1  0.26180400  0.75615600  0.73123600  1
  O  O7  1  0.74151700  0.74151700  0.26227700  1
loop_
_geom_bond_atom_site_label_1
_geom_bond_atom_site_label_2
_geom_bond_distance
_geom_bond_site_symmetry_2
Li0 O4 2.168162 1_554
Li0 O7 2.168162 1_455
Li0 O6 2.198580 1_554
Li0 O2 2.198580 1_455
Li0 O0 2.274141 1_454
Li0 O3 2.274141 1_555
Li1 O4 2.168162 1_554
Li1 O7 2.168162 1_545
Li1 O1 2.198580 1_545
Li1 O5 2.198580 1_554
Li1 O0 2.274141 1_544
Li1 O3 2.274141 1_555
Li2 O0 2.118841 1_445
Li2 O3 2.118841 1_555
Li2 O6 2.121584 1_545
Li2 O5 2.121584 1_455
Li2 O2 2.121584 1_455
Li2 O1 2.121584 1_545
Mn0 O0 2.137214 1_554
Mn0 O3 2.137214 1_555
Mn0 O1 2.182893 1_555
Mn0 O2 2.182893 1_555
Mn0 O5 2.182893 1_554
Mn0 O6 2.182893 1_554
O0 V3 2.032966 1_655
O0 V2 2.032966 1_565
O1 V3 2.045701 1_555
O1 V0 2.097054 1_555
O1 V1 2.206470 1_565
O2 V2 2.045701 1_555
O2 V0 2.097054 1_555
O2 V1 2.206470 1_655
O3 V3 2.032966 1_555
O3 V2 2.032966 1_555
O4 V0 2.049274 1_555
O4 V3 2.134773 1_555
O4 V2 2.134773 1_555
O4 V1 2.193436 1_556
O5 V3 2.045701 1_655
O5 V0 2.097054 1_555
O5 V1 2.206470 1_656
O6 V2 2.045701 1_565
O6 V0 2.097054 1_555
O6 V1 2.206470 1_566
O7 V0 2.049274 1_555
O7 V3 2.134773 1_655
O7 V2 2.134773 1_565
O7 V1 2.193436 1_665
