# generated using pymatgen
data_K5H(CN2)2
_symmetry_space_group_name_H-M   'P 1'
_cell_length_a   9.13228400
_cell_length_b   9.13228400
_cell_length_c   11.10360300
_cell_angle_alpha   90.00000000
_cell_angle_beta   90.00000000
_cell_angle_gamma   90.00000000
_symmetry_Int_Tables_number   1
_chemical_formula_structural   K5H(CN2)2
_chemical_formula_sum   'K20 H4 C8 N16'
_cell_volume   926.02506792
_cell_formula_units_Z   4
loop_
 _symmetry_equiv_pos_site_id
 _symmetry_equiv_pos_as_xyz
  1  'x, y, z'
loop_
 _atom_site_type_symbol
 _atom_site_label
 _atom_site_symmetry_multiplicity
 _atom_site_fract_x
 _atom_site_fract_y
 _atom_site_fract_z
 _atom_site_occupancy
  K  K0  1  0.29471400  0.39606600  0.10152200  1
  K  K1  1  0.29471400  0.60393400  0.60152200  1
  K  K2  1  0.39606600  0.29471400  0.39847800  1
  K  K3  1  0.39606600  0.70528600  0.89847800  1
  K  K4  1  0.50000000  0.00000000  0.15234400  1
  K  K5  1  0.50000000  0.00000000  0.65234400  1
  K  K6  1  0.60393400  0.29471400  0.89847800  1
  K  K7  1  0.60393400  0.70528600  0.39847800  1
  K  K8  1  0.70528600  0.39606600  0.60152200  1
  K  K9  1  0.70528600  0.60393400  0.10152200  1
  K  K10  1  0.79471400  0.89606600  0.89847800  1
  K  K11  1  0.79471400  0.10393400  0.39847800  1
  K  K12  1  0.89606600  0.79471400  0.60152200  1
  K  K13  1  0.89606600  0.20528600  0.10152200  1
  K  K14  1  0.00000000  0.50000000  0.34765600  1
  K  K15  1  0.00000000  0.50000000  0.84765600  1
  K  K16  1  0.10393400  0.79471400  0.10152200  1
  K  K17  1  0.10393400  0.20528600  0.60152200  1
  K  K18  1  0.20528600  0.10393400  0.89847800  1
  K  K19  1  0.20528600  0.89606600  0.39847800  1
  H  H0  1  0.50000000  0.00000000  0.39958200  1
  H  H1  1  0.50000000  0.00000000  0.89958200  1
  H  H2  1  0.00000000  0.50000000  0.10041800  1
  H  H3  1  0.00000000  0.50000000  0.60041800  1
  C  C0  1  0.35293100  0.35293100  0.75000000  1
  C  C1  1  0.35293100  0.64706900  0.25000000  1
  C  C2  1  0.64706900  0.35293100  0.25000000  1
  C  C3  1  0.64706900  0.64706900  0.75000000  1
  C  C4  1  0.85293100  0.85293100  0.25000000  1
  C  C5  1  0.85293100  0.14706900  0.75000000  1
  C  C6  1  0.14706900  0.85293100  0.75000000  1
  C  C7  1  0.14706900  0.14706900  0.25000000  1
  N  N0  1  0.30567000  0.59913200  0.34752900  1
  N  N1  1  0.30567000  0.40086800  0.84752900  1
  N  N2  1  0.40086800  0.69433000  0.15247100  1
  N  N3  1  0.40086800  0.30567000  0.65247100  1
  N  N4  1  0.59913200  0.30567000  0.15247100  1
  N  N5  1  0.59913200  0.69433000  0.65247100  1
  N  N6  1  0.69433000  0.40086800  0.34752900  1
  N  N7  1  0.69433000  0.59913200  0.84752900  1
  N  N8  1  0.80567000  0.90086800  0.15247100  1
  N  N9  1  0.80567000  0.09913200  0.65247100  1
  N  N10  1  0.90086800  0.80567000  0.34752900  1
  N  N11  1  0.90086800  0.19433000  0.84752900  1
  N  N12  1  0.09913200  0.19433000  0.34752900  1
  N  N13  1  0.09913200  0.80567000  0.84752900  1
  N  N14  1  0.19433000  0.90086800  0.65247100  1
  N  N15  1  0.19433000  0.09913200  0.15247100  1
loop_
_geom_bond_atom_site_label_1
_geom_bond_atom_site_label_2
_geom_bond_distance
_geom_bond_site_symmetry_2
K0 N1 2.822352 1_554
K0 N15 2.917821 1_555
K0 N2 2.946029 1_555
K0 N4 2.954674 1_555
K1 N0 2.822352 1_555
K1 N14 2.917821 1_555
K1 N3 2.946029 1_555
K1 N5 2.954674 1_555
K2 N3 2.822352 1_555
K2 N12 2.917821 1_555
K2 N6 2.946029 1_555
K2 N0 2.954674 1_555
K3 N2 2.822352 1_556
K3 N13 2.917821 1_555
K3 N7 2.946029 1_555
K3 N1 2.954674 1_555
K4 N15 2.934596 1_555
K4 N8 2.934596 1_545
K4 N4 2.934596 1_555
K4 N2 2.934596 1_545
K5 N14 2.934596 1_545
K5 N5 2.934596 1_545
K5 N9 2.934596 1_555
K5 N3 2.934596 1_555
K6 N4 2.822352 1_556
K6 N11 2.917821 1_555
K6 N1 2.946029 1_555
K6 N7 2.954674 1_555
K7 N5 2.822352 1_555
K7 N10 2.917821 1_555
K7 N0 2.946029 1_555
K7 N6 2.954674 1_555
K8 N6 2.822352 1_555
K8 N9 2.917821 1_555
K8 N5 2.946029 1_555
K8 N3 2.954674 1_555
K9 N7 2.822352 1_554
K9 N8 2.917821 1_555
K9 N4 2.946029 1_555
K9 N2 2.954674 1_555
K10 N8 2.822352 1_556
K10 N7 2.917821 1_555
K10 N11 2.946029 1_565
K10 N13 2.954674 1_655
K11 N9 2.822352 1_555
K11 N6 2.917821 1_555
K11 N10 2.946029 1_545
K11 N12 2.954674 1_655
K12 N10 2.822352 1_555
K12 N5 2.917821 1_555
K12 N14 2.946029 1_655
K12 N9 2.954674 1_565
K13 N11 2.822352 1_554
K13 N4 2.917821 1_555
K13 N15 2.946029 1_655
K13 N8 2.954674 1_545
K14 N6 2.934596 1_455
K14 N0 2.934596 1_555
K14 N10 2.934596 1_455
K14 N12 2.934596 1_555
K15 N7 2.934596 1_455
K15 N13 2.934596 1_555
K15 N1 2.934596 1_555
K15 N11 2.934596 1_455
K16 N13 2.822352 1_554
K16 N2 2.917821 1_555
K16 N8 2.946029 1_455
K16 N15 2.954674 1_565
K17 N12 2.822352 1_555
K17 N3 2.917821 1_555
K17 N9 2.946029 1_455
K17 N14 2.954674 1_545
K18 N15 2.822352 1_556
K18 N1 2.917821 1_555
K18 N13 2.946029 1_545
K18 N11 2.954674 1_455
K19 N14 2.822352 1_555
K19 N0 2.917821 1_555
K19 N12 2.946029 1_565
K19 N10 2.954674 1_455
H0 K4 2.745233 1_555
H0 K5 2.806569 1_555
H0 K7 2.853900 1_545
H0 K11 2.853900 1_555
H0 K2 2.853900 1_555
H0 K19 2.853900 1_545
H1 K5 2.745233 1_555
H1 K4 2.806569 1_556
H1 K6 2.853900 1_555
H1 K10 2.853900 1_545
H1 K3 2.853900 1_545
H1 K18 2.853900 1_555
H2 K14 2.745233 1_555
H2 K15 2.806569 1_554
H2 K9 2.853900 1_455
H2 K13 2.853900 1_455
H2 K0 2.853900 1_555
H2 K16 2.853900 1_555
H3 K15 2.745233 1_555
H3 K14 2.806569 1_555
H3 K1 2.853900 1_555
H3 K17 2.853900 1_555
H3 K12 2.853900 1_455
H3 K8 2.853900 1_455
C0 N1 1.245250 1_555
C0 N3 1.245250 1_555
C0 K1 2.873151 1_555
C0 K6 2.873151 1_555
C1 N0 1.245250 1_555
C1 N2 1.245250 1_555
C1 K7 2.873151 1_555
C1 K0 2.873151 1_555
C2 N6 1.245250 1_555
C2 N4 1.245250 1_555
C2 K9 2.873151 1_555
C2 K2 2.873151 1_555
C3 N5 1.245250 1_555
C3 N7 1.245250 1_555
C3 K8 2.873151 1_555
C3 K3 2.873151 1_555
C4 N10 1.245250 1_555
C4 N8 1.245250 1_555
C4 K16 2.873151 1_655
C4 K11 2.873151 1_565
C5 N11 1.245250 1_555
C5 N9 1.245250 1_555
C5 K17 2.873151 1_655
C5 K10 2.873151 1_545
C6 N14 1.245250 1_555
C6 N13 1.245250 1_555
C6 K12 2.873151 1_455
C6 K18 2.873151 1_565
C7 N12 1.245250 1_555
C7 N15 1.245250 1_555
C7 K19 2.873151 1_545
C7 K13 2.873151 1_455
