# generated using pymatgen
data_Mn3O5F
_symmetry_space_group_name_H-M   'P 1'
_cell_length_a   3.00706500
_cell_length_b   4.54725200
_cell_length_c   13.64676039
_cell_angle_alpha   87.84658324
_cell_angle_beta   90.00000000
_cell_angle_gamma   90.00000000
_symmetry_Int_Tables_number   1
_chemical_formula_structural   Mn3O5F
_chemical_formula_sum   'Mn6 O10 F2'
_cell_volume   186.47241530
_cell_formula_units_Z   2
loop_
 _symmetry_equiv_pos_site_id
 _symmetry_equiv_pos_as_xyz
  1  'x, y, z'
loop_
 _atom_site_type_symbol
 _atom_site_label
 _atom_site_symmetry_multiplicity
 _atom_site_fract_x
 _atom_site_fract_y
 _atom_site_fract_z
 _atom_site_occupancy
  Mn  Mn0  1  0.00000000  0.00000000  0.00000000  1
  Mn  Mn1  1  0.00000000  0.02052400  0.33968100  1
  Mn  Mn2  1  0.00000000  0.97947600  0.66031900  1
  Mn  Mn3  1  0.50000000  0.48046500  0.15986700  1
  Mn  Mn4  1  0.50000000  0.50000000  0.50000000  1
  Mn  Mn5  1  0.50000000  0.51953500  0.84013300  1
  O  O0  1  0.50000000  0.80006300  0.60032600  1
  O  O1  1  0.50000000  0.80961900  0.93614700  1
  O  O2  1  0.00000000  0.69468500  0.10280400  1
  O  O3  1  0.00000000  0.69571800  0.76878300  1
  O  O4  1  0.00000000  0.69407000  0.43400100  1
  O  O5  1  0.00000000  0.30428200  0.23121700  1
  O  O6  1  0.00000000  0.30593000  0.56599900  1
  O  O7  1  0.00000000  0.30531500  0.89719600  1
  O  O8  1  0.50000000  0.19038100  0.06385300  1
  O  O9  1  0.50000000  0.19993700  0.39967400  1
  F  F0  1  0.50000000  0.80158200  0.26727700  1
  F  F1  1  0.50000000  0.19841800  0.73272300  1
loop_
_geom_bond_atom_site_label_1
_geom_bond_atom_site_label_2
_geom_bond_distance
_geom_bond_site_symmetry_2
Mn0 O2 1.936329 1_545
Mn0 O7 1.936329 1_554
Mn0 O8 1.956034 1_555
Mn0 O8 1.956034 1_455
Mn0 O1 1.956034 1_444
Mn0 O1 1.956034 1_544
Mn1 O9 1.909628 1_455
Mn1 O9 1.909628 1_555
Mn1 O5 1.926741 1_555
Mn1 O4 1.927911 1_545
Mn2 O0 1.909628 1_455
Mn2 O0 1.909628 1_555
Mn2 O3 1.926741 1_555
Mn2 O6 1.927911 1_565
Mn3 O8 1.893860 1_555
Mn3 O2 1.938791 1_555
Mn3 O2 1.938791 1_655
Mn3 O5 1.947283 1_555
Mn3 O5 1.947283 1_655
Mn4 O4 1.947015 1_555
Mn4 O4 1.947015 1_655
Mn4 O6 1.947015 1_555
Mn4 O6 1.947015 1_655
Mn4 O9 1.968921 1_555
Mn4 O0 1.968921 1_555
Mn5 O1 1.893860 1_555
Mn5 O7 1.938791 1_555
Mn5 O7 1.938791 1_655
Mn5 O3 1.947283 1_555
Mn5 O3 1.947283 1_655
F0 Mn1 2.074133 1_665
F0 Mn1 2.074133 1_565
F0 Mn3 2.107510 1_555
F1 Mn2 2.074133 1_645
F1 Mn2 2.074133 1_545
F1 Mn5 2.107510 1_555
