# generated using pymatgen
data_NaAlGe
_symmetry_space_group_name_H-M   'P 1'
_cell_length_a   4.14753367
_cell_length_b   4.14753367
_cell_length_c   7.32841864
_cell_angle_alpha   90.00000000
_cell_angle_beta   90.00000000
_cell_angle_gamma   90.00000000
_symmetry_Int_Tables_number   1
_chemical_formula_structural   NaAlGe
_chemical_formula_sum   'Na2 Al2 Ge2'
_cell_volume   126.06371793
_cell_formula_units_Z   2
loop_
 _symmetry_equiv_pos_site_id
 _symmetry_equiv_pos_as_xyz
  1  'x, y, z'
loop_
 _atom_site_type_symbol
 _atom_site_label
 _atom_site_symmetry_multiplicity
 _atom_site_fract_x
 _atom_site_fract_y
 _atom_site_fract_z
 _atom_site_occupancy
  Na  Na0  1  0.25000000  0.25000000  0.63962485  1
  Na  Na1  1  0.75000000  0.75000000  0.36037515  1
  Al  Al0  1  0.75000000  0.25000000  -0.00000000  1
  Al  Al1  1  0.25000000  0.75000000  -0.00000000  1
  Ge  Ge0  1  0.25000000  0.25000000  0.21365990  1
  Ge  Ge1  1  0.75000000  0.75000000  0.78634010  1
loop_
_geom_bond_atom_site_label_1
_geom_bond_atom_site_label_2
_geom_bond_distance
_geom_bond_site_symmetry_2
Al0 Ge1 2.598500 1_544
Al0 Ge0 2.598500 1_655
Al0 Ge0 2.598500 1_555
Al0 Ge1 2.598500 1_554
Al1 Ge0 2.598500 1_555
Al1 Ge1 2.598500 1_454
Al1 Ge1 2.598500 1_554
Al1 Ge0 2.598500 1_565
Ge0 Na0 3.121649 1_555
Ge0 Na1 3.123628 1_445
Ge0 Na1 3.123628 1_455
Ge0 Na1 3.123628 1_545
Ge0 Na1 3.123628 1_555
Ge1 Na1 3.121649 1_555
Ge1 Na0 3.123628 1_565
Ge1 Na0 3.123628 1_555
Ge1 Na0 3.123628 1_655
Ge1 Na0 3.123628 1_665
