# generated using pymatgen
data_Li2Mn3NbO8
_symmetry_space_group_name_H-M   'P 1'
_cell_length_a   5.97644976
_cell_length_b   5.97644976
_cell_length_c   9.91504846
_cell_angle_alpha   88.03899785
_cell_angle_beta   88.03899785
_cell_angle_gamma   119.24686378
_symmetry_Int_Tables_number   1
_chemical_formula_structural   Li2Mn3NbO8
_chemical_formula_sum   'Li4 Mn6 Nb2 O16'
_cell_volume   308.29146843
_cell_formula_units_Z   2
loop_
 _symmetry_equiv_pos_site_id
 _symmetry_equiv_pos_as_xyz
  1  'x, y, z'
loop_
 _atom_site_type_symbol
 _atom_site_label
 _atom_site_symmetry_multiplicity
 _atom_site_fract_x
 _atom_site_fract_y
 _atom_site_fract_z
 _atom_site_occupancy
  Li  Li0  1  0.34306400  0.67505400  0.90380000  1
  Li  Li1  1  0.00108100  0.00221900  0.98916200  1
  Li  Li2  1  0.00221900  0.00108100  0.48916200  1
  Li  Li3  1  0.67505400  0.34306400  0.40380000  1
  Mn  Mn0  1  0.65944600  0.83140200  0.21542200  1
  Mn  Mn1  1  0.17104600  0.33759700  0.21408200  1
  Mn  Mn2  1  0.16937800  0.83155900  0.21331000  1
  Mn  Mn3  1  0.83155900  0.16937800  0.71331000  1
  Mn  Mn4  1  0.83140200  0.65944600  0.71542200  1
  Mn  Mn5  1  0.33759700  0.17104600  0.71408200  1
  Nb  Nb0  1  0.35383400  0.68757100  0.48970600  1
  Nb  Nb1  1  0.68757100  0.35383400  0.98970600  1
  O  O0  1  0.65293300  0.82737500  0.58758800  1
  O  O1  1  0.49744900  0.53448500  0.34693700  1
  O  O2  1  0.34185300  0.67376600  0.11572800  1
  O  O3  1  0.98928200  0.99087200  0.30241200  1
  O  O4  1  0.99087200  0.98928200  0.80241200  1
  O  O5  1  0.16185600  0.31836100  0.59383300  1
  O  O6  1  0.47597900  0.97356500  0.35713900  1
  O  O7  1  0.03999400  0.51433400  0.33392300  1
  O  O8  1  0.80481300  0.14011600  0.09087700  1
  O  O9  1  0.14011600  0.80481300  0.59087700  1
  O  O10  1  0.97356500  0.47598000  0.85713900  1
  O  O11  1  0.51433400  0.03999400  0.83392300  1
  O  O12  1  0.67376600  0.34185300  0.61572800  1
  O  O13  1  0.82737500  0.65293300  0.08758800  1
  O  O14  1  0.53448500  0.49744900  0.84693700  1
  O  O15  1  0.31836100  0.16185600  0.09383300  1
loop_
_geom_bond_atom_site_label_1
_geom_bond_atom_site_label_2
_geom_bond_distance
_geom_bond_site_symmetry_2
Li0 O14 1.984111 1_555
Li0 O11 1.987784 1_565
Li0 O10 2.011572 1_455
Li0 O2 2.100779 1_556
Li1 O4 1.857734 1_445
Li1 O8 1.998177 1_456
Li1 O15 2.004394 1_556
Li1 O13 2.015289 1_446
Li2 O3 1.857734 1_445
Li2 O9 1.998177 1_545
Li2 O5 2.004394 1_555
Li2 O0 2.015289 1_445
Li3 O1 1.984111 1_555
Li3 O7 1.987784 1_655
Li3 O6 2.011572 1_545
Li3 O12 2.100779 1_555
Mn0 O1 1.965469 1_555
Mn0 O3 1.968477 1_555
Mn0 O8 1.971834 1_565
Mn0 O2 1.977916 1_555
Mn0 O6 2.187490 1_555
Mn0 O13 2.191549 1_555
Mn1 O2 1.955315 1_555
Mn1 O3 1.962684 1_445
Mn1 O7 1.992888 1_555
Mn1 O15 2.053594 1_555
Mn1 O1 2.228033 1_555
Mn1 O8 2.330961 1_455
Mn2 O2 1.957554 1_555
Mn2 O3 1.959439 1_455
Mn2 O7 1.992854 1_555
Mn2 O15 2.035465 1_565
Mn2 O6 2.203105 1_555
Mn2 O13 2.237095 1_455
Mn3 O12 1.957554 1_555
Mn3 O4 1.959439 1_545
Mn3 O11 1.992854 1_555
Mn3 O5 2.035465 1_655
Mn3 O10 2.203109 1_555
Mn3 O0 2.237095 1_545
Mn4 O14 1.965469 1_555
Mn4 O4 1.968477 1_555
Mn4 O9 1.971834 1_655
Mn4 O12 1.977916 1_555
Mn4 O10 2.187486 1_555
Mn4 O0 2.191549 1_555
Mn5 O12 1.955315 1_555
Mn5 O4 1.962684 1_445
Mn5 O11 1.992888 1_555
Mn5 O5 2.053594 1_555
Mn5 O14 2.228033 1_555
Mn5 O9 2.330961 1_545
Nb0 O0 1.884179 1_555
Nb0 O6 1.934784 1_555
Nb0 O9 1.990874 1_555
Nb0 O1 2.085757 1_555
Nb0 O5 2.130825 1_555
Nb0 O7 2.320761 1_555
Nb1 O13 1.884179 1_556
Nb1 O10 1.934783 1_555
Nb1 O8 1.990874 1_556
Nb1 O14 2.085757 1_555
Nb1 O15 2.130825 1_556
Nb1 O11 2.320761 1_555
