# generated using pymatgen
data_Li4Nb2Co3Sb3O16
_symmetry_space_group_name_H-M   'P 1'
_cell_length_a   6.20707500
_cell_length_b   6.21753094
_cell_length_c   9.90787992
_cell_angle_alpha   89.28792319
_cell_angle_beta   89.26991283
_cell_angle_gamma   60.58662162
_symmetry_Int_Tables_number   1
_chemical_formula_structural   Li4Nb2Co3Sb3O16
_chemical_formula_sum   'Li4 Nb2 Co3 Sb3 O16'
_cell_volume   333.04822532
_cell_formula_units_Z   1
loop_
 _symmetry_equiv_pos_site_id
 _symmetry_equiv_pos_as_xyz
  1  'x, y, z'
loop_
 _atom_site_type_symbol
 _atom_site_label
 _atom_site_symmetry_multiplicity
 _atom_site_fract_x
 _atom_site_fract_y
 _atom_site_fract_z
 _atom_site_occupancy
  Li  Li0  1  0.67604800  0.66733100  0.89656000  1
  Li  Li1  1  0.98010700  0.99490200  0.98487300  1
  Li  Li2  1  0.98072300  0.00330900  0.50120800  1
  Li  Li3  1  0.33945200  0.32280300  0.40714400  1
  Nb  Nb0  1  0.67782500  0.67199800  0.49816700  1
  Nb  Nb1  1  0.33640400  0.36013100  0.97779100  1
  Co  Co0  1  0.83738600  0.82946000  0.21111000  1
  Co  Co1  1  0.17238800  0.65809200  0.71064600  1
  Co  Co2  1  0.66258000  0.17151000  0.71519800  1
  Sb  Sb0  1  0.33609500  0.83797300  0.21728200  1
  Sb  Sb1  1  0.82725100  0.34479100  0.21540800  1
  Sb  Sb2  1  0.17659300  0.16689100  0.71475500  1
  O  O0  1  0.34344000  0.83719500  0.59082000  1
  O  O1  1  0.54005900  0.49395900  0.35398200  1
  O  O2  1  0.68939900  0.65203800  0.10135300  1
  O  O3  1  0.96877400  0.02511100  0.31655300  1
  O  O4  1  0.99939600  0.99854500  0.79872700  1
  O  O5  1  0.85311600  0.33674400  0.59460600  1
  O  O6  1  0.52654600  0.95041900  0.35116400  1
  O  O7  1  0.96233500  0.50533400  0.34196300  1
  O  O8  1  0.14178600  0.18752200  0.09611400  1
  O  O9  1  0.84003400  0.81863400  0.58894800  1
  O  O10  1  0.04124300  0.46878400  0.84001200  1
  O  O11  1  0.46428800  0.03731300  0.85182900  1
  O  O12  1  0.34280200  0.32568300  0.60849500  1
  O  O13  1  0.13666000  0.66082800  0.07849800  1
  O  O14  1  0.48624500  0.47820700  0.84786100  1
  O  O15  1  0.66072300  0.19479100  0.09677200  1
loop_
_geom_bond_atom_site_label_1
_geom_bond_atom_site_label_2
_geom_bond_distance
_geom_bond_site_symmetry_2
Li0 O2 2.030951 1_556
Li0 O10 2.052432 1_655
Li0 O11 2.058024 1_565
Li0 O14 2.095893 1_555
Li1 O4 1.847250 1_555
Li1 O13 2.027742 1_656
Li1 O15 2.064482 1_566
Li1 O8 2.213069 1_666
Li2 O3 1.832624 1_555
Li2 O9 1.943563 1_545
Li2 O5 2.048842 1_555
Li2 O0 2.160574 1_645
Li3 O12 1.995729 1_555
Li3 O1 2.056998 1_555
Li3 O6 2.095581 1_545
Li3 O7 2.143681 1_455
Nb0 O9 1.897116 1_555
Nb0 O0 2.021525 1_555
Nb0 O5 2.047223 1_555
Nb0 O6 2.091735 1_555
Nb0 O7 2.181849 1_555
Nb0 O1 2.235532 1_555
Nb1 O14 1.917780 1_555
Nb1 O13 1.940679 1_556
Nb1 O15 2.120532 1_556
Nb1 O10 2.121688 1_555
Nb1 O11 2.165256 1_555
Nb1 O8 2.278469 1_556
Co0 O3 2.064957 1_565
Co0 O2 2.072141 1_555
Co0 O13 2.082162 1_655
Co0 O6 2.178585 1_555
Co0 O7 2.183838 1_555
Co0 O15 2.272996 1_565
Co1 O4 2.045692 1_455
Co1 O12 2.071754 1_555
Co1 O10 2.137266 1_555
Co1 O9 2.171842 1_455
Co1 O14 2.187232 1_555
Co1 O0 2.207519 1_555
Co2 O4 2.006456 1_545
Co2 O12 2.033661 1_555
Co2 O14 2.130147 1_555
Co2 O11 2.231996 1_555
Co2 O5 2.237993 1_555
Co2 O9 2.291520 1_545
O0 Sb2 2.174259 1_565
O1 Sb1 2.066000 1_555
O1 Sb0 2.307409 1_555
O2 Sb1 2.005976 1_555
O2 Sb0 2.223431 1_555
O3 Sb1 1.996130 1_555
O3 Sb0 2.210248 1_645
O4 Sb2 2.020716 1_665
O5 Sb2 2.123861 1_655
O6 Sb0 2.126174 1_555
O7 Sb1 2.037553 1_555
O8 Sb1 2.063883 1_455
O8 Sb0 2.239800 1_545
O10 Sb2 2.061951 1_555
O11 Sb2 2.074593 1_555
O12 Sb2 2.023472 1_555
O13 Sb0 2.460995 1_555
O15 Sb1 2.079652 1_555
