# generated using pymatgen
data_Li3Co2(SiO4)2
_symmetry_space_group_name_H-M   'P 1'
_cell_length_a   6.43082300
_cell_length_b   5.05312400
_cell_length_c   10.59416108
_cell_angle_alpha   89.51786582
_cell_angle_beta   90.00000000
_cell_angle_gamma   90.00000000
_symmetry_Int_Tables_number   1
_chemical_formula_structural   Li3Co2(SiO4)2
_chemical_formula_sum   'Li6 Co4 Si4 O16'
_cell_volume   344.25297947
_cell_formula_units_Z   2
loop_
 _symmetry_equiv_pos_site_id
 _symmetry_equiv_pos_as_xyz
  1  'x, y, z'
loop_
 _atom_site_type_symbol
 _atom_site_label
 _atom_site_symmetry_multiplicity
 _atom_site_fract_x
 _atom_site_fract_y
 _atom_site_fract_z
 _atom_site_occupancy
  Li  Li0  1  0.24117200  0.24048700  0.84108500  1
  Li  Li1  1  0.75882800  0.24048700  0.34108500  1
  Li  Li2  1  0.75154100  0.74051300  0.65939600  1
  Li  Li3  1  0.50803800  0.74669300  0.42272200  1
  Li  Li4  1  0.49196200  0.74669300  0.92272200  1
  Li  Li5  1  0.24845900  0.74051300  0.15939600  1
  Co  Co0  1  0.23376900  0.72909100  0.66526600  1
  Co  Co1  1  0.76623100  0.72909100  0.16526600  1
  Co  Co2  1  0.74409400  0.24691600  0.83219500  1
  Co  Co3  1  0.25590600  0.24691600  0.33219500  1
  Si  Si0  1  0.00546700  0.73722800  0.41058300  1
  Si  Si1  1  0.99453300  0.73722800  0.91058300  1
  Si  Si2  1  0.51225600  0.23558900  0.09185800  1
  Si  Si3  1  0.48774400  0.23558900  0.59185800  1
  O  O0  1  0.21956000  0.86321500  0.34268400  1
  O  O1  1  0.21167000  0.84645000  0.84256600  1
  O  O2  1  0.99952700  0.80110400  0.05983600  1
  O  O3  1  0.01358600  0.41480400  0.38457500  1
  O  O4  1  0.98641400  0.41480400  0.88457500  1
  O  O5  1  0.00047300  0.80110400  0.55983600  1
  O  O6  1  0.78833000  0.84645000  0.34256600  1
  O  O7  1  0.78044000  0.86321500  0.84268400  1
  O  O8  1  0.71081300  0.35528300  0.16829000  1
  O  O9  1  0.69994000  0.34566200  0.66325800  1
  O  O10  1  0.49180100  0.33927800  0.44219500  1
  O  O11  1  0.51663800  0.90822500  0.09592900  1
  O  O12  1  0.48336200  0.90822500  0.59592900  1
  O  O13  1  0.50819900  0.33927800  0.94219500  1
  O  O14  1  0.30006000  0.34566200  0.16325800  1
  O  O15  1  0.28918700  0.35528300  0.66829000  1
loop_
_geom_bond_atom_site_label_1
_geom_bond_atom_site_label_2
_geom_bond_distance
_geom_bond_site_symmetry_2
Li0 O4 1.918082 1_455
Li0 O15 1.940393 1_555
Li0 O1 2.000066 1_545
Li0 O13 2.086722 1_555
Li1 O3 1.918082 1_655
Li1 O8 1.940393 1_555
Li1 O6 2.000066 1_545
Li1 O10 2.086722 1_555
Li2 O5 1.939973 1_655
Li2 O9 2.022712 1_555
Li2 O12 2.033469 1_555
Li2 O7 2.051769 1_555
Li3 O12 2.020841 1_555
Li3 O6 2.053546 1_555
Li3 O10 2.069936 1_555
Li3 O0 2.121052 1_555
Li4 O11 2.020841 1_556
Li4 O1 2.053546 1_555
Li4 O13 2.069936 1_555
Li4 O7 2.121052 1_555
Li5 O2 1.939973 1_455
Li5 O14 2.022712 1_555
Li5 O11 2.033469 1_555
Li5 O0 2.051769 1_555
Co0 O5 1.903679 1_555
Co0 O15 1.922226 1_555
Co0 O1 1.979598 1_555
Co0 O12 1.980927 1_555
Co1 O2 1.903679 1_555
Co1 O8 1.922226 1_555
Co1 O6 1.979598 1_555
Co1 O11 1.980927 1_555
Co2 O4 1.861163 1_555
Co2 O9 1.875570 1_555
Co2 O7 1.955158 1_545
Co2 O13 1.971376 1_555
Co3 O3 1.861163 1_555
Co3 O14 1.875570 1_555
Co3 O0 1.955158 1_545
Co3 O10 1.971376 1_555
O0 Si0 1.676482 1_555
O1 Si1 1.663431 1_455
O2 Si1 1.616796 1_554
O3 Si0 1.655491 1_555
O4 Si1 1.655491 1_555
O5 Si0 1.616796 1_555
O6 Si0 1.663431 1_655
O7 Si1 1.676482 1_555
O8 Si2 1.631000 1_555
O9 Si3 1.658538 1_555
O10 Si3 1.665896 1_555
O11 Si2 1.654650 1_565
O12 Si3 1.654650 1_565
O13 Si2 1.665896 1_556
O14 Si2 1.658538 1_555
O15 Si3 1.631000 1_555
