# generated using pymatgen
data_Co3(OF2)2
_symmetry_space_group_name_H-M   'P 1'
_cell_length_a   4.63595500
_cell_length_b   9.34223050
_cell_length_c   4.62489282
_cell_angle_alpha   90.34912577
_cell_angle_beta   90.00095268
_cell_angle_gamma   90.00073542
_symmetry_Int_Tables_number   1
_chemical_formula_structural   Co3(OF2)2
_chemical_formula_sum   'Co6 O4 F8'
_cell_volume   200.30113027
_cell_formula_units_Z   2
loop_
 _symmetry_equiv_pos_site_id
 _symmetry_equiv_pos_as_xyz
  1  'x, y, z'
loop_
 _atom_site_type_symbol
 _atom_site_label
 _atom_site_symmetry_multiplicity
 _atom_site_fract_x
 _atom_site_fract_y
 _atom_site_fract_z
 _atom_site_occupancy
  Co  Co0  1  0.49999500  0.83334300  0.49999800  1
  Co  Co1  1  0.46348200  0.15940200  0.54083000  1
  Co  Co2  1  0.53655300  0.50725600  0.45915500  1
  Co  Co3  1  0.00000700  0.33334200  0.99999700  1
  Co  Co4  1  0.96346300  0.00727000  0.95909200  1
  Co  Co5  1  0.03650200  0.65939100  0.04089800  1
  O  O0  1  0.81361900  0.50043000  0.19862400  1
  O  O1  1  0.31369200  0.66622500  0.30141200  1
  O  O2  1  0.68629800  0.00044000  0.69859500  1
  O  O3  1  0.18638600  0.16623700  0.80138700  1
  F  F0  1  0.77664800  0.16472800  0.21118200  1
  F  F1  1  0.27662800  0.00197200  0.28862900  1
  F  F2  1  0.72335900  0.66469600  0.71136300  1
  F  F3  1  0.22335900  0.50194700  0.78879300  1
  F  F4  1  0.80894500  0.83351200  0.19341100  1
  F  F5  1  0.30901400  0.33315600  0.30656500  1
  F  F6  1  0.69100100  0.33350800  0.69344800  1
  F  F7  1  0.19104900  0.83314200  0.80662100  1
loop_
_geom_bond_atom_site_label_1
_geom_bond_atom_site_label_2
_geom_bond_distance
_geom_bond_site_symmetry_2
Co0 O2 2.002238 1_565
Co0 O1 2.002368 1_555
Co0 F4 2.015453 1_555
Co0 F7 2.015558 1_555
Co0 F1 2.128025 1_565
Co0 F2 2.128135 1_555
Co1 O3 1.762255 1_555
Co1 O2 1.953976 1_555
Co1 F6 2.059688 1_555
Co1 F1 2.062281 1_555
Co1 F5 2.083999 1_555
Co1 F0 2.106093 1_555
Co2 O0 1.762069 1_555
Co2 O1 1.954098 1_555
Co2 F5 2.059648 1_555
Co2 F2 2.062272 1_555
Co2 F6 2.083991 1_555
Co2 F3 2.106145 1_555
Co3 O0 2.002436 1_456
Co3 O3 2.002506 1_555
Co3 F6 2.015480 1_455
Co3 F5 2.015546 1_556
Co3 F3 2.127467 1_555
Co3 F0 2.127505 1_456
Co4 O2 1.762267 1_555
Co4 O3 1.954162 1_655
Co4 F7 2.059813 1_645
Co4 F0 2.062135 1_556
Co4 F4 2.084237 1_546
Co4 F1 2.105677 1_656
Co5 O1 1.762406 1_555
Co5 O0 1.954057 1_455
Co5 F4 2.059758 1_455
Co5 F3 2.062163 1_554
Co5 F7 2.084130 1_554
Co5 F2 2.105602 1_454
