# generated using pymatgen
data_Li5Cu4(BO3)4
_symmetry_space_group_name_H-M   'P 1'
_cell_length_a   5.16024000
_cell_length_b   5.16929434
_cell_length_c   10.26588308
_cell_angle_alpha   89.96394474
_cell_angle_beta   91.62323094
_cell_angle_gamma   119.75246186
_symmetry_Int_Tables_number   1
_chemical_formula_structural   Li5Cu4(BO3)4
_chemical_formula_sum   'Li5 Cu4 B4 O12'
_cell_volume   237.61819438
_cell_formula_units_Z   1
loop_
 _symmetry_equiv_pos_site_id
 _symmetry_equiv_pos_as_xyz
  1  'x, y, z'
loop_
 _atom_site_type_symbol
 _atom_site_label
 _atom_site_symmetry_multiplicity
 _atom_site_fract_x
 _atom_site_fract_y
 _atom_site_fract_z
 _atom_site_occupancy
  Li  Li0  1  0.33577700  0.29955800  0.33202000  1
  Li  Li1  1  0.33730600  0.33272300  0.92292200  1
  Li  Li2  1  0.68828300  0.66239400  0.15336600  1
  Li  Li3  1  0.65360400  0.63085900  0.52734900  1
  Li  Li4  1  0.62840100  0.66893700  0.71708800  1
  Cu  Cu0  1  0.32178500  0.99663300  0.62820600  1
  Cu  Cu1  1  0.97503700  0.32581300  0.12727600  1
  Cu  Cu2  1  0.03206400  0.67953400  0.88387100  1
  Cu  Cu3  1  0.67668200  0.03674000  0.36836800  1
  B  B0  1  0.65753200  0.01038900  0.88501800  1
  B  B1  1  0.99535000  0.33581300  0.62379400  1
  B  B2  1  0.01800300  0.66137400  0.36643800  1
  B  B3  1  0.34042300  0.99537700  0.12714000  1
  O  O0  1  0.74954000  0.05273900  0.59268600  1
  O  O1  1  0.91900000  0.26363600  0.92700500  1
  O  O2  1  0.41617200  0.04154100  0.83628000  1
  O  O3  1  0.94398600  0.57227300  0.65513200  1
  O  O4  1  0.35705300  0.26771400  0.12760600  1
  O  O5  1  0.28157500  0.38073900  0.62114000  1
  O  O6  1  0.74264400  0.64132900  0.35491500  1
  O  O7  1  0.63982100  0.73835000  0.89018200  1
  O  O8  1  0.04868100  0.41960100  0.32705300  1
  O  O9  1  0.58440400  0.96617000  0.16776100  1
  O  O10  1  0.07859200  0.74399300  0.08744900  1
  O  O11  1  0.26368500  0.91917000  0.41713900  1
loop_
_geom_bond_atom_site_label_1
_geom_bond_atom_site_label_2
_geom_bond_distance
_geom_bond_site_symmetry_2
Li0 O8 1.868307 1_555
Li0 O6 1.968664 1_555
Li0 O11 2.014615 1_545
Li0 O4 2.115239 1_555
Li1 O7 1.930435 1_555
Li1 O2 1.962797 1_555
Li1 O1 2.007155 1_455
Li1 O4 2.135318 1_556
Li2 O9 1.901385 1_555
Li2 O4 1.915171 1_555
Li2 O10 1.981427 1_655
Li2 O6 2.090163 1_555
Li3 O6 1.835451 1_555
Li3 O5 1.980875 1_555
Li3 O0 2.088648 1_565
Li3 O3 2.096762 1_555
Li4 O7 1.806572 1_555
Li4 O5 1.910074 1_555
Li4 O3 2.042776 1_555
Li4 O0 2.183818 1_565
Cu0 O5 2.097289 1_565
Cu0 O3 2.115274 1_455
Cu0 O0 2.121182 1_565
Cu0 O2 2.164104 1_565
Cu0 O11 2.188684 1_555
Cu1 O10 1.997604 1_655
Cu1 O9 2.004831 1_545
Cu1 O1 2.070940 1_554
Cu1 O8 2.088023 1_655
Cu1 O4 2.136220 1_655
Cu2 O1 1.981679 1_455
Cu2 O2 2.010371 1_565
Cu2 O10 2.104622 1_556
Cu2 O7 2.193564 1_455
Cu2 O3 2.391472 1_455
Cu3 O11 1.984049 1_545
Cu3 O8 2.013975 1_655
Cu3 O9 2.091403 1_545
Cu3 O6 2.237497 1_545
Cu3 O0 2.317652 1_555
B0 O7 1.364303 1_545
B0 O1 1.390933 1_555
B0 O2 1.411076 1_555
B1 O5 1.377682 1_655
B1 O0 1.409821 1_555
B1 O3 1.412346 1_555
B2 O6 1.374082 1_455
B2 O11 1.393102 1_555
B2 O8 1.396838 1_555
B3 O4 1.367239 1_565
B3 O10 1.380964 1_555
B3 O9 1.393058 1_555
