# generated using pymatgen
data_Cs2MgH12(SeO7)2
_symmetry_space_group_name_H-M   'P 1'
_cell_length_a   12.97042283
_cell_length_b   6.43989579
_cell_length_c   9.45447886
_cell_angle_alpha   73.93461126
_cell_angle_beta   90.00000000
_cell_angle_gamma   90.00000000
_symmetry_Int_Tables_number   1
_chemical_formula_structural   Cs2MgH12(SeO7)2
_chemical_formula_sum   'Cs4 Mg2 H24 Se4 O28'
_cell_volume   758.87418264
_cell_formula_units_Z   2
loop_
 _symmetry_equiv_pos_site_id
 _symmetry_equiv_pos_as_xyz
  1  'x, y, z'
loop_
 _atom_site_type_symbol
 _atom_site_label
 _atom_site_symmetry_multiplicity
 _atom_site_fract_x
 _atom_site_fract_y
 _atom_site_fract_z
 _atom_site_occupancy
  Cs  Cs0  1  0.35161844  0.65157411  0.13321146  1
  Cs  Cs1  1  0.85161844  0.34842589  0.36678854  1
  Cs  Cs2  1  0.14838156  0.65157411  0.63321146  1
  Cs  Cs3  1  0.64838156  0.34842589  0.86678854  1
  Mg  Mg0  1  -0.00000000  0.00000000  -0.00000000  1
  Mg  Mg1  1  0.50000000  0.00000000  0.50000000  1
  H  H0  1  0.05775809  0.33640240  0.09683302  1
  H  H1  1  0.86443014  0.68382998  0.02391626  1
  H  H2  1  0.40689689  0.07322505  0.23030228  1
  H  H3  1  0.62921535  0.09040173  0.26781855  1
  H  H4  1  0.09487615  0.68516332  0.20406659  1
  H  H5  1  0.82014768  0.99152750  0.14965449  1
  H  H6  1  0.32014768  0.00847250  0.35034551  1
  H  H7  1  0.59487615  0.31483668  0.29593341  1
  H  H8  1  0.12921535  0.90959827  0.23218145  1
  H  H9  1  0.90689689  0.92677495  0.26969772  1
  H  H10  1  0.36443014  0.31617002  0.47608374  1
  H  H11  1  0.55775809  0.66359760  0.40316698  1
  H  H12  1  0.44224191  0.33640240  0.59683302  1
  H  H13  1  0.63556986  0.68382998  0.52391626  1
  H  H14  1  0.09310311  0.07322505  0.73030228  1
  H  H15  1  0.87078465  0.09040173  0.76781855  1
  H  H16  1  0.40512385  0.68516332  0.70406659  1
  H  H17  1  0.67985232  0.99152750  0.64965449  1
  H  H18  1  0.17985232  0.00847250  0.85034551  1
  H  H19  1  0.90512385  0.31483668  0.79593341  1
  H  H20  1  0.37078465  0.90959827  0.73218145  1
  H  H21  1  0.59310311  0.92677495  0.76969772  1
  H  H22  1  0.13556986  0.31617002  0.97608374  1
  H  H23  1  0.94224191  0.66359760  0.90316698  1
  Se  Se0  1  0.64507069  0.74150222  0.10238774  1
  Se  Se1  1  0.14507069  0.25849778  0.39761226  1
  Se  Se2  1  0.85492931  0.74150222  0.60238774  1
  Se  Se3  1  0.35492931  0.25849778  0.89761226  1
  O  O0  1  0.06329780  0.28737943  0.00753285  1
  O  O1  1  0.42776598  0.19468656  0.04645066  1
  O  O2  1  0.89435633  0.00746223  0.16637845  1
  O  O3  1  0.74452750  0.59459701  0.07836371  1
  O  O4  1  0.10687228  0.83998999  0.15714597  1
  O  O5  1  0.68696174  0.96204303  0.14331130  1
  O  O6  1  0.07503457  0.40765205  0.25971468  1
  O  O7  1  0.57503457  0.59234795  0.24028532  1
  O  O8  1  0.18696174  0.03795697  0.35668870  1
  O  O9  1  0.60687228  0.16001001  0.34285403  1
  O  O10  1  0.24452750  0.40540299  0.42163629  1
  O  O11  1  0.39435633  0.99253777  0.33362155  1
  O  O12  1  0.43670220  0.28737943  0.50753285  1
  O  O13  1  0.07223402  0.19468656  0.54645066  1
  O  O14  1  0.92776598  0.80531344  0.45354934  1
  O  O15  1  0.56329780  0.71262057  0.49246715  1
  O  O16  1  0.60564367  0.00746223  0.66637845  1
  O  O17  1  0.75547250  0.59459701  0.57836371  1
  O  O18  1  0.39312772  0.83998999  0.65714597  1
  O  O19  1  0.81303826  0.96204303  0.64331130  1
  O  O20  1  0.42496543  0.40765205  0.75971468  1
  O  O21  1  0.92496543  0.59234795  0.74028532  1
  O  O22  1  0.31303826  0.03795697  0.85668870  1
  O  O23  1  0.89312772  0.16001001  0.84285403  1
  O  O24  1  0.25547250  0.40540299  0.92163629  1
  O  O25  1  0.10564367  0.99253777  0.83362155  1
  O  O26  1  0.57223402  0.80531344  0.95354934  1
  O  O27  1  0.93670220  0.71262057  0.99246715  1
loop_
_geom_bond_atom_site_label_1
_geom_bond_atom_site_label_2
_geom_bond_distance
_geom_bond_site_symmetry_2
Cs0 O7 3.058404 1_555
Cs0 O10 3.079929 1_555
Cs0 O22 3.110688 1_564
Cs0 O24 3.134460 1_554
Cs0 H2 3.179556 1_565
Cs0 O11 3.319872 1_555
Cs0 O26 3.335083 1_554
Cs0 H10 3.365444 1_555
Cs0 O1 3.411938 1_555
Cs0 H4 3.415410 1_555
Cs0 O4 3.428216 1_555
Cs0 O1 3.506217 1_565
Cs1 O6 3.058404 1_655
Cs1 O3 3.079929 1_555
Cs1 O19 3.110688 1_545
Cs1 O17 3.134460 1_555
Cs1 H9 3.179556 1_545
Cs1 O2 3.319872 1_555
Cs1 O13 3.335083 1_655
Cs1 H1 3.365444 1_555
Cs1 O14 3.411938 1_555
Cs1 H7 3.415410 1_555
Cs1 O9 3.428216 1_555
Cs1 O14 3.506217 1_545
Cs2 O21 3.058404 1_455
Cs2 O24 3.079929 1_555
Cs2 O8 3.110688 1_565
Cs2 O10 3.134460 1_555
Cs2 H14 3.179556 1_565
Cs2 O25 3.319872 1_555
Cs2 O14 3.335083 1_455
Cs2 H22 3.365444 1_555
Cs2 O13 3.411938 1_555
Cs2 H16 3.415410 1_555
Cs2 O18 3.428216 1_555
Cs2 O13 3.506217 1_565
Cs3 O20 3.058404 1_555
Cs3 O17 3.079929 1_555
Cs3 O5 3.110688 1_546
Cs3 O3 3.134460 1_556
Cs3 H21 3.179556 1_545
Cs3 O16 3.319872 1_555
Cs3 O1 3.335083 1_556
Cs3 H13 3.365444 1_555
Cs3 O26 3.411938 1_555
Cs3 H19 3.415410 1_555
Cs3 O23 3.428216 1_555
Cs3 O26 3.506217 1_545
Mg0 O0 2.043802 1_555
Mg0 O27 2.043802 1_444
Mg0 O23 2.084076 1_454
Mg0 O4 2.084076 1_545
Mg0 O25 2.096690 1_544
Mg0 O2 2.096690 1_455
Mg1 O15 2.043802 1_545
Mg1 O12 2.043802 1_555
Mg1 O18 2.084076 1_545
Mg1 O9 2.084076 1_555
Mg1 O11 2.096690 1_545
Mg1 O16 2.096690 1_555
H0 O0 0.982433 1_555
H0 O6 1.738766 1_555
H1 O27 0.985388 1_554
H1 O3 1.688224 1_555
H2 O11 0.984748 1_545
H3 O9 0.981946 1_555
H4 O4 0.985058 1_555
H4 O6 1.736812 1_555
H5 O2 0.985369 1_565
H6 O11 0.985369 1_545
H7 O9 0.985058 1_555
H7 O7 1.736812 1_555
H8 O4 0.981946 1_555
H9 O2 0.984748 1_565
H10 O12 0.985388 1_555
H10 O10 1.688224 1_555
H11 O15 0.982433 1_555
H11 O7 1.738766 1_555
H12 O12 0.982433 1_555
H12 O20 1.738766 1_555
H13 O15 0.985388 1_555
H13 O17 1.688224 1_555
H14 O25 0.984748 1_545
H15 O23 0.981946 1_555
H16 O18 0.985058 1_555
H16 O20 1.736812 1_555
H17 O16 0.985369 1_565
H18 O25 0.985369 1_545
H19 O23 0.985058 1_555
H19 O21 1.736812 1_555
H20 O18 0.981946 1_555
H21 O16 0.984748 1_565
H22 O0 0.985388 1_556
H22 O24 1.688224 1_555
H23 O27 0.982433 1_555
H23 O21 1.738766 1_555
O1 Se3 1.649697 1_554
O3 Se0 1.652159 1_555
O5 Se0 1.663190 1_555
O6 Se1 1.659661 1_555
O7 Se0 1.659661 1_555
O8 Se1 1.663190 1_555
O10 Se1 1.652159 1_555
O13 Se1 1.649697 1_555
O14 Se2 1.649697 1_555
O17 Se2 1.652159 1_555
O19 Se2 1.663190 1_555
O20 Se3 1.659661 1_555
O21 Se2 1.659661 1_555
O22 Se3 1.663190 1_555
O24 Se3 1.652159 1_555
O26 Se0 1.649697 1_556
