# generated using pymatgen
data_Li5(CoO3)2
_symmetry_space_group_name_H-M   'P 1'
_cell_length_a   8.92951969
_cell_length_b   8.92951969
_cell_length_c   3.49137400
_cell_angle_alpha   90.00000000
_cell_angle_beta   90.00000000
_cell_angle_gamma   90.91872065
_symmetry_Int_Tables_number   1
_chemical_formula_structural   Li5(CoO3)2
_chemical_formula_sum   'Li10 Co4 O12'
_cell_volume   278.35353356
_cell_formula_units_Z   2
loop_
 _symmetry_equiv_pos_site_id
 _symmetry_equiv_pos_as_xyz
  1  'x, y, z'
loop_
 _atom_site_type_symbol
 _atom_site_label
 _atom_site_symmetry_multiplicity
 _atom_site_fract_x
 _atom_site_fract_y
 _atom_site_fract_z
 _atom_site_occupancy
  Li  Li0  1  0.10333600  0.37256200  0.50000000  1
  Li  Li1  1  0.17933800  0.61168700  0.00000000  1
  Li  Li2  1  0.17051600  0.17051600  0.00000000  1
  Li  Li3  1  0.37256200  0.10333600  0.50000000  1
  Li  Li4  1  0.38831300  0.82066200  0.00000000  1
  Li  Li5  1  0.61168700  0.17933800  0.00000000  1
  Li  Li6  1  0.62743800  0.89666400  0.50000000  1
  Li  Li7  1  0.82948400  0.82948400  0.00000000  1
  Li  Li8  1  0.82066200  0.38831300  0.00000000  1
  Li  Li9  1  0.89666400  0.62743800  0.50000000  1
  Co  Co0  1  0.11518300  0.88481700  0.50000000  1
  Co  Co1  1  0.38937500  0.38937500  0.00000000  1
  Co  Co2  1  0.61062500  0.61062500  0.00000000  1
  Co  Co3  1  0.88481700  0.11518300  0.50000000  1
  O  O0  1  0.09567900  0.09567900  0.50000000  1
  O  O1  1  0.10060700  0.68882400  0.50000000  1
  O  O2  1  0.18954700  0.39309600  0.00000000  1
  O  O3  1  0.31117600  0.89939300  0.50000000  1
  O  O4  1  0.39309600  0.18954700  0.00000000  1
  O  O5  1  0.40527700  0.59472300  0.00000000  1
  O  O6  1  0.59472300  0.40527700  0.00000000  1
  O  O7  1  0.60690400  0.81045300  0.00000000  1
  O  O8  1  0.68882400  0.10060700  0.50000000  1
  O  O9  1  0.81045300  0.60690400  0.00000000  1
  O  O10  1  0.89939300  0.31117600  0.50000000  1
  O  O11  1  0.90432100  0.90432100  0.50000000  1
loop_
_geom_bond_atom_site_label_1
_geom_bond_atom_site_label_2
_geom_bond_distance
_geom_bond_site_symmetry_2
Li0 O10 1.893385 1_455
Li0 O2 1.915501 1_555
Li0 O2 1.915501 1_556
Li0 O0 2.472281 1_555
Li1 O2 1.955500 1_555
Li1 O1 2.007895 1_554
Li1 O1 2.007895 1_555
Li1 O5 2.025626 1_555
Li2 O0 1.981475 1_555
Li2 O0 1.981475 1_554
Li2 O4 1.992068 1_555
Li2 O2 1.992068 1_555
Li3 O3 1.893385 1_545
Li3 O4 1.915501 1_556
Li3 O4 1.915501 1_555
Li3 O0 2.472281 1_555
Li4 O7 1.955500 1_555
Li4 O3 2.007895 1_554
Li4 O3 2.007895 1_555
Li4 O5 2.025626 1_555
Li5 O4 1.955500 1_555
Li5 O8 2.007895 1_555
Li5 O8 2.007895 1_554
Li5 O6 2.025626 1_555
Li6 O8 1.893385 1_565
Li6 O7 1.915501 1_555
Li6 O7 1.915501 1_556
Li6 O11 2.472281 1_555
Li7 O11 1.981475 1_555
Li7 O11 1.981475 1_554
Li7 O7 1.992068 1_555
Li7 O9 1.992068 1_555
Li8 O9 1.955500 1_555
Li8 O10 2.007895 1_555
Li8 O10 2.007895 1_554
Li8 O6 2.025626 1_555
Li9 O1 1.893385 1_655
Li9 O9 1.915501 1_556
Li9 O9 1.915501 1_555
Li9 O11 2.472281 1_555
Co0 O1 1.752874 1_555
Co0 O3 1.752874 1_555
Co0 O0 1.893712 1_565
Co0 O11 1.893712 1_455
Co1 O2 1.785210 1_555
Co1 O4 1.785210 1_555
Co1 O5 1.836877 1_555
Co1 O6 1.836877 1_555
Co2 O9 1.785210 1_555
Co2 O7 1.785210 1_555
Co2 O6 1.836877 1_555
Co2 O5 1.836877 1_555
Co3 O8 1.752874 1_555
Co3 O10 1.752874 1_555
Co3 O0 1.893712 1_655
Co3 O11 1.893712 1_545
