# generated using pymatgen
data_LiV2P4(HO8)2
_symmetry_space_group_name_H-M   'P 1'
_cell_length_a   9.28607461
_cell_length_b   9.29850633
_cell_length_c   7.76431842
_cell_angle_alpha   78.09188298
_cell_angle_beta   78.07877427
_cell_angle_gamma   116.56680101
_symmetry_Int_Tables_number   1
_chemical_formula_structural   LiV2P4(HO8)2
_chemical_formula_sum   'Li2 V4 P8 H4 O32'
_cell_volume   551.46185376
_cell_formula_units_Z   2
loop_
 _symmetry_equiv_pos_site_id
 _symmetry_equiv_pos_as_xyz
  1  'x, y, z'
loop_
 _atom_site_type_symbol
 _atom_site_label
 _atom_site_symmetry_multiplicity
 _atom_site_fract_x
 _atom_site_fract_y
 _atom_site_fract_z
 _atom_site_occupancy
  Li  Li0  1  0.46198400  0.09212500  0.35728500  1
  Li  Li1  1  0.83924900  0.70969000  0.85275300  1
  V  V0  1  0.24369800  0.25449200  0.49973500  1
  V  V1  1  0.49875300  0.99926600  0.99008100  1
  V  V2  1  0.00314700  0.49502500  0.00333500  1
  V  V3  1  0.74940000  0.75123600  0.48792100  1
  P  P0  1  0.25157000  0.60754600  0.26885900  1
  P  P1  1  0.75615900  0.10603300  0.26524200  1
  P  P2  1  0.64610400  0.48978300  0.23167000  1
  P  P3  1  0.14547300  0.00217700  0.22905000  1
  P  P4  1  0.35454700  0.50218300  0.76685400  1
  P  P5  1  0.85423000  0.00793300  0.76333200  1
  P  P6  1  0.75059600  0.39758700  0.73282800  1
  P  P7  1  0.23767200  0.89726100  0.73292600  1
  H  H0  1  0.75667900  0.26479300  0.51042400  1
  H  H1  1  0.24608400  0.74069600  0.49254700  1
  H  H2  1  0.48264600  0.49211200  0.98902100  1
  H  H3  1  0.00022500  0.00035000  0.99973000  1
  O  O0  1  0.11346000  0.06249100  0.05205200  1
  O  O1  1  0.17653800  0.12758400  0.34007600  1
  O  O2  1  0.00335900  0.18362400  0.62995200  1
  O  O3  1  0.21861000  0.05370300  0.68126300  1
  O  O4  1  0.62490400  0.06907700  0.15817400  1
  O  O5  1  0.12476600  0.57140200  0.15933800  1
  O  O6  1  0.28126800  0.45841900  0.31740500  1
  O  O7  1  0.48634600  0.31559100  0.36207900  1
  O  O8  1  0.67990000  0.13187000  0.43956600  1
  O  O9  1  0.18055600  0.63890100  0.44377300  1
  O  O10  1  0.31811500  0.37691700  0.65615900  1
  O  O11  1  0.20631200  0.53305700  0.81830800  1
  O  O12  1  0.68911500  0.02164800  0.82429100  1
  O  O13  1  0.62371700  0.57011900  0.05658700  1
  O  O14  1  0.93265300  0.25495800  0.13107700  1
  O  O15  1  0.42450000  0.77161500  0.13195500  1
  O  O16  1  0.57455900  0.23628400  0.86385200  1
  O  O17  1  0.06317100  0.73797100  0.86326600  1
  O  O18  1  0.38257100  0.42566700  0.94298800  1
  O  O19  1  0.80191100  0.46890100  0.18421200  1
  O  O20  1  0.31033100  0.98901200  0.18310800  1
  O  O21  1  0.67854100  0.61359200  0.35241800  1
  O  O22  1  0.81943700  0.37101700  0.55315200  1
  O  O23  1  0.31926800  0.87442200  0.55852900  1
  O  O24  1  0.52015500  0.67457600  0.63373900  1
  O  O25  1  0.73742000  0.56117100  0.68404000  1
  O  O26  1  0.87494400  0.42772700  0.84434200  1
  O  O27  1  0.36147100  0.92963700  0.85356500  1
  O  O28  1  0.77097600  0.94064900  0.32496000  1
  O  O29  1  0.98538500  0.82603000  0.36674900  1
  O  O30  1  0.81809300  0.87504900  0.65989400  1
  O  O31  1  0.88072000  0.93207300  0.93939400  1
loop_
_geom_bond_atom_site_label_1
_geom_bond_atom_site_label_2
_geom_bond_distance
_geom_bond_site_symmetry_2
Li0 O23 1.932651 1_545
Li0 O7 1.996285 1_555
Li0 O4 2.045786 1_555
Li0 O8 2.145273 1_555
Li0 O20 2.201257 1_545
Li1 O13 1.927472 1_556
Li1 O17 1.997350 1_655
Li1 O30 2.021534 1_555
Li1 O25 2.146506 1_555
Li1 O31 2.201262 1_555
H0 O22 1.060900 1_555
H0 O8 1.411775 1_555
H1 O9 1.066563 1_555
H1 O23 1.386120 1_555
H2 O18 1.043002 1_555
H2 O13 1.452047 1_556
H3 O0 1.155188 1_556
H3 O31 1.249541 1_445
O0 P3 1.513723 1_555
O1 P3 1.550097 1_555
O1 V0 1.892879 1_555
O2 P5 1.531265 1_455
O2 V0 1.978570 1_555
O3 P7 1.525507 1_545
O3 V0 1.978872 1_555
O4 P1 1.567352 1_555
O4 V1 1.948872 1_544
O5 P0 1.549264 1_555
O5 V2 1.857335 1_555
O6 P0 1.519952 1_555
O6 V0 1.953935 1_555
O7 P2 1.550109 1_555
O7 V0 2.037559 1_555
O8 P1 1.510484 1_555
O9 P0 1.526322 1_555
O10 P4 1.546176 1_555
O10 V0 1.860686 1_555
O11 P4 1.520015 1_555
O11 V2 1.954999 1_556
O12 P5 1.578353 1_555
O12 V1 1.856185 1_545
O13 P2 1.511882 1_555
O14 P1 1.535623 1_555
O14 V2 1.976421 1_655
O15 P0 1.571710 1_555
O15 V1 1.894229 1_554
O16 P6 1.564263 1_555
O16 V1 1.936278 1_545
O17 P7 1.549463 1_555
O17 V2 2.050867 1_556
O18 P4 1.534683 1_555
O19 P2 1.525574 1_555
O19 V2 1.972888 1_655
O20 P3 1.563930 1_565
O20 V1 2.006278 1_554
O21 P2 1.595914 1_555
O21 V3 1.807308 1_555
O22 P6 1.526750 1_555
O23 P7 1.513761 1_555
O24 P4 1.567601 1_555
O24 V3 1.906717 1_555
O25 P6 1.555635 1_555
O25 V3 2.024366 1_555
O26 P6 1.544430 1_555
O26 V2 1.895360 1_656
O27 P7 1.594134 1_555
O27 V1 1.808592 1_555
O28 P1 1.587509 1_565
O28 V3 1.844741 1_555
O29 P3 1.574317 1_665
O29 V3 1.919880 1_555
O30 P5 1.560247 1_565
O30 V3 1.960772 1_555
O31 P5 1.524127 1_565
