# generated using pymatgen
data_Ni3OF5
_symmetry_space_group_name_H-M   'P 1'
_cell_length_a   5.60578400
_cell_length_b   5.61879997
_cell_length_c   7.37012118
_cell_angle_alpha   71.87204358
_cell_angle_beta   71.90181515
_cell_angle_gamma   71.59610753
_symmetry_Int_Tables_number   1
_chemical_formula_structural   Ni3OF5
_chemical_formula_sum   'Ni6 O2 F10'
_cell_volume   203.44553215
_cell_formula_units_Z   2
loop_
 _symmetry_equiv_pos_site_id
 _symmetry_equiv_pos_as_xyz
  1  'x, y, z'
loop_
 _atom_site_type_symbol
 _atom_site_label
 _atom_site_symmetry_multiplicity
 _atom_site_fract_x
 _atom_site_fract_y
 _atom_site_fract_z
 _atom_site_occupancy
  Ni  Ni0  1  0.50000000  0.50000000  0.50000000  1
  Ni  Ni1  1  0.50000000  0.50000000  0.00000000  1
  Ni  Ni2  1  0.18067400  0.15075900  0.33247600  1
  Ni  Ni3  1  0.17460200  0.16879500  0.82872300  1
  Ni  Ni4  1  0.82539800  0.83120500  0.17127700  1
  Ni  Ni5  1  0.81932600  0.84924100  0.66752400  1
  O  O0  1  0.47371600  0.85527000  0.33487300  1
  O  O1  1  0.52628400  0.14473000  0.66512700  1
  F  F0  1  0.19271700  0.80437900  0.00368300  1
  F  F1  1  0.87303200  0.45897900  0.33304200  1
  F  F2  1  0.06664600  0.06726100  0.63096800  1
  F  F3  1  0.40114500  0.39528700  0.29714400  1
  F  F4  1  0.73051400  0.73315700  0.96544400  1
  F  F5  1  0.59885500  0.60471300  0.70285600  1
  F  F6  1  0.26948600  0.26684300  0.03455600  1
  F  F7  1  0.93335400  0.93273900  0.36903200  1
  F  F8  1  0.12696800  0.54102100  0.66695800  1
  F  F9  1  0.80728300  0.19562100  0.99631700  1
loop_
_geom_bond_atom_site_label_1
_geom_bond_atom_site_label_2
_geom_bond_distance
_geom_bond_site_symmetry_2
Ni0 O1 1.975229 1_555
Ni0 O0 1.975229 1_555
Ni2 O0 1.932114 1_545
Ni3 O1 1.953198 1_555
Ni4 O0 1.953198 1_555
Ni5 O1 1.932114 1_565
F0 Ni1 2.008120 1_555
F0 Ni4 2.031757 1_455
F0 Ni3 2.042719 1_564
F1 Ni2 2.021772 1_655
F1 Ni4 2.039713 1_555
F1 Ni0 2.052702 1_555
F2 Ni3 2.024692 1_555
F2 Ni5 2.032328 1_445
F2 Ni2 2.035138 1_555
F3 Ni1 2.024690 1_555
F3 Ni2 2.032896 1_555
F3 Ni0 2.038753 1_555
F4 Ni4 2.023404 1_556
F4 Ni1 2.026764 1_556
F4 Ni5 2.032018 1_555
F5 Ni1 2.024690 1_556
F5 Ni5 2.032896 1_555
F5 Ni0 2.038753 1_555
F6 Ni3 2.023404 1_554
F6 Ni1 2.026764 1_555
F6 Ni2 2.032018 1_555
F7 Ni4 2.024692 1_555
F7 Ni2 2.032328 1_665
F7 Ni5 2.035138 1_555
F8 Ni5 2.021772 1_455
F8 Ni3 2.039713 1_555
F8 Ni0 2.052702 1_555
F9 Ni1 2.008120 1_556
F9 Ni3 2.031757 1_655
F9 Ni4 2.042719 1_546
