# generated using pymatgen
data_Li3Mn2(CoO4)2
_symmetry_space_group_name_H-M   'P 1'
_cell_length_a   5.79480100
_cell_length_b   5.80973247
_cell_length_c   5.85429586
_cell_angle_alpha   119.54427468
_cell_angle_beta   90.96421800
_cell_angle_gamma   118.07145026
_symmetry_Int_Tables_number   1
_chemical_formula_structural   Li3Mn2(CoO4)2
_chemical_formula_sum   'Li3 Mn2 Co2 O8'
_cell_volume   143.12276109
_cell_formula_units_Z   1
loop_
 _symmetry_equiv_pos_site_id
 _symmetry_equiv_pos_as_xyz
  1  'x, y, z'
loop_
 _atom_site_type_symbol
 _atom_site_label
 _atom_site_symmetry_multiplicity
 _atom_site_fract_x
 _atom_site_fract_y
 _atom_site_fract_z
 _atom_site_occupancy
  Li  Li0  1  0.00000000  0.00000000  0.50000000  1
  Li  Li1  1  0.50000000  0.50000000  0.00000000  1
  Li  Li2  1  0.50000000  0.50000000  0.50000000  1
  Mn  Mn0  1  0.00000000  0.50000000  0.00000000  1
  Mn  Mn1  1  0.50000000  0.00000000  0.00000000  1
  Co  Co0  1  0.00000000  0.00000000  0.00000000  1
  Co  Co1  1  0.00000000  0.50000000  0.50000000  1
  O  O0  1  0.76889900  0.55868100  0.23461000  1
  O  O1  1  0.77347600  0.02746600  0.24352900  1
  O  O2  1  0.78453400  0.98532700  0.77707800  1
  O  O3  1  0.77141800  0.45669500  0.78896000  1
  O  O4  1  0.22858200  0.54330500  0.21104000  1
  O  O5  1  0.21546600  0.01467300  0.22292200  1
  O  O6  1  0.22652400  0.97253400  0.75647100  1
  O  O7  1  0.23110100  0.44131900  0.76539000  1
loop_
_geom_bond_atom_site_label_1
_geom_bond_atom_site_label_2
_geom_bond_distance
_geom_bond_site_symmetry_2
Li0 O7 1.884427 1_555
Li0 O0 1.884427 1_445
Li0 O5 2.074074 1_555
Li0 O2 2.074074 1_445
Li0 O1 2.090454 1_455
Li0 O6 2.090454 1_545
Li1 O7 1.843076 1_554
Li1 O0 1.843076 1_555
Li1 O4 2.048108 1_555
Li1 O3 2.048108 1_554
Li1 O6 2.231502 1_544
Li1 O1 2.231502 1_565
Li2 O5 2.079442 1_555
Li2 O2 2.079442 1_555
Li2 O0 2.249898 1_555
Li2 O7 2.249898 1_555
Li2 O3 2.470089 1_555
Li2 O4 2.470089 1_555
Mn0 O4 1.633708 1_555
Mn0 O3 1.633708 1_454
Mn0 O7 1.955988 1_554
Mn0 O0 1.955988 1_455
Mn0 O5 2.187695 1_565
Mn0 O2 2.187695 1_444
Mn1 O6 2.007751 1_544
Mn1 O1 2.007751 1_555
Mn1 O2 2.126973 1_544
Mn1 O5 2.126973 1_555
Mn1 O7 2.370898 1_544
Mn1 O0 2.370898 1_555
Co0 O2 1.733394 1_444
Co0 O5 1.733394 1_555
Co0 O1 1.953689 1_455
Co0 O6 1.953689 1_544
Co0 O3 2.325566 1_444
Co0 O4 2.325566 1_555
Co1 O6 1.997797 1_555
Co1 O1 1.997797 1_455
Co1 O3 2.204776 1_455
Co1 O4 2.204776 1_555
Co1 O0 2.281570 1_455
Co1 O7 2.281570 1_555
