# generated using pymatgen
data_FeP2O7
_symmetry_space_group_name_H-M   'P 1'
_cell_length_a   5.24319900
_cell_length_b   8.34487900
_cell_length_c   13.68062103
_cell_angle_alpha   70.44504546
_cell_angle_beta   90.00000000
_cell_angle_gamma   90.00000000
_symmetry_Int_Tables_number   1
_chemical_formula_structural   FeP2O7
_chemical_formula_sum   'Fe4 P8 O28'
_cell_volume   564.05443340
_cell_formula_units_Z   4
loop_
 _symmetry_equiv_pos_site_id
 _symmetry_equiv_pos_as_xyz
  1  'x, y, z'
loop_
 _atom_site_type_symbol
 _atom_site_label
 _atom_site_symmetry_multiplicity
 _atom_site_fract_x
 _atom_site_fract_y
 _atom_site_fract_z
 _atom_site_occupancy
  Fe  Fe0  1  0.25142800  0.26750100  0.14319100  1
  Fe  Fe1  1  0.24857200  0.26750100  0.64319100  1
  Fe  Fe2  1  0.75142800  0.73249900  0.35680900  1
  Fe  Fe3  1  0.74857200  0.73249900  0.85680900  1
  P  P0  1  0.72966200  0.17069900  0.30273200  1
  P  P1  1  0.26193500  0.69754600  0.51997200  1
  P  P2  1  0.76193500  0.30245400  0.98002800  1
  P  P3  1  0.77033800  0.17069900  0.80273200  1
  P  P4  1  0.22966200  0.82930100  0.19726800  1
  P  P5  1  0.23806500  0.69754600  0.01997200  1
  P  P6  1  0.73806500  0.30245400  0.48002800  1
  P  P7  1  0.27033800  0.82930100  0.69726800  1
  O  O0  1  0.22682900  0.83160300  0.58063300  1
  O  O1  1  0.52805400  0.74145700  0.73298100  1
  O  O2  1  0.05075600  0.73137800  0.76434200  1
  O  O3  1  0.71239500  0.47987700  0.90312700  1
  O  O4  1  0.53782100  0.71579400  0.48122400  1
  O  O5  1  0.03782100  0.28420600  0.01877600  1
  O  O6  1  0.21239500  0.52012300  0.59687300  1
  O  O7  1  0.57004800  0.24783900  0.06770600  1
  O  O8  1  0.72336000  0.98516300  0.31017800  1
  O  O9  1  0.55075600  0.26862200  0.73565800  1
  O  O10  1  0.22336000  0.01483700  0.18982200  1
  O  O11  1  0.02805400  0.25854300  0.76701900  1
  O  O12  1  0.72682900  0.16839700  0.91936700  1
  O  O13  1  0.07004800  0.75216100  0.43229400  1
  O  O14  1  0.92995200  0.24783900  0.56770600  1
  O  O15  1  0.27317100  0.83160300  0.08063300  1
  O  O16  1  0.97194600  0.74145700  0.23298100  1
  O  O17  1  0.77664000  0.98516300  0.81017800  1
  O  O18  1  0.44924400  0.73137800  0.26434200  1
  O  O19  1  0.27664000  0.01483700  0.68982200  1
  O  O20  1  0.42995200  0.75216100  0.93229400  1
  O  O21  1  0.78760500  0.47987700  0.40312700  1
  O  O22  1  0.96217900  0.71579400  0.98122400  1
  O  O23  1  0.46217900  0.28420600  0.51877600  1
  O  O24  1  0.28760500  0.52012300  0.09687300  1
  O  O25  1  0.94924400  0.26862200  0.23565800  1
  O  O26  1  0.47194600  0.25854300  0.26701900  1
  O  O27  1  0.77317100  0.16839700  0.41936700  1
loop_
_geom_bond_atom_site_label_1
_geom_bond_atom_site_label_2
_geom_bond_distance
_geom_bond_site_symmetry_2
Fe0 O10 1.993432 1_555
Fe0 O24 1.996839 1_555
Fe0 O7 1.999411 1_555
Fe0 O5 2.003003 1_555
Fe0 O25 2.029435 1_455
Fe0 O26 2.031611 1_555
Fe1 O19 1.993432 1_555
Fe1 O6 1.996839 1_555
Fe1 O14 1.999411 1_455
Fe1 O23 2.003003 1_555
Fe1 O9 2.029435 1_555
Fe1 O11 2.031611 1_555
Fe2 O8 1.993432 1_555
Fe2 O21 1.996839 1_555
Fe2 O13 1.999411 1_655
Fe2 O4 2.003003 1_555
Fe2 O18 2.029435 1_555
Fe2 O16 2.031611 1_555
Fe3 O17 1.993432 1_555
Fe3 O3 1.996839 1_555
Fe3 O20 1.999411 1_555
Fe3 O22 2.003003 1_555
Fe3 O2 2.029435 1_655
Fe3 O1 2.031611 1_555
O0 P7 1.605601 1_555
O0 P1 1.611063 1_555
O1 P7 1.536947 1_555
O2 P7 1.527522 1_555
O3 P2 1.524357 1_555
O4 P1 1.530552 1_555
O5 P2 1.530552 1_454
O6 P1 1.524357 1_555
O7 P2 1.514191 1_554
O8 P0 1.517579 1_565
O9 P3 1.527522 1_555
O10 P4 1.517579 1_545
O11 P3 1.536947 1_455
O12 P3 1.605601 1_555
O12 P2 1.611063 1_555
O13 P1 1.514191 1_555
O14 P6 1.514191 1_555
O15 P4 1.605601 1_555
O15 P5 1.611063 1_555
O16 P4 1.536947 1_655
O17 P3 1.517579 1_565
O18 P4 1.527522 1_555
O19 P7 1.517579 1_545
O20 P5 1.514191 1_556
O21 P6 1.524357 1_555
O22 P5 1.530552 1_656
O23 P6 1.530552 1_555
O24 P5 1.524357 1_555
O25 P0 1.527522 1_555
O26 P0 1.536947 1_555
O27 P0 1.605601 1_555
O27 P6 1.611063 1_555
