# generated using pymatgen
data_Fe2O3F
_symmetry_space_group_name_H-M   'P 1'
_cell_length_a   9.84472142
_cell_length_b   9.84472142
_cell_length_c   4.68803211
_cell_angle_alpha   86.11415219
_cell_angle_beta   86.11415219
_cell_angle_gamma   35.52733982
_symmetry_Int_Tables_number   1
_chemical_formula_structural   Fe2O3F
_chemical_formula_sum   'Fe8 O12 F4'
_cell_volume   263.35370763
_cell_formula_units_Z   4
loop_
 _symmetry_equiv_pos_site_id
 _symmetry_equiv_pos_as_xyz
  1  'x, y, z'
loop_
 _atom_site_type_symbol
 _atom_site_label
 _atom_site_symmetry_multiplicity
 _atom_site_fract_x
 _atom_site_fract_y
 _atom_site_fract_z
 _atom_site_occupancy
  Fe  Fe0  1  0.74124400  0.74124400  0.46545700  1
  Fe  Fe1  1  0.50000000  0.50000000  0.50000000  1
  Fe  Fe2  1  0.00000000  0.00000000  0.50000000  1
  Fe  Fe3  1  0.25875600  0.25875600  0.53454300  1
  Fe  Fe4  1  0.37046300  0.88053500  0.99948800  1
  Fe  Fe5  1  0.11946500  0.62953700  0.00051200  1
  Fe  Fe6  1  0.88053500  0.37046300  0.99948800  1
  Fe  Fe7  1  0.62953700  0.11946500  0.00051200  1
  O  O0  1  0.33127400  0.33127400  0.82189700  1
  O  O1  1  0.08025700  0.08025700  0.82077700  1
  O  O2  1  0.45146600  0.95193300  0.69256200  1
  O  O3  1  0.70122900  0.20196000  0.69382200  1
  O  O4  1  0.95193300  0.45146600  0.69256200  1
  O  O5  1  0.20196000  0.70122900  0.69382200  1
  O  O6  1  0.79804000  0.29877100  0.30617800  1
  O  O7  1  0.29877100  0.79804000  0.30617800  1
  O  O8  1  0.04806700  0.54853400  0.30743800  1
  O  O9  1  0.54853400  0.04806700  0.30743800  1
  O  O10  1  0.91974300  0.91974300  0.17922300  1
  O  O11  1  0.66872600  0.66872600  0.17810300  1
  F  F0  1  0.82355900  0.82355900  0.79759000  1
  F  F1  1  0.57460100  0.57460100  0.79997800  1
  F  F2  1  0.42539900  0.42539900  0.20002200  1
  F  F3  1  0.17644100  0.17644100  0.20241000  1
loop_
_geom_bond_atom_site_label_1
_geom_bond_atom_site_label_2
_geom_bond_distance
_geom_bond_site_symmetry_2
Fe0 O2 1.957169 1_555
Fe0 O4 1.957169 1_555
Fe0 O9 1.957464 1_565
Fe0 O8 1.957464 1_655
Fe0 O11 1.981012 1_555
Fe1 O5 1.944425 1_555
Fe1 O3 1.944425 1_555
Fe1 O6 1.944425 1_555
Fe1 O7 1.944425 1_555
Fe2 O7 1.947813 1_545
Fe2 O6 1.947813 1_455
Fe2 O5 1.947813 1_545
Fe2 O3 1.947813 1_455
Fe2 O1 2.201860 1_555
Fe2 O10 2.201860 1_445
Fe3 O9 1.957169 1_555
Fe3 O8 1.957169 1_555
Fe3 O2 1.957464 1_545
Fe3 O4 1.957464 1_455
Fe3 O0 1.981012 1_555
Fe4 O1 1.920438 1_565
Fe4 O11 1.949825 1_556
Fe4 O2 1.954511 1_555
Fe4 O7 1.965217 1_556
Fe5 O10 1.920438 1_455
Fe5 O0 1.949825 1_554
Fe5 O8 1.954511 1_555
Fe5 O5 1.965217 1_554
Fe6 O1 1.920438 1_655
Fe6 O11 1.949825 1_556
Fe6 O4 1.954511 1_555
Fe6 O6 1.965217 1_556
Fe7 O10 1.920438 1_545
Fe7 O0 1.949825 1_554
Fe7 O9 1.954511 1_555
Fe7 O3 1.965217 1_554
F0 Fe5 2.027826 1_656
F0 Fe7 2.027826 1_566
F0 Fe0 2.269081 1_555
F1 Fe1 2.052894 1_555
F1 Fe4 2.063920 1_555
F1 Fe6 2.063920 1_555
F2 Fe1 2.052894 1_555
F2 Fe7 2.063920 1_555
F2 Fe5 2.063920 1_555
F3 Fe4 2.027826 1_544
F3 Fe6 2.027826 1_454
F3 Fe3 2.269081 1_555
