# generated using pymatgen
data_Li8Mn7Fe(BO3)8
_symmetry_space_group_name_H-M   'P 1'
_cell_length_a   6.06556600
_cell_length_b   8.30142503
_cell_length_c   10.50096864
_cell_angle_alpha   90.86111448
_cell_angle_beta   90.66410991
_cell_angle_gamma   103.47123206
_symmetry_Int_Tables_number   1
_chemical_formula_structural   Li8Mn7Fe(BO3)8
_chemical_formula_sum   'Li8 Mn7 Fe1 B8 O24'
_cell_volume   514.08601380
_cell_formula_units_Z   1
loop_
 _symmetry_equiv_pos_site_id
 _symmetry_equiv_pos_as_xyz
  1  'x, y, z'
loop_
 _atom_site_type_symbol
 _atom_site_label
 _atom_site_symmetry_multiplicity
 _atom_site_fract_x
 _atom_site_fract_y
 _atom_site_fract_z
 _atom_site_occupancy
  Li  Li0  1  0.95433600  0.28170500  0.32515600  1
  Li  Li1  1  0.95254000  0.28314800  0.82553900  1
  Li  Li2  1  0.54700400  0.21898900  0.42466300  1
  Li  Li3  1  0.54593400  0.21858500  0.92380700  1
  Li  Li4  1  0.45430300  0.78138800  0.07482300  1
  Li  Li5  1  0.45381400  0.78167800  0.57541100  1
  Li  Li6  1  0.04645900  0.71872500  0.17452300  1
  Li  Li7  1  0.04672500  0.71757800  0.67539600  1
  Mn  Mn0  1  0.81483300  0.58065800  0.41653700  1
  Mn  Mn1  1  0.68554100  0.92003900  0.33346900  1
  Mn  Mn2  1  0.68770300  0.91706500  0.83376100  1
  Mn  Mn3  1  0.31375600  0.07942400  0.16638400  1
  Mn  Mn4  1  0.31424300  0.07969500  0.66655200  1
  Mn  Mn5  1  0.18700600  0.41965400  0.08225500  1
  Mn  Mn6  1  0.18582000  0.42009900  0.58394100  1
  Fe  Fe0  1  0.81449200  0.57849600  0.91928600  1
  B  B0  1  0.83313900  0.09627000  0.08434800  1
  B  B1  1  0.83338700  0.09620400  0.58492000  1
  B  B2  1  0.66498900  0.40487700  0.16409300  1
  B  B3  1  0.66731100  0.40601600  0.66604200  1
  B  B4  1  0.33320200  0.59586000  0.33455700  1
  B  B5  1  0.33452900  0.59534600  0.83507800  1
  B  B6  1  0.16639200  0.90393000  0.41532500  1
  B  B7  1  0.16537400  0.90178800  0.91537200  1
  O  O0  1  0.82523200  0.12322600  0.45528600  1
  O  O1  1  0.82452900  0.12261500  0.95475800  1
  O  O2  1  0.98577400  0.81207000  0.34026500  1
  O  O3  1  0.98467500  0.80731800  0.84167600  1
  O  O4  1  0.83602400  0.52023400  0.10448400  1
  O  O5  1  0.84147100  0.51705400  0.60630800  1
  O  O6  1  0.67687700  0.37826600  0.29342300  1
  O  O7  1  0.67633100  0.38318700  0.79601500  1
  O  O8  1  0.48501100  0.31087300  0.09021700  1
  O  O9  1  0.48700700  0.31178200  0.59194600  1
  O  O10  1  0.34074600  0.01683400  0.35701000  1
  O  O11  1  0.65945200  0.98357700  0.14320400  1
  O  O12  1  0.33796400  0.01558800  0.85657600  1
  O  O13  1  0.65956000  0.98341900  0.64359600  1
  O  O14  1  0.51425200  0.68817700  0.40907900  1
  O  O15  1  0.51601500  0.68628100  0.90978400  1
  O  O16  1  0.32418200  0.62247600  0.20497200  1
  O  O17  1  0.32652300  0.62316600  0.70554400  1
  O  O18  1  0.15963100  0.48316800  0.39335300  1
  O  O19  1  0.15902100  0.48314100  0.89293200  1
  O  O20  1  0.01408800  0.18897200  0.15891800  1
  O  O21  1  0.01424700  0.18842000  0.65955600  1
  O  O22  1  0.17445700  0.87638200  0.04510400  1
  O  O23  1  0.17410200  0.87655400  0.54475100  1
loop_
_geom_bond_atom_site_label_1
_geom_bond_atom_site_label_2
_geom_bond_distance
_geom_bond_site_symmetry_2
Li0 O0 1.951967 1_555
Li0 O18 1.957933 1_655
Li0 O20 1.968646 1_655
Li0 O6 2.051698 1_555
Li1 O19 1.949643 1_655
Li1 O1 1.953655 1_555
Li1 O21 1.976746 1_655
Li1 O7 2.058295 1_555
Li2 O10 1.962528 1_555
Li2 O6 1.965394 1_555
Li2 O9 1.978973 1_555
Li2 O0 2.050265 1_555
Li3 O7 1.967153 1_555
Li3 O12 1.970443 1_555
Li3 O8 1.970728 1_556
Li3 O1 2.053824 1_555
Li4 O16 1.955797 1_555
Li4 O11 1.962446 1_555
Li4 O15 1.969415 1_554
Li4 O22 2.054089 1_555
Li5 O17 1.949407 1_555
Li5 O13 1.960691 1_555
Li5 O14 1.973399 1_555
Li5 O23 2.054267 1_555
Li6 O22 1.940906 1_555
Li6 O4 1.961414 1_455
Li6 O2 1.967824 1_455
Li6 O16 2.049546 1_555
Li7 O5 1.955635 1_455
Li7 O23 1.955670 1_555
Li7 O3 1.962721 1_455
Li7 O17 2.051704 1_555
Mn0 O5 2.083260 1_555
Mn0 O6 2.109278 1_555
Mn0 O2 2.131772 1_555
Mn0 O14 2.209935 1_555
Mn0 O18 2.425419 1_655
Mn1 O11 2.087668 1_555
Mn1 O0 2.107963 1_565
Mn1 O14 2.132598 1_555
Mn1 O2 2.210017 1_555
Mn1 O10 2.422730 1_565
Mn2 O13 2.095042 1_555
Mn2 O1 2.113151 1_565
Mn2 O15 2.127887 1_555
Mn2 O3 2.201145 1_555
Mn2 O12 2.457800 1_565
Mn3 O10 2.089761 1_555
Mn3 O22 2.103304 1_545
Mn3 O8 2.132117 1_555
Mn3 O20 2.214955 1_555
Mn3 O11 2.423307 1_545
Mn4 O12 2.084855 1_555
Mn4 O23 2.108169 1_545
Mn4 O9 2.132514 1_555
Mn4 O21 2.212518 1_555
Mn4 O13 2.422777 1_545
Mn5 O19 2.079512 1_554
Mn5 O16 2.108321 1_555
Mn5 O20 2.132007 1_555
Mn5 O8 2.202056 1_555
Mn5 O4 2.473403 1_455
Mn6 O18 2.089895 1_555
Mn6 O17 2.107233 1_555
Mn6 O21 2.131898 1_555
Mn6 O9 2.217458 1_555
Mn6 O5 2.419599 1_455
Fe0 O4 2.021109 1_556
Fe0 O7 2.070120 1_555
Fe0 O3 2.119078 1_555
Fe0 O15 2.200334 1_555
Fe0 O19 2.418232 1_655
B0 O1 1.383839 1_554
B0 O11 1.392956 1_545
B0 O20 1.406581 1_655
B1 O0 1.385151 1_555
B1 O13 1.392981 1_545
B1 O21 1.405170 1_655
B2 O6 1.382960 1_555
B2 O4 1.398326 1_555
B2 O8 1.402779 1_555
B3 O7 1.382960 1_555
B3 O5 1.392165 1_555
B3 O9 1.405987 1_555
B4 O16 1.384358 1_555
B4 O18 1.392235 1_555
B4 O14 1.405568 1_555
B5 O17 1.385302 1_555
B5 O19 1.392834 1_555
B5 O15 1.404308 1_555
B6 O23 1.383382 1_555
B6 O10 1.393673 1_565
B6 O2 1.405590 1_455
B7 O22 1.384095 1_556
B7 O12 1.393310 1_565
B7 O3 1.406001 1_455
