# generated using pymatgen
data_Li4MnFe3(BO3)4
_symmetry_space_group_name_H-M   'P 1'
_cell_length_a   5.23226100
_cell_length_b   6.16761481
_cell_length_c   9.00594210
_cell_angle_alpha   106.45707790
_cell_angle_beta   88.70321244
_cell_angle_gamma   114.49304597
_symmetry_Int_Tables_number   1
_chemical_formula_structural   Li4MnFe3(BO3)4
_chemical_formula_sum   'Li4 Mn1 Fe3 B4 O12'
_cell_volume   252.13751766
_cell_formula_units_Z   1
loop_
 _symmetry_equiv_pos_site_id
 _symmetry_equiv_pos_as_xyz
  1  'x, y, z'
loop_
 _atom_site_type_symbol
 _atom_site_label
 _atom_site_symmetry_multiplicity
 _atom_site_fract_x
 _atom_site_fract_y
 _atom_site_fract_z
 _atom_site_occupancy
  Li  Li0  1  0.18350300  0.67276700  0.11830100  1
  Li  Li1  1  0.68383300  0.67366000  0.61613300  1
  Li  Li2  1  0.31594100  0.32982900  0.38172100  1
  Li  Li3  1  0.81561000  0.32722600  0.88265600  1
  Mn  Mn0  1  0.28258900  0.22934100  0.69668900  1
  Fe  Fe0  1  0.77728900  0.23214100  0.19991100  1
  Fe  Fe1  1  0.72211600  0.76759700  0.30009100  1
  Fe  Fe2  1  0.22067600  0.76443100  0.80202500  1
  B  B0  1  0.30053500  0.25761900  0.03615800  1
  B  B1  1  0.19847900  0.73889500  0.46488700  1
  B  B2  1  0.80133100  0.26191200  0.53420700  1
  B  B3  1  0.70003200  0.74203400  0.96557400  1
  O  O0  1  0.05838200  0.29501500  0.03198500  1
  O  O1  1  0.45299400  0.31680500  0.17839600  1
  O  O2  1  0.59454700  0.82408500  0.10475700  1
  O  O3  1  0.04712900  0.68404000  0.32318400  1
  O  O4  1  0.44243300  0.70538300  0.46852900  1
  O  O5  1  0.09260500  0.81996000  0.60358100  1
  O  O6  1  0.90707800  0.17526900  0.39594600  1
  O  O7  1  0.55841100  0.29763900  0.52626000  1
  O  O8  1  0.94771500  0.32058100  0.67712000  1
  O  O9  1  0.40473600  0.17204000  0.89855800  1
  O  O10  1  0.55003300  0.68679600  0.82372700  1
  O  O11  1  0.94200700  0.70494000  0.96960500  1
loop_
_geom_bond_atom_site_label_1
_geom_bond_atom_site_label_2
_geom_bond_distance
_geom_bond_site_symmetry_2
Li0 O3 1.956391 1_555
Li0 O11 1.965794 1_454
Li0 O2 1.974761 1_555
Li0 O0 2.047719 1_555
Li1 O4 1.956774 1_555
Li1 O5 1.961655 1_655
Li1 O10 1.973313 1_555
Li1 O7 2.040293 1_555
Li2 O7 1.942525 1_555
Li2 O1 1.943892 1_555
Li2 O6 1.966598 1_455
Li2 O4 2.034857 1_555
Li3 O8 1.956632 1_555
Li3 O0 1.974729 1_656
Li3 O9 1.978852 1_555
Li3 O11 2.046938 1_555
Mn0 O8 2.074963 1_455
Mn0 O7 2.092374 1_555
Mn0 O9 2.107716 1_555
Mn0 O5 2.196231 1_545
Mn0 O10 2.489443 1_555
Fe0 O1 1.999049 1_555
Fe0 O6 2.074552 1_555
Fe0 O0 2.087903 1_655
Fe0 O2 2.191427 1_545
Fe0 O3 2.459466 1_655
Fe1 O3 2.001028 1_655
Fe1 O2 2.062715 1_555
Fe1 O4 2.086516 1_555
Fe1 O6 2.189563 1_565
Fe1 O1 2.451786 1_555
Fe2 O10 1.997404 1_555
Fe2 O11 2.075785 1_455
Fe2 O5 2.086053 1_555
Fe2 O9 2.189846 1_565
Fe2 O8 2.425942 1_455
B0 O0 1.381770 1_555
B0 O9 1.396042 1_554
B0 O1 1.396559 1_555
B1 O4 1.377520 1_555
B1 O3 1.396116 1_555
B1 O5 1.400542 1_555
B2 O7 1.383636 1_555
B2 O8 1.387462 1_555
B2 O6 1.406811 1_555
B3 O11 1.379698 1_555
B3 O10 1.393211 1_555
B3 O2 1.404558 1_556
