# generated using pymatgen
data_WOF4
_symmetry_space_group_name_H-M   'P 1'
_cell_length_a   8.36199765
_cell_length_b   8.36167898
_cell_length_c   8.36121996
_cell_angle_alpha   98.44161195
_cell_angle_beta   98.45115802
_cell_angle_gamma   134.93367351
_symmetry_Int_Tables_number   1
_chemical_formula_structural   WOF4
_chemical_formula_sum   'W4 O4 F16'
_cell_volume   382.25868386
_cell_formula_units_Z   4
loop_
 _symmetry_equiv_pos_site_id
 _symmetry_equiv_pos_as_xyz
  1  'x, y, z'
loop_
 _atom_site_type_symbol
 _atom_site_label
 _atom_site_symmetry_multiplicity
 _atom_site_fract_x
 _atom_site_fract_y
 _atom_site_fract_z
 _atom_site_occupancy
  W  W0  1  0.91028568  0.72741149  0.70988650  1
  W  W1  1  0.79960883  0.08970216  0.81707940  1
  W  W2  1  0.27262044  0.98253174  0.18291880  1
  W  W3  1  0.01749112  0.20036412  0.29011189  1
  O  O0  1  0.07632211  0.83844076  0.94458786  1
  O  O1  1  0.16156441  0.10614892  0.23786552  1
  O  O2  1  0.86831864  0.92372975  0.76214077  1
  O  O3  1  0.89387699  0.13175844  0.05541452  1
  F  F0  1  0.61583715  0.47468179  0.73028909  1
  F  F1  1  0.19561413  0.97824205  0.67746314  1
  F  F2  1  0.73121576  0.25530946  0.87564486  1
  F  F3  1  0.74461736  0.62035603  0.47589278  1
  F  F4  1  0.94988915  0.53677829  0.65628606  1
  F  F5  1  0.46326012  0.11961273  0.41318823  1
  F  F6  1  0.48188201  0.80435857  0.78257945  1
  F  F7  1  0.11444176  0.38418188  0.85881089  1
  F  F8  1  0.52534635  0.25566113  0.14119426  1
  F  F9  1  0.02181013  0.69928592  0.21742839  1
  F  F10  1  0.70637871  0.05003930  0.58681347  1
  F  F11  1  0.88045491  0.29355633  0.34369553  1
  F  F12  1  0.14437229  0.26863177  0.52410385  1
  F  F13  1  0.37968133  0.85559764  0.12435541  1
  F  F14  1  0.30076550  0.51814171  0.32260273  1
  F  F15  1  0.74434313  0.88547802  0.26964659  1
loop_
_geom_bond_atom_site_label_1
_geom_bond_atom_site_label_2
_geom_bond_distance
_geom_bond_site_symmetry_2
O0 W0 1.866550 1_455
O0 W2 1.912328 1_556
O1 W2 1.866491 1_545
O1 W3 1.912373 1_555
O2 W1 1.866513 1_565
O2 W0 1.912317 1_555
O3 W3 1.866558 1_655
O3 W1 1.912363 1_554
F0 W0 1.853817 1_555
F1 W0 1.858324 1_455
F2 W1 1.867168 1_555
F3 W0 1.866985 1_555
F4 W0 1.852283 1_555
F5 W2 1.852241 1_545
F6 W1 1.858217 1_565
F7 W1 1.853762 1_455
F8 W2 1.853795 1_545
F9 W2 1.858265 1_555
F10 W1 1.852209 1_555
F11 W3 1.852231 1_655
F12 W3 1.867006 1_555
F13 W2 1.867148 1_555
F14 W3 1.858282 1_555
F15 W3 1.853797 1_665
