# generated using pymatgen
data_Li5V6O5F19
_symmetry_space_group_name_H-M   'P 1'
_cell_length_a   7.44621000
_cell_length_b   7.67544239
_cell_length_c   16.37059030
_cell_angle_alpha   83.13346446
_cell_angle_beta   82.95440073
_cell_angle_gamma   87.70297534
_symmetry_Int_Tables_number   1
_chemical_formula_structural   Li5V6O5F19
_chemical_formula_sum   'Li10 V12 O10 F38'
_cell_volume   921.59556989
_cell_formula_units_Z   2
loop_
 _symmetry_equiv_pos_site_id
 _symmetry_equiv_pos_as_xyz
  1  'x, y, z'
loop_
 _atom_site_type_symbol
 _atom_site_label
 _atom_site_symmetry_multiplicity
 _atom_site_fract_x
 _atom_site_fract_y
 _atom_site_fract_z
 _atom_site_occupancy
  Li  Li0  1  0.67960100  0.74516000  0.86738100  1
  Li  Li1  1  0.67704200  0.96118800  0.15417400  1
  Li  Li2  1  0.64156700  0.73742400  0.52759800  1
  Li  Li3  1  0.88025900  0.37977700  0.44970000  1
  Li  Li4  1  0.17135900  0.86957100  0.51392500  1
  Li  Li5  1  0.72334000  0.41717100  0.17445700  1
  Li  Li6  1  0.22821900  0.90664700  0.17236900  1
  Li  Li7  1  0.35799700  0.29793100  0.45696800  1
  Li  Li8  1  0.18069600  0.24676800  0.86462800  1
  Li  Li9  1  0.17946300  0.46700500  0.15354000  1
  V  V0  1  0.86403100  0.83629300  0.66737600  1
  V  V1  1  0.97104500  0.50890600  0.99500700  1
  V  V2  1  0.97063000  0.99959400  0.00197900  1
  V  V3  1  0.83724200  0.33144300  0.67262500  1
  V  V4  1  0.33553500  0.83386900  0.67424500  1
  V  V5  1  0.67283200  0.64318900  0.32829300  1
  V  V6  1  0.36546200  0.33726300  0.66489300  1
  V  V7  1  0.69164200  0.16297500  0.33538900  1
  V  V8  1  0.18986700  0.66520100  0.33794200  1
  V  V9  1  0.47313900  0.00941200  0.99504800  1
  V  V10  1  0.46962000  0.50067300  0.00234200  1
  V  V11  1  0.17331300  0.13609900  0.32902800  1
  O  O0  1  0.75475500  0.55853900  0.97814900  1
  O  O1  1  0.74221700  0.96814800  0.02664600  1
  O  O2  1  0.59206600  0.37551600  0.64684900  1
  O  O3  1  0.70829600  0.42640300  0.30897100  1
  O  O4  1  0.09168200  0.87392500  0.64379800  1
  O  O5  1  0.20997000  0.92535600  0.30725400  1
  O  O6  1  0.91231600  0.13458300  0.35279300  1
  O  O7  1  0.41084000  0.62589700  0.35289300  1
  O  O8  1  0.25689200  0.05780600  0.97826400  1
  O  O9  1  0.24469900  0.46854700  0.02632200  1
  F  F0  1  0.85806200  0.75699300  0.77887400  1
  F  F1  1  0.58238400  0.96495300  0.88940300  1
  F  F2  1  0.80742700  0.88865800  0.55614800  1
  F  F3  1  0.88128200  0.58513400  0.64243300  1
  F  F4  1  0.92969100  0.70167900  0.31347100  1
  F  F5  1  0.63218200  0.90585600  0.35673700  1
  F  F6  1  0.59139000  0.78515000  0.68744400  1
  F  F7  1  0.93811700  0.51459100  0.11699200  1
  F  F8  1  0.70478800  0.58463400  0.44636200  1
  F  F9  1  0.48739300  0.58405500  0.88939000  1
  F  F10  1  0.77889500  0.35960500  0.77715500  1
  F  F11  1  0.65307500  0.73666100  0.21869100  1
  F  F12  1  0.90443600  0.30860400  0.56150900  1
  F  F13  1  0.27521700  0.86281900  0.78044800  1
  F  F14  1  0.40011100  0.80582600  0.55744000  1
  F  F15  1  0.54107800  0.26419000  0.97449100  1
  F  F16  1  0.04152500  0.76437000  0.97556900  1
  F  F17  1  0.94979200  0.25090400  0.02539600  1
  F  F18  1  0.79225900  0.07894100  0.69169000  1
  F  F19  1  0.44945100  0.75081400  0.02597100  1
  F  F20  1  0.29404200  0.58270400  0.69146600  1
  F  F21  1  0.52711500  0.43543400  0.11309600  1
  F  F22  1  0.60121100  0.20353200  0.44618900  1
  F  F23  1  0.71896300  0.15264100  0.21834700  1
  F  F24  1  0.35785800  0.25748300  0.77726400  1
  F  F25  1  0.02583700  0.93734500  0.11196100  1
  F  F26  1  0.10027900  0.70357800  0.44841500  1
  F  F27  1  0.22593600  0.65224800  0.21931400  1
  F  F28  1  0.08232600  0.46518800  0.88979600  1
  F  F29  1  0.30957000  0.39971700  0.55462700  1
  F  F30  1  0.38336200  0.08308700  0.64205100  1
  F  F31  1  0.42151700  0.21784000  0.31994300  1
  F  F32  1  0.11936100  0.40965100  0.37085200  1
  F  F33  1  0.08956800  0.28798000  0.68994000  1
  F  F34  1  0.43723100  0.01476200  0.11729000  1
  F  F35  1  0.19819500  0.09873700  0.44793800  1
  F  F36  1  0.98503600  0.08196700  0.89127000  1
  F  F37  1  0.15484600  0.25042400  0.22289700  1
loop_
_geom_bond_atom_site_label_1
_geom_bond_atom_site_label_2
_geom_bond_distance
_geom_bond_site_symmetry_2
Li0 O0 2.284016 1_555
Li1 O1 2.079366 1_555
Li4 O4 2.139944 1_555
Li5 O3 2.200649 1_555
Li6 O5 2.217126 1_555
Li8 O8 2.331085 1_555
Li9 O9 2.078426 1_555
O0 V1 1.688149 1_555
O0 V10 2.165465 1_556
O1 V2 1.719068 1_555
O1 V9 2.132266 1_564
O2 V6 1.708006 1_555
O2 V3 1.931520 1_555
O3 V5 1.734527 1_555
O3 V7 2.021993 1_555
O4 V0 1.719879 1_455
O4 V4 1.944390 1_555
O5 V11 1.701948 1_565
O5 V8 2.006905 1_555
O6 V7 1.702945 1_555
O6 V11 1.934863 1_655
O7 V8 1.702834 1_555
O7 V5 1.949576 1_555
O8 V9 1.685961 1_555
O8 V2 2.173888 1_446
O9 V10 1.693683 1_555
O9 V1 2.163011 1_454
F0 Li0 1.838296 1_555
F0 V0 1.849523 1_555
F1 Li0 1.866416 1_555
F1 V9 1.882279 1_565
F2 Li2 1.864783 1_555
F2 V0 1.911662 1_555
F3 V3 1.981080 1_555
F3 V0 2.013699 1_555
F4 V5 1.961502 1_555
F4 V8 2.027855 1_655
F5 V7 2.019911 1_565
F5 V5 2.124624 1_555
F6 V4 1.959764 1_555
F6 V0 2.062262 1_555
F7 Li5 1.886892 1_555
F7 Li9 1.969747 1_655
F7 V1 1.987400 1_554
F8 Li2 1.881643 1_555
F8 V5 1.972586 1_555
F8 Li3 2.003697 1_555
F9 V10 1.873508 1_556
F9 Li0 1.901605 1_555
F10 V3 1.749938 1_555
F11 V5 1.871946 1_555
F11 Li1 1.913235 1_555
F12 V3 1.853618 1_555
F12 Li3 1.874830 1_555
F13 V4 1.779512 1_555
F14 Li2 1.875381 1_555
F14 Li4 1.948263 1_555
F14 V4 1.948970 1_555
F15 V10 1.961271 1_556
F15 V9 2.018282 1_555
F16 V2 1.944094 1_456
F16 V1 2.028236 1_455
F17 V1 1.991051 1_554
F17 V2 2.007480 1_545
F18 V3 1.961493 1_555
F18 V0 1.989468 1_545
F19 V9 1.998230 1_564
F19 V10 1.999646 1_555
F20 V4 1.946223 1_555
F20 V6 2.019880 1_555
F21 Li5 1.863755 1_555
F21 V10 1.917690 1_555
F22 V7 1.912852 1_555
F22 Li7 1.919091 1_555
F23 V7 1.912677 1_555
F23 Li1 1.961336 1_545
F23 Li5 2.071353 1_555
F24 Li8 1.819400 1_555
F24 V6 1.862821 1_555
F25 Li6 1.893639 1_555
F25 V2 1.897128 1_455
F26 Li4 1.890377 1_555
F26 V8 1.902142 1_555
F27 V8 1.941519 1_555
F27 Li9 1.948758 1_555
F27 Li6 2.011041 1_555
F28 Li8 1.873375 1_555
F28 V1 1.879241 1_455
F29 Li7 1.852293 1_555
F29 V6 1.903379 1_555
F30 V4 1.957325 1_545
F30 V6 2.026086 1_555
F31 V11 1.958244 1_555
F31 V7 2.078087 1_555
F31 Li7 2.383193 1_555
F32 V8 2.042959 1_555
F32 Li3 2.070442 1_455
F32 V11 2.290698 1_555
F32 Li7 2.466493 1_555
F33 V3 1.944118 1_455
F33 V6 2.085710 1_555
F34 Li6 1.871953 1_545
F34 Li1 1.966881 1_545
F34 V9 1.991326 1_554
F35 Li4 1.954904 1_545
F35 V11 1.963837 1_555
F35 Li7 2.004577 1_555
F36 V2 1.838392 1_546
F36 Li8 1.942371 1_655
F37 V11 1.868675 1_555
F37 Li9 1.899537 1_555
