# generated using pymatgen
data_LiFePO4
_symmetry_space_group_name_H-M   'P 1'
_cell_length_a   12.31200300
_cell_length_b   10.67160500
_cell_length_c   10.73715068
_cell_angle_alpha   61.17968237
_cell_angle_beta   90.00000000
_cell_angle_gamma   90.00000000
_symmetry_Int_Tables_number   1
_chemical_formula_structural   LiFePO4
_chemical_formula_sum   'Li12 Fe12 P12 O48'
_cell_volume   1236.00129046
_cell_formula_units_Z   12
loop_
 _symmetry_equiv_pos_site_id
 _symmetry_equiv_pos_as_xyz
  1  'x, y, z'
loop_
 _atom_site_type_symbol
 _atom_site_label
 _atom_site_symmetry_multiplicity
 _atom_site_fract_x
 _atom_site_fract_y
 _atom_site_fract_z
 _atom_site_occupancy
  Li  Li0  1  0.84702700  0.00000000  0.50000000  1
  Li  Li1  1  0.49241000  0.00000000  0.50000000  1
  Li  Li2  1  0.01414200  0.00000000  0.00000000  1
  Li  Li3  1  0.66770200  0.00000000  0.00000000  1
  Li  Li4  1  0.31860100  0.00000000  0.00000000  1
  Li  Li5  1  0.82373100  0.50000000  0.50000000  1
  Li  Li6  1  0.16010200  0.50000000  0.50000000  1
  Li  Li7  1  0.55528800  0.50000000  0.00000000  1
  Li  Li8  1  0.98602900  0.50000000  0.00000000  1
  Li  Li9  1  0.79236800  0.50000000  0.00000000  1
  Li  Li10  1  0.35978300  0.50000000  0.00000000  1
  Li  Li11  1  0.17695500  0.50000000  0.00000000  1
  Fe  Fe0  1  0.16555200  0.00413800  0.27024300  1
  Fe  Fe1  1  0.83106700  0.23919900  0.25314800  1
  Fe  Fe2  1  0.16555200  0.99586200  0.72975700  1
  Fe  Fe3  1  0.50134300  0.26601000  0.50576000  1
  Fe  Fe4  1  0.83394400  0.24436700  0.75490600  1
  Fe  Fe5  1  0.16606500  0.50532300  0.24947100  1
  Fe  Fe6  1  0.50136800  0.24126000  0.99227000  1
  Fe  Fe7  1  0.16606500  0.49467700  0.75052900  1
  Fe  Fe8  1  0.83394400  0.75563300  0.24509400  1
  Fe  Fe9  1  0.50134300  0.73399000  0.49424000  1
  Fe  Fe10  1  0.83106700  0.76080100  0.74685200  1
  Fe  Fe11  1  0.50136800  0.75874000  0.00773000  1
  P  P0  1  0.66288400  0.99623300  0.25773500  1
  P  P1  1  0.66288400  0.00376700  0.74226500  1
  P  P2  1  0.34502000  0.26839800  0.23489800  1
  P  P3  1  0.99246600  0.26025000  0.49873000  1
  P  P4  1  0.67267600  0.49296800  0.24813000  1
  P  P5  1  0.32316800  0.24329900  0.75443200  1
  P  P6  1  0.00018600  0.25792100  0.00173100  1
  P  P7  1  0.32316800  0.75670100  0.24556800  1
  P  P8  1  0.67267600  0.50703200  0.75187000  1
  P  P9  1  0.99246600  0.73975000  0.50127000  1
  P  P10  1  0.34502000  0.73160200  0.76510200  1
  P  P11  1  0.00018600  0.74207900  0.99826900  1
  O  O0  1  0.05247900  0.11696100  0.11095300  1
  O  O1  1  0.61816500  0.11099400  0.11045700  1
  O  O2  1  0.75479800  0.05582900  0.31500900  1
  O  O3  1  0.27361900  0.14834000  0.24524400  1
  O  O4  1  0.91013800  0.31933000  0.06144300  1
  O  O5  1  0.43108100  0.32316700  0.11049200  1
  O  O6  1  0.57318700  0.06437900  0.62760400  1
  O  O7  1  0.93067900  0.20141600  0.41028100  1
  O  O8  1  0.40251300  0.22048500  0.37771200  1
  O  O9  1  0.06042200  0.13738100  0.60804700  1
  O  O10  1  0.26662800  0.09839600  0.79962800  1
  O  O11  1  0.74372400  0.41692000  0.18308400  1
  O  O12  1  0.27152900  0.40971600  0.17608000  1
  O  O13  1  0.71183100  0.11272700  0.78468200  1
  O  O14  1  0.90839000  0.31726200  0.56643400  1
  O  O15  1  0.61429900  0.38190600  0.38072200  1
  O  O16  1  0.06781200  0.39088600  0.40634700  1
  O  O17  1  0.41228300  0.28342900  0.64365900  1
  O  O18  1  0.59234800  0.58235000  0.12472600  1
  O  O19  1  0.95465300  0.22213000  0.88863400  1
  O  O20  1  0.08284300  0.61207100  0.05931100  1
  O  O21  1  0.37187900  0.21780700  0.89937400  1
  O  O22  1  0.74686300  0.57976400  0.29373600  1
  O  O23  1  0.23802700  0.36804100  0.69196400  1
  O  O24  1  0.23802700  0.63195900  0.30803600  1
  O  O25  1  0.74686300  0.42023600  0.70626400  1
  O  O26  1  0.37187900  0.78219300  0.10062600  1
  O  O27  1  0.08284300  0.38792900  0.94068900  1
  O  O28  1  0.95465300  0.77787000  0.11136600  1
  O  O29  1  0.59234800  0.41765000  0.87527400  1
  O  O30  1  0.41228300  0.71657100  0.35634100  1
  O  O31  1  0.06781200  0.60911400  0.59365300  1
  O  O32  1  0.61429900  0.61809400  0.61927800  1
  O  O33  1  0.90839000  0.68273800  0.43356600  1
  O  O34  1  0.71183100  0.88727300  0.21531800  1
  O  O35  1  0.27152900  0.59028400  0.82392000  1
  O  O36  1  0.74372400  0.58308000  0.81691600  1
  O  O37  1  0.26662800  0.90160400  0.20037200  1
  O  O38  1  0.06042200  0.86261900  0.39195300  1
  O  O39  1  0.40251300  0.77951500  0.62228800  1
  O  O40  1  0.93067900  0.79858400  0.58971900  1
  O  O41  1  0.57318700  0.93562100  0.37239600  1
  O  O42  1  0.43108100  0.67683300  0.88950800  1
  O  O43  1  0.91013800  0.68067000  0.93855700  1
  O  O44  1  0.27361900  0.85166000  0.75475600  1
  O  O45  1  0.75479800  0.94417100  0.68499100  1
  O  O46  1  0.61816500  0.88900600  0.88954300  1
  O  O47  1  0.05247900  0.88303900  0.88904700  1
loop_
_geom_bond_atom_site_label_1
_geom_bond_atom_site_label_2
_geom_bond_distance
_geom_bond_site_symmetry_2
Li0 O2 2.109200 1_555
Li0 O45 2.109200 1_545
Li0 O7 2.147666 1_555
Li0 O40 2.147666 1_545
Li1 O41 2.060535 1_545
Li1 O6 2.060535 1_555
Li1 O8 2.346638 1_555
Li1 O39 2.346638 1_545
Li2 O47 2.152570 1_544
Li2 O0 2.152570 1_555
Li2 O19 2.202870 1_454
Li2 O28 2.202870 1_445
Li3 O13 2.099008 1_554
Li3 O34 2.099008 1_545
Li3 O1 2.129779 1_555
Li3 O46 2.129779 1_544
Li4 O10 1.990635 1_554
Li4 O37 1.990635 1_545
Li4 O26 2.139860 1_545
Li4 O21 2.139860 1_554
Li5 O33 2.014208 1_555
Li5 O14 2.014208 1_555
Li5 O25 2.169684 1_555
Li5 O22 2.169684 1_555
Li6 O23 2.086491 1_555
Li6 O24 2.086491 1_555
Li6 O16 2.187936 1_555
Li6 O31 2.187936 1_555
Li7 O29 1.977028 1_554
Li7 O18 1.977028 1_555
Li7 O5 2.269069 1_555
Li7 O42 2.269069 1_554
Li8 O43 1.949172 1_554
Li8 O4 1.949172 1_555
Li8 O27 1.997757 1_654
Li8 O20 1.997757 1_655
Li9 O11 1.824489 1_555
Li9 O36 1.824489 1_554
Li9 O43 2.242472 1_554
Li9 O4 2.242472 1_555
Li10 O5 1.892268 1_555
Li10 O42 1.892268 1_554
Li10 O12 1.981692 1_555
Li10 O35 1.981692 1_554
Li11 O27 1.978088 1_554
Li11 O20 1.978088 1_555
Li11 O35 2.025403 1_554
Li11 O12 2.025403 1_555
Fe0 O38 1.939368 1_545
Fe0 O3 1.952486 1_555
Fe0 O37 2.024894 1_545
Fe0 O0 2.080277 1_555
Fe1 O7 1.964009 1_555
Fe1 O2 1.974607 1_555
Fe1 O11 1.985885 1_555
Fe1 O4 2.053980 1_555
Fe2 O9 1.939368 1_565
Fe2 O44 1.952486 1_555
Fe2 O10 2.024894 1_565
Fe2 O47 2.080277 1_555
Fe3 O15 1.914497 1_555
Fe3 O17 1.922120 1_555
Fe3 O8 2.061764 1_555
Fe3 O6 2.099964 1_555
Fe4 O13 1.975617 1_555
Fe4 O19 1.999547 1_555
Fe4 O25 1.999901 1_555
Fe4 O14 2.005662 1_555
Fe5 O16 1.951591 1_555
Fe5 O24 1.956023 1_555
Fe5 O12 2.030546 1_555
Fe5 O20 2.067348 1_555
Fe6 O21 1.959567 1_555
Fe6 O1 1.977347 1_556
Fe6 O29 2.023922 1_555
Fe6 O5 2.047903 1_556
Fe7 O31 1.951591 1_555
Fe7 O23 1.956023 1_555
Fe7 O35 2.030546 1_555
Fe7 O27 2.067348 1_555
Fe8 O34 1.975617 1_555
Fe8 O28 1.999547 1_555
Fe8 O22 1.999901 1_555
Fe8 O33 2.005662 1_555
Fe9 O32 1.914497 1_555
Fe9 O30 1.922120 1_555
Fe9 O39 2.061764 1_555
Fe9 O41 2.099964 1_555
Fe10 O40 1.964009 1_555
Fe10 O45 1.974607 1_555
Fe10 O36 1.985885 1_555
Fe10 O43 2.053980 1_555
Fe11 O26 1.959567 1_555
Fe11 O46 1.977347 1_554
Fe11 O18 2.023922 1_555
Fe11 O42 2.047903 1_554
O0 P6 1.533565 1_555
O1 P0 1.560918 1_545
O2 P0 1.562162 1_545
O3 P2 1.513083 1_555
O4 P6 1.573135 1_655
O5 P2 1.579836 1_555
O6 P1 1.544635 1_555
O7 P3 1.565147 1_555
O8 P2 1.535556 1_555
O9 P3 1.520908 1_455
O10 P5 1.545244 1_555
O11 P4 1.567812 1_555
O12 P2 1.604252 1_555
O13 P1 1.559879 1_555
O14 P3 1.548081 1_555
O15 P4 1.523583 1_555
O16 P3 1.566761 1_455
O17 P5 1.520121 1_555
O18 P4 1.557264 1_555
O19 P6 1.543359 1_656
O20 P11 1.585367 1_554
O21 P5 1.564436 1_555
O22 P4 1.539255 1_555
O23 P5 1.568426 1_555
O24 P7 1.568426 1_555
O25 P8 1.539255 1_555
O26 P7 1.564436 1_555
O27 P6 1.585367 1_556
O28 P11 1.543359 1_654
O29 P8 1.557264 1_555
O30 P7 1.520121 1_555
O31 P9 1.566761 1_455
O32 P8 1.523583 1_555
O33 P9 1.548081 1_555
O34 P0 1.559879 1_555
O35 P10 1.604252 1_555
O36 P8 1.567812 1_555
O37 P7 1.545244 1_555
O38 P9 1.520908 1_455
O39 P10 1.535556 1_555
O40 P9 1.565147 1_555
O41 P0 1.544635 1_555
O42 P10 1.579836 1_555
O43 P11 1.573135 1_655
O44 P10 1.513083 1_555
O45 P1 1.562162 1_565
O46 P1 1.560918 1_565
O47 P11 1.533565 1_555
