# generated using pymatgen
data_Li2FeS2
_symmetry_space_group_name_H-M   'P 1'
_cell_length_a   6.38280100
_cell_length_b   6.71268700
_cell_length_c   8.11918397
_cell_angle_alpha   87.17314647
_cell_angle_beta   90.00000000
_cell_angle_gamma   90.00000000
_symmetry_Int_Tables_number   1
_chemical_formula_structural   Li2FeS2
_chemical_formula_sum   'Li8 Fe4 S8'
_cell_volume   347.44917371
_cell_formula_units_Z   4
loop_
 _symmetry_equiv_pos_site_id
 _symmetry_equiv_pos_as_xyz
  1  'x, y, z'
loop_
 _atom_site_type_symbol
 _atom_site_label
 _atom_site_symmetry_multiplicity
 _atom_site_fract_x
 _atom_site_fract_y
 _atom_site_fract_z
 _atom_site_occupancy
  Li  Li0  1  0.35601100  0.88487100  0.72854500  1
  Li  Li1  1  0.14398900  0.88487100  0.22854500  1
  Li  Li2  1  0.01016100  0.53081100  0.81919000  1
  Li  Li3  1  0.48983900  0.53081100  0.31919000  1
  Li  Li4  1  0.51016100  0.46918900  0.68081000  1
  Li  Li5  1  0.98983900  0.46918900  0.18081000  1
  Li  Li6  1  0.85601100  0.11512900  0.77145500  1
  Li  Li7  1  0.64398900  0.11512900  0.27145500  1
  Fe  Fe0  1  0.61823200  0.65064500  0.99249800  1
  Fe  Fe1  1  0.88176800  0.65064500  0.49249800  1
  Fe  Fe2  1  0.11823200  0.34935500  0.50750200  1
  Fe  Fe3  1  0.38176800  0.34935500  0.00750200  1
  S  S0  1  0.73332400  0.77614900  0.73425500  1
  S  S1  1  0.76667600  0.77614900  0.23425500  1
  S  S2  1  0.26068200  0.68775000  0.99835000  1
  S  S3  1  0.23931800  0.68775000  0.49835000  1
  S  S4  1  0.76068200  0.31225000  0.50165000  1
  S  S5  1  0.73931800  0.31225000  0.00165000  1
  S  S6  1  0.23332400  0.22385100  0.76574500  1
  S  S7  1  0.26667600  0.22385100  0.26574500  1
loop_
_geom_bond_atom_site_label_1
_geom_bond_atom_site_label_2
_geom_bond_distance
_geom_bond_site_symmetry_2
Li0 S6 2.439259 1_565
Li0 S3 2.458198 1_555
Li0 S0 2.516231 1_555
Li0 S2 2.575641 1_555
Li1 S7 2.439259 1_565
Li1 S2 2.458198 1_554
Li1 S1 2.516231 1_455
Li1 S3 2.575641 1_555
Li2 S2 2.435943 1_555
Li2 S0 2.489580 1_455
Li2 S6 2.559529 1_555
Li2 S5 2.668567 1_456
Li3 S3 2.435943 1_555
Li3 S1 2.489580 1_555
Li3 S7 2.559529 1_555
Li3 S4 2.668567 1_555
Li4 S4 2.435943 1_555
Li4 S6 2.489580 1_555
Li4 S0 2.559529 1_555
Li4 S3 2.668567 1_555
Li5 S5 2.435943 1_555
Li5 S7 2.489580 1_655
Li5 S1 2.559529 1_555
Li5 S2 2.668567 1_654
Li6 S0 2.439259 1_545
Li6 S5 2.458198 1_556
Li6 S6 2.516231 1_655
Li6 S4 2.575641 1_555
Li7 S1 2.439259 1_545
Li7 S4 2.458198 1_555
Li7 S7 2.516231 1_555
Li7 S5 2.575641 1_555
Fe0 S2 2.296468 1_555
Fe0 S0 2.339106 1_555
Fe0 S1 2.371383 1_556
Fe0 S5 2.397100 1_556
Fe1 S3 2.296468 1_655
Fe1 S1 2.339106 1_555
Fe1 S0 2.371383 1_555
Fe1 S4 2.397100 1_555
Fe2 S4 2.296468 1_455
Fe2 S6 2.339106 1_555
Fe2 S7 2.371383 1_555
Fe2 S3 2.397100 1_555
Fe3 S5 2.296468 1_555
Fe3 S7 2.339106 1_555
Fe3 S6 2.371383 1_554
Fe3 S2 2.397100 1_554
