# generated using pymatgen
data_Li4Co13O28
_symmetry_space_group_name_H-M   'P 1'
_cell_length_a   7.44741200
_cell_length_b   8.22592580
_cell_length_c   8.51550215
_cell_angle_alpha   100.70836035
_cell_angle_beta   104.53278825
_cell_angle_gamma   105.47353904
_symmetry_Int_Tables_number   1
_chemical_formula_structural   Li4Co13O28
_chemical_formula_sum   'Li4 Co13 O28'
_cell_volume   468.47767936
_cell_formula_units_Z   1
loop_
 _symmetry_equiv_pos_site_id
 _symmetry_equiv_pos_as_xyz
  1  'x, y, z'
loop_
 _atom_site_type_symbol
 _atom_site_label
 _atom_site_symmetry_multiplicity
 _atom_site_fract_x
 _atom_site_fract_y
 _atom_site_fract_z
 _atom_site_occupancy
  Li  Li0  1  0.19790900  0.14628200  0.32866700  1
  Li  Li1  1  0.99847800  0.49468100  0.01011800  1
  Li  Li2  1  0.77802800  0.86466100  0.65271600  1
  Li  Li3  1  0.08091000  0.73281400  0.79370300  1
  Co  Co0  1  0.71752800  0.14022100  0.86265200  1
  Co  Co1  1  0.35634100  0.07683700  0.93659900  1
  Co  Co2  1  0.07168100  0.20902800  0.79049500  1
  Co  Co3  1  0.77859800  0.34805500  0.63613800  1
  Co  Co4  1  0.43080400  0.29443500  0.72162100  1
  Co  Co5  1  0.14426500  0.43126800  0.57405200  1
  Co  Co6  1  0.50100200  0.50126800  0.50127400  1
  Co  Co7  1  0.85277300  0.56279600  0.42082900  1
  Co  Co8  1  0.56894000  0.70546700  0.27764500  1
  Co  Co9  1  0.22108400  0.65328800  0.36444200  1
  Co  Co10  1  0.92925500  0.78729000  0.20643800  1
  Co  Co11  1  0.64625300  0.92468400  0.06809200  1
  Co  Co12  1  0.28576800  0.86195400  0.14252000  1
  O  O0  1  0.90542300  0.99614100  0.19923000  1
  O  O1  1  0.79608800  0.12662900  0.66517200  1
  O  O2  1  0.44338700  0.07483200  0.74519100  1
  O  O3  1  0.98053300  0.24296400  0.96744800  1
  O  O4  1  0.29630200  0.08007900  0.13315100  1
  O  O5  1  0.70603400  0.36569000  0.83399700  1
  O  O6  1  0.63145700  0.14814100  0.04968200  1
  O  O7  1  0.34250100  0.29730600  0.91042600  1
  O  O8  1  0.50720000  0.27748100  0.52418200  1
  O  O9  1  0.16085500  0.21284800  0.59651600  1
  O  O10  1  0.87074000  0.34521000  0.45142700  1
  O  O11  1  0.04999100  0.43470200  0.76362200  1
  O  O12  1  0.41215600  0.51078400  0.69177300  1
  O  O13  1  0.77854200  0.57846600  0.61967900  1
  O  O14  1  0.22951300  0.42528200  0.38397100  1
  O  O15  1  0.58615800  0.48841900  0.30838200  1
  O  O16  1  0.95118500  0.56565800  0.23741100  1
  O  O17  1  0.12516500  0.65182500  0.55271900  1
  O  O18  1  0.83950600  0.78419000  0.40076800  1
  O  O19  1  0.49521800  0.72474000  0.47704500  1
  O  O20  1  0.65592500  0.70282800  0.08750700  1
  O  O21  1  0.36682600  0.85178100  0.94795400  1
  O  O22  1  0.29539600  0.63517800  0.16927000  1
  O  O23  1  0.70556800  0.92160300  0.86744600  1
  O  O24  1  0.02403400  0.75318100  0.02775500  1
  O  O25  1  0.55980700  0.92625100  0.25519100  1
  O  O26  1  0.20206200  0.87123900  0.33648700  1
  O  O27  1  0.09347700  0.99674300  0.79742000  1
loop_
_geom_bond_atom_site_label_1
_geom_bond_atom_site_label_2
_geom_bond_distance
_geom_bond_site_symmetry_2
Li0 O4 2.023300 1_555
Li0 O0 2.082966 1_445
Li0 O14 2.190626 1_555
Li0 O26 2.283969 1_545
Li0 O8 2.307282 1_555
Li0 O9 2.347494 1_555
Li1 O3 1.996415 1_554
Li1 O24 2.057035 1_655
Li1 O16 2.059867 1_555
Li1 O22 2.147651 1_655
Li1 O5 2.157508 1_554
Li1 O11 2.217395 1_654
Li2 O23 2.041066 1_555
Li2 O1 2.103879 1_565
Li2 O19 2.117552 1_555
Li2 O27 2.214868 1_655
Li2 O18 2.318998 1_555
Li2 O13 2.319640 1_555
Li3 O21 2.055195 1_555
Li3 O24 2.125390 1_556
Li3 O27 2.141920 1_555
Li3 O17 2.170741 1_555
Li3 O13 2.231457 1_455
Li3 O11 2.359622 1_555
Co0 O23 1.785286 1_545
Co0 O3 1.818341 1_555
Co0 O6 1.856815 1_556
Co0 O1 1.908280 1_555
Co0 O2 1.909794 1_555
Co0 O5 1.936275 1_555
Co1 O4 1.835050 1_556
Co1 O27 1.878385 1_545
Co1 O21 1.892777 1_545
Co1 O7 1.894129 1_555
Co1 O2 1.898214 1_555
Co1 O6 1.904728 1_556
Co2 O27 1.806625 1_545
Co2 O3 1.807605 1_455
Co2 O7 1.883450 1_555
Co2 O1 1.923667 1_455
Co2 O9 1.931134 1_555
Co2 O11 1.955484 1_555
Co3 O10 1.866030 1_555
Co3 O8 1.879459 1_555
Co3 O5 1.886754 1_555
Co3 O11 1.901121 1_655
Co3 O1 1.916637 1_555
Co3 O13 1.926417 1_555
Co4 O2 1.878273 1_555
Co4 O12 1.879729 1_555
Co4 O7 1.882223 1_555
Co4 O9 1.888548 1_555
Co4 O8 1.898730 1_555
Co4 O5 1.904429 1_555
Co5 O12 1.862642 1_555
Co5 O9 1.874653 1_555
Co5 O14 1.878369 1_555
Co5 O17 1.895279 1_555
Co5 O10 1.905101 1_455
Co5 O11 1.913660 1_555
Co6 O14 1.885883 1_555
Co6 O12 1.895940 1_555
Co6 O19 1.897993 1_555
Co6 O8 1.898210 1_555
Co6 O15 1.898806 1_555
Co6 O13 1.925603 1_555
Co7 O15 1.847611 1_555
Co7 O16 1.885790 1_555
Co7 O18 1.886469 1_555
Co7 O10 1.890224 1_555
Co7 O13 1.901641 1_555
Co7 O17 1.916030 1_655
Co8 O25 1.878306 1_555
Co8 O15 1.884585 1_555
Co8 O20 1.887466 1_555
Co8 O22 1.888335 1_555
Co8 O18 1.889458 1_555
Co8 O19 1.903689 1_555
Co9 O22 1.871973 1_555
Co9 O26 1.888980 1_555
Co9 O16 1.891011 1_455
Co9 O19 1.897575 1_555
Co9 O17 1.912667 1_555
Co9 O14 1.929460 1_555
Co10 O0 1.784150 1_555
Co10 O24 1.837985 1_655
Co10 O20 1.897708 1_555
Co10 O26 1.915487 1_655
Co10 O16 1.932871 1_555
Co10 O18 1.935851 1_555
Co11 O0 1.840372 1_555
Co11 O25 1.861354 1_555
Co11 O23 1.866486 1_554
Co11 O20 1.881311 1_555
Co11 O6 1.903149 1_565
Co11 O21 1.942804 1_554
Co12 O4 1.792537 1_565
Co12 O24 1.828549 1_555
Co12 O21 1.895756 1_554
Co12 O26 1.902088 1_555
Co12 O25 1.902160 1_555
Co12 O22 1.938554 1_555
