# generated using pymatgen
data_Li2VSiO5
_symmetry_space_group_name_H-M   'P 1'
_cell_length_a   5.06846400
_cell_length_b   12.69450900
_cell_length_c   13.10802827
_cell_angle_alpha   61.66726787
_cell_angle_beta   90.00000000
_cell_angle_gamma   90.00000000
_symmetry_Int_Tables_number   1
_chemical_formula_structural   Li2VSiO5
_chemical_formula_sum   'Li16 V8 Si8 O40'
_cell_volume   742.35929601
_cell_formula_units_Z   8
loop_
 _symmetry_equiv_pos_site_id
 _symmetry_equiv_pos_as_xyz
  1  'x, y, z'
loop_
 _atom_site_type_symbol
 _atom_site_label
 _atom_site_symmetry_multiplicity
 _atom_site_fract_x
 _atom_site_fract_y
 _atom_site_fract_z
 _atom_site_occupancy
  Li  Li0  1  0.72427800  0.84757700  0.32848100  1
  Li  Li1  1  0.77204800  0.34563900  0.08604000  1
  Li  Li2  1  0.20675600  0.17643900  0.17385800  1
  Li  Li3  1  0.72133000  0.57061100  0.58412700  1
  Li  Li4  1  0.22133000  0.92938900  0.41587300  1
  Li  Li5  1  0.70675600  0.32356100  0.82614200  1
  Li  Li6  1  0.77572200  0.34757700  0.32848100  1
  Li  Li7  1  0.72795200  0.84563900  0.08604000  1
  Li  Li8  1  0.27204800  0.15436100  0.91396000  1
  Li  Li9  1  0.22427800  0.65242300  0.67151900  1
  Li  Li10  1  0.29324400  0.67643900  0.17385800  1
  Li  Li11  1  0.77867000  0.07061100  0.58412700  1
  Li  Li12  1  0.27867000  0.42938900  0.41587300  1
  Li  Li13  1  0.79324400  0.82356100  0.82614200  1
  Li  Li14  1  0.22795200  0.65436100  0.91396000  1
  Li  Li15  1  0.27572200  0.15242300  0.67151900  1
  V  V0  1  0.73613100  0.12944100  0.06213900  1
  V  V1  1  0.26751000  0.69183600  0.43739900  1
  V  V2  1  0.76386900  0.62944100  0.06213900  1
  V  V3  1  0.76751000  0.80816400  0.56260100  1
  V  V4  1  0.23249000  0.19183600  0.43739900  1
  V  V5  1  0.23613100  0.37055900  0.93786100  1
  V  V6  1  0.73249000  0.30816400  0.56260100  1
  V  V7  1  0.26386900  0.87055900  0.93786100  1
  Si  Si0  1  0.22386100  0.93383900  0.16157900  1
  Si  Si1  1  0.21899900  0.40849100  0.66141200  1
  Si  Si2  1  0.27613900  0.43383900  0.16157900  1
  Si  Si3  1  0.71899900  0.09150900  0.33858800  1
  Si  Si4  1  0.28100100  0.90849100  0.66141200  1
  Si  Si5  1  0.72386100  0.56616100  0.83842100  1
  Si  Si6  1  0.78100100  0.59150900  0.33858800  1
  Si  Si7  1  0.77613900  0.06616100  0.83842100  1
  O  O0  1  0.90383700  0.96210800  0.13587000  1
  O  O1  1  0.02520400  0.21527100  0.00125000  1
  O  O2  1  0.39421900  0.05812600  0.11966700  1
  O  O3  1  0.61159600  0.66368200  0.39242200  1
  O  O4  1  0.27924900  0.85673000  0.30077200  1
  O  O5  1  0.16345600  0.36147400  0.09474500  1
  O  O6  1  0.79660800  0.15453700  0.20091100  1
  O  O7  1  0.89833600  0.39766500  0.64242300  1
  O  O8  1  0.97568100  0.72579300  0.48843900  1
  O  O9  1  0.59616300  0.46210800  0.13587000  1
  O  O10  1  0.47479600  0.71527100  0.00125000  1
  O  O11  1  0.31778400  0.54812300  0.59782200  1
  O  O12  1  0.81778400  0.95187700  0.40217800  1
  O  O13  1  0.10578100  0.55812600  0.11966700  1
  O  O14  1  0.47568100  0.77420700  0.51156100  1
  O  O15  1  0.39833600  0.10233500  0.35757700  1
  O  O16  1  0.88840400  0.16368200  0.39242200  1
  O  O17  1  0.22075100  0.35673000  0.30077200  1
  O  O18  1  0.29660800  0.34546300  0.79908900  1
  O  O19  1  0.66345600  0.13852600  0.90525500  1
  O  O20  1  0.33654400  0.86147400  0.09474500  1
  O  O21  1  0.70339200  0.65453700  0.20091100  1
  O  O22  1  0.77924900  0.64327000  0.69922800  1
  O  O23  1  0.11159600  0.83631800  0.60757800  1
  O  O24  1  0.60166400  0.89766500  0.64242300  1
  O  O25  1  0.52431900  0.22579300  0.48843900  1
  O  O26  1  0.89421900  0.44187400  0.88033300  1
  O  O27  1  0.18221600  0.04812300  0.59782200  1
  O  O28  1  0.68221600  0.45187700  0.40217800  1
  O  O29  1  0.52520400  0.28472900  0.99875000  1
  O  O30  1  0.40383700  0.53789200  0.86413000  1
  O  O31  1  0.02431900  0.27420700  0.51156100  1
  O  O32  1  0.10166400  0.60233500  0.35757700  1
  O  O33  1  0.20339200  0.84546300  0.79908900  1
  O  O34  1  0.83654400  0.63852600  0.90525500  1
  O  O35  1  0.72075100  0.14327000  0.69922800  1
  O  O36  1  0.38840400  0.33631800  0.60757800  1
  O  O37  1  0.60578100  0.94187400  0.88033300  1
  O  O38  1  0.97479600  0.78472900  0.99875000  1
  O  O39  1  0.09616300  0.03789200  0.86413000  1
loop_
_geom_bond_atom_site_label_1
_geom_bond_atom_site_label_2
_geom_bond_distance
_geom_bond_site_symmetry_2
Li0 O12 2.030994 1_555
Li0 O3 2.149693 1_555
Li0 O4 2.278850 1_555
Li0 O8 2.309378 1_555
Li0 O0 2.415008 1_555
Li0 O14 2.468328 1_555
Li1 O5 2.002701 1_655
Li1 O29 2.076567 1_554
Li1 O9 2.079426 1_555
Li1 O6 2.168120 1_555
Li1 O26 2.453534 1_554
Li2 O5 2.080611 1_555
Li2 O6 2.104985 1_455
Li2 O2 2.162360 1_555
Li2 O1 2.269413 1_555
Li2 O15 2.340281 1_555
Li3 O11 2.061206 1_555
Li3 O22 2.129358 1_555
Li3 O7 2.148595 1_555
Li3 O8 2.184170 1_555
Li3 O3 2.280731 1_555
Li3 O14 2.607945 1_555
Li4 O12 2.061206 1_455
Li4 O4 2.129358 1_555
Li4 O15 2.148595 1_565
Li4 O14 2.184170 1_555
Li4 O23 2.280731 1_555
Li4 O8 2.607945 1_455
Li5 O19 2.080611 1_555
Li5 O18 2.104985 1_555
Li5 O26 2.162360 1_555
Li5 O29 2.269413 1_555
Li5 O7 2.340281 1_555
Li6 O28 2.030994 1_555
Li6 O16 2.149693 1_555
Li6 O17 2.278850 1_655
Li6 O25 2.309378 1_555
Li6 O9 2.415008 1_555
Li6 O31 2.468328 1_655
Li7 O20 2.002701 1_555
Li7 O38 2.076567 1_554
Li7 O0 2.079426 1_555
Li7 O21 2.168120 1_555
Li7 O37 2.453534 1_554
Li8 O19 2.002701 1_555
Li8 O1 2.076567 1_556
Li8 O39 2.079426 1_555
Li8 O18 2.168120 1_555
Li8 O2 2.453534 1_556
Li9 O11 2.030994 1_555
Li9 O23 2.149693 1_555
Li9 O22 2.278850 1_455
Li9 O14 2.309378 1_555
Li9 O30 2.415008 1_555
Li9 O8 2.468328 1_455
Li10 O20 2.080611 1_555
Li10 O21 2.104985 1_555
Li10 O13 2.162360 1_555
Li10 O10 2.269413 1_555
Li10 O32 2.340281 1_555
Li11 O27 2.061206 1_655
Li11 O35 2.129358 1_555
Li11 O24 2.148595 1_545
Li11 O25 2.184170 1_555
Li11 O16 2.280731 1_555
Li11 O31 2.607945 1_655
Li12 O28 2.061206 1_555
Li12 O17 2.129358 1_555
Li12 O32 2.148595 1_555
Li12 O31 2.184170 1_555
Li12 O36 2.280731 1_555
Li12 O25 2.607945 1_555
Li13 O34 2.080611 1_555
Li13 O33 2.104985 1_655
Li13 O37 2.162360 1_555
Li13 O38 2.269413 1_555
Li13 O24 2.340281 1_555
Li14 O34 2.002701 1_455
Li14 O10 2.076567 1_556
Li14 O30 2.079426 1_555
Li14 O33 2.168120 1_555
Li14 O13 2.453534 1_556
Li15 O27 2.030994 1_555
Li15 O36 2.149693 1_555
Li15 O35 2.278850 1_555
Li15 O31 2.309378 1_555
Li15 O39 2.415008 1_555
Li15 O25 2.468328 1_555
O0 Si0 1.660885 1_655
O0 V0 2.054312 1_565
O1 V0 1.773537 1_455
O1 V5 2.040745 1_554
O2 Si0 1.647410 1_545
O2 V0 1.934791 1_555
O3 Si6 1.639597 1_555
O3 V1 1.927903 1_555
O4 Si0 1.634237 1_555
O4 V1 2.008551 1_555
O5 Si2 1.643611 1_555
O5 V5 2.037845 1_554
O6 Si3 1.637436 1_555
O6 V0 2.013547 1_555
O7 Si1 1.659762 1_655
O7 V6 2.054411 1_555
O8 V1 1.759255 1_655
O8 V3 2.028920 1_555
O9 Si2 1.660885 1_555
O9 V2 2.054312 1_555
O10 V2 1.773537 1_555
O10 V7 2.040745 1_554
O11 Si1 1.638606 1_555
O11 V1 2.042977 1_555
O12 Si3 1.638606 1_565
O12 V3 2.042977 1_555
O13 Si2 1.647410 1_555
O13 V2 1.934791 1_455
O14 V3 1.759255 1_555
O14 V1 2.028920 1_555
O15 Si3 1.659762 1_555
O15 V4 2.054411 1_555
O16 Si3 1.639597 1_555
O16 V4 1.927903 1_655
O17 Si2 1.634237 1_555
O17 V4 2.008551 1_555
O18 Si1 1.637436 1_555
O18 V5 2.013547 1_555
O19 Si7 1.643611 1_555
O19 V0 2.037845 1_556
O20 Si0 1.643611 1_555
O20 V7 2.037845 1_554
O21 Si6 1.637436 1_555
O21 V2 2.013547 1_555
O22 Si5 1.634237 1_555
O22 V3 2.008551 1_555
O23 Si4 1.639597 1_555
O23 V3 1.927903 1_455
O24 Si4 1.659762 1_555
O24 V3 2.054411 1_555
O25 V4 1.759255 1_555
O25 V6 2.028920 1_555
O26 Si5 1.647410 1_555
O26 V5 1.934791 1_655
O27 Si4 1.638606 1_545
O27 V4 2.042977 1_555
O28 Si6 1.638606 1_555
O28 V6 2.042977 1_555
O29 V5 1.773537 1_555
O29 V0 2.040745 1_556
O30 Si5 1.660885 1_555
O30 V5 2.054312 1_555
O31 V6 1.759255 1_455
O31 V4 2.028920 1_555
O32 Si6 1.659762 1_455
O32 V1 2.054411 1_555
O33 Si4 1.637436 1_555
O33 V7 2.013547 1_555
O34 Si5 1.643611 1_555
O34 V2 2.037845 1_556
O35 Si7 1.634237 1_555
O35 V6 2.008551 1_555
O36 Si1 1.639597 1_555
O36 V6 1.927903 1_555
O37 Si7 1.647410 1_565
O37 V7 1.934791 1_555
O38 V7 1.773537 1_655
O38 V2 2.040745 1_556
O39 Si7 1.660885 1_455
O39 V7 2.054312 1_545
