# generated using pymatgen
data_Li24Mn5Cr7O36
_symmetry_space_group_name_H-M   'P 1'
_cell_length_a   5.00204900
_cell_length_b   9.73985956
_cell_length_c   13.29953389
_cell_angle_alpha   97.06280891
_cell_angle_beta   100.40374721
_cell_angle_gamma   94.47932051
_symmetry_Int_Tables_number   1
_chemical_formula_structural   Li24Mn5Cr7O36
_chemical_formula_sum   'Li24 Mn5 Cr7 O36'
_cell_volume   629.10709919
_cell_formula_units_Z   1
loop_
 _symmetry_equiv_pos_site_id
 _symmetry_equiv_pos_as_xyz
  1  'x, y, z'
loop_
 _atom_site_type_symbol
 _atom_site_label
 _atom_site_symmetry_multiplicity
 _atom_site_fract_x
 _atom_site_fract_y
 _atom_site_fract_z
 _atom_site_occupancy
  Li  Li0  1  0.16594100  0.99911100  0.83372500  1
  Li  Li1  1  0.04715300  0.00134100  0.61438200  1
  Li  Li2  1  0.99989500  0.75000300  0.24962300  1
  Li  Li3  1  0.33417100  0.75011100  0.91622900  1
  Li  Li4  1  0.04655700  0.49958600  0.11194600  1
  Li  Li5  1  0.37964800  0.49887700  0.77959400  1
  Li  Li6  1  0.16429000  0.50036600  0.33283900  1
  Li  Li7  1  0.50025900  0.50036600  0.99973100  1
  Li  Li8  1  0.28496100  0.49948700  0.55467300  1
  Li  Li9  1  0.33623600  0.24969400  0.41588500  1
  Li  Li10  1  0.49817100  0.00037600  0.50014400  1
  Li  Li11  1  0.28744400  0.99965900  0.05373500  1
  Li  Li12  1  0.61870400  0.00090200  0.72165100  1
  Li  Li13  1  0.38463900  0.00170900  0.28048100  1
  Li  Li14  1  0.70991300  0.99832300  0.94471400  1
  Li  Li15  1  0.66982400  0.74974900  0.58351600  1
  Li  Li16  1  0.71626300  0.50144600  0.44724600  1
  Li  Li17  1  0.83504100  0.49895300  0.66722900  1
  Li  Li18  1  0.61589600  0.49853700  0.21934000  1
  Li  Li19  1  0.95473900  0.50141600  0.88763400  1
  Li  Li20  1  0.66612300  0.25014600  0.08326800  1
  Li  Li21  1  0.83570200  0.00044500  0.16600600  1
  Li  Li22  1  0.00193000  0.25039300  0.74967300  1
  Li  Li23  1  0.94873700  0.99836600  0.38569300  1
  Mn  Mn0  1  0.10915500  0.74889400  0.47236400  1
  Mn  Mn1  1  0.22406300  0.25109800  0.19533100  1
  Mn  Mn2  1  0.44410000  0.25067100  0.63905600  1
  Mn  Mn3  1  0.77802000  0.75107500  0.80583900  1
  Mn  Mn4  1  0.77451400  0.24848100  0.30448800  1
  Cr  Cr0  1  0.10892300  0.25081600  0.97524100  1
  Cr  Cr1  1  0.22839500  0.74991800  0.69307500  1
  Cr  Cr2  1  0.55880400  0.24939900  0.85870800  1
  Cr  Cr3  1  0.44202900  0.74963600  0.14141100  1
  Cr  Cr4  1  0.56020000  0.75088100  0.36303300  1
  Cr  Cr5  1  0.89452100  0.24968600  0.52563300  1
  Cr  Cr6  1  0.88954500  0.74951700  0.02519800  1
  O  O0  1  0.99893300  0.86177000  0.92769500  1
  O  O1  1  0.06914200  0.63654700  0.78458400  1
  O  O2  1  0.99340200  0.36070100  0.42831900  1
  O  O3  1  0.14803900  0.36330000  0.64441600  1
  O  O4  1  0.26849800  0.36458800  0.88304600  1
  O  O5  1  0.32834800  0.86104500  0.59551300  1
  O  O6  1  0.07026900  0.13659000  0.28535700  1
  O  O7  1  0.18773900  0.13873400  0.52501900  1
  O  O8  1  0.39882900  0.13569800  0.95091500  1
  O  O9  1  0.15017300  0.86274300  0.14227300  1
  O  O10  1  0.25833200  0.86415000  0.38215200  1
  O  O11  1  0.48088800  0.86316300  0.81115900  1
  O  O12  1  0.33053800  0.13761900  0.73557800  1
  O  O13  1  0.18222000  0.63744500  0.02407700  1
  O  O14  1  0.40201100  0.63599000  0.45123600  1
  O  O15  1  0.52135400  0.63892300  0.69176400  1
  O  O16  1  0.33754500  0.63783400  0.23854400  1
  O  O17  1  0.66484100  0.63795700  0.90251800  1
  O  O18  1  0.33583300  0.36253300  0.09805500  1
  O  O19  1  0.66516000  0.36122600  0.76155100  1
  O  O20  1  0.47521100  0.36137100  0.30984500  1
  O  O21  1  0.59677800  0.36358000  0.54857300  1
  O  O22  1  0.81903500  0.36286900  0.97611200  1
  O  O23  1  0.66381400  0.86222000  0.26426900  1
  O  O24  1  0.52428900  0.13896500  0.18987600  1
  O  O25  1  0.73564700  0.13617200  0.61752200  1
  O  O26  1  0.84880800  0.13759200  0.85797800  1
  O  O27  1  0.60246200  0.86477100  0.04923400  1
  O  O28  1  0.81078200  0.86189500  0.47659800  1
  O  O29  1  0.93032500  0.86361400  0.71519500  1
  O  O30  1  0.66389900  0.13664500  0.40187300  1
  O  O31  1  0.73139100  0.63523600  0.11723400  1
  O  O32  1  0.86133900  0.63817300  0.35732500  1
  O  O33  1  0.99668200  0.63656600  0.56908200  1
  O  O34  1  0.92886100  0.36348100  0.21461400  1
  O  O35  1  0.00407300  0.13886200  0.07256300  1
loop_
_geom_bond_atom_site_label_1
_geom_bond_atom_site_label_2
_geom_bond_distance
_geom_bond_site_symmetry_2
Li0 O8 2.036735 1_565
Li0 O29 2.046983 1_455
Li0 O0 2.159348 1_455
Li0 O11 2.173485 1_555
Li0 O12 2.202116 1_565
Li0 O26 2.202651 1_465
Li1 O7 2.060032 1_555
Li1 O5 2.062026 1_545
Li1 O25 2.117511 1_455
Li1 O29 2.131067 1_445
Li1 O12 2.173471 1_555
Li1 O28 2.226015 1_445
Li2 O32 2.083925 1_555
Li2 O16 2.099124 1_655
Li2 O23 2.100364 1_555
Li2 O9 2.110297 1_655
Li2 O10 2.117669 1_655
Li2 O31 2.140300 1_555
Li3 O17 2.074725 1_555
Li3 O11 2.079964 1_555
Li3 O0 2.086707 1_455
Li3 O13 2.118891 1_556
Li3 O1 2.121958 1_555
Li3 O27 2.144743 1_556
Li4 O13 2.039370 1_555
Li4 O18 2.060913 1_555
Li4 O31 2.139709 1_455
Li4 O34 2.140535 1_455
Li4 O22 2.181996 1_454
Li4 O16 2.240036 1_555
Li5 O19 2.058736 1_555
Li5 O15 2.065742 1_555
Li5 O4 2.125580 1_555
Li5 O1 2.134327 1_555
Li5 O3 2.177842 1_555
Li5 O17 2.203173 1_555
Li6 O14 2.050664 1_555
Li6 O34 2.051117 1_455
Li6 O32 2.142992 1_455
Li6 O16 2.177307 1_555
Li6 O20 2.178046 1_555
Li6 O2 2.197456 1_455
Li7 O4 2.026618 1_555
Li7 O31 2.027263 1_556
Li7 O17 2.187092 1_555
Li7 O13 2.197657 1_556
Li7 O18 2.199170 1_556
Li7 O22 2.201287 1_555
Li8 O3 2.048345 1_555
Li8 O33 2.058208 1_455
Li8 O21 2.129161 1_555
Li8 O14 2.149873 1_555
Li8 O15 2.220006 1_555
Li8 O2 2.241962 1_455
Li9 O20 2.066029 1_555
Li9 O30 2.067637 1_555
Li9 O6 2.112753 1_555
Li9 O7 2.115682 1_555
Li9 O2 2.117823 1_455
Li9 O21 2.122542 1_555
Li10 O25 2.043148 1_555
Li10 O10 2.054661 1_545
Li10 O7 2.177008 1_555
Li10 O28 2.182854 1_545
Li10 O30 2.191560 1_555
Li10 O5 2.191873 1_545
Li11 O9 2.042421 1_555
Li11 O35 2.062753 1_565
Li11 O8 2.131059 1_564
Li11 O27 2.133227 1_555
Li11 O24 2.211986 1_565
Li11 O0 2.228498 1_454
Li12 O12 2.054447 1_555
Li12 O11 2.058335 1_545
Li12 O29 2.137928 1_545
Li12 O25 2.148662 1_555
Li12 O26 2.190406 1_555
Li12 O5 2.242377 1_545
Li13 O23 2.043381 1_545
Li13 O24 2.069169 1_555
Li13 O6 2.131048 1_555
Li13 O10 2.155101 1_545
Li13 O30 2.159156 1_555
Li13 O9 2.224353 1_545
Li14 O26 2.044601 1_565
Li14 O0 2.062684 1_555
Li14 O27 2.125671 1_556
Li14 O8 2.136075 1_565
Li14 O11 2.157512 1_555
Li14 O35 2.267002 1_666
Li15 O33 2.065923 1_555
Li15 O28 2.082295 1_555
Li15 O15 2.105320 1_555
Li15 O5 2.112623 1_555
Li15 O29 2.113595 1_555
Li15 O14 2.134211 1_555
Li16 O2 2.049947 1_555
Li16 O32 2.069870 1_555
Li16 O14 2.127376 1_555
Li16 O21 2.141698 1_555
Li16 O33 2.165969 1_555
Li16 O20 2.233527 1_555
Li17 O1 2.045390 1_655
Li17 O21 2.052507 1_555
Li17 O3 2.164491 1_655
Li17 O19 2.171616 1_555
Li17 O33 2.190020 1_555
Li17 O15 2.199246 1_555
Li18 O16 2.045191 1_555
Li18 O20 2.069639 1_555
Li18 O34 2.126462 1_555
Li18 O31 2.135025 1_555
Li18 O18 2.165101 1_555
Li18 O32 2.244196 1_555
Li19 O22 2.049946 1_555
Li19 O17 2.061720 1_555
Li19 O1 2.132428 1_655
Li19 O4 2.141074 1_655
Li19 O13 2.184157 1_656
Li19 O19 2.241676 1_555
Li20 O24 2.075356 1_555
Li20 O18 2.076851 1_555
Li20 O35 2.094720 1_655
Li20 O34 2.113582 1_555
Li20 O22 2.113930 1_554
Li20 O8 2.136188 1_554
Li21 O27 2.029615 1_545
Li21 O6 2.054585 1_655
Li21 O35 2.164241 1_655
Li21 O24 2.179222 1_555
Li21 O9 2.185753 1_645
Li21 O23 2.217494 1_545
Li22 O12 2.070286 1_555
Li22 O3 2.079817 1_555
Li22 O19 2.089536 1_455
Li22 O26 2.127124 1_455
Li22 O25 2.131424 1_455
Li22 O4 2.142507 1_555
Li23 O30 2.056549 1_565
Li23 O28 2.063461 1_555
Li23 O10 2.106350 1_655
Li23 O6 2.137673 1_665
Li23 O23 2.178163 1_555
Li23 O7 2.248003 1_665
Mn0 O33 1.918164 1_455
Mn0 O28 1.927096 1_455
Mn0 O32 1.934122 1_455
Mn0 O14 1.938658 1_555
Mn0 O10 1.944262 1_555
Mn0 O5 1.949924 1_555
Mn1 O18 1.917304 1_555
Mn1 O24 1.931157 1_555
Mn1 O20 1.935771 1_555
Mn1 O34 1.940231 1_455
Mn1 O35 1.948348 1_555
Mn1 O6 1.948393 1_555
Mn2 O3 1.916825 1_555
Mn2 O12 1.922565 1_555
Mn2 O21 1.940857 1_555
Mn2 O19 1.941195 1_555
Mn2 O25 1.943905 1_555
Mn2 O7 1.950847 1_555
Mn3 O11 1.917886 1_555
Mn3 O17 1.923914 1_555
Mn3 O0 1.935808 1_555
Mn3 O29 1.939423 1_555
Mn3 O1 1.941548 1_655
Mn3 O15 1.952730 1_555
Mn4 O30 1.918786 1_555
Mn4 O24 1.931425 1_555
Mn4 O20 1.931793 1_555
Mn4 O6 1.939216 1_655
Mn4 O34 1.951103 1_555
Mn4 O2 1.955729 1_555
Cr0 O22 1.882549 1_455
Cr0 O35 1.908481 1_556
Cr0 O8 1.949076 1_555
Cr0 O18 1.959744 1_556
Cr0 O4 1.979384 1_555
Cr0 O26 1.990297 1_455
Cr1 O15 1.889035 1_555
Cr1 O5 1.897417 1_555
Cr1 O29 1.967740 1_455
Cr1 O1 1.969323 1_555
Cr1 O11 1.979428 1_555
Cr1 O33 1.985883 1_455
Cr2 O26 1.881355 1_555
Cr2 O19 1.908619 1_555
Cr2 O4 1.951175 1_555
Cr2 O12 1.965389 1_555
Cr2 O8 1.980032 1_555
Cr2 O22 1.992664 1_555
Cr3 O9 1.897142 1_555
Cr3 O16 1.904892 1_555
Cr3 O31 1.942109 1_555
Cr3 O23 1.953882 1_555
Cr3 O13 1.986074 1_555
Cr3 O27 1.989272 1_555
Cr4 O23 1.917885 1_555
Cr4 O28 1.929860 1_555
Cr4 O32 1.938790 1_555
Cr4 O14 1.942710 1_555
Cr4 O16 1.971823 1_555
Cr4 O10 1.972718 1_555
Cr5 O7 1.889126 1_655
Cr5 O2 1.892251 1_555
Cr5 O21 1.969944 1_555
Cr5 O25 1.973115 1_555
Cr5 O30 1.980484 1_555
Cr5 O3 1.988884 1_655
Cr6 O13 1.894320 1_655
Cr6 O0 1.920356 1_554
Cr6 O27 1.937464 1_555
Cr6 O17 1.953713 1_554
Cr6 O31 1.977442 1_555
Cr6 O9 1.990019 1_655
