# generated using pymatgen
data_LiCoSiO4
_symmetry_space_group_name_H-M   'P 1'
_cell_length_a   5.27866600
_cell_length_b   8.19829600
_cell_length_c   8.46434239
_cell_angle_alpha   75.31709669
_cell_angle_beta   90.00000000
_cell_angle_gamma   90.00000000
_symmetry_Int_Tables_number   1
_chemical_formula_structural   LiCoSiO4
_chemical_formula_sum   'Li4 Co4 Si4 O16'
_cell_volume   354.34122887
_cell_formula_units_Z   4
loop_
 _symmetry_equiv_pos_site_id
 _symmetry_equiv_pos_as_xyz
  1  'x, y, z'
loop_
 _atom_site_type_symbol
 _atom_site_label
 _atom_site_symmetry_multiplicity
 _atom_site_fract_x
 _atom_site_fract_y
 _atom_site_fract_z
 _atom_site_occupancy
  Li  Li0  1  0.84403200  0.03253400  0.07704600  1
  Li  Li1  1  0.32889000  0.49378100  0.28011100  1
  Li  Li2  1  0.15596800  0.03253400  0.57704600  1
  Li  Li3  1  0.67111000  0.49378100  0.78011100  1
  Co  Co0  1  0.33024200  0.12964700  0.21388200  1
  Co  Co1  1  0.82058300  0.63649900  0.37712600  1
  Co  Co2  1  0.66975800  0.12964700  0.71388200  1
  Co  Co3  1  0.17941700  0.63649900  0.87712600  1
  Si  Si0  1  0.67567200  0.75251600  0.00391000  1
  Si  Si1  1  0.82714100  0.26045600  0.33479400  1
  Si  Si2  1  0.32432800  0.75251600  0.50391000  1
  Si  Si3  1  0.17285900  0.26045600  0.83479400  1
  O  O0  1  0.18337000  0.12684800  0.01747200  1
  O  O1  1  0.38530500  0.67794300  0.03888400  1
  O  O2  1  0.67897600  0.17399900  0.20467300  1
  O  O3  1  0.12743700  0.29236000  0.28202700  1
  O  O4  1  0.79305800  0.78495600  0.17341500  1
  O  O5  1  0.68621700  0.43741800  0.33795700  1
  O  O6  1  0.81663000  0.12684800  0.51747200  1
  O  O7  1  0.16480900  0.61842900  0.42661800  1
  O  O8  1  0.29880200  0.94381600  0.38588200  1
  O  O9  1  0.61469500  0.67794300  0.53888400  1
  O  O10  1  0.32102400  0.17399900  0.70467300  1
  O  O11  1  0.87256300  0.29236000  0.78202700  1
  O  O12  1  0.20694200  0.78495600  0.67341500  1
  O  O13  1  0.31378300  0.43741800  0.83795700  1
  O  O14  1  0.83519100  0.61842900  0.92661800  1
  O  O15  1  0.70119800  0.94381600  0.88588200  1
loop_
_geom_bond_atom_site_label_1
_geom_bond_atom_site_label_2
_geom_bond_distance
_geom_bond_site_symmetry_2
Li0 O0 1.965468 1_655
Li0 O2 1.976443 1_555
Li0 O4 2.004548 1_545
Li0 O15 2.076602 1_544
Li1 O3 1.960697 1_555
Li1 O5 1.973917 1_555
Li1 O7 1.993662 1_555
Li1 O1 2.230359 1_555
Li2 O6 1.965468 1_455
Li2 O10 1.976443 1_555
Li2 O12 2.004548 1_545
Li2 O8 2.076602 1_545
Li3 O11 1.960697 1_555
Li3 O13 1.973917 1_555
Li3 O14 1.993662 1_555
Li3 O9 2.230359 1_555
Co0 O8 1.828590 1_545
Co0 O0 1.839778 1_555
Co0 O2 1.874207 1_555
Co0 O3 1.910049 1_555
Co1 O9 1.845828 1_555
Co1 O4 1.847080 1_555
Co1 O7 1.862166 1_655
Co1 O5 1.884444 1_555
Co2 O15 1.828590 1_545
Co2 O6 1.839778 1_555
Co2 O10 1.874207 1_555
Co2 O11 1.910049 1_555
Co3 O1 1.845828 1_556
Co3 O12 1.847080 1_555
Co3 O14 1.862166 1_455
Co3 O13 1.884444 1_555
O0 Si3 1.653836 1_554
O1 Si0 1.648935 1_555
O2 Si1 1.650123 1_555
O3 Si1 1.649672 1_455
O4 Si0 1.645182 1_555
O5 Si1 1.636632 1_555
O6 Si1 1.653836 1_555
O7 Si2 1.646227 1_555
O8 Si2 1.637562 1_555
O9 Si2 1.648935 1_555
O10 Si3 1.650123 1_555
O11 Si3 1.649672 1_655
O12 Si2 1.645182 1_555
O13 Si3 1.636632 1_555
O14 Si0 1.646227 1_556
O15 Si0 1.637562 1_556
