# generated using pymatgen
data_CaHg(IO2)4
_symmetry_space_group_name_H-M   'P 1'
_cell_length_a   13.74557900
_cell_length_b   13.74557900
_cell_length_c   13.41458100
_cell_angle_alpha   90.00000000
_cell_angle_beta   90.00000000
_cell_angle_gamma   90.00000000
_symmetry_Int_Tables_number   1
_chemical_formula_structural   CaHg(IO2)4
_chemical_formula_sum   'Ca8 Hg8 I32 O64'
_cell_volume   2534.56357128
_cell_formula_units_Z   8
loop_
 _symmetry_equiv_pos_site_id
 _symmetry_equiv_pos_as_xyz
  1  'x, y, z'
loop_
 _atom_site_type_symbol
 _atom_site_label
 _atom_site_symmetry_multiplicity
 _atom_site_fract_x
 _atom_site_fract_y
 _atom_site_fract_z
 _atom_site_occupancy
  Ca  Ca0  1  0.00000000  0.00000000  0.75000000  1
  Ca  Ca1  1  0.00000000  0.00000000  0.25000000  1
  Ca  Ca2  1  0.50000000  0.50000000  0.75000000  1
  Ca  Ca3  1  0.50000000  0.50000000  0.25000000  1
  Ca  Ca4  1  0.50000000  0.00000000  0.75000000  1
  Ca  Ca5  1  0.00000000  0.50000000  0.25000000  1
  Ca  Ca6  1  0.00000000  0.50000000  0.75000000  1
  Ca  Ca7  1  0.50000000  0.00000000  0.25000000  1
  Hg  Hg0  1  0.33016600  0.25819200  0.00000000  1
  Hg  Hg1  1  0.74180800  0.33016600  0.50000000  1
  Hg  Hg2  1  0.83016600  0.24180800  0.00000000  1
  Hg  Hg3  1  0.75819200  0.83016600  0.50000000  1
  Hg  Hg4  1  0.66983400  0.74180800  0.00000000  1
  Hg  Hg5  1  0.25819200  0.66983400  0.50000000  1
  Hg  Hg6  1  0.16983400  0.75819200  0.00000000  1
  Hg  Hg7  1  0.24180800  0.16983400  0.50000000  1
  I  I0  1  0.10636700  0.24483100  0.19469900  1
  I  I1  1  0.75516900  0.10636700  0.69469900  1
  I  I2  1  0.60636700  0.25516900  0.19469900  1
  I  I3  1  0.74483100  0.60636700  0.69469900  1
  I  I4  1  0.10636700  0.24483100  0.80530100  1
  I  I5  1  0.75516900  0.10636700  0.30530100  1
  I  I6  1  0.60636700  0.25516900  0.80530100  1
  I  I7  1  0.74483100  0.60636700  0.30530100  1
  I  I8  1  0.89363300  0.75516900  0.80530100  1
  I  I9  1  0.24483100  0.89363300  0.30530100  1
  I  I10  1  0.39363300  0.74483100  0.80530100  1
  I  I11  1  0.25516900  0.39363300  0.30530100  1
  I  I12  1  0.89363300  0.75516900  0.19469900  1
  I  I13  1  0.24483100  0.89363300  0.69469900  1
  I  I14  1  0.39363300  0.74483100  0.19469900  1
  I  I15  1  0.25516900  0.39363300  0.69469900  1
  I  I16  1  0.36536000  0.53937400  0.00000000  1
  I  I17  1  0.46062600  0.36536000  0.50000000  1
  I  I18  1  0.86536000  0.96062600  0.00000000  1
  I  I19  1  0.03937400  0.86536000  0.50000000  1
  I  I20  1  0.63464000  0.46062600  0.00000000  1
  I  I21  1  0.53937400  0.63464000  0.50000000  1
  I  I22  1  0.13464000  0.03937400  0.00000000  1
  I  I23  1  0.96062600  0.13464000  0.50000000  1
  I  I24  1  0.56627500  0.09545700  0.00000000  1
  I  I25  1  0.90454300  0.56627500  0.50000000  1
  I  I26  1  0.06627500  0.40454300  0.00000000  1
  I  I27  1  0.59545700  0.06627500  0.50000000  1
  I  I28  1  0.43372500  0.90454300  0.00000000  1
  I  I29  1  0.09545700  0.43372500  0.50000000  1
  I  I30  1  0.93372500  0.59545700  0.00000000  1
  I  I31  1  0.40454300  0.93372500  0.50000000  1
  O  O0  1  0.61888300  0.03003600  0.11133100  1
  O  O1  1  0.96996400  0.61888300  0.61133100  1
  O  O2  1  0.11888300  0.46996400  0.11133100  1
  O  O3  1  0.53003600  0.11888300  0.61133100  1
  O  O4  1  0.61888300  0.03003600  0.88866900  1
  O  O5  1  0.96996400  0.61888300  0.38866900  1
  O  O6  1  0.11888300  0.46996400  0.88866900  1
  O  O7  1  0.53003600  0.11888300  0.38866900  1
  O  O8  1  0.38111700  0.96996400  0.88866900  1
  O  O9  1  0.03003600  0.38111700  0.38866900  1
  O  O10  1  0.88111700  0.53003600  0.88866900  1
  O  O11  1  0.46996400  0.88111700  0.38866900  1
  O  O12  1  0.38111700  0.96996400  0.11133100  1
  O  O13  1  0.03003600  0.38111700  0.61133100  1
  O  O14  1  0.88111700  0.53003600  0.11133100  1
  O  O15  1  0.46996400  0.88111700  0.61133100  1
  O  O16  1  0.15990700  0.92041000  0.79592000  1
  O  O17  1  0.07959000  0.15990700  0.29592000  1
  O  O18  1  0.65990700  0.57959000  0.79592000  1
  O  O19  1  0.42041000  0.65990700  0.29592000  1
  O  O20  1  0.15990700  0.92041000  0.20408000  1
  O  O21  1  0.07959000  0.15990700  0.70408000  1
  O  O22  1  0.65990700  0.57959000  0.20408000  1
  O  O23  1  0.42041000  0.65990700  0.70408000  1
  O  O24  1  0.84009300  0.07959000  0.20408000  1
  O  O25  1  0.92041000  0.84009300  0.70408000  1
  O  O26  1  0.34009300  0.42041000  0.20408000  1
  O  O27  1  0.57959000  0.34009300  0.70408000  1
  O  O28  1  0.84009300  0.07959000  0.79592000  1
  O  O29  1  0.92041000  0.84009300  0.29592000  1
  O  O30  1  0.34009300  0.42041000  0.79592000  1
  O  O31  1  0.57959000  0.34009300  0.29592000  1
  O  O32  1  0.99381800  0.31579800  0.81693400  1
  O  O33  1  0.68420200  0.99381800  0.31693400  1
  O  O34  1  0.49381800  0.18420200  0.81693400  1
  O  O35  1  0.81579800  0.49381800  0.31693400  1
  O  O36  1  0.99381800  0.31579800  0.18306600  1
  O  O37  1  0.68420200  0.99381800  0.68306600  1
  O  O38  1  0.49381800  0.18420200  0.18306600  1
  O  O39  1  0.81579800  0.49381800  0.68306600  1
  O  O40  1  0.00618200  0.68420200  0.18306600  1
  O  O41  1  0.31579800  0.00618200  0.68306600  1
  O  O42  1  0.50618200  0.81579800  0.18306600  1
  O  O43  1  0.18420200  0.50618200  0.68306600  1
  O  O44  1  0.00618200  0.68420200  0.81693400  1
  O  O45  1  0.31579800  0.00618200  0.31693400  1
  O  O46  1  0.50618200  0.81579800  0.81693400  1
  O  O47  1  0.18420200  0.50618200  0.31693400  1
  O  O48  1  0.58977800  0.56007400  0.60606300  1
  O  O49  1  0.43992600  0.58977800  0.10606300  1
  O  O50  1  0.08977800  0.93992600  0.60606300  1
  O  O51  1  0.06007400  0.08977800  0.10606300  1
  O  O52  1  0.58977800  0.56007400  0.39393700  1
  O  O53  1  0.43992600  0.58977800  0.89393700  1
  O  O54  1  0.08977800  0.93992600  0.39393700  1
  O  O55  1  0.06007400  0.08977800  0.89393700  1
  O  O56  1  0.41022200  0.43992600  0.39393700  1
  O  O57  1  0.56007400  0.41022200  0.89393700  1
  O  O58  1  0.91022200  0.06007400  0.39393700  1
  O  O59  1  0.93992600  0.91022200  0.89393700  1
  O  O60  1  0.41022200  0.43992600  0.60606300  1
  O  O61  1  0.56007400  0.41022200  0.10606300  1
  O  O62  1  0.91022200  0.06007400  0.60606300  1
  O  O63  1  0.93992600  0.91022200  0.10606300  1
loop_
_geom_bond_atom_site_label_1
_geom_bond_atom_site_label_2
_geom_bond_distance
_geom_bond_site_symmetry_2
Ca0 O62 2.435764 1_455
Ca0 O55 2.435764 1_555
Ca0 O50 2.435764 1_545
Ca0 O59 2.435764 1_445
Ca0 O25 2.531320 1_445
Ca0 O16 2.531320 1_545
Ca0 O21 2.531320 1_555
Ca0 O28 2.531320 1_455
Ca1 O58 2.435764 1_455
Ca1 O54 2.435764 1_545
Ca1 O51 2.435764 1_555
Ca1 O63 2.435764 1_445
Ca1 O20 2.531320 1_545
Ca1 O29 2.531320 1_445
Ca1 O17 2.531320 1_555
Ca1 O24 2.531320 1_455
Ca2 O57 2.435764 1_555
Ca2 O48 2.435764 1_555
Ca2 O53 2.435764 1_555
Ca2 O60 2.435764 1_555
Ca2 O23 2.531320 1_555
Ca2 O30 2.531320 1_555
Ca2 O27 2.531320 1_555
Ca2 O18 2.531320 1_555
Ca3 O52 2.435764 1_555
Ca3 O56 2.435764 1_555
Ca3 O61 2.435764 1_555
Ca3 O49 2.435764 1_555
Ca3 O26 2.531320 1_555
Ca3 O19 2.531320 1_555
Ca3 O22 2.531320 1_555
Ca3 O31 2.531320 1_555
Ca4 O4 2.510196 1_555
Ca4 O3 2.510196 1_555
Ca4 O8 2.510196 1_545
Ca4 O15 2.510196 1_545
Ca4 O34 2.687800 1_555
Ca4 O37 2.687800 1_545
Ca4 O46 2.687800 1_545
Ca4 O41 2.687800 1_555
Ca5 O2 2.510196 1_555
Ca5 O9 2.510196 1_555
Ca5 O5 2.510196 1_455
Ca5 O14 2.510196 1_455
Ca5 O47 2.687800 1_555
Ca5 O40 2.687800 1_555
Ca5 O35 2.687800 1_455
Ca5 O36 2.687800 1_455
Ca6 O6 2.510196 1_555
Ca6 O10 2.510196 1_455
Ca6 O13 2.510196 1_555
Ca6 O1 2.510196 1_455
Ca6 O44 2.687800 1_555
Ca6 O43 2.687800 1_555
Ca6 O32 2.687800 1_455
Ca6 O39 2.687800 1_455
Ca7 O7 2.510196 1_555
Ca7 O0 2.510196 1_555
Ca7 O12 2.510196 1_545
Ca7 O11 2.510196 1_545
Ca7 O33 2.687800 1_545
Ca7 O38 2.687800 1_555
Ca7 O45 2.687800 1_555
Ca7 O42 2.687800 1_545
I0 O17 1.828073 1_555
I0 O36 1.835561 1_455
I0 O51 2.522117 1_555
I1 O28 1.828073 1_555
I1 O37 1.835561 1_545
I1 O62 2.522117 1_555
I2 O31 1.828073 1_555
I2 O38 1.835561 1_555
I2 O61 2.522117 1_555
I3 O18 1.828073 1_555
I3 O39 1.835561 1_555
I3 O48 2.522117 1_555
I4 O21 1.828073 1_555
I4 O32 1.835561 1_455
I4 O55 2.522117 1_555
I5 O24 1.828073 1_555
I5 O33 1.835561 1_545
I5 O58 2.522117 1_555
I6 O27 1.828073 1_555
I6 O34 1.835561 1_555
I6 O57 2.522117 1_555
I7 O22 1.828073 1_555
I7 O35 1.835561 1_555
I7 O52 2.522117 1_555
I8 O25 1.828073 1_555
I8 O44 1.835561 1_655
I8 O59 2.522117 1_555
I9 O20 1.828073 1_555
I9 O45 1.835561 1_565
I9 O54 2.522117 1_555
I10 O23 1.828073 1_555
I10 O46 1.835561 1_555
I10 O53 2.522117 1_555
I11 O26 1.828073 1_555
I11 O47 1.835561 1_555
I11 O56 2.522117 1_555
I12 O29 1.828073 1_555
I12 O40 1.835561 1_655
I12 O63 2.522117 1_555
I13 O16 1.828073 1_555
I13 O41 1.835561 1_565
I13 O50 2.522117 1_555
I14 O19 1.828073 1_555
I14 O42 1.835561 1_555
I14 O49 2.522117 1_555
I15 O30 1.828073 1_555
I15 O43 1.835561 1_555
I15 O60 2.522117 1_555
I16 O49 1.885438 1_555
I16 O53 1.885438 1_554
I17 O60 1.885438 1_555
I17 O56 1.885438 1_555
I18 O63 1.885438 1_555
I18 O59 1.885438 1_554
I19 O54 1.885438 1_555
I19 O50 1.885438 1_555
I20 O61 1.885438 1_555
I20 O57 1.885438 1_554
I21 O48 1.885438 1_555
I21 O52 1.885438 1_555
I22 O51 1.885438 1_555
I22 O55 1.885438 1_554
I23 O58 1.885438 1_555
I23 O62 1.885438 1_555
I24 O0 1.887321 1_555
I24 O4 1.887321 1_554
I25 O1 1.887321 1_555
I25 O5 1.887321 1_555
I26 O2 1.887321 1_555
I26 O6 1.887321 1_554
I27 O3 1.887321 1_555
I27 O7 1.887321 1_555
I28 O12 1.887321 1_555
I28 O8 1.887321 1_554
I29 O13 1.887321 1_555
I29 O9 1.887321 1_555
I30 O14 1.887321 1_555
I30 O10 1.887321 1_554
I31 O15 1.887321 1_555
I31 O11 1.887321 1_555
