# generated using pymatgen
data_Li4Ti4Mn4CoO18
_symmetry_space_group_name_H-M   'P 1'
_cell_length_a   2.93899600
_cell_length_b   9.10539800
_cell_length_c   25.05867800
_cell_angle_alpha   90.00000000
_cell_angle_beta   90.00000000
_cell_angle_gamma   90.00000000
_symmetry_Int_Tables_number   1
_chemical_formula_structural   Li4Ti4Mn4CoO18
_chemical_formula_sum   'Li8 Ti8 Mn8 Co2 O36'
_cell_volume   670.58847353
_cell_formula_units_Z   2
loop_
 _symmetry_equiv_pos_site_id
 _symmetry_equiv_pos_as_xyz
  1  'x, y, z'
loop_
 _atom_site_type_symbol
 _atom_site_label
 _atom_site_symmetry_multiplicity
 _atom_site_fract_x
 _atom_site_fract_y
 _atom_site_fract_z
 _atom_site_occupancy
  Li  Li0  1  0.50000000  0.69948300  0.98940000  1
  Li  Li1  1  0.50000000  0.70542500  0.19385900  1
  Li  Li2  1  0.50000000  0.79457500  0.69385900  1
  Li  Li3  1  0.50000000  0.80051700  0.48940000  1
  Li  Li4  1  0.50000000  0.19948300  0.51060000  1
  Li  Li5  1  0.50000000  0.20542500  0.30614100  1
  Li  Li6  1  0.50000000  0.29457500  0.80614100  1
  Li  Li7  1  0.50000000  0.30051700  0.01060000  1
  Ti  Ti0  1  0.50000000  0.50373200  0.10212800  1
  Ti  Ti1  1  0.00000000  0.64613400  0.80528600  1
  Ti  Ti2  1  0.00000000  0.85386600  0.30528600  1
  Ti  Ti3  1  0.50000000  0.99626800  0.60212800  1
  Ti  Ti4  1  0.50000000  0.00373200  0.39787200  1
  Ti  Ti5  1  0.00000000  0.14613400  0.69471400  1
  Ti  Ti6  1  0.00000000  0.35386600  0.19471400  1
  Ti  Ti7  1  0.50000000  0.49626800  0.89787200  1
  Mn  Mn0  1  0.50000000  0.51770200  0.31496100  1
  Mn  Mn1  1  0.00000000  0.64222400  0.58301900  1
  Mn  Mn2  1  0.00000000  0.85777600  0.08301900  1
  Mn  Mn3  1  0.50000000  0.98229800  0.81496100  1
  Mn  Mn4  1  0.50000000  0.01770200  0.18503900  1
  Mn  Mn5  1  0.00000000  0.14222400  0.91698100  1
  Mn  Mn6  1  0.00000000  0.35777600  0.41698100  1
  Mn  Mn7  1  0.50000000  0.48229800  0.68503900  1
  Co  Co0  1  0.50000000  0.50000000  0.50000000  1
  Co  Co1  1  0.50000000  0.00000000  0.00000000  1
  O  O0  1  0.50000000  0.49744700  0.42362000  1
  O  O1  1  0.50000000  0.50255300  0.57638000  1
  O  O2  1  0.00000000  0.55167800  0.94202000  1
  O  O3  1  0.00000000  0.55301900  0.15905600  1
  O  O4  1  0.00000000  0.61557300  0.65994600  1
  O  O5  1  0.50000000  0.61080800  0.75718700  1
  O  O6  1  0.00000000  0.64115700  0.50507500  1
  O  O7  1  0.00000000  0.64448100  0.29043300  1
  O  O8  1  0.50000000  0.67868300  0.85762400  1
  O  O9  1  0.50000000  0.71057200  0.08217500  1
  O  O10  1  0.50000000  0.78942800  0.58217500  1
  O  O11  1  0.50000000  0.82131700  0.35762400  1
  O  O12  1  0.00000000  0.85551900  0.79043300  1
  O  O13  1  0.00000000  0.85884300  0.00507500  1
  O  O14  1  0.50000000  0.88919200  0.25718700  1
  O  O15  1  0.00000000  0.88442700  0.15994600  1
  O  O16  1  0.00000000  0.94698100  0.65905600  1
  O  O17  1  0.00000000  0.94832200  0.44202000  1
  O  O18  1  0.50000000  0.99744700  0.07638000  1
  O  O19  1  0.50000000  0.00255300  0.92362000  1
  O  O20  1  0.00000000  0.05167800  0.55798000  1
  O  O21  1  0.00000000  0.05301900  0.34094400  1
  O  O22  1  0.00000000  0.11557300  0.84005400  1
  O  O23  1  0.50000000  0.11080800  0.74281300  1
  O  O24  1  0.00000000  0.14115700  0.99492500  1
  O  O25  1  0.00000000  0.14448100  0.20956700  1
  O  O26  1  0.50000000  0.17868300  0.64237600  1
  O  O27  1  0.50000000  0.21057200  0.41782500  1
  O  O28  1  0.50000000  0.28942800  0.91782500  1
  O  O29  1  0.50000000  0.32131700  0.14237600  1
  O  O30  1  0.00000000  0.35551900  0.70956700  1
  O  O31  1  0.00000000  0.35884300  0.49492500  1
  O  O32  1  0.50000000  0.38919200  0.24281300  1
  O  O33  1  0.00000000  0.38442700  0.34005400  1
  O  O34  1  0.00000000  0.44698100  0.84094400  1
  O  O35  1  0.00000000  0.44832200  0.05798000  1
loop_
_geom_bond_atom_site_label_1
_geom_bond_atom_site_label_2
_geom_bond_distance
_geom_bond_site_symmetry_2
Li0 O13 2.102194 1_556
Li0 O13 2.102194 1_656
Li0 O2 2.319547 1_655
Li0 O2 2.319547 1_555
Li0 O9 2.327010 1_556
Li1 O3 2.201311 1_655
Li1 O3 2.201311 1_555
Li1 O14 2.306109 1_555
Li1 O15 2.353324 1_555
Li1 O15 2.353324 1_655
Li2 O16 2.201311 1_655
Li2 O16 2.201311 1_555
Li2 O5 2.306109 1_555
Li2 O4 2.353324 1_555
Li2 O4 2.353324 1_655
Li3 O6 2.102194 1_555
Li3 O6 2.102194 1_655
Li3 O17 2.319547 1_555
Li3 O17 2.319547 1_655
Li3 O10 2.327010 1_555
Li4 O31 2.102194 1_655
Li4 O31 2.102194 1_555
Li4 O20 2.319547 1_555
Li4 O20 2.319547 1_655
Li4 O27 2.327010 1_555
Li5 O21 2.201311 1_655
Li5 O21 2.201311 1_555
Li5 O32 2.306109 1_555
Li5 O33 2.353324 1_555
Li5 O33 2.353324 1_655
Li6 O34 2.201311 1_655
Li6 O34 2.201311 1_555
Li6 O23 2.306109 1_555
Li6 O22 2.353324 1_555
Li6 O22 2.353324 1_655
Li7 O24 2.102194 1_654
Li7 O24 2.102194 1_554
Li7 O35 2.319547 1_655
Li7 O35 2.319547 1_555
Li7 O28 2.327010 1_554
Mn0 O7 1.967177 1_555
Mn0 O7 1.967177 1_655
Mn0 O33 2.006850 1_555
Mn0 O33 2.006850 1_655
Mn0 O32 2.153564 1_555
Mn1 O4 1.942903 1_555
Mn1 O1 1.950506 1_455
Mn1 O1 1.950506 1_555
Mn1 O6 1.953198 1_555
Mn1 O10 1.989073 1_455
Mn1 O10 1.989073 1_555
Mn2 O15 1.942903 1_555
Mn2 O18 1.950506 1_555
Mn2 O18 1.950506 1_455
Mn2 O13 1.953198 1_555
Mn2 O9 1.989073 1_455
Mn2 O9 1.989073 1_555
Mn3 O12 1.967177 1_555
Mn3 O12 1.967177 1_655
Mn3 O22 2.006850 1_565
Mn3 O22 2.006850 1_665
Mn3 O23 2.153564 1_565
Mn4 O25 1.967177 1_555
Mn4 O25 1.967177 1_655
Mn4 O15 2.006850 1_545
Mn4 O15 2.006850 1_645
Mn4 O14 2.153564 1_545
Mn5 O22 1.942903 1_555
Mn5 O19 1.950506 1_455
Mn5 O19 1.950506 1_555
Mn5 O24 1.953198 1_555
Mn5 O28 1.989073 1_455
Mn5 O28 1.989073 1_555
Mn6 O33 1.942903 1_555
Mn6 O0 1.950506 1_455
Mn6 O0 1.950506 1_555
Mn6 O31 1.953198 1_555
Mn6 O27 1.989073 1_555
Mn6 O27 1.989073 1_455
Mn7 O30 1.967177 1_655
Mn7 O30 1.967177 1_555
Mn7 O4 2.006850 1_655
Mn7 O4 2.006850 1_555
Mn7 O5 2.153564 1_555
Co0 O0 1.914123 1_555
Co0 O1 1.914123 1_555
Co0 O31 1.956417 1_555
Co0 O31 1.956417 1_655
Co0 O6 1.956417 1_655
Co0 O6 1.956417 1_555
Co1 O19 1.914123 1_554
Co1 O18 1.914123 1_545
Co1 O13 1.956417 1_645
Co1 O13 1.956417 1_545
Co1 O24 1.956417 1_654
Co1 O24 1.956417 1_554
O2 Ti7 1.907316 1_555
O2 Ti7 1.907316 1_455
O3 Ti6 2.021563 1_555
O3 Ti0 2.096627 1_455
O3 Ti0 2.096627 1_555
O5 Ti1 1.927597 1_555
O5 Ti1 1.927597 1_655
O7 Ti2 1.942524 1_555
O8 Ti7 1.943190 1_555
O8 Ti1 1.991820 1_555
O8 Ti1 1.991820 1_655
O9 Ti0 1.948600 1_555
O10 Ti3 1.948600 1_555
O11 Ti4 1.943190 1_565
O11 Ti2 1.991820 1_555
O11 Ti2 1.991820 1_655
O12 Ti1 1.942524 1_555
O14 Ti2 1.927597 1_555
O14 Ti2 1.927597 1_655
O16 Ti5 2.021563 1_565
O16 Ti3 2.096627 1_555
O16 Ti3 2.096627 1_455
O17 Ti4 1.907316 1_565
O17 Ti4 1.907316 1_465
O20 Ti3 1.907316 1_445
O20 Ti3 1.907316 1_545
O21 Ti2 2.021563 1_545
O21 Ti4 2.096627 1_455
O21 Ti4 2.096627 1_555
O23 Ti5 1.927597 1_555
O23 Ti5 1.927597 1_655
O25 Ti6 1.942524 1_555
O26 Ti3 1.943190 1_545
O26 Ti5 1.991820 1_655
O26 Ti5 1.991820 1_555
O27 Ti4 1.948600 1_555
O28 Ti7 1.948600 1_555
O29 Ti0 1.943190 1_555
O29 Ti6 1.991820 1_655
O29 Ti6 1.991820 1_555
O30 Ti5 1.942524 1_555
O32 Ti6 1.927597 1_555
O32 Ti6 1.927597 1_655
O34 Ti1 2.021563 1_555
O34 Ti7 2.096627 1_455
O34 Ti7 2.096627 1_555
O35 Ti0 1.907316 1_555
O35 Ti0 1.907316 1_455
