# generated using pymatgen
data_NdZnAsO
_symmetry_space_group_name_H-M   'P 1'
_cell_length_a   4.03633149
_cell_length_b   4.03633149
_cell_length_c   9.03285350
_cell_angle_alpha   90.00000000
_cell_angle_beta   90.00000000
_cell_angle_gamma   90.00000000
_symmetry_Int_Tables_number   1
_chemical_formula_structural   NdZnAsO
_chemical_formula_sum   'Nd2 Zn2 As2 O2'
_cell_volume   147.16299537
_cell_formula_units_Z   2
loop_
 _symmetry_equiv_pos_site_id
 _symmetry_equiv_pos_as_xyz
  1  'x, y, z'
loop_
 _atom_site_type_symbol
 _atom_site_label
 _atom_site_symmetry_multiplicity
 _atom_site_fract_x
 _atom_site_fract_y
 _atom_site_fract_z
 _atom_site_occupancy
  Nd  Nd0  1  0.00000000  0.50000000  0.86935061  1
  Nd  Nd1  1  0.50000000  -0.00000000  0.13064939  1
  Zn  Zn0  1  0.00000000  0.00000000  0.50000000  1
  Zn  Zn1  1  0.50000000  0.50000000  0.50000000  1
  As  As0  1  0.50000000  -0.00000000  0.67307190  1
  As  As1  1  -0.00000000  0.50000000  0.32692810  1
  O  O0  1  0.50000000  0.50000000  0.00000000  1
  O  O1  1  -0.00000000  -0.00000000  -0.00000000  1
loop_
_geom_bond_atom_site_label_1
_geom_bond_atom_site_label_2
_geom_bond_distance
_geom_bond_site_symmetry_2
Nd0 O1 2.337887 1_556
Nd0 O0 2.337887 1_456
Nd0 O1 2.337887 1_566
Nd0 O0 2.337887 1_556
Nd1 O0 2.337887 1_545
Nd1 O1 2.337887 1_655
Nd1 O1 2.337887 1_555
Nd1 O0 2.337887 1_555
As0 Zn1 2.552842 1_545
As0 Zn0 2.552842 1_555
As0 Zn1 2.552842 1_555
As0 Zn0 2.552842 1_655
As0 Nd0 3.359965 1_655
As0 Nd0 3.359965 1_645
As0 Nd0 3.359965 1_555
As0 Nd0 3.359965 1_545
As1 Zn1 2.552842 1_455
As1 Zn1 2.552842 1_555
As1 Zn0 2.552842 1_565
As1 Zn0 2.552842 1_555
As1 Nd1 3.359965 1_455
As1 Nd1 3.359965 1_565
As1 Nd1 3.359965 1_555
As1 Nd1 3.359965 1_465
