# generated using pymatgen
data_Bi6O5F8
_symmetry_space_group_name_H-M   'P 1'
_cell_length_a   5.77175000
_cell_length_b   5.86703400
_cell_length_c   34.51274118
_cell_angle_alpha   89.85262143
_cell_angle_beta   90.00000000
_cell_angle_gamma   90.00000000
_symmetry_Int_Tables_number   1
_chemical_formula_structural   Bi6O5F8
_chemical_formula_sum   'Bi24 O20 F32'
_cell_volume   1168.70293416
_cell_formula_units_Z   4
loop_
 _symmetry_equiv_pos_site_id
 _symmetry_equiv_pos_as_xyz
  1  'x, y, z'
loop_
 _atom_site_type_symbol
 _atom_site_label
 _atom_site_symmetry_multiplicity
 _atom_site_fract_x
 _atom_site_fract_y
 _atom_site_fract_z
 _atom_site_occupancy
  Bi  Bi0  1  0.74735900  0.71717800  0.00017900  1
  Bi  Bi1  1  0.75264100  0.71717800  0.50017900  1
  Bi  Bi2  1  0.29084900  0.72714200  0.25137400  1
  Bi  Bi3  1  0.20915100  0.72714200  0.75137400  1
  Bi  Bi4  1  0.73233500  0.71301200  0.33540100  1
  Bi  Bi5  1  0.79647400  0.70586700  0.66545000  1
  Bi  Bi6  1  0.76766500  0.71301200  0.83540100  1
  Bi  Bi7  1  0.70352600  0.70586700  0.16545000  1
  Bi  Bi8  1  0.27351200  0.70657600  0.08239900  1
  Bi  Bi9  1  0.28194200  0.70715200  0.41718100  1
  Bi  Bi10  1  0.22648800  0.70657600  0.58239900  1
  Bi  Bi11  1  0.21805800  0.70715200  0.91718100  1
  Bi  Bi12  1  0.78194200  0.29284800  0.08281900  1
  Bi  Bi13  1  0.72648800  0.29342400  0.91760100  1
  Bi  Bi14  1  0.71805800  0.29284800  0.58281900  1
  Bi  Bi15  1  0.77351200  0.29342400  0.41760100  1
  Bi  Bi16  1  0.23233500  0.28698800  0.16459900  1
  Bi  Bi17  1  0.29647400  0.29413300  0.83455000  1
  Bi  Bi18  1  0.26766500  0.28698800  0.66459900  1
  Bi  Bi19  1  0.20352600  0.29413300  0.33455000  1
  Bi  Bi20  1  0.70915100  0.27285800  0.74862600  1
  Bi  Bi21  1  0.79084900  0.27285800  0.24862600  1
  Bi  Bi22  1  0.24735900  0.28282200  0.49982100  1
  Bi  Bi23  1  0.25264100  0.28282200  0.99982100  1
  O  O0  1  0.01320900  0.52401800  0.28978300  1
  O  O1  1  0.48679100  0.52401800  0.78978300  1
  O  O2  1  0.50935500  0.52124900  0.87390600  1
  O  O3  1  0.50943500  0.51579100  0.62704700  1
  O  O4  1  0.99064500  0.52124900  0.37390600  1
  O  O5  1  0.99056500  0.51579100  0.12704700  1
  O  O6  1  0.48319000  0.50834600  0.54198500  1
  O  O7  1  0.01681000  0.50834600  0.04198500  1
  O  O8  1  0.01749600  0.50981900  0.45778800  1
  O  O9  1  0.48250400  0.50981900  0.95778800  1
  O  O10  1  0.98250400  0.49018100  0.54221200  1
  O  O11  1  0.51681000  0.49165400  0.45801500  1
  O  O12  1  0.51749600  0.49018100  0.04221200  1
  O  O13  1  0.98319000  0.49165400  0.95801500  1
  O  O14  1  0.00943500  0.48420900  0.87295300  1
  O  O15  1  0.00935500  0.47875100  0.62609400  1
  O  O16  1  0.49056500  0.48420900  0.37295300  1
  O  O17  1  0.49064500  0.47875100  0.12609400  1
  O  O18  1  0.51320900  0.47598200  0.21021700  1
  O  O19  1  0.98679100  0.47598200  0.71021700  1
  F  F0  1  0.42976500  0.96521900  0.03593200  1
  F  F1  1  0.43227200  0.97167100  0.46324600  1
  F  F2  1  0.07023500  0.96521900  0.53593200  1
  F  F3  1  0.06772800  0.97167100  0.96324600  1
  F  F4  1  0.61450700  0.92362600  0.11044100  1
  F  F5  1  0.62978200  0.92063900  0.38991700  1
  F  F6  1  0.88549300  0.92362600  0.61044100  1
  F  F7  1  0.87021800  0.92063900  0.88991700  1
  F  F8  1  0.35013400  0.89060900  0.18105700  1
  F  F9  1  0.35425300  0.87222500  0.31483300  1
  F  F10  1  0.14574700  0.87222500  0.81483300  1
  F  F11  1  0.14986600  0.89060900  0.68105700  1
  F  F12  1  0.66455300  0.88357400  0.25170100  1
  F  F13  1  0.83544700  0.88357400  0.75170100  1
  F  F14  1  0.48879600  0.53897700  0.70919600  1
  F  F15  1  0.01120400  0.53897700  0.20919600  1
  F  F16  1  0.51120400  0.46102300  0.29080400  1
  F  F17  1  0.98879600  0.46102300  0.79080400  1
  F  F18  1  0.33544700  0.11642600  0.74829900  1
  F  F19  1  0.16455300  0.11642600  0.24829900  1
  F  F20  1  0.85425300  0.12777500  0.18516700  1
  F  F21  1  0.64986600  0.10939100  0.81894300  1
  F  F22  1  0.85013400  0.10939100  0.31894300  1
  F  F23  1  0.64574700  0.12777500  0.68516700  1
  F  F24  1  0.37021800  0.07936100  0.61008300  1
  F  F25  1  0.12978200  0.07936100  0.11008300  1
  F  F26  1  0.38549300  0.07637400  0.88955900  1
  F  F27  1  0.11450700  0.07637400  0.38955900  1
  F  F28  1  0.93227200  0.02832900  0.03675400  1
  F  F29  1  0.92976500  0.03478100  0.46406800  1
  F  F30  1  0.56772800  0.02832900  0.53675400  1
  F  F31  1  0.57023500  0.03478100  0.96406800  1
loop_
_geom_bond_atom_site_label_1
_geom_bond_atom_site_label_2
_geom_bond_distance
_geom_bond_site_symmetry_2
Bi0 O12 2.372418 1_555
Bi0 O13 2.393949 1_554
Bi0 O9 2.442650 1_554
Bi0 O7 2.447964 1_655
Bi0 F31 2.461429 1_564
Bi0 F28 2.465138 1_565
Bi0 F0 2.647600 1_555
Bi0 F3 2.695089 1_654
Bi1 O10 2.372418 1_555
Bi1 O11 2.393949 1_555
Bi1 O8 2.442650 1_655
Bi1 O6 2.447964 1_555
Bi1 F29 2.461429 1_565
Bi1 F30 2.465138 1_565
Bi1 F2 2.647600 1_655
Bi1 F1 2.695089 1_555
Bi2 F12 2.344110 1_555
Bi2 F9 2.380083 1_555
Bi2 O0 2.395251 1_555
Bi2 F19 2.399537 1_565
Bi2 O18 2.418045 1_555
Bi2 F16 2.428221 1_555
Bi2 F15 2.439497 1_555
Bi2 F8 2.629532 1_555
Bi3 F13 2.344110 1_455
Bi3 F10 2.380083 1_555
Bi3 O1 2.395251 1_555
Bi3 F18 2.399537 1_565
Bi3 O19 2.418045 1_455
Bi3 F17 2.428221 1_455
Bi3 F14 2.439497 1_555
Bi3 F11 2.629532 1_555
Bi4 O4 2.290613 1_555
Bi4 F5 2.320793 1_555
Bi4 O16 2.328087 1_555
Bi4 F9 2.476897 1_555
Bi4 F22 2.487244 1_565
Bi4 F16 2.489068 1_555
Bi4 O0 2.518991 1_655
Bi5 O15 2.267044 1_655
Bi5 O19 2.324248 1_555
Bi5 F6 2.342672 1_555
Bi5 F11 2.372401 1_655
Bi5 O3 2.398461 1_555
Bi5 F14 2.526701 1_555
Bi5 F23 2.712178 1_565
Bi6 O2 2.290613 1_555
Bi6 F7 2.320793 1_555
Bi6 O14 2.328087 1_655
Bi6 F10 2.476897 1_655
Bi6 F21 2.487244 1_565
Bi6 F17 2.489068 1_555
Bi6 O1 2.518991 1_555
Bi7 O17 2.267044 1_555
Bi7 O18 2.324248 1_555
Bi7 F4 2.342672 1_555
Bi7 F8 2.372401 1_555
Bi7 O5 2.398461 1_555
Bi7 F15 2.526701 1_655
Bi7 F20 2.712178 1_565
Bi8 O7 2.345554 1_555
Bi8 O12 2.351100 1_555
Bi8 O17 2.370876 1_555
Bi8 F0 2.382308 1_555
Bi8 O5 2.507093 1_455
Bi8 F25 2.528917 1_565
Bi8 F4 2.537362 1_555
Bi9 O11 2.326614 1_555
Bi9 O16 2.345435 1_555
Bi9 O8 2.371874 1_555
Bi9 F1 2.387807 1_555
Bi9 O4 2.501082 1_455
Bi9 F5 2.545353 1_555
Bi9 F27 2.554345 1_565
Bi10 O6 2.345554 1_555
Bi10 O10 2.351100 1_455
Bi10 O15 2.370876 1_555
Bi10 F2 2.382308 1_555
Bi10 O3 2.507093 1_555
Bi10 F24 2.528917 1_565
Bi10 F6 2.537362 1_455
Bi11 O13 2.326614 1_455
Bi11 O14 2.345435 1_555
Bi11 O9 2.371874 1_555
Bi11 F3 2.387807 1_555
Bi11 O2 2.501082 1_555
Bi11 F7 2.545353 1_455
Bi11 F26 2.554345 1_565
Bi12 O7 2.326614 1_655
Bi12 O5 2.345435 1_555
Bi12 O12 2.371874 1_555
Bi12 F28 2.387807 1_555
Bi12 O17 2.501082 1_555
Bi12 F25 2.545353 1_655
Bi12 F4 2.554345 1_545
Bi13 O13 2.345554 1_555
Bi13 O9 2.351100 1_555
Bi13 O2 2.370876 1_555
Bi13 F31 2.382308 1_555
Bi13 O14 2.507093 1_655
Bi13 F7 2.528917 1_545
Bi13 F26 2.537362 1_555
Bi14 O6 2.326614 1_555
Bi14 O3 2.345435 1_555
Bi14 O10 2.371874 1_555
Bi14 F30 2.387807 1_555
Bi14 O15 2.501082 1_655
Bi14 F24 2.545353 1_555
Bi14 F6 2.554345 1_545
Bi15 O11 2.345554 1_555
Bi15 O8 2.351100 1_655
Bi15 O4 2.370876 1_555
Bi15 F29 2.382308 1_555
Bi15 O16 2.507093 1_555
Bi15 F5 2.528917 1_545
Bi15 F27 2.537362 1_655
Bi16 O17 2.290613 1_555
Bi16 F25 2.320793 1_555
Bi16 O5 2.328087 1_455
Bi16 F20 2.476897 1_455
Bi16 F8 2.487244 1_545
Bi16 F15 2.489068 1_555
Bi16 O18 2.518991 1_555
Bi17 O2 2.267044 1_555
Bi17 O1 2.324248 1_555
Bi17 F26 2.342672 1_555
Bi17 F21 2.372401 1_555
Bi17 O14 2.398461 1_555
Bi17 F17 2.526701 1_455
Bi17 F10 2.712178 1_545
Bi18 O15 2.290613 1_555
Bi18 F24 2.320793 1_555
Bi18 O3 2.328087 1_555
Bi18 F23 2.476897 1_555
Bi18 F11 2.487244 1_545
Bi18 F14 2.489068 1_555
Bi18 O19 2.518991 1_455
Bi19 O4 2.267044 1_455
Bi19 O0 2.324248 1_555
Bi19 F27 2.342672 1_555
Bi19 F22 2.372401 1_455
Bi19 O16 2.398461 1_555
Bi19 F16 2.526701 1_555
Bi19 F9 2.712178 1_545
Bi20 F18 2.344110 1_555
Bi20 F23 2.380083 1_555
Bi20 O19 2.395251 1_555
Bi20 F13 2.399537 1_545
Bi20 O1 2.418045 1_555
Bi20 F14 2.428221 1_555
Bi20 F17 2.439497 1_555
Bi20 F21 2.629532 1_555
Bi21 F19 2.344110 1_655
Bi21 F20 2.380083 1_555
Bi21 O18 2.395251 1_555
Bi21 F12 2.399537 1_545
Bi21 O0 2.418045 1_655
Bi21 F15 2.428221 1_655
Bi21 F16 2.439497 1_555
Bi21 F22 2.629532 1_555
Bi22 O8 2.372418 1_555
Bi22 O6 2.393949 1_555
Bi22 O10 2.442650 1_455
Bi22 O11 2.447964 1_555
Bi22 F2 2.461429 1_545
Bi22 F1 2.465138 1_545
Bi22 F29 2.647600 1_455
Bi22 F30 2.695089 1_555
Bi23 O9 2.372418 1_555
Bi23 O7 2.393949 1_556
Bi23 O12 2.442650 1_556
Bi23 O13 2.447964 1_455
Bi23 F0 2.461429 1_546
Bi23 F3 2.465138 1_545
Bi23 F31 2.647600 1_555
Bi23 F28 2.695089 1_456
