# generated using pymatgen
data_TbNbO4
_symmetry_space_group_name_H-M   'P 1'
_cell_length_a   6.19863026
_cell_length_b   6.19863026
_cell_length_c   6.19863026
_cell_angle_alpha   107.08480312
_cell_angle_beta   107.08480312
_cell_angle_gamma   114.35734828
_symmetry_Int_Tables_number   1
_chemical_formula_structural   TbNbO4
_chemical_formula_sum   'Tb2 Nb2 O8'
_cell_volume   182.33463073
_cell_formula_units_Z   2
loop_
 _symmetry_equiv_pos_site_id
 _symmetry_equiv_pos_as_xyz
  1  'x, y, z'
loop_
 _atom_site_type_symbol
 _atom_site_label
 _atom_site_symmetry_multiplicity
 _atom_site_fract_x
 _atom_site_fract_y
 _atom_site_fract_z
 _atom_site_occupancy
  Tb  Tb0  1  0.00000000  0.00000000  0.00000000  1
  Tb  Tb1  1  0.25000000  0.75000000  0.50000000  1
  Nb  Nb0  1  0.50000000  0.50000000  0.00000000  1
  Nb  Nb1  1  0.75000000  0.25000000  0.50000000  1
  O  O0  1  0.31661700  0.50792700  0.19130900  1
  O  O1  1  0.87469200  0.68338300  0.19130900  1
  O  O2  1  0.37530800  0.06661700  0.30869100  1
  O  O3  1  0.49207300  0.68338300  0.80869100  1
  O  O4  1  0.31661700  0.12530800  0.80869100  1
  O  O5  1  0.93338300  0.24207300  0.30869100  1
  O  O6  1  0.93338300  0.62469200  0.69130900  1
  O  O7  1  0.75792700  0.06661700  0.69130900  1
loop_
_geom_bond_atom_site_label_1
_geom_bond_atom_site_label_2
_geom_bond_distance
_geom_bond_site_symmetry_2
Nb0 O1 1.872079 1_555
Nb0 O4 1.872079 1_554
Nb0 O0 1.872079 1_555
Nb0 O3 1.872079 1_554
Nb1 O2 1.872079 1_555
Nb1 O6 1.872079 1_555
Nb1 O7 1.872079 1_555
Nb1 O5 1.872079 1_555
O0 Tb1 2.317700 1_555
O0 Tb0 2.551988 1_555
O1 Tb1 2.317703 1_655
O1 Tb0 2.551983 1_665
O2 Tb0 2.317703 1_555
O2 Tb1 2.551983 1_545
O3 Tb1 2.317700 1_555
O3 Tb0 2.551988 1_666
O4 Tb1 2.317703 1_545
O4 Tb0 2.551983 1_556
O5 Tb0 2.317700 1_655
O5 Tb1 2.551988 1_655
O6 Tb0 2.317703 1_666
O6 Tb1 2.551983 1_655
O7 Tb0 2.317700 1_656
O7 Tb1 2.551988 1_545
