# generated using pymatgen
data_LiMn3O6
_symmetry_space_group_name_H-M   'P 1'
_cell_length_a   5.69840430
_cell_length_b   5.69839184
_cell_length_c   12.74734299
_cell_angle_alpha   77.03639305
_cell_angle_beta   77.03599403
_cell_angle_gamma   89.89481680
_symmetry_Int_Tables_number   1
_chemical_formula_structural   LiMn3O6
_chemical_formula_sum   'Li4 Mn12 O24'
_cell_volume   392.58411345
_cell_formula_units_Z   4
loop_
 _symmetry_equiv_pos_site_id
 _symmetry_equiv_pos_as_xyz
  1  'x, y, z'
loop_
 _atom_site_type_symbol
 _atom_site_label
 _atom_site_symmetry_multiplicity
 _atom_site_fract_x
 _atom_site_fract_y
 _atom_site_fract_z
 _atom_site_occupancy
  Li  Li0  1  0.37360117  0.62353329  0.75330989  1
  Li  Li1  1  0.95862241  0.71179377  0.58033451  1
  Li  Li2  1  0.62353151  0.37360068  0.25331603  1
  Li  Li3  1  0.71180178  0.95864047  0.08029145  1
  Mn  Mn0  1  0.00330398  0.49950408  0.99991472  1
  Mn  Mn1  1  0.49691283  0.49954681  0.99987423  1
  Mn  Mn2  1  0.83311278  0.33079751  0.83326963  1
  Mn  Mn3  1  0.83296777  0.83712158  0.83351086  1
  Mn  Mn4  1  0.66591841  0.16727502  0.66671410  1
  Mn  Mn5  1  0.16598060  0.16732179  0.66661138  1
  Mn  Mn6  1  0.49947486  0.00326175  0.49995330  1
  Mn  Mn7  1  0.49952497  0.49690613  0.49990637  1
  Mn  Mn8  1  0.33077654  0.83311082  0.33327170  1
  Mn  Mn9  1  0.83712974  0.83296234  0.33351835  1
  Mn  Mn10  1  0.16728828  0.66593800  0.16669220  1
  Mn  Mn11  1  0.16733302  0.16598982  0.16659174  1
  O  O0  1  0.75495525  0.27993723  0.99108767  1
  O  O1  1  0.75405377  0.72789651  0.99128364  1
  O  O2  1  0.60486982  0.57985252  0.84204495  1
  O  O3  1  0.05282763  0.57913318  0.84201790  1
  O  O4  1  0.61701653  0.08931929  0.82362842  1
  O  O5  1  0.05870049  0.08848956  0.82348134  1
  O  O6  1  0.91219089  0.93780149  0.67493049  1
  O  O7  1  0.91151867  0.38891500  0.67470533  1
  O  O8  1  0.42031543  0.94564183  0.65858519  1
  O  O9  1  0.41964618  0.39678228  0.65848162  1
  O  O10  1  0.27382752  0.24564572  0.50968361  1
  O  O11  1  0.71532747  0.24474926  0.50981274  1
  O  O12  1  0.27988496  0.75491016  0.49118428  1
  O  O13  1  0.72786217  0.75400425  0.49138238  1
  O  O14  1  0.57981823  0.60483355  0.34211529  1
  O  O15  1  0.57909385  0.05279099  0.34209122  1
  O  O16  1  0.08848467  0.05869791  0.32348798  1
  O  O17  1  0.08931669  0.61701174  0.32363549  1
  O  O18  1  0.93780988  0.91218121  0.17494891  1
  O  O19  1  0.38889377  0.91151290  0.17472458  1
  O  O20  1  0.39681799  0.41968696  0.15839378  1
  O  O21  1  0.94569395  0.42036192  0.15849560  1
  O  O22  1  0.24478043  0.71534079  0.00976087  1
  O  O23  1  0.24567313  0.27386390  0.00963223  1
loop_
_geom_bond_atom_site_label_1
_geom_bond_atom_site_label_2
_geom_bond_distance
_geom_bond_site_symmetry_2
Li0 O2 1.902497 1_555
Li0 O3 1.905215 1_555
Li0 O9 1.938260 1_555
Li0 O8 1.939364 1_555
Li1 O13 1.902155 1_555
Li1 O12 1.909495 1_655
Li1 O6 1.932635 1_555
Li1 O7 1.941206 1_555
Li2 O14 1.902909 1_555
Li2 O15 1.905687 1_555
Li2 O20 1.938986 1_555
Li2 O21 1.940071 1_555
Li3 O1 1.902581 1_554
Li3 O0 1.909898 1_564
Li3 O18 1.933227 1_555
Li3 O19 1.941637 1_555
Mn0 O23 1.890729 1_556
Mn0 O22 1.890737 1_556
Mn0 O3 1.916404 1_555
Mn0 O21 1.921281 1_456
Mn0 O0 1.929245 1_455
Mn0 O1 1.929338 1_455
Mn1 O22 1.890516 1_556
Mn1 O23 1.890528 1_556
Mn1 O2 1.915269 1_555
Mn1 O20 1.920133 1_556
Mn1 O0 1.929508 1_555
Mn1 O1 1.929595 1_555
Mn2 O5 1.890339 1_655
Mn2 O4 1.890751 1_555
Mn2 O0 1.914786 1_555
Mn2 O7 1.920901 1_555
Mn2 O2 1.928073 1_555
Mn2 O3 1.929379 1_655
Mn3 O5 1.890375 1_665
Mn3 O4 1.891387 1_565
Mn3 O1 1.915224 1_555
Mn3 O6 1.921062 1_555
Mn3 O2 1.929381 1_555
Mn3 O3 1.930107 1_655
Mn4 O11 1.904233 1_555
Mn4 O4 1.904640 1_555
Mn4 O6 1.920429 1_545
Mn4 O9 1.920570 1_555
Mn4 O7 1.921559 1_555
Mn4 O8 1.922183 1_545
Mn5 O5 1.903604 1_555
Mn5 O10 1.904565 1_555
Mn5 O9 1.920628 1_555
Mn5 O6 1.920736 1_445
Mn5 O8 1.921302 1_545
Mn5 O7 1.921537 1_455
Mn6 O10 1.890830 1_555
Mn6 O11 1.890907 1_555
Mn6 O15 1.915973 1_555
Mn6 O8 1.921902 1_545
Mn6 O12 1.929072 1_545
Mn6 O13 1.929294 1_545
Mn7 O10 1.890608 1_555
Mn7 O11 1.890664 1_555
Mn7 O14 1.914805 1_555
Mn7 O9 1.920806 1_555
Mn7 O12 1.929433 1_555
Mn7 O13 1.929590 1_555
Mn8 O16 1.890266 1_565
Mn8 O17 1.890660 1_555
Mn8 O12 1.915934 1_555
Mn8 O19 1.920691 1_555
Mn8 O14 1.928210 1_555
Mn8 O15 1.929504 1_565
Mn9 O16 1.890328 1_665
Mn9 O17 1.891338 1_655
Mn9 O13 1.916320 1_555
Mn9 O18 1.920932 1_555
Mn9 O14 1.929467 1_555
Mn9 O15 1.930217 1_565
Mn10 O22 1.904604 1_555
Mn10 O17 1.904982 1_555
Mn10 O18 1.920357 1_455
Mn10 O20 1.920620 1_555
Mn10 O19 1.921510 1_555
Mn10 O21 1.922236 1_455
Mn11 O16 1.903921 1_555
Mn11 O23 1.904954 1_555
Mn11 O20 1.920622 1_555
Mn11 O18 1.920698 1_445
Mn11 O21 1.921333 1_455
Mn11 O19 1.921493 1_545
