# generated using pymatgen
data_Li2Cr2SnO6
_symmetry_space_group_name_H-M   'P 1'
_cell_length_a   5.26441974
_cell_length_b   5.31140014
_cell_length_c   10.26253900
_cell_angle_alpha   90.00023600
_cell_angle_beta   89.99993307
_cell_angle_gamma   119.70739983
_symmetry_Int_Tables_number   1
_chemical_formula_structural   Li2Cr2SnO6
_chemical_formula_sum   'Li4 Cr4 Sn2 O12'
_cell_volume   249.24011001
_cell_formula_units_Z   2
loop_
 _symmetry_equiv_pos_site_id
 _symmetry_equiv_pos_as_xyz
  1  'x, y, z'
loop_
 _atom_site_type_symbol
 _atom_site_label
 _atom_site_symmetry_multiplicity
 _atom_site_fract_x
 _atom_site_fract_y
 _atom_site_fract_z
 _atom_site_occupancy
  Li  Li0  1  0.65703000  0.50002600  0.75002000  1
  Li  Li1  1  0.84300300  0.50003800  0.24998700  1
  Li  Li2  1  0.15701000  0.49997800  0.75001200  1
  Li  Li3  1  0.34298300  0.49998800  0.24998200  1
  Cr  Cr0  1  0.66382500  0.32765500  0.00000300  1
  Cr  Cr1  1  0.33619600  0.67239600  0.99999500  1
  Cr  Cr2  1  0.83631000  0.67263600  0.50000500  1
  Cr  Cr3  1  0.16367600  0.32734900  0.49999400  1
  Sn  Sn0  1  0.99999400  0.00000700  0.00000200  1
  Sn  Sn1  1  0.49999700  0.99999600  0.49999700  1
  O  O0  1  0.16215400  0.00001200  0.59930800  1
  O  O1  1  0.33784200  0.99999200  0.09937300  1
  O  O2  1  0.66214800  0.99999100  0.90063000  1
  O  O3  1  0.83784000  0.99997800  0.40068800  1
  O  O4  1  0.65604000  0.64774400  0.10676800  1
  O  O5  1  0.34396000  0.35224500  0.89323700  1
  O  O6  1  0.50828300  0.35225500  0.39321800  1
  O  O7  1  0.84398200  0.35223900  0.60677900  1
  O  O8  1  0.99170700  0.64774100  0.89323700  1
  O  O9  1  0.15601700  0.64775500  0.39321700  1
  O  O10  1  0.49171500  0.64773700  0.60677800  1
  O  O11  1  0.00829000  0.35224100  0.10676800  1
loop_
_geom_bond_atom_site_label_1
_geom_bond_atom_site_label_2
_geom_bond_distance
_geom_bond_site_symmetry_2
Li0 O5 2.051944 1_555
Li0 O10 2.051987 1_555
Li0 O8 2.123657 1_555
Li0 O7 2.124014 1_555
Li1 O9 2.051862 1_655
Li1 O11 2.051992 1_655
Li1 O4 2.123643 1_555
Li1 O6 2.123889 1_555
Li2 O7 2.051927 1_455
Li2 O8 2.051981 1_455
Li2 O5 2.123727 1_555
Li2 O10 2.123865 1_555
Li3 O4 2.051882 1_555
Li3 O6 2.051964 1_555
Li3 O11 2.123683 1_555
Li3 O9 2.123955 1_555
Cr0 O1 2.013369 1_545
Cr0 O2 2.013380 1_544
Cr0 O4 2.040012 1_555
Cr0 O8 2.040045 1_554
Cr0 O5 2.066667 1_554
Cr0 O11 2.066715 1_655
Cr1 O2 2.013115 1_555
Cr1 O1 2.013164 1_556
Cr1 O5 2.040203 1_555
Cr1 O11 2.040290 1_556
Cr1 O8 2.066648 1_455
Cr1 O4 2.066766 1_556
Cr2 O3 2.011950 1_555
Cr2 O0 2.012032 1_665
Cr2 O6 2.041135 1_555
Cr2 O7 2.041191 1_555
Cr2 O10 2.066719 1_555
Cr2 O9 2.066803 1_655
Cr3 O0 2.011929 1_555
Cr3 O3 2.012018 1_445
Cr3 O10 2.041161 1_555
Cr3 O9 2.041219 1_555
Cr3 O7 2.066751 1_455
Cr3 O6 2.066775 1_555
O0 Sn1 2.049905 1_545
O1 Sn0 2.050234 1_465
O2 Sn0 2.050159 1_566
O3 Sn1 2.049899 1_555
O4 Sn0 2.149899 1_565
O5 Sn0 2.149860 1_456
O6 Sn1 2.149990 1_545
O7 Sn1 2.149996 1_545
O8 Sn0 2.149938 1_566
O9 Sn1 2.149970 1_555
O10 Sn1 2.150009 1_555
O11 Sn0 2.149778 1_455
