# generated using pymatgen
data_LiCoPO4
_symmetry_space_group_name_H-M   'P 1'
_cell_length_a   4.96153453
_cell_length_b   9.75700118
_cell_length_c   6.18112251
_cell_angle_alpha   90.07867151
_cell_angle_beta   89.98329826
_cell_angle_gamma   89.95071832
_symmetry_Int_Tables_number   1
_chemical_formula_structural   LiCoPO4
_chemical_formula_sum   'Li4 Co4 P4 O16'
_cell_volume   299.22587028
_cell_formula_units_Z   4
loop_
 _symmetry_equiv_pos_site_id
 _symmetry_equiv_pos_as_xyz
  1  'x, y, z'
loop_
 _atom_site_type_symbol
 _atom_site_label
 _atom_site_symmetry_multiplicity
 _atom_site_fract_x
 _atom_site_fract_y
 _atom_site_fract_z
 _atom_site_occupancy
  Li  Li0  1  0.00044600  0.00013300  0.99924900  1
  Li  Li1  1  0.00056600  0.99972300  0.50047200  1
  Li  Li2  1  0.49972200  0.49979200  0.00005600  1
  Li  Li3  1  0.50017000  0.49999400  0.49993400  1
  Co  Co0  1  0.03060500  0.66317800  0.75001000  1
  Co  Co1  1  0.53098400  0.83717100  0.25020600  1
  Co  Co2  1  0.46941000  0.16244600  0.74860800  1
  Co  Co3  1  0.96895800  0.33739500  0.25038200  1
  P  P0  1  0.45864800  0.17749900  0.24922900  1
  P  P1  1  0.95864500  0.32244600  0.75065600  1
  P  P2  1  0.04162200  0.67724200  0.25000800  1
  P  P3  1  0.54120900  0.82290800  0.75013800  1
  O  O0  1  0.76977400  0.15733400  0.25000500  1
  O  O1  1  0.26961100  0.34257200  0.75077800  1
  O  O2  1  0.73051600  0.65683700  0.25000100  1
  O  O3  1  0.22994900  0.84356700  0.75024100  1
  O  O4  1  0.88096700  0.16595300  0.75055600  1
  O  O5  1  0.38032900  0.33395000  0.25009600  1
  O  O6  1  0.61871300  0.66628400  0.74945200  1
  O  O7  1  0.11921100  0.83374200  0.25041700  1
  O  O8  1  0.33441700  0.10862200  0.04573500  1
  O  O9  1  0.33338900  0.10841000  0.45221500  1
  O  O10  1  0.83343500  0.39155800  0.95387300  1
  O  O11  1  0.83363500  0.39122800  0.54736600  1
  O  O12  1  0.16651300  0.60831300  0.04648400  1
  O  O13  1  0.16626000  0.60810700  0.45314300  1
  O  O14  1  0.66589400  0.89206800  0.54717300  1
  O  O15  1  0.66640100  0.89152800  0.95351800  1
loop_
_geom_bond_atom_site_label_1
_geom_bond_atom_site_label_2
_geom_bond_distance
_geom_bond_site_symmetry_2
Li0 O8 1.987757 1_556
Li0 O15 1.988000 1_445
Li0 O4 2.310353 1_455
Li0 O7 2.323568 1_546
Li0 O3 2.447187 1_545
Li0 O0 2.460528 1_456
Li1 O9 1.985944 1_565
Li1 O14 1.986811 1_455
Li1 O7 2.312818 1_555
Li1 O4 2.315841 1_465
Li1 O3 2.450436 1_555
Li1 O0 2.465246 1_465
Li2 O12 1.983063 1_555
Li2 O10 1.983440 1_554
Li2 O5 2.316432 1_555
Li2 O6 2.322692 1_554
Li2 O1 2.455259 1_554
Li2 O2 2.458360 1_555
Li3 O13 1.984732 1_555
Li3 O11 1.986868 1_555
Li3 O6 2.313525 1_555
Li3 O5 2.314813 1_555
Li3 O2 2.458273 1_555
Li3 O1 2.465833 1_555
Co0 O3 2.019656 1_555
Co0 O12 2.025405 1_556
Co0 O13 2.026030 1_555
Co0 O6 2.043819 1_455
Co1 O2 2.018161 1_555
Co1 O15 2.024432 1_554
Co1 O14 2.025578 1_555
Co1 O7 2.043329 1_555
Co2 O1 2.017071 1_555
Co2 O9 2.021999 1_555
Co2 O8 2.024832 1_556
Co2 O4 2.042309 1_555
Co3 O0 2.016477 1_555
Co3 O11 2.022987 1_555
Co3 O10 2.023159 1_554
Co3 O5 2.041279 1_655
O0 P0 1.555992 1_555
O1 P1 1.555483 1_455
O2 P2 1.556520 1_655
O3 P3 1.557254 1_555
O4 P1 1.575111 1_555
O5 P0 1.574853 1_555
O6 P3 1.575498 1_555
O7 P2 1.575069 1_555
O8 P0 1.553224 1_555
O9 P0 1.554818 1_555
O10 P1 1.554013 1_555
O11 P1 1.554375 1_555
O12 P2 1.554144 1_555
O13 P2 1.554358 1_555
O14 P3 1.553879 1_555
O15 P3 1.553476 1_555
