# generated using pymatgen
data_Hf2N2O
_symmetry_space_group_name_H-M   'P 1'
_cell_length_a   8.64803569
_cell_length_b   8.67502307
_cell_length_c   8.68143733
_cell_angle_alpha   109.54989756
_cell_angle_beta   109.52119125
_cell_angle_gamma   109.23362109
_symmetry_Int_Tables_number   1
_chemical_formula_structural   Hf2N2O
_chemical_formula_sum   'Hf16 N16 O8'
_cell_volume   502.03894516
_cell_formula_units_Z   8
loop_
 _symmetry_equiv_pos_site_id
 _symmetry_equiv_pos_as_xyz
  1  'x, y, z'
loop_
 _atom_site_type_symbol
 _atom_site_label
 _atom_site_symmetry_multiplicity
 _atom_site_fract_x
 _atom_site_fract_y
 _atom_site_fract_z
 _atom_site_occupancy
  Hf  Hf0  1  0.54326716  0.79253134  0.75898196  1
  Hf  Hf1  1  0.78764752  0.75680540  0.53194033  1
  Hf  Hf2  1  0.00501719  0.00957838  0.99730676  1
  Hf  Hf3  1  0.27750317  0.74461654  0.02144250  1
  Hf  Hf4  1  0.50893571  0.00647478  0.50853495  1
  Hf  Hf5  1  0.99794961  0.50106029  0.50049574  1
  Hf  Hf6  1  0.96435621  0.71221106  0.25407810  1
  Hf  Hf7  1  0.74742749  0.45462844  0.71837922  1
  Hf  Hf8  1  0.25213197  0.53266155  0.28566476  1
  Hf  Hf9  1  0.74757383  0.96236566  0.21238920  1
  Hf  Hf10  1  0.24568380  0.03843855  0.78727260  1
  Hf  Hf11  1  0.03080916  0.28155514  0.73909753  1
  Hf  Hf12  1  0.50771187  0.49874722  0.99795257  1
  Hf  Hf13  1  0.21467706  0.24853167  0.46755795  1
  Hf  Hf14  1  0.72436677  0.25817038  0.97569228  1
  Hf  Hf15  1  0.45458282  0.21157362  0.24282478  1
  N  N0  1  0.77105173  0.03958121  0.00769245  1
  N  N1  1  0.47918337  0.72419116  0.94787245  1
  N  N2  1  0.94957174  0.22489858  0.45863546  1
  N  N3  1  0.52912790  0.75916500  0.49039014  1
  N  N4  1  0.03197839  0.54278518  0.77090505  1
  N  N5  1  0.46479036  0.23404835  0.50701784  1
  N  N6  1  0.73019812  0.74211228  0.27379751  1
  N  N7  1  0.97222141  0.45879396  0.23043762  1
  N  N8  1  0.98596389  0.03280508  0.76204334  1
  N  N9  1  0.76884471  0.22132838  0.73644714  1
  N  N10  1  0.74096655  0.51677284  0.96583286  1
  N  N11  1  0.05092021  0.77281792  0.53747253  1
  N  N12  1  0.23547846  0.27412431  0.22570752  1
  N  N13  1  0.51731856  0.27575761  0.05076584  1
  N  N14  1  0.27283014  0.26371986  0.72872963  1
  N  N15  1  0.22919534  0.95662329  0.99545249  1
  O  O0  1  0.54571244  0.00647868  0.27625847  1
  O  O1  1  0.27206668  0.53225762  0.54724299  1
  O  O2  1  0.01573801  0.96516870  0.24017134  1
  O  O3  1  0.22696371  0.77566070  0.25700979  1
  O  O4  1  0.26019362  0.49164828  0.03870945  1
  O  O5  1  0.75968059  0.72396150  0.77037237  1
  O  O6  1  0.45174895  0.98633438  0.72434155  1
  O  O7  1  0.72861278  0.46901308  0.45708494  1
loop_
_geom_bond_atom_site_label_1
_geom_bond_atom_site_label_2
_geom_bond_distance
_geom_bond_site_symmetry_2
Hf0 N1 2.095047 1_555
Hf0 N0 2.101103 1_566
Hf0 O5 2.124966 1_555
Hf0 O6 2.144622 1_555
Hf0 O1 2.197686 1_555
Hf0 N3 2.206871 1_555
Hf1 N6 2.075666 1_555
Hf1 N8 2.113885 1_565
Hf1 N3 2.150573 1_555
Hf1 O7 2.183732 1_555
Hf1 N11 2.217988 1_655
Hf1 O5 2.260128 1_555
Hf2 N8 2.076447 1_455
Hf2 N12 2.114382 1_556
Hf2 N15 2.138349 1_545
Hf2 N0 2.150107 1_456
Hf2 O5 2.235647 1_445
Hf2 O2 2.244758 1_546
Hf3 N4 2.054342 1_554
Hf3 N15 2.080602 1_554
Hf3 N1 2.086550 1_554
Hf3 O3 2.179942 1_555
Hf3 O4 2.208949 1_555
Hf3 O0 2.273824 1_565
Hf4 N9 2.059264 1_555
Hf4 N5 2.134014 1_555
Hf4 O6 2.136942 1_545
Hf4 O0 2.143841 1_555
Hf4 N3 2.167293 1_545
Hf4 O3 2.240996 1_545
Hf5 N11 2.134114 1_655
Hf5 O7 2.135707 1_555
Hf5 N4 2.151282 1_655
Hf5 N2 2.168384 1_555
Hf5 N7 2.168618 1_555
Hf5 O1 2.172192 1_655
Hf6 N11 2.129291 1_655
Hf6 O3 2.142347 1_655
Hf6 O2 2.144342 1_655
Hf6 N10 2.154160 1_554
Hf6 N7 2.164624 1_555
Hf6 N6 2.178367 1_555
Hf7 N10 2.057602 1_555
Hf7 N5 2.138729 1_555
Hf7 N9 2.143602 1_555
Hf7 N4 2.150616 1_655
Hf7 O5 2.184757 1_555
Hf7 O7 2.268013 1_555
Hf8 N12 2.068258 1_555
Hf8 O4 2.081731 1_555
Hf8 N3 2.115270 1_555
Hf8 N7 2.120599 1_455
Hf8 O1 2.220516 1_555
Hf8 O3 2.273783 1_555
Hf9 N2 2.105516 1_565
Hf9 O0 2.108648 1_565
Hf9 N6 2.122184 1_555
Hf9 N0 2.143840 1_565
Hf9 O2 2.240997 1_655
Hf9 N1 2.243341 1_554
Hf10 N11 2.122975 1_545
Hf10 N14 2.138923 1_555
Hf10 N8 2.164930 1_455
Hf10 O6 2.166705 1_545
Hf10 N15 2.180467 1_545
Hf10 N13 2.249466 1_556
Hf11 N2 2.119403 1_455
Hf11 N9 2.140836 1_455
Hf11 N8 2.152816 1_455
Hf11 N14 2.177763 1_555
Hf11 N4 2.185440 1_555
Hf11 O4 2.240400 1_556
Hf12 N10 2.090110 1_555
Hf12 N13 2.152484 1_556
Hf12 N14 2.157562 1_555
Hf12 N6 2.180537 1_556
Hf12 N1 2.211345 1_555
Hf12 O4 2.268222 1_556
Hf13 N14 2.098926 1_555
Hf13 N5 2.127044 1_555
Hf13 O2 2.143766 1_545
Hf13 O1 2.146905 1_555
Hf13 N2 2.205730 1_455
Hf13 N12 2.242341 1_555
Hf14 N7 2.076678 1_556
Hf14 N13 2.132489 1_556
Hf14 N0 2.148955 1_556
Hf14 N9 2.175924 1_555
Hf14 N10 2.232765 1_555
Hf14 O6 2.309967 1_545
Hf15 N13 2.100303 1_555
Hf15 N12 2.109521 1_555
Hf15 N15 2.118086 1_544
Hf15 O7 2.202390 1_555
Hf15 N5 2.204625 1_555
Hf15 O0 2.233261 1_555
