# generated using pymatgen
data_Li3V3P8O29
_symmetry_space_group_name_H-M   'P 1'
_cell_length_a   9.78689227
_cell_length_b   9.78689227
_cell_length_c   14.27488604
_cell_angle_alpha   89.26917501
_cell_angle_beta   89.26917501
_cell_angle_gamma   60.04553881
_symmetry_Int_Tables_number   1
_chemical_formula_structural   Li3V3P8O29
_chemical_formula_sum   'Li6 V6 P16 O58'
_cell_volume   1184.52675068
_cell_formula_units_Z   2
loop_
 _symmetry_equiv_pos_site_id
 _symmetry_equiv_pos_as_xyz
  1  'x, y, z'
loop_
 _atom_site_type_symbol
 _atom_site_label
 _atom_site_symmetry_multiplicity
 _atom_site_fract_x
 _atom_site_fract_y
 _atom_site_fract_z
 _atom_site_occupancy
  Li  Li0  1  0.22237500  0.08265700  0.69401000  1
  Li  Li1  1  0.09310700  0.22570700  0.18697200  1
  Li  Li2  1  0.69544900  0.22393600  0.69618900  1
  Li  Li3  1  0.77606400  0.30455100  0.30381100  1
  Li  Li4  1  0.91734300  0.77762500  0.30599000  1
  Li  Li5  1  0.77429300  0.90689300  0.81302800  1
  V  V0  1  0.56319600  0.00540700  0.00818900  1
  V  V1  1  0.99459300  0.43680400  0.99181100  1
  V  V2  1  0.55938300  0.44061700  0.50000000  1
  V  V3  1  0.43088000  0.56912000  0.00000000  1
  V  V4  1  0.00469600  0.56658800  0.50694300  1
  V  V5  1  0.43341200  0.99530400  0.49305700  1
  P  P0  1  0.23513700  0.08646600  0.90842600  1
  P  P1  1  0.08524000  0.23660700  0.40810900  1
  P  P2  1  0.68418400  0.08913300  0.41086600  1
  P  P3  1  0.32582800  0.33732900  0.11992600  1
  P  P4  1  0.33745400  0.32452200  0.61842700  1
  P  P5  1  0.68143200  0.23044100  0.91055500  1
  P  P6  1  0.76955900  0.31856800  0.08944500  1
  P  P7  1  0.08897800  0.68711900  0.91127000  1
  P  P8  1  0.91086700  0.31581600  0.58913400  1
  P  P9  1  0.22700400  0.68937900  0.40821300  1
  P  P10  1  0.31062100  0.77299600  0.59178700  1
  P  P11  1  0.66267100  0.67417200  0.88007400  1
  P  P12  1  0.67547800  0.66254600  0.38157300  1
  P  P13  1  0.31288100  0.91102200  0.08873000  1
  P  P14  1  0.91353400  0.76486300  0.09157400  1
  P  P15  1  0.76339300  0.91476000  0.59189100  1
  O  O0  1  0.22664600  0.00574000  0.17121100  1
  O  O1  1  0.25305400  0.09044800  0.41727500  1
  O  O2  1  0.98615700  0.21800900  0.49306000  1
  O  O3  1  0.00656500  0.22860400  0.67115900  1
  O  O4  1  0.38527000  0.09491500  0.93061500  1
  O  O5  1  0.09034100  0.25564900  0.92039800  1
  O  O6  1  0.33421700  0.17905400  0.57691500  1
  O  O7  1  0.52231800  0.09579900  0.42665900  1
  O  O8  1  0.75426600  0.99512800  0.68200700  1
  O  O9  1  0.65984800  0.08329800  0.91635600  1
  O  O10  1  0.17878200  0.33515600  0.08061200  1
  O  O11  1  0.47759100  0.18449300  0.07599400  1
  O  O12  1  0.09399300  0.38659500  0.42896200  1
  O  O13  1  0.33353300  0.32783300  0.22367000  1
  O  O14  1  0.33690100  0.32551100  0.72211400  1
  O  O15  1  0.09578500  0.52423500  0.92580600  1
  O  O16  1  0.48716400  0.32784700  0.57632400  1
  O  O17  1  0.18721800  0.47617500  0.57457500  1
  O  O18  1  0.65942800  0.25860900  0.41063000  1
  O  O19  1  0.78978800  0.21021200  0.00000000  1
  O  O20  1  0.75571700  0.23474500  0.81989200  1
  O  O21  1  0.76525500  0.24428300  0.18010800  1
  O  O22  1  0.52225100  0.38294900  0.92914700  1
  O  O23  1  0.33443700  0.47997000  0.07460900  1
  O  O24  1  0.08284100  0.66209400  0.41634600  1
  O  O25  1  0.74139100  0.34057200  0.58937000  1
  O  O26  1  0.38100600  0.52553300  0.43069900  1
  O  O27  1  0.00487200  0.24573400  0.31799300  1
  O  O28  1  0.98478800  0.76003700  0.18274200  1
  O  O29  1  0.61705100  0.47774900  0.07085300  1
  O  O30  1  0.25926800  0.65735100  0.91531300  1
  O  O31  1  0.01141700  0.78488600  0.00668300  1
  O  O32  1  0.91670200  0.34015200  0.08364400  1
  O  O33  1  0.67215300  0.51283600  0.42367600  1
  O  O34  1  0.47446700  0.61899400  0.56930100  1
  O  O35  1  0.23917000  0.76117400  0.68039000  1
  O  O36  1  0.23882600  0.76083000  0.31961000  1
  O  O37  1  0.20758700  0.79241300  0.50000000  1
  O  O38  1  0.34264900  0.74073200  0.08468700  1
  O  O39  1  0.81550700  0.52240900  0.92400600  1
  O  O40  1  0.90420100  0.47768200  0.57334100  1
  O  O41  1  0.52003000  0.66556300  0.92539100  1
  O  O42  1  0.67448900  0.66309900  0.27788600  1
  O  O43  1  0.67216700  0.66646700  0.77633000  1
  O  O44  1  0.90508500  0.61473000  0.06938500  1
  O  O45  1  0.52382500  0.81278200  0.42542500  1
  O  O46  1  0.82094600  0.66578300  0.42308500  1
  O  O47  1  0.33790600  0.91715900  0.58365400  1
  O  O48  1  0.21511400  0.98858300  0.99331700  1
  O  O49  1  0.23996300  0.01521200  0.81725800  1
  O  O50  1  0.47576500  0.90421500  0.07419400  1
  O  O51  1  0.66484400  0.82121800  0.91938800  1
  O  O52  1  0.90955200  0.74694600  0.58272500  1
  O  O53  1  0.61340500  0.90600700  0.57103800  1
  O  O54  1  0.99426000  0.77335400  0.82878900  1
  O  O55  1  0.74435100  0.90965900  0.07960200  1
  O  O56  1  0.77139600  0.99343500  0.32884100  1
  O  O57  1  0.78199100  0.01384300  0.50694000  1
loop_
_geom_bond_atom_site_label_1
_geom_bond_atom_site_label_2
_geom_bond_distance
_geom_bond_site_symmetry_2
Li0 O49 1.850752 1_555
Li0 O3 1.897529 1_555
Li0 O47 2.138770 1_545
Li0 O6 2.413811 1_555
Li1 O0 1.894303 1_555
Li1 O27 2.020226 1_555
Li1 O32 2.121920 1_455
Li1 O10 2.231276 1_555
Li2 O20 1.889698 1_555
Li2 O8 2.026876 1_545
Li2 O25 2.069047 1_555
Li2 O16 2.468131 1_555
Li3 O21 1.889698 1_555
Li3 O27 2.026876 1_655
Li3 O18 2.069047 1_555
Li3 O33 2.468131 1_555
Li4 O28 1.850752 1_555
Li4 O56 1.897529 1_555
Li4 O24 2.138770 1_655
Li4 O46 2.413811 1_555
Li5 O54 1.894303 1_555
Li5 O8 2.020226 1_555
Li5 O9 2.121920 1_565
Li5 O51 2.231276 1_555
O0 P13 1.476180 1_545
O1 P1 1.554125 1_555
O1 V5 1.880076 1_545
O2 P1 1.607690 1_655
O2 P8 1.625867 1_555
O3 P8 1.476783 1_455
O4 P0 1.549188 1_555
O4 V0 1.878038 1_556
O5 P0 1.561040 1_555
O5 V1 1.850212 1_455
O6 P4 1.563988 1_555
O6 V5 1.972636 1_545
O7 P2 1.566115 1_555
O7 V5 1.852726 1_545
O8 P15 1.494716 1_555
O9 P5 1.557428 1_555
O9 V0 1.964009 1_556
O10 P3 1.561393 1_555
O10 V1 2.020231 1_454
O11 P3 1.618116 1_555
O11 V0 1.807457 1_555
O12 P1 1.545348 1_555
O12 V4 1.895751 1_555
O13 P3 1.483182 1_555
O14 P4 1.480198 1_555
O15 P7 1.573086 1_555
O15 V1 1.844625 1_455
O16 P4 1.591769 1_555
O16 V2 1.906141 1_555
O17 P4 1.605344 1_555
O17 V4 1.830227 1_555
O18 P2 1.551895 1_555
O18 V2 2.010875 1_555
O19 P5 1.616318 1_554
O19 P6 1.616318 1_555
O20 P5 1.486770 1_555
O21 P6 1.486770 1_555
O22 P5 1.550075 1_555
O22 V3 1.881300 1_556
O23 P3 1.570813 1_555
O23 V3 1.886667 1_555
O24 P9 1.564200 1_555
O24 V4 1.946516 1_555
O25 P8 1.551895 1_555
O25 V2 2.010875 1_555
O26 P9 1.591136 1_555
O26 V2 1.814172 1_555
O27 P1 1.494716 1_555
O28 P14 1.473398 1_555
O29 P6 1.550075 1_555
O29 V3 1.881300 1_555
O30 P7 1.543679 1_555
O30 V3 1.898636 1_556
O31 P14 1.605113 1_455
O31 P7 1.621223 1_554
O32 P6 1.557428 1_555
O32 V1 1.964009 1_554
O33 P12 1.591769 1_555
O33 V2 1.906141 1_555
O34 P10 1.591136 1_555
O34 V2 1.814172 1_555
O35 P10 1.468536 1_555
O36 P9 1.468536 1_555
O37 P10 1.614216 1_555
O37 P9 1.614216 1_555
O38 P13 1.543679 1_555
O38 V3 1.898636 1_555
O39 P11 1.618116 1_555
O39 V1 1.807457 1_555
O40 P8 1.566115 1_555
O40 V4 1.852726 1_655
O41 P11 1.570813 1_555
O41 V3 1.886667 1_556
O42 P12 1.480198 1_555
O43 P11 1.483182 1_555
O44 P14 1.549188 1_555
O44 V1 1.878038 1_554
O45 P12 1.605344 1_555
O45 V5 1.830227 1_555
O46 P12 1.563988 1_555
O46 V4 1.972636 1_655
O47 P10 1.564200 1_555
O47 V5 1.946516 1_555
O48 P0 1.605113 1_565
O48 P13 1.621223 1_556
O49 P0 1.473398 1_555
O50 P13 1.573086 1_555
O50 V0 1.844625 1_565
O51 P11 1.561393 1_555
O51 V0 2.020231 1_566
O52 P15 1.554125 1_555
O52 V4 1.880076 1_655
O53 P15 1.545348 1_555
O53 V5 1.895751 1_555
O54 P7 1.476180 1_655
O55 P14 1.561040 1_555
O55 V0 1.850212 1_565
O56 P2 1.476783 1_565
O57 P15 1.607690 1_545
O57 P2 1.625867 1_555
