# generated using pymatgen
data_LiNiBO3
_symmetry_space_group_name_H-M   'P 1'
_cell_length_a   5.11260336
_cell_length_b   5.11260336
_cell_length_c   10.00421521
_cell_angle_alpha   89.18812617
_cell_angle_beta   89.18812617
_cell_angle_gamma   117.70265401
_symmetry_Int_Tables_number   1
_chemical_formula_structural   LiNiBO3
_chemical_formula_sum   'Li4 Ni4 B4 O12'
_cell_volume   231.43554019
_cell_formula_units_Z   4
loop_
 _symmetry_equiv_pos_site_id
 _symmetry_equiv_pos_as_xyz
  1  'x, y, z'
loop_
 _atom_site_type_symbol
 _atom_site_label
 _atom_site_symmetry_multiplicity
 _atom_site_fract_x
 _atom_site_fract_y
 _atom_site_fract_z
 _atom_site_occupancy
  Li  Li0  1  0.64897000  0.66333200  0.83380400  1
  Li  Li1  1  0.66333200  0.64897000  0.33380400  1
  Li  Li2  1  0.34549900  0.33728100  0.58468800  1
  Li  Li3  1  0.33728100  0.34549900  0.08468800  1
  Ni  Ni0  1  0.97968300  0.32006500  0.36987500  1
  Ni  Ni1  1  0.67043000  0.01696500  0.11881400  1
  Ni  Ni2  1  0.32006500  0.97968300  0.86987500  1
  Ni  Ni3  1  0.01696500  0.67043000  0.61881400  1
  B  B0  1  0.99900600  0.33367700  0.87321200  1
  B  B1  1  0.66050700  0.00076300  0.62402700  1
  B  B2  1  0.33367700  0.99900600  0.37321200  1
  B  B3  1  0.00076300  0.66050700  0.12402700  1
  O  O0  1  0.02685400  0.40877700  0.16211200  1
  O  O1  1  0.91143600  0.25033100  0.57756000  1
  O  O2  1  0.74258300  0.07732100  0.91043500  1
  O  O3  1  0.58147600  0.97797700  0.32715700  1
  O  O4  1  0.73009800  0.65540600  0.13409200  1
  O  O5  1  0.65540600  0.73009800  0.63409200  1
  O  O6  1  0.34608900  0.27234400  0.38537400  1
  O  O7  1  0.27234400  0.34608900  0.88537400  1
  O  O8  1  0.40877700  0.02685400  0.66211200  1
  O  O9  1  0.25033100  0.91143600  0.07756000  1
  O  O10  1  0.07732100  0.74258300  0.41043500  1
  O  O11  1  0.97797700  0.58147600  0.82715700  1
loop_
_geom_bond_atom_site_label_1
_geom_bond_atom_site_label_2
_geom_bond_distance
_geom_bond_site_symmetry_2
Li0 O7 1.910218 1_555
Li0 O11 1.913397 1_555
Li0 O5 2.019361 1_555
Li0 O2 2.100274 1_565
Li1 O6 1.910218 1_555
Li1 O3 1.913397 1_555
Li1 O4 2.019361 1_555
Li1 O10 2.100274 1_655
Li2 O8 1.916539 1_555
Li2 O5 1.969724 1_555
Li2 O6 2.026255 1_555
Li2 O1 2.053208 1_455
Li3 O0 1.916539 1_555
Li3 O4 1.969724 1_555
Li3 O7 2.026255 1_554
Li3 O9 2.053208 1_545
Ni0 O6 2.006210 1_655
Ni0 O10 2.026857 1_655
Ni0 O3 2.030157 1_545
Ni0 O1 2.099666 1_555
Ni0 O0 2.107471 1_655
Ni1 O9 2.007109 1_545
Ni1 O4 2.012714 1_545
Ni1 O0 2.043037 1_655
Ni1 O2 2.105061 1_554
Ni1 O3 2.113760 1_545
Ni2 O7 2.006210 1_565
Ni2 O2 2.026857 1_565
Ni2 O11 2.030157 1_455
Ni2 O9 2.099666 1_556
Ni2 O8 2.107471 1_565
Ni3 O1 2.007109 1_455
Ni3 O5 2.012714 1_455
Ni3 O8 2.043037 1_565
Ni3 O10 2.105061 1_555
Ni3 O11 2.113760 1_455
B0 O7 1.376349 1_655
B0 O11 1.392975 1_555
B0 O2 1.396398 1_555
B1 O5 1.374100 1_545
B1 O1 1.390796 1_555
B1 O8 1.402314 1_555
B2 O6 1.376349 1_565
B2 O3 1.392975 1_555
B2 O10 1.396398 1_555
B3 O4 1.374100 1_455
B3 O9 1.390796 1_555
B3 O0 1.402314 1_555
