# generated using pymatgen
data_Mg2Co7O12
_symmetry_space_group_name_H-M   'P 1'
_cell_length_a   5.80801800
_cell_length_b   5.82153379
_cell_length_c   14.15972181
_cell_angle_alpha   90.04472336
_cell_angle_beta   90.15719846
_cell_angle_gamma   119.91665400
_symmetry_Int_Tables_number   1
_chemical_formula_structural   Mg2Co7O12
_chemical_formula_sum   'Mg4 Co14 O24'
_cell_volume   414.96540289
_cell_formula_units_Z   2
loop_
 _symmetry_equiv_pos_site_id
 _symmetry_equiv_pos_as_xyz
  1  'x, y, z'
loop_
 _atom_site_type_symbol
 _atom_site_label
 _atom_site_symmetry_multiplicity
 _atom_site_fract_x
 _atom_site_fract_y
 _atom_site_fract_z
 _atom_site_occupancy
  Mg  Mg0  1  0.33348700  0.66123900  0.04197900  1
  Mg  Mg1  1  0.16593800  0.83487900  0.20973400  1
  Mg  Mg2  1  0.83283700  0.66469200  0.54116300  1
  Mg  Mg3  1  0.49895400  0.00069400  0.87438200  1
  Co  Co0  1  0.67170700  0.33259400  0.08571100  1
  Co  Co1  1  0.16505200  0.32951800  0.20995100  1
  Co  Co2  1  0.66191200  0.33449400  0.33313300  1
  Co  Co3  1  0.99439600  0.99484200  0.99791800  1
  Co  Co4  1  0.33596600  0.16662700  0.54220800  1
  Co  Co5  1  0.83124500  0.16759900  0.54232700  1
  Co  Co6  1  0.66986400  0.83398900  0.20919100  1
  Co  Co7  1  0.33846700  0.67289800  0.41653500  1
  Co  Co8  1  0.66717300  0.33438600  0.70685000  1
  Co  Co9  1  0.99945700  0.00552300  0.37430200  1
  Co  Co10  1  0.32881100  0.65707900  0.66688900  1
  Co  Co11  1  0.50077300  0.50040800  0.87342800  1
  Co  Co12  1  0.99950400  0.50061600  0.87479500  1
  Co  Co13  1  0.00424700  0.01045200  0.74936200  1
  O  O0  1  0.85073900  0.14971700  0.28743600  1
  O  O1  1  0.29451700  0.16138500  0.29220000  1
  O  O2  1  0.49137300  0.50581500  0.13621500  1
  O  O3  1  0.01727000  0.49506800  0.13135800  1
  O  O4  1  0.15293700  0.30737100  0.46346600  1
  O  O5  1  0.50383500  0.98425400  0.12995000  1
  O  O6  1  0.34244600  0.65886800  0.28295600  1
  O  O7  1  0.99029300  0.00602500  0.13353100  1
  O  O8  1  0.51696900  0.03302000  0.62028100  1
  O  O9  1  0.83892600  0.70388000  0.29294400  1
  O  O10  1  0.65813400  0.31417400  0.47046500  1
  O  O11  1  0.50588100  0.46966700  0.62263300  1
  O  O12  1  0.96467400  0.47017100  0.62306900  1
  O  O13  1  0.36341900  0.19426100  0.79052500  1
  O  O14  1  0.83179100  0.19546600  0.79072700  1
  O  O15  1  0.16601100  0.85903900  0.45733700  1
  O  O16  1  0.69536900  0.86173800  0.45889000  1
  O  O17  1  0.81935900  0.63870000  0.79400800  1
  O  O18  1  0.67549400  0.34841900  0.94976800  1
  O  O19  1  0.00933400  0.01722200  0.61571000  1
  O  O20  1  0.17499900  0.34798900  0.94734900  1
  O  O21  1  0.32499900  0.65136300  0.80347600  1
  O  O22  1  0.16164200  0.81332000  0.95370500  1
  O  O23  1  0.64980500  0.81054200  0.95214500  1
loop_
_geom_bond_atom_site_label_1
_geom_bond_atom_site_label_2
_geom_bond_distance
_geom_bond_site_symmetry_2
Mg0 O3 2.037905 1_555
Mg0 O23 2.042177 1_554
Mg0 O5 2.049480 1_555
Mg0 O22 2.053931 1_554
Mg0 O2 2.064671 1_555
Mg0 O20 2.069607 1_554
Mg1 O1 2.027307 1_565
Mg1 O9 2.036178 1_455
Mg1 O3 2.044026 1_555
Mg1 O5 2.048249 1_555
Mg1 O7 2.051130 1_465
Mg1 O6 2.054129 1_555
Mg2 O12 2.018865 1_555
Mg2 O11 2.022220 1_555
Mg2 O10 2.030150 1_555
Mg2 O16 2.054511 1_555
Mg2 O15 2.065025 1_655
Mg2 O19 2.066167 1_665
Mg3 O21 2.026395 1_545
Mg3 O23 2.041933 1_545
Mg3 O22 2.042524 1_545
Mg3 O13 2.044785 1_555
Mg3 O18 2.051533 1_555
Mg3 O14 2.062527 1_555
Co0 O3 1.854441 1_655
Co0 O5 1.867733 1_545
Co0 O2 1.918807 1_555
Co0 O18 1.926852 1_554
Co1 O1 1.900235 1_555
Co1 O3 1.930166 1_555
Co1 O0 1.933585 1_455
Co1 O2 1.951356 1_555
Co1 O6 1.956238 1_555
Co1 O7 1.957501 1_455
Co2 O1 1.937034 1_555
Co2 O10 1.947789 1_555
Co2 O9 1.950613 1_555
Co2 O0 1.989499 1_555
Co3 O23 1.851128 1_555
Co3 O22 1.865040 1_655
Co3 O7 1.921911 1_566
Co3 O20 1.922219 1_665
Co4 O11 1.907121 1_555
Co4 O10 1.918232 1_555
Co4 O8 1.934638 1_555
Co4 O19 1.950643 1_555
Co4 O15 1.962649 1_545
Co4 O4 1.976927 1_555
Co5 O10 1.904181 1_555
Co5 O12 1.908063 1_555
Co5 O8 1.936476 1_555
Co5 O16 1.943972 1_545
Co5 O19 1.953115 1_655
Co5 O4 1.973904 1_655
Co6 O9 1.918630 1_555
Co6 O7 1.941067 1_565
Co6 O0 1.942638 1_565
Co6 O5 1.947066 1_555
Co6 O2 1.951372 1_555
Co6 O6 1.955844 1_555
Co7 O16 1.893197 1_555
Co7 O6 1.893842 1_555
Co7 O15 1.896350 1_555
Co7 O4 1.962080 1_555
Co8 O11 1.910775 1_555
Co8 O12 1.915229 1_555
Co8 O14 1.935276 1_555
Co8 O13 1.938845 1_555
Co8 O8 1.950819 1_555
Co8 O17 1.967611 1_555
Co9 O1 1.890281 1_655
Co9 O9 1.907319 1_545
Co9 O0 1.919019 1_555
Co9 O16 1.947579 1_545
Co9 O15 1.965584 1_645
Co9 O4 1.975939 1_655
Co10 O12 1.933423 1_455
Co10 O21 1.934344 1_555
Co10 O11 1.939683 1_555
Co10 O8 2.010002 1_565
Co11 O23 1.919373 1_555
Co11 O21 1.919974 1_555
Co11 O13 1.940154 1_555
Co11 O20 1.949517 1_555
Co11 O17 1.965582 1_555
Co11 O18 1.967798 1_555
Co12 O21 1.928955 1_655
Co12 O22 1.931388 1_655
Co12 O20 1.944964 1_655
Co12 O14 1.945734 1_555
Co12 O18 1.950044 1_555
Co12 O17 1.970603 1_555
Co13 O19 1.892921 1_555
Co13 O14 1.893337 1_455
Co13 O13 1.897952 1_555
Co13 O17 1.980946 1_445
