# generated using pymatgen
data_Na2FePCO7
_symmetry_space_group_name_H-M   'P 1'
_cell_length_a   6.53243000
_cell_length_b   8.95342780
_cell_length_c   10.48296165
_cell_angle_alpha   90.44921234
_cell_angle_beta   90.19840204
_cell_angle_gamma   90.71430973
_symmetry_Int_Tables_number   1
_chemical_formula_structural   Na2FePCO7
_chemical_formula_sum   'Na8 Fe4 P4 C4 O28'
_cell_volume   613.05331364
_cell_formula_units_Z   4
loop_
 _symmetry_equiv_pos_site_id
 _symmetry_equiv_pos_as_xyz
  1  'x, y, z'
loop_
 _atom_site_type_symbol
 _atom_site_label
 _atom_site_symmetry_multiplicity
 _atom_site_fract_x
 _atom_site_fract_y
 _atom_site_fract_z
 _atom_site_occupancy
  Na  Na0  1  0.74060500  0.91830900  0.38121000  1
  Na  Na1  1  0.73782100  0.91864900  0.88228600  1
  Na  Na2  1  0.98613100  0.73620500  0.12666500  1
  Na  Na3  1  0.51502900  0.73612100  0.62746500  1
  Na  Na4  1  0.01126200  0.26314400  0.37378400  1
  Na  Na5  1  0.01156900  0.26343000  0.87573600  1
  Na  Na6  1  0.27770700  0.08078400  0.11860600  1
  Na  Na7  1  0.25959300  0.08167000  0.61830800  1
  Fe  Fe0  1  0.24687100  0.65464300  0.39189700  1
  Fe  Fe1  1  0.25355400  0.65462300  0.89204800  1
  Fe  Fe2  1  0.73507800  0.34535900  0.10771800  1
  Fe  Fe3  1  0.73810800  0.34522800  0.60779600  1
  P  P0  1  0.74956700  0.57519400  0.35482400  1
  P  P1  1  0.75181800  0.57509300  0.85460600  1
  P  P2  1  0.24501900  0.42471600  0.14502300  1
  P  P3  1  0.24666100  0.42456800  0.64501400  1
  C  C0  1  0.24881100  0.93525200  0.36513900  1
  C  C1  1  0.24398000  0.93562100  0.86482100  1
  C  C2  1  0.76158400  0.06502400  0.13494500  1
  C  C3  1  0.75406300  0.06490700  0.63510200  1
  O  O0  1  0.76757500  0.92479600  0.14878100  1
  O  O1  1  0.74072000  0.92493300  0.64902400  1
  O  O2  1  0.27260700  0.87276800  0.47737500  1
  O  O3  1  0.23628600  0.87236100  0.97785300  1
  O  O4  1  0.24338800  0.84187600  0.26812600  1
  O  O5  1  0.26615200  0.84245300  0.76867400  1
  O  O6  1  0.93818400  0.68041600  0.37669200  1
  O  O7  1  0.56121000  0.67045400  0.39028200  1
  O  O8  1  0.93789600  0.67752400  0.88933700  1
  O  O9  1  0.56075300  0.67332600  0.87756700  1
  O  O10  1  0.24285900  0.56866300  0.06479700  1
  O  O11  1  0.25701600  0.56838200  0.56470200  1
  O  O12  1  0.74888400  0.52952600  0.21100500  1
  O  O13  1  0.75203100  0.52978700  0.71083900  1
  O  O14  1  0.23540000  0.46966300  0.28881500  1
  O  O15  1  0.23533600  0.46981000  0.78874900  1
  O  O16  1  0.76124300  0.43202100  0.43563100  1
  O  O17  1  0.75408100  0.43152800  0.93539100  1
  O  O18  1  0.43400500  0.32696900  0.11803600  1
  O  O19  1  0.05760500  0.32167400  0.11360200  1
  O  O20  1  0.43527600  0.32447800  0.62039800  1
  O  O21  1  0.05861000  0.32414300  0.61131800  1
  O  O22  1  0.75424200  0.15854300  0.23188000  1
  O  O23  1  0.75930000  0.15877700  0.73200000  1
  O  O24  1  0.75569400  0.12792800  0.02182000  1
  O  O25  1  0.75868400  0.12781600  0.52186200  1
  O  O26  1  0.23262200  0.07542700  0.35204800  1
  O  O27  1  0.23243800  0.07541500  0.85040800  1
loop_
_geom_bond_atom_site_label_1
_geom_bond_atom_site_label_2
_geom_bond_distance
_geom_bond_site_symmetry_2
Na0 O25 2.378339 1_565
Na0 O0 2.444606 1_555
Na0 O7 2.499247 1_555
Na0 O6 2.504432 1_555
Na0 O22 2.670938 1_565
Na0 O1 2.807643 1_555
Na1 O24 2.369512 1_566
Na1 O1 2.446498 1_555
Na1 O9 2.469707 1_555
Na1 O8 2.539028 1_555
Na1 O23 2.677908 1_565
Na1 O0 2.799801 1_556
Na2 O0 2.235956 1_555
Na2 O10 2.353376 1_655
Na2 O4 2.416494 1_655
Na2 O8 2.556349 1_554
Na2 O12 2.563494 1_555
Na2 O3 2.566678 1_654
Na2 O6 2.690666 1_555
Na3 O1 2.238765 1_555
Na3 O11 2.332996 1_555
Na3 O5 2.402898 1_555
Na3 O2 2.557624 1_555
Na3 O7 2.570111 1_555
Na3 O13 2.580880 1_555
Na3 O9 2.702051 1_555
Na4 O26 2.241551 1_555
Na4 O16 2.329711 1_455
Na4 O22 2.414654 1_455
Na4 O14 2.514662 1_555
Na4 O21 2.561928 1_555
Na4 O25 2.568546 1_455
Na4 O19 2.798139 1_555
Na5 O27 2.245477 1_555
Na5 O17 2.353956 1_455
Na5 O23 2.405451 1_455
Na5 O15 2.520103 1_555
Na5 O19 2.559420 1_556
Na5 O24 2.570447 1_456
Na5 O21 2.845807 1_555
Na6 O3 2.382045 1_544
Na6 O18 2.417668 1_555
Na6 O26 2.466603 1_555
Na6 O19 2.607747 1_555
Na6 O4 2.669383 1_545
Na6 O27 2.825971 1_554
Na7 O2 2.376927 1_545
Na7 O27 2.441195 1_555
Na7 O20 2.445515 1_555
Na7 O21 2.552465 1_555
Na7 O5 2.669947 1_545
Na7 O26 2.796217 1_555
Fe0 O14 1.970944 1_555
Fe0 O11 1.976065 1_555
Fe0 O6 2.038329 1_455
Fe0 O7 2.056647 1_555
Fe0 O4 2.128164 1_555
Fe0 O2 2.146765 1_555
Fe1 O15 1.972551 1_555
Fe1 O10 1.974347 1_556
Fe1 O9 2.017990 1_555
Fe1 O8 2.074844 1_455
Fe1 O5 2.130503 1_555
Fe1 O3 2.145006 1_555
Fe2 O12 1.966486 1_555
Fe2 O17 1.973597 1_554
Fe2 O18 1.974980 1_555
Fe2 O19 2.120892 1_655
Fe2 O22 2.132080 1_555
Fe2 O24 2.144460 1_555
Fe3 O13 1.968050 1_555
Fe3 O16 1.976099 1_555
Fe3 O20 1.989570 1_555
Fe3 O21 2.104716 1_655
Fe3 O23 2.130692 1_555
Fe3 O25 2.144443 1_555
C0 O26 1.269279 1_565
C0 O4 1.311543 1_555
C0 O2 1.316310 1_555
C1 O27 1.265047 1_565
C1 O5 1.312835 1_555
C1 O3 1.318168 1_555
C2 O0 1.266074 1_545
C2 O22 1.313007 1_555
C2 O24 1.317461 1_555
C3 O1 1.264815 1_545
C3 O23 1.313393 1_555
C3 O25 1.318202 1_555
O6 P0 1.556905 1_555
O7 P0 1.550460 1_555
O8 P1 1.554056 1_555
O9 P1 1.554165 1_555
O10 P2 1.544640 1_555
O11 P3 1.544860 1_555
O12 P0 1.558991 1_555
O13 P1 1.557676 1_555
O14 P2 1.558790 1_555
O15 P3 1.559441 1_555
O16 P0 1.544554 1_555
O17 P1 1.545027 1_555
O18 P2 1.547746 1_555
O19 P2 1.556522 1_555
O20 P3 1.553668 1_555
O21 P3 1.551372 1_555
