# generated using pymatgen
data_Li5BO4
_symmetry_space_group_name_H-M   'P 1'
_cell_length_a   8.59244400
_cell_length_b   8.70293600
_cell_length_c   8.94575000
_cell_angle_alpha   90.00000000
_cell_angle_beta   90.00000000
_cell_angle_gamma   90.00000000
_symmetry_Int_Tables_number   1
_chemical_formula_structural   Li5BO4
_chemical_formula_sum   'Li40 B8 O32'
_cell_volume   668.95862460
_cell_formula_units_Z   8
loop_
 _symmetry_equiv_pos_site_id
 _symmetry_equiv_pos_as_xyz
  1  'x, y, z'
loop_
 _atom_site_type_symbol
 _atom_site_label
 _atom_site_symmetry_multiplicity
 _atom_site_fract_x
 _atom_site_fract_y
 _atom_site_fract_z
 _atom_site_occupancy
  Li  Li0  1  0.40729600  0.17719600  0.12927900  1
  Li  Li1  1  0.90729600  0.17719600  0.37072100  1
  Li  Li2  1  0.56939300  0.08723600  0.59674100  1
  Li  Li3  1  0.06939300  0.08723600  0.90325900  1
  Li  Li4  1  0.36575300  0.14445600  0.85870900  1
  Li  Li5  1  0.86575300  0.14445600  0.64129100  1
  Li  Li6  1  0.18593900  0.12366100  0.40929900  1
  Li  Li7  1  0.68593900  0.12366100  0.09070100  1
  Li  Li8  1  0.14013400  0.08283200  0.65377900  1
  Li  Li9  1  0.64013400  0.08283200  0.84622100  1
  Li  Li10  1  0.14013400  0.41716800  0.15377900  1
  Li  Li11  1  0.64013400  0.41716800  0.34622100  1
  Li  Li12  1  0.18593900  0.37633900  0.90929900  1
  Li  Li13  1  0.68593900  0.37633900  0.59070100  1
  Li  Li14  1  0.36575300  0.35554400  0.35870900  1
  Li  Li15  1  0.86575300  0.35554400  0.14129100  1
  Li  Li16  1  0.06939300  0.41276400  0.40325900  1
  Li  Li17  1  0.56939300  0.41276400  0.09674100  1
  Li  Li18  1  0.90729600  0.32280400  0.87072100  1
  Li  Li19  1  0.40729600  0.32280400  0.62927900  1
  Li  Li20  1  0.09270400  0.67719600  0.12927900  1
  Li  Li21  1  0.59270400  0.67719600  0.37072100  1
  Li  Li22  1  0.93060700  0.58723600  0.59674100  1
  Li  Li23  1  0.43060700  0.58723600  0.90325900  1
  Li  Li24  1  0.63424700  0.64445600  0.64129100  1
  Li  Li25  1  0.13424700  0.64445600  0.85870900  1
  Li  Li26  1  0.31406100  0.62366100  0.40929900  1
  Li  Li27  1  0.81406100  0.62366100  0.09070100  1
  Li  Li28  1  0.35986600  0.58283200  0.65377900  1
  Li  Li29  1  0.85986600  0.58283200  0.84622100  1
  Li  Li30  1  0.35986600  0.91716800  0.15377900  1
  Li  Li31  1  0.85986600  0.91716800  0.34622100  1
  Li  Li32  1  0.31406100  0.87633900  0.90929900  1
  Li  Li33  1  0.81406100  0.87633900  0.59070100  1
  Li  Li34  1  0.63424700  0.85554400  0.14129100  1
  Li  Li35  1  0.13424700  0.85554400  0.35870900  1
  Li  Li36  1  0.93060700  0.91276400  0.09674100  1
  Li  Li37  1  0.43060700  0.91276400  0.40325900  1
  Li  Li38  1  0.09270400  0.82280400  0.62927900  1
  Li  Li39  1  0.59270400  0.82280400  0.87072100  1
  B  B0  1  0.13304500  0.14377600  0.14237800  1
  B  B1  1  0.63304500  0.14377600  0.35762200  1
  B  B2  1  0.13304500  0.35622400  0.64237800  1
  B  B3  1  0.63304500  0.35622400  0.85762200  1
  B  B4  1  0.36695500  0.64377600  0.14237800  1
  B  B5  1  0.86695500  0.64377600  0.35762200  1
  B  B6  1  0.36695500  0.85622400  0.64237800  1
  B  B7  1  0.86695500  0.85622400  0.85762200  1
  O  O0  1  0.03895400  0.03539100  0.24253600  1
  O  O1  1  0.53895400  0.03539100  0.25746400  1
  O  O2  1  0.24074700  0.05266400  0.03467300  1
  O  O3  1  0.74074700  0.05266400  0.46532700  1
  O  O4  1  0.22869400  0.24472000  0.24154800  1
  O  O5  1  0.72869400  0.24472000  0.25845200  1
  O  O6  1  0.53389600  0.25124100  0.95684200  1
  O  O7  1  0.03389600  0.25124100  0.54315800  1
  O  O8  1  0.03389600  0.24875900  0.04315800  1
  O  O9  1  0.53389600  0.24875900  0.45684200  1
  O  O10  1  0.22869400  0.25528000  0.74154800  1
  O  O11  1  0.72869400  0.25528000  0.75845200  1
  O  O12  1  0.24074700  0.44733600  0.53467300  1
  O  O13  1  0.74074700  0.44733600  0.96532700  1
  O  O14  1  0.53895400  0.46460900  0.75746400  1
  O  O15  1  0.03895400  0.46460900  0.74253600  1
  O  O16  1  0.46104600  0.53539100  0.24253600  1
  O  O17  1  0.96104600  0.53539100  0.25746400  1
  O  O18  1  0.25925300  0.55266400  0.03467300  1
  O  O19  1  0.75925300  0.55266400  0.46532700  1
  O  O20  1  0.27130600  0.74472000  0.24154800  1
  O  O21  1  0.77130600  0.74472000  0.25845200  1
  O  O22  1  0.46610400  0.75124100  0.54315800  1
  O  O23  1  0.96610400  0.75124100  0.95684200  1
  O  O24  1  0.96610400  0.74875900  0.45684200  1
  O  O25  1  0.46610400  0.74875900  0.04315800  1
  O  O26  1  0.27130600  0.75528000  0.74154800  1
  O  O27  1  0.77130600  0.75528000  0.75845200  1
  O  O28  1  0.25925300  0.94733600  0.53467300  1
  O  O29  1  0.75925300  0.94733600  0.96532700  1
  O  O30  1  0.46104600  0.96460900  0.74253600  1
  O  O31  1  0.96104600  0.96460900  0.75746400  1
loop_
_geom_bond_atom_site_label_1
_geom_bond_atom_site_label_2
_geom_bond_distance
_geom_bond_site_symmetry_2
Li0 O4 1.925903 1_555
Li0 O2 1.984644 1_555
Li0 O6 1.994524 1_554
Li0 O1 2.029225 1_555
Li1 O5 1.925903 1_555
Li1 O3 1.984644 1_555
Li1 O7 1.994524 1_655
Li1 O0 2.029225 1_655
Li2 O9 1.906658 1_555
Li2 O3 1.907975 1_555
Li2 O30 1.925280 1_545
Li3 O8 1.906658 1_556
Li3 O2 1.907975 1_556
Li3 O31 1.925280 1_445
Li4 O10 1.848150 1_555
Li4 O6 1.929163 1_555
Li4 O30 2.049469 1_545
Li4 O2 2.066342 1_556
Li5 O11 1.848150 1_555
Li5 O7 1.929163 1_655
Li5 O31 2.049469 1_545
Li5 O3 2.066342 1_555
Li6 O4 1.870012 1_555
Li6 O28 2.002391 1_545
Li6 O7 2.091287 1_555
Li6 O0 2.100176 1_555
Li7 O5 1.870012 1_555
Li7 O29 2.002391 1_544
Li7 O6 2.091287 1_554
Li7 O1 2.100176 1_555
Li8 O10 1.856860 1_555
Li8 O28 1.890349 1_545
Li8 O7 1.990152 1_555
Li8 O31 2.070472 1_445
Li9 O11 1.856860 1_555
Li9 O29 1.890349 1_545
Li9 O6 1.990152 1_555
Li9 O30 2.070472 1_545
Li10 O4 1.856860 1_555
Li10 O18 1.890349 1_555
Li10 O8 1.990152 1_555
Li10 O17 2.070472 1_455
Li11 O5 1.856860 1_555
Li11 O19 1.890349 1_555
Li11 O9 1.990152 1_555
Li11 O16 2.070472 1_555
Li12 O10 1.870012 1_555
Li12 O18 2.002391 1_556
Li12 O8 2.091287 1_556
Li12 O15 2.100176 1_555
Li13 O11 1.870012 1_555
Li13 O19 2.002391 1_555
Li13 O9 2.091287 1_555
Li13 O14 2.100176 1_555
Li14 O4 1.848150 1_555
Li14 O9 1.929163 1_555
Li14 O16 2.049469 1_555
Li14 O12 2.066342 1_555
Li15 O5 1.848150 1_555
Li15 O8 1.929163 1_655
Li15 O17 2.049469 1_555
Li15 O13 2.066342 1_554
Li16 O7 1.906658 1_555
Li16 O12 1.907975 1_555
Li16 O17 1.925280 1_455
Li17 O6 1.906658 1_554
Li17 O13 1.907975 1_554
Li17 O16 1.925280 1_555
Li18 O11 1.925903 1_555
Li18 O13 1.984644 1_555
Li18 O8 1.994524 1_656
Li18 O15 2.029225 1_655
Li19 O10 1.925903 1_555
Li19 O12 1.984644 1_555
Li19 O9 1.994524 1_555
Li19 O14 2.029225 1_555
Li20 O20 1.925903 1_555
Li20 O18 1.984644 1_555
Li20 O23 1.994524 1_454
Li20 O17 2.029225 1_455
Li21 O21 1.925903 1_555
Li21 O19 1.984644 1_555
Li21 O22 1.994524 1_555
Li21 O16 2.029225 1_555
Li22 O24 1.906658 1_555
Li22 O19 1.907975 1_555
Li22 O15 1.925280 1_655
Li23 O25 1.906658 1_556
Li23 O18 1.907975 1_556
Li23 O14 1.925280 1_555
Li24 O27 1.848150 1_555
Li24 O22 1.929163 1_555
Li24 O14 2.049469 1_555
Li24 O19 2.066342 1_555
Li25 O26 1.848150 1_555
Li25 O23 1.929163 1_455
Li25 O15 2.049469 1_555
Li25 O18 2.066342 1_556
Li26 O20 1.870012 1_555
Li26 O12 2.002391 1_555
Li26 O22 2.091287 1_555
Li26 O16 2.100176 1_555
Li27 O21 1.870012 1_555
Li27 O13 2.002391 1_554
Li27 O23 2.091287 1_554
Li27 O17 2.100176 1_555
Li28 O26 1.856860 1_555
Li28 O12 1.890349 1_555
Li28 O22 1.990152 1_555
Li28 O14 2.070472 1_555
Li29 O27 1.856860 1_555
Li29 O13 1.890349 1_555
Li29 O23 1.990152 1_555
Li29 O15 2.070472 1_655
Li30 O20 1.856860 1_555
Li30 O2 1.890349 1_565
Li30 O25 1.990152 1_555
Li30 O1 2.070472 1_565
Li31 O21 1.856860 1_555
Li31 O3 1.890349 1_565
Li31 O24 1.990152 1_555
Li31 O0 2.070472 1_665
Li32 O26 1.870012 1_555
Li32 O2 2.002391 1_566
Li32 O25 2.091287 1_556
Li32 O30 2.100176 1_555
Li33 O27 1.870012 1_555
Li33 O3 2.002391 1_565
Li33 O24 2.091287 1_555
Li33 O31 2.100176 1_555
Li34 O21 1.848150 1_555
Li34 O25 1.929163 1_555
Li34 O1 2.049469 1_565
Li34 O29 2.066342 1_554
Li35 O20 1.848150 1_555
Li35 O24 1.929163 1_455
Li35 O0 2.049469 1_565
Li35 O28 2.066342 1_555
Li36 O23 1.906658 1_554
Li36 O29 1.907975 1_554
Li36 O0 1.925280 1_665
Li37 O22 1.906658 1_555
Li37 O28 1.907975 1_555
Li37 O1 1.925280 1_565
Li38 O26 1.925903 1_555
Li38 O28 1.984644 1_555
Li38 O24 1.994524 1_455
Li38 O31 2.029225 1_455
Li39 O27 1.925903 1_555
Li39 O29 1.984644 1_555
Li39 O25 1.994524 1_556
Li39 O30 2.029225 1_555
B0 O4 1.494746 1_555
B0 O0 1.531723 1_555
B0 O8 1.532447 1_555
B0 O2 1.553545 1_555
B1 O5 1.494746 1_555
B1 O1 1.531723 1_555
B1 O9 1.532447 1_555
B1 O3 1.553545 1_555
B2 O10 1.494746 1_555
B2 O15 1.531723 1_555
B2 O7 1.532447 1_555
B2 O12 1.553545 1_555
B3 O11 1.494746 1_555
B3 O14 1.531723 1_555
B3 O6 1.532447 1_555
B3 O13 1.553545 1_555
B4 O20 1.494746 1_555
B4 O16 1.531723 1_555
B4 O25 1.532447 1_555
B4 O18 1.553545 1_555
B5 O21 1.494746 1_555
B5 O17 1.531723 1_555
B5 O24 1.532447 1_555
B5 O19 1.553545 1_555
B6 O26 1.494746 1_555
B6 O30 1.531723 1_555
B6 O22 1.532447 1_555
B6 O28 1.553545 1_555
B7 O27 1.494746 1_555
B7 O31 1.531723 1_555
B7 O23 1.532447 1_555
B7 O29 1.553545 1_555
