# generated using pymatgen
data_Li2Cr(Si2O5)3
_symmetry_space_group_name_H-M   'P 1'
_cell_length_a   9.73023624
_cell_length_b   9.73023624
_cell_length_c   9.73023624
_cell_angle_alpha   132.81230735
_cell_angle_beta   118.58079947
_cell_angle_gamma   80.90937473
_symmetry_Int_Tables_number   1
_chemical_formula_structural   Li2Cr(Si2O5)3
_chemical_formula_sum   'Li4 Cr2 Si12 O30'
_cell_volume   573.13319652
_cell_formula_units_Z   2
loop_
 _symmetry_equiv_pos_site_id
 _symmetry_equiv_pos_as_xyz
  1  'x, y, z'
loop_
 _atom_site_type_symbol
 _atom_site_label
 _atom_site_symmetry_multiplicity
 _atom_site_fract_x
 _atom_site_fract_y
 _atom_site_fract_z
 _atom_site_occupancy
  Li  Li0  1  0.24414800  0.24414800  0.50000000  1
  Li  Li1  1  0.24414800  0.74414800  0.00000000  1
  Li  Li2  1  0.75585200  0.75585200  0.50000000  1
  Li  Li3  1  0.75585200  0.25585200  0.00000000  1
  Cr  Cr0  1  0.50000000  0.00000000  0.50000000  1
  Cr  Cr1  1  0.00000000  0.50000000  0.50000000  1
  Si  Si0  1  0.87854500  0.65183500  0.22671100  1
  Si  Si1  1  0.07487600  0.84816500  0.22671100  1
  Si  Si2  1  0.38991100  0.54515000  0.22975000  1
  Si  Si3  1  0.38991100  0.16016200  0.84476200  1
  Si  Si4  1  0.18460000  0.95485000  0.84476200  1
  Si  Si5  1  0.18460000  0.33983800  0.22975000  1
  Si  Si6  1  0.61008900  0.83983800  0.15523800  1
  Si  Si7  1  0.61008900  0.45485000  0.77025000  1
  Si  Si8  1  0.81540000  0.04515000  0.15523800  1
  Si  Si9  1  0.81540000  0.66016200  0.77025000  1
  Si  Si10  1  0.12145500  0.34816500  0.77328900  1
  Si  Si11  1  0.92512400  0.15183500  0.77328900  1
  O  O0  1  0.95055700  0.25000000  0.70055700  1
  O  O1  1  0.73850000  0.06771100  0.67078900  1
  O  O2  1  0.10307800  0.43228900  0.67078900  1
  O  O3  1  0.76811400  0.81075400  0.29277600  1
  O  O4  1  0.76811400  0.47533800  0.95736000  1
  O  O5  1  0.47397200  0.37051100  0.10346100  1
  O  O6  1  0.98202200  0.68924600  0.95736000  1
  O  O7  1  0.98202200  0.02466200  0.29277600  1
  O  O8  1  0.23295000  0.12948900  0.10346100  1
  O  O9  1  0.15744600  0.39270100  0.40808200  1
  O  O10  1  0.15744600  0.74936400  0.76474500  1
  O  O11  1  0.51538100  0.75063600  0.40808200  1
  O  O12  1  0.51538100  0.10729900  0.76474500  1
  O  O13  1  0.32588800  0.99083600  0.81672300  1
  O  O14  1  0.32588800  0.50916400  0.33505200  1
  O  O15  1  0.67411200  0.00916400  0.18327700  1
  O  O16  1  0.67411200  0.49083600  0.66494800  1
  O  O17  1  0.84255400  0.25063600  0.23525500  1
  O  O18  1  0.84255400  0.60729900  0.59191800  1
  O  O19  1  0.48461900  0.24936400  0.59191800  1
  O  O20  1  0.48461900  0.89270100  0.23525500  1
  O  O21  1  0.52602800  0.62948900  0.89653900  1
  O  O22  1  0.23188600  0.52466200  0.04264000  1
  O  O23  1  0.23188600  0.18924600  0.70722400  1
  O  O24  1  0.76705000  0.87051100  0.89653900  1
  O  O25  1  0.01797800  0.31075400  0.04264000  1
  O  O26  1  0.01797800  0.97533800  0.70722400  1
  O  O27  1  0.26150000  0.93228900  0.32921100  1
  O  O28  1  0.89692200  0.56771100  0.32921100  1
  O  O29  1  0.04944300  0.75000000  0.29944300  1
loop_
_geom_bond_atom_site_label_1
_geom_bond_atom_site_label_2
_geom_bond_distance
_geom_bond_site_symmetry_2
Li0 O9 2.061765 1_555
Li0 O19 2.061765 1_555
Li0 O2 2.291421 1_555
Li0 O27 2.291421 1_545
Li0 O23 2.465687 1_555
Li0 O7 2.465687 1_455
Li1 O10 2.061765 1_554
Li1 O20 2.061765 1_555
Li1 O27 2.291421 1_555
Li1 O2 2.291421 1_554
Li1 O6 2.465687 1_454
Li1 O22 2.465687 1_555
Li2 O11 2.061765 1_555
Li2 O18 2.061765 1_555
Li2 O28 2.291421 1_555
Li2 O1 2.291421 1_565
Li2 O3 2.465687 1_555
Li2 O26 2.465687 1_655
Li3 O17 2.061765 1_555
Li3 O12 2.061765 1_554
Li3 O28 2.291421 1_555
Li3 O1 2.291421 1_554
Li3 O4 2.465687 1_554
Li3 O25 2.465687 1_655
Cr0 O19 1.942502 1_555
Cr0 O20 1.942502 1_545
Cr0 O12 1.942502 1_555
Cr0 O11 1.942502 1_545
Cr0 O27 1.971362 1_545
Cr0 O1 1.971362 1_555
Cr1 O17 1.942502 1_455
Cr1 O18 1.942502 1_455
Cr1 O9 1.942502 1_555
Cr1 O10 1.942502 1_555
Cr1 O28 1.971362 1_455
Cr1 O2 1.971362 1_555
O0 Si11 1.623412 1_555
O0 Si10 1.623421 1_655
O1 Si11 1.609173 1_555
O2 Si10 1.609171 1_555
O3 Si6 1.625962 1_555
O3 Si0 1.656414 1_555
O4 Si7 1.625963 1_555
O4 Si0 1.656420 1_556
O5 Si3 1.658571 1_554
O5 Si2 1.658578 1_555
O6 Si9 1.625967 1_555
O6 Si1 1.656421 1_656
O7 Si8 1.625967 1_555
O7 Si1 1.656421 1_645
O8 Si5 1.658572 1_555
O8 Si4 1.658572 1_544
O9 Si5 1.589945 1_555
O10 Si4 1.589945 1_555
O11 Si2 1.589949 1_555
O12 Si3 1.589954 1_555
O13 Si3 1.651601 1_565
O13 Si4 1.651619 1_555
O14 Si2 1.651605 1_555
O14 Si5 1.651612 1_555
O15 Si6 1.651601 1_545
O15 Si8 1.651619 1_555
O16 Si7 1.651605 1_555
O16 Si9 1.651612 1_555
O17 Si8 1.589945 1_555
O18 Si9 1.589945 1_555
O19 Si7 1.589949 1_555
O20 Si6 1.589954 1_555
O21 Si6 1.658571 1_556
O21 Si7 1.658578 1_555
O22 Si2 1.625963 1_555
O22 Si10 1.656420 1_554
O23 Si3 1.625962 1_555
O23 Si10 1.656414 1_555
O24 Si9 1.658572 1_555
O24 Si8 1.658572 1_566
O25 Si5 1.625967 1_555
O25 Si11 1.656421 1_454
O26 Si4 1.625967 1_555
O26 Si11 1.656421 1_465
O27 Si1 1.609173 1_555
O28 Si0 1.609171 1_555
O29 Si1 1.623412 1_555
O29 Si0 1.623421 1_455
