# generated using pymatgen
data_Li12VNi3P4(CO7)4
_symmetry_space_group_name_H-M   'P 1'
_cell_length_a   6.48830300
_cell_length_b   8.36412900
_cell_length_c   10.01529899
_cell_angle_alpha   84.83114797
_cell_angle_beta   90.00000000
_cell_angle_gamma   90.00000000
_symmetry_Int_Tables_number   1
_chemical_formula_structural   Li12VNi3P4(CO7)4
_chemical_formula_sum   'Li12 V1 Ni3 P4 C4 O28'
_cell_volume   541.31008062
_cell_formula_units_Z   1
loop_
 _symmetry_equiv_pos_site_id
 _symmetry_equiv_pos_as_xyz
  1  'x, y, z'
loop_
 _atom_site_type_symbol
 _atom_site_label
 _atom_site_symmetry_multiplicity
 _atom_site_fract_x
 _atom_site_fract_y
 _atom_site_fract_z
 _atom_site_occupancy
  Li  Li0  1  0.00000000  0.90105000  0.61529200  1
  Li  Li1  1  0.00000000  0.90148500  0.11601300  1
  Li  Li2  1  0.22776100  0.72151600  0.87589100  1
  Li  Li3  1  0.77223900  0.72151600  0.87589100  1
  Li  Li4  1  0.22933800  0.72086400  0.37646400  1
  Li  Li5  1  0.77066200  0.72086400  0.37646400  1
  Li  Li6  1  0.72555200  0.27972100  0.62921800  1
  Li  Li7  1  0.27444800  0.27972100  0.62921800  1
  Li  Li8  1  0.72798200  0.27859500  0.12081700  1
  Li  Li9  1  0.27201800  0.27859500  0.12081700  1
  Li  Li10  1  0.50000000  0.09940500  0.88432600  1
  Li  Li11  1  0.50000000  0.10023500  0.38380800  1
  V  V0  1  0.00000000  0.32861900  0.39605000  1
  Ni  Ni0  1  0.50000000  0.66752700  0.60392200  1
  Ni  Ni1  1  0.50000000  0.66785200  0.10375400  1
  Ni  Ni2  1  0.00000000  0.33395700  0.89625400  1
  P  P0  1  0.00000000  0.58718600  0.63983200  1
  P  P1  1  0.00000000  0.58653500  0.13681700  1
  P  P2  1  0.50000000  0.41535100  0.86260500  1
  P  P3  1  0.50000000  0.41517100  0.36200800  1
  C  C0  1  0.50000000  0.96048800  0.64946700  1
  C  C1  1  0.50000000  0.96044400  0.14934200  1
  C  C2  1  0.00000000  0.04107100  0.85008200  1
  C  C3  1  0.00000000  0.03417200  0.34862800  1
  O  O0  1  0.50000000  0.92571900  0.52564400  1
  O  O1  1  0.00000000  0.89398700  0.81772500  1
  O  O2  1  0.50000000  0.92525700  0.02582600  1
  O  O3  1  0.50000000  0.84089400  0.74264100  1
  O  O4  1  0.00000000  0.88592000  0.32023900  1
  O  O5  1  0.50000000  0.84089600  0.24283200  1
  O  O6  1  0.18696700  0.69170200  0.58831500  1
  O  O7  1  0.81303300  0.69170200  0.58831500  1
  O  O8  1  0.18724500  0.69079800  0.08522500  1
  O  O9  1  0.81275500  0.69079800  0.08522500  1
  O  O10  1  0.50000000  0.58236400  0.91697900  1
  O  O11  1  0.00000000  0.56288600  0.79646100  1
  O  O12  1  0.50000000  0.58164700  0.41760200  1
  O  O13  1  0.00000000  0.56607000  0.29308300  1
  O  O14  1  0.50000000  0.43919000  0.70559300  1
  O  O15  1  0.00000000  0.41989400  0.58681300  1
  O  O16  1  0.50000000  0.44056500  0.20543000  1
  O  O17  1  0.00000000  0.41857800  0.08358900  1
  O  O18  1  0.31321700  0.31004900  0.91264300  1
  O  O19  1  0.68678300  0.31004900  0.91264300  1
  O  O20  1  0.68319200  0.30812700  0.41349200  1
  O  O21  1  0.31680800  0.30812700  0.41349200  1
  O  O22  1  0.00000000  0.16075000  0.75682300  1
  O  O23  1  0.50000000  0.10714500  0.68157300  1
  O  O24  1  0.00000000  0.15008200  0.25278000  1
  O  O25  1  0.00000000  0.07540500  0.97350800  1
  O  O26  1  0.50000000  0.10731800  0.18082300  1
  O  O27  1  0.00000000  0.07214100  0.47171000  1
loop_
_geom_bond_atom_site_label_1
_geom_bond_atom_site_label_2
_geom_bond_distance
_geom_bond_site_symmetry_2
Li0 O27 1.935186 1_565
Li0 O1 2.022961 1_555
Li0 O7 2.167002 1_455
Li0 O6 2.167002 1_555
Li1 O25 1.943969 1_564
Li1 O4 2.037785 1_555
Li1 O9 2.185033 1_455
Li1 O8 2.185033 1_555
Li2 O8 2.105600 1_556
Li2 O1 2.110164 1_555
Li2 O10 2.134884 1_555
Li2 O11 2.183408 1_555
Li2 O3 2.378643 1_555
Li3 O9 2.105600 1_556
Li3 O1 2.110164 1_655
Li3 O10 2.134884 1_555
Li3 O11 2.183408 1_655
Li3 O3 2.378643 1_555
Li4 O4 2.072950 1_555
Li4 O12 2.126786 1_555
Li4 O6 2.131584 1_555
Li4 O13 2.186929 1_555
Li4 O5 2.375094 1_555
Li5 O4 2.072950 1_655
Li5 O12 2.126786 1_555
Li5 O7 2.131584 1_555
Li5 O13 2.186929 1_655
Li5 O5 2.375094 1_555
Li6 O23 2.088970 1_555
Li6 O15 2.153168 1_655
Li6 O14 2.165570 1_555
Li6 O20 2.169681 1_555
Li6 O22 2.359078 1_655
Li7 O23 2.088970 1_555
Li7 O15 2.153168 1_555
Li7 O14 2.165570 1_555
Li7 O21 2.169681 1_555
Li7 O22 2.359078 1_555
Li8 O19 2.094934 1_554
Li8 O26 2.108654 1_555
Li8 O17 2.132185 1_655
Li8 O16 2.224496 1_555
Li8 O24 2.400247 1_655
Li9 O18 2.094934 1_554
Li9 O26 2.108654 1_555
Li9 O17 2.132185 1_555
Li9 O16 2.224496 1_555
Li9 O24 2.400247 1_555
Li10 O2 1.938579 1_546
Li10 O23 2.025826 1_555
Li10 O18 2.177913 1_555
Li10 O19 2.177913 1_555
Li11 O0 1.942922 1_545
Li11 O26 2.028476 1_555
Li11 O21 2.148921 1_555
Li11 O20 2.148921 1_555
Ni0 O6 2.045678 1_555
Ni0 O7 2.045678 1_555
Ni0 O12 2.059037 1_555
Ni0 O14 2.081814 1_555
Ni0 O3 2.096633 1_555
Ni0 O0 2.230073 1_555
Ni1 O9 2.045167 1_555
Ni1 O8 2.045167 1_555
Ni1 O10 2.061904 1_554
Ni1 O16 2.074169 1_555
Ni1 O5 2.097214 1_555
Ni1 O2 2.222981 1_555
Ni2 O19 2.047204 1_455
Ni2 O18 2.047204 1_555
Ni2 O17 2.064077 1_556
Ni2 O11 2.078585 1_555
Ni2 O22 2.100805 1_555
Ni2 O25 2.230210 1_555
C0 O23 1.295822 1_565
C0 O0 1.299023 1_555
C0 O3 1.305070 1_555
C1 O26 1.295509 1_565
C1 O2 1.297116 1_555
C1 O5 1.306847 1_555
C2 O25 1.294023 1_555
C2 O1 1.300122 1_545
C2 O22 1.306119 1_555
C3 O4 1.296905 1_545
C3 O27 1.300365 1_555
C3 O24 1.301427 1_555
O6 P0 1.555876 1_555
O7 P0 1.555876 1_655
O8 P1 1.556371 1_555
O9 P1 1.556371 1_655
O10 P2 1.544347 1_555
O11 P0 1.563534 1_555
O12 P3 1.545497 1_555
O13 P1 1.558979 1_555
O13 V0 2.153812 1_555
O14 P2 1.567191 1_555
O15 P0 1.540696 1_555
O15 V0 2.120340 1_555
O16 P3 1.563417 1_555
O17 P1 1.546813 1_555
O18 P2 1.554370 1_555
O19 P2 1.554370 1_555
O20 P3 1.548253 1_555
O20 V0 2.068760 1_655
O21 P3 1.548253 1_555
O21 V0 2.068760 1_555
O24 V0 2.162166 1_555
O27 V0 2.209807 1_555
