# generated using pymatgen
data_LiMn2(BO3)2
_symmetry_space_group_name_H-M   'P 1'
_cell_length_a   5.86225185
_cell_length_b   9.22567602
_cell_length_c   5.26299916
_cell_angle_alpha   91.90753474
_cell_angle_beta   111.67093945
_cell_angle_gamma   105.32260798
_symmetry_Int_Tables_number   1
_chemical_formula_structural   LiMn2(BO3)2
_chemical_formula_sum   'Li2 Mn4 B4 O12'
_cell_volume   252.38459795
_cell_formula_units_Z   2
loop_
 _symmetry_equiv_pos_site_id
 _symmetry_equiv_pos_as_xyz
  1  'x, y, z'
loop_
 _atom_site_type_symbol
 _atom_site_label
 _atom_site_symmetry_multiplicity
 _atom_site_fract_x
 _atom_site_fract_y
 _atom_site_fract_z
 _atom_site_occupancy
  Li  Li0  1  0.66593400  0.18859700  0.25374200  1
  Li  Li1  1  0.33406700  0.81140300  0.74625700  1
  Mn  Mn0  1  0.74989500  0.39609100  0.76801100  1
  Mn  Mn1  1  0.75344700  0.87650000  0.27224100  1
  Mn  Mn2  1  0.24654900  0.12349400  0.72776300  1
  Mn  Mn3  1  0.25009000  0.60391700  0.23198700  1
  B  B0  1  0.74410900  0.05984100  0.77493000  1
  B  B1  1  0.73459700  0.53207400  0.27134700  1
  B  B2  1  0.26540100  0.46792700  0.72865900  1
  B  B3  1  0.25589600  0.94015800  0.22506500  1
  O  O0  1  0.83470200  0.07681100  0.56068700  1
  O  O1  1  0.87513400  0.56345200  0.10241900  1
  O  O2  1  0.71830200  0.40189300  0.38576700  1
  O  O3  1  0.68133900  0.18247300  0.87106000  1
  O  O4  1  0.61267000  0.63799800  0.29905500  1
  O  O5  1  0.30114300  0.07349400  0.12313200  1
  O  O6  1  0.69886200  0.92650300  0.87686000  1
  O  O7  1  0.38732800  0.36200000  0.70095700  1
  O  O8  1  0.31866500  0.81752400  0.12893500  1
  O  O9  1  0.28169700  0.59810600  0.61423600  1
  O  O10  1  0.12486800  0.43655300  0.89758600  1
  O  O11  1  0.16530400  0.92319100  0.43930800  1
loop_
_geom_bond_atom_site_label_1
_geom_bond_atom_site_label_2
_geom_bond_distance
_geom_bond_site_symmetry_2
Li0 O5 1.959307 1_555
Li0 O2 1.970140 1_555
Li0 O0 2.030237 1_555
Li0 O3 2.048711 1_554
Li1 O6 1.959322 1_555
Li1 O9 1.970140 1_555
Li1 O11 2.030253 1_555
Li1 O8 2.048683 1_556
Mn0 O2 1.954875 1_555
Mn0 O7 1.956112 1_555
Mn0 O10 1.969436 1_655
Mn0 O3 2.037923 1_555
Mn0 O1 2.070323 1_556
Mn1 O6 2.072547 1_554
Mn1 O11 2.155292 1_655
Mn1 O4 2.165519 1_555
Mn1 O0 2.181870 1_565
Mn1 O8 2.276240 1_555
Mn2 O5 2.072470 1_556
Mn2 O0 2.155246 1_455
Mn2 O7 2.165545 1_555
Mn2 O11 2.181857 1_545
Mn2 O3 2.276287 1_555
Mn3 O9 1.954886 1_555
Mn3 O4 1.956182 1_555
Mn3 O1 1.969341 1_455
Mn3 O8 2.037840 1_555
Mn3 O10 2.070330 1_554
B0 O6 1.359393 1_545
B0 O0 1.409972 1_555
B0 O3 1.410946 1_555
B1 O2 1.358006 1_555
B1 O4 1.386999 1_555
B1 O1 1.408917 1_555
B2 O9 1.357997 1_555
B2 O7 1.387013 1_555
B2 O10 1.408892 1_555
B3 O5 1.359385 1_565
B3 O11 1.409967 1_555
B3 O8 1.410958 1_555
