# generated using pymatgen
data_Li4Ti2Mn3Cr3O16
_symmetry_space_group_name_H-M   'P 1'
_cell_length_a   5.86971800
_cell_length_b   5.88902784
_cell_length_c   9.47953872
_cell_angle_alpha   90.96845788
_cell_angle_beta   89.89799883
_cell_angle_gamma   119.37425252
_symmetry_Int_Tables_number   1
_chemical_formula_structural   Li4Ti2Mn3Cr3O16
_chemical_formula_sum   'Li4 Ti2 Mn3 Cr3 O16'
_cell_volume   285.50159922
_cell_formula_units_Z   1
loop_
 _symmetry_equiv_pos_site_id
 _symmetry_equiv_pos_as_xyz
  1  'x, y, z'
loop_
 _atom_site_type_symbol
 _atom_site_label
 _atom_site_symmetry_multiplicity
 _atom_site_fract_x
 _atom_site_fract_y
 _atom_site_fract_z
 _atom_site_occupancy
  Li  Li0  1  0.33361700  0.67870700  0.10172000  1
  Li  Li1  1  0.99920600  0.99755100  0.00544400  1
  Li  Li2  1  0.00353500  0.99335300  0.50510400  1
  Li  Li3  1  0.66334900  0.33760100  0.60455100  1
  Ti  Ti0  1  0.33478700  0.66038800  0.50638800  1
  Ti  Ti1  1  0.66612600  0.33585400  0.00448800  1
  Mn  Mn0  1  0.16840000  0.82740500  0.78398800  1
  Mn  Mn1  1  0.83024500  0.65686400  0.28378500  1
  Mn  Mn2  1  0.33889200  0.17115900  0.28577600  1
  Cr  Cr0  1  0.66011700  0.83038900  0.78571500  1
  Cr  Cr1  1  0.16953800  0.33972000  0.78599100  1
  Cr  Cr2  1  0.82849100  0.16699300  0.28523300  1
  O  O0  1  0.66759000  0.83027800  0.40271300  1
  O  O1  1  0.47622900  0.51879500  0.65809000  1
  O  O2  1  0.32941200  0.67486400  0.89250500  1
  O  O3  1  0.00234900  0.99361400  0.69172000  1
  O  O4  1  0.00231600  0.98784100  0.19343900  1
  O  O5  1  0.16714800  0.32669600  0.40653100  1
  O  O6  1  0.47124100  0.95950900  0.66111500  1
  O  O7  1  0.03687600  0.52310800  0.66296500  1
  O  O8  1  0.83584900  0.17137600  0.90832900  1
  O  O9  1  0.14772700  0.80109000  0.40827100  1
  O  O10  1  0.96232600  0.48244100  0.16366100  1
  O  O11  1  0.51782000  0.04676100  0.15780400  1
  O  O12  1  0.66472500  0.34347400  0.39065700  1
  O  O13  1  0.84249300  0.66829000  0.90065200  1
  O  O14  1  0.54580800  0.51206300  0.15126500  1
  O  O15  1  0.33408900  0.16411800  0.90425800  1
loop_
_geom_bond_atom_site_label_1
_geom_bond_atom_site_label_2
_geom_bond_distance
_geom_bond_site_symmetry_2
Li0 O11 1.952869 1_565
Li0 O2 1.983068 1_554
Li0 O14 1.987892 1_555
Li0 O10 1.994387 1_455
Li1 O4 1.784402 1_655
Li1 O13 1.944511 1_554
Li1 O8 1.952620 1_564
Li1 O15 1.969678 1_664
Li2 O3 1.769013 1_555
Li2 O9 1.934713 1_555
Li2 O5 1.964283 1_565
Li2 O0 1.967307 1_455
Li3 O1 1.931840 1_555
Li3 O7 1.985258 1_655
Li3 O6 2.022834 1_545
Li3 O12 2.028430 1_555
Mn0 O2 1.904198 1_555
Mn0 O3 1.908133 1_555
Mn0 O7 1.923521 1_555
Mn0 O6 1.946373 1_555
Mn0 O13 2.007381 1_455
Mn0 O15 2.052625 1_565
Mn1 O14 1.915017 1_555
Mn1 O4 1.916973 1_655
Mn1 O12 1.917562 1_555
Mn1 O10 1.921302 1_555
Mn1 O9 2.001973 1_655
Mn1 O0 2.034506 1_555
Mn2 O4 1.927833 1_545
Mn2 O12 1.935142 1_555
Mn2 O11 1.957445 1_555
Mn2 O5 2.007951 1_555
Mn2 O14 2.195543 1_555
Mn2 O9 2.244750 1_545
Cr0 O3 1.970150 1_655
Cr0 O2 1.977852 1_555
Cr0 O1 1.995608 1_555
Cr0 O6 2.016047 1_555
Cr0 O13 2.070308 1_555
Cr0 O8 2.083439 1_565
Cr1 O3 1.973655 1_545
Cr1 O2 1.978519 1_555
Cr1 O1 1.998967 1_555
Cr1 O7 2.000904 1_555
Cr1 O15 2.069333 1_555
Cr1 O8 2.071220 1_455
Cr2 O4 1.983212 1_645
Cr2 O12 1.986067 1_555
Cr2 O11 1.999532 1_555
Cr2 O10 2.008416 1_555
Cr2 O5 2.072592 1_655
Cr2 O0 2.073131 1_545
O0 Ti0 1.972799 1_555
O1 Ti0 2.043656 1_555
O5 Ti0 1.941508 1_555
O6 Ti0 2.104415 1_555
O7 Ti0 2.135160 1_555
O8 Ti1 1.917071 1_556
O9 Ti0 1.918193 1_555
O10 Ti1 2.130173 1_555
O11 Ti1 2.096120 1_555
O13 Ti1 1.986591 1_556
O14 Ti1 2.044056 1_555
O15 Ti1 1.940225 1_556
