# generated using pymatgen
data_Li6Ti(BO3)3
_symmetry_space_group_name_H-M   'P 1'
_cell_length_a   16.24116200
_cell_length_b   6.52147900
_cell_length_c   7.07589303
_cell_angle_alpha   74.94769125
_cell_angle_beta   90.00000000
_cell_angle_gamma   90.00000000
_symmetry_Int_Tables_number   1
_chemical_formula_structural   Li6Ti(BO3)3
_chemical_formula_sum   'Li24 Ti4 B12 O36'
_cell_volume   723.73870870
_cell_formula_units_Z   4
loop_
 _symmetry_equiv_pos_site_id
 _symmetry_equiv_pos_as_xyz
  1  'x, y, z'
loop_
 _atom_site_type_symbol
 _atom_site_label
 _atom_site_symmetry_multiplicity
 _atom_site_fract_x
 _atom_site_fract_y
 _atom_site_fract_z
 _atom_site_occupancy
  Li  Li0  1  0.00467000  0.32095000  0.06758800  1
  Li  Li1  1  0.44556300  0.41419800  0.13639000  1
  Li  Li2  1  0.49533000  0.82095000  0.06758800  1
  Li  Li3  1  0.53660500  0.05323600  0.30485800  1
  Li  Li4  1  0.05443700  0.91419800  0.13639000  1
  Li  Li5  1  0.29212400  0.36284900  0.27562600  1
  Li  Li6  1  0.96339500  0.55323600  0.30485800  1
  Li  Li7  1  0.70671500  0.04543900  0.42161100  1
  Li  Li8  1  0.03029400  0.17006500  0.45893700  1
  Li  Li9  1  0.20787600  0.86284900  0.27562600  1
  Li  Li10  1  0.79328500  0.54543900  0.42161100  1
  Li  Li11  1  0.46970600  0.67006500  0.45893700  1
  Li  Li12  1  0.53029400  0.32993500  0.54106300  1
  Li  Li13  1  0.20671500  0.45456100  0.57838900  1
  Li  Li14  1  0.79212400  0.13715100  0.72437400  1
  Li  Li15  1  0.96970600  0.82993500  0.54106300  1
  Li  Li16  1  0.29328500  0.95456100  0.57838900  1
  Li  Li17  1  0.03660500  0.44676400  0.69514200  1
  Li  Li18  1  0.70787600  0.63715100  0.72437400  1
  Li  Li19  1  0.94556300  0.08580200  0.86361000  1
  Li  Li20  1  0.46339500  0.94676400  0.69514200  1
  Li  Li21  1  0.50467000  0.17905000  0.93241200  1
  Li  Li22  1  0.55443700  0.58580200  0.86361000  1
  Li  Li23  1  0.99533000  0.67905000  0.93241200  1
  Ti  Ti0  1  0.81325500  0.33846300  0.07623200  1
  Ti  Ti1  1  0.68674500  0.83846300  0.07623200  1
  Ti  Ti2  1  0.31325500  0.16153700  0.92376800  1
  Ti  Ti3  1  0.18674500  0.66153700  0.92376800  1
  B  B0  1  0.63856700  0.34190700  0.08253100  1
  B  B1  1  0.86143300  0.84190700  0.08253100  1
  B  B2  1  0.12470900  0.50119700  0.28162200  1
  B  B3  1  0.88050100  0.18870800  0.43103400  1
  B  B4  1  0.37529100  0.00119700  0.28162200  1
  B  B5  1  0.61949900  0.68870800  0.43103400  1
  B  B6  1  0.38050100  0.31129200  0.56896600  1
  B  B7  1  0.62470900  0.99880300  0.71837800  1
  B  B8  1  0.11949900  0.81129200  0.56896600  1
  B  B9  1  0.87529100  0.49880300  0.71837800  1
  B  B10  1  0.13856700  0.15809300  0.91746900  1
  B  B11  1  0.36143300  0.65809300  0.91746900  1
  O  O0  1  0.32866500  0.45676500  0.99068300  1
  O  O1  1  0.42188700  0.03945500  0.11030300  1
  O  O2  1  0.55448500  0.31976000  0.09872500  1
  O  O3  1  0.69270300  0.17157600  0.12384400  1
  O  O4  1  0.17133500  0.95676500  0.99068300  1
  O  O5  1  0.07811300  0.53945500  0.11030300  1
  O  O6  1  0.29449900  0.06405000  0.24917200  1
  O  O7  1  0.94551500  0.81976000  0.09872500  1
  O  O8  1  0.80729700  0.67157600  0.12384400  1
  O  O9  1  0.92728400  0.26945400  0.26291000  1
  O  O10  1  0.20550100  0.56405000  0.24917200  1
  O  O11  1  0.57271600  0.76945400  0.26291000  1
  O  O12  1  0.79792500  0.23730800  0.40730100  1
  O  O13  1  0.41797200  0.42433400  0.39912400  1
  O  O14  1  0.59052200  0.08261400  0.53785600  1
  O  O15  1  0.09052200  0.41738600  0.46214400  1
  O  O16  1  0.70207500  0.73730800  0.40730100  1
  O  O17  1  0.91797200  0.07566600  0.60087600  1
  O  O18  1  0.08202800  0.92433400  0.39912400  1
  O  O19  1  0.29792500  0.26269200  0.59269900  1
  O  O20  1  0.90947800  0.58261400  0.53785600  1
  O  O21  1  0.40947800  0.91738600  0.46214400  1
  O  O22  1  0.58202800  0.57566600  0.60087600  1
  O  O23  1  0.20207500  0.76269200  0.59269900  1
  O  O24  1  0.42728400  0.23054600  0.73709000  1
  O  O25  1  0.79449900  0.43595000  0.75082800  1
  O  O26  1  0.07271600  0.73054600  0.73709000  1
  O  O27  1  0.19270300  0.32842400  0.87615600  1
  O  O28  1  0.05448500  0.18024000  0.90127500  1
  O  O29  1  0.70550100  0.93595000  0.75082800  1
  O  O30  1  0.92188700  0.46054500  0.88969700  1
  O  O31  1  0.82866500  0.04323500  0.00931700  1
  O  O32  1  0.30729700  0.82842400  0.87615600  1
  O  O33  1  0.44551500  0.68024000  0.90127500  1
  O  O34  1  0.57811300  0.96054500  0.88969700  1
  O  O35  1  0.67133500  0.54323500  0.00931700  1
loop_
_geom_bond_atom_site_label_1
_geom_bond_atom_site_label_2
_geom_bond_distance
_geom_bond_site_symmetry_2
Li0 O9 1.833436 1_455
Li0 O28 1.855373 1_554
Li0 O30 1.904116 1_454
Li0 O5 1.941232 1_555
Li1 O2 1.914424 1_555
Li1 O13 1.930070 1_555
Li1 O33 2.068503 1_554
Li1 O0 2.143807 1_554
Li1 O1 2.527604 1_555
Li2 O11 1.833436 1_555
Li2 O33 1.855373 1_554
Li2 O34 1.904116 1_554
Li2 O1 1.941232 1_565
Li3 O14 1.919813 1_555
Li3 O2 1.978910 1_555
Li3 O11 2.035287 1_545
Li3 O1 2.332133 1_555
Li3 O21 2.402986 1_545
Li4 O7 1.914424 1_455
Li4 O18 1.930070 1_555
Li4 O28 2.068503 1_564
Li4 O4 2.143807 1_554
Li4 O5 2.527604 1_555
Li5 O10 1.899578 1_555
Li5 O6 2.005758 1_555
Li5 O0 2.037424 1_554
Li5 O19 2.169789 1_555
Li5 O13 2.298696 1_555
Li6 O20 1.919813 1_555
Li6 O7 1.978910 1_555
Li6 O9 2.035287 1_555
Li6 O5 2.332133 1_655
Li6 O15 2.402986 1_655
Li7 O12 1.924718 1_555
Li7 O16 2.039506 1_545
Li7 O3 2.065805 1_555
Li7 O14 2.097641 1_555
Li7 O29 2.252305 1_545
Li8 O15 1.891505 1_555
Li8 O18 1.950762 1_545
Li8 O17 2.096284 1_455
Li8 O9 2.162415 1_455
Li9 O6 1.899578 1_565
Li9 O10 2.005758 1_555
Li9 O4 2.037424 1_554
Li9 O23 2.169789 1_555
Li9 O18 2.298696 1_555
Li10 O16 1.924718 1_555
Li10 O12 2.039506 1_555
Li10 O8 2.065805 1_555
Li10 O20 2.097641 1_555
Li10 O25 2.252305 1_555
Li11 O21 1.891505 1_555
Li11 O13 1.950762 1_555
Li11 O22 2.096284 1_555
Li11 O11 2.162415 1_555
Li12 O14 1.891505 1_555
Li12 O22 1.950762 1_555
Li12 O13 2.096284 1_555
Li12 O24 2.162415 1_555
Li13 O19 1.924718 1_555
Li13 O23 2.039506 1_555
Li13 O27 2.065805 1_555
Li13 O15 2.097641 1_555
Li13 O10 2.252305 1_555
Li14 O29 1.899578 1_545
Li14 O25 2.005758 1_555
Li14 O31 2.037424 1_556
Li14 O12 2.169789 1_555
Li14 O17 2.298696 1_555
Li15 O20 1.891505 1_555
Li15 O17 1.950762 1_565
Li15 O18 2.096284 1_655
Li15 O26 2.162415 1_655
Li16 O23 1.924718 1_555
Li16 O19 2.039506 1_565
Li16 O32 2.065805 1_555
Li16 O21 2.097641 1_555
Li16 O6 2.252305 1_565
Li17 O15 1.919813 1_555
Li17 O28 1.978910 1_555
Li17 O26 2.035287 1_555
Li17 O30 2.332133 1_455
Li17 O20 2.402986 1_455
Li18 O25 1.899578 1_555
Li18 O29 2.005758 1_555
Li18 O35 2.037424 1_556
Li18 O16 2.169789 1_555
Li18 O22 2.298696 1_555
Li19 O28 1.914424 1_655
Li19 O17 1.930070 1_555
Li19 O7 2.068503 1_546
Li19 O31 2.143807 1_556
Li19 O30 2.527604 1_555
Li20 O21 1.919813 1_555
Li20 O33 1.978910 1_555
Li20 O24 2.035287 1_565
Li20 O34 2.332133 1_555
Li20 O14 2.402986 1_565
Li21 O24 1.833436 1_555
Li21 O2 1.855373 1_556
Li21 O1 1.904116 1_556
Li21 O34 1.941232 1_545
Li22 O33 1.914424 1_555
Li22 O22 1.930070 1_555
Li22 O2 2.068503 1_556
Li22 O35 2.143807 1_556
Li22 O34 2.527604 1_555
Li23 O26 1.833436 1_655
Li23 O7 1.855373 1_556
Li23 O5 1.904116 1_656
Li23 O30 1.941232 1_555
B0 O2 1.374856 1_555
B0 O35 1.386425 1_555
B0 O3 1.386990 1_555
B1 O7 1.374856 1_555
B1 O31 1.386425 1_565
B1 O8 1.386990 1_555
B2 O15 1.369684 1_555
B2 O10 1.376083 1_555
B2 O5 1.395484 1_555
B3 O17 1.377659 1_555
B3 O12 1.378274 1_555
B3 O9 1.394433 1_555
B4 O21 1.369684 1_545
B4 O6 1.376083 1_555
B4 O1 1.395484 1_555
B5 O22 1.377659 1_555
B5 O16 1.378274 1_555
B5 O11 1.394433 1_555
B6 O13 1.377659 1_555
B6 O19 1.378274 1_555
B6 O24 1.394433 1_555
B7 O14 1.369684 1_565
B7 O29 1.376083 1_555
B7 O34 1.395484 1_555
B8 O18 1.377659 1_555
B8 O23 1.378274 1_555
B8 O26 1.394433 1_555
B9 O20 1.369684 1_555
B9 O25 1.376083 1_555
B9 O30 1.395484 1_555
B10 O28 1.374856 1_555
B10 O4 1.386425 1_545
B10 O27 1.386990 1_555
B11 O33 1.374856 1_555
B11 O0 1.386425 1_555
B11 O32 1.386990 1_555
O0 Ti2 2.113572 1_555
O0 Ti3 2.644217 1_555
O1 Ti2 2.223282 1_554
O3 Ti0 2.222825 1_555
O3 Ti1 2.285230 1_545
O4 Ti3 2.113572 1_555
O4 Ti2 2.644217 1_565
O5 Ti3 2.223282 1_554
O6 Ti2 2.244610 1_554
O8 Ti1 2.222825 1_555
O8 Ti0 2.285230 1_555
O9 Ti0 2.251300 1_555
O10 Ti3 2.244610 1_554
O11 Ti1 2.251300 1_555
O12 Ti0 2.276470 1_555
O16 Ti1 2.276470 1_555
O19 Ti2 2.276470 1_555
O23 Ti3 2.276470 1_555
O24 Ti2 2.251300 1_555
O25 Ti0 2.244610 1_556
O26 Ti3 2.251300 1_555
O27 Ti2 2.222825 1_555
O27 Ti3 2.285230 1_555
O29 Ti1 2.244610 1_556
O30 Ti0 2.223282 1_556
O31 Ti0 2.113572 1_555
O31 Ti1 2.644217 1_545
O32 Ti3 2.222825 1_555
O32 Ti2 2.285230 1_565
O34 Ti1 2.223282 1_556
O35 Ti1 2.113572 1_555
O35 Ti0 2.644217 1_555
