# generated using pymatgen
data_Zr2N2O
_symmetry_space_group_name_H-M   'P 1'
_cell_length_a   8.77974127
_cell_length_b   8.78072278
_cell_length_c   8.78776920
_cell_angle_alpha   109.26415360
_cell_angle_beta   109.41487374
_cell_angle_gamma   109.55086732
_symmetry_Int_Tables_number   1
_chemical_formula_structural   Zr2N2O
_chemical_formula_sum   'Zr16 N16 O8'
_cell_volume   522.69428212
_cell_formula_units_Z   8
loop_
 _symmetry_equiv_pos_site_id
 _symmetry_equiv_pos_as_xyz
  1  'x, y, z'
loop_
 _atom_site_type_symbol
 _atom_site_label
 _atom_site_symmetry_multiplicity
 _atom_site_fract_x
 _atom_site_fract_y
 _atom_site_fract_z
 _atom_site_occupancy
  Zr  Zr0  1  0.96889579  0.75001909  0.71560268  1
  Zr  Zr1  1  0.50039273  0.50034301  0.49913557  1
  Zr  Zr2  1  0.77772292  0.52696622  0.24779236  1
  Zr  Zr3  1  0.71982122  0.97087460  0.74927839  1
  Zr  Zr4  1  0.25026667  0.21240814  0.96267757  1
  Zr  Zr5  1  0.25209415  0.70613244  0.46602820  1
  Zr  Zr6  1  0.98723138  0.00065942  0.49911858  1
  Zr  Zr7  1  0.54021356  0.25166946  0.78358440  1
  Zr  Zr8  1  0.47172192  0.74790143  0.21553659  1
  Zr  Zr9  1  0.00291078  0.49020388  0.99385326  1
  Zr  Zr10  1  0.74298590  0.78822471  0.03395727  1
  Zr  Zr11  1  0.74879817  0.28737269  0.53512795  1
  Zr  Zr12  1  0.21217477  0.46870810  0.75159856  1
  Zr  Zr13  1  0.29130939  0.03382445  0.25095803  1
  Zr  Zr14  1  0.50172038  0.00182961  0.01043000  1
  Zr  Zr15  1  0.02961642  0.25544191  0.28812794  1
  N  N0  1  0.72998879  0.49455200  0.45733719  1
  N  N1  1  0.53249964  0.27411468  0.03847165  1
  N  N2  1  0.96373516  0.00697828  0.73360496  1
  N  N3  1  0.51058476  0.74188793  0.46970467  1
  N  N4  1  0.98879730  0.46107872  0.23097435  1
  N  N5  1  0.22819287  0.95787280  0.97131009  1
  N  N6  1  0.48320071  0.26216700  0.53401129  1
  N  N7  1  0.01446558  0.54673762  0.77557567  1
  N  N8  1  0.73344885  0.76168315  0.27079198  1
  N  N9  1  0.46876214  0.72686295  0.95225818  1
  N  N10  1  0.77007263  0.22985553  0.76634055  1
  N  N11  1  0.23801569  0.46377902  0.01468764  1
  N  N12  1  0.95425908  0.22310013  0.48572495  1
  N  N13  1  0.54314226  0.03083077  0.27170160  1
  N  N14  1  0.27364710  0.51171994  0.54388639  1
  N  N15  1  0.77434710  0.04123943  0.02926911  1
  O  O0  1  0.44783655  0.96753352  0.72355275  1
  O  O1  1  0.05580766  0.78099360  0.52004984  1
  O  O2  1  0.03907150  0.98987425  0.26442736  1
  O  O3  1  0.26223940  0.27147428  0.22902086  1
  O  O4  1  0.22252887  0.77356427  0.23696029  1
  O  O5  1  0.76034866  0.53612053  0.98052031  1
  O  O6  1  0.73869451  0.72068419  0.77172670  1
  O  O7  1  0.26843903  0.23271224  0.72528129  1
loop_
_geom_bond_atom_site_label_1
_geom_bond_atom_site_label_2
_geom_bond_distance
_geom_bond_site_symmetry_2
N0 Zr2 2.103942 1_555
N0 Zr1 2.179325 1_555
N0 Zr11 2.179594 1_555
N0 Zr0 2.215679 1_555
N1 Zr2 2.102712 1_555
N1 Zr4 2.154854 1_554
N1 Zr7 2.208854 1_554
N1 Zr14 2.232602 1_555
N2 Zr3 2.115663 1_545
N2 Zr6 2.122870 1_555
N2 Zr4 2.198835 1_655
N2 Zr0 2.226111 1_545
N3 Zr8 2.165934 1_555
N3 Zr5 2.172058 1_555
N3 Zr3 2.172862 1_555
N3 Zr1 2.196269 1_555
N4 Zr15 2.133746 1_655
N4 Zr2 2.152685 1_555
N4 Zr5 2.191842 1_655
N4 Zr9 2.219216 1_654
N5 Zr13 2.134698 1_566
N5 Zr0 2.162225 1_455
N5 Zr14 2.185768 1_566
N5 Zr4 2.206877 1_565
N6 Zr7 2.122162 1_555
N6 Zr13 2.169791 1_555
N6 Zr1 2.175524 1_555
N6 Zr11 2.263772 1_555
N7 Zr12 2.114438 1_555
N7 Zr0 2.140661 1_455
N7 Zr9 2.158719 1_555
N7 Zr11 2.254937 1_455
N8 Zr6 2.124656 1_565
N8 Zr8 2.136368 1_555
N8 Zr2 2.180175 1_555
N8 Zr10 2.194487 1_555
N9 Zr10 2.080802 1_556
N9 Zr12 2.150938 1_555
N9 Zr14 2.189535 1_566
N9 Zr8 2.249996 1_556
N10 Zr3 2.109013 1_545
N10 Zr9 2.131080 1_655
N10 Zr7 2.138986 1_555
N10 Zr11 2.215014 1_555
N11 Zr9 2.108424 1_554
N11 Zr4 2.148998 1_554
N11 Zr8 2.193214 1_555
N11 Zr12 2.263276 1_554
N12 Zr6 2.102399 1_555
N12 Zr15 2.120614 1_655
N12 Zr11 2.191199 1_555
N12 Zr12 2.264277 1_655
N13 Zr14 2.113245 1_555
N13 Zr13 2.167181 1_555
N13 Zr8 2.179727 1_545
N13 Zr11 2.179794 1_555
N14 Zr5 2.078193 1_555
N14 Zr12 2.176958 1_555
N14 Zr1 2.180698 1_555
N14 Zr15 2.222669 1_555
N15 Zr10 2.161428 1_545
N15 Zr3 2.163513 1_544
N15 Zr15 2.168269 1_655
N15 Zr14 2.240720 1_555
O0 Zr7 2.157196 1_565
O0 Zr5 2.165665 1_555
O0 Zr14 2.298000 1_566
O0 Zr3 2.311739 1_555
O1 Zr0 2.156540 1_455
O1 Zr5 2.173371 1_555
O1 Zr6 2.248206 1_465
O1 Zr2 2.368723 1_455
O2 Zr13 2.167886 1_565
O2 Zr6 2.234657 1_465
O2 Zr10 2.246696 1_455
O2 Zr15 2.304018 1_565
O3 Zr4 2.181106 1_554
O3 Zr1 2.187568 1_555
O3 Zr15 2.240975 1_555
O3 Zr13 2.246323 1_555
O4 Zr13 2.108024 1_565
O4 Zr5 2.238765 1_555
O4 Zr9 2.239582 1_554
O4 Zr8 2.334249 1_555
O5 Zr7 2.159200 1_555
O5 Zr10 2.175213 1_556
O5 Zr9 2.269708 1_655
O5 Zr2 2.332559 1_556
O6 Zr10 2.165418 1_556
O6 Zr1 2.181654 1_555
O6 Zr0 2.189194 1_555
O6 Zr3 2.323876 1_555
O7 Zr7 2.202016 1_555
O7 Zr4 2.203875 1_555
O7 Zr6 2.212720 1_455
O7 Zr12 2.244196 1_555
