# generated using pymatgen
data_H2O
_symmetry_space_group_name_H-M   'P 1'
_cell_length_a   7.50422077
_cell_length_b   7.50422045
_cell_length_c   7.06264348
_cell_angle_alpha   90.00000000
_cell_angle_beta   90.00000000
_cell_angle_gamma   120.00000601
_symmetry_Int_Tables_number   1
_chemical_formula_structural   H2O
_chemical_formula_sum   'H24 O12'
_cell_volume   344.43642694
_cell_formula_units_Z   12
loop_
 _symmetry_equiv_pos_site_id
 _symmetry_equiv_pos_as_xyz
  1  'x, y, z'
loop_
 _atom_site_type_symbol
 _atom_site_label
 _atom_site_symmetry_multiplicity
 _atom_site_fract_x
 _atom_site_fract_y
 _atom_site_fract_z
 _atom_site_occupancy
  H  H0  1  0.33601722  0.33601722  0.69603087  1
  H  H1  1  0.66398278  -0.00000000  0.69603087  1
  H  H2  1  -0.00000000  0.66398278  0.69603087  1
  H  H3  1  0.66398278  0.66398278  0.19603087  1
  H  H4  1  0.33601722  0.00000000  0.19603087  1
  H  H5  1  0.00000000  0.33601722  0.19603087  1
  H  H6  1  0.46040138  0.46040138  0.51139295  1
  H  H7  1  0.53959862  0.00000000  0.51139295  1
  H  H8  1  0.00000000  0.53959862  0.51139295  1
  H  H9  1  0.53959862  0.53959862  0.01139295  1
  H  H10  1  0.46040138  -0.00000000  0.01139295  1
  H  H11  1  -0.00000000  0.46040138  0.01139295  1
  H  H12  1  0.79297830  0.66924292  0.47850636  1
  H  H13  1  0.33075708  0.12373638  0.47850636  1
  H  H14  1  0.87626362  0.20702070  0.47850636  1
  H  H15  1  0.66924292  0.79297830  0.47850636  1
  H  H16  1  0.12373638  0.33075708  0.47850636  1
  H  H17  1  0.20702070  0.87626362  0.47850636  1
  H  H18  1  0.20702070  0.33075708  0.97850636  1
  H  H19  1  0.66924292  0.87626362  0.97850636  1
  H  H20  1  0.12373638  0.79297830  0.97850636  1
  H  H21  1  0.33075708  0.20702070  0.97850636  1
  H  H22  1  0.87626362  0.66924292  0.97850636  1
  H  H23  1  0.79297830  0.12373638  0.97850636  1
  O  O0  1  0.33423126  0.33423126  0.55515691  1
  O  O1  1  0.66576874  -0.00000000  0.55515691  1
  O  O2  1  -0.00000000  0.66576874  0.55515691  1
  O  O3  1  0.66576874  0.66576874  0.05515691  1
  O  O4  1  0.33423126  0.00000000  0.05515691  1
  O  O5  1  0.00000000  0.33423126  0.05515691  1
  O  O6  1  0.66741423  0.66741423  0.43040656  1
  O  O7  1  0.33258577  -0.00000000  0.43040656  1
  O  O8  1  -0.00000000  0.33258577  0.43040656  1
  O  O9  1  0.33258577  0.33258577  0.93040656  1
  O  O10  1  0.66741423  0.00000000  0.93040656  1
  O  O11  1  0.00000000  0.66741423  0.93040656  1
loop_
_geom_bond_atom_site_label_1
_geom_bond_atom_site_label_2
_geom_bond_distance
_geom_bond_site_symmetry_2
H0 O0 0.995033 1_555
H1 O1 0.995033 1_555
H2 O2 0.995033 1_555
H3 O3 0.995033 1_555
H4 O4 0.995033 1_555
H5 O5 0.995033 1_555
H6 O0 0.995983 1_555
H7 O1 0.995983 1_555
H8 O2 0.995983 1_555
H9 O3 0.995983 1_555
H10 O4 0.995983 1_555
H11 O5 0.995983 1_555
H12 O6 0.995247 1_555
H13 O7 0.995254 1_555
H14 O8 0.995254 1_655
H15 O6 0.995247 1_555
H16 O8 0.995254 1_555
H17 O7 0.995254 1_565
H18 O9 0.995254 1_555
H19 O10 0.995254 1_565
H20 O11 0.995250 1_555
H21 O9 0.995254 1_555
H22 O11 0.995254 1_655
H23 O10 0.995250 1_555
