# generated using pymatgen
data_Li3Mn3O8
_symmetry_space_group_name_H-M   'P 1'
_cell_length_a   8.34029356
_cell_length_b   8.34029356
_cell_length_c   8.30310529
_cell_angle_alpha   89.04957999
_cell_angle_beta   89.04957999
_cell_angle_gamma   90.21243491
_symmetry_Int_Tables_number   1
_chemical_formula_structural   Li3Mn3O8
_chemical_formula_sum   'Li12 Mn12 O32'
_cell_volume   577.40463679
_cell_formula_units_Z   4
loop_
 _symmetry_equiv_pos_site_id
 _symmetry_equiv_pos_as_xyz
  1  'x, y, z'
loop_
 _atom_site_type_symbol
 _atom_site_label
 _atom_site_symmetry_multiplicity
 _atom_site_fract_x
 _atom_site_fract_y
 _atom_site_fract_z
 _atom_site_occupancy
  Li  Li0  1  0.74817500  0.25182500  0.50000000  1
  Li  Li1  1  0.22169800  0.19177700  0.50436600  1
  Li  Li2  1  0.39143200  0.38636800  0.64048800  1
  Li  Li3  1  0.00159100  0.81940600  0.72706900  1
  Li  Li4  1  0.62128100  0.12922900  0.86946000  1
  Li  Li5  1  0.13469200  0.61342300  0.89001800  1
  Li  Li6  1  0.50054400  0.49945600  0.00000000  1
  Li  Li7  1  0.38657700  0.86530800  0.10998200  1
  Li  Li8  1  0.87077100  0.37871900  0.13054000  1
  Li  Li9  1  0.18059400  0.99840900  0.27293100  1
  Li  Li10  1  0.61363200  0.60856800  0.35951200  1
  Li  Li11  1  0.80822300  0.77830200  0.49563400  1
  Mn  Mn0  1  0.25999500  0.74000500  0.50000000  1
  Mn  Mn1  1  0.00544400  0.50181200  0.50262300  1
  Mn  Mn2  1  0.50462500  0.75109900  0.74755800  1
  Mn  Mn3  1  0.75457000  0.50781700  0.75253000  1
  Mn  Mn4  1  0.99576400  0.26091300  0.75905700  1
  Mn  Mn5  1  0.75238400  0.75450100  0.99635200  1
  Mn  Mn6  1  0.99515200  0.00484800  0.00000000  1
  Mn  Mn7  1  0.24549900  0.24761600  0.00364800  1
  Mn  Mn8  1  0.73908700  0.00423600  0.24094300  1
  Mn  Mn9  1  0.49218300  0.24543000  0.24747000  1
  Mn  Mn10  1  0.24890100  0.49537500  0.25244200  1
  Mn  Mn11  1  0.49818800  0.99455600  0.49737700  1
  O  O0  1  0.03450900  0.72899200  0.51634800  1
  O  O1  1  0.49613900  0.75779200  0.50990600  1
  O  O2  1  0.77972100  0.52016400  0.51713400  1
  O  O3  1  0.00448700  0.27409900  0.53295600  1
  O  O4  1  0.51260000  0.97891300  0.71944700  1
  O  O5  1  0.27871300  0.73282600  0.73055400  1
  O  O6  1  0.99072900  0.49481500  0.74157500  1
  O  O7  1  0.53084800  0.52270600  0.75022200  1
  O  O8  1  0.76772300  0.28273600  0.75657000  1
  O  O9  1  0.74483500  0.74368000  0.75548500  1
  O  O10  1  0.99025500  0.03802800  0.77479300  1
  O  O11  1  0.22950600  0.26381500  0.77744300  1
  O  O12  1  0.52315400  0.75246900  0.97162900  1
  O  O13  1  0.75799500  0.52965300  0.98248700  1
  O  O14  1  0.98147100  0.78247700  0.97150400  1
  O  O15  1  0.00955500  0.24180900  0.99477400  1
  O  O16  1  0.75819100  0.99044500  0.00522600  1
  O  O17  1  0.21752300  0.01852900  0.02849600  1
  O  O18  1  0.47034700  0.24200500  0.01751300  1
  O  O19  1  0.24753100  0.47684600  0.02837100  1
  O  O20  1  0.73618500  0.77049400  0.22255700  1
  O  O21  1  0.96197200  0.00974500  0.22520700  1
  O  O22  1  0.25632000  0.25516500  0.24451500  1
  O  O23  1  0.71726400  0.23227700  0.24343000  1
  O  O24  1  0.47729400  0.46915200  0.24977800  1
  O  O25  1  0.50518500  0.00927100  0.25842500  1
  O  O26  1  0.26717400  0.72128700  0.26944600  1
  O  O27  1  0.02108700  0.48740000  0.28055300  1
  O  O28  1  0.72590100  0.99551300  0.46704400  1
  O  O29  1  0.47983600  0.22027900  0.48286600  1
  O  O30  1  0.24220800  0.50386100  0.49009400  1
  O  O31  1  0.27100800  0.96549100  0.48365200  1
loop_
_geom_bond_atom_site_label_1
_geom_bond_atom_site_label_2
_geom_bond_distance
_geom_bond_site_symmetry_2
Li0 O23 2.158882 1_555
Li0 O8 2.158882 1_555
Li0 O3 2.167342 1_655
Li0 O28 2.167342 1_545
Li0 O2 2.259571 1_555
Li0 O29 2.259571 1_555
Li1 O31 1.942875 1_545
Li1 O3 1.951929 1_555
Li1 O29 2.169240 1_555
Li1 O22 2.226734 1_555
Li1 O11 2.357131 1_555
Li2 O7 1.880134 1_555
Li2 O11 2.015439 1_555
Li2 O30 2.022020 1_555
Li2 O29 2.052081 1_555
Li3 O10 1.874739 1_465
Li3 O0 1.932515 1_555
Li3 O14 2.051769 1_455
Li3 O9 2.237969 1_455
Li3 O5 2.424496 1_555
Li4 O8 1.979927 1_555
Li4 O16 1.980820 1_546
Li4 O18 1.994077 1_556
Li4 O4 2.006394 1_545
Li5 O19 1.871703 1_556
Li5 O6 2.005023 1_455
Li5 O5 2.020466 1_555
Li5 O14 2.023643 1_455
Li6 O7 2.090834 1_554
Li6 O24 2.090834 1_555
Li6 O19 2.126756 1_555
Li6 O12 2.126756 1_554
Li6 O18 2.163222 1_555
Li6 O13 2.163222 1_554
Li7 O12 1.871703 1_554
Li7 O25 2.005023 1_565
Li7 O26 2.020466 1_555
Li7 O17 2.023643 1_565
Li8 O23 1.979927 1_555
Li8 O15 1.980820 1_654
Li8 O13 1.994077 1_554
Li8 O27 2.006394 1_655
Li9 O21 1.874739 1_465
Li9 O31 1.932515 1_555
Li9 O17 2.051769 1_565
Li9 O22 2.237969 1_565
Li9 O26 2.424496 1_555
Li10 O24 1.880134 1_555
Li10 O20 2.015439 1_555
Li10 O1 2.022020 1_555
Li10 O2 2.052081 1_555
Li11 O0 1.942875 1_655
Li11 O28 1.951929 1_555
Li11 O2 2.169240 1_555
Li11 O9 2.226734 1_555
Li11 O20 2.357131 1_555
Mn0 O31 1.885054 1_555
Mn0 O0 1.885054 1_555
Mn0 O26 1.923210 1_555
Mn0 O5 1.923210 1_555
Mn0 O30 1.977715 1_555
Mn0 O1 1.977715 1_555
Mn1 O27 1.852246 1_555
Mn1 O2 1.891385 1_455
Mn1 O3 1.911644 1_555
Mn1 O0 1.914809 1_555
Mn1 O30 1.975691 1_555
Mn1 O6 1.985680 1_455
Mn2 O12 1.869665 1_555
Mn2 O5 1.897544 1_555
Mn2 O4 1.911249 1_555
Mn2 O7 1.917989 1_555
Mn2 O1 1.975563 1_555
Mn2 O9 2.006743 1_555
Mn3 O7 1.870888 1_555
Mn3 O8 1.880626 1_555
Mn3 O13 1.921701 1_555
Mn3 O2 1.963239 1_555
Mn3 O9 1.969685 1_555
Mn3 O6 1.973693 1_555
Mn4 O10 1.861693 1_555
Mn4 O3 1.878924 1_655
Mn4 O8 1.911709 1_555
Mn4 O6 1.954460 1_555
Mn4 O11 1.958060 1_655
Mn4 O15 1.966327 1_655
Mn5 O13 1.881441 1_555
Mn5 O20 1.887782 1_556
Mn5 O12 1.926259 1_555
Mn5 O14 1.931223 1_555
Mn5 O16 1.970888 1_556
Mn5 O9 2.005495 1_555
Mn6 O17 1.876852 1_655
Mn6 O14 1.876852 1_544
Mn6 O21 1.886873 1_555
Mn6 O10 1.886873 1_554
Mn6 O15 1.979240 1_654
Mn6 O16 1.979240 1_545
Mn7 O18 1.881441 1_555
Mn7 O11 1.887782 1_554
Mn7 O19 1.926259 1_555
Mn7 O17 1.931223 1_555
Mn7 O15 1.970888 1_554
Mn7 O22 2.005495 1_555
Mn8 O21 1.861693 1_555
Mn8 O28 1.878924 1_545
Mn8 O23 1.911709 1_555
Mn8 O25 1.954460 1_555
Mn8 O20 1.958060 1_545
Mn8 O16 1.966327 1_545
Mn9 O24 1.870888 1_555
Mn9 O23 1.880626 1_555
Mn9 O18 1.921701 1_555
Mn9 O29 1.963239 1_555
Mn9 O22 1.969685 1_555
Mn9 O25 1.973693 1_555
Mn10 O19 1.869665 1_555
Mn10 O26 1.897544 1_555
Mn10 O27 1.911249 1_555
Mn10 O24 1.917989 1_555
Mn10 O30 1.975563 1_555
Mn10 O22 2.006743 1_555
Mn11 O4 1.852246 1_555
Mn11 O29 1.891385 1_565
Mn11 O28 1.911644 1_555
Mn11 O31 1.914809 1_555
Mn11 O1 1.975691 1_555
Mn11 O25 1.985680 1_565
