# generated using pymatgen
data_Li9(FeO4)2
_symmetry_space_group_name_H-M   'P 1'
_cell_length_a   6.81552900
_cell_length_b   5.49924400
_cell_length_c   11.23974468
_cell_angle_alpha   73.27893338
_cell_angle_beta   90.00000000
_cell_angle_gamma   90.00000000
_symmetry_Int_Tables_number   1
_chemical_formula_structural   Li9(FeO4)2
_chemical_formula_sum   'Li18 Fe4 O16'
_cell_volume   403.45592620
_cell_formula_units_Z   2
loop_
 _symmetry_equiv_pos_site_id
 _symmetry_equiv_pos_as_xyz
  1  'x, y, z'
loop_
 _atom_site_type_symbol
 _atom_site_label
 _atom_site_symmetry_multiplicity
 _atom_site_fract_x
 _atom_site_fract_y
 _atom_site_fract_z
 _atom_site_occupancy
  Li  Li0  1  0.04599300  0.37302600  0.71970900  1
  Li  Li1  1  0.00022400  0.66326300  0.33891700  1
  Li  Li2  1  0.72045900  0.36028900  0.93974900  1
  Li  Li3  1  0.22580700  0.63448000  0.56185900  1
  Li  Li4  1  0.78658500  0.63496900  0.57146700  1
  Li  Li5  1  0.73051200  0.91470700  0.19907100  1
  Li  Li6  1  0.50806800  0.60037100  0.79355100  1
  Li  Li7  1  0.99977600  0.66326300  0.83891700  1
  Li  Li8  1  0.21258600  0.08892600  0.30307800  1
  Li  Li9  1  0.26948800  0.91470700  0.69907100  1
  Li  Li10  1  0.49248000  0.31463600  0.15844800  1
  Li  Li11  1  0.95400700  0.37302600  0.21970900  1
  Li  Li12  1  0.78741400  0.08892600  0.80307800  1
  Li  Li13  1  0.27954100  0.36028900  0.43974900  1
  Li  Li14  1  0.77419300  0.63448000  0.06185900  1
  Li  Li15  1  0.21341500  0.63496900  0.07146700  1
  Li  Li16  1  0.50752000  0.31463600  0.65844800  1
  Li  Li17  1  0.49193200  0.60037100  0.29355100  1
  Fe  Fe0  1  0.50697600  0.89675900  0.43919500  1
  Fe  Fe1  1  0.01504500  0.12363200  0.05632900  1
  Fe  Fe2  1  0.49302400  0.89675900  0.93919500  1
  Fe  Fe3  1  0.98495500  0.12363200  0.55632900  1
  O  O0  1  0.53423200  0.22609500  0.84624000  1
  O  O1  1  0.97420700  0.27525400  0.88672400  1
  O  O2  1  0.72137900  0.76460500  0.37921500  1
  O  O3  1  0.28273900  0.73815500  0.38634200  1
  O  O4  1  0.49315800  0.72736900  0.61037700  1
  O  O5  1  0.02269500  0.76858700  0.64349800  1
  O  O6  1  0.27862100  0.76460500  0.87921500  1
  O  O7  1  0.71726100  0.73815500  0.88634200  1
  O  O8  1  0.77324200  0.26030100  0.11340200  1
  O  O9  1  0.20289700  0.27234400  0.13199800  1
  O  O10  1  0.46576800  0.22609500  0.34624000  1
  O  O11  1  0.02579300  0.27525400  0.38672400  1
  O  O12  1  0.22675800  0.26030100  0.61340200  1
  O  O13  1  0.79710300  0.27234400  0.63199800  1
  O  O14  1  0.50684200  0.72736900  0.11037700  1
  O  O15  1  0.97730500  0.76858700  0.14349800  1
loop_
_geom_bond_atom_site_label_1
_geom_bond_atom_site_label_2
_geom_bond_distance
_geom_bond_site_symmetry_2
Li0 O1 1.863217 1_455
Li0 O12 1.938051 1_555
Li0 O5 2.102053 1_555
Li0 O13 2.114246 1_455
Li1 O11 2.052380 1_555
Li1 O2 2.067076 1_455
Li1 O3 2.070650 1_555
Li1 O15 2.110037 1_455
Li2 O8 1.903624 1_556
Li2 O0 1.925227 1_555
Li2 O1 1.930069 1_555
Li2 O7 1.990235 1_555
Li3 O5 1.921357 1_555
Li3 O3 1.928786 1_555
Li3 O12 1.970747 1_555
Li3 O4 2.009677 1_555
Li4 O13 1.914160 1_555
Li4 O5 2.031573 1_655
Li4 O2 2.118639 1_555
Li4 O4 2.139340 1_555
Li5 O8 1.889678 1_565
Li5 O2 1.955303 1_555
Li5 O15 2.038105 1_555
Li5 O14 2.229352 1_555
Li6 O4 1.977238 1_555
Li6 O0 1.979256 1_555
Li6 O7 2.037004 1_555
Li6 O6 2.165326 1_555
Li7 O1 2.052380 1_555
Li7 O6 2.067076 1_655
Li7 O7 2.070650 1_555
Li7 O5 2.110037 1_655
Li8 O9 1.898214 1_555
Li8 O3 1.945920 1_545
Li8 O10 1.998130 1_555
Li8 O11 2.027051 1_555
Li9 O12 1.889678 1_565
Li9 O6 1.955303 1_555
Li9 O5 2.038105 1_555
Li9 O4 2.229352 1_555
Li10 O9 2.019306 1_555
Li10 O8 2.023443 1_555
Li10 O10 2.033234 1_555
Li10 O14 2.178869 1_555
Li11 O11 1.863217 1_655
Li11 O8 1.938051 1_555
Li11 O15 2.102053 1_555
Li11 O9 2.114246 1_655
Li12 O13 1.898214 1_555
Li12 O7 1.945920 1_545
Li12 O0 1.998130 1_555
Li12 O1 2.027051 1_555
Li13 O12 1.903624 1_555
Li13 O10 1.925227 1_555
Li13 O11 1.930069 1_555
Li13 O3 1.990235 1_555
Li14 O15 1.921357 1_555
Li14 O7 1.928786 1_554
Li14 O8 1.970747 1_555
Li14 O14 2.009677 1_555
Li15 O9 1.914160 1_555
Li15 O15 2.031573 1_455
Li15 O6 2.118639 1_554
Li15 O14 2.139340 1_555
Li16 O13 2.019306 1_555
Li16 O12 2.023443 1_555
Li16 O0 2.033234 1_555
Li16 O4 2.178869 1_555
Li17 O14 1.977238 1_555
Li17 O10 1.979256 1_555
Li17 O3 2.037004 1_555
Li17 O2 2.165326 1_555
Fe0 O10 1.833498 1_565
Fe0 O2 1.843879 1_555
Fe0 O4 1.883403 1_555
Fe0 O3 1.935838 1_555
Fe1 O9 1.852453 1_555
Fe1 O1 1.868718 1_454
Fe1 O15 1.933261 1_445
Fe1 O8 1.992424 1_455
Fe2 O0 1.833498 1_565
Fe2 O6 1.843879 1_555
Fe2 O14 1.883403 1_556
Fe2 O7 1.935838 1_555
Fe3 O13 1.852453 1_555
Fe3 O11 1.868718 1_655
Fe3 O5 1.933261 1_645
Fe3 O12 1.992424 1_655
