# generated using pymatgen
data_Li2MnFe3O8
_symmetry_space_group_name_H-M   'P 1'
_cell_length_a   8.41994500
_cell_length_b   8.41994500
_cell_length_c   8.41994500
_cell_angle_alpha   90.00000000
_cell_angle_beta   90.00000000
_cell_angle_gamma   90.00000000
_symmetry_Int_Tables_number   1
_chemical_formula_structural   Li2MnFe3O8
_chemical_formula_sum   'Li8 Mn4 Fe12 O32'
_cell_volume   596.93599017
_cell_formula_units_Z   4
loop_
 _symmetry_equiv_pos_site_id
 _symmetry_equiv_pos_as_xyz
  1  'x, y, z'
loop_
 _atom_site_type_symbol
 _atom_site_label
 _atom_site_symmetry_multiplicity
 _atom_site_fract_x
 _atom_site_fract_y
 _atom_site_fract_z
 _atom_site_occupancy
  Li  Li0  1  0.50144400  0.50144400  0.50144400  1
  Li  Li1  1  0.74855600  0.74855600  0.74855600  1
  Li  Li2  1  0.75144400  0.25144400  0.24855600  1
  Li  Li3  1  0.99855600  0.49855600  0.00144400  1
  Li  Li4  1  0.00144400  0.99855600  0.49855600  1
  Li  Li5  1  0.24855600  0.75144400  0.25144400  1
  Li  Li6  1  0.25144400  0.24855600  0.75144400  1
  Li  Li7  1  0.49855600  0.00144400  0.99855600  1
  Mn  Mn0  1  0.62500000  0.37500000  0.87500000  1
  Mn  Mn1  1  0.87500000  0.62500000  0.37500000  1
  Mn  Mn2  1  0.12500000  0.12500000  0.12500000  1
  Mn  Mn3  1  0.37500000  0.87500000  0.62500000  1
  Fe  Fe0  1  0.62611300  0.62388700  0.12500000  1
  Fe  Fe1  1  0.62500000  0.87388700  0.37611300  1
  Fe  Fe2  1  0.62388700  0.12500000  0.62611300  1
  Fe  Fe3  1  0.87611300  0.87500000  0.12611300  1
  Fe  Fe4  1  0.87500000  0.12611300  0.87611300  1
  Fe  Fe5  1  0.87388700  0.37611300  0.62500000  1
  Fe  Fe6  1  0.12611300  0.87611300  0.87500000  1
  Fe  Fe7  1  0.12500000  0.62611300  0.62388700  1
  Fe  Fe8  1  0.12388700  0.37500000  0.37388700  1
  Fe  Fe9  1  0.37611300  0.62500000  0.87388700  1
  Fe  Fe10  1  0.37500000  0.37388700  0.12388700  1
  Fe  Fe11  1  0.37388700  0.12388700  0.37500000  1
  O  O0  1  0.61634700  0.60506800  0.88554200  1
  O  O1  1  0.61445800  0.38365300  0.10506800  1
  O  O2  1  0.61348200  0.11348200  0.38651800  1
  O  O3  1  0.64493200  0.63365300  0.36445800  1
  O  O4  1  0.60506800  0.88554200  0.61634700  1
  O  O5  1  0.63651800  0.86348200  0.13651800  1
  O  O6  1  0.63554200  0.14493200  0.86634700  1
  O  O7  1  0.63365300  0.36445800  0.64493200  1
  O  O8  1  0.86634700  0.63554200  0.14493200  1
  O  O9  1  0.86445800  0.85506800  0.36634700  1
  O  O10  1  0.86348200  0.13651800  0.63651800  1
  O  O11  1  0.89493200  0.11445800  0.11634700  1
  O  O12  1  0.85506800  0.36634700  0.86445800  1
  O  O13  1  0.88651800  0.88651800  0.88651800  1
  O  O14  1  0.88554200  0.61634700  0.60506800  1
  O  O15  1  0.88365300  0.39493200  0.38554200  1
  O  O16  1  0.11634700  0.89493200  0.11445800  1
  O  O17  1  0.11445800  0.11634700  0.89493200  1
  O  O18  1  0.11348200  0.38651800  0.61348200  1
  O  O19  1  0.14493200  0.86634700  0.63554200  1
  O  O20  1  0.10506800  0.61445800  0.38365300  1
  O  O21  1  0.13651800  0.63651800  0.86348200  1
  O  O22  1  0.13554200  0.35506800  0.13365300  1
  O  O23  1  0.13365300  0.13554200  0.35506800  1
  O  O24  1  0.36634700  0.86445800  0.85506800  1
  O  O25  1  0.36445800  0.64493200  0.63365300  1
  O  O26  1  0.36348200  0.36348200  0.36348200  1
  O  O27  1  0.39493200  0.38554200  0.88365300  1
  O  O28  1  0.35506800  0.13365300  0.13554200  1
  O  O29  1  0.38651800  0.61348200  0.11348200  1
  O  O30  1  0.38554200  0.88365300  0.39493200  1
  O  O31  1  0.38365300  0.10506800  0.61445800  1
loop_
_geom_bond_atom_site_label_1
_geom_bond_atom_site_label_2
_geom_bond_distance
_geom_bond_site_symmetry_2
Li0 O3 2.007291 1_555
Li0 O25 2.007291 1_555
Li0 O7 2.007291 1_555
Li0 O26 2.012006 1_555
Li1 O14 2.007291 1_555
Li1 O4 2.007291 1_555
Li1 O0 2.007291 1_555
Li1 O13 2.012006 1_555
Li2 O15 2.007291 1_555
Li2 O1 2.007291 1_555
Li2 O11 2.007291 1_555
Li2 O2 2.012006 1_555
Li3 O8 2.007291 1_555
Li3 O22 2.007291 1_655
Li3 O12 2.007291 1_554
Li3 O21 2.012006 1_654
Li4 O19 2.007291 1_555
Li4 O23 2.007291 1_565
Li4 O9 2.007291 1_455
Li4 O10 2.012006 1_465
Li5 O30 2.007291 1_555
Li5 O20 2.007291 1_555
Li5 O16 2.007291 1_555
Li5 O29 2.012006 1_555
Li6 O27 2.007291 1_555
Li6 O31 2.007291 1_555
Li6 O17 2.007291 1_555
Li6 O18 2.012006 1_555
Li7 O6 2.007291 1_555
Li7 O28 2.007291 1_556
Li7 O24 2.007291 1_545
Li7 O5 2.012006 1_546
Mn0 O0 1.940561 1_555
Mn0 O12 1.940561 1_555
Mn0 O1 1.940561 1_556
Mn0 O6 1.940561 1_555
Mn0 O27 1.940561 1_555
Mn0 O7 1.940561 1_555
Mn1 O14 1.940561 1_555
Mn1 O9 1.940561 1_555
Mn1 O20 1.940561 1_655
Mn1 O8 1.940561 1_555
Mn1 O15 1.940561 1_555
Mn1 O3 1.940561 1_555
Mn2 O28 1.940561 1_555
Mn2 O23 1.940561 1_555
Mn2 O22 1.940561 1_555
Mn2 O17 1.940561 1_554
Mn2 O16 1.940561 1_545
Mn2 O11 1.940561 1_455
Mn3 O4 1.940561 1_555
Mn3 O24 1.940561 1_555
Mn3 O31 1.940561 1_565
Mn3 O19 1.940561 1_555
Mn3 O30 1.940561 1_555
Mn3 O25 1.940561 1_555
Fe0 O29 2.021606 1_555
Fe0 O5 2.021606 1_555
Fe0 O3 2.024111 1_555
Fe0 O0 2.024111 1_554
Fe0 O8 2.032078 1_555
Fe0 O1 2.032078 1_555
Fe1 O5 2.021606 1_555
Fe1 O2 2.021606 1_565
Fe1 O30 2.024111 1_555
Fe1 O9 2.024111 1_555
Fe1 O3 2.032078 1_555
Fe1 O4 2.032078 1_555
Fe2 O2 2.021606 1_555
Fe2 O10 2.021606 1_555
Fe2 O7 2.024111 1_555
Fe2 O4 2.024111 1_545
Fe2 O6 2.032078 1_555
Fe2 O31 2.032078 1_555
Fe3 O5 2.021606 1_555
Fe3 O13 2.021606 1_554
Fe3 O11 2.024111 1_565
Fe3 O8 2.024111 1_555
Fe3 O9 2.032078 1_555
Fe3 O16 2.032078 1_655
Fe4 O10 2.021606 1_555
Fe4 O13 2.021606 1_545
Fe4 O17 2.024111 1_655
Fe4 O6 2.024111 1_555
Fe4 O12 2.032078 1_555
Fe4 O11 2.032078 1_556
Fe5 O10 2.021606 1_555
Fe5 O18 2.021606 1_655
Fe5 O15 2.024111 1_555
Fe5 O12 2.024111 1_555
Fe5 O7 2.032078 1_555
Fe5 O14 2.032078 1_555
Fe6 O21 2.021606 1_555
Fe6 O13 2.021606 1_455
Fe6 O16 2.024111 1_556
Fe6 O19 2.024111 1_555
Fe6 O24 2.032078 1_555
Fe6 O17 2.032078 1_565
Fe7 O18 2.021606 1_555
Fe7 O21 2.021606 1_555
Fe7 O25 2.024111 1_555
Fe7 O14 2.024111 1_455
Fe7 O20 2.032078 1_555
Fe7 O19 2.032078 1_555
Fe8 O26 2.021606 1_555
Fe8 O18 2.021606 1_555
Fe8 O20 2.024111 1_555
Fe8 O23 2.024111 1_555
Fe8 O22 2.032078 1_555
Fe8 O15 2.032078 1_455
Fe9 O21 2.021606 1_555
Fe9 O29 2.021606 1_556
Fe9 O27 2.024111 1_555
Fe9 O24 2.024111 1_555
Fe9 O25 2.032078 1_555
Fe9 O0 2.032078 1_555
Fe10 O26 2.021606 1_555
Fe10 O29 2.021606 1_555
Fe10 O22 2.024111 1_555
Fe10 O1 2.024111 1_555
Fe10 O28 2.032078 1_555
Fe10 O27 2.032078 1_554
Fe11 O26 2.021606 1_555
Fe11 O2 2.021606 1_555
Fe11 O31 2.024111 1_555
Fe11 O28 2.024111 1_555
Fe11 O23 2.032078 1_555
Fe11 O30 2.032078 1_545
